VWK.pdb
     RDKit          3D

 31 32  0  0  1  0  0  0  0  0999 V2000
    7.1278  -13.2231   21.3769 C   0  0  0  0  0  0  0  0  0  0  0  0
    7.9738  -13.8124   20.2826 C   0  0  2  0  0  0  0  0  0  0  0  0
    7.3404  -13.6636   18.9204 C   0  0  0  0  0  0  0  0  0  0  0  0
    8.2892  -15.2621   20.5497 C   0  0  2  0  0  0  0  0  0  0  0  0
    7.0989  -16.0529   20.5335 N   0  0  0  0  0  0  0  0  0  0  0  0
    9.0181  -15.4177   21.8385 C   0  0  0  0  0  0  0  0  0  0  0  0
   10.0911  -14.8095   22.0814 O   0  0  0  0  0  0  0  0  0  0  0  0
    8.4792  -16.2820   22.8193 N   0  0  0  0  0  0  0  0  0  0  0  0
    9.1786  -16.4404   24.1212 C   0  0  1  0  0  0  0  0  0  0  0  0
    8.1069  -16.4709   25.1400 C   0  0  0  0  0  0  0  0  0  0  0  0
    7.2673  -15.2865   25.3077 C   0  0  0  0  0  0  0  0  0  0  0  0
    5.9304  -15.1188   24.9324 C   0  0  0  0  0  0  0  0  0  0  0  0
    5.5631  -13.8757   25.2744 N   0  0  0  0  0  0  0  0  0  0  0  0
    6.5906  -13.2255   25.8530 C   0  0  0  0  0  0  0  0  0  0  0  0
    6.7708  -11.9710   26.3935 C   0  0  0  0  0  0  0  0  0  0  0  0
    7.9671  -11.5552   26.9543 C   0  0  0  0  0  0  0  0  0  0  0  0
    9.0299  -12.4425   26.9717 C   0  0  0  0  0  0  0  0  0  0  0  0
    8.8784  -13.6869   26.4447 C   0  0  0  0  0  0  0  0  0  0  0  0
    7.6692  -14.0976   25.8814 C   0  0  0  0  0  0  0  0  0  0  0  0
   10.1376  -17.5228   24.0628 C   0  0  0  0  0  0  0  0  0  0  0  0
    9.8361  -18.5425   23.3510 O   0  0  0  0  0  0  0  0  0  0  0  0
   11.3761  -17.4972   24.7393 N   0  0  0  0  0  0  0  0  0  0  0  0
   12.2009  -18.7710   24.6369 C   0  0  1  0  0  0  0  0  0  0  0  0
   13.5665  -18.2469   24.2868 C   0  0  0  0  0  0  0  0  0  0  0  0
   14.5184  -19.0126   23.4842 C   0  0  0  0  0  0  0  0  0  0  0  0
   15.9601  -18.8040   23.7047 C   0  0  0  0  0  0  0  0  0  0  0  0
   16.7963  -19.5983   22.6778 C   0  0  0  0  0  0  0  0  0  0  0  0
   18.1966  -19.3481   22.8522 N   0  0  0  0  0  0  0  0  0  0  0  0
   12.0716  -19.3315   25.9885 C   0  0  0  0  0  0  0  0  0  0  0  0
   12.5248  -20.4418   26.3397 O   0  0  0  0  0  0  0  0  0  0  0  0
   11.4069  -18.6166   26.9989 O   0  0  0  0  0  0  0  0  0  0  0  0
  2  1  1  1
  2  3  1  0
  4  2  1  0
  4  5  1  1
  6  4  1  0
  6  7  2  0
  8  6  1  0
  9  8  1  0
  9 10  1  1
 10 11  1  0
 11 19  1  0
 11 12  2  0
 12 13  1  0
 14 15  2  0
 14 13  1  0
 16 15  1  0
 17 16  2  0
 18 17  1  0
 18 19  2  0
 19 14  1  0
 20  9  1  0
 21 20  2  0
 22 20  1  0
 23 24  1  1
 23 22  1  0
 24 25  1  0
 25 26  1  0
 26 27  1  0
 27 28  1  0
 29 23  1  0
 30 29  2  0
 31 29  1  0
M  END
$$$$
