VWK.pdb
     RDKit          3D

 31 32  0  0  1  0  0  0  0  0999 V2000
    7.6898  -12.8846   21.0586 C   0  0  0  0  0  0  0  0  0  0  0  0
    8.2762  -13.7749   19.9985 C   0  0  2  0  0  0  0  0  0  0  0  0
    7.4045  -13.8587   18.7688 C   0  0  0  0  0  0  0  0  0  0  0  0
    8.5523  -15.1579   20.5309 C   0  0  2  0  0  0  0  0  0  0  0  0
    7.3349  -15.8227   20.8752 N   0  0  0  0  0  0  0  0  0  0  0  0
    9.4801  -15.1032   21.6939 C   0  0  0  0  0  0  0  0  0  0  0  0
   10.6577  -14.6747   21.5945 O   0  0  0  0  0  0  0  0  0  0  0  0
    9.0141  -15.5512   22.9514 N   0  0  0  0  0  0  0  0  0  0  0  0
    9.9190  -15.4996   24.1295 C   0  0  1  0  0  0  0  0  0  0  0  0
    9.0712  -15.8502   25.2896 C   0  0  0  0  0  0  0  0  0  0  0  0
    7.8149  -15.1287   25.4814 C   0  0  0  0  0  0  0  0  0  0  0  0
    6.5120  -15.6104   25.3189 C   0  0  0  0  0  0  0  0  0  0  0  0
    5.6678  -14.6070   25.5979 N   0  0  0  0  0  0  0  0  0  0  0  0
    6.3529  -13.4975   25.9339 C   0  0  0  0  0  0  0  0  0  0  0  0
    6.0115  -12.2185   26.3158 C   0  0  0  0  0  0  0  0  0  0  0  0
    6.9490  -11.2481   26.6284 C   0  0  0  0  0  0  0  0  0  0  0  0
    8.2911  -11.5806   26.5532 C   0  0  0  0  0  0  0  0  0  0  0  0
    8.6550  -12.8362   26.1788 C   0  0  0  0  0  0  0  0  0  0  0  0
    7.7033  -13.8079   25.8654 C   0  0  0  0  0  0  0  0  0  0  0  0
   11.1321  -16.2488   23.8808 C   0  0  0  0  0  0  0  0  0  0  0  0
   12.2369  -15.6034   23.8833 O   0  0  0  0  0  0  0  0  0  0  0  0
   11.1484  -17.6409   23.6490 N   0  0  0  0  0  0  0  0  0  0  0  0
   11.9251  -18.4619   24.6670 C   0  0  1  0  0  0  0  0  0  0  0  0
   10.8568  -19.3374   25.2619 C   0  0  0  0  0  0  0  0  0  0  0  0
   11.1616  -20.4309   26.1829 C   0  0  0  0  0  0  0  0  0  0  0  0
   10.0698  -21.3237   26.6089 C   0  0  0  0  0  0  0  0  0  0  0  0
   10.5804  -22.3798   27.6131 C   0  0  0  0  0  0  0  0  0  0  0  0
   10.2020  -22.0397   28.9529 N   0  0  0  0  0  0  0  0  0  0  0  0
   12.9052  -19.1553   23.8205 C   0  0  0  0  0  0  0  0  0  0  0  0
   12.7326  -19.4216   22.6119 O   0  0  0  0  0  0  0  0  0  0  0  0
   14.1401  -19.5688   24.3476 O   0  0  0  0  0  0  0  0  0  0  0  0
  2  1  1  1
  2  3  1  0
  4  2  1  0
  4  5  1  1
  6  4  1  0
  6  7  2  0
  8  6  1  0
  9  8  1  0
  9 10  1  1
 10 11  1  0
 11 19  1  0
 11 12  2  0
 12 13  1  0
 14 15  2  0
 14 13  1  0
 16 15  1  0
 17 16  2  0
 18 17  1  0
 18 19  2  0
 19 14  1  0
 20  9  1  0
 21 20  2  0
 22 20  1  0
 23 24  1  6
 23 22  1  0
 24 25  1  0
 25 26  1  0
 26 27  1  0
 27 28  1  0
 29 23  1  0
 30 29  2  0
 31 29  1  0
M  END
$$$$
