VWK.pdb
     RDKit          3D

 31 32  0  0  1  0  0  0  0  0999 V2000
    7.5869  -12.5924   19.3149 C   0  0  0  0  0  0  0  0  0  0  0  0
    8.5823  -13.3074   18.4440 C   0  0  2  0  0  0  0  0  0  0  0  0
    8.1977  -13.2777   16.9844 C   0  0  0  0  0  0  0  0  0  0  0  0
    8.7870  -14.7312   18.8950 C   0  0  2  0  0  0  0  0  0  0  0  0
    7.6414  -15.5302   18.5923 N   0  0  0  0  0  0  0  0  0  0  0  0
    9.1099  -14.7863   20.3473 C   0  0  0  0  0  0  0  0  0  0  0  0
   10.1659  -14.2949   20.8201 O   0  0  0  0  0  0  0  0  0  0  0  0
    8.1923  -15.4155   21.2199 N   0  0  0  0  0  0  0  0  0  0  0  0
    8.4014  -15.3308   22.6891 C   0  0  1  0  0  0  0  0  0  0  0  0
    7.0555  -15.1176   23.2642 C   0  0  0  0  0  0  0  0  0  0  0  0
    6.9339  -14.9288   24.7083 C   0  0  0  0  0  0  0  0  0  0  0  0
    6.7391  -15.9049   25.6908 C   0  0  0  0  0  0  0  0  0  0  0  0
    6.6841  -15.2843   26.8778 N   0  0  0  0  0  0  0  0  0  0  0  0
    6.8333  -13.9554   26.7197 C   0  0  0  0  0  0  0  0  0  0  0  0
    6.8719  -12.8704   27.5678 C   0  0  0  0  0  0  0  0  0  0  0  0
    7.0589  -11.5716   27.1244 C   0  0  0  0  0  0  0  0  0  0  0  0
    7.2142  -11.3556   25.7656 C   0  0  0  0  0  0  0  0  0  0  0  0
    7.1801  -12.4093   24.9068 C   0  0  0  0  0  0  0  0  0  0  0  0
    6.9910  -13.7150   25.3624 C   0  0  0  0  0  0  0  0  0  0  0  0
    9.2107  -16.4348   23.1590 C   0  0  0  0  0  0  0  0  0  0  0  0
    9.0351  -17.5748   22.6050 O   0  0  0  0  0  0  0  0  0  0  0  0
   10.1770  -16.3068   24.1798 N   0  0  0  0  0  0  0  0  0  0  0  0
   10.9580  -17.5721   24.5000 C   0  0  1  0  0  0  0  0  0  0  0  0
   12.2853  -17.3100   23.8430 C   0  0  0  0  0  0  0  0  0  0  0  0
   13.4873  -18.0745   24.1708 C   0  0  0  0  0  0  0  0  0  0  0  0
   14.7410  -17.7617   23.4631 C   0  0  0  0  0  0  0  0  0  0  0  0
   15.8848  -18.6878   23.9307 C   0  0  0  0  0  0  0  0  0  0  0  0
   17.1017  -18.3932   23.2334 N   0  0  0  0  0  0  0  0  0  0  0  0
   10.9722  -17.5621   25.9689 C   0  0  0  0  0  0  0  0  0  0  0  0
   10.6352  -16.5860   26.6726 O   0  0  0  0  0  0  0  0  0  0  0  0
   11.3792  -18.6983   26.6881 O   0  0  0  0  0  0  0  0  0  0  0  0
  2  1  1  1
  2  3  1  0
  4  2  1  0
  4  5  1  1
  6  4  1  0
  6  7  2  0
  8  6  1  0
  9  8  1  0
  9 10  1  1
 10 11  1  0
 11 19  1  0
 11 12  2  0
 12 13  1  0
 14 15  2  0
 14 13  1  0
 16 15  1  0
 17 16  2  0
 18 17  1  0
 18 19  2  0
 19 14  1  0
 20  9  1  0
 21 20  2  0
 22 20  1  0
 23 24  1  6
 23 22  1  0
 24 25  1  0
 25 26  1  0
 26 27  1  0
 27 28  1  0
 29 23  1  0
 30 29  2  0
 31 29  1  0
M  END
$$$$
