VWK.pdb
     RDKit          3D

 31 32  0  0  1  0  0  0  0  0999 V2000
   10.5344  -19.0528   19.5643 C   0  0  0  0  0  0  0  0  0  0  0  0
    9.1777  -18.6601   19.0489 C   0  0  2  0  0  0  0  0  0  0  0  0
    8.8290  -19.3551   17.7549 C   0  0  0  0  0  0  0  0  0  0  0  0
    9.0635  -17.1665   18.8799 C   0  0  2  0  0  0  0  0  0  0  0  0
    9.9911  -16.6930   17.9012 N   0  0  0  0  0  0  0  0  0  0  0  0
    9.2552  -16.4691   20.1811 C   0  0  0  0  0  0  0  0  0  0  0  0
   10.3478  -15.9380   20.5043 O   0  0  0  0  0  0  0  0  0  0  0  0
    8.1661  -16.4060   21.0807 N   0  0  0  0  0  0  0  0  0  0  0  0
    8.3754  -15.8635   22.4486 C   0  0  1  0  0  0  0  0  0  0  0  0
    7.0695  -15.2960   22.8485 C   0  0  0  0  0  0  0  0  0  0  0  0
    6.8457  -14.9813   24.2580 C   0  0  0  0  0  0  0  0  0  0  0  0
    6.3432  -15.8199   25.2582 C   0  0  0  0  0  0  0  0  0  0  0  0
    6.3048  -15.1172   26.3992 N   0  0  0  0  0  0  0  0  0  0  0  0
    6.7563  -13.8652   26.1944 C   0  0  0  0  0  0  0  0  0  0  0  0
    6.9448  -12.7543   26.9873 C   0  0  0  0  0  0  0  0  0  0  0  0
    7.4555  -11.5604   26.5053 C   0  0  0  0  0  0  0  0  0  0  0  0
    7.7917  -11.4816   25.1644 C   0  0  0  0  0  0  0  0  0  0  0  0
    7.6155  -12.5637   24.3600 C   0  0  0  0  0  0  0  0  0  0  0  0
    7.1001  -13.7630   24.8542 C   0  0  0  0  0  0  0  0  0  0  0  0
    9.0175  -16.8430   23.2989 C   0  0  0  0  0  0  0  0  0  0  0  0
    8.6451  -18.0617   23.1831 O   0  0  0  0  0  0  0  0  0  0  0  0
   10.0280  -16.5172   24.2288 N   0  0  0  0  0  0  0  0  0  0  0  0
   10.6300  -17.6968   24.9768 C   0  0  1  0  0  0  0  0  0  0  0  0
   12.0191  -17.7700   24.4048 C   0  0  0  0  0  0  0  0  0  0  0  0
   13.0260  -18.7030   24.9071 C   0  0  0  0  0  0  0  0  0  0  0  0
   14.3600  -18.7101   24.2818 C   0  0  0  0  0  0  0  0  0  0  0  0
   15.2576  -19.7992   24.9085 C   0  0  0  0  0  0  0  0  0  0  0  0
   16.4676  -19.9620   24.1578 N   0  0  0  0  0  0  0  0  0  0  0  0
   10.5495  -17.2496   26.3737 C   0  0  0  0  0  0  0  0  0  0  0  0
   10.8056  -17.9697   27.3624 O   0  0  0  0  0  0  0  0  0  0  0  0
   10.1679  -15.9333   26.6826 O   0  0  0  0  0  0  0  0  0  0  0  0
  2  1  1  6
  2  3  1  0
  4  2  1  0
  4  5  1  6
  6  4  1  0
  6  7  2  0
  8  6  1  0
  9  8  1  0
  9 10  1  1
 10 11  1  0
 11 19  1  0
 11 12  2  0
 12 13  1  0
 14 15  2  0
 14 13  1  0
 16 15  1  0
 17 16  2  0
 18 17  1  0
 18 19  2  0
 19 14  1  0
 20  9  1  0
 21 20  2  0
 22 20  1  0
 23 24  1  6
 23 22  1  0
 24 25  1  0
 25 26  1  0
 26 27  1  0
 27 28  1  0
 29 23  1  0
 30 29  2  0
 31 29  1  0
M  END
$$$$
