VWK.pdb
     RDKit          3D

 31 32  0  0  1  0  0  0  0  0999 V2000
    7.8431  -13.6762   17.2346 C   0  0  0  0  0  0  0  0  0  0  0  0
    7.9620  -13.6530   18.7332 C   0  0  2  0  0  0  0  0  0  0  0  0
    8.5666  -12.3675   19.2440 C   0  0  0  0  0  0  0  0  0  0  0  0
    8.7509  -14.8325   19.2419 C   0  0  2  0  0  0  0  0  0  0  0  0
    8.1228  -16.0620   18.8726 N   0  0  0  0  0  0  0  0  0  0  0  0
    8.9389  -14.7489   20.7163 C   0  0  0  0  0  0  0  0  0  0  0  0
    9.6879  -13.8924   21.2508 O   0  0  0  0  0  0  0  0  0  0  0  0
    8.2482  -15.6687   21.5386 N   0  0  0  0  0  0  0  0  0  0  0  0
    8.4385  -15.6217   23.0120 C   0  0  1  0  0  0  0  0  0  0  0  0
    7.0776  -15.5032   23.5788 C   0  0  0  0  0  0  0  0  0  0  0  0
    6.9328  -15.0588   24.9635 C   0  0  0  0  0  0  0  0  0  0  0  0
    6.5397  -15.8136   26.0733 C   0  0  0  0  0  0  0  0  0  0  0  0
    6.5426  -15.0026   27.1407 N   0  0  0  0  0  0  0  0  0  0  0  0
    6.9175  -13.7594   26.7841 C   0  0  0  0  0  0  0  0  0  0  0  0
    7.1035  -12.5678   27.4502 C   0  0  0  0  0  0  0  0  0  0  0  0
    7.5217  -11.4075   26.8199 C   0  0  0  0  0  0  0  0  0  0  0  0
    7.7638  -11.4491   25.4572 C   0  0  0  0  0  0  0  0  0  0  0  0
    7.5880  -12.6127   24.7759 C   0  0  0  0  0  0  0  0  0  0  0  0
    7.1660  -13.7773   25.4193 C   0  0  0  0  0  0  0  0  0  0  0  0
    9.3041  -16.6940   23.4544 C   0  0  0  0  0  0  0  0  0  0  0  0
    9.2345  -17.8073   22.8273 O   0  0  0  0  0  0  0  0  0  0  0  0
   10.2143  -16.5626   24.5251 N   0  0  0  0  0  0  0  0  0  0  0  0
   11.1346  -17.7529   24.7478 C   0  0  1  0  0  0  0  0  0  0  0  0
   12.4295  -17.2797   24.1466 C   0  0  0  0  0  0  0  0  0  0  0  0
   13.3648  -18.1873   23.4847 C   0  0  0  0  0  0  0  0  0  0  0  0
   14.7872  -18.1403   23.8655 C   0  0  0  0  0  0  0  0  0  0  0  0
   15.6023  -19.1959   23.0871 C   0  0  0  0  0  0  0  0  0  0  0  0
   16.2969  -18.5983   21.9851 N   0  0  0  0  0  0  0  0  0  0  0  0
   11.1305  -17.8761   26.2115 C   0  0  0  0  0  0  0  0  0  0  0  0
   11.4805  -18.9006   26.8357 O   0  0  0  0  0  0  0  0  0  0  0  0
   10.7190  -16.8024   27.0187 O   0  0  0  0  0  0  0  0  0  0  0  0
  2  1  1  6
  2  3  1  0
  4  2  1  0
  4  5  1  1
  6  4  1  0
  6  7  2  0
  8  6  1  0
  9  8  1  0
  9 10  1  1
 10 11  1  0
 11 19  1  0
 11 12  2  0
 12 13  1  0
 14 15  2  0
 14 13  1  0
 16 15  1  0
 17 16  2  0
 18 17  1  0
 18 19  2  0
 19 14  1  0
 20  9  1  0
 21 20  2  0
 22 20  1  0
 23 24  1  1
 23 22  1  0
 24 25  1  0
 25 26  1  0
 26 27  1  0
 27 28  1  0
 29 23  1  0
 30 29  2  0
 31 29  1  0
M  END
$$$$
