VWK.pdb
     RDKit          3D

 31 32  0  0  1  0  0  0  0  0999 V2000
   10.7918  -18.9201   17.9200 C   0  0  0  0  0  0  0  0  0  0  0  0
   10.8094  -18.1934   19.2361 C   0  0  2  0  0  0  0  0  0  0  0  0
   10.7924  -19.1358   20.4154 C   0  0  0  0  0  0  0  0  0  0  0  0
    9.6677  -17.2147   19.3408 C   0  0  2  0  0  0  0  0  0  0  0  0
    9.6822  -16.2973   18.2449 N   0  0  0  0  0  0  0  0  0  0  0  0
    9.7044  -16.4940   20.6430 C   0  0  0  0  0  0  0  0  0  0  0  0
   10.5619  -15.6110   20.8984 O   0  0  0  0  0  0  0  0  0  0  0  0
    8.7382  -16.8196   21.6227 N   0  0  0  0  0  0  0  0  0  0  0  0
    8.7724  -16.1357   22.9419 C   0  0  1  0  0  0  0  0  0  0  0  0
    7.3731  -15.7423   23.2151 C   0  0  0  0  0  0  0  0  0  0  0  0
    7.0256  -15.2812   24.5577 C   0  0  0  0  0  0  0  0  0  0  0  0
    6.4665  -16.0214   25.6044 C   0  0  0  0  0  0  0  0  0  0  0  0
    6.3147  -15.1979   26.6513 N   0  0  0  0  0  0  0  0  0  0  0  0
    6.7460  -13.9606   26.3412 C   0  0  0  0  0  0  0  0  0  0  0  0
    6.8373  -12.7621   27.0146 C   0  0  0  0  0  0  0  0  0  0  0  0
    7.3519  -11.6111   26.4413 C   0  0  0  0  0  0  0  0  0  0  0  0
    7.7947  -11.6695   25.1307 C   0  0  0  0  0  0  0  0  0  0  0  0
    7.7158  -12.8403   24.4435 C   0  0  0  0  0  0  0  0  0  0  0  0
    7.1956  -13.9954   25.0292 C   0  0  0  0  0  0  0  0  0  0  0  0
    9.4929  -16.9287   23.9150 C   0  0  0  0  0  0  0  0  0  0  0  0
    9.2388  -18.1818   23.9617 O   0  0  0  0  0  0  0  0  0  0  0  0
   10.4559  -16.3880   24.7939 N   0  0  0  0  0  0  0  0  0  0  0  0
   11.1350  -17.3915   25.7133 C   0  0  1  0  0  0  0  0  0  0  0  0
   12.5939  -17.1417   25.4464 C   0  0  0  0  0  0  0  0  0  0  0  0
   13.6513  -17.9532   26.0465 C   0  0  0  0  0  0  0  0  0  0  0  0
   15.0468  -17.7107   25.6414 C   0  0  0  0  0  0  0  0  0  0  0  0
   16.0144  -18.6329   26.4147 C   0  0  0  0  0  0  0  0  0  0  0  0
   16.8448  -19.3768   25.5142 N   0  0  0  0  0  0  0  0  0  0  0  0
   10.6580  -16.9690   27.0369 C   0  0  0  0  0  0  0  0  0  0  0  0
   10.1207  -15.8663   27.2758 O   0  0  0  0  0  0  0  0  0  0  0  0
   10.7834  -17.8199   28.1477 O   0  0  0  0  0  0  0  0  0  0  0  0
  2  1  1  6
  2  3  1  0
  4  2  1  0
  4  5  1  6
  6  4  1  0
  6  7  2  0
  8  6  1  0
  9  8  1  0
  9 10  1  1
 10 11  1  0
 11 19  1  0
 11 12  2  0
 12 13  1  0
 14 15  2  0
 14 13  1  0
 16 15  1  0
 17 16  2  0
 18 17  1  0
 18 19  2  0
 19 14  1  0
 20  9  1  0
 21 20  2  0
 22 20  1  0
 23 24  1  1
 23 22  1  0
 24 25  1  0
 25 26  1  0
 26 27  1  0
 27 28  1  0
 29 23  1  0
 30 29  2  0
 31 29  1  0
M  END
$$$$
