VWK.pdb
     RDKit          3D

 31 32  0  0  1  0  0  0  0  0999 V2000
    7.5313  -13.5609   17.1104 C   0  0  0  0  0  0  0  0  0  0  0  0
    7.7289  -13.5628   18.6009 C   0  0  2  0  0  0  0  0  0  0  0  0
    8.2265  -12.2347   19.1183 C   0  0  0  0  0  0  0  0  0  0  0  0
    8.6606  -14.6666   19.0320 C   0  0  2  0  0  0  0  0  0  0  0  0
    8.1498  -15.9438   18.6441 N   0  0  0  0  0  0  0  0  0  0  0  0
    8.9057  -14.6111   20.4995 C   0  0  0  0  0  0  0  0  0  0  0  0
    9.8266  -13.9180   21.0012 O   0  0  0  0  0  0  0  0  0  0  0  0
    8.0698  -15.3675   21.3530 N   0  0  0  0  0  0  0  0  0  0  0  0
    8.2887  -15.3219   22.8225 C   0  0  1  0  0  0  0  0  0  0  0  0
    6.9394  -15.1985   23.4154 C   0  0  0  0  0  0  0  0  0  0  0  0
    6.8237  -15.0391   24.8635 C   0  0  0  0  0  0  0  0  0  0  0  0
    6.5441  -16.0221   25.8183 C   0  0  0  0  0  0  0  0  0  0  0  0
    6.5314  -15.4310   27.0215 N   0  0  0  0  0  0  0  0  0  0  0  0
    6.7885  -14.1148   26.9001 C   0  0  0  0  0  0  0  0  0  0  0  0
    6.9089  -13.0594   27.7776 C   0  0  0  0  0  0  0  0  0  0  0  0
    7.2031  -11.7687   27.3705 C   0  0  0  0  0  0  0  0  0  0  0  0
    7.3845  -11.5298   26.0187 C   0  0  0  0  0  0  0  0  0  0  0  0
    7.2712  -12.5540   25.1315 C   0  0  0  0  0  0  0  0  0  0  0  0
    6.9742  -13.8518   25.5506 C   0  0  0  0  0  0  0  0  0  0  0  0
    9.1586  -16.3977   23.2476 C   0  0  0  0  0  0  0  0  0  0  0  0
    9.0647  -17.5139   22.6291 O   0  0  0  0  0  0  0  0  0  0  0  0
   10.0980  -16.2666   24.2928 N   0  0  0  0  0  0  0  0  0  0  0  0
   10.9721  -17.4865   24.5401 C   0  0  1  0  0  0  0  0  0  0  0  0
   12.2764  -17.0856   23.9075 C   0  0  0  0  0  0  0  0  0  0  0  0
   13.4773  -17.9144   23.9937 C   0  0  0  0  0  0  0  0  0  0  0  0
   14.7064  -17.4526   23.3253 C   0  0  0  0  0  0  0  0  0  0  0  0
   15.8391  -18.4916   23.4735 C   0  0  0  0  0  0  0  0  0  0  0  0
   16.9726  -18.1333   22.6731 N   0  0  0  0  0  0  0  0  0  0  0  0
   10.9841  -17.5650   26.0069 C   0  0  0  0  0  0  0  0  0  0  0  0
   11.2047  -18.6091   26.6572 O   0  0  0  0  0  0  0  0  0  0  0  0
   10.7415  -16.4218   26.7865 O   0  0  0  0  0  0  0  0  0  0  0  0
  2  1  1  6
  2  3  1  0
  4  2  1  0
  4  5  1  1
  6  4  1  0
  6  7  2  0
  8  6  1  0
  9  8  1  0
  9 10  1  1
 10 11  1  0
 11 19  1  0
 11 12  2  0
 12 13  1  0
 14 15  2  0
 14 13  1  0
 16 15  1  0
 17 16  2  0
 18 17  1  0
 18 19  2  0
 19 14  1  0
 20  9  1  0
 21 20  2  0
 22 20  1  0
 23 24  1  1
 23 22  1  0
 24 25  1  0
 25 26  1  0
 26 27  1  0
 27 28  1  0
 29 23  1  0
 30 29  2  0
 31 29  1  0
M  END
$$$$
