VWK.pdb
     RDKit          3D

 31 32  0  0  1  0  0  0  0  0999 V2000
    6.1502  -13.8767   19.5288 C   0  0  0  0  0  0  0  0  0  0  0  0
    7.1568  -13.7754   20.6410 C   0  0  2  0  0  0  0  0  0  0  0  0
    8.1135  -12.6233   20.4498 C   0  0  0  0  0  0  0  0  0  0  0  0
    7.9247  -15.0618   20.8083 C   0  0  2  0  0  0  0  0  0  0  0  0
    7.0344  -16.1689   20.9640 N   0  0  0  0  0  0  0  0  0  0  0  0
    8.8704  -14.9698   21.9544 C   0  0  0  0  0  0  0  0  0  0  0  0
    9.7420  -14.0676   22.0357 O   0  0  0  0  0  0  0  0  0  0  0  0
    8.7800  -15.9348   22.9840 N   0  0  0  0  0  0  0  0  0  0  0  0
    9.7265  -15.8766   24.1286 C   0  0  1  0  0  0  0  0  0  0  0  0
    8.9084  -16.1602   25.3276 C   0  0  0  0  0  0  0  0  0  0  0  0
    7.7237  -15.3412   25.5758 C   0  0  0  0  0  0  0  0  0  0  0  0
    6.3834  -15.6790   25.3623 C   0  0  0  0  0  0  0  0  0  0  0  0
    5.6345  -14.6280   25.7253 N   0  0  0  0  0  0  0  0  0  0  0  0
    6.4170  -13.6239   26.1643 C   0  0  0  0  0  0  0  0  0  0  0  0
    6.1932  -12.3572   26.6579 C   0  0  0  0  0  0  0  0  0  0  0  0
    7.2141  -11.5132   27.0627 C   0  0  0  0  0  0  0  0  0  0  0  0
    8.5193  -11.9652   26.9663 C   0  0  0  0  0  0  0  0  0  0  0  0
    8.7677  -13.2115   26.4825 C   0  0  0  0  0  0  0  0  0  0  0  0
    7.7326  -14.0553   26.0767 C   0  0  0  0  0  0  0  0  0  0  0  0
   10.9045  -16.6749   23.8643 C   0  0  0  0  0  0  0  0  0  0  0  0
   10.7285  -17.9009   23.5429 O   0  0  0  0  0  0  0  0  0  0  0  0
   12.2182  -16.1636   23.9356 N   0  0  0  0  0  0  0  0  0  0  0  0
   13.3259  -17.1771   23.6922 C   0  0  1  0  0  0  0  0  0  0  0  0
   14.2669  -16.4212   22.7950 C   0  0  0  0  0  0  0  0  0  0  0  0
   13.8660  -15.9209   21.4813 C   0  0  0  0  0  0  0  0  0  0  0  0
   14.8852  -15.2976   20.6192 C   0  0  0  0  0  0  0  0  0  0  0  0
   14.3064  -14.9757   19.2242 C   0  0  0  0  0  0  0  0  0  0  0  0
   15.2659  -14.2805   18.4180 N   0  0  0  0  0  0  0  0  0  0  0  0
   13.8204  -17.4259   25.0529 C   0  0  0  0  0  0  0  0  0  0  0  0
   13.4907  -16.7601   26.0577 O   0  0  0  0  0  0  0  0  0  0  0  0
   14.7245  -18.4711   25.3055 O   0  0  0  0  0  0  0  0  0  0  0  0
  2  1  1  6
  2  3  1  0
  4  2  1  0
  4  5  1  1
  6  4  1  0
  6  7  2  0
  8  6  1  0
  9  8  1  0
  9 10  1  1
 10 11  1  0
 11 19  1  0
 11 12  2  0
 12 13  1  0
 14 15  2  0
 14 13  1  0
 16 15  1  0
 17 16  2  0
 18 17  1  0
 18 19  2  0
 19 14  1  0
 20  9  1  0
 21 20  2  0
 22 20  1  0
 23 24  1  6
 23 22  1  0
 24 25  1  0
 25 26  1  0
 26 27  1  0
 27 28  1  0
 29 23  1  0
 30 29  2  0
 31 29  1  0
M  END
$$$$
