VWK.pdb
     RDKit          3D

 31 32  0  0  1  0  0  0  0  0999 V2000
    7.5749  -12.5550   19.4534 C   0  0  0  0  0  0  0  0  0  0  0  0
    8.5967  -13.2261   18.5782 C   0  0  2  0  0  0  0  0  0  0  0  0
    8.1877  -13.2460   17.1251 C   0  0  0  0  0  0  0  0  0  0  0  0
    8.8925  -14.6268   19.0505 C   0  0  2  0  0  0  0  0  0  0  0  0
    7.8304  -15.5166   18.7001 N   0  0  0  0  0  0  0  0  0  0  0  0
    9.1481  -14.6493   20.5170 C   0  0  0  0  0  0  0  0  0  0  0  0
   10.1161  -14.0409   21.0398 O   0  0  0  0  0  0  0  0  0  0  0  0
    8.2677  -15.3831   21.3450 N   0  0  0  0  0  0  0  0  0  0  0  0
    8.4406  -15.3383   22.8206 C   0  0  1  0  0  0  0  0  0  0  0  0
    7.0932  -15.0621   23.3643 C   0  0  0  0  0  0  0  0  0  0  0  0
    6.9394  -14.9123   24.8099 C   0  0  0  0  0  0  0  0  0  0  0  0
    6.7023  -15.9122   25.7587 C   0  0  0  0  0  0  0  0  0  0  0  0
    6.6296  -15.3249   26.9616 N   0  0  0  0  0  0  0  0  0  0  0  0
    6.8073  -13.9951   26.8457 C   0  0  0  0  0  0  0  0  0  0  0  0
    6.8451  -12.9357   27.7258 C   0  0  0  0  0  0  0  0  0  0  0  0
    7.0671  -11.6286   27.3249 C   0  0  0  0  0  0  0  0  0  0  0  0
    7.2598  -11.3769   25.9770 C   0  0  0  0  0  0  0  0  0  0  0  0
    7.2274  -12.4048   25.0874 C   0  0  0  0  0  0  0  0  0  0  0  0
    7.0029  -13.7191   25.5002 C   0  0  0  0  0  0  0  0  0  0  0  0
    9.1750  -16.4944   23.2888 C   0  0  0  0  0  0  0  0  0  0  0  0
    8.9927  -17.6005   22.6720 O   0  0  0  0  0  0  0  0  0  0  0  0
   10.0768  -16.4514   24.3736 N   0  0  0  0  0  0  0  0  0  0  0  0
   10.8022  -17.7550   24.6699 C   0  0  1  0  0  0  0  0  0  0  0  0
   12.1237  -17.5559   23.9798 C   0  0  0  0  0  0  0  0  0  0  0  0
   12.5804  -18.4227   22.8951 C   0  0  0  0  0  0  0  0  0  0  0  0
   14.0111  -18.4236   22.5434 C   0  0  0  0  0  0  0  0  0  0  0  0
   14.2815  -19.3435   21.3329 C   0  0  0  0  0  0  0  0  0  0  0  0
   14.9737  -20.5321   21.7356 N   0  0  0  0  0  0  0  0  0  0  0  0
   10.8544  -17.7520   26.1379 C   0  0  0  0  0  0  0  0  0  0  0  0
   10.5757  -16.7660   26.8533 O   0  0  0  0  0  0  0  0  0  0  0  0
   11.2326  -18.9070   26.8427 O   0  0  0  0  0  0  0  0  0  0  0  0
  2  1  1  1
  2  3  1  0
  4  2  1  0
  4  5  1  1
  6  4  1  0
  6  7  2  0
  8  6  1  0
  9  8  1  0
  9 10  1  1
 10 11  1  0
 11 19  1  0
 11 12  2  0
 12 13  1  0
 14 15  2  0
 14 13  1  0
 16 15  1  0
 17 16  2  0
 18 17  1  0
 18 19  2  0
 19 14  1  0
 20  9  1  0
 21 20  2  0
 22 20  1  0
 23 24  1  6
 23 22  1  0
 24 25  1  0
 25 26  1  0
 26 27  1  0
 27 28  1  0
 29 23  1  0
 30 29  2  0
 31 29  1  0
M  END
$$$$
