NDC.pdb
     RDKit          3D

 23 22  0  0  1  0  0  0  0  0999 V2000
   21.5444   -8.8688  -14.0206 N   0  0  0  0  0  0  0  0  0  0  0  0
   21.4052   -7.9274  -12.9561 C   0  0  0  0  0  0  0  0  0  0  0  0
   22.4323   -7.4108  -12.4518 O   0  0  0  0  0  0  0  0  0  0  0  0
   20.0948   -7.5176  -12.4020 C   0  0  0  0  0  0  0  0  0  0  0  0
   18.9597   -8.3142  -13.0099 C   0  0  2  0  0  0  0  0  0  0  0  0
   18.9202   -8.1427  -14.4085 N   0  0  0  0  0  0  0  0  0  0  0  0
   17.7350   -8.0031  -12.2803 C   0  0  0  0  0  0  0  0  0  0  0  0
   17.0827   -6.9850  -12.6287 O   0  0  0  0  0  0  0  0  0  0  0  0
   17.2569   -8.7835  -11.2157 N   0  0  0  0  0  0  0  0  0  0  0  0
   15.9780   -8.6425  -10.5907 C   0  0  1  0  0  0  0  0  0  0  0  0
   15.5760   -9.8870   -9.8148 C   0  0  0  0  0  0  0  0  0  0  0  0
   15.1609  -10.9834  -10.7001 C   0  0  0  0  0  0  0  0  0  0  0  0
   14.5985  -10.7675  -11.7824 O   0  0  0  0  0  0  0  0  0  0  0  0
   16.0557   -7.5391   -9.5696 C   0  0  0  0  0  0  0  0  0  0  0  0
   17.0167   -7.5212   -8.7539 O   0  0  0  0  0  0  0  0  0  0  0  0
   15.4068  -12.2859  -10.3100 O   0  0  0  0  0  0  0  0  0  0  0  0
   15.0970   -6.5114   -9.4770 N   0  0  0  0  0  0  0  0  0  0  0  0
   15.1304   -5.4771   -8.4604 C   0  0  1  0  0  0  0  0  0  0  0  0
   15.6873   -4.1812   -9.0128 C   0  0  0  0  0  0  0  0  0  0  0  0
   15.5332   -2.8215   -7.8539 S   0  0  0  0  0  0  0  0  0  0  0  0
   13.7790   -5.2857   -7.8763 C   0  0  0  0  0  0  0  0  0  0  0  0
   12.7533   -5.7096   -8.4517 O   0  0  0  0  0  0  0  0  0  0  0  0
   13.6200   -4.6257   -6.6664 O   0  0  0  0  0  0  0  0  0  0  0  0
  1  2  1  0
  2  4  1  0
  3  2  2  0
  5  4  1  0
  5  6  1  6
  5  7  1  0
  7  8  2  0
  9  7  1  0
  9 10  1  0
 10 14  1  0
 10 11  1  1
 11 12  1  0
 12 16  1  0
 13 12  2  0
 14 15  2  0
 17 14  1  0
 17 18  1  0
 18 21  1  0
 18 19  1  6
 19 20  1  0
 21 22  2  0
 21 23  1  0
M  END
$$$$
