NDC.pdb
     RDKit          3D

 23 22  0  0  1  0  0  0  0  0999 V2000
   15.4988  -13.3241  -15.5758 N   0  0  0  0  0  0  0  0  0  0  0  0
   15.2850  -12.9303  -14.2200 C   0  0  0  0  0  0  0  0  0  0  0  0
   14.3566  -13.4618  -13.5629 O   0  0  0  0  0  0  0  0  0  0  0  0
   16.1104  -11.9121  -13.5314 C   0  0  0  0  0  0  0  0  0  0  0  0
   17.1210  -11.2873  -14.4698 C   0  0  2  0  0  0  0  0  0  0  0  0
   17.9686  -12.2702  -15.0198 N   0  0  0  0  0  0  0  0  0  0  0  0
   17.7711  -10.1798  -13.7769 C   0  0  0  0  0  0  0  0  0  0  0  0
   19.0115  -10.0342  -13.9301 O   0  0  0  0  0  0  0  0  0  0  0  0
   17.0787   -9.2775  -12.9538 N   0  0  0  0  0  0  0  0  0  0  0  0
   17.5623   -7.9998  -12.5301 C   0  0  1  0  0  0  0  0  0  0  0  0
   17.8679   -7.0820  -13.7033 C   0  0  0  0  0  0  0  0  0  0  0  0
   18.3900   -5.7795  -13.2682 C   0  0  0  0  0  0  0  0  0  0  0  0
   17.7722   -5.0672  -12.4650 O   0  0  0  0  0  0  0  0  0  0  0  0
   16.4795   -7.3059  -11.7477 C   0  0  0  0  0  0  0  0  0  0  0  0
   15.4463   -6.9044  -12.3483 O   0  0  0  0  0  0  0  0  0  0  0  0
   19.6010   -5.3439  -13.7712 O   0  0  0  0  0  0  0  0  0  0  0  0
   16.5618   -7.0788  -10.3601 N   0  0  0  0  0  0  0  0  0  0  0  0
   15.5018   -6.4591   -9.5877 C   0  0  1  0  0  0  0  0  0  0  0  0
   15.4962   -6.9626   -8.1590 C   0  0  0  0  0  0  0  0  0  0  0  0
   15.0127   -8.6855   -8.0431 S   0  0  0  0  0  0  0  0  0  0  0  0
   15.6199   -4.9803   -9.6451 C   0  0  0  0  0  0  0  0  0  0  0  0
   16.6562   -4.4244  -10.0692 O   0  0  0  0  0  0  0  0  0  0  0  0
   14.5736   -4.1718   -9.2255 O   0  0  0  0  0  0  0  0  0  0  0  0
  1  2  1  0
  2  4  1  0
  3  2  2  0
  5  4  1  0
  5  6  1  1
  5  7  1  0
  7  8  2  0
  9  7  1  0
  9 10  1  0
 10 14  1  0
 10 11  1  6
 11 12  1  0
 12 16  1  0
 13 12  2  0
 14 15  2  0
 17 14  1  0
 17 18  1  0
 18 21  1  0
 18 19  1  1
 19 20  1  0
 21 22  2  0
 21 23  1  0
M  END
$$$$
