NDC.pdb
     RDKit          3D

 23 22  0  0  1  0  0  0  0  0999 V2000
   14.6625  -13.6465  -15.0127 N   0  0  0  0  0  0  0  0  0  0  0  0
   15.4796  -13.2132  -16.1006 C   0  0  0  0  0  0  0  0  0  0  0  0
   15.3018  -13.7084  -17.2405 O   0  0  0  0  0  0  0  0  0  0  0  0
   16.5447  -12.1944  -15.9593 C   0  0  0  0  0  0  0  0  0  0  0  0
   17.8871  -12.7257  -16.4153 C   0  0  2  0  0  0  0  0  0  0  0  0
   18.2042  -13.9258  -15.7473 N   0  0  0  0  0  0  0  0  0  0  0  0
   18.8665  -11.6483  -16.3196 C   0  0  0  0  0  0  0  0  0  0  0  0
   19.3074  -11.3508  -15.1793 O   0  0  0  0  0  0  0  0  0  0  0  0
   19.3342  -10.9353  -17.4350 N   0  0  0  0  0  0  0  0  0  0  0  0
   20.2562   -9.8424  -17.3958 C   0  0  1  0  0  0  0  0  0  0  0  0
   21.1367   -9.7873  -18.6344 C   0  0  0  0  0  0  0  0  0  0  0  0
   22.0928   -8.6729  -18.5870 C   0  0  0  0  0  0  0  0  0  0  0  0
   22.1959   -7.8649  -19.5202 O   0  0  0  0  0  0  0  0  0  0  0  0
   19.4802   -8.5525  -17.3959 C   0  0  0  0  0  0  0  0  0  0  0  0
   18.5129   -8.4154  -18.1928 O   0  0  0  0  0  0  0  0  0  0  0  0
   22.8942   -8.5279  -17.4708 O   0  0  0  0  0  0  0  0  0  0  0  0
   19.7829   -7.4756  -16.5401 N   0  0  0  0  0  0  0  0  0  0  0  0
   19.0873   -6.2032  -16.5803 C   0  0  1  0  0  0  0  0  0  0  0  0
   17.7660   -6.2755  -15.8429 C   0  0  0  0  0  0  0  0  0  0  0  0
   17.0509   -4.6555  -15.5606 S   0  0  0  0  0  0  0  0  0  0  0  0
   19.9547   -5.1252  -16.0422 C   0  0  0  0  0  0  0  0  0  0  0  0
   20.9998   -5.3844  -15.4070 O   0  0  0  0  0  0  0  0  0  0  0  0
   19.6236   -3.7915  -16.2330 O   0  0  0  0  0  0  0  0  0  0  0  0
  1  2  1  0
  2  4  1  0
  3  2  2  0
  5  4  1  0
  5  6  1  1
  5  7  1  0
  7  8  2  0
  9  7  1  0
  9 10  1  0
 10 14  1  0
 10 11  1  6
 11 12  1  0
 12 16  1  0
 13 12  2  0
 14 15  2  0
 17 14  1  0
 17 18  1  0
 18 21  1  0
 18 19  1  1
 19 20  1  0
 21 22  2  0
 21 23  1  0
M  END
$$$$
