NDC.pdb
     RDKit          3D

 23 22  0  0  1  0  0  0  0  0999 V2000
   12.3021  -13.1686  -15.0393 N   0  0  0  0  0  0  0  0  0  0  0  0
   13.2453  -12.0966  -15.0251 C   0  0  0  0  0  0  0  0  0  0  0  0
   13.4510  -11.4426  -16.0769 O   0  0  0  0  0  0  0  0  0  0  0  0
   14.0091  -11.7043  -13.8190 C   0  0  0  0  0  0  0  0  0  0  0  0
   15.4935  -11.9423  -13.9984 C   0  0  2  0  0  0  0  0  0  0  0  0
   15.8055  -13.3072  -13.8348 N   0  0  0  0  0  0  0  0  0  0  0  0
   16.2176  -11.0020  -13.1494 C   0  0  0  0  0  0  0  0  0  0  0  0
   16.3663  -11.2967  -11.9352 O   0  0  0  0  0  0  0  0  0  0  0  0
   16.7510   -9.7932  -13.6244 N   0  0  0  0  0  0  0  0  0  0  0  0
   17.4910   -8.8486  -12.8459 C   0  0  1  0  0  0  0  0  0  0  0  0
   18.2204   -7.8341  -13.7125 C   0  0  0  0  0  0  0  0  0  0  0  0
   19.3581   -8.4293  -14.4262 C   0  0  0  0  0  0  0  0  0  0  0  0
   20.1613   -9.1809  -13.8568 O   0  0  0  0  0  0  0  0  0  0  0  0
   16.5281   -8.0469  -12.0115 C   0  0  0  0  0  0  0  0  0  0  0  0
   15.5024   -7.5556  -12.5556 O   0  0  0  0  0  0  0  0  0  0  0  0
   19.5311   -8.1397  -15.7661 O   0  0  0  0  0  0  0  0  0  0  0  0
   16.7161   -7.8138  -10.6352 N   0  0  0  0  0  0  0  0  0  0  0  0
   15.7750   -7.0762   -9.8139 C   0  0  1  0  0  0  0  0  0  0  0  0
   15.7113   -7.6402   -8.4094 C   0  0  0  0  0  0  0  0  0  0  0  0
   14.6224   -6.6964   -7.3422 S   0  0  0  0  0  0  0  0  0  0  0  0
   16.1191   -5.6320   -9.8075 C   0  0  0  0  0  0  0  0  0  0  0  0
   17.3070   -5.2440   -9.8423 O   0  0  0  0  0  0  0  0  0  0  0  0
   15.1215   -4.6690   -9.7623 O   0  0  0  0  0  0  0  0  0  0  0  0
  1  2  1  0
  2  4  1  0
  3  2  2  0
  5  4  1  0
  5  6  1  1
  5  7  1  0
  7  8  2  0
  9  7  1  0
  9 10  1  0
 10 14  1  0
 10 11  1  6
 11 12  1  0
 12 16  1  0
 13 12  2  0
 14 15  2  0
 17 14  1  0
 17 18  1  0
 18 21  1  0
 18 19  1  1
 19 20  1  0
 21 22  2  0
 21 23  1  0
M  END
$$$$
