NDC.pdb
     RDKit          3D

 23 22  0  0  1  0  0  0  0  0999 V2000
   16.8161  -14.5043  -15.0868 N   0  0  0  0  0  0  0  0  0  0  0  0
   16.9971  -14.4495  -16.5022 C   0  0  0  0  0  0  0  0  0  0  0  0
   16.9620  -15.5123  -17.1697 O   0  0  0  0  0  0  0  0  0  0  0  0
   17.2280  -13.1881  -17.2421 C   0  0  0  0  0  0  0  0  0  0  0  0
   18.5408  -12.5444  -16.8488 C   0  0  2  0  0  0  0  0  0  0  0  0
   18.8806  -12.8709  -15.5202 N   0  0  0  0  0  0  0  0  0  0  0  0
   18.4738  -11.1235  -17.1739 C   0  0  0  0  0  0  0  0  0  0  0  0
   17.6996  -10.7653  -18.0988 O   0  0  0  0  0  0  0  0  0  0  0  0
   19.2292  -10.1471  -16.5052 N   0  0  0  0  0  0  0  0  0  0  0  0
   19.1532   -8.7371  -16.7334 C   0  0  1  0  0  0  0  0  0  0  0  0
   17.7465   -8.1962  -16.5312 C   0  0  0  0  0  0  0  0  0  0  0  0
   17.6874   -6.7352  -16.6739 C   0  0  0  0  0  0  0  0  0  0  0  0
   17.0719   -6.0275  -15.8648 O   0  0  0  0  0  0  0  0  0  0  0  0
   20.0058   -8.0333  -15.7118 C   0  0  0  0  0  0  0  0  0  0  0  0
   19.8153   -8.2629  -14.4868 O   0  0  0  0  0  0  0  0  0  0  0  0
   18.3367   -6.1417  -17.7394 O   0  0  0  0  0  0  0  0  0  0  0  0
   21.0195   -7.1188  -16.0581 N   0  0  0  0  0  0  0  0  0  0  0  0
   21.9674   -6.5773  -15.1028 C   0  0  1  0  0  0  0  0  0  0  0  0
   23.3541   -6.4723  -15.7035 C   0  0  0  0  0  0  0  0  0  0  0  0
   24.0236   -8.0714  -16.1619 S   0  0  0  0  0  0  0  0  0  0  0  0
   21.4925   -5.2665  -14.5928 C   0  0  0  0  0  0  0  0  0  0  0  0
   20.6668   -4.5782  -15.2311 O   0  0  0  0  0  0  0  0  0  0  0  0
   21.9576   -4.7688  -13.3842 O   0  0  0  0  0  0  0  0  0  0  0  0
  1  2  1  0
  2  4  1  0
  3  2  2  0
  5  4  1  0
  5  6  1  1
  5  7  1  0
  7  8  2  0
  9  7  1  0
  9 10  1  0
 10 14  1  0
 10 11  1  1
 11 12  1  0
 12 16  1  0
 13 12  2  0
 14 15  2  0
 17 14  1  0
 17 18  1  0
 18 21  1  0
 18 19  1  6
 19 20  1  0
 21 22  2  0
 21 23  1  0
M  END
$$$$
