NDC.pdb
     RDKit          3D

 23 22  0  0  1  0  0  0  0  0999 V2000
   13.8195  -13.4522  -10.0694 N   0  0  0  0  0  0  0  0  0  0  0  0
   14.9296  -13.0846  -10.8888 C   0  0  0  0  0  0  0  0  0  0  0  0
   15.6523  -13.9823  -11.3866 O   0  0  0  0  0  0  0  0  0  0  0  0
   15.2843  -11.6793  -11.1911 C   0  0  0  0  0  0  0  0  0  0  0  0
   14.4329  -10.7080  -10.4011 C   0  0  2  0  0  0  0  0  0  0  0  0
   13.0616  -10.9610  -10.6076 N   0  0  0  0  0  0  0  0  0  0  0  0
   14.8954   -9.3532  -10.6837 C   0  0  0  0  0  0  0  0  0  0  0  0
   14.3898   -8.7495  -11.6652 O   0  0  0  0  0  0  0  0  0  0  0  0
   15.8715   -8.6997   -9.9148 N   0  0  0  0  0  0  0  0  0  0  0  0
   16.3002   -7.3466  -10.0917 C   0  0  1  0  0  0  0  0  0  0  0  0
   16.3735   -6.5892   -8.7752 C   0  0  0  0  0  0  0  0  0  0  0  0
   16.7212   -5.1747   -8.9668 C   0  0  0  0  0  0  0  0  0  0  0  0
   17.6865   -4.6585   -8.3872 O   0  0  0  0  0  0  0  0  0  0  0  0
   17.7048   -7.3492  -10.6333 C   0  0  0  0  0  0  0  0  0  0  0  0
   18.6410   -7.7941   -9.9156 O   0  0  0  0  0  0  0  0  0  0  0  0
   15.9483   -4.4064   -9.8162 O   0  0  0  0  0  0  0  0  0  0  0  0
   18.0320   -6.8737  -11.9180 N   0  0  0  0  0  0  0  0  0  0  0  0
   19.3840   -6.8578  -12.4437 C   0  0  1  0  0  0  0  0  0  0  0  0
   19.6451   -8.0614  -13.3255 C   0  0  0  0  0  0  0  0  0  0  0  0
   20.5780   -9.3387  -12.4805 S   0  0  0  0  0  0  0  0  0  0  0  0
   19.6407   -5.5860  -13.1653 C   0  0  0  0  0  0  0  0  0  0  0  0
   20.7865   -5.2798  -13.5605 O   0  0  0  0  0  0  0  0  0  0  0  0
   18.6057   -4.6983  -13.4211 O   0  0  0  0  0  0  0  0  0  0  0  0
  1  2  1  0
  2  4  1  0
  3  2  2  0
  5  4  1  0
  5  6  1  6
  5  7  1  0
  7  8  2  0
  9  7  1  0
  9 10  1  0
 10 14  1  0
 10 11  1  1
 11 12  1  0
 12 16  1  0
 13 12  2  0
 14 15  2  0
 17 14  1  0
 17 18  1  0
 18 21  1  0
 18 19  1  6
 19 20  1  0
 21 22  2  0
 21 23  1  0
M  END
$$$$
