NDC.pdb
     RDKit          3D

 23 22  0  0  1  0  0  0  0  0999 V2000
   19.5467  -11.6243  -17.7867 N   0  0  0  0  0  0  0  0  0  0  0  0
   18.7559  -11.1262  -16.7071 C   0  0  0  0  0  0  0  0  0  0  0  0
   17.8898  -11.8691  -16.1835 O   0  0  0  0  0  0  0  0  0  0  0  0
   18.9011   -9.7585  -16.1590 C   0  0  0  0  0  0  0  0  0  0  0  0
   19.9441   -8.9635  -16.9156 C   0  0  2  0  0  0  0  0  0  0  0  0
   21.2241   -9.5299  -16.7487 N   0  0  0  0  0  0  0  0  0  0  0  0
   19.8023   -7.5564  -16.5563 C   0  0  0  0  0  0  0  0  0  0  0  0
   18.6740   -7.0198  -16.7055 O   0  0  0  0  0  0  0  0  0  0  0  0
   20.8609   -6.7820  -16.0556 N   0  0  0  0  0  0  0  0  0  0  0  0
   20.7631   -5.4228  -15.6207 C   0  0  1  0  0  0  0  0  0  0  0  0
   21.8688   -5.0493  -14.6460 C   0  0  0  0  0  0  0  0  0  0  0  0
   21.6183   -5.5708  -13.2956 C   0  0  0  0  0  0  0  0  0  0  0  0
   20.5116   -6.0200  -12.9673 O   0  0  0  0  0  0  0  0  0  0  0  0
   20.9514   -4.5181  -16.8091 C   0  0  0  0  0  0  0  0  0  0  0  0
   21.9132   -4.7278  -17.5967 O   0  0  0  0  0  0  0  0  0  0  0  0
   22.6470   -5.5570  -12.3732 O   0  0  0  0  0  0  0  0  0  0  0  0
   20.0971   -3.4343  -17.0906 N   0  0  0  0  0  0  0  0  0  0  0  0
   20.2409   -2.5861  -18.2586 C   0  0  1  0  0  0  0  0  0  0  0  0
   18.8986   -2.3037  -18.9015 C   0  0  0  0  0  0  0  0  0  0  0  0
   18.0013   -3.8045  -19.2988 S   0  0  0  0  0  0  0  0  0  0  0  0
   20.9493   -1.3318  -17.8998 C   0  0  0  0  0  0  0  0  0  0  0  0
   21.2623   -1.0744  -16.7172 O   0  0  0  0  0  0  0  0  0  0  0  0
   21.2845   -0.4061  -18.8773 O   0  0  0  0  0  0  0  0  0  0  0  0
  1  2  1  0
  2  4  1  0
  3  2  2  0
  5  4  1  0
  5  6  1  1
  5  7  1  0
  7  8  2  0
  9  7  1  0
  9 10  1  0
 10 14  1  0
 10 11  1  1
 11 12  1  0
 12 16  1  0
 13 12  2  0
 14 15  2  0
 17 14  1  0
 17 18  1  0
 18 21  1  0
 18 19  1  1
 19 20  1  0
 21 22  2  0
 21 23  1  0
M  END
$$$$
