SIK.pdb
     RDKit          3D

 24 23  0  0  1  0  0  0  0  0999 V2000
   19.0678  -11.1112  -18.1389 O   0  0  0  0  0  0  0  0  0  0  0  0
   20.0553  -11.9250  -18.6720 C   0  0  0  0  0  0  0  0  0  0  0  0
   20.7293  -12.7427  -17.5789 C   0  0  2  0  0  0  0  0  0  0  0  0
   19.7145  -13.5298  -16.8585 N   0  0  0  0  0  0  0  0  0  0  0  0
   21.3673  -11.8397  -16.6005 C   0  0  0  0  0  0  0  0  0  0  0  0
   20.7604  -11.4601  -15.5579 O   0  0  0  0  0  0  0  0  0  0  0  0
   26.6206  -12.2827  -15.6282 C   0  0  0  0  0  0  0  0  0  0  0  0
   25.1010  -12.1488  -15.4019 C   0  0  0  0  0  0  0  0  0  0  0  0
   24.7403  -10.7713  -15.8226 C   0  0  2  0  0  0  0  0  0  0  0  0
   25.4824   -9.7089  -15.0210 C   0  0  0  0  0  0  0  0  0  0  0  0
   23.2910  -10.4181  -15.8391 C   0  0  2  0  0  0  0  0  0  0  0  0
   22.6758  -11.3671  -16.7908 N   0  0  0  0  0  0  0  0  0  0  0  0
   22.9432   -9.0503  -16.1727 C   0  0  0  0  0  0  0  0  0  0  0  0
   22.8337   -8.6708  -17.3859 O   0  0  0  0  0  0  0  0  0  0  0  0
   22.7024   -8.0707  -15.1861 N   0  0  0  0  0  0  0  0  0  0  0  0
   22.2612   -6.7136  -15.5836 C   0  0  1  0  0  0  0  0  0  0  0  0
   20.8614   -6.9313  -16.1155 C   0  0  0  0  0  0  0  0  0  0  0  0
   20.1190   -5.6893  -16.4546 C   0  0  0  0  0  0  0  0  0  0  0  0
   18.7404   -6.1411  -16.9655 C   0  0  0  0  0  0  0  0  0  0  0  0
   17.9742   -4.8779  -17.3002 C   0  0  0  0  0  0  0  0  0  0  0  0
   16.6153   -5.2529  -17.7013 N   0  0  0  0  0  0  0  0  0  0  0  0
   22.2180   -5.8749  -14.3702 C   0  0  0  0  0  0  0  0  0  0  0  0
   22.1057   -6.4072  -13.2224 O   0  0  0  0  0  0  0  0  0  0  0  0
   22.2937   -4.5066  -14.3931 O   0  0  0  0  0  0  0  0  0  0  0  0
  1  2  1  0
  2  3  1  0
  3  5  1  0
  3  4  1  1
  5 12  1  0
  6  5  2  0
  7  8  1  0
  9 11  1  0
  9 10  1  1
  9  8  1  0
 11 12  1  6
 13 11  1  0
 13 14  2  0
 15 13  1  0
 16 15  1  0
 16 22  1  0
 16 17  1  1
 18 17  1  0
 18 19  1  0
 20 19  1  0
 21 20  1  0
 22 23  2  0
 22 24  1  0
M  END
$$$$
