SIK.pdb
     RDKit          3D

 24 23  0  0  1  0  0  0  0  0999 V2000
   22.0209  -11.7132  -21.3164 O   0  0  0  0  0  0  0  0  0  0  0  0
   21.2193  -11.3461  -20.2467 C   0  0  0  0  0  0  0  0  0  0  0  0
   21.6322  -12.0882  -18.9832 C   0  0  2  0  0  0  0  0  0  0  0  0
   21.0121  -13.4238  -18.9737 N   0  0  0  0  0  0  0  0  0  0  0  0
   21.1417  -11.3629  -17.7945 C   0  0  0  0  0  0  0  0  0  0  0  0
   19.9735  -11.5443  -17.3450 O   0  0  0  0  0  0  0  0  0  0  0  0
   23.7175  -11.4160  -13.4459 C   0  0  0  0  0  0  0  0  0  0  0  0
   22.5901  -11.3940  -14.4979 C   0  0  0  0  0  0  0  0  0  0  0  0
   22.3776   -9.9664  -14.8463 C   0  0  2  0  0  0  0  0  0  0  0  0
   21.9626   -9.1325  -13.6403 C   0  0  0  0  0  0  0  0  0  0  0  0
   21.4398   -9.6676  -15.9673 C   0  0  2  0  0  0  0  0  0  0  0  0
   21.9559  -10.4419  -17.1157 N   0  0  0  0  0  0  0  0  0  0  0  0
   21.2511   -8.2746  -16.3237 C   0  0  0  0  0  0  0  0  0  0  0  0
   22.2421   -7.5217  -16.6045 O   0  0  0  0  0  0  0  0  0  0  0  0
   19.9740   -7.6778  -16.3859 N   0  0  0  0  0  0  0  0  0  0  0  0
   19.8387   -6.2621  -16.8004 C   0  0  1  0  0  0  0  0  0  0  0  0
   18.3430   -6.0593  -16.9066 C   0  0  0  0  0  0  0  0  0  0  0  0
   17.9108   -4.6456  -17.0591 C   0  0  0  0  0  0  0  0  0  0  0  0
   17.4781   -4.4864  -18.5264 C   0  0  0  0  0  0  0  0  0  0  0  0
   17.0069   -3.0549  -18.6797 C   0  0  0  0  0  0  0  0  0  0  0  0
   15.6963   -2.9272  -18.0363 N   0  0  0  0  0  0  0  0  0  0  0  0
   20.3898   -5.4173  -15.7233 C   0  0  0  0  0  0  0  0  0  0  0  0
   20.9688   -4.3203  -15.9968 O   0  0  0  0  0  0  0  0  0  0  0  0
   20.3187   -5.7439  -14.3940 O   0  0  0  0  0  0  0  0  0  0  0  0
  1  2  1  0
  2  3  1  0
  3  5  1  0
  3  4  1  6
  5 12  1  0
  6  5  2  0
  7  8  1  0
  9 11  1  0
  9 10  1  1
  9  8  1  0
 11 12  1  6
 13 11  1  0
 13 14  2  0
 15 13  1  0
 16 15  1  0
 16 22  1  0
 16 17  1  1
 18 17  1  0
 18 19  1  0
 20 19  1  0
 21 20  1  0
 22 23  2  0
 22 24  1  0
M  END
$$$$
