SIK.pdb
     RDKit          3D

 24 23  0  0  1  0  0  0  0  0999 V2000
   17.0863   -8.2615  -18.3876 O   0  0  0  0  0  0  0  0  0  0  0  0
   17.1820   -8.4565  -17.0185 C   0  0  0  0  0  0  0  0  0  0  0  0
   18.4397   -9.2412  -16.6718 C   0  0  2  0  0  0  0  0  0  0  0  0
   18.2811  -10.6393  -17.1058 N   0  0  0  0  0  0  0  0  0  0  0  0
   18.6357   -9.2504  -15.2085 C   0  0  0  0  0  0  0  0  0  0  0  0
   18.0477  -10.0905  -14.4682 O   0  0  0  0  0  0  0  0  0  0  0  0
   22.9685   -9.1834  -11.4779 C   0  0  0  0  0  0  0  0  0  0  0  0
   21.5114   -8.6795  -11.4438 C   0  0  0  0  0  0  0  0  0  0  0  0
   21.0714   -8.5906  -12.8590 C   0  0  2  0  0  0  0  0  0  0  0  0
   21.9092   -7.6046  -13.6642 C   0  0  0  0  0  0  0  0  0  0  0  0
   19.6308   -8.2959  -13.1109 C   0  0  2  0  0  0  0  0  0  0  0  0
   19.4850   -8.3245  -14.5815 N   0  0  0  0  0  0  0  0  0  0  0  0
   19.0974   -7.0648  -12.5606 C   0  0  0  0  0  0  0  0  0  0  0  0
   19.0832   -5.9855  -13.2409 O   0  0  0  0  0  0  0  0  0  0  0  0
   18.5630   -6.9901  -11.2568 N   0  0  0  0  0  0  0  0  0  0  0  0
   17.9203   -5.7392  -10.7915 C   0  0  1  0  0  0  0  0  0  0  0  0
   16.6437   -5.6676  -11.6006 C   0  0  0  0  0  0  0  0  0  0  0  0
   15.7547   -4.5235  -11.2700 C   0  0  0  0  0  0  0  0  0  0  0  0
   14.5956   -4.5767  -12.2796 C   0  0  0  0  0  0  0  0  0  0  0  0
   13.7437   -3.3521  -12.0164 C   0  0  0  0  0  0  0  0  0  0  0  0
   12.6337   -3.3456  -12.9734 N   0  0  0  0  0  0  0  0  0  0  0  0
   17.6045   -5.8949   -9.3585 C   0  0  0  0  0  0  0  0  0  0  0  0
   17.0440   -4.9534   -8.7160 O   0  0  0  0  0  0  0  0  0  0  0  0
   17.8832   -7.0291   -8.6411 O   0  0  0  0  0  0  0  0  0  0  0  0
  1  2  1  0
  2  3  1  0
  3  5  1  0
  3  4  1  1
  5 12  1  0
  6  5  2  0
  7  8  1  0
  9 11  1  0
  9 10  1  6
  9  8  1  0
 11 12  1  6
 13 11  1  0
 13 14  2  0
 15 13  1  0
 16 15  1  0
 16 22  1  0
 16 17  1  6
 18 17  1  0
 18 19  1  0
 20 19  1  0
 21 20  1  0
 22 23  2  0
 22 24  1  0
M  END
$$$$
