SIK.pdb
     RDKit          3D

 24 23  0  0  1  0  0  0  0  0999 V2000
   22.8340  -32.9514   -7.4306 O   0  0  0  0  0  0  0  0  0  0  0  0
   22.0574  -32.8012   -8.5690 C   0  0  0  0  0  0  0  0  0  0  0  0
   22.7394  -31.8787   -9.5698 C   0  0  2  0  0  0  0  0  0  0  0  0
   24.1700  -31.7678   -9.2393 N   0  0  0  0  0  0  0  0  0  0  0  0
   22.1570  -30.5250   -9.4796 C   0  0  0  0  0  0  0  0  0  0  0  0
   22.6876  -29.6234   -8.7690 O   0  0  0  0  0  0  0  0  0  0  0  0
   21.0605  -27.9754  -13.8082 C   0  0  0  0  0  0  0  0  0  0  0  0
   21.5153  -28.3674  -12.3877 C   0  0  0  0  0  0  0  0  0  0  0  0
   20.2860  -28.4055  -11.5559 C   0  0  2  0  0  0  0  0  0  0  0  0
   19.5196  -27.0891  -11.5961 C   0  0  0  0  0  0  0  0  0  0  0  0
   20.4371  -28.8161  -10.1296 C   0  0  2  0  0  0  0  0  0  0  0  0
   20.9889  -30.1863  -10.1814 N   0  0  0  0  0  0  0  0  0  0  0  0
   19.2533  -28.7649   -9.2935 C   0  0  0  0  0  0  0  0  0  0  0  0
   18.3672  -29.6817   -9.3414 O   0  0  0  0  0  0  0  0  0  0  0  0
   19.0169  -27.7127   -8.3836 N   0  0  0  0  0  0  0  0  0  0  0  0
   17.7889  -27.7132   -7.5551 C   0  0  1  0  0  0  0  0  0  0  0  0
   18.0039  -26.5664   -6.5917 C   0  0  0  0  0  0  0  0  0  0  0  0
   16.9290  -26.3859   -5.5814 C   0  0  0  0  0  0  0  0  0  0  0  0
   16.4734  -24.9215   -5.6985 C   0  0  0  0  0  0  0  0  0  0  0  0
   15.3215  -24.7539   -4.7292 C   0  0  0  0  0  0  0  0  0  0  0  0
   14.9163  -23.3455   -4.7303 N   0  0  0  0  0  0  0  0  0  0  0  0
   16.6429  -27.4250   -8.4389 C   0  0  0  0  0  0  0  0  0  0  0  0
   15.5680  -28.0945   -8.3396 O   0  0  0  0  0  0  0  0  0  0  0  0
   16.6547  -26.4465   -9.3985 O   0  0  0  0  0  0  0  0  0  0  0  0
  1  2  1  0
  2  3  1  0
  3  5  1  0
  3  4  1  1
  5 12  1  0
  6  5  2  0
  7  8  1  0
  9 11  1  0
  9 10  1  1
  9  8  1  0
 11 12  1  6
 13 11  1  0
 13 14  2  0
 15 13  1  0
 16 15  1  0
 16 22  1  0
 16 17  1  1
 18 17  1  0
 18 19  1  0
 20 19  1  0
 21 20  1  0
 22 23  2  0
 22 24  1  0
M  END
$$$$
