SIK.pdb
     RDKit          3D

 24 23  0  0  1  0  0  0  0  0999 V2000
   31.3421  -32.0432  -22.3540 O   0  0  0  0  0  0  0  0  0  0  0  0
   30.9680  -32.0925  -21.0201 C   0  0  0  0  0  0  0  0  0  0  0  0
   31.8098  -31.1354  -20.1877 C   0  0  2  0  0  0  0  0  0  0  0  0
   33.0564  -31.8051  -19.7808 N   0  0  0  0  0  0  0  0  0  0  0  0
   31.0808  -30.7692  -18.9572 C   0  0  0  0  0  0  0  0  0  0  0  0
   31.2342  -31.4157  -17.8811 O   0  0  0  0  0  0  0  0  0  0  0  0
   30.3931  -25.6400  -17.6817 C   0  0  0  0  0  0  0  0  0  0  0  0
   30.7121  -27.1463  -17.5964 C   0  0  0  0  0  0  0  0  0  0  0  0
   29.4076  -27.8505  -17.6791 C   0  0  2  0  0  0  0  0  0  0  0  0
   28.4435  -27.4125  -16.5834 C   0  0  0  0  0  0  0  0  0  0  0  0
   29.4354  -29.3418  -17.7097 C   0  0  2  0  0  0  0  0  0  0  0  0
   30.1873  -29.6862  -18.9348 N   0  0  0  0  0  0  0  0  0  0  0  0
   28.1605  -30.0319  -17.6723 C   0  0  0  0  0  0  0  0  0  0  0  0
   27.2642  -29.8178  -18.5547 O   0  0  0  0  0  0  0  0  0  0  0  0
   27.8418  -30.9749  -16.6722 N   0  0  0  0  0  0  0  0  0  0  0  0
   26.4976  -31.5966  -16.6433 C   0  0  1  0  0  0  0  0  0  0  0  0
   26.6184  -32.6665  -15.5800 C   0  0  0  0  0  0  0  0  0  0  0  0
   25.3452  -33.3473  -15.2277 C   0  0  0  0  0  0  0  0  0  0  0  0
   25.6877  -34.3397  -14.1035 C   0  0  0  0  0  0  0  0  0  0  0  0
   24.3822  -34.9918  -13.6974 C   0  0  0  0  0  0  0  0  0  0  0  0
   24.6543  -35.9346  -12.6088 N   0  0  0  0  0  0  0  0  0  0  0  0
   25.5286  -30.5676  -16.2196 C   0  0  0  0  0  0  0  0  0  0  0  0
   25.8879  -29.6205  -15.4532 O   0  0  0  0  0  0  0  0  0  0  0  0
   24.2146  -30.5592  -16.6096 O   0  0  0  0  0  0  0  0  0  0  0  0
  1  2  1  0
  2  3  1  0
  3  5  1  0
  3  4  1  1
  5 12  1  0
  6  5  2  0
  7  8  1  0
  9 11  1  0
  9 10  1  1
  9  8  1  0
 11 12  1  6
 13 11  1  0
 13 14  2  0
 15 13  1  0
 16 15  1  0
 16 22  1  0
 16 17  1  1
 18 17  1  0
 18 19  1  0
 20 19  1  0
 21 20  1  0
 22 23  2  0
 22 24  1  0
M  END
$$$$
