SIK.pdb
     RDKit          3D

 24 23  0  0  1  0  0  0  0  0999 V2000
   28.4349  -19.0370  -16.3907 O   0  0  0  0  0  0  0  0  0  0  0  0
   27.4163  -19.7234  -15.7480 C   0  0  0  0  0  0  0  0  0  0  0  0
   27.9813  -20.6614  -14.6903 C   0  0  2  0  0  0  0  0  0  0  0  0
   28.6801  -21.7784  -15.3479 N   0  0  0  0  0  0  0  0  0  0  0  0
   26.8803  -21.2355  -13.8917 C   0  0  0  0  0  0  0  0  0  0  0  0
   26.2312  -22.2450  -14.2906 O   0  0  0  0  0  0  0  0  0  0  0  0
   26.7400  -20.4684   -8.4751 C   0  0  0  0  0  0  0  0  0  0  0  0
   26.6772  -21.2275   -9.8160 C   0  0  0  0  0  0  0  0  0  0  0  0
   25.4875  -20.7029  -10.5327 C   0  0  2  0  0  0  0  0  0  0  0  0
   24.1928  -20.9645   -9.7729 C   0  0  0  0  0  0  0  0  0  0  0  0
   25.2953  -21.1346  -11.9477 C   0  0  2  0  0  0  0  0  0  0  0  0
   26.5112  -20.6812  -12.6554 N   0  0  0  0  0  0  0  0  0  0  0  0
   24.0987  -20.6760  -12.6267 C   0  0  0  0  0  0  0  0  0  0  0  0
   23.9721  -19.4628  -13.0010 O   0  0  0  0  0  0  0  0  0  0  0  0
   23.0181  -21.5362  -12.9153 N   0  0  0  0  0  0  0  0  0  0  0  0
   21.8259  -21.0143  -13.6227 C   0  0  1  0  0  0  0  0  0  0  0  0
   21.5369  -22.0692  -14.6683 C   0  0  0  0  0  0  0  0  0  0  0  0
   20.3111  -21.8340  -15.4749 C   0  0  0  0  0  0  0  0  0  0  0  0
   20.1806  -23.0424  -16.4174 C   0  0  0  0  0  0  0  0  0  0  0  0
   18.9998  -22.7535  -17.3212 C   0  0  0  0  0  0  0  0  0  0  0  0
   18.7893  -23.9126  -18.1931 N   0  0  0  0  0  0  0  0  0  0  0  0
   20.7155  -20.9436  -12.6534 C   0  0  0  0  0  0  0  0  0  0  0  0
   20.7341  -21.6518  -11.5992 O   0  0  0  0  0  0  0  0  0  0  0  0
   19.6205  -20.1352  -12.8148 O   0  0  0  0  0  0  0  0  0  0  0  0
  1  2  1  0
  2  3  1  0
  3  5  1  0
  3  4  1  6
  5 12  1  0
  6  5  2  0
  7  8  1  0
  9 11  1  0
  9 10  1  1
  9  8  1  0
 11 12  1  6
 13 11  1  0
 13 14  2  0
 15 13  1  0
 16 15  1  0
 16 22  1  0
 16 17  1  6
 18 17  1  0
 18 19  1  0
 20 19  1  0
 21 20  1  0
 22 23  2  0
 22 24  1  0
M  END
$$$$
