SIK.pdb
     RDKit          3D

 24 23  0  0  1  0  0  0  0  0999 V2000
   20.0569   -6.0364  -13.8315 O   0  0  0  0  0  0  0  0  0  0  0  0
   20.6307   -6.5658  -14.9770 C   0  0  0  0  0  0  0  0  0  0  0  0
   22.1339   -6.3249  -14.9886 C   0  0  2  0  0  0  0  0  0  0  0  0
   22.4031   -4.9207  -15.3411 N   0  0  0  0  0  0  0  0  0  0  0  0
   22.7678   -7.1705  -16.0195 C   0  0  0  0  0  0  0  0  0  0  0  0
   23.1068   -6.7000  -17.1434 O   0  0  0  0  0  0  0  0  0  0  0  0
   26.8030  -10.3245  -14.9541 C   0  0  0  0  0  0  0  0  0  0  0  0
   25.8546   -9.3253  -15.6472 C   0  0  0  0  0  0  0  0  0  0  0  0
   24.7157  -10.1260  -16.1631 C   0  0  2  0  0  0  0  0  0  0  0  0
   25.1708  -11.2542  -17.0807 C   0  0  0  0  0  0  0  0  0  0  0  0
   23.6112   -9.3873  -16.8414 C   0  0  2  0  0  0  0  0  0  0  0  0
   23.0194   -8.5329  -15.7905 N   0  0  0  0  0  0  0  0  0  0  0  0
   22.5909  -10.1770  -17.5035 C   0  0  0  0  0  0  0  0  0  0  0  0
   21.9264  -11.0652  -16.8729 O   0  0  0  0  0  0  0  0  0  0  0  0
   22.2723  -10.0077  -18.8676 N   0  0  0  0  0  0  0  0  0  0  0  0
   21.2175  -10.8412  -19.4897 C   0  0  1  0  0  0  0  0  0  0  0  0
   20.7510  -10.0124  -20.6666 C   0  0  0  0  0  0  0  0  0  0  0  0
   19.8426   -8.8881  -20.3214 C   0  0  0  0  0  0  0  0  0  0  0  0
   18.4670   -9.5186  -20.0459 C   0  0  0  0  0  0  0  0  0  0  0  0
   17.5199   -8.3706  -19.7637 C   0  0  0  0  0  0  0  0  0  0  0  0
   16.2485   -8.9247  -19.2899 N   0  0  0  0  0  0  0  0  0  0  0  0
   21.8443  -12.0896  -19.9652 C   0  0  0  0  0  0  0  0  0  0  0  0
   23.0865  -12.1277  -20.2278 O   0  0  0  0  0  0  0  0  0  0  0  0
   21.1548  -13.2594  -20.1513 O   0  0  0  0  0  0  0  0  0  0  0  0
  1  2  1  0
  2  3  1  0
  3  5  1  0
  3  4  1  6
  5 12  1  0
  6  5  2  0
  7  8  1  0
  9 11  1  0
  9 10  1  6
  9  8  1  0
 11 12  1  1
 13 11  1  0
 13 14  2  0
 15 13  1  0
 16 15  1  0
 16 22  1  0
 16 17  1  6
 18 17  1  0
 18 19  1  0
 20 19  1  0
 21 20  1  0
 22 23  2  0
 22 24  1  0
M  END
$$$$
