ACW.pdb
     RDKit          3D

 26 27  0  0  1  0  0  0  0  0999 V2000
    6.3141  -19.2088   23.2942 C   0  0  0  0  0  0  0  0  0  0  0  0
    6.2634  -18.9616   21.8055 C   0  0  2  0  0  0  0  0  0  0  0  0
    6.6460  -20.1286   21.0356 N   0  0  0  0  0  0  0  0  0  0  0  0
    7.1740  -17.8466   21.4408 C   0  0  0  0  0  0  0  0  0  0  0  0
    8.3612  -18.1105   21.0874 O   0  0  0  0  0  0  0  0  0  0  0  0
    6.7658  -16.4987   21.4732 N   0  0  0  0  0  0  0  0  0  0  0  0
    7.6882  -15.4390   21.1318 C   0  0  1  0  0  0  0  0  0  0  0  0
    6.9796  -14.2144   20.5897 C   0  0  0  0  0  0  0  0  0  0  0  0
    8.1220  -12.9740   19.9697 S   0  0  0  0  0  0  0  0  0  0  0  0
    8.5656  -15.0919   22.2850 C   0  0  0  0  0  0  0  0  0  0  0  0
    8.9828  -13.9123   22.3646 O   0  0  0  0  0  0  0  0  0  0  0  0
    8.9384  -16.0194   23.2723 N   0  0  0  0  0  0  0  0  0  0  0  0
    9.9048  -15.7699   24.3370 C   0  0  1  0  0  0  0  0  0  0  0  0
    9.2914  -15.9281   25.6748 C   0  0  0  0  0  0  0  0  0  0  0  0
    8.0195  -15.2041   25.7986 C   0  0  0  0  0  0  0  0  0  0  0  0
    6.7316  -15.7334   25.6488 C   0  0  0  0  0  0  0  0  0  0  0  0
    5.8258  -14.7677   25.7955 N   0  0  0  0  0  0  0  0  0  0  0  0
    6.4859  -13.6288   26.0362 C   0  0  0  0  0  0  0  0  0  0  0  0
    5.9932  -12.3487   26.2739 C   0  0  0  0  0  0  0  0  0  0  0  0
    6.8926  -11.3355   26.5168 C   0  0  0  0  0  0  0  0  0  0  0  0
    8.2575  -11.5371   26.5339 C   0  0  0  0  0  0  0  0  0  0  0  0
    8.7356  -12.8049   26.2973 C   0  0  0  0  0  0  0  0  0  0  0  0
    7.8465  -13.8364   26.0504 C   0  0  0  0  0  0  0  0  0  0  0  0
   11.2136  -16.3579   24.1281 C   0  0  0  0  0  0  0  0  0  0  0  0
   11.4205  -17.1987   23.2151 O   0  0  0  0  0  0  0  0  0  0  0  0
   12.3179  -16.0180   24.9235 O   0  0  0  0  0  0  0  0  0  0  0  0
  2  4  1  0
  2  1  1  1
  3  2  1  0
  4  5  2  0
  6  7  1  0
  6  4  1  0
  8  9  1  0
  7  8  1  1
 10 12  1  0
 10  7  1  0
 11 10  2  0
 13 12  1  0
 13 14  1  1
 14 15  1  0
 15 16  2  0
 16 17  1  0
 18 19  2  0
 18 17  1  0
 20 19  1  0
 21 20  2  0
 22 21  1  0
 22 23  2  0
 23 15  1  0
 23 18  1  0
 24 13  1  0
 25 24  2  0
 26 24  1  0
M  END
$$$$
