ACW.pdb
     RDKit          3D

 26 27  0  0  1  0  0  0  0  0999 V2000
    8.2605  -12.2387   19.7293 C   0  0  0  0  0  0  0  0  0  0  0  0
    8.0823  -13.5794   19.0579 C   0  0  2  0  0  0  0  0  0  0  0  0
    6.8185  -13.6851   18.3557 N   0  0  0  0  0  0  0  0  0  0  0  0
    8.1451  -14.6684   20.0656 C   0  0  0  0  0  0  0  0  0  0  0  0
    7.1016  -14.9649   20.7191 O   0  0  0  0  0  0  0  0  0  0  0  0
    9.3280  -15.3887   20.3242 N   0  0  0  0  0  0  0  0  0  0  0  0
    9.3302  -16.4965   21.2532 C   0  0  1  0  0  0  0  0  0  0  0  0
   10.0235  -17.7187   20.6866 C   0  0  0  0  0  0  0  0  0  0  0  0
   10.2122  -19.0299   21.9004 S   0  0  0  0  0  0  0  0  0  0  0  0
    9.9139  -16.1016   22.5661 C   0  0  0  0  0  0  0  0  0  0  0  0
   10.9073  -15.3367   22.5549 O   0  0  0  0  0  0  0  0  0  0  0  0
    9.4031  -16.5447   23.7976 N   0  0  0  0  0  0  0  0  0  0  0  0
   10.0141  -16.2947   25.0991 C   0  0  1  0  0  0  0  0  0  0  0  0
    9.7719  -14.9074   25.5549 C   0  0  0  0  0  0  0  0  0  0  0  0
    8.3435  -14.6168   25.7354 C   0  0  0  0  0  0  0  0  0  0  0  0
    7.2773  -15.5132   25.5903 C   0  0  0  0  0  0  0  0  0  0  0  0
    6.1232  -14.8805   25.7961 N   0  0  0  0  0  0  0  0  0  0  0  0
    6.4077  -13.6020   26.0706 C   0  0  0  0  0  0  0  0  0  0  0  0
    5.5524  -12.5457   26.3721 C   0  0  0  0  0  0  0  0  0  0  0  0
    6.1032  -11.3128   26.6386 C   0  0  0  0  0  0  0  0  0  0  0  0
    7.4636  -11.0828   26.6189 C   0  0  0  0  0  0  0  0  0  0  0  0
    8.3011  -12.1319   26.3194 C   0  0  0  0  0  0  0  0  0  0  0  0
    7.7657  -13.3789   26.0479 C   0  0  0  0  0  0  0  0  0  0  0  0
    9.8441  -17.3568   26.0713 C   0  0  0  0  0  0  0  0  0  0  0  0
    9.0288  -18.2970   25.8847 O   0  0  0  0  0  0  0  0  0  0  0  0
   10.5808  -17.3991   27.2643 O   0  0  0  0  0  0  0  0  0  0  0  0
  2  4  1  0
  2  1  1  1
  3  2  1  0
  4  5  2  0
  6  7  1  0
  6  4  1  0
  8  9  1  0
  7  8  1  6
 10 12  1  0
 10  7  1  0
 11 10  2  0
 13 12  1  0
 13 14  1  1
 14 15  1  0
 15 16  2  0
 16 17  1  0
 18 19  2  0
 18 17  1  0
 20 19  1  0
 21 20  2  0
 22 21  1  0
 22 23  2  0
 23 15  1  0
 23 18  1  0
 24 13  1  0
 25 24  2  0
 26 24  1  0
M  END
$$$$
