ACW.pdb
     RDKit          3D

 26 27  0  0  1  0  0  0  0  0999 V2000
    5.9050  -18.7393   20.3425 C   0  0  0  0  0  0  0  0  0  0  0  0
    6.2963  -17.3285   20.7118 C   0  0  2  0  0  0  0  0  0  0  0  0
    6.4567  -16.4750   19.5511 N   0  0  0  0  0  0  0  0  0  0  0  0
    7.5765  -17.3331   21.4643 C   0  0  0  0  0  0  0  0  0  0  0  0
    7.7384  -18.1701   22.4008 O   0  0  0  0  0  0  0  0  0  0  0  0
    8.6242  -16.4369   21.1748 N   0  0  0  0  0  0  0  0  0  0  0  0
    9.8862  -16.5249   21.8746 C   0  0  1  0  0  0  0  0  0  0  0  0
   10.9990  -15.8014   21.1438 C   0  0  0  0  0  0  0  0  0  0  0  0
   12.5829  -15.9486   21.9788 S   0  0  0  0  0  0  0  0  0  0  0  0
    9.7607  -16.0476   23.2805 C   0  0  0  0  0  0  0  0  0  0  0  0
    9.6451  -14.8133   23.4680 O   0  0  0  0  0  0  0  0  0  0  0  0
    9.7660  -16.9122   24.3880 N   0  0  0  0  0  0  0  0  0  0  0  0
    9.9351  -16.4970   25.7768 C   0  0  1  0  0  0  0  0  0  0  0  0
    8.6898  -16.6844   26.5547 C   0  0  0  0  0  0  0  0  0  0  0  0
    7.6339  -15.7428   26.1600 C   0  0  0  0  0  0  0  0  0  0  0  0
    6.4276  -16.0513   25.5189 C   0  0  0  0  0  0  0  0  0  0  0  0
    5.7398  -14.9342   25.2875 N   0  0  0  0  0  0  0  0  0  0  0  0
    6.4621  -13.9110   25.7588 C   0  0  0  0  0  0  0  0  0  0  0  0
    6.1725  -12.5494   25.7712 C   0  0  0  0  0  0  0  0  0  0  0  0
    7.0856  -11.6909   26.3402 C   0  0  0  0  0  0  0  0  0  0  0  0
    8.2717  -12.1241   26.8964 C   0  0  0  0  0  0  0  0  0  0  0  0
    8.5500  -13.4709   26.8791 C   0  0  0  0  0  0  0  0  0  0  0  0
    7.6443  -14.3495   26.3108 C   0  0  0  0  0  0  0  0  0  0  0  0
   11.1785  -16.9140   26.3950 C   0  0  0  0  0  0  0  0  0  0  0  0
   11.4073  -16.7140   27.6161 O   0  0  0  0  0  0  0  0  0  0  0  0
   12.1873  -17.5672   25.6713 O   0  0  0  0  0  0  0  0  0  0  0  0
  2  4  1  0
  2  1  1  6
  3  2  1  0
  4  5  2  0
  6  7  1  0
  6  4  1  0
  8  9  1  0
  7  8  1  6
 10 12  1  0
 10  7  1  0
 11 10  2  0
 13 12  1  0
 13 14  1  1
 14 15  1  0
 15 16  2  0
 16 17  1  0
 18 19  2  0
 18 17  1  0
 20 19  1  0
 21 20  2  0
 22 21  1  0
 22 23  2  0
 23 15  1  0
 23 18  1  0
 24 13  1  0
 25 24  2  0
 26 24  1  0
M  END
$$$$
