ACW.pdb
     RDKit          3D

 26 27  0  0  1  0  0  0  0  0999 V2000
    8.4716  -20.3846   21.8542 C   0  0  0  0  0  0  0  0  0  0  0  0
    7.9210  -19.6358   20.6642 C   0  0  2  0  0  0  0  0  0  0  0  0
    8.2541  -20.2723   19.4051 N   0  0  0  0  0  0  0  0  0  0  0  0
    8.4559  -18.2507   20.6393 C   0  0  0  0  0  0  0  0  0  0  0  0
    9.6913  -18.0705   20.4263 O   0  0  0  0  0  0  0  0  0  0  0  0
    7.6373  -17.1227   20.8446 N   0  0  0  0  0  0  0  0  0  0  0  0
    8.2066  -15.7945   20.8864 C   0  0  1  0  0  0  0  0  0  0  0  0
    7.1435  -14.7160   20.9363 C   0  0  0  0  0  0  0  0  0  0  0  0
    7.8332  -13.0611   20.8201 S   0  0  0  0  0  0  0  0  0  0  0  0
    9.1742  -15.6547   22.0109 C   0  0  0  0  0  0  0  0  0  0  0  0
   10.2173  -14.9912   21.8022 O   0  0  0  0  0  0  0  0  0  0  0  0
    8.9675  -16.2276   23.2770 N   0  0  0  0  0  0  0  0  0  0  0  0
    9.8941  -16.1378   24.4009 C   0  0  1  0  0  0  0  0  0  0  0  0
    9.7326  -14.8638   25.1370 C   0  0  0  0  0  0  0  0  0  0  0  0
    8.3374  -14.6082   25.5181 C   0  0  0  0  0  0  0  0  0  0  0  0
    7.2966  -15.5433   25.5788 C   0  0  0  0  0  0  0  0  0  0  0  0
    6.1631  -14.9365   25.9271 N   0  0  0  0  0  0  0  0  0  0  0  0
    6.4362  -13.6372   26.0947 C   0  0  0  0  0  0  0  0  0  0  0  0
    5.5960  -12.5934   26.4721 C   0  0  0  0  0  0  0  0  0  0  0  0
    6.1328  -11.3318   26.5935 C   0  0  0  0  0  0  0  0  0  0  0  0
    7.4651  -11.0615   26.3570 C   0  0  0  0  0  0  0  0  0  0  0  0
    8.2878  -12.0986   25.9838 C   0  0  0  0  0  0  0  0  0  0  0  0
    7.7660  -13.3740   25.8558 C   0  0  0  0  0  0  0  0  0  0  0  0
   10.0276  -17.3503   25.1847 C   0  0  0  0  0  0  0  0  0  0  0  0
    9.1737  -18.2724   25.1232 O   0  0  0  0  0  0  0  0  0  0  0  0
   11.1147  -17.5646   26.0451 O   0  0  0  0  0  0  0  0  0  0  0  0
  2  4  1  0
  2  1  1  1
  3  2  1  0
  4  5  2  0
  6  7  1  0
  6  4  1  0
  8  9  1  0
  7  8  1  1
 10 12  1  0
 10  7  1  0
 11 10  2  0
 13 12  1  0
 13 14  1  1
 14 15  1  0
 15 16  2  0
 16 17  1  0
 18 19  2  0
 18 17  1  0
 20 19  1  0
 21 20  2  0
 22 21  1  0
 22 23  2  0
 23 15  1  0
 23 18  1  0
 24 13  1  0
 25 24  2  0
 26 24  1  0
M  END
$$$$
