ACW.pdb
     RDKit          3D

 26 27  0  0  1  0  0  0  0  0999 V2000
    8.5556  -16.5261   17.2028 C   0  0  0  0  0  0  0  0  0  0  0  0
    9.4701  -16.6137   18.4011 C   0  0  2  0  0  0  0  0  0  0  0  0
   10.1297  -17.9005   18.5032 N   0  0  0  0  0  0  0  0  0  0  0  0
    8.6995  -16.3874   19.6503 C   0  0  0  0  0  0  0  0  0  0  0  0
    8.0819  -15.2925   19.8041 O   0  0  0  0  0  0  0  0  0  0  0  0
    8.6288  -17.3495   20.6769 N   0  0  0  0  0  0  0  0  0  0  0  0
    7.9043  -17.0753   21.8977 C   0  0  1  0  0  0  0  0  0  0  0  0
    6.7732  -18.0571   22.1262 C   0  0  0  0  0  0  0  0  0  0  0  0
    6.2301  -18.0980   23.8384 S   0  0  0  0  0  0  0  0  0  0  0  0
    8.8209  -17.0211   23.0712 C   0  0  0  0  0  0  0  0  0  0  0  0
    9.2584  -18.1076   23.5187 O   0  0  0  0  0  0  0  0  0  0  0  0
    9.2094  -15.8195   23.6869 N   0  0  0  0  0  0  0  0  0  0  0  0
   10.0801  -15.7167   24.8535 C   0  0  1  0  0  0  0  0  0  0  0  0
    9.3313  -15.9389   26.1109 C   0  0  0  0  0  0  0  0  0  0  0  0
    8.0331  -15.2520   26.1203 C   0  0  0  0  0  0  0  0  0  0  0  0
    6.7657  -15.8476   26.1375 C   0  0  0  0  0  0  0  0  0  0  0  0
    5.8233  -14.9067   26.1029 N   0  0  0  0  0  0  0  0  0  0  0  0
    6.4399  -13.7196   26.0643 C   0  0  0  0  0  0  0  0  0  0  0  0
    5.8989  -12.4373   26.0345 C   0  0  0  0  0  0  0  0  0  0  0  0
    6.7599  -11.3636   26.0167 C   0  0  0  0  0  0  0  0  0  0  0  0
    8.1323  -11.5070   26.0271 C   0  0  0  0  0  0  0  0  0  0  0  0
    8.6581  -12.7775   26.0558 C   0  0  0  0  0  0  0  0  0  0  0  0
    7.8081  -13.8695   26.0733 C   0  0  0  0  0  0  0  0  0  0  0  0
   11.3675  -16.3699   24.7180 C   0  0  0  0  0  0  0  0  0  0  0  0
   11.6666  -17.0304   23.6896 O   0  0  0  0  0  0  0  0  0  0  0  0
   12.3488  -16.2956   25.7177 O   0  0  0  0  0  0  0  0  0  0  0  0
  2  4  1  0
  2  1  1  6
  3  2  1  0
  4  5  2  0
  6  7  1  0
  6  4  1  0
  8  9  1  0
  7  8  1  1
 10 12  1  0
 10  7  1  0
 11 10  2  0
 13 12  1  0
 13 14  1  1
 14 15  1  0
 15 16  2  0
 16 17  1  0
 18 19  2  0
 18 17  1  0
 20 19  1  0
 21 20  2  0
 22 21  1  0
 22 23  2  0
 23 15  1  0
 23 18  1  0
 24 13  1  0
 25 24  2  0
 26 24  1  0
M  END
$$$$
