TDT.pdb
     RDKit          3D

 23 22  0  0  1  0  0  0  0  0999 V2000
    9.0286  -12.7004   19.3529 C   0  0  0  0  0  0  0  0  0  0  0  0
    8.0292  -13.6240   18.7352 C   0  0  1  0  0  0  0  0  0  0  0  0
    7.6623  -13.0221   17.4981 O   0  0  0  0  0  0  0  0  0  0  0  0
    8.6255  -14.9641   18.3255 C   0  0  2  0  0  0  0  0  0  0  0  0
    7.5497  -15.7515   17.6864 N   0  0  0  0  0  0  0  0  0  0  0  0
    8.9902  -15.7071   19.5431 C   0  0  0  0  0  0  0  0  0  0  0  0
    8.1006  -16.3197   20.1941 O   0  0  0  0  0  0  0  0  0  0  0  0
   10.3020  -15.7735   20.0261 N   0  0  0  0  0  0  0  0  0  0  0  0
   10.6652  -16.5831   21.1994 C   0  0  1  0  0  0  0  0  0  0  0  0
   12.1239  -16.9432   21.1041 C   0  0  0  0  0  0  0  0  0  0  0  0
   12.5829  -17.6429   22.3197 C   0  0  0  0  0  0  0  0  0  0  0  0
   11.9110  -18.5787   22.7938 O   0  0  0  0  0  0  0  0  0  0  0  0
   10.3613  -15.7892   22.4036 C   0  0  0  0  0  0  0  0  0  0  0  0
   10.9538  -14.7093   22.5904 O   0  0  0  0  0  0  0  0  0  0  0  0
   13.7608  -17.2671   22.9427 O   0  0  0  0  0  0  0  0  0  0  0  0
    7.5143  -13.8682   23.5882 C   0  0  0  0  0  0  0  0  0  0  0  0
    7.7184  -14.9458   24.5943 C   0  0  1  0  0  0  0  0  0  0  0  0
    6.8155  -15.9659   24.3602 O   0  0  0  0  0  0  0  0  0  0  0  0
    9.1075  -15.5368   24.5816 C   0  0  2  0  0  0  0  0  0  0  0  0
    9.3981  -16.2374   23.3605 N   0  0  0  0  0  0  0  0  0  0  0  0
    9.4045  -16.3276   25.7848 C   0  0  0  0  0  0  0  0  0  0  0  0
    9.2719  -15.8025   27.0494 O   0  0  0  0  0  0  0  0  0  0  0  0
    9.7878  -17.5081   25.6643 O   0  0  0  0  0  0  0  0  0  0  0  0
  2  1  1  6
  2  4  1  0
  3  2  1  0
  4  6  1  0
  4  5  1  1
  6  8  1  0
  6  7  2  0
  8  9  1  0
  9 13  1  0
  9 10  1  6
 10 11  1  0
 11 15  1  0
 12 11  2  0
 13 14  2  0
 17 16  1  6
 17 19  1  0
 17 18  1  0
 19 21  1  0
 20 13  1  0
 19 20  1  6
 21 22  1  0
 23 21  2  0
M  END
$$$$
