TDT.pdb
     RDKit          3D

 23 22  0  0  1  0  0  0  0  0999 V2000
   -1.2755  -21.8499   22.5205 C   0  0  0  0  0  0  0  0  0  0  0  0
   -2.2428  -22.5128   23.4469 C   0  0  1  0  0  0  0  0  0  0  0  0
   -1.4762  -23.4481   24.1986 O   0  0  0  0  0  0  0  0  0  0  0  0
   -2.8034  -21.5693   24.5027 C   0  0  2  0  0  0  0  0  0  0  0  0
   -1.6745  -21.1319   25.3511 N   0  0  0  0  0  0  0  0  0  0  0  0
   -3.6931  -22.3353   25.3913 C   0  0  0  0  0  0  0  0  0  0  0  0
   -4.7215  -22.8929   24.9201 O   0  0  0  0  0  0  0  0  0  0  0  0
   -3.4512  -22.4833   26.7616 N   0  0  0  0  0  0  0  0  0  0  0  0
   -4.2806  -23.3482   27.6151 C   0  0  1  0  0  0  0  0  0  0  0  0
   -3.4323  -23.8663   28.7458 C   0  0  0  0  0  0  0  0  0  0  0  0
   -2.4630  -24.8723   28.2702 C   0  0  0  0  0  0  0  0  0  0  0  0
   -2.8134  -25.7368   27.4445 O   0  0  0  0  0  0  0  0  0  0  0  0
   -5.4215  -22.5461   28.0921 C   0  0  0  0  0  0  0  0  0  0  0  0
   -5.2198  -21.4022   28.5428 O   0  0  0  0  0  0  0  0  0  0  0  0
   -1.1591  -24.8648   28.7356 O   0  0  0  0  0  0  0  0  0  0  0  0
   -9.5471  -24.1729   28.0739 C   0  0  0  0  0  0  0  0  0  0  0  0
   -9.1759  -22.7591   27.7935 C   0  0  1  0  0  0  0  0  0  0  0  0
  -10.2006  -21.9278   28.2054 O   0  0  0  0  0  0  0  0  0  0  0  0
   -7.9067  -22.3143   28.4791 C   0  0  2  0  0  0  0  0  0  0  0  0
   -6.7555  -23.0585   28.0463 N   0  0  0  0  0  0  0  0  0  0  0  0
   -8.0372  -22.2531   29.9421 C   0  0  0  0  0  0  0  0  0  0  0  0
   -8.8935  -21.3700   30.5580 O   0  0  0  0  0  0  0  0  0  0  0  0
   -7.3562  -23.0198   30.6517 O   0  0  0  0  0  0  0  0  0  0  0  0
  2  1  1  6
  2  4  1  0
  3  2  1  0
  4  6  1  0
  4  5  1  1
  6  8  1  0
  6  7  2  0
  8  9  1  0
  9 13  1  0
  9 10  1  1
 10 11  1  0
 11 15  1  0
 12 11  2  0
 13 14  2  0
 17 16  1  1
 17 19  1  0
 17 18  1  0
 19 21  1  0
 20 13  1  0
 19 20  1  1
 21 22  1  0
 23 21  2  0
M  END
$$$$
