TDT.pdb
     RDKit          3D

 23 22  0  0  1  0  0  0  0  0999 V2000
    7.7289  -12.1653   18.8887 C   0  0  0  0  0  0  0  0  0  0  0  0
    8.5548  -13.2094   19.5679 C   0  0  1  0  0  0  0  0  0  0  0  0
    7.6980  -13.8093   20.5341 O   0  0  0  0  0  0  0  0  0  0  0  0
    8.9334  -14.3641   18.6500 C   0  0  2  0  0  0  0  0  0  0  0  0
    7.6777  -14.9688   18.1568 N   0  0  0  0  0  0  0  0  0  0  0  0
    9.5864  -15.4091   19.4558 C   0  0  0  0  0  0  0  0  0  0  0  0
    8.9312  -16.4251   19.8150 O   0  0  0  0  0  0  0  0  0  0  0  0
   10.9268  -15.3345   19.8510 N   0  0  0  0  0  0  0  0  0  0  0  0
   11.5772  -16.4050   20.6225 C   0  0  1  0  0  0  0  0  0  0  0  0
   13.0278  -16.4726   20.2254 C   0  0  0  0  0  0  0  0  0  0  0  0
   13.7276  -17.5590   20.9381 C   0  0  0  0  0  0  0  0  0  0  0  0
   13.0869  -18.5329   21.3773 O   0  0  0  0  0  0  0  0  0  0  0  0
   11.4013  -16.0970   22.0532 C   0  0  0  0  0  0  0  0  0  0  0  0
   12.1012  -15.2105   22.5791 O   0  0  0  0  0  0  0  0  0  0  0  0
   15.0984  -17.5063   21.1245 O   0  0  0  0  0  0  0  0  0  0  0  0
    8.4756  -14.7727   23.9680 C   0  0  0  0  0  0  0  0  0  0  0  0
    8.8242  -16.0967   24.5517 C   0  0  1  0  0  0  0  0  0  0  0  0
    7.9538  -17.0537   24.0648 O   0  0  0  0  0  0  0  0  0  0  0  0
   10.2330  -16.5456   24.2471 C   0  0  2  0  0  0  0  0  0  0  0  0
   10.4413  -16.7983   22.8474 N   0  0  0  0  0  0  0  0  0  0  0  0
   10.6797  -17.6522   25.1056 C   0  0  0  0  0  0  0  0  0  0  0  0
   10.7267  -17.5347   26.4754 O   0  0  0  0  0  0  0  0  0  0  0  0
   11.0275  -18.7309   24.5854 O   0  0  0  0  0  0  0  0  0  0  0  0
  2  1  1  6
  2  4  1  0
  3  2  1  0
  4  6  1  0
  4  5  1  1
  6  8  1  0
  6  7  2  0
  8  9  1  0
  9 13  1  0
  9 10  1  6
 10 11  1  0
 11 15  1  0
 12 11  2  0
 13 14  2  0
 17 16  1  6
 17 19  1  0
 17 18  1  0
 19 21  1  0
 20 13  1  0
 19 20  1  6
 21 22  1  0
 23 21  2  0
M  END
$$$$
