TDT.pdb
     RDKit          3D

 23 22  0  0  1  0  0  0  0  0999 V2000
    7.5585  -12.7343   19.9040 C   0  0  0  0  0  0  0  0  0  0  0  0
    8.5806  -12.9024   18.8268 C   0  0  1  0  0  0  0  0  0  0  0  0
    9.8399  -12.6818   19.4535 O   0  0  0  0  0  0  0  0  0  0  0  0
    8.6764  -14.3318   18.3102 C   0  0  2  0  0  0  0  0  0  0  0  0
    7.4067  -14.6395   17.6183 N   0  0  0  0  0  0  0  0  0  0  0  0
    8.7302  -15.2449   19.4639 C   0  0  0  0  0  0  0  0  0  0  0  0
    7.6603  -15.6872   19.9641 O   0  0  0  0  0  0  0  0  0  0  0  0
    9.9330  -15.6598   20.0466 N   0  0  0  0  0  0  0  0  0  0  0  0
    9.9742  -16.6210   21.1595 C   0  0  1  0  0  0  0  0  0  0  0  0
   11.2016  -17.4800   21.0098 C   0  0  0  0  0  0  0  0  0  0  0  0
   11.2897  -18.4805   22.0910 C   0  0  0  0  0  0  0  0  0  0  0  0
   11.8279  -18.1842   23.1747 O   0  0  0  0  0  0  0  0  0  0  0  0
    9.9784  -15.8516   22.4167 C   0  0  0  0  0  0  0  0  0  0  0  0
   10.8731  -15.0076   22.6149 O   0  0  0  0  0  0  0  0  0  0  0  0
   10.7766  -19.7538   21.9117 O   0  0  0  0  0  0  0  0  0  0  0  0
    7.3237  -13.5643   24.0628 C   0  0  0  0  0  0  0  0  0  0  0  0
    7.6281  -14.7124   24.9595 C   0  0  1  0  0  0  0  0  0  0  0  0
    6.6374  -15.6678   24.8302 O   0  0  0  0  0  0  0  0  0  0  0  0
    8.9559  -15.3724   24.6760 C   0  0  2  0  0  0  0  0  0  0  0  0
    8.9731  -16.0575   23.4124 N   0  0  0  0  0  0  0  0  0  0  0  0
    9.4308  -16.2054   25.7902 C   0  0  0  0  0  0  0  0  0  0  0  0
    9.6024  -15.6952   27.0562 O   0  0  0  0  0  0  0  0  0  0  0  0
    9.6877  -17.4093   25.5905 O   0  0  0  0  0  0  0  0  0  0  0  0
  2  1  1  1
  2  4  1  0
  3  2  1  0
  4  6  1  0
  4  5  1  6
  6  8  1  0
  6  7  2  0
  8  9  1  0
  9 13  1  0
  9 10  1  6
 10 11  1  0
 11 15  1  0
 12 11  2  0
 13 14  2  0
 17 16  1  6
 17 19  1  0
 17 18  1  0
 19 21  1  0
 20 13  1  0
 19 20  1  6
 21 22  1  0
 23 21  2  0
M  END
$$$$
