TDT.pdb
     RDKit          3D

 23 22  0  0  1  0  0  0  0  0999 V2000
    8.0415  -12.1267   18.7110 C   0  0  0  0  0  0  0  0  0  0  0  0
    8.6307  -13.2324   19.5256 C   0  0  1  0  0  0  0  0  0  0  0  0
    7.6043  -13.6358   20.4264 O   0  0  0  0  0  0  0  0  0  0  0  0
    8.9162  -14.4883   18.7129 C   0  0  2  0  0  0  0  0  0  0  0  0
    7.6244  -14.9811   18.1894 N   0  0  0  0  0  0  0  0  0  0  0  0
    9.3999  -15.5376   19.6255 C   0  0  0  0  0  0  0  0  0  0  0  0
    8.6030  -16.4209   20.0441 O   0  0  0  0  0  0  0  0  0  0  0  0
   10.7279  -15.6103   20.0609 N   0  0  0  0  0  0  0  0  0  0  0  0
   11.1916  -16.6500   20.9926 C   0  0  1  0  0  0  0  0  0  0  0  0
   12.6420  -16.9384   20.7106 C   0  0  0  0  0  0  0  0  0  0  0  0
   13.1534  -18.0132   21.5829 C   0  0  0  0  0  0  0  0  0  0  0  0
   13.0721  -17.9052   22.8213 O   0  0  0  0  0  0  0  0  0  0  0  0
   10.9750  -16.1528   22.3632 C   0  0  0  0  0  0  0  0  0  0  0  0
   11.7309  -15.2753   22.8226 O   0  0  0  0  0  0  0  0  0  0  0  0
   13.7265  -19.1481   21.0350 O   0  0  0  0  0  0  0  0  0  0  0  0
    8.0971  -14.3514   23.9592 C   0  0  0  0  0  0  0  0  0  0  0  0
    8.2946  -15.6273   24.6996 C   0  0  1  0  0  0  0  0  0  0  0  0
    7.3623  -16.5531   24.2704 O   0  0  0  0  0  0  0  0  0  0  0  0
    9.6681  -16.2284   24.5233 C   0  0  2  0  0  0  0  0  0  0  0  0
    9.9125  -16.6604   23.1741 N   0  0  0  0  0  0  0  0  0  0  0  0
    9.9741  -17.2610   25.5238 C   0  0  0  0  0  0  0  0  0  0  0  0
    9.9317  -16.9989   26.8736 O   0  0  0  0  0  0  0  0  0  0  0  0
   10.2816  -18.4092   25.1466 O   0  0  0  0  0  0  0  0  0  0  0  0
  2  1  1  6
  2  4  1  0
  3  2  1  0
  4  6  1  0
  4  5  1  1
  6  8  1  0
  6  7  2  0
  8  9  1  0
  9 13  1  0
  9 10  1  6
 10 11  1  0
 11 15  1  0
 12 11  2  0
 13 14  2  0
 17 16  1  6
 17 19  1  0
 17 18  1  0
 19 21  1  0
 20 13  1  0
 19 20  1  6
 21 22  1  0
 23 21  2  0
M  END
$$$$
