TDT.pdb
     RDKit          3D

 23 22  0  0  1  0  0  0  0  0999 V2000
    7.8528  -12.6135   19.4490 C   0  0  0  0  0  0  0  0  0  0  0  0
    8.2931  -13.3894   20.6479 C   0  0  1  0  0  0  0  0  0  0  0  0
    7.5153  -12.8949   21.7332 O   0  0  0  0  0  0  0  0  0  0  0  0
    7.9217  -14.8646   20.5760 C   0  0  2  0  0  0  0  0  0  0  0  0
    6.4528  -14.9455   20.4288 N   0  0  0  0  0  0  0  0  0  0  0  0
    8.2245  -15.4883   21.8748 C   0  0  0  0  0  0  0  0  0  0  0  0
    7.2897  -15.7384   22.6835 O   0  0  0  0  0  0  0  0  0  0  0  0
    9.5238  -15.8287   22.2675 N   0  0  0  0  0  0  0  0  0  0  0  0
    9.8134  -16.4367   23.5755 C   0  0  1  0  0  0  0  0  0  0  0  0
   11.0610  -17.2706   23.4541 C   0  0  0  0  0  0  0  0  0  0  0  0
   10.8184  -18.4820   22.6468 C   0  0  0  0  0  0  0  0  0  0  0  0
    9.8812  -19.2496   22.9373 O   0  0  0  0  0  0  0  0  0  0  0  0
    9.9621  -15.3448   24.5544 C   0  0  0  0  0  0  0  0  0  0  0  0
   10.8284  -14.4690   24.3678 O   0  0  0  0  0  0  0  0  0  0  0  0
   11.6276  -18.7758   21.5626 O   0  0  0  0  0  0  0  0  0  0  0  0
    7.9704  -12.4406   25.5382 C   0  0  0  0  0  0  0  0  0  0  0  0
    8.0666  -13.3156   26.7382 C   0  0  1  0  0  0  0  0  0  0  0  0
    6.9184  -14.0783   26.8402 O   0  0  0  0  0  0  0  0  0  0  0  0
    9.2509  -14.2514   26.7174 C   0  0  2  0  0  0  0  0  0  0  0  0
    9.1290  -15.2738   25.7142 N   0  0  0  0  0  0  0  0  0  0  0  0
    9.5833  -14.7844   28.0465 C   0  0  0  0  0  0  0  0  0  0  0  0
    9.8903  -13.9590   29.1034 O   0  0  0  0  0  0  0  0  0  0  0  0
    9.5892  -16.0179   28.2293 O   0  0  0  0  0  0  0  0  0  0  0  0
  2  1  1  6
  2  4  1  0
  3  2  1  0
  4  6  1  0
  4  5  1  1
  6  8  1  0
  6  7  2  0
  8  9  1  0
  9 13  1  0
  9 10  1  6
 10 11  1  0
 11 15  1  0
 12 11  2  0
 13 14  2  0
 17 16  1  6
 17 19  1  0
 17 18  1  0
 19 21  1  0
 20 13  1  0
 19 20  1  6
 21 22  1  0
 23 21  2  0
M  END
$$$$
