TDT.pdb
     RDKit          3D

 23 22  0  0  1  0  0  0  0  0999 V2000
    8.7560  -14.3038   18.9870 C   0  0  0  0  0  0  0  0  0  0  0  0
    8.5610  -14.5446   20.4490 C   0  0  1  0  0  0  0  0  0  0  0  0
    8.2531  -13.2728   21.0106 O   0  0  0  0  0  0  0  0  0  0  0  0
    7.3305  -15.3868   20.7583 C   0  0  2  0  0  0  0  0  0  0  0  0
    6.1439  -14.6052   20.3499 N   0  0  0  0  0  0  0  0  0  0  0  0
    7.2212  -15.5389   22.2187 C   0  0  0  0  0  0  0  0  0  0  0  0
    6.4297  -14.8028   22.8683 O   0  0  0  0  0  0  0  0  0  0  0  0
    7.9639  -16.4802   22.9403 N   0  0  0  0  0  0  0  0  0  0  0  0
    7.6955  -16.7710   24.3571 C   0  0  1  0  0  0  0  0  0  0  0  0
    8.1025  -18.1919   24.6434 C   0  0  0  0  0  0  0  0  0  0  0  0
    7.9185  -18.5244   26.0694 C   0  0  0  0  0  0  0  0  0  0  0  0
    6.8996  -18.1403   26.6745 O   0  0  0  0  0  0  0  0  0  0  0  0
    8.4514  -15.7976   25.1657 C   0  0  0  0  0  0  0  0  0  0  0  0
    9.6005  -15.4699   24.8129 O   0  0  0  0  0  0  0  0  0  0  0  0
    8.8735  -19.2639   26.7459 O   0  0  0  0  0  0  0  0  0  0  0  0
    7.2962  -12.2250   26.1863 C   0  0  0  0  0  0  0  0  0  0  0  0
    7.6345  -13.0219   27.3969 C   0  0  1  0  0  0  0  0  0  0  0  0
    6.4704  -13.4993   27.9691 O   0  0  0  0  0  0  0  0  0  0  0  0
    8.5378  -14.1991   27.1194 C   0  0  2  0  0  0  0  0  0  0  0  0
    7.8883  -15.2235   26.3479 N   0  0  0  0  0  0  0  0  0  0  0  0
    9.1925  -14.7165   28.3297 C   0  0  0  0  0  0  0  0  0  0  0  0
    9.9481  -13.9089   29.1477 O   0  0  0  0  0  0  0  0  0  0  0  0
    9.0642  -15.9200   28.6302 O   0  0  0  0  0  0  0  0  0  0  0  0
  2  1  1  6
  2  4  1  0
  3  2  1  0
  4  6  1  0
  4  5  1  1
  6  8  1  0
  6  7  2  0
  8  9  1  0
  9 13  1  0
  9 10  1  1
 10 11  1  0
 11 15  1  0
 12 11  2  0
 13 14  2  0
 17 16  1  6
 17 19  1  0
 17 18  1  0
 19 21  1  0
 20 13  1  0
 19 20  1  1
 21 22  1  0
 23 21  2  0
M  END
$$$$
