TDT.pdb
     RDKit          3D

 23 22  0  0  1  0  0  0  0  0999 V2000
    7.5576  -12.3693   19.2199 C   0  0  0  0  0  0  0  0  0  0  0  0
    8.2353  -13.4088   20.0527 C   0  0  1  0  0  0  0  0  0  0  0  0
    7.4849  -13.4834   21.2606 O   0  0  0  0  0  0  0  0  0  0  0  0
    8.1244  -14.8106   19.4680 C   0  0  2  0  0  0  0  0  0  0  0  0
    6.6856  -15.1292   19.3495 N   0  0  0  0  0  0  0  0  0  0  0  0
    8.6634  -15.7706   20.4456 C   0  0  0  0  0  0  0  0  0  0  0  0
    7.8752  -16.4374   21.1698 O   0  0  0  0  0  0  0  0  0  0  0  0
   10.0351  -15.9894   20.6158 N   0  0  0  0  0  0  0  0  0  0  0  0
   10.5613  -16.9119   21.6337 C   0  0  1  0  0  0  0  0  0  0  0  0
   12.0060  -17.1998   21.3230 C   0  0  0  0  0  0  0  0  0  0  0  0
   12.5686  -18.1888   22.2628 C   0  0  0  0  0  0  0  0  0  0  0  0
   11.8957  -18.5805   23.2353 O   0  0  0  0  0  0  0  0  0  0  0  0
   10.3876  -16.2730   22.9506 C   0  0  0  0  0  0  0  0  0  0  0  0
   11.1264  -15.3226   23.2721 O   0  0  0  0  0  0  0  0  0  0  0  0
   13.8455  -18.6891   22.0732 O   0  0  0  0  0  0  0  0  0  0  0  0
    7.7130  -14.2617   24.3652 C   0  0  0  0  0  0  0  0  0  0  0  0
    7.8450  -15.4358   25.2703 C   0  0  1  0  0  0  0  0  0  0  0  0
    6.8482  -16.3489   24.9819 O   0  0  0  0  0  0  0  0  0  0  0  0
    9.1744  -16.1429   25.1621 C   0  0  2  0  0  0  0  0  0  0  0  0
    9.3858  -16.7253   23.8650 N   0  0  0  0  0  0  0  0  0  0  0  0
    9.4125  -17.0867   26.2638 C   0  0  0  0  0  0  0  0  0  0  0  0
    9.4128  -16.6822   27.5787 O   0  0  0  0  0  0  0  0  0  0  0  0
    9.6207  -18.2892   26.0077 O   0  0  0  0  0  0  0  0  0  0  0  0
  2  1  1  6
  2  4  1  0
  3  2  1  0
  4  6  1  0
  4  5  1  1
  6  8  1  0
  6  7  2  0
  8  9  1  0
  9 13  1  0
  9 10  1  6
 10 11  1  0
 11 15  1  0
 12 11  2  0
 13 14  2  0
 17 16  1  6
 17 19  1  0
 17 18  1  0
 19 21  1  0
 20 13  1  0
 19 20  1  6
 21 22  1  0
 23 21  2  0
M  END
$$$$
