TDT.pdb
     RDKit          3D

 23 22  0  0  1  0  0  0  0  0999 V2000
    7.9511  -12.1407   18.8744 C   0  0  0  0  0  0  0  0  0  0  0  0
    8.5802  -13.2204   19.6941 C   0  0  1  0  0  0  0  0  0  0  0  0
    7.6711  -13.4729   20.7606 O   0  0  0  0  0  0  0  0  0  0  0  0
    8.6647  -14.5543   18.9642 C   0  0  2  0  0  0  0  0  0  0  0  0
    7.2821  -14.9868   18.6689 N   0  0  0  0  0  0  0  0  0  0  0  0
    9.2057  -15.5625   19.8907 C   0  0  0  0  0  0  0  0  0  0  0  0
    8.4251  -16.3700   20.4644 O   0  0  0  0  0  0  0  0  0  0  0  0
   10.5716  -15.6769   20.1730 N   0  0  0  0  0  0  0  0  0  0  0  0
   11.1028  -16.7178   21.0666 C   0  0  1  0  0  0  0  0  0  0  0  0
   12.5397  -16.9796   20.7014 C   0  0  0  0  0  0  0  0  0  0  0  0
   13.1187  -18.0477   21.5393 C   0  0  0  0  0  0  0  0  0  0  0  0
   14.2676  -17.9237   22.0045 O   0  0  0  0  0  0  0  0  0  0  0  0
   10.9551  -16.2374   22.4523 C   0  0  0  0  0  0  0  0  0  0  0  0
   11.7843  -15.4289   22.9115 O   0  0  0  0  0  0  0  0  0  0  0  0
   12.3927  -19.1938   21.8152 O   0  0  0  0  0  0  0  0  0  0  0  0
    7.9445  -14.4909   24.0174 C   0  0  0  0  0  0  0  0  0  0  0  0
    8.2651  -15.6912   24.8369 C   0  0  1  0  0  0  0  0  0  0  0  0
    7.3715  -16.7018   24.5353 O   0  0  0  0  0  0  0  0  0  0  0  0
    9.6622  -16.2209   24.6221 C   0  0  2  0  0  0  0  0  0  0  0  0
    9.8765  -16.6836   23.2780 N   0  0  0  0  0  0  0  0  0  0  0  0
   10.0661  -17.2010   25.6406 C   0  0  0  0  0  0  0  0  0  0  0  0
   10.4686  -18.4729   25.3046 O   0  0  0  0  0  0  0  0  0  0  0  0
   10.0461  -16.8783   26.8450 O   0  0  0  0  0  0  0  0  0  0  0  0
  2  1  1  6
  2  4  1  0
  3  2  1  0
  4  6  1  0
  4  5  1  1
  6  8  1  0
  6  7  2  0
  8  9  1  0
  9 13  1  0
  9 10  1  6
 10 11  1  0
 11 15  1  0
 12 11  2  0
 13 14  2  0
 17 16  1  6
 17 19  1  0
 17 18  1  0
 19 21  1  0
 20 13  1  0
 19 20  1  6
 21 22  1  0
 23 21  2  0
M  END
$$$$
