LNH.pdb
     RDKit          3D

 27 27  0  0  1  0  0  0  0  0999 V2000
   26.1047  -14.5577  -15.7675 C   0  0  0  0  0  0  0  0  0  0  0  0
   24.7118  -14.3356  -16.2552 C   0  0  1  0  0  0  0  0  0  0  0  0
   23.7634  -15.0612  -15.2879 C   0  0  0  0  0  0  0  0  0  0  0  0
   24.2733  -12.9015  -16.2857 C   0  0  0  0  0  0  0  0  0  0  0  0
   22.8764  -12.8364  -16.8557 C   0  0  2  0  0  0  0  0  0  0  0  0
   22.9865  -13.3099  -18.2436 N   0  0  0  0  0  0  0  0  0  0  0  0
   22.3689  -11.4433  -16.9218 C   0  0  0  0  0  0  0  0  0  0  0  0
   22.8569  -10.6496  -17.7552 O   0  0  0  0  0  0  0  0  0  0  0  0
   18.7995  -10.4463  -17.8334 N   0  0  0  0  0  0  0  0  0  0  0  0
   18.4304  -10.1941  -16.4599 C   0  0  0  0  0  0  0  0  0  0  0  0
   17.2252  -10.3703  -16.1612 O   0  0  0  0  0  0  0  0  0  0  0  0
   19.4401   -9.7539  -15.4696 C   0  0  0  0  0  0  0  0  0  0  0  0
   20.8362   -9.6319  -16.0632 C   0  0  2  0  0  0  0  0  0  0  0  0
   21.3484  -11.0186  -16.0554 N   0  0  0  0  0  0  0  0  0  0  0  0
   21.6839   -8.7728  -15.2474 C   0  0  0  0  0  0  0  0  0  0  0  0
   22.5694   -9.3500  -14.5203 O   0  0  0  0  0  0  0  0  0  0  0  0
   21.5767   -7.3727  -15.2267 N   0  0  0  0  0  0  0  0  0  0  0  0
   22.7839   -6.5943  -14.8572 C   0  0  1  0  0  0  0  0  0  0  0  0
   23.7556   -6.8684  -15.9492 C   0  0  0  0  0  0  0  0  0  0  0  0
   24.8127   -7.8379  -15.6539 C   0  0  0  0  0  0  0  0  0  0  0  0
   25.0721   -8.5312  -14.5001 C   0  0  0  0  0  0  0  0  0  0  0  0
   26.1224   -9.3643  -14.7435 N   0  0  0  0  0  0  0  0  0  0  0  0
   26.5090   -9.1949  -16.0199 C   0  0  0  0  0  0  0  0  0  0  0  0
   25.7249   -8.2807  -16.5659 N   0  0  0  0  0  0  0  0  0  0  0  0
   22.3174   -5.1766  -14.8452 C   0  0  0  0  0  0  0  0  0  0  0  0
   22.8673   -4.2272  -14.0387 O   0  0  0  0  0  0  0  0  0  0  0  0
   21.3877   -4.8316  -15.6013 O   0  0  0  0  0  0  0  0  0  0  0  0
  2  1  1  1
  2  4  1  0
  2  3  1  0
  4  5  1  0
  5  7  1  0
  5  6  1  6
  7  8  2  0
  9 10  1  0
 10 12  1  0
 11 10  2  0
 13 12  1  1
 14 13  1  0
 14  7  1  0
 15 13  1  0
 16 15  2  0
 17 15  1  0
 18 19  1  6
 18 17  1  0
 20 19  1  0
 21 20  2  0
 22 21  1  0
 23 22  1  0
 23 24  2  0
 24 20  1  0
 25 26  1  0
 25 18  1  0
 27 25  2  0
M  END
$$$$
