LNH.pdb
     RDKit          3D

 27 27  0  0  1  0  0  0  0  0999 V2000
   28.6472  -19.0978  -16.3639 C   0  0  0  0  0  0  0  0  0  0  0  0
   28.1723  -19.3810  -14.9777 C   0  0  1  0  0  0  0  0  0  0  0  0
   27.2335  -18.2350  -14.5689 C   0  0  0  0  0  0  0  0  0  0  0  0
   27.3870  -20.6498  -14.8247 C   0  0  0  0  0  0  0  0  0  0  0  0
   26.1110  -20.3401  -14.0787 C   0  0  2  0  0  0  0  0  0  0  0  0
   26.0559  -21.2964  -12.9630 N   0  0  0  0  0  0  0  0  0  0  0  0
   24.9078  -20.5895  -14.9110 C   0  0  0  0  0  0  0  0  0  0  0  0
   24.8727  -20.1625  -16.0854 O   0  0  0  0  0  0  0  0  0  0  0  0
   24.9029  -24.6607  -15.3530 N   0  0  0  0  0  0  0  0  0  0  0  0
   23.5956  -24.0547  -15.2537 C   0  0  0  0  0  0  0  0  0  0  0  0
   22.7896  -24.5868  -14.4537 O   0  0  0  0  0  0  0  0  0  0  0  0
   23.2460  -22.8637  -16.0619 C   0  0  0  0  0  0  0  0  0  0  0  0
   22.6773  -21.7272  -15.2244 C   0  0  2  0  0  0  0  0  0  0  0  0
   23.8163  -21.2995  -14.3847 N   0  0  0  0  0  0  0  0  0  0  0  0
   21.5752  -22.1863  -14.3897 C   0  0  0  0  0  0  0  0  0  0  0  0
   21.8525  -23.0505  -13.4830 O   0  0  0  0  0  0  0  0  0  0  0  0
   20.2542  -21.7307  -14.5309 N   0  0  0  0  0  0  0  0  0  0  0  0
   19.5052  -21.3951  -13.2955 C   0  0  1  0  0  0  0  0  0  0  0  0
   20.2709  -20.2759  -12.6850 C   0  0  0  0  0  0  0  0  0  0  0  0
   20.8356  -20.5201  -11.3560 C   0  0  0  0  0  0  0  0  0  0  0  0
   20.7880  -21.6450  -10.5741 C   0  0  0  0  0  0  0  0  0  0  0  0
   21.5224  -21.4023   -9.4523 N   0  0  0  0  0  0  0  0  0  0  0  0
   22.0169  -20.1548   -9.5329 C   0  0  0  0  0  0  0  0  0  0  0  0
   21.6059  -19.6257  -10.6730 N   0  0  0  0  0  0  0  0  0  0  0  0
   18.1603  -20.9717  -13.7851 C   0  0  0  0  0  0  0  0  0  0  0  0
   17.0560  -20.9623  -12.9884 O   0  0  0  0  0  0  0  0  0  0  0  0
   18.0271  -20.6068  -14.9701 O   0  0  0  0  0  0  0  0  0  0  0  0
  2  1  1  6
  2  4  1  0
  2  3  1  0
  4  5  1  0
  5  7  1  0
  5  6  1  1
  7  8  2  0
  9 10  1  0
 10 12  1  0
 11 10  2  0
 13 12  1  6
 14 13  1  0
 14  7  1  0
 15 13  1  0
 16 15  2  0
 17 15  1  0
 18 19  1  6
 18 17  1  0
 20 19  1  0
 21 20  2  0
 22 21  1  0
 23 22  1  0
 23 24  2  0
 24 20  1  0
 25 26  1  0
 25 18  1  0
 27 25  2  0
M  END
$$$$
