LNH.pdb
     RDKit          3D

 27 27  0  0  1  0  0  0  0  0999 V2000
   29.2911  -11.5593  -17.1908 C   0  0  0  0  0  0  0  0  0  0  0  0
   27.8717  -12.0034  -17.0660 C   0  0  1  0  0  0  0  0  0  0  0  0
   27.6332  -12.3766  -15.5944 C   0  0  0  0  0  0  0  0  0  0  0  0
   26.8499  -10.9612  -17.4119 C   0  0  0  0  0  0  0  0  0  0  0  0
   25.4806  -11.5969  -17.3732 C   0  0  2  0  0  0  0  0  0  0  0  0
   25.5173  -12.6898  -18.3564 N   0  0  0  0  0  0  0  0  0  0  0  0
   24.4212  -10.6589  -17.8208 C   0  0  0  0  0  0  0  0  0  0  0  0
   24.4777  -10.1699  -18.9699 O   0  0  0  0  0  0  0  0  0  0  0  0
   19.3149   -9.3462  -18.9148 N   0  0  0  0  0  0  0  0  0  0  0  0
   19.8045   -9.4060  -17.5572 C   0  0  0  0  0  0  0  0  0  0  0  0
   19.1501   -8.7714  -16.6961 O   0  0  0  0  0  0  0  0  0  0  0  0
   21.0177  -10.1860  -17.2201 C   0  0  0  0  0  0  0  0  0  0  0  0
   22.2986   -9.3754  -17.3569 C   0  0  2  0  0  0  0  0  0  0  0  0
   23.3627  -10.3223  -16.9612 N   0  0  0  0  0  0  0  0  0  0  0  0
   22.2905   -8.2207  -16.4688 C   0  0  0  0  0  0  0  0  0  0  0  0
   22.5280   -8.4395  -15.2272 O   0  0  0  0  0  0  0  0  0  0  0  0
   22.0426   -6.9091  -16.9055 N   0  0  0  0  0  0  0  0  0  0  0  0
   22.1156   -5.8222  -15.8990 C   0  0  1  0  0  0  0  0  0  0  0  0
   22.4470   -4.6043  -16.6855 C   0  0  0  0  0  0  0  0  0  0  0  0
   22.4624   -3.3373  -15.9512 C   0  0  0  0  0  0  0  0  0  0  0  0
   23.1587   -2.9828  -14.8249 C   0  0  0  0  0  0  0  0  0  0  0  0
   22.8914   -1.6719  -14.5669 N   0  0  0  0  0  0  0  0  0  0  0  0
   22.0480   -1.2191  -15.5108 C   0  0  0  0  0  0  0  0  0  0  0  0
   21.7906   -2.2162  -16.3403 N   0  0  0  0  0  0  0  0  0  0  0  0
   20.7440   -5.7721  -15.3125 C   0  0  0  0  0  0  0  0  0  0  0  0
   20.5190   -5.6729  -13.9731 O   0  0  0  0  0  0  0  0  0  0  0  0
   19.7530   -5.8199  -16.0678 O   0  0  0  0  0  0  0  0  0  0  0  0
  2  1  1  1
  2  4  1  0
  2  3  1  0
  4  5  1  0
  5  7  1  0
  5  6  1  6
  7  8  2  0
  9 10  1  0
 10 12  1  0
 11 10  2  0
 13 12  1  1
 14 13  1  0
 14  7  1  0
 15 13  1  0
 16 15  2  0
 17 15  1  0
 18 19  1  6
 18 17  1  0
 20 19  1  0
 21 20  2  0
 22 21  1  0
 23 22  1  0
 23 24  2  0
 24 20  1  0
 25 26  1  0
 25 18  1  0
 27 25  2  0
M  END
$$$$
