LNH.pdb
     RDKit          3D

 27 27  0  0  1  0  0  0  0  0999 V2000
   28.0909  -19.8621  -17.0807 C   0  0  0  0  0  0  0  0  0  0  0  0
   27.2545  -20.4051  -15.9702 C   0  0  1  0  0  0  0  0  0  0  0  0
   28.1400  -20.4715  -14.7160 C   0  0  0  0  0  0  0  0  0  0  0  0
   26.0641  -19.5678  -15.6071 C   0  0  0  0  0  0  0  0  0  0  0  0
   25.2299  -20.3259  -14.6021 C   0  0  2  0  0  0  0  0  0  0  0  0
   25.5756  -21.7439  -14.7813 N   0  0  0  0  0  0  0  0  0  0  0  0
   23.7777  -20.2045  -14.8830 C   0  0  0  0  0  0  0  0  0  0  0  0
   23.2486  -19.0722  -14.9095 O   0  0  0  0  0  0  0  0  0  0  0  0
   21.4948  -20.5820  -18.5851 N   0  0  0  0  0  0  0  0  0  0  0  0
   22.0570  -21.7038  -17.8696 C   0  0  0  0  0  0  0  0  0  0  0  0
   23.1046  -22.2040  -18.3440 O   0  0  0  0  0  0  0  0  0  0  0  0
   21.4152  -22.2192  -16.6382 C   0  0  0  0  0  0  0  0  0  0  0  0
   21.5650  -21.2750  -15.4539 C   0  0  2  0  0  0  0  0  0  0  0  0
   23.0025  -21.3519  -15.1173 N   0  0  0  0  0  0  0  0  0  0  0  0
   20.7550  -21.7114  -14.3245 C   0  0  0  0  0  0  0  0  0  0  0  0
   21.0982  -22.8063  -13.7506 O   0  0  0  0  0  0  0  0  0  0  0  0
   19.6427  -20.9989  -13.8476 N   0  0  0  0  0  0  0  0  0  0  0  0
   18.9803  -21.4977  -12.6178 C   0  0  1  0  0  0  0  0  0  0  0  0
   19.2397  -20.4456  -11.5991 C   0  0  0  0  0  0  0  0  0  0  0  0
   20.4629  -20.5916  -10.8072 C   0  0  0  0  0  0  0  0  0  0  0  0
   21.4244  -21.5678  -10.8470 C   0  0  0  0  0  0  0  0  0  0  0  0
   22.4026  -21.2234   -9.9633 N   0  0  0  0  0  0  0  0  0  0  0  0
   22.0593  -20.0589   -9.3858 C   0  0  0  0  0  0  0  0  0  0  0  0
   20.8975  -19.6798   -9.8909 N   0  0  0  0  0  0  0  0  0  0  0  0
   17.5383  -21.5938  -12.9906 C   0  0  0  0  0  0  0  0  0  0  0  0
   16.6376  -22.3161  -12.2685 O   0  0  0  0  0  0  0  0  0  0  0  0
   17.1257  -20.9914  -14.0015 O   0  0  0  0  0  0  0  0  0  0  0  0
  2  1  1  6
  2  4  1  0
  2  3  1  0
  4  5  1  0
  5  7  1  0
  5  6  1  6
  7  8  2  0
  9 10  1  0
 10 12  1  0
 11 10  2  0
 13 12  1  6
 14 13  1  0
 14  7  1  0
 15 13  1  0
 16 15  2  0
 17 15  1  0
 18 19  1  1
 18 17  1  0
 20 19  1  0
 21 20  2  0
 22 21  1  0
 23 22  1  0
 23 24  2  0
 24 20  1  0
 25 26  1  0
 25 18  1  0
 27 25  2  0
M  END
$$$$
