LNH.pdb
     RDKit          3D

 27 27  0  0  1  0  0  0  0  0999 V2000
   29.3538  -21.7551  -16.8269 C   0  0  0  0  0  0  0  0  0  0  0  0
   28.3191  -20.8007  -16.3310 C   0  0  1  0  0  0  0  0  0  0  0  0
   27.9633  -19.8612  -17.4939 C   0  0  0  0  0  0  0  0  0  0  0  0
   27.0341  -21.4348  -15.8876 C   0  0  0  0  0  0  0  0  0  0  0  0
   26.1046  -20.3498  -15.3984 C   0  0  2  0  0  0  0  0  0  0  0  0
   26.9077  -19.5087  -14.4983 N   0  0  0  0  0  0  0  0  0  0  0  0
   24.9912  -20.8987  -14.5850 C   0  0  0  0  0  0  0  0  0  0  0  0
   24.3665  -21.9013  -14.9940 O   0  0  0  0  0  0  0  0  0  0  0  0
   25.5489  -22.2042  -11.1445 N   0  0  0  0  0  0  0  0  0  0  0  0
   24.9314  -21.0844  -10.4729 C   0  0  0  0  0  0  0  0  0  0  0  0
   25.3473  -20.8230   -9.3191 O   0  0  0  0  0  0  0  0  0  0  0  0
   23.8653  -20.2957  -11.1328 C   0  0  0  0  0  0  0  0  0  0  0  0
   23.5321  -20.8034  -12.5284 C   0  0  2  0  0  0  0  0  0  0  0  0
   24.6410  -20.2975  -13.3650 N   0  0  0  0  0  0  0  0  0  0  0  0
   22.2595  -20.2697  -12.9950 C   0  0  0  0  0  0  0  0  0  0  0  0
   22.1819  -18.9980  -13.1459 O   0  0  0  0  0  0  0  0  0  0  0  0
   21.1421  -21.0704  -13.2824 N   0  0  0  0  0  0  0  0  0  0  0  0
   19.9200  -20.3945  -13.7819 C   0  0  1  0  0  0  0  0  0  0  0  0
   19.6619  -21.0176  -15.1074 C   0  0  0  0  0  0  0  0  0  0  0  0
   20.3986  -20.4616  -16.2444 C   0  0  0  0  0  0  0  0  0  0  0  0
   21.0046  -19.2402  -16.3864 C   0  0  0  0  0  0  0  0  0  0  0  0
   21.6194  -19.2206  -17.6022 N   0  0  0  0  0  0  0  0  0  0  0  0
   21.4022  -20.4027  -18.2045 C   0  0  0  0  0  0  0  0  0  0  0  0
   20.6710  -21.1466  -17.3918 N   0  0  0  0  0  0  0  0  0  0  0  0
   18.8739  -20.7348  -12.7732 C   0  0  0  0  0  0  0  0  0  0  0  0
   17.7228  -20.0203  -12.6363 O   0  0  0  0  0  0  0  0  0  0  0  0
   19.0459  -21.7127  -12.0188 O   0  0  0  0  0  0  0  0  0  0  0  0
  2  1  1  6
  2  4  1  0
  2  3  1  0
  4  5  1  0
  5  7  1  0
  5  6  1  1
  7  8  2  0
  9 10  1  0
 10 12  1  0
 11 10  2  0
 13 12  1  1
 14 13  1  0
 14  7  1  0
 15 13  1  0
 16 15  2  0
 17 15  1  0
 18 19  1  6
 18 17  1  0
 20 19  1  0
 21 20  2  0
 22 21  1  0
 23 22  1  0
 23 24  2  0
 24 20  1  0
 25 26  1  0
 25 18  1  0
 27 25  2  0
M  END
$$$$
