LNH.pdb
     RDKit          3D

 27 27  0  0  1  0  0  0  0  0999 V2000
   17.0914  -29.8842  -15.3145 C   0  0  0  0  0  0  0  0  0  0  0  0
   17.2593  -28.5460  -14.6753 C   0  0  1  0  0  0  0  0  0  0  0  0
   17.7920  -27.5853  -15.7500 C   0  0  0  0  0  0  0  0  0  0  0  0
   15.9960  -27.9345  -14.1461 C   0  0  0  0  0  0  0  0  0  0  0  0
   16.3601  -26.8829  -13.1253 C   0  0  2  0  0  0  0  0  0  0  0  0
   17.6815  -26.3760  -13.5248 N   0  0  0  0  0  0  0  0  0  0  0  0
   16.5200  -27.4602  -11.7675 C   0  0  0  0  0  0  0  0  0  0  0  0
   15.5357  -27.9831  -11.2014 O   0  0  0  0  0  0  0  0  0  0  0  0
   21.1673  -27.5117  -10.9025 N   0  0  0  0  0  0  0  0  0  0  0  0
   20.0588  -28.4276  -11.0389 C   0  0  0  0  0  0  0  0  0  0  0  0
   19.8496  -28.8887  -12.1862 O   0  0  0  0  0  0  0  0  0  0  0  0
   19.2261  -28.7933   -9.8698 C   0  0  0  0  0  0  0  0  0  0  0  0
   17.9634  -27.9512   -9.7567 C   0  0  2  0  0  0  0  0  0  0  0  0
   17.7668  -27.4200  -11.1222 N   0  0  0  0  0  0  0  0  0  0  0  0
   18.1393  -26.8600   -8.8077 C   0  0  0  0  0  0  0  0  0  0  0  0
   18.2974  -25.6841   -9.2957 O   0  0  0  0  0  0  0  0  0  0  0  0
   18.1397  -27.0373   -7.4146 N   0  0  0  0  0  0  0  0  0  0  0  0
   18.2045  -25.8230   -6.5654 C   0  0  1  0  0  0  0  0  0  0  0  0
   16.9233  -25.1141   -6.8262 C   0  0  0  0  0  0  0  0  0  0  0  0
   16.9304  -24.1320   -7.9125 C   0  0  0  0  0  0  0  0  0  0  0  0
   17.9220  -23.8152   -8.8044 C   0  0  0  0  0  0  0  0  0  0  0  0
   17.4229  -22.8866   -9.6676 N   0  0  0  0  0  0  0  0  0  0  0  0
   16.1492  -22.6302   -9.3222 C   0  0  0  0  0  0  0  0  0  0  0  0
   15.8535  -23.3759   -8.2709 N   0  0  0  0  0  0  0  0  0  0  0  0
   18.2950  -26.3530   -5.1730 C   0  0  0  0  0  0  0  0  0  0  0  0
   19.0084  -25.7318   -4.1935 O   0  0  0  0  0  0  0  0  0  0  0  0
   17.6961  -27.4064   -4.8788 O   0  0  0  0  0  0  0  0  0  0  0  0
  2  1  1  6
  2  4  1  0
  2  3  1  0
  4  5  1  0
  5  7  1  0
  5  6  1  6
  7  8  2  0
  9 10  1  0
 10 12  1  0
 11 10  2  0
 13 12  1  6
 14 13  1  0
 14  7  1  0
 15 13  1  0
 16 15  2  0
 17 15  1  0
 18 19  1  1
 18 17  1  0
 20 19  1  0
 21 20  2  0
 22 21  1  0
 23 22  1  0
 23 24  2  0
 24 20  1  0
 25 26  1  0
 25 18  1  0
 27 25  2  0
M  END
$$$$
