LNH.pdb
     RDKit          3D

 27 27  0  0  1  0  0  0  0  0999 V2000
   22.0848  -32.8427  -12.4681 C   0  0  0  0  0  0  0  0  0  0  0  0
   21.1309  -33.5308  -11.5492 C   0  0  1  0  0  0  0  0  0  0  0  0
   21.0658  -35.0065  -11.9731 C   0  0  0  0  0  0  0  0  0  0  0  0
   21.5271  -33.5204  -10.1025 C   0  0  0  0  0  0  0  0  0  0  0  0
   20.4162  -34.1472   -9.2940 C   0  0  2  0  0  0  0  0  0  0  0  0
   19.2904  -33.2034   -9.3589 N   0  0  0  0  0  0  0  0  0  0  0  0
   20.7790  -34.2768   -7.8607 C   0  0  0  0  0  0  0  0  0  0  0  0
   20.6536  -33.2907   -7.1027 O   0  0  0  0  0  0  0  0  0  0  0  0
   19.6009  -38.8397   -5.9963 N   0  0  0  0  0  0  0  0  0  0  0  0
   20.0673  -37.5546   -5.5300 C   0  0  0  0  0  0  0  0  0  0  0  0
   19.2152  -36.8112   -4.9879 O   0  0  0  0  0  0  0  0  0  0  0  0
   21.4848  -37.1560   -5.6905 C   0  0  0  0  0  0  0  0  0  0  0  0
   21.6545  -35.6649   -5.9438 C   0  0  2  0  0  0  0  0  0  0  0  0
   21.2596  -35.4972   -7.3585 N   0  0  0  0  0  0  0  0  0  0  0  0
   23.0375  -35.2501   -5.7501 C   0  0  0  0  0  0  0  0  0  0  0  0
   23.8876  -35.6277   -6.6336 O   0  0  0  0  0  0  0  0  0  0  0  0
   23.4676  -34.4703   -4.6641 N   0  0  0  0  0  0  0  0  0  0  0  0
   24.8958  -34.0719   -4.6246 C   0  0  1  0  0  0  0  0  0  0  0  0
   24.9427  -32.7723   -5.3461 C   0  0  0  0  0  0  0  0  0  0  0  0
   25.4340  -32.8089   -6.7252 C   0  0  0  0  0  0  0  0  0  0  0  0
   25.7999  -33.8791   -7.4997 C   0  0  0  0  0  0  0  0  0  0  0  0
   26.1213  -33.4062   -8.7364 N   0  0  0  0  0  0  0  0  0  0  0  0
   25.9592  -32.0716   -8.7335 C   0  0  0  0  0  0  0  0  0  0  0  0
   25.5475  -31.7131   -7.5292 N   0  0  0  0  0  0  0  0  0  0  0  0
   25.1981  -33.9329   -3.1696 C   0  0  0  0  0  0  0  0  0  0  0  0
   24.2847  -34.2087   -2.1980 O   0  0  0  0  0  0  0  0  0  0  0  0
   26.3306  -33.5514   -2.8134 O   0  0  0  0  0  0  0  0  0  0  0  0
  2  1  1  6
  2  4  1  0
  2  3  1  0
  4  5  1  0
  5  7  1  0
  5  6  1  1
  7  8  2  0
  9 10  1  0
 10 12  1  0
 11 10  2  0
 13 12  1  6
 14 13  1  0
 14  7  1  0
 15 13  1  0
 16 15  2  0
 17 15  1  0
 18 19  1  6
 18 17  1  0
 20 19  1  0
 21 20  2  0
 22 21  1  0
 23 22  1  0
 23 24  2  0
 24 20  1  0
 25 26  1  0
 25 18  1  0
 27 25  2  0
M  END
$$$$
