LNH.pdb
     RDKit          3D

 27 27  0  0  1  0  0  0  0  0999 V2000
   26.8268  -15.2108  -18.6869 C   0  0  0  0  0  0  0  0  0  0  0  0
   25.5735  -16.0198  -18.7350 C   0  0  1  0  0  0  0  0  0  0  0  0
   25.1090  -16.0636  -20.1992 C   0  0  0  0  0  0  0  0  0  0  0  0
   25.7233  -17.4454  -18.2931 C   0  0  0  0  0  0  0  0  0  0  0  0
   25.7952  -17.4776  -16.7850 C   0  0  2  0  0  0  0  0  0  0  0  0
   26.7166  -16.3968  -16.4036 N   0  0  0  0  0  0  0  0  0  0  0  0
   26.3931  -18.7408  -16.2854 C   0  0  0  0  0  0  0  0  0  0  0  0
   27.4053  -19.2082  -16.8508 O   0  0  0  0  0  0  0  0  0  0  0  0
   29.0808  -20.3764  -11.8159 N   0  0  0  0  0  0  0  0  0  0  0  0
   28.6786  -20.6906  -13.1672 C   0  0  0  0  0  0  0  0  0  0  0  0
   29.1149  -21.7638  -13.6474 O   0  0  0  0  0  0  0  0  0  0  0  0
   27.7924  -19.7798  -13.9281 C   0  0  0  0  0  0  0  0  0  0  0  0
   26.5457  -20.4738  -14.4576 C   0  0  2  0  0  0  0  0  0  0  0  0
   25.8271  -19.4070  -15.1862 N   0  0  0  0  0  0  0  0  0  0  0  0
   25.7245  -20.9875  -13.3694 C   0  0  0  0  0  0  0  0  0  0  0  0
   26.1416  -22.0448  -12.7745 O   0  0  0  0  0  0  0  0  0  0  0  0
   24.5259  -20.3859  -12.9527 N   0  0  0  0  0  0  0  0  0  0  0  0
   23.7586  -21.0535  -11.8732 C   0  0  1  0  0  0  0  0  0  0  0  0
   23.8761  -20.1372  -10.7076 C   0  0  0  0  0  0  0  0  0  0  0  0
   25.0699  -20.2920   -9.8736 C   0  0  0  0  0  0  0  0  0  0  0  0
   26.1426  -21.1324  -10.0219 C   0  0  0  0  0  0  0  0  0  0  0  0
   27.0302  -20.8523   -9.0268 N   0  0  0  0  0  0  0  0  0  0  0  0
   26.5229  -19.8597   -8.2753 C   0  0  0  0  0  0  0  0  0  0  0  0
   25.3487  -19.5236   -8.7820 N   0  0  0  0  0  0  0  0  0  0  0  0
   22.3665  -21.1306  -12.4057 C   0  0  0  0  0  0  0  0  0  0  0  0
   21.3625  -21.7773  -11.7514 O   0  0  0  0  0  0  0  0  0  0  0  0
   22.0956  -20.5830  -13.4928 O   0  0  0  0  0  0  0  0  0  0  0  0
  2  1  1  6
  2  4  1  0
  2  3  1  0
  4  5  1  0
  5  7  1  0
  5  6  1  6
  7  8  2  0
  9 10  1  0
 10 12  1  0
 11 10  2  0
 13 12  1  1
 14 13  1  0
 14  7  1  0
 15 13  1  0
 16 15  2  0
 17 15  1  0
 18 19  1  1
 18 17  1  0
 20 19  1  0
 21 20  2  0
 22 21  1  0
 23 22  1  0
 23 24  2  0
 24 20  1  0
 25 26  1  0
 25 18  1  0
 27 25  2  0
M  END
$$$$
