LNH.pdb
     RDKit          3D

 27 27  0  0  1  0  0  0  0  0999 V2000
   17.3545  -16.1072  -17.9428 C   0  0  0  0  0  0  0  0  0  0  0  0
   17.4644  -15.2408  -16.7325 C   0  0  1  0  0  0  0  0  0  0  0  0
   18.7480  -15.6455  -15.9909 C   0  0  0  0  0  0  0  0  0  0  0  0
   17.5804  -13.7721  -17.0142 C   0  0  0  0  0  0  0  0  0  0  0  0
   17.5700  -13.0270  -15.7007 C   0  0  2  0  0  0  0  0  0  0  0  0
   16.3154  -13.4060  -15.0339 N   0  0  0  0  0  0  0  0  0  0  0  0
   17.5184  -11.5569  -15.8978 C   0  0  0  0  0  0  0  0  0  0  0  0
   17.7988  -11.0759  -17.0170 O   0  0  0  0  0  0  0  0  0  0  0  0
   15.8432   -6.7576  -15.5849 N   0  0  0  0  0  0  0  0  0  0  0  0
   15.2124   -7.5796  -14.5786 C   0  0  0  0  0  0  0  0  0  0  0  0
   14.1737   -7.1191  -14.0479 O   0  0  0  0  0  0  0  0  0  0  0  0
   15.7779   -8.8979  -14.2096 C   0  0  0  0  0  0  0  0  0  0  0  0
   17.0276   -9.2485  -15.0043 C   0  0  2  0  0  0  0  0  0  0  0  0
   17.1574  -10.7115  -14.8360 N   0  0  0  0  0  0  0  0  0  0  0  0
   18.2009   -8.5698  -14.4705 C   0  0  0  0  0  0  0  0  0  0  0  0
   18.7134   -9.0506  -13.3971 O   0  0  0  0  0  0  0  0  0  0  0  0
   18.7821   -7.4403  -15.0694 N   0  0  0  0  0  0  0  0  0  0  0  0
   20.2613   -7.3338  -15.0494 C   0  0  1  0  0  0  0  0  0  0  0  0
   20.7356   -8.5735  -15.7203 C   0  0  0  0  0  0  0  0  0  0  0  0
   22.1527   -8.6156  -16.0873 C   0  0  0  0  0  0  0  0  0  0  0  0
   23.1458   -7.6972  -15.8650 C   0  0  0  0  0  0  0  0  0  0  0  0
   24.3113   -8.2241  -16.3344 N   0  0  0  0  0  0  0  0  0  0  0  0
   24.0513   -9.4433  -16.8377 C   0  0  0  0  0  0  0  0  0  0  0  0
   22.7584   -9.6785  -16.6901 N   0  0  0  0  0  0  0  0  0  0  0  0
   20.5517   -6.1037  -15.8431 C   0  0  0  0  0  0  0  0  0  0  0  0
   21.4149   -5.1399  -15.4183 O   0  0  0  0  0  0  0  0  0  0  0  0
   19.9897   -5.9384  -16.9440 O   0  0  0  0  0  0  0  0  0  0  0  0
  2  1  1  6
  2  4  1  0
  2  3  1  0
  4  5  1  0
  5  7  1  0
  5  6  1  1
  7  8  2  0
  9 10  1  0
 10 12  1  0
 11 10  2  0
 13 12  1  1
 14 13  1  0
 14  7  1  0
 15 13  1  0
 16 15  2  0
 17 15  1  0
 18 19  1  6
 18 17  1  0
 20 19  1  0
 21 20  2  0
 22 21  1  0
 23 22  1  0
 23 24  2  0
 24 20  1  0
 25 26  1  0
 25 18  1  0
 27 25  2  0
M  END
$$$$
