RTH.pdb
     RDKit          3D

 29 29  0  0  1  0  0  0  0  0999 V2000
   13.4284  -16.4251   17.7654 N   0  0  0  0  0  0  0  0  0  0  0  0
   14.4672  -15.5107   18.0514 C   0  0  0  0  0  0  0  0  0  0  0  0
   15.6210  -15.9475   18.4450 N   0  0  0  0  0  0  0  0  0  0  0  0
   14.2341  -14.1103   17.9032 N   0  0  0  0  0  0  0  0  0  0  0  0
   13.0051  -13.4910   18.2984 C   0  0  0  0  0  0  0  0  0  0  0  0
   12.2373  -14.3473   19.2955 C   0  0  0  0  0  0  0  0  0  0  0  0
   10.9998  -13.6005   19.7128 C   0  0  0  0  0  0  0  0  0  0  0  0
    9.7193  -14.2877   19.2638 C   0  0  2  0  0  0  0  0  0  0  0  0
    9.0659  -13.3306   18.3369 N   0  0  0  0  0  0  0  0  0  0  0  0
    8.7636  -14.5547   20.3287 C   0  0  0  0  0  0  0  0  0  0  0  0
    7.9868  -13.6353   20.7731 O   0  0  0  0  0  0  0  0  0  0  0  0
   16.3715  -15.2757   18.7283 C   0  0  0  0  0  0  0  0  0  0  0  0
    6.1041  -17.0265   20.6420 C   0  0  2  0  0  0  0  0  0  0  0  0
    6.9124  -17.2565   21.8987 O   0  0  0  0  0  0  0  0  0  0  0  0
    7.7722  -18.3033   21.6818 C   0  0  2  0  0  0  0  0  0  0  0  0
    7.7088  -15.9725   22.1424 N   0  0  0  0  0  0  0  0  0  0  0  0
    8.5687  -15.8089   20.9868 C   0  0  0  0  0  0  0  0  0  0  0  0
    8.4387  -16.0051   23.4081 O   0  0  0  0  0  0  0  0  0  0  0  0
    9.6855  -16.1671   23.3955 N   0  0  0  0  0  0  0  0  0  0  0  0
    7.7387  -15.8546   24.6333 C   0  0  1  0  0  0  0  0  0  0  0  0
    8.4130  -15.9793   25.9340 C   0  0  0  0  0  0  0  0  0  0  0  0
    7.6322  -15.2374   26.9938 C   0  0  0  0  0  0  0  0  0  0  0  0
    7.3638  -13.8294   26.6799 C   0  0  0  0  0  0  0  0  0  0  0  0
    7.9821  -13.0071   25.7697 N   0  0  0  0  0  0  0  0  0  0  0  0
    7.4143  -11.7811   25.8297 C   0  0  0  0  0  0  0  0  0  0  0  0
    6.4662  -11.8578   26.7621 N   0  0  0  0  0  0  0  0  0  0  0  0
    6.4228  -13.0897   27.2859 C   0  0  0  0  0  0  0  0  0  0  0  0
    8.4545  -17.4091   26.2909 O   0  0  0  0  0  0  0  0  0  0  0  0
    9.0157  -17.7549   27.3590 O   0  0  0  0  0  0  0  0  0  0  0  0
  1  2  1  0
  2  3  2  0
  4  5  1  0
  4  2  1  0
  6  5  1  0
  7  6  1  0
  8  7  1  0
  8  9  1  6
  8 10  1  0
 10 11  2  0
 13 12  1  1
 13 14  1  0
 13 15  1  0
 15 17  1  0
 16 10  1  0
 15 16  1  1
 17 18  2  0
 19 17  1  0
 19 20  1  0
 20 27  1  0
 20 21  1  1
 22 21  1  0
 23 22  2  0
 24 23  1  0
 25 24  1  0
 25 26  2  0
 26 22  1  0
 27 28  2  0
 27 29  1  0
M  END
$$$$
