RTH.pdb
     RDKit          3D

 29 29  0  0  1  0  0  0  0  0999 V2000
    7.5604  -14.3087   16.2448 N   0  0  0  0  0  0  0  0  0  0  0  0
    8.6323  -13.5651   16.7880 C   0  0  0  0  0  0  0  0  0  0  0  0
    8.4528  -12.3286   17.1282 N   0  0  0  0  0  0  0  0  0  0  0  0
    9.9065  -14.1861   16.9572 N   0  0  0  0  0  0  0  0  0  0  0  0
   10.0795  -15.6067   16.9133 C   0  0  0  0  0  0  0  0  0  0  0  0
   11.5305  -16.0054   17.1428 C   0  0  0  0  0  0  0  0  0  0  0  0
   11.9952  -15.3926   18.4357 C   0  0  0  0  0  0  0  0  0  0  0  0
   11.9397  -16.3679   19.6016 C   0  0  2  0  0  0  0  0  0  0  0  0
   11.1339  -17.5148   19.1145 N   0  0  0  0  0  0  0  0  0  0  0  0
   11.2682  -15.8619   20.7899 C   0  0  0  0  0  0  0  0  0  0  0  0
   11.7536  -14.8844   21.4645 O   0  0  0  0  0  0  0  0  0  0  0  0
    9.2469  -11.7659   17.5125 C   0  0  0  0  0  0  0  0  0  0  0  0
    7.3893  -15.6707   21.5797 C   0  0  2  0  0  0  0  0  0  0  0  0
    8.0871  -16.4179   22.6934 O   0  0  0  0  0  0  0  0  0  0  0  0
    7.9896  -17.7639   22.4468 C   0  0  2  0  0  0  0  0  0  0  0  0
    9.5550  -15.9872   22.6505 N   0  0  0  0  0  0  0  0  0  0  0  0
   10.0425  -16.3556   21.3358 C   0  0  0  0  0  0  0  0  0  0  0  0
   10.3350  -16.5679   23.7416 O   0  0  0  0  0  0  0  0  0  0  0  0
   11.5876  -16.6180   23.6438 N   0  0  0  0  0  0  0  0  0  0  0  0
    9.6764  -17.0673   24.8950 C   0  0  1  0  0  0  0  0  0  0  0  0
   10.1439  -16.7543   26.2536 C   0  0  0  0  0  0  0  0  0  0  0  0
    9.7934  -15.3270   26.6044 C   0  0  0  0  0  0  0  0  0  0  0  0
   10.1850  -14.9179   27.9580 C   0  0  0  0  0  0  0  0  0  0  0  0
   10.8062  -15.6471   28.9426 N   0  0  0  0  0  0  0  0  0  0  0  0
   10.9593  -14.8663   30.0362 C   0  0  0  0  0  0  0  0  0  0  0  0
   10.4388  -13.6815   29.7207 N   0  0  0  0  0  0  0  0  0  0  0  0
    9.9663  -13.6962   28.4675 C   0  0  0  0  0  0  0  0  0  0  0  0
    9.4523  -17.6558   27.1928 O   0  0  0  0  0  0  0  0  0  0  0  0
    8.3654  -18.1797   26.8468 O   0  0  0  0  0  0  0  0  0  0  0  0
  1  2  1  0
  2  3  2  0
  4  5  1  0
  4  2  1  0
  6  5  1  0
  7  6  1  0
  8  7  1  0
  8  9  1  6
  8 10  1  0
 10 11  2  0
 13 12  1  1
 13 14  1  0
 13 15  1  0
 15 17  1  0
 16 10  1  0
 15 16  1  1
 17 18  2  0
 19 17  1  0
 19 20  1  0
 20 27  1  0
 20 21  1  1
 22 21  1  0
 23 22  2  0
 24 23  1  0
 25 24  1  0
 25 26  2  0
 26 22  1  0
 27 28  2  0
 27 29  1  0
M  END
$$$$
