RTH.pdb
     RDKit          3D

 29 29  0  0  1  0  0  0  0  0999 V2000
   16.8325  -17.3769   16.9996 N   0  0  0  0  0  0  0  0  0  0  0  0
   16.1984  -18.5867   16.6372 C   0  0  0  0  0  0  0  0  0  0  0  0
   16.8576  -19.7003   16.6853 N   0  0  0  0  0  0  0  0  0  0  0  0
   14.8332  -18.5695   16.2205 N   0  0  0  0  0  0  0  0  0  0  0  0
   14.1877  -17.3788   15.7562 C   0  0  0  0  0  0  0  0  0  0  0  0
   13.2650  -16.7887   16.8134 C   0  0  0  0  0  0  0  0  0  0  0  0
   11.8631  -17.2620   16.5415 C   0  0  0  0  0  0  0  0  0  0  0  0
   10.8710  -16.1164   16.4121 C   0  0  2  0  0  0  0  0  0  0  0  0
   11.5070  -15.1511   15.4816 N   0  0  0  0  0  0  0  0  0  0  0  0
   10.6087  -15.3930   17.6477 C   0  0  0  0  0  0  0  0  0  0  0  0
   11.5549  -14.8222   18.2996 O   0  0  0  0  0  0  0  0  0  0  0  0
   16.3971  -20.5989   16.4108 C   0  0  0  0  0  0  0  0  0  0  0  0
    7.5917  -13.1927   20.8092 C   0  0  2  0  0  0  0  0  0  0  0  0
    7.7304  -14.0138   19.5474 O   0  0  0  0  0  0  0  0  0  0  0  0
    7.5625  -13.1872   18.4655 C   0  0  1  0  0  0  0  0  0  0  0  0
    9.1524  -14.5794   19.5529 N   0  0  0  0  0  0  0  0  0  0  0  0
    9.3314  -15.2265   18.2680 C   0  0  0  0  0  0  0  0  0  0  0  0
    9.3905  -15.4688   20.6880 O   0  0  0  0  0  0  0  0  0  0  0  0
    9.1130  -16.6906   20.5812 N   0  0  0  0  0  0  0  0  0  0  0  0
    9.9295  -14.9496   21.8936 C   0  0  1  0  0  0  0  0  0  0  0  0
   10.1929  -15.8060   23.0595 C   0  0  0  0  0  0  0  0  0  0  0  0
   11.5286  -15.4509   23.6700 C   0  0  0  0  0  0  0  0  0  0  0  0
   12.6911  -15.9426   22.9219 C   0  0  0  0  0  0  0  0  0  0  0  0
   12.7327  -16.7035   21.7789 N   0  0  0  0  0  0  0  0  0  0  0  0
   14.0248  -16.9318   21.4508 C   0  0  0  0  0  0  0  0  0  0  0  0
   14.7563  -16.3193   22.3803 N   0  0  0  0  0  0  0  0  0  0  0  0
   13.9650  -15.7165   23.2772 C   0  0  0  0  0  0  0  0  0  0  0  0
    9.1358  -15.5569   24.0564 O   0  0  0  0  0  0  0  0  0  0  0  0
    9.1264  -16.2291   25.1162 O   0  0  0  0  0  0  0  0  0  0  0  0
  1  2  1  0
  2  3  2  0
  4  5  1  0
  4  2  1  0
  6  5  1  0
  7  6  1  0
  8  7  1  0
  8  9  1  6
  8 10  1  0
 10 11  2  0
 13 12  1  1
 13 14  1  0
 13 15  1  0
 15 17  1  0
 16 10  1  0
 15 16  1  1
 17 18  2  0
 19 17  1  0
 19 20  1  0
 20 27  1  0
 20 21  1  1
 22 21  1  0
 23 22  2  0
 24 23  1  0
 25 24  1  0
 25 26  2  0
 26 22  1  0
 27 28  2  0
 27 29  1  0
M  END
$$$$
