RTH.pdb
     RDKit          3D

 29 29  0  0  1  0  0  0  0  0999 V2000
    8.4539  -14.6023   15.7098 N   0  0  0  0  0  0  0  0  0  0  0  0
    7.5846  -13.5102   15.4890 C   0  0  0  0  0  0  0  0  0  0  0  0
    6.9486  -13.4087   14.3655 N   0  0  0  0  0  0  0  0  0  0  0  0
    7.4152  -12.5267   16.5096 N   0  0  0  0  0  0  0  0  0  0  0  0
    8.2176  -12.5053   17.6953 C   0  0  0  0  0  0  0  0  0  0  0  0
    7.9394  -13.7077   18.5863 C   0  0  0  0  0  0  0  0  0  0  0  0
    9.2393  -14.1663   19.1889 C   0  0  0  0  0  0  0  0  0  0  0  0
   10.0633  -15.0150   18.2328 C   0  0  2  0  0  0  0  0  0  0  0  0
    9.1488  -16.0915   17.7778 N   0  0  0  0  0  0  0  0  0  0  0  0
   11.2133  -15.6726   18.8359 C   0  0  0  0  0  0  0  0  0  0  0  0
   11.1003  -16.8086   19.4214 O   0  0  0  0  0  0  0  0  0  0  0  0
    6.3331  -12.5831   14.1798 C   0  0  0  0  0  0  0  0  0  0  0  0
   14.4249  -16.1075   17.0714 C   0  0  2  0  0  0  0  0  0  0  0  0
   14.8503  -15.6428   18.4457 O   0  0  0  0  0  0  0  0  0  0  0  0
   15.0929  -14.2934   18.3969 C   0  0  2  0  0  0  0  0  0  0  0  0
   13.6731  -15.9251   19.3820 N   0  0  0  0  0  0  0  0  0  0  0  0
   12.5523  -15.1717   18.8550 C   0  0  0  0  0  0  0  0  0  0  0  0
   13.9832  -15.6054   20.7740 O   0  0  0  0  0  0  0  0  0  0  0  0
   14.0999  -14.4015   21.1176 N   0  0  0  0  0  0  0  0  0  0  0  0
   14.1492  -16.6497   21.7203 C   0  0  1  0  0  0  0  0  0  0  0  0
   14.2883  -16.3799   23.1591 C   0  0  0  0  0  0  0  0  0  0  0  0
   13.3745  -17.2902   23.9460 C   0  0  0  0  0  0  0  0  0  0  0  0
   11.9484  -17.1389   23.6359 C   0  0  0  0  0  0  0  0  0  0  0  0
   11.1862  -15.9975   23.5779 N   0  0  0  0  0  0  0  0  0  0  0  0
    9.9138  -16.3350   23.2677 C   0  0  0  0  0  0  0  0  0  0  0  0
    9.9035  -17.6608   23.1397 N   0  0  0  0  0  0  0  0  0  0  0  0
   11.1260  -18.1622   23.3593 C   0  0  0  0  0  0  0  0  0  0  0  0
   15.6832  -16.6627   23.5432 O   0  0  0  0  0  0  0  0  0  0  0  0
   16.0520  -16.4253   24.7192 O   0  0  0  0  0  0  0  0  0  0  0  0
  1  2  1  0
  2  3  2  0
  4  5  1  0
  4  2  1  0
  6  5  1  0
  7  6  1  0
  8  7  1  0
  8  9  1  1
  8 10  1  0
 10 11  2  0
 13 12  1  6
 13 14  1  0
 13 15  1  0
 15 17  1  0
 16 10  1  0
 15 16  1  1
 17 18  2  0
 19 17  1  0
 19 20  1  0
 20 27  1  0
 20 21  1  1
 22 21  1  0
 23 22  2  0
 24 23  1  0
 25 24  1  0
 25 26  2  0
 26 22  1  0
 27 28  2  0
 27 29  1  0
M  END
$$$$
