RTH.pdb
     RDKit          3D

 29 29  0  0  1  0  0  0  0  0999 V2000
   15.8124  -13.9079   16.4602 N   0  0  0  0  0  0  0  0  0  0  0  0
   15.2250  -14.8065   17.3792 C   0  0  0  0  0  0  0  0  0  0  0  0
   14.7866  -14.3708   18.5171 N   0  0  0  0  0  0  0  0  0  0  0  0
   15.1203  -16.1899   17.0433 N   0  0  0  0  0  0  0  0  0  0  0  0
   13.9878  -16.7280   16.3521 C   0  0  0  0  0  0  0  0  0  0  0  0
   12.8130  -15.7601   16.3554 C   0  0  0  0  0  0  0  0  0  0  0  0
   11.6275  -16.4503   16.9731 C   0  0  0  0  0  0  0  0  0  0  0  0
   10.4054  -15.5495   17.0652 C   0  0  2  0  0  0  0  0  0  0  0  0
   10.6253  -14.4869   16.0530 N   0  0  0  0  0  0  0  0  0  0  0  0
   10.2374  -14.8771   18.3453 C   0  0  0  0  0  0  0  0  0  0  0  0
   11.1338  -14.0814   18.8030 O   0  0  0  0  0  0  0  0  0  0  0  0
   14.4617  -15.0429   19.2503 C   0  0  0  0  0  0  0  0  0  0  0  0
    7.4005  -12.8651   19.8999 C   0  0  2  0  0  0  0  0  0  0  0  0
    7.6580  -14.0270   20.8323 O   0  0  0  0  0  0  0  0  0  0  0  0
    6.7860  -15.0397   20.5224 C   0  0  2  0  0  0  0  0  0  0  0  0
    9.0957  -14.4816   20.5708 N   0  0  0  0  0  0  0  0  0  0  0  0
    9.1117  -15.0021   19.2178 C   0  0  0  0  0  0  0  0  0  0  0  0
    9.5627  -15.4433   21.5673 O   0  0  0  0  0  0  0  0  0  0  0  0
   10.2590  -16.4230   21.1981 N   0  0  0  0  0  0  0  0  0  0  0  0
    9.2285  -15.2646   22.9348 C   0  0  1  0  0  0  0  0  0  0  0  0
    9.7485  -16.1534   23.9845 C   0  0  0  0  0  0  0  0  0  0  0  0
   11.2459  -15.9905   24.1041 C   0  0  0  0  0  0  0  0  0  0  0  0
   12.0233  -16.7634   23.1288 C   0  0  0  0  0  0  0  0  0  0  0  0
   11.5839  -17.5987   22.1307 N   0  0  0  0  0  0  0  0  0  0  0  0
   12.6557  -18.1101   21.4833 C   0  0  0  0  0  0  0  0  0  0  0  0
   13.7290  -17.5935   22.0794 N   0  0  0  0  0  0  0  0  0  0  0  0
   13.3638  -16.7772   23.0765 C   0  0  0  0  0  0  0  0  0  0  0  0
    9.1265  -15.7622   25.2626 O   0  0  0  0  0  0  0  0  0  0  0  0
    9.4020  -16.4136   26.2994 O   0  0  0  0  0  0  0  0  0  0  0  0
  1  2  1  0
  2  3  2  0
  4  5  1  0
  4  2  1  0
  6  5  1  0
  7  6  1  0
  8  7  1  0
  8  9  1  6
  8 10  1  0
 10 11  2  0
 13 12  1  1
 13 14  1  0
 13 15  1  0
 15 17  1  0
 16 10  1  0
 15 16  1  1
 17 18  2  0
 19 17  1  0
 19 20  1  0
 20 27  1  0
 20 21  1  1
 22 21  1  0
 23 22  2  0
 24 23  1  0
 25 24  1  0
 25 26  2  0
 26 22  1  0
 27 28  2  0
 27 29  1  0
M  END
$$$$
