RTH.pdb
     RDKit          3D

 29 29  0  0  1  0  0  0  0  0999 V2000
   11.1846  -17.0991   17.0228 N   0  0  0  0  0  0  0  0  0  0  0  0
   11.3279  -16.6580   15.6879 C   0  0  0  0  0  0  0  0  0  0  0  0
   12.4937  -16.6750   15.1244 N   0  0  0  0  0  0  0  0  0  0  0  0
   10.1827  -16.1966   14.9714 N   0  0  0  0  0  0  0  0  0  0  0  0
    8.9060  -16.0224   15.5955 C   0  0  0  0  0  0  0  0  0  0  0  0
    8.9581  -14.9819   16.7053 C   0  0  0  0  0  0  0  0  0  0  0  0
    7.5626  -14.7674   17.2247 C   0  0  0  0  0  0  0  0  0  0  0  0
    7.5050  -13.7459   18.3501 C   0  0  2  0  0  0  0  0  0  0  0  0
    7.9566  -12.4692   17.7432 N   0  0  0  0  0  0  0  0  0  0  0  0
    8.3994  -14.0158   19.4664 C   0  0  0  0  0  0  0  0  0  0  0  0
    9.6133  -13.6003   19.4634 O   0  0  0  0  0  0  0  0  0  0  0  0
   12.5968  -16.4142   14.1163 C   0  0  0  0  0  0  0  0  0  0  0  0
    9.2125  -15.8861   23.9675 C   0  0  2  0  0  0  0  0  0  0  0  0
    8.2424  -15.7079   22.8217 O   0  0  0  0  0  0  0  0  0  0  0  0
    7.2431  -14.8571   23.2214 C   0  0  1  0  0  0  0  0  0  0  0  0
    9.0362  -15.0748   21.6767 N   0  0  0  0  0  0  0  0  0  0  0  0
    8.0654  -14.7383   20.6540 C   0  0  0  0  0  0  0  0  0  0  0  0
   10.1061  -15.9467   21.1958 O   0  0  0  0  0  0  0  0  0  0  0  0
    9.9439  -16.5871   20.1260 N   0  0  0  0  0  0  0  0  0  0  0  0
   11.3114  -16.0626   21.9356 C   0  0  1  0  0  0  0  0  0  0  0  0
   12.6249  -16.1213   21.2771 C   0  0  0  0  0  0  0  0  0  0  0  0
   12.8935  -14.8275   20.5442 C   0  0  0  0  0  0  0  0  0  0  0  0
   14.1777  -14.7832   19.8359 C   0  0  0  0  0  0  0  0  0  0  0  0
   15.1933  -15.7079   19.8155 N   0  0  0  0  0  0  0  0  0  0  0  0
   16.1960  -15.2411   19.0372 C   0  0  0  0  0  0  0  0  0  0  0  0
   15.7955  -14.0512   18.5921 N   0  0  0  0  0  0  0  0  0  0  0  0
   14.5772  -13.7596   19.0659 C   0  0  0  0  0  0  0  0  0  0  0  0
   13.6510  -16.2954   22.3211 O   0  0  0  0  0  0  0  0  0  0  0  0
   13.4501  -15.8094   23.4607 O   0  0  0  0  0  0  0  0  0  0  0  0
  1  2  1  0
  2  3  2  0
  4  5  1  0
  4  2  1  0
  6  5  1  0
  7  6  1  0
  8  7  1  0
  8  9  1  6
  8 10  1  0
 10 11  2  0
 13 12  1  1
 13 14  1  0
 13 15  1  0
 15 17  1  0
 16 10  1  0
 15 16  1  6
 17 18  2  0
 19 17  1  0
 19 20  1  0
 20 27  1  0
 20 21  1  6
 22 21  1  0
 23 22  2  0
 24 23  1  0
 25 24  1  0
 25 26  2  0
 26 22  1  0
 27 28  2  0
 27 29  1  0
M  END
$$$$
