RTH.pdb
     RDKit          3D

 29 29  0  0  1  0  0  0  0  0999 V2000
    9.0550  -14.6176   15.2560 N   0  0  0  0  0  0  0  0  0  0  0  0
    8.0310  -14.0766   16.0659 C   0  0  0  0  0  0  0  0  0  0  0  0
    7.8828  -12.7927   16.1468 N   0  0  0  0  0  0  0  0  0  0  0  0
    7.1672  -14.9533   16.7890 N   0  0  0  0  0  0  0  0  0  0  0  0
    7.6286  -16.1778   17.3702 C   0  0  0  0  0  0  0  0  0  0  0  0
    8.9444  -15.9893   18.1119 C   0  0  0  0  0  0  0  0  0  0  0  0
    9.3734  -17.3194   18.6687 C   0  0  0  0  0  0  0  0  0  0  0  0
    8.7616  -17.6113   20.0302 C   0  0  2  0  0  0  0  0  0  0  0  0
    7.2973  -17.6694   19.7969 N   0  0  0  0  0  0  0  0  0  0  0  0
    8.9830  -16.5799   21.0332 C   0  0  0  0  0  0  0  0  0  0  0  0
    9.6934  -15.5426   20.7772 O   0  0  0  0  0  0  0  0  0  0  0  0
    7.2425  -12.3791   16.8636 C   0  0  0  0  0  0  0  0  0  0  0  0
    8.3282  -14.1096   21.1831 C   0  0  1  0  0  0  0  0  0  0  0  0
    7.6765  -14.3392   22.5278 O   0  0  0  0  0  0  0  0  0  0  0  0
    6.3978  -14.7923   22.3239 C   0  0  2  0  0  0  0  0  0  0  0  0
    8.5036  -15.4177   23.2314 N   0  0  0  0  0  0  0  0  0  0  0  0
    8.4655  -16.5801   22.3660 C   0  0  0  0  0  0  0  0  0  0  0  0
    8.0250  -15.6873   24.5857 O   0  0  0  0  0  0  0  0  0  0  0  0
    6.7875  -15.7427   24.8015 N   0  0  0  0  0  0  0  0  0  0  0  0
    8.9550  -15.8832   25.6395 C   0  0  1  0  0  0  0  0  0  0  0  0
    8.7969  -16.9631   26.6249 C   0  0  0  0  0  0  0  0  0  0  0  0
    8.7384  -18.2993   25.9218 C   0  0  0  0  0  0  0  0  0  0  0  0
    8.4309  -19.4360   26.7972 C   0  0  0  0  0  0  0  0  0  0  0  0
    8.2051  -19.4556   28.1520 N   0  0  0  0  0  0  0  0  0  0  0  0
    7.9724  -20.7303   28.5395 C   0  0  0  0  0  0  0  0  0  0  0  0
    8.0561  -21.4732   27.4371 N   0  0  0  0  0  0  0  0  0  0  0  0
    8.3328  -20.7057   26.3749 C   0  0  0  0  0  0  0  0  0  0  0  0
    9.9740  -16.9465   27.5123 O   0  0  0  0  0  0  0  0  0  0  0  0
   11.1074  -16.7316   27.0179 O   0  0  0  0  0  0  0  0  0  0  0  0
  1  2  1  0
  2  3  2  0
  4  5  1  0
  4  2  1  0
  6  5  1  0
  7  6  1  0
  8  7  1  0
  8  9  1  6
  8 10  1  0
 10 11  2  0
 13 12  1  6
 13 14  1  0
 13 15  1  0
 15 17  1  0
 16 10  1  0
 15 16  1  1
 17 18  2  0
 19 17  1  0
 19 20  1  0
 20 27  1  0
 20 21  1  1
 22 21  1  0
 23 22  2  0
 24 23  1  0
 25 24  1  0
 25 26  2  0
 26 22  1  0
 27 28  2  0
 27 29  1  0
M  END
$$$$
