RTH.pdb
     RDKit          3D

 29 29  0  0  1  0  0  0  0  0999 V2000
    7.9906  -12.7361   17.1819 N   0  0  0  0  0  0  0  0  0  0  0  0
    8.8658  -12.7980   18.2897 C   0  0  0  0  0  0  0  0  0  0  0  0
    9.5370  -11.7478   18.6412 N   0  0  0  0  0  0  0  0  0  0  0  0
    9.0018  -14.0211   19.0129 N   0  0  0  0  0  0  0  0  0  0  0  0
    7.8914  -14.8874   19.2710 C   0  0  0  0  0  0  0  0  0  0  0  0
    7.1029  -14.4442   20.4952 C   0  0  0  0  0  0  0  0  0  0  0  0
    6.8650  -15.6445   21.3702 C   0  0  0  0  0  0  0  0  0  0  0  0
    7.9826  -16.6719   21.2751 C   0  0  2  0  0  0  0  0  0  0  0  0
    7.3970  -17.8201   20.5398 N   0  0  0  0  0  0  0  0  0  0  0  0
    8.4470  -17.1894   22.5539 C   0  0  0  0  0  0  0  0  0  0  0  0
    7.7168  -17.9721   23.2612 O   0  0  0  0  0  0  0  0  0  0  0  0
   10.2297  -11.8012   19.4236 C   0  0  0  0  0  0  0  0  0  0  0  0
   11.1563  -19.1805   23.2125 C   0  0  2  0  0  0  0  0  0  0  0  0
   11.3984  -18.1541   24.2957 O   0  0  0  0  0  0  0  0  0  0  0  0
   12.3762  -17.2906   23.8711 C   0  0  2  0  0  0  0  0  0  0  0  0
   10.0807  -17.3974   24.4776 N   0  0  0  0  0  0  0  0  0  0  0  0
    9.7114  -16.9137   23.1618 C   0  0  0  0  0  0  0  0  0  0  0  0
   10.1845  -16.3362   25.4771 O   0  0  0  0  0  0  0  0  0  0  0  0
    9.9317  -15.1503   25.1442 N   0  0  0  0  0  0  0  0  0  0  0  0
   10.5674  -16.6509   26.8068 C   0  0  1  0  0  0  0  0  0  0  0  0
   10.3168  -15.7309   27.9261 C   0  0  0  0  0  0  0  0  0  0  0  0
    8.8304  -15.5986   28.1630 C   0  0  0  0  0  0  0  0  0  0  0  0
    8.2091  -14.4415   27.5087 C   0  0  0  0  0  0  0  0  0  0  0  0
    8.7960  -13.4290   26.7894 N   0  0  0  0  0  0  0  0  0  0  0  0
    7.8366  -12.5667   26.3829 C   0  0  0  0  0  0  0  0  0  0  0  0
    6.6852  -13.0479   26.8485 N   0  0  0  0  0  0  0  0  0  0  0  0
    6.8931  -14.1812   27.5315 C   0  0  0  0  0  0  0  0  0  0  0  0
   10.9394  -16.3022   29.1341 O   0  0  0  0  0  0  0  0  0  0  0  0
   10.9572  -15.6238   30.1899 O   0  0  0  0  0  0  0  0  0  0  0  0
  1  2  1  0
  2  3  2  0
  4  5  1  0
  4  2  1  0
  6  5  1  0
  7  6  1  0
  8  7  1  0
  8  9  1  6
  8 10  1  0
 10 11  2  0
 13 12  1  1
 13 14  1  0
 13 15  1  0
 15 17  1  0
 16 10  1  0
 15 16  1  1
 17 18  2  0
 19 17  1  0
 19 20  1  0
 20 27  1  0
 20 21  1  1
 22 21  1  0
 23 22  2  0
 24 23  1  0
 25 24  1  0
 25 26  2  0
 26 22  1  0
 27 28  2  0
 27 29  1  0
M  END
$$$$
