RTH.pdb
     RDKit          3D

 29 29  0  0  1  0  0  0  0  0999 V2000
    7.1283  -17.8267   13.5874 N   0  0  0  0  0  0  0  0  0  0  0  0
    6.2167  -18.4776   14.4491 C   0  0  0  0  0  0  0  0  0  0  0  0
    5.0138  -18.7320   14.0427 N   0  0  0  0  0  0  0  0  0  0  0  0
    6.6320  -18.8495   15.7632 N   0  0  0  0  0  0  0  0  0  0  0  0
    7.7497  -18.2379   16.4166 C   0  0  0  0  0  0  0  0  0  0  0  0
    9.0462  -18.9828   16.1319 C   0  0  0  0  0  0  0  0  0  0  0  0
   10.1690  -18.2749   16.8400 C   0  0  0  0  0  0  0  0  0  0  0  0
   10.1258  -16.7666   16.6489 C   0  0  2  0  0  0  0  0  0  0  0  0
   11.4238  -16.4142   16.0219 N   0  0  0  0  0  0  0  0  0  0  0  0
   10.0359  -15.9971   17.8812 C   0  0  0  0  0  0  0  0  0  0  0  0
   11.0076  -15.9633   18.7184 O   0  0  0  0  0  0  0  0  0  0  0  0
    4.3694  -19.3109   14.6296 C   0  0  0  0  0  0  0  0  0  0  0  0
    7.6772  -12.7317   20.7390 C   0  0  1  0  0  0  0  0  0  0  0  0
    7.6560  -13.5764   19.4854 O   0  0  0  0  0  0  0  0  0  0  0  0
    7.7535  -12.7478   18.3964 C   0  0  1  0  0  0  0  0  0  0  0  0
    8.8837  -14.4874   19.5562 N   0  0  0  0  0  0  0  0  0  0  0  0
    8.9159  -15.2148   18.3027 C   0  0  0  0  0  0  0  0  0  0  0  0
    8.8612  -15.3571   20.7306 O   0  0  0  0  0  0  0  0  0  0  0  0
    8.0157  -16.2857   20.7926 N   0  0  0  0  0  0  0  0  0  0  0  0
    9.7879  -15.1476   21.7847 C   0  0  1  0  0  0  0  0  0  0  0  0
    9.8011  -15.9935   22.9874 C   0  0  0  0  0  0  0  0  0  0  0  0
   11.1159  -15.8361   23.7151 C   0  0  0  0  0  0  0  0  0  0  0  0
   12.2617  -16.4634   23.0468 C   0  0  0  0  0  0  0  0  0  0  0  0
   12.2820  -17.3145   21.9687 N   0  0  0  0  0  0  0  0  0  0  0  0
   13.5636  -17.6548   21.7026 C   0  0  0  0  0  0  0  0  0  0  0  0
   14.3099  -17.0204   22.6053 N   0  0  0  0  0  0  0  0  0  0  0  0
   13.5378  -16.2957   23.4255 C   0  0  0  0  0  0  0  0  0  0  0  0
    8.7129  -15.5426   23.8739 O   0  0  0  0  0  0  0  0  0  0  0  0
    8.1053  -14.4788   23.6011 O   0  0  0  0  0  0  0  0  0  0  0  0
  1  2  1  0
  2  3  2  0
  4  5  1  0
  4  2  1  0
  6  5  1  0
  7  6  1  0
  8  7  1  0
  8  9  1  1
  8 10  1  0
 10 11  2  0
 13 12  1  6
 13 14  1  0
 13 15  1  0
 15 17  1  0
 16 10  1  0
 15 16  1  6
 17 18  2  0
 19 17  1  0
 19 20  1  0
 20 27  1  0
 20 21  1  1
 22 21  1  0
 23 22  2  0
 24 23  1  0
 25 24  1  0
 25 26  2  0
 26 22  1  0
 27 28  2  0
 27 29  1  0
M  END
$$$$
