RTH.pdb
     RDKit          3D

 29 29  0  0  1  0  0  0  0  0999 V2000
    8.9960  -19.4678   13.6163 N   0  0  0  0  0  0  0  0  0  0  0  0
    8.2840  -20.5802   14.1188 C   0  0  0  0  0  0  0  0  0  0  0  0
    7.8525  -21.4910   13.3057 N   0  0  0  0  0  0  0  0  0  0  0  0
    8.0465  -20.6895   15.5221 N   0  0  0  0  0  0  0  0  0  0  0  0
    8.4721  -19.6880   16.4526 C   0  0  0  0  0  0  0  0  0  0  0  0
    9.6489  -18.8845   15.9173 C   0  0  0  0  0  0  0  0  0  0  0  0
   10.1261  -17.9567   17.0011 C   0  0  0  0  0  0  0  0  0  0  0  0
    9.3118  -16.6743   17.0774 C   0  0  2  0  0  0  0  0  0  0  0  0
    9.7810  -15.8445   15.9402 N   0  0  0  0  0  0  0  0  0  0  0  0
    9.5241  -15.8868   18.2831 C   0  0  0  0  0  0  0  0  0  0  0  0
   10.6965  -15.4931   18.6243 O   0  0  0  0  0  0  0  0  0  0  0  0
    7.3363  -22.3243   13.6719 C   0  0  0  0  0  0  0  0  0  0  0  0
    7.2130  -13.0467   19.8555 C   0  0  2  0  0  0  0  0  0  0  0  0
    7.5003  -14.1179   20.8829 O   0  0  0  0  0  0  0  0  0  0  0  0
    6.4750  -15.0292   20.8650 C   0  0  2  0  0  0  0  0  0  0  0  0
    8.8035  -14.7940   20.4508 N   0  0  0  0  0  0  0  0  0  0  0  0
    8.5110  -15.4655   19.1998 C   0  0  0  0  0  0  0  0  0  0  0  0
    9.3311  -15.6885   21.4792 O   0  0  0  0  0  0  0  0  0  0  0  0
    9.1867  -16.9306   21.3475 N   0  0  0  0  0  0  0  0  0  0  0  0
    9.9977  -15.1512   22.6109 C   0  0  1  0  0  0  0  0  0  0  0  0
   10.4032  -15.9931   23.7462 C   0  0  0  0  0  0  0  0  0  0  0  0
   11.8273  -15.6775   24.1405 C   0  0  0  0  0  0  0  0  0  0  0  0
   12.8475  -16.2840   23.2778 C   0  0  0  0  0  0  0  0  0  0  0  0
   12.6915  -17.1320   22.2084 N   0  0  0  0  0  0  0  0  0  0  0  0
   13.9116  -17.4502   21.7194 C   0  0  0  0  0  0  0  0  0  0  0  0
   14.7948  -16.8058   22.4802 N   0  0  0  0  0  0  0  0  0  0  0  0
   14.1676  -16.0961   23.4273 C   0  0  0  0  0  0  0  0  0  0  0  0
    9.5177  -15.6827   24.8832 O   0  0  0  0  0  0  0  0  0  0  0  0
    8.7555  -14.6883   24.8088 O   0  0  0  0  0  0  0  0  0  0  0  0
  1  2  1  0
  2  3  2  0
  4  5  1  0
  4  2  1  0
  6  5  1  0
  7  6  1  0
  8  7  1  0
  8  9  1  6
  8 10  1  0
 10 11  2  0
 13 12  1  1
 13 14  1  0
 13 15  1  0
 15 17  1  0
 16 10  1  0
 15 16  1  1
 17 18  2  0
 19 17  1  0
 19 20  1  0
 20 27  1  0
 20 21  1  1
 22 21  1  0
 23 22  2  0
 24 23  1  0
 25 24  1  0
 25 26  2  0
 26 22  1  0
 27 28  2  0
 27 29  1  0
M  END
$$$$
