WVT.pdb
     RDKit          3D

 29 30  0  0  1  0  0  0  0  0999 V2000
    6.0362  -18.3328   24.8329 N   0  0  0  0  0  0  0  0  0  0  0  0
    6.3419  -16.9457   24.6205 C   0  0  1  0  0  0  0  0  0  0  0  0
    6.9810  -16.3206   25.8366 C   0  0  0  0  0  0  0  0  0  0  0  0
    6.3913  -15.0504   26.2587 C   0  0  0  0  0  0  0  0  0  0  0  0
    5.0506  -14.8304   26.4864 C   0  0  0  0  0  0  0  0  0  0  0  0
    4.8789  -13.5569   26.8815 N   0  0  0  0  0  0  0  0  0  0  0  0
    6.0583  -12.9200   26.9246 C   0  0  0  0  0  0  0  0  0  0  0  0
    6.3772  -11.6256   27.2612 C   0  0  0  0  0  0  0  0  0  0  0  0
    7.7043  -11.2430   27.2059 C   0  0  0  0  0  0  0  0  0  0  0  0
    8.6613  -12.1537   26.8203 C   0  0  0  0  0  0  0  0  0  0  0  0
    8.3533  -13.4576   26.4797 C   0  0  0  0  0  0  0  0  0  0  0  0
    7.0149  -13.8548   26.5331 C   0  0  0  0  0  0  0  0  0  0  0  0
    7.3683  -16.8524   23.5309 C   0  0  0  0  0  0  0  0  0  0  0  0
    8.0900  -17.8646   23.3442 O   0  0  0  0  0  0  0  0  0  0  0  0
    7.0763  -14.0920   20.3884 C   0  0  0  0  0  0  0  0  0  0  0  0
    8.4431  -14.4099   20.9055 C   0  0  2  0  0  0  0  0  0  0  0  0
    9.4937  -14.3594   19.8156 C   0  0  0  0  0  0  0  0  0  0  0  0
    8.4454  -15.7563   21.6082 C   0  0  2  0  0  0  0  0  0  0  0  0
    7.5189  -15.6774   22.7472 N   0  0  0  0  0  0  0  0  0  0  0  0
    9.7944  -16.0865   22.0472 C   0  0  0  0  0  0  0  0  0  0  0  0
   10.2900  -15.3769   23.0071 O   0  0  0  0  0  0  0  0  0  0  0  0
   13.6176  -19.2034   22.6994 C   0  0  0  0  0  0  0  0  0  0  0  0
   12.2464  -18.8523   22.2370 C   0  0  1  0  0  0  0  0  0  0  0  0
   11.3004  -19.5110   23.0197 O   0  0  0  0  0  0  0  0  0  0  0  0
   11.9539  -17.3694   22.1992 C   0  0  2  0  0  0  0  0  0  0  0  0
   10.6690  -17.0923   21.5799 N   0  0  0  0  0  0  0  0  0  0  0  0
   13.0148  -16.7208   21.4021 C   0  0  0  0  0  0  0  0  0  0  0  0
   12.9409  -16.6243   20.1378 O   0  0  0  0  0  0  0  0  0  0  0  0
   14.1660  -16.1688   21.9563 O   0  0  0  0  0  0  0  0  0  0  0  0
  2  1  1  1
  2 13  1  0
  3  2  1  0
  3  4  1  0
  4 12  1  0
  5  6  1  0
  5  4  2  0
  6  7  1  0
  7 12  2  0
  7  8  1  0
  8  9  2  0
  9 10  1  0
 11 10  2  0
 12 11  1  0
 13 19  1  0
 13 14  2  0
 16 15  1  6
 16 18  1  0
 16 17  1  0
 18 20  1  0
 18 19  1  1
 20 21  2  0
 23 22  1  1
 23 24  1  0
 23 25  1  0
 25 27  1  0
 25 26  1  6
 26 20  1  0
 27 29  1  0
 28 27  2  0
M  END
$$$$
