WVT.pdb
     RDKit          3D

 29 30  0  0  1  0  0  0  0  0999 V2000
    6.5147  -17.2621   24.3846 N   0  0  0  0  0  0  0  0  0  0  0  0
    6.8765  -15.9304   23.9868 C   0  0  1  0  0  0  0  0  0  0  0  0
    8.1522  -15.4744   24.6521 C   0  0  0  0  0  0  0  0  0  0  0  0
    7.9703  -14.8007   25.9375 C   0  0  0  0  0  0  0  0  0  0  0  0
    8.0627  -15.4026   27.1733 C   0  0  0  0  0  0  0  0  0  0  0  0
    7.8602  -14.4757   28.1258 N   0  0  0  0  0  0  0  0  0  0  0  0
    7.6353  -13.2770   27.5682 C   0  0  0  0  0  0  0  0  0  0  0  0
    7.3771  -12.0497   28.1318 C   0  0  0  0  0  0  0  0  0  0  0  0
    7.1765  -10.9719   27.2897 C   0  0  0  0  0  0  0  0  0  0  0  0
    7.2389  -11.1505   25.9265 C   0  0  0  0  0  0  0  0  0  0  0  0
    7.4979  -12.3790   25.3480 C   0  0  0  0  0  0  0  0  0  0  0  0
    7.7029  -13.4747   26.1902 C   0  0  0  0  0  0  0  0  0  0  0  0
    7.1694  -15.9428   22.5158 C   0  0  0  0  0  0  0  0  0  0  0  0
    7.3146  -17.0691   21.9766 O   0  0  0  0  0  0  0  0  0  0  0  0
    7.7458  -13.6272   18.2183 C   0  0  0  0  0  0  0  0  0  0  0  0
    7.4895  -13.5223   19.6879 C   0  0  2  0  0  0  0  0  0  0  0  0
    8.3507  -12.4636   20.3451 C   0  0  0  0  0  0  0  0  0  0  0  0
    7.6738  -14.8731   20.3573 C   0  0  2  0  0  0  0  0  0  0  0  0
    7.2780  -14.7407   21.7672 N   0  0  0  0  0  0  0  0  0  0  0  0
    9.0600  -15.3036   20.2365 C   0  0  0  0  0  0  0  0  0  0  0  0
    9.4363  -15.7565   19.0858 O   0  0  0  0  0  0  0  0  0  0  0  0
   13.8192  -14.9027   20.6821 C   0  0  0  0  0  0  0  0  0  0  0  0
   12.3704  -14.5587   20.6916 C   0  0  1  0  0  0  0  0  0  0  0  0
   12.0340  -13.8968   19.5125 O   0  0  0  0  0  0  0  0  0  0  0  0
   11.4447  -15.7330   20.9153 C   0  0  2  0  0  0  0  0  0  0  0  0
   10.0886  -15.2987   21.2044 N   0  0  0  0  0  0  0  0  0  0  0  0
   11.9557  -16.4958   22.0723 C   0  0  0  0  0  0  0  0  0  0  0  0
   11.3006  -16.5911   23.1562 O   0  0  0  0  0  0  0  0  0  0  0  0
   13.1764  -17.1644   22.0755 O   0  0  0  0  0  0  0  0  0  0  0  0
  2  1  1  1
  2 13  1  0
  3  2  1  0
  3  4  1  0
  4 12  1  0
  5  6  1  0
  5  4  2  0
  6  7  1  0
  7 12  2  0
  7  8  1  0
  8  9  2  0
  9 10  1  0
 11 10  2  0
 12 11  1  0
 13 19  1  0
 13 14  2  0
 16 15  1  6
 16 18  1  0
 16 17  1  0
 18 20  1  0
 18 19  1  1
 20 21  2  0
 23 22  1  6
 23 24  1  0
 23 25  1  0
 25 27  1  0
 25 26  1  1
 26 20  1  0
 27 29  1  0
 28 27  2  0
M  END
$$$$
