WVT.pdb
     RDKit          3D

 29 30  0  0  1  0  0  0  0  0999 V2000
    6.0254  -18.1670   24.4826 N   0  0  0  0  0  0  0  0  0  0  0  0
    6.3534  -16.7792   24.3116 C   0  0  1  0  0  0  0  0  0  0  0  0
    7.1825  -16.2545   25.4585 C   0  0  0  0  0  0  0  0  0  0  0  0
    6.6443  -15.0625   26.1134 C   0  0  0  0  0  0  0  0  0  0  0  0
    5.4565  -15.0024   26.8086 C   0  0  0  0  0  0  0  0  0  0  0  0
    5.2963  -13.7577   27.2908 N   0  0  0  0  0  0  0  0  0  0  0  0
    6.3356  -12.9858   26.9410 C   0  0  0  0  0  0  0  0  0  0  0  0
    6.6076  -11.6624   27.1963 C   0  0  0  0  0  0  0  0  0  0  0  0
    7.7773  -11.1256   26.6919 C   0  0  0  0  0  0  0  0  0  0  0  0
    8.6295  -11.9171   25.9562 C   0  0  0  0  0  0  0  0  0  0  0  0
    8.3673  -13.2487   25.6930 C   0  0  0  0  0  0  0  0  0  0  0  0
    7.1881  -13.8013   26.1990 C   0  0  0  0  0  0  0  0  0  0  0  0
    7.2186  -16.6476   23.0935 C   0  0  0  0  0  0  0  0  0  0  0  0
    7.8229  -17.6823   22.7134 O   0  0  0  0  0  0  0  0  0  0  0  0
    6.6550  -13.8055   20.1556 C   0  0  0  0  0  0  0  0  0  0  0  0
    8.0791  -14.0586   20.5357 C   0  0  2  0  0  0  0  0  0  0  0  0
    9.0169  -13.9425   19.3519 C   0  0  0  0  0  0  0  0  0  0  0  0
    8.2158  -15.4106   21.2139 C   0  0  2  0  0  0  0  0  0  0  0  0
    7.3497  -15.4139   22.4021 N   0  0  0  0  0  0  0  0  0  0  0  0
    9.6069  -15.6485   21.5741 C   0  0  0  0  0  0  0  0  0  0  0  0
   10.1552  -14.8071   22.3877 O   0  0  0  0  0  0  0  0  0  0  0  0
   11.6126  -18.4738   23.5667 C   0  0  0  0  0  0  0  0  0  0  0  0
   12.0997  -18.2174   22.1831 C   0  0  1  0  0  0  0  0  0  0  0  0
   11.5658  -19.1640   21.3110 O   0  0  0  0  0  0  0  0  0  0  0  0
   11.8313  -16.8212   21.6685 C   0  0  2  0  0  0  0  0  0  0  0  0
   10.4741  -16.6866   21.1675 N   0  0  0  0  0  0  0  0  0  0  0  0
   12.7740  -16.5597   20.5620 C   0  0  0  0  0  0  0  0  0  0  0  0
   12.4032  -16.5696   19.3473 O   0  0  0  0  0  0  0  0  0  0  0  0
   14.1253  -16.2845   20.7502 O   0  0  0  0  0  0  0  0  0  0  0  0
  2  1  1  1
  2 13  1  0
  3  2  1  0
  3  4  1  0
  4 12  1  0
  5  6  1  0
  5  4  2  0
  6  7  1  0
  7 12  2  0
  7  8  1  0
  8  9  2  0
  9 10  1  0
 11 10  2  0
 12 11  1  0
 13 19  1  0
 13 14  2  0
 16 15  1  6
 16 18  1  0
 16 17  1  0
 18 20  1  0
 18 19  1  1
 20 21  2  0
 23 22  1  1
 23 24  1  0
 23 25  1  0
 25 27  1  0
 25 26  1  6
 26 20  1  0
 27 29  1  0
 28 27  2  0
M  END
$$$$
