WVT.pdb
     RDKit          3D

 29 30  0  0  1  0  0  0  0  0999 V2000
    6.4827  -17.2931   24.8832 N   0  0  0  0  0  0  0  0  0  0  0  0
    6.8786  -15.9866   24.4371 C   0  0  1  0  0  0  0  0  0  0  0  0
    7.9728  -15.4079   25.3007 C   0  0  0  0  0  0  0  0  0  0  0  0
    7.5102  -14.5336   26.3782 C   0  0  0  0  0  0  0  0  0  0  0  0
    6.2179  -14.0855   26.5422 C   0  0  0  0  0  0  0  0  0  0  0  0
    6.1578  -13.3237   27.6484 N   0  0  0  0  0  0  0  0  0  0  0  0
    7.3651  -13.2479   28.2272 C   0  0  0  0  0  0  0  0  0  0  0  0
    7.7879  -12.5899   29.3581 C   0  0  0  0  0  0  0  0  0  0  0  0
    9.1198  -12.6900   29.7142 C   0  0  0  0  0  0  0  0  0  0  0  0
    9.9789  -13.4352   28.9392 C   0  0  0  0  0  0  0  0  0  0  0  0
    9.5659  -14.1014   27.8005 C   0  0  0  0  0  0  0  0  0  0  0  0
    8.2215  -14.0073   27.4321 C   0  0  0  0  0  0  0  0  0  0  0  0
    7.4722  -16.1181   23.0660 C   0  0  0  0  0  0  0  0  0  0  0  0
    7.5963  -17.2838   22.6119 O   0  0  0  0  0  0  0  0  0  0  0  0
    7.2075  -13.0340   20.4588 C   0  0  0  0  0  0  0  0  0  0  0  0
    8.4287  -13.8691   20.2402 C   0  0  2  0  0  0  0  0  0  0  0  0
    8.7553  -14.0321   18.7702 C   0  0  0  0  0  0  0  0  0  0  0  0
    8.2792  -15.2179   20.9222 C   0  0  2  0  0  0  0  0  0  0  0  0
    7.8754  -14.9813   22.3161 N   0  0  0  0  0  0  0  0  0  0  0  0
    9.5352  -15.9523   20.8540 C   0  0  0  0  0  0  0  0  0  0  0  0
   10.4735  -15.5879   21.6648 O   0  0  0  0  0  0  0  0  0  0  0  0
   12.3461  -19.9050   19.5777 C   0  0  0  0  0  0  0  0  0  0  0  0
   11.0854  -19.1163   19.5000 C   0  0  1  0  0  0  0  0  0  0  0  0
   10.0264  -19.8669   20.0067 O   0  0  0  0  0  0  0  0  0  0  0  0
   11.1429  -17.7667   20.1791 C   0  0  2  0  0  0  0  0  0  0  0  0
    9.8977  -17.0344   20.0219 N   0  0  0  0  0  0  0  0  0  0  0  0
   12.2319  -16.9918   19.5505 C   0  0  0  0  0  0  0  0  0  0  0  0
   12.0870  -16.4207   18.4253 O   0  0  0  0  0  0  0  0  0  0  0  0
   13.4880  -16.8227   20.1256 O   0  0  0  0  0  0  0  0  0  0  0  0
  2  1  1  1
  2 13  1  0
  3  2  1  0
  3  4  1  0
  4 12  1  0
  5  6  1  0
  5  4  2  0
  6  7  1  0
  7 12  2  0
  7  8  1  0
  8  9  2  0
  9 10  1  0
 11 10  2  0
 12 11  1  0
 13 19  1  0
 13 14  2  0
 16 15  1  6
 16 18  1  0
 16 17  1  0
 18 20  1  0
 18 19  1  1
 20 21  2  0
 23 22  1  1
 23 24  1  0
 23 25  1  0
 25 27  1  0
 25 26  1  6
 26 20  1  0
 27 29  1  0
 28 27  2  0
M  END
$$$$
