WVT.pdb
     RDKit          3D

 29 30  0  0  1  0  0  0  0  0999 V2000
    6.6274  -18.9592   26.4872 N   0  0  0  0  0  0  0  0  0  0  0  0
    7.4327  -17.7710   26.5361 C   0  0  1  0  0  0  0  0  0  0  0  0
    8.8290  -18.0609   27.0304 C   0  0  0  0  0  0  0  0  0  0  0  0
    9.2641  -17.2439   28.1628 C   0  0  0  0  0  0  0  0  0  0  0  0
    9.6893  -17.7296   29.3798 C   0  0  0  0  0  0  0  0  0  0  0  0
   10.0309  -16.6947   30.1669 N   0  0  0  0  0  0  0  0  0  0  0  0
    9.8477  -15.5358   29.5174 C   0  0  0  0  0  0  0  0  0  0  0  0
   10.0523  -14.2344   29.9111 C   0  0  0  0  0  0  0  0  0  0  0  0
    9.7635  -13.2254   29.0114 C   0  0  0  0  0  0  0  0  0  0  0  0
    9.2847  -13.5429   27.7609 C   0  0  0  0  0  0  0  0  0  0  0  0
    9.0751  -14.8471   27.3534 C   0  0  0  0  0  0  0  0  0  0  0  0
    9.3646  -15.8745   28.2548 C   0  0  0  0  0  0  0  0  0  0  0  0
    7.5975  -17.2573   25.1366 C   0  0  0  0  0  0  0  0  0  0  0  0
    7.4458  -18.0890   24.2063 O   0  0  0  0  0  0  0  0  0  0  0  0
    6.5619  -13.5325   24.1996 C   0  0  0  0  0  0  0  0  0  0  0  0
    7.7644  -13.9663   23.4234 C   0  0  2  0  0  0  0  0  0  0  0  0
    7.7392  -13.4574   21.9970 C   0  0  0  0  0  0  0  0  0  0  0  0
    7.9065  -15.4778   23.4645 C   0  0  2  0  0  0  0  0  0  0  0  0
    7.9100  -15.8969   24.8739 N   0  0  0  0  0  0  0  0  0  0  0  0
    9.1333  -15.8811   22.7910 C   0  0  0  0  0  0  0  0  0  0  0  0
   10.2358  -15.3554   23.2140 O   0  0  0  0  0  0  0  0  0  0  0  0
   10.8543  -19.5262   22.1029 C   0  0  0  0  0  0  0  0  0  0  0  0
   10.6942  -18.6457   20.9127 C   0  0  1  0  0  0  0  0  0  0  0  0
    9.5738  -19.0370   20.1826 O   0  0  0  0  0  0  0  0  0  0  0  0
   10.6254  -17.1681   21.2259 C   0  0  2  0  0  0  0  0  0  0  0  0
    9.3141  -16.7862   21.7219 N   0  0  0  0  0  0  0  0  0  0  0  0
   10.8936  -16.4293   19.9754 C   0  0  0  0  0  0  0  0  0  0  0  0
    9.9690  -15.8475   19.3275 O   0  0  0  0  0  0  0  0  0  0  0  0
   12.1591  -16.3082   19.4088 O   0  0  0  0  0  0  0  0  0  0  0  0
  2  1  1  6
  2 13  1  0
  3  2  1  0
  3  4  1  0
  4 12  1  0
  5  6  1  0
  5  4  2  0
  6  7  1  0
  7 12  2  0
  7  8  1  0
  8  9  2  0
  9 10  1  0
 11 10  2  0
 12 11  1  0
 13 19  1  0
 13 14  2  0
 16 15  1  6
 16 18  1  0
 16 17  1  0
 18 20  1  0
 18 19  1  1
 20 21  2  0
 23 22  1  1
 23 24  1  0
 23 25  1  0
 25 27  1  0
 25 26  1  6
 26 20  1  0
 27 29  1  0
 28 27  2  0
M  END
$$$$
