WVT.pdb
     RDKit          3D

 29 30  0  0  1  0  0  0  0  0999 V2000
    5.5907  -17.9758   23.9866 N   0  0  0  0  0  0  0  0  0  0  0  0
    6.1933  -16.6758   23.8887 C   0  0  1  0  0  0  0  0  0  0  0  0
    7.0487  -16.3630   25.0922 C   0  0  0  0  0  0  0  0  0  0  0  0
    6.6352  -15.1840   25.8526 C   0  0  0  0  0  0  0  0  0  0  0  0
    5.5289  -15.1100   26.6702 C   0  0  0  0  0  0  0  0  0  0  0  0
    5.4757  -13.8852   27.2218 N   0  0  0  0  0  0  0  0  0  0  0  0
    6.5077  -13.1398   26.8002 C   0  0  0  0  0  0  0  0  0  0  0  0
    6.8644  -11.8427   27.0848 C   0  0  0  0  0  0  0  0  0  0  0  0
    7.9994  -11.3295   26.4854 C   0  0  0  0  0  0  0  0  0  0  0  0
    8.7348  -12.1178   25.6299 C   0  0  0  0  0  0  0  0  0  0  0  0
    8.3866  -13.4230   25.3361 C   0  0  0  0  0  0  0  0  0  0  0  0
    7.2416  -13.9516   25.9373 C   0  0  0  0  0  0  0  0  0  0  0  0
    7.1295  -16.6791   22.7168 C   0  0  0  0  0  0  0  0  0  0  0  0
    7.6597  -17.7792   22.4183 O   0  0  0  0  0  0  0  0  0  0  0  0
    8.8524  -13.2213   20.9149 C   0  0  0  0  0  0  0  0  0  0  0  0
    8.2940  -14.3169   20.0638 C   0  0  2  0  0  0  0  0  0  0  0  0
    6.9090  -13.9897   19.5454 C   0  0  0  0  0  0  0  0  0  0  0  0
    8.3000  -15.6335   20.8209 C   0  0  2  0  0  0  0  0  0  0  0  0
    7.4048  -15.4969   21.9793 N   0  0  0  0  0  0  0  0  0  0  0  0
    9.6563  -15.9619   21.2380 C   0  0  0  0  0  0  0  0  0  0  0  0
   10.0983  -15.3847   22.3068 O   0  0  0  0  0  0  0  0  0  0  0  0
   13.3157  -19.2687   21.6911 C   0  0  0  0  0  0  0  0  0  0  0  0
   12.0367  -18.7637   21.1196 C   0  0  1  0  0  0  0  0  0  0  0  0
   10.9687  -19.5018   21.6259 O   0  0  0  0  0  0  0  0  0  0  0  0
   11.7949  -17.2852   21.3235 C   0  0  2  0  0  0  0  0  0  0  0  0
   10.5893  -16.8410   20.6450 N   0  0  0  0  0  0  0  0  0  0  0  0
   12.9512  -16.5578   20.7620 C   0  0  0  0  0  0  0  0  0  0  0  0
   12.9655  -16.1435   19.5615 O   0  0  0  0  0  0  0  0  0  0  0  0
   14.1040  -16.2678   21.4859 O   0  0  0  0  0  0  0  0  0  0  0  0
  2  1  1  1
  2 13  1  0
  3  2  1  0
  3  4  1  0
  4 12  1  0
  5  6  1  0
  5  4  2  0
  6  7  1  0
  7 12  2  0
  7  8  1  0
  8  9  2  0
  9 10  1  0
 11 10  2  0
 12 11  1  0
 13 19  1  0
 13 14  2  0
 16 15  1  1
 16 18  1  0
 16 17  1  0
 18 20  1  0
 18 19  1  1
 20 21  2  0
 23 22  1  1
 23 24  1  0
 23 25  1  0
 25 27  1  0
 25 26  1  6
 26 20  1  0
 27 29  1  0
 28 27  2  0
M  END
$$$$
