WVT.pdb
     RDKit          3D

 29 30  0  0  1  0  0  0  0  0999 V2000
    6.1422  -18.8599   25.1141 N   0  0  0  0  0  0  0  0  0  0  0  0
    6.3319  -17.4422   24.9844 C   0  0  1  0  0  0  0  0  0  0  0  0
    7.0137  -16.8554   26.1963 C   0  0  0  0  0  0  0  0  0  0  0  0
    6.7224  -15.4437   26.4442 C   0  0  0  0  0  0  0  0  0  0  0  0
    5.4642  -14.8840   26.4835 C   0  0  0  0  0  0  0  0  0  0  0  0
    5.5787  -13.5728   26.7573 N   0  0  0  0  0  0  0  0  0  0  0  0
    6.8694  -13.2386   26.9015 C   0  0  0  0  0  0  0  0  0  0  0  0
    7.4674  -12.0317   27.1780 C   0  0  0  0  0  0  0  0  0  0  0  0
    8.8464  -11.9887   27.2625 C   0  0  0  0  0  0  0  0  0  0  0  0
    9.5778  -13.1385   27.0703 C   0  0  0  0  0  0  0  0  0  0  0  0
    8.9885  -14.3576   26.7920 C   0  0  0  0  0  0  0  0  0  0  0  0
    7.5951  -14.4122   26.7052 C   0  0  0  0  0  0  0  0  0  0  0  0
    7.2652  -17.1962   23.8363 C   0  0  0  0  0  0  0  0  0  0  0  0
    8.0803  -18.1132   23.5623 O   0  0  0  0  0  0  0  0  0  0  0  0
    6.4466  -14.4810   20.8670 C   0  0  0  0  0  0  0  0  0  0  0  0
    7.8899  -14.5657   21.2497 C   0  0  2  0  0  0  0  0  0  0  0  0
    8.8092  -14.3870   20.0593 C   0  0  0  0  0  0  0  0  0  0  0  0
    8.1728  -15.8721   21.9706 C   0  0  2  0  0  0  0  0  0  0  0  0
    7.2308  -15.9859   23.0938 N   0  0  0  0  0  0  0  0  0  0  0  0
    9.5531  -15.8958   22.4349 C   0  0  0  0  0  0  0  0  0  0  0  0
    9.9040  -14.9840   23.2812 O   0  0  0  0  0  0  0  0  0  0  0  0
   11.6109  -18.3948   24.6424 C   0  0  0  0  0  0  0  0  0  0  0  0
   12.2637  -18.0940   23.3383 C   0  0  1  0  0  0  0  0  0  0  0  0
   11.9932  -19.1137   22.4280 O   0  0  0  0  0  0  0  0  0  0  0  0
   11.8990  -16.7520   22.7450 C   0  0  2  0  0  0  0  0  0  0  0  0
   10.5968  -16.7870   22.1012 N   0  0  0  0  0  0  0  0  0  0  0  0
   12.9201  -16.4141   21.7328 C   0  0  0  0  0  0  0  0  0  0  0  0
   12.6738  -16.4636   20.4878 O   0  0  0  0  0  0  0  0  0  0  0  0
   14.2167  -16.0190   22.0489 O   0  0  0  0  0  0  0  0  0  0  0  0
  2  1  1  1
  2 13  1  0
  3  2  1  0
  3  4  1  0
  4 12  1  0
  5  6  1  0
  5  4  2  0
  6  7  1  0
  7 12  2  0
  7  8  1  0
  8  9  2  0
  9 10  1  0
 11 10  2  0
 12 11  1  0
 13 19  1  0
 13 14  2  0
 16 15  1  6
 16 18  1  0
 16 17  1  0
 18 20  1  0
 18 19  1  1
 20 21  2  0
 23 22  1  1
 23 24  1  0
 23 25  1  0
 25 27  1  0
 25 26  1  6
 26 20  1  0
 27 29  1  0
 28 27  2  0
M  END
$$$$
