WVT.pdb
     RDKit          3D

 29 30  0  0  1  0  0  0  0  0999 V2000
    6.0808  -17.3606   23.7518 N   0  0  0  0  0  0  0  0  0  0  0  0
    6.6648  -16.0716   23.5066 C   0  0  1  0  0  0  0  0  0  0  0  0
    7.6847  -15.7098   24.5587 C   0  0  0  0  0  0  0  0  0  0  0  0
    7.1453  -15.0140   25.7267 C   0  0  0  0  0  0  0  0  0  0  0  0
    6.5768  -15.6216   26.8246 C   0  0  0  0  0  0  0  0  0  0  0  0
    6.2150  -14.6751   27.7081 N   0  0  0  0  0  0  0  0  0  0  0  0
    6.5220  -13.4575   27.2372 C   0  0  0  0  0  0  0  0  0  0  0  0
    6.3411  -12.2056   27.7763 C   0  0  0  0  0  0  0  0  0  0  0  0
    6.7598  -11.1107   27.0435 C   0  0  0  0  0  0  0  0  0  0  0  0
    7.3392  -11.2972   25.8092 C   0  0  0  0  0  0  0  0  0  0  0  0
    7.5267  -12.5505   25.2568 C   0  0  0  0  0  0  0  0  0  0  0  0
    7.1078  -13.6638   25.9896 C   0  0  0  0  0  0  0  0  0  0  0  0
    7.4228  -16.1375   22.2141 C   0  0  0  0  0  0  0  0  0  0  0  0
    7.7663  -17.2795   21.8163 O   0  0  0  0  0  0  0  0  0  0  0  0
    9.0615  -12.7870   20.0377 C   0  0  0  0  0  0  0  0  0  0  0  0
    8.2603  -13.8672   19.3837 C   0  0  2  0  0  0  0  0  0  0  0  0
    6.8104  -13.4711   19.1963 C   0  0  0  0  0  0  0  0  0  0  0  0
    8.3785  -15.1640   20.1654 C   0  0  2  0  0  0  0  0  0  0  0  0
    7.7382  -14.9668   21.4743 N   0  0  0  0  0  0  0  0  0  0  0  0
    9.7804  -15.5300   20.3136 C   0  0  0  0  0  0  0  0  0  0  0  0
   10.5057  -14.7808   21.0774 O   0  0  0  0  0  0  0  0  0  0  0  0
   11.7422  -18.5913   21.9322 C   0  0  0  0  0  0  0  0  0  0  0  0
   12.0637  -18.3317   20.5016 C   0  0  1  0  0  0  0  0  0  0  0  0
   11.3201  -19.1840   19.6879 O   0  0  0  0  0  0  0  0  0  0  0  0
   11.8788  -16.8963   20.0639 C   0  0  2  0  0  0  0  0  0  0  0  0
   10.4912  -16.6088   19.7426 N   0  0  0  0  0  0  0  0  0  0  0  0
   12.6998  -16.6845   18.8546 C   0  0  0  0  0  0  0  0  0  0  0  0
   12.1782  -16.5368   17.7060 O   0  0  0  0  0  0  0  0  0  0  0  0
   14.0905  -16.6290   18.8679 O   0  0  0  0  0  0  0  0  0  0  0  0
  2  1  1  1
  2 13  1  0
  3  2  1  0
  3  4  1  0
  4 12  1  0
  5  6  1  0
  5  4  2  0
  6  7  1  0
  7 12  2  0
  7  8  1  0
  8  9  2  0
  9 10  1  0
 11 10  2  0
 12 11  1  0
 13 19  1  0
 13 14  2  0
 16 15  1  1
 16 18  1  0
 16 17  1  0
 18 20  1  0
 18 19  1  1
 20 21  2  0
 23 22  1  1
 23 24  1  0
 23 25  1  0
 25 27  1  0
 25 26  1  6
 26 20  1  0
 27 29  1  0
 28 27  2  0
M  END
$$$$
