WVT.pdb
     RDKit          3D

 29 30  0  0  1  0  0  0  0  0999 V2000
   10.4566  -15.6679   21.7893 N   0  0  0  0  0  0  0  0  0  0  0  0
    9.4523  -15.2005   22.7034 C   0  0  1  0  0  0  0  0  0  0  0  0
    8.1424  -15.9264   22.5150 C   0  0  0  0  0  0  0  0  0  0  0  0
    7.2704  -15.3664   21.4829 C   0  0  0  0  0  0  0  0  0  0  0  0
    6.0532  -15.8855   21.0997 C   0  0  0  0  0  0  0  0  0  0  0  0
    5.5252  -15.0996   20.1452 N   0  0  0  0  0  0  0  0  0  0  0  0
    6.3482  -14.0750   19.8783 C   0  0  0  0  0  0  0  0  0  0  0  0
    6.2382  -13.0329   18.9881 C   0  0  0  0  0  0  0  0  0  0  0  0
    7.2675  -12.1121   18.9279 C   0  0  0  0  0  0  0  0  0  0  0  0
    8.3624  -12.2585   19.7487 C   0  0  0  0  0  0  0  0  0  0  0  0
    8.4845  -13.3015   20.6478 C   0  0  0  0  0  0  0  0  0  0  0  0
    7.4493  -14.2372   20.7170 C   0  0  0  0  0  0  0  0  0  0  0  0
    9.8983  -15.5261   24.0980 C   0  0  0  0  0  0  0  0  0  0  0  0
   10.8099  -16.3836   24.2156 O   0  0  0  0  0  0  0  0  0  0  0  0
   10.1155  -14.1815   28.8272 C   0  0  0  0  0  0  0  0  0  0  0  0
    9.4326  -14.0674   27.5016 C   0  0  2  0  0  0  0  0  0  0  0  0
    7.9331  -14.2504   27.6125 C   0  0  0  0  0  0  0  0  0  0  0  0
   10.0332  -15.0469   26.5084 C   0  0  2  0  0  0  0  0  0  0  0  0
    9.3191  -14.8967   25.2318 N   0  0  0  0  0  0  0  0  0  0  0  0
    9.9205  -16.4061   27.0193 C   0  0  0  0  0  0  0  0  0  0  0  0
    8.7601  -16.9698   26.9387 O   0  0  0  0  0  0  0  0  0  0  0  0
   11.3900  -20.9810   27.9678 C   0  0  0  0  0  0  0  0  0  0  0  0
   11.5640  -19.5910   27.4628 C   0  0  1  0  0  0  0  0  0  0  0  0
   11.4446  -19.5740   26.0746 O   0  0  0  0  0  0  0  0  0  0  0  0
   10.6316  -18.5739   28.0811 C   0  0  2  0  0  0  0  0  0  0  0  0
   10.9089  -17.2310   27.6003 N   0  0  0  0  0  0  0  0  0  0  0  0
   10.8354  -18.6060   29.5436 C   0  0  0  0  0  0  0  0  0  0  0  0
   11.5232  -17.7241   30.1454 O   0  0  0  0  0  0  0  0  0  0  0  0
   10.3014  -19.5868   30.3743 O   0  0  0  0  0  0  0  0  0  0  0  0
  2  1  1  6
  2 13  1  0
  3  2  1  0
  3  4  1  0
  4 12  1  0
  5  6  1  0
  5  4  2  0
  6  7  1  0
  7 12  2  0
  7  8  1  0
  8  9  2  0
  9 10  1  0
 11 10  2  0
 12 11  1  0
 13 19  1  0
 13 14  2  0
 16 15  1  1
 16 18  1  0
 16 17  1  0
 18 20  1  0
 18 19  1  6
 20 21  2  0
 23 22  1  1
 23 24  1  0
 23 25  1  0
 25 27  1  0
 25 26  1  6
 26 20  1  0
 27 29  1  0
 28 27  2  0
M  END
$$$$
