WNE.pdb
     RDKit          3D

 32 33  0  0  1  0  0  0  0  0999 V2000
    5.8240  -16.1784   22.7348 N   0  0  0  0  0  0  0  0  0  0  0  0
    7.2470  -15.7905   22.6053 C   0  0  1  0  0  0  0  0  0  0  0  0
    7.8286  -15.9752   23.9568 C   0  0  0  0  0  0  0  0  0  0  0  0
    7.2104  -15.2791   25.0697 C   0  0  0  0  0  0  0  0  0  0  0  0
    6.4255  -15.8482   26.0377 C   0  0  0  0  0  0  0  0  0  0  0  0
    6.0212  -14.9067   26.8900 N   0  0  0  0  0  0  0  0  0  0  0  0
    6.5190  -13.7218   26.5120 C   0  0  0  0  0  0  0  0  0  0  0  0
    6.3777  -12.4524   27.0789 C   0  0  0  0  0  0  0  0  0  0  0  0
    6.9955  -11.3665   26.4994 C   0  0  0  0  0  0  0  0  0  0  0  0
    7.7463  -11.5793   25.3568 C   0  0  0  0  0  0  0  0  0  0  0  0
    7.8801  -12.8353   24.8045 C   0  0  0  0  0  0  0  0  0  0  0  0
    7.2687  -13.9382   25.3697 C   0  0  0  0  0  0  0  0  0  0  0  0
    7.8132  -16.5717   21.5172 C   0  0  0  0  0  0  0  0  0  0  0  0
    7.0056  -17.1200   20.6908 O   0  0  0  0  0  0  0  0  0  0  0  0
    8.6793  -12.6762   19.0234 N   0  0  0  0  0  0  0  0  0  0  0  0
    8.6584  -14.0555   19.3341 C   0  0  0  0  0  0  0  0  0  0  0  0
    7.9085  -14.8019   18.6659 O   0  0  0  0  0  0  0  0  0  0  0  0
    9.4997  -14.6008   20.4183 C   0  0  0  0  0  0  0  0  0  0  0  0
    9.8683  -16.0817   20.1698 C   0  0  2  0  0  0  0  0  0  0  0  0
    9.1899  -16.8032   21.2523 N   0  0  0  0  0  0  0  0  0  0  0  0
   11.3247  -16.2582   20.1757 C   0  0  0  0  0  0  0  0  0  0  0  0
   11.8579  -17.2565   19.5770 O   0  0  0  0  0  0  0  0  0  0  0  0
   12.2447  -15.3942   20.8051 N   0  0  0  0  0  0  0  0  0  0  0  0
   13.6963  -15.6798   20.8945 C   0  0  1  0  0  0  0  0  0  0  0  0
   14.4729  -14.5196   20.3859 C   0  0  0  0  0  0  0  0  0  0  0  0
   14.0813  -14.1521   18.9867 C   0  0  0  0  0  0  0  0  0  0  0  0
   15.3361  -13.7800   18.2322 C   0  0  0  0  0  0  0  0  0  0  0  0
   16.3070  -13.3518   18.8960 O   0  0  0  0  0  0  0  0  0  0  0  0
   13.9769  -15.9528   22.3036 C   0  0  0  0  0  0  0  0  0  0  0  0
   15.1328  -16.3340   22.7143 O   0  0  0  0  0  0  0  0  0  0  0  0
   15.3402  -13.9323   16.8630 O   0  0  0  0  0  0  0  0  0  0  0  0
   13.0034  -15.8097   23.2747 O   0  0  0  0  0  0  0  0  0  0  0  0
  2  1  1  1
  2 13  1  0
  2  3  1  0
  4  3  1  0
  4  5  2  0
  6  5  1  0
  7  6  1  0
  8  7  2  0
  9  8  1  0
 10  9  2  0
 10 11  1  0
 11 12  2  0
 12  7  1  0
 12  4  1  0
 13 14  2  0
 15 16  1  0
 16 18  1  0
 17 16  2  0
 19 18  1  1
 20 19  1  0
 20 13  1  0
 21 22  2  0
 21 19  1  0
 23 21  1  0
 24 29  1  0
 24 23  1  0
 24 25  1  1
 26 25  1  0
 27 26  1  0
 27 28  2  0
 29 32  1  0
 30 29  2  0
 31 27  1  0
M  END
$$$$
