WNE.pdb
     RDKit          3D

 32 33  0  0  1  0  0  0  0  0999 V2000
    7.1004  -16.6577   23.0744 N   0  0  0  0  0  0  0  0  0  0  0  0
    8.2954  -16.0783   23.7289 C   0  0  1  0  0  0  0  0  0  0  0  0
    7.9950  -16.0962   25.1810 C   0  0  0  0  0  0  0  0  0  0  0  0
    7.0572  -15.1175   25.6986 C   0  0  0  0  0  0  0  0  0  0  0  0
    5.9251  -15.3919   26.4198 C   0  0  0  0  0  0  0  0  0  0  0  0
    5.3014  -14.2520   26.7156 N   0  0  0  0  0  0  0  0  0  0  0  0
    5.9922  -13.2227   26.2076 C   0  0  0  0  0  0  0  0  0  0  0  0
    5.7435  -11.8484   26.2530 C   0  0  0  0  0  0  0  0  0  0  0  0
    6.6135  -10.9704   25.6460 C   0  0  0  0  0  0  0  0  0  0  0  0
    7.7212  -11.4937   25.0028 C   0  0  0  0  0  0  0  0  0  0  0  0
    7.9587  -12.8510   24.9630 C   0  0  0  0  0  0  0  0  0  0  0  0
    7.0985  -13.7493   25.5653 C   0  0  0  0  0  0  0  0  0  0  0  0
    9.4507  -16.8343   23.2720 C   0  0  0  0  0  0  0  0  0  0  0  0
    9.8127  -17.8490   23.9613 O   0  0  0  0  0  0  0  0  0  0  0  0
   13.2747  -18.7714   19.6790 N   0  0  0  0  0  0  0  0  0  0  0  0
   13.2716  -17.4360   20.1439 C   0  0  0  0  0  0  0  0  0  0  0  0
   14.3630  -16.8266   20.2026 O   0  0  0  0  0  0  0  0  0  0  0  0
   12.0134  -16.7778   20.5491 C   0  0  0  0  0  0  0  0  0  0  0  0
   11.4774  -17.3375   21.8871 C   0  0  2  0  0  0  0  0  0  0  0  0
   10.2445  -16.5776   22.1218 N   0  0  0  0  0  0  0  0  0  0  0  0
   12.4743  -17.1728   22.9508 C   0  0  0  0  0  0  0  0  0  0  0  0
   13.1521  -16.0902   23.0402 O   0  0  0  0  0  0  0  0  0  0  0  0
   12.7759  -18.1349   23.9369 N   0  0  0  0  0  0  0  0  0  0  0  0
   13.8110  -17.9330   24.9783 C   0  0  1  0  0  0  0  0  0  0  0  0
   13.2482  -18.2422   26.3182 C   0  0  0  0  0  0  0  0  0  0  0  0
   12.4458  -19.5080   26.3114 C   0  0  0  0  0  0  0  0  0  0  0  0
   12.0705  -19.8318   27.7385 C   0  0  0  0  0  0  0  0  0  0  0  0
   12.5238  -19.0912   28.6401 O   0  0  0  0  0  0  0  0  0  0  0  0
   14.9224  -18.8183   24.6323 C   0  0  0  0  0  0  0  0  0  0  0  0
   14.8260  -19.7222   23.7246 O   0  0  0  0  0  0  0  0  0  0  0  0
   11.2548  -20.9185   27.9652 O   0  0  0  0  0  0  0  0  0  0  0  0
   16.1460  -18.7240   25.2688 O   0  0  0  0  0  0  0  0  0  0  0  0
  2  1  1  6
  2 13  1  0
  2  3  1  0
  4  3  1  0
  4  5  2  0
  6  5  1  0
  7  6  1  0
  8  7  2  0
  9  8  1  0
 10  9  2  0
 10 11  1  0
 11 12  2  0
 12  7  1  0
 12  4  1  0
 13 14  2  0
 15 16  1  0
 16 18  1  0
 17 16  2  0
 19 18  1  6
 20 19  1  0
 20 13  1  0
 21 22  2  0
 21 19  1  0
 23 21  1  0
 24 29  1  0
 24 23  1  0
 24 25  1  1
 26 25  1  0
 27 26  1  0
 27 28  2  0
 29 32  1  0
 30 29  2  0
 31 27  1  0
M  END
$$$$
