WNE.pdb
     RDKit          3D

 32 33  0  0  1  0  0  0  0  0999 V2000
    6.4619  -17.1562   24.2719 N   0  0  0  0  0  0  0  0  0  0  0  0
    6.9044  -15.8081   23.8490 C   0  0  1  0  0  0  0  0  0  0  0  0
    8.0664  -15.4875   24.7126 C   0  0  0  0  0  0  0  0  0  0  0  0
    7.8138  -14.8569   25.9947 C   0  0  0  0  0  0  0  0  0  0  0  0
    7.9443  -15.4510   27.2224 C   0  0  0  0  0  0  0  0  0  0  0  0
    7.6165  -14.5776   28.1740 N   0  0  0  0  0  0  0  0  0  0  0  0
    7.2701  -13.4136   27.6086 C   0  0  0  0  0  0  0  0  0  0  0  0
    6.8545  -12.2099   28.1841 C   0  0  0  0  0  0  0  0  0  0  0  0
    6.5475  -11.1329   27.3827 C   0  0  0  0  0  0  0  0  0  0  0  0
    6.6651  -11.2879   26.0128 C   0  0  0  0  0  0  0  0  0  0  0  0
    7.0759  -12.4792   25.4537 C   0  0  0  0  0  0  0  0  0  0  0  0
    7.3886  -13.5721   26.2395 C   0  0  0  0  0  0  0  0  0  0  0  0
    7.1267  -15.8543   22.4125 C   0  0  0  0  0  0  0  0  0  0  0  0
    7.0428  -16.9899   21.8302 O   0  0  0  0  0  0  0  0  0  0  0  0
    7.0525  -13.2964   17.1430 N   0  0  0  0  0  0  0  0  0  0  0  0
    8.0642  -13.5882   18.0868 C   0  0  0  0  0  0  0  0  0  0  0  0
    9.2074  -13.8690   17.6622 O   0  0  0  0  0  0  0  0  0  0  0  0
    7.7792  -13.5620   19.5355 C   0  0  0  0  0  0  0  0  0  0  0  0
    7.6696  -14.9872   20.1251 C   0  0  2  0  0  0  0  0  0  0  0  0
    7.4308  -14.7627   21.5552 N   0  0  0  0  0  0  0  0  0  0  0  0
    8.8907  -15.7531   19.8520 C   0  0  0  0  0  0  0  0  0  0  0  0
    9.1138  -16.2191   18.6805 O   0  0  0  0  0  0  0  0  0  0  0  0
    9.8967  -16.0415   20.7975 N   0  0  0  0  0  0  0  0  0  0  0  0
   11.1535  -16.7486   20.4555 C   0  0  1  0  0  0  0  0  0  0  0  0
   12.2809  -16.1876   21.2441 C   0  0  0  0  0  0  0  0  0  0  0  0
   12.0641  -16.3394   22.7193 C   0  0  0  0  0  0  0  0  0  0  0  0
   13.2947  -15.8245   23.4285 C   0  0  0  0  0  0  0  0  0  0  0  0
   14.2613  -15.4591   22.7222 O   0  0  0  0  0  0  0  0  0  0  0  0
   10.9255  -18.1622   20.7531 C   0  0  0  0  0  0  0  0  0  0  0  0
    9.9405  -18.5643   21.4730 O   0  0  0  0  0  0  0  0  0  0  0  0
   13.2830  -15.7867   24.8055 O   0  0  0  0  0  0  0  0  0  0  0  0
   11.7652  -19.1471   20.2672 O   0  0  0  0  0  0  0  0  0  0  0  0
  2  1  1  1
  2 13  1  0
  2  3  1  0
  4  3  1  0
  4  5  2  0
  6  5  1  0
  7  6  1  0
  8  7  2  0
  9  8  1  0
 10  9  2  0
 10 11  1  0
 11 12  2  0
 12  7  1  0
 12  4  1  0
 13 14  2  0
 15 16  1  0
 16 18  1  0
 17 16  2  0
 19 18  1  6
 20 19  1  0
 20 13  1  0
 21 22  2  0
 21 19  1  0
 23 21  1  0
 24 29  1  0
 24 23  1  0
 24 25  1  1
 26 25  1  0
 27 26  1  0
 27 28  2  0
 29 32  1  0
 30 29  2  0
 31 27  1  0
M  END
$$$$
