WNE.pdb
     RDKit          3D

 32 33  0  0  1  0  0  0  0  0999 V2000
    7.2734  -17.0667   23.1077 N   0  0  0  0  0  0  0  0  0  0  0  0
    8.4781  -16.2381   23.3408 C   0  0  1  0  0  0  0  0  0  0  0  0
    8.5179  -16.0067   24.8050 C   0  0  0  0  0  0  0  0  0  0  0  0
    7.4886  -15.1714   25.3948 C   0  0  0  0  0  0  0  0  0  0  0  0
    6.3770  -15.6154   26.0613 C   0  0  0  0  0  0  0  0  0  0  0  0
    5.6486  -14.5703   26.4528 N   0  0  0  0  0  0  0  0  0  0  0  0
    6.2495  -13.4385   26.0623 C   0  0  0  0  0  0  0  0  0  0  0  0
    5.8765  -12.1031   26.2356 C   0  0  0  0  0  0  0  0  0  0  0  0
    6.6709  -11.0954   25.7358 C   0  0  0  0  0  0  0  0  0  0  0  0
    7.8297  -11.4518   25.0689 C   0  0  0  0  0  0  0  0  0  0  0  0
    8.1899  -12.7720   24.9026 C   0  0  0  0  0  0  0  0  0  0  0  0
    7.4072  -13.7985   25.3960 C   0  0  0  0  0  0  0  0  0  0  0  0
    9.6058  -16.9317   22.7388 C   0  0  0  0  0  0  0  0  0  0  0  0
    9.6656  -18.2026   22.8692 O   0  0  0  0  0  0  0  0  0  0  0  0
   11.7726  -17.4779   18.9070 N   0  0  0  0  0  0  0  0  0  0  0  0
   12.1547  -16.2506   19.4963 C   0  0  0  0  0  0  0  0  0  0  0  0
   11.9782  -15.1988   18.8416 O   0  0  0  0  0  0  0  0  0  0  0  0
   12.7464  -16.2113   20.8486 C   0  0  0  0  0  0  0  0  0  0  0  0
   11.9449  -17.0732   21.8514 C   0  0  2  0  0  0  0  0  0  0  0  0
   10.6748  -16.3542   22.0021 N   0  0  0  0  0  0  0  0  0  0  0  0
   12.6837  -17.2199   23.1104 C   0  0  0  0  0  0  0  0  0  0  0  0
   13.0870  -16.1855   23.7482 O   0  0  0  0  0  0  0  0  0  0  0  0
   13.0099  -18.4482   23.7219 N   0  0  0  0  0  0  0  0  0  0  0  0
   13.7900  -18.5477   24.9782 C   0  0  1  0  0  0  0  0  0  0  0  0
   13.3755  -19.7557   25.7373 C   0  0  0  0  0  0  0  0  0  0  0  0
   12.6124  -19.4043   26.9784 C   0  0  0  0  0  0  0  0  0  0  0  0
   11.1678  -19.7911   26.7647 C   0  0  0  0  0  0  0  0  0  0  0  0
   10.8633  -20.3158   25.6698 O   0  0  0  0  0  0  0  0  0  0  0  0
   15.1979  -18.6022   24.5861 C   0  0  0  0  0  0  0  0  0  0  0  0
   16.1543  -18.5118   25.4389 O   0  0  0  0  0  0  0  0  0  0  0  0
   10.2721  -19.5455   27.7821 O   0  0  0  0  0  0  0  0  0  0  0  0
   15.5742  -18.7585   23.2650 O   0  0  0  0  0  0  0  0  0  0  0  0
  2  1  1  1
  2 13  1  0
  2  3  1  0
  4  3  1  0
  4  5  2  0
  6  5  1  0
  7  6  1  0
  8  7  2  0
  9  8  1  0
 10  9  2  0
 10 11  1  0
 11 12  2  0
 12  7  1  0
 12  4  1  0
 13 14  2  0
 15 16  1  0
 16 18  1  0
 17 16  2  0
 19 18  1  6
 20 19  1  0
 20 13  1  0
 21 22  2  0
 21 19  1  0
 23 21  1  0
 24 29  1  0
 24 23  1  0
 24 25  1  6
 26 25  1  0
 27 26  1  0
 27 28  2  0
 29 32  1  0
 30 29  2  0
 31 27  1  0
M  END
$$$$
