WNE.pdb
     RDKit          3D

 32 33  0  0  1  0  0  0  0  0999 V2000
    6.1002  -17.3897   23.3644 N   0  0  0  0  0  0  0  0  0  0  0  0
    6.7816  -16.0906   23.1636 C   0  0  1  0  0  0  0  0  0  0  0  0
    7.7266  -15.9635   24.2992 C   0  0  0  0  0  0  0  0  0  0  0  0
    7.2978  -15.2168   25.4670 C   0  0  0  0  0  0  0  0  0  0  0  0
    6.4637  -15.6752   26.4526 C   0  0  0  0  0  0  0  0  0  0  0  0
    6.2791  -14.7151   27.3583 N   0  0  0  0  0  0  0  0  0  0  0  0
    6.9716  -13.6261   26.9990 C   0  0  0  0  0  0  0  0  0  0  0  0
    7.0938  -12.3795   27.6184 C   0  0  0  0  0  0  0  0  0  0  0  0
    7.8768  -11.4006   27.0482 C   0  0  0  0  0  0  0  0  0  0  0  0
    8.5244  -11.6958   25.8616 C   0  0  0  0  0  0  0  0  0  0  0  0
    8.3981  -12.9285   25.2575 C   0  0  0  0  0  0  0  0  0  0  0  0
    7.6175  -13.9246   25.8126 C   0  0  0  0  0  0  0  0  0  0  0  0
    7.3406  -16.0960   21.8210 C   0  0  0  0  0  0  0  0  0  0  0  0
    7.7055  -17.2188   21.3292 O   0  0  0  0  0  0  0  0  0  0  0  0
    7.6887  -14.0120   16.5658 N   0  0  0  0  0  0  0  0  0  0  0  0
    8.5778  -13.7269   17.6278 C   0  0  0  0  0  0  0  0  0  0  0  0
    9.7706  -13.4709   17.3491 O   0  0  0  0  0  0  0  0  0  0  0  0
    8.1108  -13.7310   19.0286 C   0  0  0  0  0  0  0  0  0  0  0  0
    8.1113  -15.1555   19.6300 C   0  0  2  0  0  0  0  0  0  0  0  0
    7.5327  -14.9771   20.9665 N   0  0  0  0  0  0  0  0  0  0  0  0
    9.4715  -15.7046   19.6531 C   0  0  0  0  0  0  0  0  0  0  0  0
    9.8861  -16.4464   18.6953 O   0  0  0  0  0  0  0  0  0  0  0  0
   10.4183  -15.4855   20.6751 N   0  0  0  0  0  0  0  0  0  0  0  0
   11.7725  -16.0879   20.6699 C   0  0  1  0  0  0  0  0  0  0  0  0
   12.7802  -15.0652   20.2876 C   0  0  0  0  0  0  0  0  0  0  0  0
   12.8077  -14.8303   18.8076 C   0  0  0  0  0  0  0  0  0  0  0  0
   14.1581  -14.2550   18.4502 C   0  0  0  0  0  0  0  0  0  0  0  0
   14.9313  -13.9621   19.3899 O   0  0  0  0  0  0  0  0  0  0  0  0
   11.9994  -16.6042   22.0193 C   0  0  0  0  0  0  0  0  0  0  0  0
   13.0614  -17.2524   22.3392 O   0  0  0  0  0  0  0  0  0  0  0  0
   14.4602  -14.0863   17.1167 O   0  0  0  0  0  0  0  0  0  0  0  0
   11.0747  -16.4159   23.0295 O   0  0  0  0  0  0  0  0  0  0  0  0
  2  1  1  1
  2 13  1  0
  2  3  1  0
  4  3  1  0
  4  5  2  0
  6  5  1  0
  7  6  1  0
  8  7  2  0
  9  8  1  0
 10  9  2  0
 10 11  1  0
 11 12  2  0
 12  7  1  0
 12  4  1  0
 13 14  2  0
 15 16  1  0
 16 18  1  0
 17 16  2  0
 19 18  1  1
 20 19  1  0
 20 13  1  0
 21 22  2  0
 21 19  1  0
 23 21  1  0
 24 29  1  0
 24 23  1  0
 24 25  1  1
 26 25  1  0
 27 26  1  0
 27 28  2  0
 29 32  1  0
 30 29  2  0
 31 27  1  0
M  END
$$$$
