WNE.pdb
     RDKit          3D

 32 33  0  0  1  0  0  0  0  0999 V2000
    7.5797  -17.0124   23.1776 N   0  0  0  0  0  0  0  0  0  0  0  0
    8.5451  -15.8911   23.2310 C   0  0  1  0  0  0  0  0  0  0  0  0
    8.6975  -15.5728   24.6713 C   0  0  0  0  0  0  0  0  0  0  0  0
    7.5953  -14.9151   25.3479 C   0  0  0  0  0  0  0  0  0  0  0  0
    6.5419  -15.5393   25.9624 C   0  0  0  0  0  0  0  0  0  0  0  0
    5.7155  -14.6222   26.4647 N   0  0  0  0  0  0  0  0  0  0  0  0
    6.1944  -13.3996   26.1989 C   0  0  0  0  0  0  0  0  0  0  0  0
    5.6897  -12.1356   26.5156 C   0  0  0  0  0  0  0  0  0  0  0  0
    6.3724  -11.0042   26.1277 C   0  0  0  0  0  0  0  0  0  0  0  0
    7.5539  -11.1668   25.4262 C   0  0  0  0  0  0  0  0  0  0  0  0
    8.0443  -12.4178   25.1181 C   0  0  0  0  0  0  0  0  0  0  0  0
    7.3752  -13.5659   25.4976 C   0  0  0  0  0  0  0  0  0  0  0  0
    9.7346  -16.3067   22.5047 C   0  0  0  0  0  0  0  0  0  0  0  0
    9.9602  -17.5606   22.3934 O   0  0  0  0  0  0  0  0  0  0  0  0
   13.3006  -16.6177   18.4515 N   0  0  0  0  0  0  0  0  0  0  0  0
   13.2697  -15.4210   19.2041 C   0  0  0  0  0  0  0  0  0  0  0  0
   14.2783  -14.6806   19.1814 O   0  0  0  0  0  0  0  0  0  0  0  0
   12.0782  -15.0545   19.9958 C   0  0  0  0  0  0  0  0  0  0  0  0
   11.8280  -16.0507   21.1516 C   0  0  2  0  0  0  0  0  0  0  0  0
   10.6994  -15.4672   21.8855 N   0  0  0  0  0  0  0  0  0  0  0  0
   13.0363  -16.2057   21.9690 C   0  0  0  0  0  0  0  0  0  0  0  0
   14.1067  -16.6864   21.4568 O   0  0  0  0  0  0  0  0  0  0  0  0
   13.1445  -15.8591   23.3318 N   0  0  0  0  0  0  0  0  0  0  0  0
   14.2406  -16.3383   24.2068 C   0  0  1  0  0  0  0  0  0  0  0  0
   14.1786  -17.8175   24.3321 C   0  0  0  0  0  0  0  0  0  0  0  0
   14.1691  -18.2594   25.7641 C   0  0  0  0  0  0  0  0  0  0  0  0
   12.8525  -18.9503   26.0318 C   0  0  0  0  0  0  0  0  0  0  0  0
   12.1707  -18.5448   27.0001 O   0  0  0  0  0  0  0  0  0  0  0  0
   15.4879  -15.8919   23.5872 C   0  0  0  0  0  0  0  0  0  0  0  0
   15.6257  -15.7871   22.3143 O   0  0  0  0  0  0  0  0  0  0  0  0
   12.4791  -19.9821   25.1991 O   0  0  0  0  0  0  0  0  0  0  0  0
   16.5916  -15.5537   24.3479 O   0  0  0  0  0  0  0  0  0  0  0  0
  2  1  1  1
  2 13  1  0
  2  3  1  0
  4  3  1  0
  4  5  2  0
  6  5  1  0
  7  6  1  0
  8  7  2  0
  9  8  1  0
 10  9  2  0
 10 11  1  0
 11 12  2  0
 12  7  1  0
 12  4  1  0
 13 14  2  0
 15 16  1  0
 16 18  1  0
 17 16  2  0
 19 18  1  6
 20 19  1  0
 20 13  1  0
 21 22  2  0
 21 19  1  0
 23 21  1  0
 24 29  1  0
 24 23  1  0
 24 25  1  6
 26 25  1  0
 27 26  1  0
 27 28  2  0
 29 32  1  0
 30 29  2  0
 31 27  1  0
M  END
$$$$
