GGH.pdb
     RDKit          3D

 19 19  0  0  1  0  0  0  0  0999 V2000
    7.9654  -17.7357   18.2509 N   0  0  0  0  0  0  0  0  0  0  0  0
    9.2617  -17.1121   18.3409 C   0  0  0  0  0  0  0  0  0  0  0  0
    9.5391  -16.7254   19.7531 C   0  0  0  0  0  0  0  0  0  0  0  0
    8.6165  -16.7352   20.5926 O   0  0  0  0  0  0  0  0  0  0  0  0
   10.8605  -16.3566   20.0905 N   0  0  0  0  0  0  0  0  0  0  0  0
   11.1535  -15.8909   21.4322 C   0  0  0  0  0  0  0  0  0  0  0  0
   11.4296  -17.0715   22.2947 C   0  0  0  0  0  0  0  0  0  0  0  0
   11.4003  -18.2454   21.8296 O   0  0  0  0  0  0  0  0  0  0  0  0
   11.7359  -16.9188   23.6722 N   0  0  0  0  0  0  0  0  0  0  0  0
   12.0459  -18.0135   24.5500 C   0  0  1  0  0  0  0  0  0  0  0  0
   13.0971  -18.9343   24.0025 C   0  0  0  0  0  0  0  0  0  0  0  0
   13.3922  -20.0864   24.8477 C   0  0  0  0  0  0  0  0  0  0  0  0
   12.5104  -20.8190   25.5827 C   0  0  0  0  0  0  0  0  0  0  0  0
   13.1933  -21.7810   26.2082 N   0  0  0  0  0  0  0  0  0  0  0  0
   14.4999  -21.6859   25.8928 C   0  0  0  0  0  0  0  0  0  0  0  0
   14.5981  -20.6313   25.0508 N   0  0  0  0  0  0  0  0  0  0  0  0
   12.3317  -17.5687   25.9395 C   0  0  0  0  0  0  0  0  0  0  0  0
   11.9206  -18.3139   27.0377 O   0  0  0  0  0  0  0  0  0  0  0  0
   12.9532  -16.5077   26.2052 O   0  0  0  0  0  0  0  0  0  0  0  0
  2  1  1  0
  3  2  1  0
  4  3  2  0
  5  3  1  0
  6  5  1  0
  7  6  1  0
  7  8  2  0
  9 10  1  0
  9  7  1  0
 11 12  1  0
 10 11  1  6
 12 16  1  0
 13 14  1  0
 13 12  2  0
 14 15  1  0
 15 16  2  0
 17 10  1  0
 17 18  1  0
 19 17  2  0
M  END
$$$$
