GGH.pdb
     RDKit          3D

 19 19  0  0  1  0  0  0  0  0999 V2000
    8.3798  -12.6900   17.9490 N   0  0  0  0  0  0  0  0  0  0  0  0
    7.8424  -13.0937   19.2240 C   0  0  0  0  0  0  0  0  0  0  0  0
    7.9067  -14.5770   19.3522 C   0  0  0  0  0  0  0  0  0  0  0  0
    8.4212  -15.2575   18.4421 O   0  0  0  0  0  0  0  0  0  0  0  0
    7.3723  -15.1636   20.5211 N   0  0  0  0  0  0  0  0  0  0  0  0
    7.4657  -16.5984   20.7092 C   0  0  0  0  0  0  0  0  0  0  0  0
    8.7560  -16.9058   21.3835 C   0  0  0  0  0  0  0  0  0  0  0  0
    9.2134  -18.0826   21.4204 O   0  0  0  0  0  0  0  0  0  0  0  0
    9.5185  -15.8855   22.0096 N   0  0  0  0  0  0  0  0  0  0  0  0
   10.8296  -16.0895   22.5613 C   0  0  1  0  0  0  0  0  0  0  0  0
   11.7876  -14.9792   22.2418 C   0  0  0  0  0  0  0  0  0  0  0  0
   12.0566  -14.8027   20.8188 C   0  0  0  0  0  0  0  0  0  0  0  0
   11.4778  -13.9053   19.9738 C   0  0  0  0  0  0  0  0  0  0  0  0
   12.0083  -14.0785   18.7607 N   0  0  0  0  0  0  0  0  0  0  0  0
   12.9193  -15.0704   18.8033 C   0  0  0  0  0  0  0  0  0  0  0  0
   12.9315  -15.5024   20.0855 N   0  0  0  0  0  0  0  0  0  0  0  0
   10.7945  -16.4262   24.0089 C   0  0  0  0  0  0  0  0  0  0  0  0
   11.9422  -16.8104   24.6913 O   0  0  0  0  0  0  0  0  0  0  0  0
    9.7420  -16.3855   24.6966 O   0  0  0  0  0  0  0  0  0  0  0  0
  2  1  1  0
  3  2  1  0
  4  3  2  0
  5  3  1  0
  6  5  1  0
  7  6  1  0
  7  8  2  0
  9 10  1  0
  9  7  1  0
 11 12  1  0
 10 11  1  1
 12 16  1  0
 13 14  1  0
 13 12  2  0
 14 15  1  0
 15 16  2  0
 17 10  1  0
 17 18  1  0
 19 17  2  0
M  END
$$$$
