GGH.pdb
     RDKit          3D

 19 19  0  0  1  0  0  0  0  0999 V2000
    5.5391  -19.4569   20.6046 N   0  0  0  0  0  0  0  0  0  0  0  0
    5.7939  -18.9220   21.9185 C   0  0  0  0  0  0  0  0  0  0  0  0
    6.2392  -17.5041   21.8088 C   0  0  0  0  0  0  0  0  0  0  0  0
    5.4033  -16.5821   21.8932 O   0  0  0  0  0  0  0  0  0  0  0  0
    7.6159  -17.2567   21.6099 N   0  0  0  0  0  0  0  0  0  0  0  0
    8.0861  -15.8915   21.4762 C   0  0  0  0  0  0  0  0  0  0  0  0
    8.6126  -15.4397   22.7926 C   0  0  0  0  0  0  0  0  0  0  0  0
    9.2478  -14.3542   22.9080 O   0  0  0  0  0  0  0  0  0  0  0  0
    8.4188  -16.2146   23.9659 N   0  0  0  0  0  0  0  0  0  0  0  0
    8.9781  -15.8818   25.2471 C   0  0  1  0  0  0  0  0  0  0  0  0
    7.9419  -15.5294   26.2740 C   0  0  0  0  0  0  0  0  0  0  0  0
    7.4160  -14.1731   26.1624 C   0  0  0  0  0  0  0  0  0  0  0  0
    7.8077  -13.2046   25.2888 C   0  0  0  0  0  0  0  0  0  0  0  0
    7.0723  -12.1149   25.5234 N   0  0  0  0  0  0  0  0  0  0  0  0
    6.2122  -12.3586   26.5315 C   0  0  0  0  0  0  0  0  0  0  0  0
    6.4433  -13.6369   26.9101 N   0  0  0  0  0  0  0  0  0  0  0  0
    9.9488  -16.8997   25.7288 C   0  0  0  0  0  0  0  0  0  0  0  0
   10.2560  -18.0232   24.9713 O   0  0  0  0  0  0  0  0  0  0  0  0
   10.5437  -16.8105   26.8336 O   0  0  0  0  0  0  0  0  0  0  0  0
  2  1  1  0
  3  2  1  0
  4  3  2  0
  5  3  1  0
  6  5  1  0
  7  6  1  0
  7  8  2  0
  9 10  1  0
  9  7  1  0
 11 12  1  0
 10 11  1  1
 12 16  1  0
 13 14  1  0
 13 12  2  0
 14 15  1  0
 15 16  2  0
 17 10  1  0
 17 18  1  0
 19 17  2  0
M  END
$$$$
