GGH.pdb
     RDKit          3D

 19 19  0  0  1  0  0  0  0  0999 V2000
    8.6905  -17.6237   15.3396 N   0  0  0  0  0  0  0  0  0  0  0  0
    8.9352  -16.5170   16.2299 C   0  0  0  0  0  0  0  0  0  0  0  0
    8.8504  -16.9785   17.6443 C   0  0  0  0  0  0  0  0  0  0  0  0
    7.7406  -17.0480   18.2097 O   0  0  0  0  0  0  0  0  0  0  0  0
   10.0527  -17.3253   18.3002 N   0  0  0  0  0  0  0  0  0  0  0  0
   10.0096  -17.8061   19.6676 C   0  0  0  0  0  0  0  0  0  0  0  0
   10.1777  -16.6460   20.5842 C   0  0  0  0  0  0  0  0  0  0  0  0
   11.0155  -15.7328   20.3404 O   0  0  0  0  0  0  0  0  0  0  0  0
    9.4011  -16.5256   21.7661 N   0  0  0  0  0  0  0  0  0  0  0  0
    9.4831  -15.4101   22.6683 C   0  0  1  0  0  0  0  0  0  0  0  0
    8.2426  -14.5656   22.6827 C   0  0  0  0  0  0  0  0  0  0  0  0
    7.8109  -14.1019   21.3685 C   0  0  0  0  0  0  0  0  0  0  0  0
    8.1106  -12.9150   20.7719 C   0  0  0  0  0  0  0  0  0  0  0  0
    7.5155  -12.8916   19.5767 N   0  0  0  0  0  0  0  0  0  0  0  0
    6.8363  -14.0398   19.3875 C   0  0  0  0  0  0  0  0  0  0  0  0
    7.0338  -14.7717   20.5082 N   0  0  0  0  0  0  0  0  0  0  0  0
    9.9295  -15.8077   24.0296 C   0  0  0  0  0  0  0  0  0  0  0  0
   10.2866  -14.8597   24.9805 O   0  0  0  0  0  0  0  0  0  0  0  0
   10.0110  -17.0067   24.4011 O   0  0  0  0  0  0  0  0  0  0  0  0
  2  1  1  0
  3  2  1  0
  4  3  2  0
  5  3  1  0
  6  5  1  0
  7  6  1  0
  7  8  2  0
  9 10  1  0
  9  7  1  0
 11 12  1  0
 10 11  1  1
 12 16  1  0
 13 14  1  0
 13 12  2  0
 14 15  1  0
 15 16  2  0
 17 10  1  0
 17 18  1  0
 19 17  2  0
M  END
$$$$
