GGH.pdb
     RDKit          3D

 19 19  0  0  1  0  0  0  0  0999 V2000
   12.2276  -18.8515   15.3119 N   0  0  0  0  0  0  0  0  0  0  0  0
   11.7422  -17.7399   16.0905 C   0  0  0  0  0  0  0  0  0  0  0  0
   11.1669  -18.2347   17.3730 C   0  0  0  0  0  0  0  0  0  0  0  0
   11.1774  -19.4556   17.6286 O   0  0  0  0  0  0  0  0  0  0  0  0
   10.6228  -17.2833   18.2645 N   0  0  0  0  0  0  0  0  0  0  0  0
   10.1736  -17.7064   19.5767 C   0  0  0  0  0  0  0  0  0  0  0  0
   10.3080  -16.5608   20.5167 C   0  0  0  0  0  0  0  0  0  0  0  0
   11.2171  -15.6960   20.3719 O   0  0  0  0  0  0  0  0  0  0  0  0
    9.4177  -16.4001   21.6104 N   0  0  0  0  0  0  0  0  0  0  0  0
    9.4508  -15.2821   22.5126 C   0  0  1  0  0  0  0  0  0  0  0  0
    8.2529  -14.3860   22.3919 C   0  0  0  0  0  0  0  0  0  0  0  0
    7.9436  -13.9695   21.0283 C   0  0  0  0  0  0  0  0  0  0  0  0
    8.2906  -12.8001   20.4231 C   0  0  0  0  0  0  0  0  0  0  0  0
    7.8102  -12.8212   19.1773 N   0  0  0  0  0  0  0  0  0  0  0  0
    7.1589  -13.9813   18.9638 C   0  0  0  0  0  0  0  0  0  0  0  0
    7.2548  -14.6743   20.1219 N   0  0  0  0  0  0  0  0  0  0  0  0
    9.7324  -15.6875   23.9150 C   0  0  0  0  0  0  0  0  0  0  0  0
   10.0539  -14.7505   24.8892 O   0  0  0  0  0  0  0  0  0  0  0  0
    9.6983  -16.8838   24.3025 O   0  0  0  0  0  0  0  0  0  0  0  0
  2  1  1  0
  3  2  1  0
  4  3  2  0
  5  3  1  0
  6  5  1  0
  7  6  1  0
  7  8  2  0
  9 10  1  0
  9  7  1  0
 11 12  1  0
 10 11  1  1
 12 16  1  0
 13 14  1  0
 13 12  2  0
 14 15  1  0
 15 16  2  0
 17 10  1  0
 17 18  1  0
 19 17  2  0
M  END
$$$$
