GGH.pdb
     RDKit          3D

 19 19  0  0  1  0  0  0  0  0999 V2000
   12.0040  -16.5048   14.3146 N   0  0  0  0  0  0  0  0  0  0  0  0
   11.1995  -17.6209   14.7443 C   0  0  0  0  0  0  0  0  0  0  0  0
   10.6997  -17.3802   16.1274 C   0  0  0  0  0  0  0  0  0  0  0  0
    9.6127  -16.7937   16.3020 O   0  0  0  0  0  0  0  0  0  0  0  0
   11.4919  -17.8346   17.2054 N   0  0  0  0  0  0  0  0  0  0  0  0
   10.8596  -18.1743   18.4654 C   0  0  0  0  0  0  0  0  0  0  0  0
   10.8015  -16.9521   19.3121 C   0  0  0  0  0  0  0  0  0  0  0  0
   11.7704  -16.1437   19.3651 O   0  0  0  0  0  0  0  0  0  0  0  0
    9.6533  -16.6523   20.0908 N   0  0  0  0  0  0  0  0  0  0  0  0
    9.5669  -15.5384   20.9945 C   0  0  1  0  0  0  0  0  0  0  0  0
    8.3659  -14.6709   20.7545 C   0  0  0  0  0  0  0  0  0  0  0  0
    8.2385  -14.1788   19.3869 C   0  0  0  0  0  0  0  0  0  0  0  0
    8.6822  -12.9903   18.8920 C   0  0  0  0  0  0  0  0  0  0  0  0
    8.3613  -12.9365   17.5969 N   0  0  0  0  0  0  0  0  0  0  0  0
    7.7185  -14.0667   17.2433 C   0  0  0  0  0  0  0  0  0  0  0  0
    7.6546  -14.8190   18.3662 N   0  0  0  0  0  0  0  0  0  0  0  0
    9.7139  -15.9439   22.4173 C   0  0  0  0  0  0  0  0  0  0  0  0
    9.9385  -15.0068   23.4181 O   0  0  0  0  0  0  0  0  0  0  0  0
    9.6454  -17.1405   22.7994 O   0  0  0  0  0  0  0  0  0  0  0  0
  2  1  1  0
  3  2  1  0
  4  3  2  0
  5  3  1  0
  6  5  1  0
  7  6  1  0
  7  8  2  0
  9 10  1  0
  9  7  1  0
 11 12  1  0
 10 11  1  1
 12 16  1  0
 13 14  1  0
 13 12  2  0
 14 15  1  0
 15 16  2  0
 17 10  1  0
 17 18  1  0
 19 17  2  0
M  END
$$$$
