GGH.pdb
     RDKit          3D

 19 19  0  0  1  0  0  0  0  0999 V2000
    7.8641  -17.6628   19.4582 N   0  0  0  0  0  0  0  0  0  0  0  0
    6.4333  -17.5070   19.5352 C   0  0  0  0  0  0  0  0  0  0  0  0
    6.0267  -17.2692   20.9491 C   0  0  0  0  0  0  0  0  0  0  0  0
    6.5036  -16.3037   21.5787 O   0  0  0  0  0  0  0  0  0  0  0  0
    5.1002  -18.1635   21.5302 N   0  0  0  0  0  0  0  0  0  0  0  0
    4.6057  -17.9119   22.8700 C   0  0  0  0  0  0  0  0  0  0  0  0
    5.5556  -18.5103   23.8466 C   0  0  0  0  0  0  0  0  0  0  0  0
    5.1546  -19.2764   24.7673 O   0  0  0  0  0  0  0  0  0  0  0  0
    6.9473  -18.2404   23.7771 N   0  0  0  0  0  0  0  0  0  0  0  0
    7.9139  -18.7750   24.6962 C   0  0  1  0  0  0  0  0  0  0  0  0
    9.2738  -18.9577   24.0881 C   0  0  0  0  0  0  0  0  0  0  0  0
    9.3135  -19.8838   22.9614 C   0  0  0  0  0  0  0  0  0  0  0  0
    8.3379  -20.7487   22.5684 C   0  0  0  0  0  0  0  0  0  0  0  0
    8.7796  -21.4098   21.4956 N   0  0  0  0  0  0  0  0  0  0  0  0
   10.0220  -20.9901   21.1860 C   0  0  0  0  0  0  0  0  0  0  0  0
   10.3304  -20.0470   22.1060 N   0  0  0  0  0  0  0  0  0  0  0  0
    7.9497  -18.0329   25.9839 C   0  0  0  0  0  0  0  0  0  0  0  0
    8.5852  -18.5553   27.1036 O   0  0  0  0  0  0  0  0  0  0  0  0
    7.4163  -16.9043   26.1395 O   0  0  0  0  0  0  0  0  0  0  0  0
  2  1  1  0
  3  2  1  0
  4  3  2  0
  5  3  1  0
  6  5  1  0
  7  6  1  0
  7  8  2  0
  9 10  1  0
  9  7  1  0
 11 12  1  0
 10 11  1  6
 12 16  1  0
 13 14  1  0
 13 12  2  0
 14 15  1  0
 15 16  2  0
 17 10  1  0
 17 18  1  0
 19 17  2  0
M  END
$$$$
