GGH.pdb
     RDKit          3D

 19 19  0  0  1  0  0  0  0  0999 V2000
    5.9867  -21.0607   22.6666 N   0  0  0  0  0  0  0  0  0  0  0  0
    6.5075  -20.1544   23.6590 C   0  0  0  0  0  0  0  0  0  0  0  0
    7.5500  -19.2819   23.0487 C   0  0  0  0  0  0  0  0  0  0  0  0
    8.7148  -19.3005   23.4948 O   0  0  0  0  0  0  0  0  0  0  0  0
    7.1701  -18.4534   21.9692 N   0  0  0  0  0  0  0  0  0  0  0  0
    8.1548  -17.5876   21.3499 C   0  0  0  0  0  0  0  0  0  0  0  0
    8.3833  -16.4165   22.2390 C   0  0  0  0  0  0  0  0  0  0  0  0
    9.3681  -15.6445   22.0676 O   0  0  0  0  0  0  0  0  0  0  0  0
    7.5009  -16.1262   23.3122 N   0  0  0  0  0  0  0  0  0  0  0  0
    7.6940  -15.0440   24.2376 C   0  0  1  0  0  0  0  0  0  0  0  0
    6.4766  -14.7439   25.0626 C   0  0  0  0  0  0  0  0  0  0  0  0
    6.5860  -13.5468   25.8895 C   0  0  0  0  0  0  0  0  0  0  0  0
    7.6479  -12.6991   25.9791 C   0  0  0  0  0  0  0  0  0  0  0  0
    7.3344  -11.7347   26.8480 N   0  0  0  0  0  0  0  0  0  0  0  0
    6.0904  -11.9412   27.3227 C   0  0  0  0  0  0  0  0  0  0  0  0
    5.6483  -13.0668   26.7159 N   0  0  0  0  0  0  0  0  0  0  0  0
    8.9240  -15.2051   25.0569 C   0  0  0  0  0  0  0  0  0  0  0  0
    9.5608  -16.4345   25.1737 O   0  0  0  0  0  0  0  0  0  0  0  0
    9.4578  -14.2553   25.6858 O   0  0  0  0  0  0  0  0  0  0  0  0
  2  1  1  0
  3  2  1  0
  4  3  2  0
  5  3  1  0
  6  5  1  0
  7  6  1  0
  7  8  2  0
  9 10  1  0
  9  7  1  0
 11 12  1  0
 10 11  1  1
 12 16  1  0
 13 14  1  0
 13 12  2  0
 14 15  1  0
 15 16  2  0
 17 10  1  0
 17 18  1  0
 19 17  2  0
M  END
$$$$
