GGH.pdb
     RDKit          3D

 19 19  0  0  1  0  0  0  0  0999 V2000
    8.0804  -13.2167   16.9814 N   0  0  0  0  0  0  0  0  0  0  0  0
    8.3837  -13.0375   18.3790 C   0  0  0  0  0  0  0  0  0  0  0  0
    8.4449  -14.3634   19.0565 C   0  0  0  0  0  0  0  0  0  0  0  0
    9.2111  -15.2475   18.6236 O   0  0  0  0  0  0  0  0  0  0  0  0
    7.6173  -14.5695   20.1828 N   0  0  0  0  0  0  0  0  0  0  0  0
    7.7176  -15.8096   20.9277 C   0  0  0  0  0  0  0  0  0  0  0  0
    8.6116  -15.5901   22.0968 C   0  0  0  0  0  0  0  0  0  0  0  0
    9.7551  -15.0713   21.9604 O   0  0  0  0  0  0  0  0  0  0  0  0
    8.2095  -15.9569   23.4077 N   0  0  0  0  0  0  0  0  0  0  0  0
    9.0243  -15.7717   24.5768 C   0  0  1  0  0  0  0  0  0  0  0  0
    8.2288  -15.4696   25.8131 C   0  0  0  0  0  0  0  0  0  0  0  0
    7.4573  -14.2329   25.7492 C   0  0  0  0  0  0  0  0  0  0  0  0
    7.4974  -13.2839   24.7733 C   0  0  0  0  0  0  0  0  0  0  0  0
    6.6366  -12.3172   25.1017 N   0  0  0  0  0  0  0  0  0  0  0  0
    6.0400  -12.6215   26.2709 C   0  0  0  0  0  0  0  0  0  0  0  0
    6.5633  -13.8097   26.6515 N   0  0  0  0  0  0  0  0  0  0  0  0
   10.0027  -16.8739   24.7720 C   0  0  0  0  0  0  0  0  0  0  0  0
   10.9922  -16.8003   25.7446 O   0  0  0  0  0  0  0  0  0  0  0  0
    9.9975  -17.9252   24.0812 O   0  0  0  0  0  0  0  0  0  0  0  0
  2  1  1  0
  3  2  1  0
  4  3  2  0
  5  3  1  0
  6  5  1  0
  7  6  1  0
  7  8  2  0
  9 10  1  0
  9  7  1  0
 11 12  1  0
 10 11  1  1
 12 16  1  0
 13 14  1  0
 13 12  2  0
 14 15  1  0
 15 16  2  0
 17 10  1  0
 17 18  1  0
 19 17  2  0
M  END
$$$$
