GGH.pdb
     RDKit          3D

 19 19  0  0  1  0  0  0  0  0999 V2000
   10.8097  -19.7113   17.1841 N   0  0  0  0  0  0  0  0  0  0  0  0
   10.6243  -18.3139   16.8834 C   0  0  0  0  0  0  0  0  0  0  0  0
   11.8025  -17.5347   17.3582 C   0  0  0  0  0  0  0  0  0  0  0  0
   12.7109  -18.1070   17.9933 O   0  0  0  0  0  0  0  0  0  0  0  0
   11.8438  -16.1534   17.0645 N   0  0  0  0  0  0  0  0  0  0  0  0
   12.9686  -15.3582   17.5178 C   0  0  0  0  0  0  0  0  0  0  0  0
   12.6813  -14.8707   18.8941 C   0  0  0  0  0  0  0  0  0  0  0  0
   13.3661  -13.9491   19.4203 O   0  0  0  0  0  0  0  0  0  0  0  0
   11.6259  -15.4255   19.6641 N   0  0  0  0  0  0  0  0  0  0  0  0
   11.3052  -15.0087   21.0014 C   0  0  1  0  0  0  0  0  0  0  0  0
    9.8320  -14.8405   21.2337 C   0  0  0  0  0  0  0  0  0  0  0  0
    9.1436  -14.0591   20.2119 C   0  0  0  0  0  0  0  0  0  0  0  0
    9.6965  -13.4457   19.1291 C   0  0  0  0  0  0  0  0  0  0  0  0
    8.7172  -12.8402   18.4526 N   0  0  0  0  0  0  0  0  0  0  0  0
    7.5411  -13.0494   19.0760 C   0  0  0  0  0  0  0  0  0  0  0  0
    7.8300  -13.8051   20.1605 N   0  0  0  0  0  0  0  0  0  0  0  0
   11.9627  -15.8503   22.0356 C   0  0  0  0  0  0  0  0  0  0  0  0
   11.9198  -15.5092   23.3818 O   0  0  0  0  0  0  0  0  0  0  0  0
   12.5890  -16.9067   21.7629 O   0  0  0  0  0  0  0  0  0  0  0  0
  2  1  1  0
  3  2  1  0
  4  3  2  0
  5  3  1  0
  6  5  1  0
  7  6  1  0
  7  8  2  0
  9 10  1  0
  9  7  1  0
 11 12  1  0
 10 11  1  1
 12 16  1  0
 13 14  1  0
 13 12  2  0
 14 15  1  0
 15 16  2  0
 17 10  1  0
 17 18  1  0
 19 17  2  0
M  END
$$$$
