VQD.pdb
     RDKit          3D

 25 24  0  0  1  0  0  0  0  0999 V2000
   16.3255  -11.1782  -11.3421 C   0  0  0  0  0  0  0  0  0  0  0  0
   14.8714  -11.4208  -10.9883 C   0  0  1  0  0  0  0  0  0  0  0  0
   14.6056  -12.8766  -10.6557 C   0  0  0  0  0  0  0  0  0  0  0  0
   14.5232  -10.6198   -9.7520 C   0  0  2  0  0  0  0  0  0  0  0  0
   13.1592  -10.8869   -9.3940 N   0  0  0  0  0  0  0  0  0  0  0  0
   14.6918   -9.1662   -9.9819 C   0  0  0  0  0  0  0  0  0  0  0  0
   14.0148   -8.6817  -10.9194 O   0  0  0  0  0  0  0  0  0  0  0  0
   14.4559   -4.0223   -6.7253 N   0  0  0  0  0  0  0  0  0  0  0  0
   13.5873   -4.9967   -7.2798 C   0  0  0  0  0  0  0  0  0  0  0  0
   12.3771   -4.9671   -6.9761 O   0  0  0  0  0  0  0  0  0  0  0  0
   14.0619   -6.0647   -8.2242 C   0  0  0  0  0  0  0  0  0  0  0  0
   15.5582   -6.0414   -8.3710 C   0  0  0  0  0  0  0  0  0  0  0  0
   15.9727   -7.0261   -9.4449 C   0  0  2  0  0  0  0  0  0  0  0  0
   15.5583   -8.3888   -9.1932 N   0  0  0  0  0  0  0  0  0  0  0  0
   17.3090   -6.8623   -9.9765 C   0  0  0  0  0  0  0  0  0  0  0  0
   18.3271   -7.0367   -9.2169 O   0  0  0  0  0  0  0  0  0  0  0  0
   17.6387   -6.5123  -11.3128 N   0  0  0  0  0  0  0  0  0  0  0  0
   19.0137   -6.4035  -11.7727 C   0  0  1  0  0  0  0  0  0  0  0  0
   19.4579   -7.7399  -12.3062 C   0  0  0  0  0  0  0  0  0  0  0  0
   20.8079   -7.7414  -12.8703 C   0  0  0  0  0  0  0  0  0  0  0  0
   21.5638   -6.7753  -12.5287 O   0  0  0  0  0  0  0  0  0  0  0  0
   19.2307   -5.3156  -12.7118 C   0  0  0  0  0  0  0  0  0  0  0  0
   18.1750   -4.6125  -13.2434 O   0  0  0  0  0  0  0  0  0  0  0  0
   21.3464   -8.6645  -13.7226 O   0  0  0  0  0  0  0  0  0  0  0  0
   20.3877   -5.0033  -13.0503 O   0  0  0  0  0  0  0  0  0  0  0  0
  2  1  1  1
  2  3  1  0
  4  2  1  0
  4  6  1  0
  4  5  1  6
  6 14  1  0
  7  6  2  0
  9 11  1  0
  9  8  1  0
 10  9  2  0
 12 11  1  0
 13 12  1  1
 14 13  1  0
 15 13  1  0
 15 17  1  0
 16 15  2  0
 18 17  1  0
 18 19  1  6
 20 21  2  0
 20 19  1  0
 22 23  1  0
 22 18  1  0
 24 20  1  0
 25 22  2  0
M  END
$$$$
