VQD.pdb
     RDKit          3D

 25 24  0  0  1  0  0  0  0  0999 V2000
   20.0446  -13.1373  -17.4999 C   0  0  0  0  0  0  0  0  0  0  0  0
   18.6856  -12.7925  -16.9230 C   0  0  1  0  0  0  0  0  0  0  0  0
   18.0275  -13.9930  -16.2698 C   0  0  0  0  0  0  0  0  0  0  0  0
   18.8584  -11.7472  -15.8419 C   0  0  2  0  0  0  0  0  0  0  0  0
   17.5956  -11.5369  -15.1927 N   0  0  0  0  0  0  0  0  0  0  0  0
   19.3396  -10.4627  -16.4010 C   0  0  0  0  0  0  0  0  0  0  0  0
   20.4771  -10.4909  -16.9275 O   0  0  0  0  0  0  0  0  0  0  0  0
   16.8932   -8.4925  -20.4807 N   0  0  0  0  0  0  0  0  0  0  0  0
   16.1830   -7.9503  -19.3794 C   0  0  0  0  0  0  0  0  0  0  0  0
   14.9451   -7.8177  -19.4675 O   0  0  0  0  0  0  0  0  0  0  0  0
   16.8583   -7.5307  -18.1043 C   0  0  0  0  0  0  0  0  0  0  0  0
   18.3527   -7.6622  -18.2064 C   0  0  0  0  0  0  0  0  0  0  0  0
   18.9229   -7.9843  -16.8404 C   0  0  2  0  0  0  0  0  0  0  0  0
   18.5625   -9.2925  -16.3397 N   0  0  0  0  0  0  0  0  0  0  0  0
   18.8971   -6.9099  -15.8709 C   0  0  0  0  0  0  0  0  0  0  0  0
   17.9407   -6.8369  -15.0200 O   0  0  0  0  0  0  0  0  0  0  0  0
   19.8600   -5.8732  -15.7478 N   0  0  0  0  0  0  0  0  0  0  0  0
   19.7485   -4.8212  -14.7504 C   0  0  1  0  0  0  0  0  0  0  0  0
   21.1156   -4.2440  -14.4937 C   0  0  0  0  0  0  0  0  0  0  0  0
   22.0023   -5.1206  -13.7282 C   0  0  0  0  0  0  0  0  0  0  0  0
   21.4786   -6.1812  -13.2566 O   0  0  0  0  0  0  0  0  0  0  0  0
   18.7564   -3.8104  -15.0767 C   0  0  0  0  0  0  0  0  0  0  0  0
   18.2351   -2.9854  -14.1077 O   0  0  0  0  0  0  0  0  0  0  0  0
   23.3293   -4.9267  -13.4638 O   0  0  0  0  0  0  0  0  0  0  0  0
   18.3618   -3.6776  -16.2504 O   0  0  0  0  0  0  0  0  0  0  0  0
  2  1  1  1
  2  3  1  0
  4  2  1  0
  4  6  1  0
  4  5  1  6
  6 14  1  0
  7  6  2  0
  9 11  1  0
  9  8  1  0
 10  9  2  0
 12 11  1  0
 13 12  1  6
 14 13  1  0
 15 13  1  0
 15 17  1  0
 16 15  2  0
 18 17  1  0
 18 19  1  6
 20 21  2  0
 20 19  1  0
 22 23  1  0
 22 18  1  0
 24 20  1  0
 25 22  2  0
M  END
$$$$
