VQD.pdb
     RDKit          3D

 25 24  0  0  1  0  0  0  0  0999 V2000
   15.6238  -10.9131  -18.3052 C   0  0  0  0  0  0  0  0  0  0  0  0
   15.3329  -12.0414  -17.3353 C   0  0  1  0  0  0  0  0  0  0  0  0
   14.5970  -13.1866  -18.0045 C   0  0  0  0  0  0  0  0  0  0  0  0
   16.6420  -12.6033  -16.8237 C   0  0  2  0  0  0  0  0  0  0  0  0
   16.3646  -13.7174  -15.9623 N   0  0  0  0  0  0  0  0  0  0  0  0
   17.4127  -11.5855  -16.0724 C   0  0  0  0  0  0  0  0  0  0  0  0
   16.7626  -10.9254  -15.2276 O   0  0  0  0  0  0  0  0  0  0  0  0
   23.7349  -11.5245  -14.7787 N   0  0  0  0  0  0  0  0  0  0  0  0
   23.2273  -10.2613  -14.3810 C   0  0  0  0  0  0  0  0  0  0  0  0
   23.9746   -9.4822  -13.7547 O   0  0  0  0  0  0  0  0  0  0  0  0
   21.8247   -9.8169  -14.6858 C   0  0  0  0  0  0  0  0  0  0  0  0
   21.0437  -10.9009  -15.3758 C   0  0  0  0  0  0  0  0  0  0  0  0
   19.6371  -10.4098  -15.6497 C   0  0  2  0  0  0  0  0  0  0  0  0
   18.7850  -11.3809  -16.3000 N   0  0  0  0  0  0  0  0  0  0  0  0
   19.5205   -9.0488  -16.1286 C   0  0  0  0  0  0  0  0  0  0  0  0
   19.7247   -8.7850  -17.3666 O   0  0  0  0  0  0  0  0  0  0  0  0
   19.1884   -7.9131  -15.3432 N   0  0  0  0  0  0  0  0  0  0  0  0
   19.1257   -6.5719  -15.9010 C   0  0  1  0  0  0  0  0  0  0  0  0
   17.8409   -5.9197  -15.4628 C   0  0  0  0  0  0  0  0  0  0  0  0
   17.6844   -4.5382  -15.9183 C   0  0  0  0  0  0  0  0  0  0  0  0
   18.4959   -4.1444  -16.8171 O   0  0  0  0  0  0  0  0  0  0  0  0
   20.3000   -5.7649  -15.6140 C   0  0  0  0  0  0  0  0  0  0  0  0
   20.6532   -4.7091  -16.4214 O   0  0  0  0  0  0  0  0  0  0  0  0
   16.7642   -3.6247  -15.4856 O   0  0  0  0  0  0  0  0  0  0  0  0
   21.0084   -6.0223  -14.6226 O   0  0  0  0  0  0  0  0  0  0  0  0
  2  1  1  6
  2  3  1  0
  4  2  1  0
  4  6  1  0
  4  5  1  1
  6 14  1  0
  7  6  2  0
  9 11  1  0
  9  8  1  0
 10  9  2  0
 12 11  1  0
 13 12  1  6
 14 13  1  0
 15 13  1  0
 15 17  1  0
 16 15  2  0
 18 17  1  0
 18 19  1  1
 20 21  2  0
 20 19  1  0
 22 23  1  0
 22 18  1  0
 24 20  1  0
 25 22  2  0
M  END
$$$$
