VQD.pdb
     RDKit          3D

 25 24  0  0  1  0  0  0  0  0999 V2000
   18.1140  -13.6961  -16.0651 C   0  0  0  0  0  0  0  0  0  0  0  0
   17.4811  -12.3906  -16.5051 C   0  0  1  0  0  0  0  0  0  0  0  0
   16.0692  -12.2388  -15.9719 C   0  0  0  0  0  0  0  0  0  0  0  0
   18.2859  -11.2376  -15.9448 C   0  0  2  0  0  0  0  0  0  0  0  0
   18.4276  -11.4150  -14.5275 N   0  0  0  0  0  0  0  0  0  0  0  0
   17.6283   -9.9371  -16.2105 C   0  0  0  0  0  0  0  0  0  0  0  0
   17.5082   -9.6253  -17.4189 O   0  0  0  0  0  0  0  0  0  0  0  0
   12.9237   -7.2948  -12.9392 N   0  0  0  0  0  0  0  0  0  0  0  0
   12.8695   -7.9200  -14.2111 C   0  0  0  0  0  0  0  0  0  0  0  0
   11.7675   -8.3205  -14.6388 O   0  0  0  0  0  0  0  0  0  0  0  0
   14.0855   -8.1182  -15.0714 C   0  0  0  0  0  0  0  0  0  0  0  0
   15.3309   -7.6372  -14.3796 C   0  0  0  0  0  0  0  0  0  0  0  0
   16.5207   -7.8279  -15.2975 C   0  0  2  0  0  0  0  0  0  0  0  0
   17.1717   -9.1129  -15.1668 N   0  0  0  0  0  0  0  0  0  0  0  0
   17.4008   -6.6880  -15.4432 C   0  0  0  0  0  0  0  0  0  0  0  0
   18.2473   -6.4094  -14.5214 O   0  0  0  0  0  0  0  0  0  0  0  0
   17.4358   -5.7964  -16.5481 N   0  0  0  0  0  0  0  0  0  0  0  0
   18.3379   -4.6574  -16.6014 C   0  0  1  0  0  0  0  0  0  0  0  0
   18.6499   -4.3477  -18.0417 C   0  0  0  0  0  0  0  0  0  0  0  0
   19.4918   -3.1663  -18.2320 C   0  0  0  0  0  0  0  0  0  0  0  0
   18.8835   -2.0597  -18.3957 O   0  0  0  0  0  0  0  0  0  0  0  0
   17.8619   -3.5007  -15.8611 C   0  0  0  0  0  0  0  0  0  0  0  0
   16.6627   -3.5300  -15.1882 O   0  0  0  0  0  0  0  0  0  0  0  0
   20.8578   -3.1198  -18.2534 O   0  0  0  0  0  0  0  0  0  0  0  0
   18.5412   -2.4576  -15.8265 O   0  0  0  0  0  0  0  0  0  0  0  0
  2  1  1  1
  2  3  1  0
  4  2  1  0
  4  6  1  0
  4  5  1  1
  6 14  1  0
  7  6  2  0
  9 11  1  0
  9  8  1  0
 10  9  2  0
 12 11  1  0
 13 12  1  1
 14 13  1  0
 15 13  1  0
 15 17  1  0
 16 15  2  0
 18 17  1  0
 18 19  1  6
 20 21  2  0
 20 19  1  0
 22 23  1  0
 22 18  1  0
 24 20  1  0
 25 22  2  0
M  END
$$$$
