VQD.pdb
     RDKit          3D

 25 24  0  0  1  0  0  0  0  0999 V2000
   16.6217  -12.7169  -10.7268 C   0  0  0  0  0  0  0  0  0  0  0  0
   16.5701  -11.2127  -10.9086 C   0  0  1  0  0  0  0  0  0  0  0  0
   16.2837  -10.8265  -12.3472 C   0  0  0  0  0  0  0  0  0  0  0  0
   15.4395  -10.6523  -10.0727 C   0  0  2  0  0  0  0  0  0  0  0  0
   14.2326  -11.3628  -10.3870 N   0  0  0  0  0  0  0  0  0  0  0  0
   15.2370   -9.2079  -10.3321 C   0  0  0  0  0  0  0  0  0  0  0  0
   14.3445   -8.9251  -11.1659 O   0  0  0  0  0  0  0  0  0  0  0  0
   13.5442   -4.4133   -7.5152 N   0  0  0  0  0  0  0  0  0  0  0  0
   13.8443   -5.7558   -7.1702 C   0  0  0  0  0  0  0  0  0  0  0  0
   13.3816   -6.2227   -6.1092 O   0  0  0  0  0  0  0  0  0  0  0  0
   14.6951   -6.6453   -8.0320 C   0  0  0  0  0  0  0  0  0  0  0  0
   15.2161   -5.9081   -9.2345 C   0  0  0  0  0  0  0  0  0  0  0  0
   16.1103   -6.8287  -10.0393 C   0  0  2  0  0  0  0  0  0  0  0  0
   16.0024   -8.2254   -9.6795 N   0  0  0  0  0  0  0  0  0  0  0  0
   17.4503   -6.3469  -10.2989 C   0  0  0  0  0  0  0  0  0  0  0  0
   18.3480   -6.4261   -9.3869 O   0  0  0  0  0  0  0  0  0  0  0  0
   17.9084   -5.7663  -11.5114 N   0  0  0  0  0  0  0  0  0  0  0  0
   19.3024   -5.4152  -11.7287 C   0  0  1  0  0  0  0  0  0  0  0  0
   20.0661   -6.6568  -12.1072 C   0  0  0  0  0  0  0  0  0  0  0  0
   21.4481   -6.4084  -12.5182 C   0  0  0  0  0  0  0  0  0  0  0  0
   22.1333   -5.6450  -11.7637 O   0  0  0  0  0  0  0  0  0  0  0  0
   19.4894   -4.3234  -12.6697 C   0  0  0  0  0  0  0  0  0  0  0  0
   20.6923   -3.6635  -12.7650 O   0  0  0  0  0  0  0  0  0  0  0  0
   22.0840   -6.9049  -13.6216 O   0  0  0  0  0  0  0  0  0  0  0  0
   18.5526   -3.9681  -13.4093 O   0  0  0  0  0  0  0  0  0  0  0  0
  2  1  1  6
  2  3  1  0
  4  2  1  0
  4  6  1  0
  4  5  1  6
  6 14  1  0
  7  6  2  0
  9 11  1  0
  9  8  1  0
 10  9  2  0
 12 11  1  0
 13 12  1  1
 14 13  1  0
 15 13  1  0
 15 17  1  0
 16 15  2  0
 18 17  1  0
 18 19  1  6
 20 21  2  0
 20 19  1  0
 22 23  1  0
 22 18  1  0
 24 20  1  0
 25 22  2  0
M  END
$$$$
