VQD.pdb
     RDKit          3D

 25 24  0  0  1  0  0  0  0  0999 V2000
   27.5999  -11.8569  -15.3613 C   0  0  0  0  0  0  0  0  0  0  0  0
   26.5263  -10.8230  -15.6385 C   0  0  1  0  0  0  0  0  0  0  0  0
   26.8926   -9.9266  -16.8061 C   0  0  0  0  0  0  0  0  0  0  0  0
   25.2437  -11.5316  -16.0177 C   0  0  2  0  0  0  0  0  0  0  0  0
   25.5030  -12.3969  -17.1332 N   0  0  0  0  0  0  0  0  0  0  0  0
   24.1795  -10.5686  -16.3841 C   0  0  0  0  0  0  0  0  0  0  0  0
   24.2215  -10.1327  -17.5589 O   0  0  0  0  0  0  0  0  0  0  0  0
   18.5696  -10.7097  -17.0408 N   0  0  0  0  0  0  0  0  0  0  0  0
   18.5818   -9.3566  -16.6159 C   0  0  0  0  0  0  0  0  0  0  0  0
   17.6285   -8.6168  -16.9346 O   0  0  0  0  0  0  0  0  0  0  0  0
   19.6951   -8.7739  -15.7920 C   0  0  0  0  0  0  0  0  0  0  0  0
   20.7299   -9.8118  -15.4561 C   0  0  0  0  0  0  0  0  0  0  0  0
   22.1116   -9.2405  -15.6992 C   0  0  2  0  0  0  0  0  0  0  0  0
   23.1904  -10.1752  -15.4655 N   0  0  0  0  0  0  0  0  0  0  0  0
   22.3341   -7.8909  -15.2259 C   0  0  0  0  0  0  0  0  0  0  0  0
   22.6491   -7.6849  -14.0002 O   0  0  0  0  0  0  0  0  0  0  0  0
   22.2386   -6.7069  -16.0044 N   0  0  0  0  0  0  0  0  0  0  0  0
   22.5398   -5.3919  -15.4621 C   0  0  1  0  0  0  0  0  0  0  0  0
   22.6107   -4.4009  -16.5939 C   0  0  0  0  0  0  0  0  0  0  0  0
   22.9463   -3.0389  -16.1777 C   0  0  0  0  0  0  0  0  0  0  0  0
   23.5892   -2.9246  -15.0846 O   0  0  0  0  0  0  0  0  0  0  0  0
   21.6385   -4.9783  -14.3996 C   0  0  0  0  0  0  0  0  0  0  0  0
   22.1194   -4.4767  -13.2128 O   0  0  0  0  0  0  0  0  0  0  0  0
   22.6458   -1.8772  -16.8323 O   0  0  0  0  0  0  0  0  0  0  0  0
   20.4062   -5.0741  -14.5523 O   0  0  0  0  0  0  0  0  0  0  0  0
  2  1  1  6
  2  3  1  0
  4  2  1  0
  4  6  1  0
  4  5  1  6
  6 14  1  0
  7  6  2  0
  9 11  1  0
  9  8  1  0
 10  9  2  0
 12 11  1  0
 13 12  1  1
 14 13  1  0
 15 13  1  0
 15 17  1  0
 16 15  2  0
 18 17  1  0
 18 19  1  6
 20 21  2  0
 20 19  1  0
 22 23  1  0
 22 18  1  0
 24 20  1  0
 25 22  2  0
M  END
$$$$
