VQD.pdb
     RDKit          3D

 25 24  0  0  1  0  0  0  0  0999 V2000
   13.8419   -8.3769  -17.1182 C   0  0  0  0  0  0  0  0  0  0  0  0
   15.2227   -8.0576  -16.5797 C   0  0  1  0  0  0  0  0  0  0  0  0
   15.2425   -6.7472  -15.8159 C   0  0  0  0  0  0  0  0  0  0  0  0
   15.6347   -9.1384  -15.6034 C   0  0  2  0  0  0  0  0  0  0  0  0
   14.6223   -9.2631  -14.5936 N   0  0  0  0  0  0  0  0  0  0  0  0
   16.9305   -8.8224  -14.9590 C   0  0  0  0  0  0  0  0  0  0  0  0
   16.8591   -8.2390  -13.8515 O   0  0  0  0  0  0  0  0  0  0  0  0
   22.7866  -11.4489  -15.9571 N   0  0  0  0  0  0  0  0  0  0  0  0
   22.9624  -10.3275  -15.1068 C   0  0  0  0  0  0  0  0  0  0  0  0
   24.0927  -10.1084  -14.6251 O   0  0  0  0  0  0  0  0  0  0  0  0
   21.8433   -9.3856  -14.7628 C   0  0  0  0  0  0  0  0  0  0  0  0
   20.5443   -9.8301  -15.3760 C   0  0  0  0  0  0  0  0  0  0  0  0
   19.4776   -8.7902  -15.1015 C   0  0  2  0  0  0  0  0  0  0  0  0
   18.1563   -9.1595  -15.5596 N   0  0  0  0  0  0  0  0  0  0  0  0
   19.8597   -7.4123  -15.3261 C   0  0  0  0  0  0  0  0  0  0  0  0
   19.8445   -6.9280  -16.5132 O   0  0  0  0  0  0  0  0  0  0  0  0
   20.2709   -6.4871  -14.3301 N   0  0  0  0  0  0  0  0  0  0  0  0
   20.6713   -5.1263  -14.6491 C   0  0  1  0  0  0  0  0  0  0  0  0
   19.5498   -4.1889  -14.2866 C   0  0  0  0  0  0  0  0  0  0  0  0
   19.8619   -2.7740  -14.4896 C   0  0  0  0  0  0  0  0  0  0  0  0
   19.9514   -2.3831  -15.6982 O   0  0  0  0  0  0  0  0  0  0  0  0
   21.9456   -4.7410  -14.0659 C   0  0  0  0  0  0  0  0  0  0  0  0
   22.5983   -3.6002  -14.4710 O   0  0  0  0  0  0  0  0  0  0  0  0
   20.0678   -1.8267  -13.5259 O   0  0  0  0  0  0  0  0  0  0  0  0
   22.4679   -5.4467  -13.1827 O   0  0  0  0  0  0  0  0  0  0  0  0
  2  1  1  1
  2  3  1  0
  4  2  1  0
  4  6  1  0
  4  5  1  1
  6 14  1  0
  7  6  2  0
  9 11  1  0
  9  8  1  0
 10  9  2  0
 12 11  1  0
 13 12  1  6
 14 13  1  0
 15 13  1  0
 15 17  1  0
 16 15  2  0
 18 17  1  0
 18 19  1  1
 20 21  2  0
 20 19  1  0
 22 23  1  0
 22 18  1  0
 24 20  1  0
 25 22  2  0
M  END
$$$$
