VQD.pdb
     RDKit          3D

 25 24  0  0  1  0  0  0  0  0999 V2000
   20.4824  -14.6462  -16.4436 C   0  0  0  0  0  0  0  0  0  0  0  0
   21.4089  -13.5946  -15.8656 C   0  0  1  0  0  0  0  0  0  0  0  0
   22.8427  -13.7931  -16.3194 C   0  0  0  0  0  0  0  0  0  0  0  0
   20.9790  -12.2306  -16.3615 C   0  0  2  0  0  0  0  0  0  0  0  0
   21.0372  -12.2178  -17.7956 N   0  0  0  0  0  0  0  0  0  0  0  0
   21.8518  -11.1593  -15.8279 C   0  0  0  0  0  0  0  0  0  0  0  0
   21.7145  -10.9029  -14.6084 O   0  0  0  0  0  0  0  0  0  0  0  0
   28.2689  -10.4825  -16.1219 N   0  0  0  0  0  0  0  0  0  0  0  0
   27.0760  -10.6654  -16.8670 C   0  0  0  0  0  0  0  0  0  0  0  0
   27.1609  -10.9590  -18.0771 O   0  0  0  0  0  0  0  0  0  0  0  0
   25.7090  -10.5246  -16.2593 C   0  0  0  0  0  0  0  0  0  0  0  0
   24.9756   -9.3411  -16.8272 C   0  0  0  0  0  0  0  0  0  0  0  0
   23.5604   -9.3212  -16.2876 C   0  0  2  0  0  0  0  0  0  0  0  0
   22.7718  -10.4796  -16.6457 N   0  0  0  0  0  0  0  0  0  0  0  0
   22.8738   -8.0484  -16.3497 C   0  0  0  0  0  0  0  0  0  0  0  0
   22.1523   -7.7581  -17.3690 O   0  0  0  0  0  0  0  0  0  0  0  0
   22.9098   -7.0314  -15.3590 N   0  0  0  0  0  0  0  0  0  0  0  0
   22.1009   -5.8267  -15.4500 C   0  0  1  0  0  0  0  0  0  0  0  0
   20.6548   -6.2191  -15.6011 C   0  0  0  0  0  0  0  0  0  0  0  0
   19.7244   -5.0899  -15.6028 C   0  0  0  0  0  0  0  0  0  0  0  0
   19.7325   -4.3531  -16.6413 O   0  0  0  0  0  0  0  0  0  0  0  0
   22.3252   -4.8895  -14.3619 C   0  0  0  0  0  0  0  0  0  0  0  0
   23.1007   -5.2291  -13.2780 O   0  0  0  0  0  0  0  0  0  0  0  0
   18.8487   -4.7392  -14.6136 O   0  0  0  0  0  0  0  0  0  0  0  0
   21.8125   -3.7552  -14.3981 O   0  0  0  0  0  0  0  0  0  0  0  0
  2  1  1  6
  2  3  1  0
  4  2  1  0
  4  6  1  0
  4  5  1  6
  6 14  1  0
  7  6  2  0
  9 11  1  0
  9  8  1  0
 10  9  2  0
 12 11  1  0
 13 12  1  6
 14 13  1  0
 15 13  1  0
 15 17  1  0
 16 15  2  0
 18 17  1  0
 18 19  1  1
 20 21  2  0
 20 19  1  0
 22 23  1  0
 22 18  1  0
 24 20  1  0
 25 22  2  0
M  END
$$$$
