VQD.pdb
     RDKit          3D

 25 24  0  0  1  0  0  0  0  0999 V2000
   24.8291  -34.3213   -4.6004 C   0  0  0  0  0  0  0  0  0  0  0  0
   25.5562  -33.1798   -5.2835 C   0  0  1  0  0  0  0  0  0  0  0  0
   26.1810  -32.2274   -4.2818 C   0  0  0  0  0  0  0  0  0  0  0  0
   26.6882  -33.7425   -6.1159 C   0  0  2  0  0  0  0  0  0  0  0  0
   26.1346  -34.5075   -7.1969 N   0  0  0  0  0  0  0  0  0  0  0  0
   27.5762  -34.6106   -5.3083 C   0  0  0  0  0  0  0  0  0  0  0  0
   27.0269  -35.6025   -4.7732 O   0  0  0  0  0  0  0  0  0  0  0  0
   34.0851  -34.0734   -4.6357 N   0  0  0  0  0  0  0  0  0  0  0  0
   33.6573  -35.1660   -3.8390 C   0  0  0  0  0  0  0  0  0  0  0  0
   34.5092  -35.8103   -3.1933 O   0  0  0  0  0  0  0  0  0  0  0  0
   32.2168  -35.5806   -3.7348 C   0  0  0  0  0  0  0  0  0  0  0  0
   31.3400  -34.7452   -4.6261 C   0  0  0  0  0  0  0  0  0  0  0  0
   29.8862  -35.0295   -4.3095 C   0  0  2  0  0  0  0  0  0  0  0  0
   28.9459  -34.3309   -5.1580 N   0  0  0  0  0  0  0  0  0  0  0  0
   29.5413  -35.0918   -2.9052 C   0  0  0  0  0  0  0  0  0  0  0  0
   28.7839  -34.1943   -2.3905 O   0  0  0  0  0  0  0  0  0  0  0  0
   29.9681  -36.0850   -1.9840 N   0  0  0  0  0  0  0  0  0  0  0  0
   29.5508  -36.0861   -0.5913 C   0  0  1  0  0  0  0  0  0  0  0  0
   28.0473  -36.0244   -0.5313 C   0  0  0  0  0  0  0  0  0  0  0  0
   27.4961  -36.1396    0.8191 C   0  0  0  0  0  0  0  0  0  0  0  0
   27.8092  -35.2158    1.6377 O   0  0  0  0  0  0  0  0  0  0  0  0
   30.1064  -37.1832    0.1835 C   0  0  0  0  0  0  0  0  0  0  0  0
   30.0361  -37.1922    1.5570 O   0  0  0  0  0  0  0  0  0  0  0  0
   26.6832  -37.1285    1.2982 O   0  0  0  0  0  0  0  0  0  0  0  0
   30.6588  -38.1389   -0.3929 O   0  0  0  0  0  0  0  0  0  0  0  0
  2  1  1  1
  2  3  1  0
  4  2  1  0
  4  6  1  0
  4  5  1  6
  6 14  1  0
  7  6  2  0
  9 11  1  0
  9  8  1  0
 10  9  2  0
 12 11  1  0
 13 12  1  1
 14 13  1  0
 15 13  1  0
 15 17  1  0
 16 15  2  0
 18 17  1  0
 18 19  1  6
 20 21  2  0
 20 19  1  0
 22 23  1  0
 22 18  1  0
 24 20  1  0
 25 22  2  0
M  END
$$$$
