PTF.pdb
     RDKit          3D

 26 27  0  0  1  0  0  0  0  0999 V2000
   18.6075  -12.0540  -16.0198 N   0  0  0  0  0  0  0  0  0  0  0  0
   18.4147  -13.5026  -15.9877 C   0  0  0  0  0  0  0  0  0  0  0  0
   18.8228  -14.0044  -17.3364 C   0  0  0  0  0  0  0  0  0  0  0  0
   19.4747  -12.8076  -18.0127 C   0  0  0  0  0  0  0  0  0  0  0  0
   19.7985  -11.9250  -16.8246 C   0  0  1  0  0  0  0  0  0  0  0  0
   20.0786  -10.5381  -17.2235 C   0  0  0  0  0  0  0  0  0  0  0  0
   21.0944  -10.2924  -17.8920 O   0  0  0  0  0  0  0  0  0  0  0  0
   18.2466   -8.2104  -19.4964 C   0  0  0  0  0  0  0  0  0  0  0  0
   18.2502   -7.6382  -18.0963 C   0  0  1  0  0  0  0  0  0  0  0  0
   17.0602   -7.8799  -17.4208 O   0  0  0  0  0  0  0  0  0  0  0  0
   19.4657   -8.0965  -17.3211 C   0  0  2  0  0  0  0  0  0  0  0  0
   19.2244   -9.4527  -16.8714 N   0  0  0  0  0  0  0  0  0  0  0  0
   19.7033   -7.2582  -16.1217 C   0  0  0  0  0  0  0  0  0  0  0  0
   19.0933   -7.5002  -15.0310 O   0  0  0  0  0  0  0  0  0  0  0  0
   20.6036   -6.1597  -16.1137 N   0  0  0  0  0  0  0  0  0  0  0  0
   20.7780   -5.3946  -14.9199 C   0  0  1  0  0  0  0  0  0  0  0  0
   22.0610   -5.7099  -14.1931 C   0  0  0  0  0  0  0  0  0  0  0  0
   22.1539   -7.0856  -13.7208 C   0  0  0  0  0  0  0  0  0  0  0  0
   21.5209   -7.4745  -12.5598 C   0  0  0  0  0  0  0  0  0  0  0  0
   21.6106   -8.7969  -12.1063 C   0  0  0  0  0  0  0  0  0  0  0  0
   22.3279   -9.7392  -12.8018 C   0  0  0  0  0  0  0  0  0  0  0  0
   22.9588   -9.3533  -13.9582 C   0  0  0  0  0  0  0  0  0  0  0  0
   22.8649   -8.0497  -14.3966 C   0  0  0  0  0  0  0  0  0  0  0  0
   20.6695   -3.9494  -15.2543 C   0  0  0  0  0  0  0  0  0  0  0  0
   20.6086   -3.5588  -16.4375 O   0  0  0  0  0  0  0  0  0  0  0  0
   20.6326   -2.9877  -14.2522 O   0  0  0  0  0  0  0  0  0  0  0  0
  1  2  1  0
  1  5  1  0
  2  3  1  0
  3  4  1  0
  5  4  1  0
  5  6  1  6
  6  7  2  0
  9  8  1  6
 10  9  1  0
 11  9  1  0
 12  6  1  0
 11 12  1  1
 13 11  1  0
 13 14  2  0
 15 13  1  0
 16 15  1  0
 16 17  1  6
 18 23  1  0
 18 17  1  0
 19 18  2  0
 20 21  2  0
 20 19  1  0
 21 22  1  0
 22 23  2  0
 24 26  1  0
 24 16  1  0
 25 24  2  0
M  END
$$$$
