PTF.pdb
     RDKit          3D

 26 27  0  0  1  0  0  0  0  0999 V2000
   22.4806  -19.7683  -11.8957 N   0  0  0  0  0  0  0  0  0  0  0  0
   21.2086  -19.1831  -12.3155 C   0  0  0  0  0  0  0  0  0  0  0  0
   21.2562  -19.1172  -13.8090 C   0  0  0  0  0  0  0  0  0  0  0  0
   22.4949  -19.9136  -14.1914 C   0  0  0  0  0  0  0  0  0  0  0  0
   22.7285  -20.7339  -12.9393 C   0  0  1  0  0  0  0  0  0  0  0  0
   24.0842  -21.3004  -12.8918 C   0  0  0  0  0  0  0  0  0  0  0  0
   24.3128  -22.3760  -13.4662 O   0  0  0  0  0  0  0  0  0  0  0  0
   27.0254  -20.7520  -14.5879 C   0  0  0  0  0  0  0  0  0  0  0  0
   27.3439  -20.3962  -13.1528 C   0  0  1  0  0  0  0  0  0  0  0  0
   27.2699  -19.0290  -12.9158 O   0  0  0  0  0  0  0  0  0  0  0  0
   26.5015  -21.2027  -12.1893 C   0  0  2  0  0  0  0  0  0  0  0  0
   25.1580  -20.6603  -12.2071 N   0  0  0  0  0  0  0  0  0  0  0  0
   27.0091  -21.1072  -10.7997 C   0  0  0  0  0  0  0  0  0  0  0  0
   28.1467  -21.5878  -10.4911 O   0  0  0  0  0  0  0  0  0  0  0  0
   26.2771  -20.4892   -9.7511 N   0  0  0  0  0  0  0  0  0  0  0  0
   26.7819  -20.5282   -8.4153 C   0  0  1  0  0  0  0  0  0  0  0  0
   27.0101  -19.1595   -7.8252 C   0  0  0  0  0  0  0  0  0  0  0  0
   27.5924  -19.1778   -6.4892 C   0  0  0  0  0  0  0  0  0  0  0  0
   28.9431  -18.9712   -6.3081 C   0  0  0  0  0  0  0  0  0  0  0  0
   29.5022  -18.9889   -5.0238 C   0  0  0  0  0  0  0  0  0  0  0  0
   28.7248  -19.2115   -3.9137 C   0  0  0  0  0  0  0  0  0  0  0  0
   27.3796  -19.4174   -4.0925 C   0  0  0  0  0  0  0  0  0  0  0  0
   26.8384  -19.3982   -5.3602 C   0  0  0  0  0  0  0  0  0  0  0  0
   25.8659  -21.3485   -7.5784 C   0  0  0  0  0  0  0  0  0  0  0  0
   24.6422  -21.4020   -7.8149 O   0  0  0  0  0  0  0  0  0  0  0  0
   26.3504  -22.0829   -6.5031 O   0  0  0  0  0  0  0  0  0  0  0  0
  1  2  1  0
  1  5  1  0
  2  3  1  0
  3  4  1  0
  5  4  1  0
  5  6  1  6
  6  7  2  0
  9  8  1  6
 10  9  1  0
 11  9  1  0
 12  6  1  0
 11 12  1  1
 13 11  1  0
 13 14  2  0
 15 13  1  0
 16 15  1  0
 16 17  1  1
 18 23  1  0
 18 17  1  0
 19 18  2  0
 20 21  2  0
 20 19  1  0
 21 22  1  0
 22 23  2  0
 24 26  1  0
 24 16  1  0
 25 24  2  0
M  END
$$$$
