PTF.pdb
     RDKit          3D

 26 27  0  0  1  0  0  0  0  0999 V2000
   22.1802  -12.4558  -19.6705 N   0  0  0  0  0  0  0  0  0  0  0  0
   21.9278  -13.4910  -20.6712 C   0  0  0  0  0  0  0  0  0  0  0  0
   21.4616  -14.6937  -19.9139 C   0  0  0  0  0  0  0  0  0  0  0  0
   21.2361  -14.1932  -18.4949 C   0  0  0  0  0  0  0  0  0  0  0  0
   21.1280  -12.6978  -18.7128 C   0  0  1  0  0  0  0  0  0  0  0  0
   21.2985  -11.9412  -17.4640 C   0  0  0  0  0  0  0  0  0  0  0  0
   20.4787  -12.0937  -16.5454 O   0  0  0  0  0  0  0  0  0  0  0  0
   24.0026  -12.0536  -15.0166 C   0  0  0  0  0  0  0  0  0  0  0  0
   23.9213  -10.6153  -15.4772 C   0  0  1  0  0  0  0  0  0  0  0  0
   24.9433  -10.2810  -16.3573 O   0  0  0  0  0  0  0  0  0  0  0  0
   22.5489  -10.2933  -16.0260 C   0  0  2  0  0  0  0  0  0  0  0  0
   22.3765  -11.0309  -17.2613 N   0  0  0  0  0  0  0  0  0  0  0  0
   22.4036   -8.8511  -16.3367 C   0  0  0  0  0  0  0  0  0  0  0  0
   22.4971   -8.4341  -17.5358 O   0  0  0  0  0  0  0  0  0  0  0  0
   22.1570   -7.8680  -15.3416 N   0  0  0  0  0  0  0  0  0  0  0  0
   22.0344   -6.4949  -15.7166 C   0  0  1  0  0  0  0  0  0  0  0  0
   20.9371   -6.2481  -16.7209 C   0  0  0  0  0  0  0  0  0  0  0  0
   20.7216   -4.8405  -17.0317 C   0  0  0  0  0  0  0  0  0  0  0  0
   21.6256   -4.1449  -17.8055 C   0  0  0  0  0  0  0  0  0  0  0  0
   21.4179   -2.7921  -18.1039 C   0  0  0  0  0  0  0  0  0  0  0  0
   20.3132   -2.1231  -17.6366 C   0  0  0  0  0  0  0  0  0  0  0  0
   19.4120   -2.8146  -16.8660 C   0  0  0  0  0  0  0  0  0  0  0  0
   19.6249   -4.1457  -16.5776 C   0  0  0  0  0  0  0  0  0  0  0  0
   21.8584   -5.6746  -14.4884 C   0  0  0  0  0  0  0  0  0  0  0  0
   22.0990   -4.4506  -14.4842 O   0  0  0  0  0  0  0  0  0  0  0  0
   21.4182   -6.2521  -13.3038 O   0  0  0  0  0  0  0  0  0  0  0  0
  1  2  1  0
  1  5  1  0
  2  3  1  0
  3  4  1  0
  5  4  1  0
  5  6  1  1
  6  7  2  0
  9  8  1  6
 10  9  1  0
 11  9  1  0
 12  6  1  0
 11 12  1  6
 13 11  1  0
 13 14  2  0
 15 13  1  0
 16 15  1  0
 16 17  1  6
 18 23  1  0
 18 17  1  0
 19 18  2  0
 20 21  2  0
 20 19  1  0
 21 22  1  0
 22 23  2  0
 24 26  1  0
 24 16  1  0
 25 24  2  0
M  END
$$$$
