PTF.pdb
     RDKit          3D

 26 27  0  0  1  0  0  0  0  0999 V2000
   16.4944  -12.4150  -17.3844 N   0  0  0  0  0  0  0  0  0  0  0  0
   15.8123  -13.5806  -17.9437 C   0  0  0  0  0  0  0  0  0  0  0  0
   16.2146  -13.6443  -19.3829 C   0  0  0  0  0  0  0  0  0  0  0  0
   17.3296  -12.6181  -19.5181 C   0  0  0  0  0  0  0  0  0  0  0  0
   17.7607  -12.4447  -18.0760 C   0  0  1  0  0  0  0  0  0  0  0  0
   18.5559  -11.2243  -17.8774 C   0  0  0  0  0  0  0  0  0  0  0  0
   19.7060  -11.1676  -18.3393 O   0  0  0  0  0  0  0  0  0  0  0  0
   18.1326   -7.8208  -19.1550 C   0  0  0  0  0  0  0  0  0  0  0  0
   18.0616   -7.7435  -17.6462 C   0  0  1  0  0  0  0  0  0  0  0  0
   16.7560   -7.6476  -17.1803 O   0  0  0  0  0  0  0  0  0  0  0  0
   18.8296   -8.8774  -17.0035 C   0  0  2  0  0  0  0  0  0  0  0  0
   18.0571  -10.0919  -17.1698 N   0  0  0  0  0  0  0  0  0  0  0  0
   19.0214   -8.6592  -15.5498 C   0  0  0  0  0  0  0  0  0  0  0  0
   18.2864   -9.2604  -14.7020 O   0  0  0  0  0  0  0  0  0  0  0  0
   20.0122   -7.7878  -15.0240 N   0  0  0  0  0  0  0  0  0  0  0  0
   20.1129   -7.5990  -13.6115 C   0  0  1  0  0  0  0  0  0  0  0  0
   21.5073   -7.2502  -13.1557 C   0  0  0  0  0  0  0  0  0  0  0  0
   22.1122   -6.1440  -13.8868 C   0  0  0  0  0  0  0  0  0  0  0  0
   21.8864   -4.8398  -13.5020 C   0  0  0  0  0  0  0  0  0  0  0  0
   22.4681   -3.7770  -14.2050 C   0  0  0  0  0  0  0  0  0  0  0  0
   23.2761   -4.0024  -15.2925 C   0  0  0  0  0  0  0  0  0  0  0  0
   23.5020   -5.3006  -15.6769 C   0  0  0  0  0  0  0  0  0  0  0  0
   22.9251   -6.3400  -14.9789 C   0  0  0  0  0  0  0  0  0  0  0  0
   19.1185   -6.5761  -13.1907 C   0  0  0  0  0  0  0  0  0  0  0  0
   18.5871   -5.8074  -14.0171 O   0  0  0  0  0  0  0  0  0  0  0  0
   18.7512   -6.4470  -11.8569 O   0  0  0  0  0  0  0  0  0  0  0  0
  1  2  1  0
  1  5  1  0
  2  3  1  0
  3  4  1  0
  5  4  1  0
  5  6  1  6
  6  7  2  0
  9  8  1  6
 10  9  1  0
 11  9  1  0
 12  6  1  0
 11 12  1  1
 13 11  1  0
 13 14  2  0
 15 13  1  0
 16 15  1  0
 16 17  1  6
 18 23  1  0
 18 17  1  0
 19 18  2  0
 20 21  2  0
 20 19  1  0
 21 22  1  0
 22 23  2  0
 24 26  1  0
 24 16  1  0
 25 24  2  0
M  END
$$$$
