PTF.pdb
     RDKit          3D

 26 27  0  0  1  0  0  0  0  0999 V2000
   18.8889  -14.3630  -19.9994 N   0  0  0  0  0  0  0  0  0  0  0  0
   18.3141  -15.6433  -19.5906 C   0  0  0  0  0  0  0  0  0  0  0  0
   18.3498  -15.6542  -18.0954 C   0  0  0  0  0  0  0  0  0  0  0  0
   18.7360  -14.2346  -17.7078 C   0  0  0  0  0  0  0  0  0  0  0  0
   18.4029  -13.4717  -18.9737 C   0  0  1  0  0  0  0  0  0  0  0  0
   19.0417  -12.1482  -19.0084 C   0  0  0  0  0  0  0  0  0  0  0  0
   20.2795  -12.0708  -18.9748 O   0  0  0  0  0  0  0  0  0  0  0  0
   18.5024   -7.2438  -19.6736 C   0  0  0  0  0  0  0  0  0  0  0  0
   17.9738   -8.6589  -19.7484 C   0  0  1  0  0  0  0  0  0  0  0  0
   17.6393   -9.0331  -21.0441 O   0  0  0  0  0  0  0  0  0  0  0  0
   18.9224   -9.6330  -19.0852 C   0  0  2  0  0  0  0  0  0  0  0  0
   18.2924  -10.9378  -19.0798 N   0  0  0  0  0  0  0  0  0  0  0  0
   19.2013   -9.2598  -17.6778 C   0  0  0  0  0  0  0  0  0  0  0  0
   18.3820   -9.5643  -16.7524 O   0  0  0  0  0  0  0  0  0  0  0  0
   20.3705   -8.5568  -17.2826 N   0  0  0  0  0  0  0  0  0  0  0  0
   20.5394   -8.1730  -15.9170 C   0  0  1  0  0  0  0  0  0  0  0  0
   21.9174   -8.4697  -15.3815 C   0  0  0  0  0  0  0  0  0  0  0  0
   22.1390   -8.0022  -14.0190 C   0  0  0  0  0  0  0  0  0  0  0  0
   22.0518   -8.8728  -12.9540 C   0  0  0  0  0  0  0  0  0  0  0  0
   22.2650   -8.4229  -11.6447 C   0  0  0  0  0  0  0  0  0  0  0  0
   22.5654   -7.1080  -11.3855 C   0  0  0  0  0  0  0  0  0  0  0  0
   22.6526   -6.2398  -12.4451 C   0  0  0  0  0  0  0  0  0  0  0  0
   22.4412   -6.6918  -13.7301 C   0  0  0  0  0  0  0  0  0  0  0  0
   20.1852   -6.7356  -15.7737 C   0  0  0  0  0  0  0  0  0  0  0  0
   20.4504   -5.9084  -16.6691 O   0  0  0  0  0  0  0  0  0  0  0  0
   19.5449   -6.2707  -14.6316 O   0  0  0  0  0  0  0  0  0  0  0  0
  1  2  1  0
  1  5  1  0
  2  3  1  0
  3  4  1  0
  5  4  1  0
  5  6  1  1
  6  7  2  0
  9  8  1  6
 10  9  1  0
 11  9  1  0
 12  6  1  0
 11 12  1  1
 13 11  1  0
 13 14  2  0
 15 13  1  0
 16 15  1  0
 16 17  1  6
 18 23  1  0
 18 17  1  0
 19 18  2  0
 20 21  2  0
 20 19  1  0
 21 22  1  0
 22 23  2  0
 24 26  1  0
 24 16  1  0
 25 24  2  0
M  END
$$$$
