PTF.pdb
     RDKit          3D

 26 27  0  0  1  0  0  0  0  0999 V2000
   23.6023  -12.5117  -19.6142 N   0  0  0  0  0  0  0  0  0  0  0  0
   23.5734  -13.4994  -20.6914 C   0  0  0  0  0  0  0  0  0  0  0  0
   22.8359  -14.6820  -20.1485 C   0  0  0  0  0  0  0  0  0  0  0  0
   22.2549  -14.2017  -18.8270 C   0  0  0  0  0  0  0  0  0  0  0  0
   22.3104  -12.6974  -18.9985 C   0  0  1  0  0  0  0  0  0  0  0  0
   22.1732  -11.9875  -17.7185 C   0  0  0  0  0  0  0  0  0  0  0  0
   21.1316  -12.1226  -17.0583 O   0  0  0  0  0  0  0  0  0  0  0  0
   24.3674  -12.2689  -14.7607 C   0  0  0  0  0  0  0  0  0  0  0  0
   24.3093  -10.7972  -15.1045 C   0  0  1  0  0  0  0  0  0  0  0  0
   25.4798  -10.3446  -15.7011 O   0  0  0  0  0  0  0  0  0  0  0  0
   23.0757  -10.4738  -15.9183 C   0  0  2  0  0  0  0  0  0  0  0  0
   23.1961  -11.1420  -17.1984 N   0  0  0  0  0  0  0  0  0  0  0  0
   22.9517   -9.0194  -16.1776 C   0  0  0  0  0  0  0  0  0  0  0  0
   23.6235   -8.4676  -17.1073 O   0  0  0  0  0  0  0  0  0  0  0  0
   22.0972   -8.1710  -15.4242 N   0  0  0  0  0  0  0  0  0  0  0  0
   22.0654   -6.7699  -15.7015 C   0  0  1  0  0  0  0  0  0  0  0  0
   20.9405   -6.3712  -16.6231 C   0  0  0  0  0  0  0  0  0  0  0  0
   20.8052   -4.9318  -16.8075 C   0  0  0  0  0  0  0  0  0  0  0  0
   19.7344   -4.2515  -16.2685 C   0  0  0  0  0  0  0  0  0  0  0  0
   19.6049   -2.8680  -16.4460 C   0  0  0  0  0  0  0  0  0  0  0  0
   20.5362   -2.1531  -17.1586 C   0  0  0  0  0  0  0  0  0  0  0  0
   21.6031   -2.8292  -17.6960 C   0  0  0  0  0  0  0  0  0  0  0  0
   21.7221   -4.1907  -17.5160 C   0  0  0  0  0  0  0  0  0  0  0  0
   22.0198   -6.0256  -14.4146 C   0  0  0  0  0  0  0  0  0  0  0  0
   21.4995   -6.5215  -13.3949 O   0  0  0  0  0  0  0  0  0  0  0  0
   22.5588   -4.7492  -14.3111 O   0  0  0  0  0  0  0  0  0  0  0  0
  1  2  1  0
  1  5  1  0
  2  3  1  0
  3  4  1  0
  5  4  1  0
  5  6  1  1
  6  7  2  0
  9  8  1  6
 10  9  1  0
 11  9  1  0
 12  6  1  0
 11 12  1  6
 13 11  1  0
 13 14  2  0
 15 13  1  0
 16 15  1  0
 16 17  1  6
 18 23  1  0
 18 17  1  0
 19 18  2  0
 20 21  2  0
 20 19  1  0
 21 22  1  0
 22 23  2  0
 24 26  1  0
 24 16  1  0
 25 24  2  0
M  END
$$$$
