KAR.pdb
     RDKit          3D

 26 25  0  0  1  0  0  0  0  0999 V2000
   10.3739  -14.7815   17.1582 N   0  0  0  0  0  0  0  0  0  0  0  0
    9.4611  -14.3644   18.1650 C   0  0  1  0  0  0  0  0  0  0  0  0
    8.1229  -13.9251   17.6932 C   0  0  0  0  0  0  0  0  0  0  0  0
    7.9934  -13.4453   16.3060 C   0  0  0  0  0  0  0  0  0  0  0  0
    7.8214  -14.4369   15.2217 C   0  0  0  0  0  0  0  0  0  0  0  0
    7.5583  -13.8961   13.8564 C   0  0  0  0  0  0  0  0  0  0  0  0
    7.2813  -14.8768   12.8426 N   0  0  0  0  0  0  0  0  0  0  0  0
    9.2927  -15.3119   19.2974 C   0  0  0  0  0  0  0  0  0  0  0  0
    8.3888  -15.1164   20.1817 O   0  0  0  0  0  0  0  0  0  0  0  0
   10.7910  -18.5279   20.4612 C   0  0  0  0  0  0  0  0  0  0  0  0
    9.8026  -17.3913   20.6027 C   0  0  2  0  0  0  0  0  0  0  0  0
   10.0811  -16.4643   19.4947 N   0  0  0  0  0  0  0  0  0  0  0  0
   10.0052  -16.6304   21.8774 C   0  0  0  0  0  0  0  0  0  0  0  0
   10.9545  -15.8019   21.9867 O   0  0  0  0  0  0  0  0  0  0  0  0
    5.2816  -13.2127   26.9355 N   0  0  0  0  0  0  0  0  0  0  0  0
    5.9030  -11.9472   26.6423 C   0  0  0  0  0  0  0  0  0  0  0  0
    5.5886  -10.9080   27.3727 N   0  0  0  0  0  0  0  0  0  0  0  0
    6.8275  -11.8731   25.5791 N   0  0  0  0  0  0  0  0  0  0  0  0
    6.7839  -12.9757   24.5837 C   0  0  0  0  0  0  0  0  0  0  0  0
    7.9238  -13.8555   24.9137 C   0  0  0  0  0  0  0  0  0  0  0  0
    8.1606  -14.9950   24.0471 C   0  0  0  0  0  0  0  0  0  0  0  0
    9.3196  -15.8941   24.2146 C   0  0  2  0  0  0  0  0  0  0  0  0
    9.1720  -16.7932   22.9904 N   0  0  0  0  0  0  0  0  0  0  0  0
    9.3501  -16.7356   25.3821 C   0  0  0  0  0  0  0  0  0  0  0  0
    8.9103  -17.9440   25.2354 O   0  0  0  0  0  0  0  0  0  0  0  0
    9.7986  -16.4459   26.6581 O   0  0  0  0  0  0  0  0  0  0  0  0
  2  8  1  0
  2  1  1  6
  3  2  1  0
  4  3  1  0
  5  4  1  0
  6  5  1  0
  7  6  1  0
  8  9  2  0
 11 10  1  1
 12 11  1  0
 12  8  1  0
 13 14  2  0
 13 11  1  0
 15 16  1  0
 16 17  2  0
 18 16  1  0
 18 19  1  0
 19 20  1  0
 20 21  1  0
 22 21  1  1
 22 24  1  0
 22 23  1  0
 23 13  1  0
 24 26  1  0
 25 24  2  0
M  END
$$$$
