KAR.pdb
     RDKit          3D

 26 25  0  0  1  0  0  0  0  0999 V2000
    6.2222  -19.1354   17.9925 N   0  0  0  0  0  0  0  0  0  0  0  0
    7.4415  -18.5558   17.5470 C   0  0  1  0  0  0  0  0  0  0  0  0
    7.4733  -18.1070   16.1315 C   0  0  0  0  0  0  0  0  0  0  0  0
    6.2288  -18.1817   15.3461 C   0  0  0  0  0  0  0  0  0  0  0  0
    6.2593  -17.7824   13.9219 C   0  0  0  0  0  0  0  0  0  0  0  0
    4.9832  -17.9196   13.1614 C   0  0  0  0  0  0  0  0  0  0  0  0
    5.0441  -17.5486   11.7740 N   0  0  0  0  0  0  0  0  0  0  0  0
    7.9822  -17.4766   18.4137 C   0  0  0  0  0  0  0  0  0  0  0  0
    9.1322  -16.9670   18.1790 O   0  0  0  0  0  0  0  0  0  0  0  0
    6.8076  -15.3536   21.2422 C   0  0  0  0  0  0  0  0  0  0  0  0
    7.8980  -15.8440   20.3150 C   0  0  2  0  0  0  0  0  0  0  0  0
    7.3073  -16.9381   19.5287 N   0  0  0  0  0  0  0  0  0  0  0  0
    9.0573  -16.4183   21.0708 C   0  0  0  0  0  0  0  0  0  0  0  0
    9.0593  -17.6350   21.4160 O   0  0  0  0  0  0  0  0  0  0  0  0
   16.8585  -13.4892   21.9424 N   0  0  0  0  0  0  0  0  0  0  0  0
   17.1841  -14.8903   21.8737 C   0  0  0  0  0  0  0  0  0  0  0  0
   18.3755  -15.2782   22.2514 N   0  0  0  0  0  0  0  0  0  0  0  0
   16.2082  -15.7934   21.4022 N   0  0  0  0  0  0  0  0  0  0  0  0
   14.9088  -15.2070   20.9825 C   0  0  0  0  0  0  0  0  0  0  0  0
   13.8748  -15.9599   21.7217 C   0  0  0  0  0  0  0  0  0  0  0  0
   12.4906  -15.5829   21.5040 C   0  0  0  0  0  0  0  0  0  0  0  0
   11.3634  -16.2943   22.1388 C   0  0  2  0  0  0  0  0  0  0  0  0
   10.1750  -15.6545   21.4266 N   0  0  0  0  0  0  0  0  0  0  0  0
   11.1767  -16.1224   23.5558 C   0  0  0  0  0  0  0  0  0  0  0  0
   10.3411  -15.2041   23.9214 O   0  0  0  0  0  0  0  0  0  0  0  0
   11.7572  -16.8119   24.6049 O   0  0  0  0  0  0  0  0  0  0  0  0
  2  8  1  0
  2  1  1  1
  3  2  1  0
  4  3  1  0
  5  4  1  0
  6  5  1  0
  7  6  1  0
  8  9  2  0
 11 10  1  1
 12 11  1  0
 12  8  1  0
 13 14  2  0
 13 11  1  0
 15 16  1  0
 16 17  2  0
 18 16  1  0
 18 19  1  0
 19 20  1  0
 20 21  1  0
 22 21  1  6
 22 24  1  0
 22 23  1  0
 23 13  1  0
 24 26  1  0
 25 24  2  0
M  END
$$$$
