KAR.pdb
     RDKit          3D

 26 25  0  0  1  0  0  0  0  0999 V2000
    7.9356  -14.2345   19.5231 N   0  0  0  0  0  0  0  0  0  0  0  0
    7.2628  -14.8113   20.6347 C   0  0  1  0  0  0  0  0  0  0  0  0
    6.8543  -16.2316   20.4869 C   0  0  0  0  0  0  0  0  0  0  0  0
    6.8311  -16.8153   19.1340 C   0  0  0  0  0  0  0  0  0  0  0  0
    6.2326  -18.1550   18.9457 C   0  0  0  0  0  0  0  0  0  0  0  0
    6.2674  -18.7146   17.5632 C   0  0  0  0  0  0  0  0  0  0  0  0
    5.5843  -19.9665   17.3825 N   0  0  0  0  0  0  0  0  0  0  0  0
    7.9393  -14.6317   21.9457 C   0  0  0  0  0  0  0  0  0  0  0  0
    9.1903  -14.8690   22.0713 O   0  0  0  0  0  0  0  0  0  0  0  0
    7.1198  -13.3002   25.3257 C   0  0  0  0  0  0  0  0  0  0  0  0
    8.0370  -14.0467   24.3820 C   0  0  2  0  0  0  0  0  0  0  0  0
    7.2922  -14.2028   23.1229 N   0  0  0  0  0  0  0  0  0  0  0  0
    8.3529  -15.4232   24.8826 C   0  0  0  0  0  0  0  0  0  0  0  0
    7.5267  -16.3681   24.7276 O   0  0  0  0  0  0  0  0  0  0  0  0
   14.3772  -18.7925   21.4268 N   0  0  0  0  0  0  0  0  0  0  0  0
   13.0582  -18.6728   20.8616 C   0  0  0  0  0  0  0  0  0  0  0  0
   12.8842  -18.9782   19.6010 N   0  0  0  0  0  0  0  0  0  0  0  0
   12.0020  -18.2310   21.6860 N   0  0  0  0  0  0  0  0  0  0  0  0
   12.3366  -17.9688   23.1099 C   0  0  0  0  0  0  0  0  0  0  0  0
   11.0499  -17.6760   23.7740 C   0  0  0  0  0  0  0  0  0  0  0  0
   11.0747  -17.4471   25.2066 C   0  0  0  0  0  0  0  0  0  0  0  0
    9.8556  -17.1545   25.9864 C   0  0  2  0  0  0  0  0  0  0  0  0
    9.5537  -15.7288   25.5338 N   0  0  0  0  0  0  0  0  0  0  0  0
    9.9646  -17.1508   27.4218 C   0  0  0  0  0  0  0  0  0  0  0  0
   10.0081  -15.9913   27.9952 O   0  0  0  0  0  0  0  0  0  0  0  0
   10.0183  -18.2196   28.2981 O   0  0  0  0  0  0  0  0  0  0  0  0
  2  8  1  0
  2  1  1  6
  3  2  1  0
  4  3  1  0
  5  4  1  0
  6  5  1  0
  7  6  1  0
  8  9  2  0
 11 10  1  1
 12 11  1  0
 12  8  1  0
 13 14  2  0
 13 11  1  0
 15 16  1  0
 16 17  2  0
 18 16  1  0
 18 19  1  0
 19 20  1  0
 20 21  1  0
 22 21  1  6
 22 24  1  0
 22 23  1  0
 23 13  1  0
 24 26  1  0
 25 24  2  0
M  END
$$$$
