KAR.pdb
     RDKit          3D

 26 25  0  0  1  0  0  0  0  0999 V2000
    8.6626  -17.1292   16.3765 N   0  0  0  0  0  0  0  0  0  0  0  0
    8.0540  -16.8881   17.6385 C   0  0  1  0  0  0  0  0  0  0  0  0
    8.1125  -18.0043   18.6166 C   0  0  0  0  0  0  0  0  0  0  0  0
    7.9340  -19.3799   18.1194 C   0  0  0  0  0  0  0  0  0  0  0  0
    6.7125  -20.1227   18.4997 C   0  0  0  0  0  0  0  0  0  0  0  0
    6.6250  -21.5419   18.0481 C   0  0  0  0  0  0  0  0  0  0  0  0
    5.4472  -22.2541   18.4627 N   0  0  0  0  0  0  0  0  0  0  0  0
    8.4681  -15.6285   18.3096 C   0  0  0  0  0  0  0  0  0  0  0  0
    9.7031  -15.3002   18.3742 O   0  0  0  0  0  0  0  0  0  0  0  0
    6.8440  -12.6846   19.9257 C   0  0  0  0  0  0  0  0  0  0  0  0
    8.0696  -13.4957   19.5665 C   0  0  2  0  0  0  0  0  0  0  0  0
    7.5762  -14.7180   18.9130 N   0  0  0  0  0  0  0  0  0  0  0  0
    8.8334  -13.9221   20.7829 C   0  0  0  0  0  0  0  0  0  0  0  0
    9.4505  -13.0701   21.4849 O   0  0  0  0  0  0  0  0  0  0  0  0
   10.2462  -15.2604   28.0062 N   0  0  0  0  0  0  0  0  0  0  0  0
    9.2934  -14.1933   27.8422 C   0  0  0  0  0  0  0  0  0  0  0  0
    9.3885  -13.1411   28.6144 N   0  0  0  0  0  0  0  0  0  0  0  0
    8.2923  -14.3202   26.8561 N   0  0  0  0  0  0  0  0  0  0  0  0
    8.4268  -15.4644   25.9174 C   0  0  0  0  0  0  0  0  0  0  0  0
    8.5516  -14.8642   24.5733 C   0  0  0  0  0  0  0  0  0  0  0  0
    8.6552  -15.7700   23.4445 C   0  0  0  0  0  0  0  0  0  0  0  0
    9.7172  -15.6527   22.4256 C   0  0  2  0  0  0  0  0  0  0  0  0
    8.9022  -15.2573   21.1974 N   0  0  0  0  0  0  0  0  0  0  0  0
   10.4648  -16.8387   22.0991 C   0  0  0  0  0  0  0  0  0  0  0  0
    9.9176  -17.6528   21.2548 O   0  0  0  0  0  0  0  0  0  0  0  0
   11.7088  -17.2410   22.5506 O   0  0  0  0  0  0  0  0  0  0  0  0
  2  8  1  0
  2  1  1  6
  3  2  1  0
  4  3  1  0
  5  4  1  0
  6  5  1  0
  7  6  1  0
  8  9  2  0
 11 10  1  1
 12 11  1  0
 12  8  1  0
 13 14  2  0
 13 11  1  0
 15 16  1  0
 16 17  2  0
 18 16  1  0
 18 19  1  0
 19 20  1  0
 20 21  1  0
 22 21  1  1
 22 24  1  0
 22 23  1  0
 23 13  1  0
 24 26  1  0
 25 24  2  0
M  END
$$$$
