KAR.pdb
     RDKit          3D

 26 25  0  0  1  0  0  0  0  0999 V2000
    7.9080  -20.5124   16.3393 N   0  0  0  0  0  0  0  0  0  0  0  0
    8.6272  -19.4241   16.9043 C   0  0  1  0  0  0  0  0  0  0  0  0
    8.0593  -18.0721   16.6685 C   0  0  0  0  0  0  0  0  0  0  0  0
    7.5235  -17.7621   15.3313 C   0  0  0  0  0  0  0  0  0  0  0  0
    8.4341  -17.1968   14.3117 C   0  0  0  0  0  0  0  0  0  0  0  0
    7.8209  -16.8105   13.0078 C   0  0  0  0  0  0  0  0  0  0  0  0
    8.7305  -16.2919   12.0229 N   0  0  0  0  0  0  0  0  0  0  0  0
    8.9633  -19.5682   18.3446 C   0  0  0  0  0  0  0  0  0  0  0  0
    8.0401  -19.5868   19.2304 O   0  0  0  0  0  0  0  0  0  0  0  0
   11.7764  -20.6470   20.4375 C   0  0  0  0  0  0  0  0  0  0  0  0
   10.5236  -19.8112   20.2924 C   0  0  2  0  0  0  0  0  0  0  0  0
   10.2751  -19.6910   18.8474 N   0  0  0  0  0  0  0  0  0  0  0  0
   10.7130  -18.4238   20.8255 C   0  0  0  0  0  0  0  0  0  0  0  0
   10.9353  -17.4585   20.0391 O   0  0  0  0  0  0  0  0  0  0  0  0
    7.9699  -11.7946   20.7352 N   0  0  0  0  0  0  0  0  0  0  0  0
    8.0117  -12.8451   19.7512 C   0  0  0  0  0  0  0  0  0  0  0  0
    8.1258  -12.5201   18.4888 N   0  0  0  0  0  0  0  0  0  0  0  0
    7.9281  -14.1857   20.1830 N   0  0  0  0  0  0  0  0  0  0  0  0
    7.7097  -14.4023   21.6369 C   0  0  0  0  0  0  0  0  0  0  0  0
    9.0293  -14.7747   22.1867 C   0  0  0  0  0  0  0  0  0  0  0  0
    9.4302  -16.1649   22.0772 C   0  0  0  0  0  0  0  0  0  0  0  0
   10.6729  -16.6842   22.6820 C   0  0  2  0  0  0  0  0  0  0  0  0
   10.6548  -18.1296   22.1928 N   0  0  0  0  0  0  0  0  0  0  0  0
   10.7604  -16.7031   24.1188 C   0  0  0  0  0  0  0  0  0  0  0  0
   10.1515  -17.6727   24.7223 O   0  0  0  0  0  0  0  0  0  0  0  0
   11.4198  -15.8318   24.9668 O   0  0  0  0  0  0  0  0  0  0  0  0
  2  8  1  0
  2  1  1  1
  3  2  1  0
  4  3  1  0
  5  4  1  0
  6  5  1  0
  7  6  1  0
  8  9  2  0
 11 10  1  6
 12 11  1  0
 12  8  1  0
 13 14  2  0
 13 11  1  0
 15 16  1  0
 16 17  2  0
 18 16  1  0
 18 19  1  0
 19 20  1  0
 20 21  1  0
 22 21  1  1
 22 24  1  0
 22 23  1  0
 23 13  1  0
 24 26  1  0
 25 24  2  0
M  END
$$$$
