KAR.pdb
     RDKit          3D

 26 25  0  0  1  0  0  0  0  0999 V2000
   10.2372  -19.6747   21.8797 N   0  0  0  0  0  0  0  0  0  0  0  0
   11.5750  -19.8587   22.3240 C   0  0  1  0  0  0  0  0  0  0  0  0
   12.6410  -19.5215   21.3462 C   0  0  0  0  0  0  0  0  0  0  0  0
   12.8747  -20.4437   20.2209 C   0  0  0  0  0  0  0  0  0  0  0  0
   14.2564  -20.8923   19.9418 C   0  0  0  0  0  0  0  0  0  0  0  0
   14.4685  -21.6594   18.6799 C   0  0  0  0  0  0  0  0  0  0  0  0
   15.8385  -21.9369   18.3445 N   0  0  0  0  0  0  0  0  0  0  0  0
   11.8978  -19.2339   23.6331 C   0  0  0  0  0  0  0  0  0  0  0  0
   13.0482  -19.3997   24.1683 O   0  0  0  0  0  0  0  0  0  0  0  0
   10.4403  -16.7249   25.9422 C   0  0  0  0  0  0  0  0  0  0  0  0
   11.3972  -17.8658   25.6740 C   0  0  2  0  0  0  0  0  0  0  0  0
   11.0037  -18.4355   24.3760 N   0  0  0  0  0  0  0  0  0  0  0  0
   11.2661  -18.9560   26.6936 C   0  0  0  0  0  0  0  0  0  0  0  0
   10.3229  -19.7952   26.6186 O   0  0  0  0  0  0  0  0  0  0  0  0
   15.2047  -23.2497   32.4087 N   0  0  0  0  0  0  0  0  0  0  0  0
   15.7761  -21.9338   32.2844 C   0  0  0  0  0  0  0  0  0  0  0  0
   16.2656  -21.3573   33.3525 N   0  0  0  0  0  0  0  0  0  0  0  0
   15.7877  -21.3137   31.0172 N   0  0  0  0  0  0  0  0  0  0  0  0
   15.2170  -22.0964   29.8902 C   0  0  0  0  0  0  0  0  0  0  0  0
   13.7858  -21.7340   29.8380 C   0  0  0  0  0  0  0  0  0  0  0  0
   13.3933  -20.6969   28.9021 C   0  0  0  0  0  0  0  0  0  0  0  0
   11.9984  -20.2317   28.7697 C   0  0  2  0  0  0  0  0  0  0  0  0
   12.1619  -19.0996   27.7596 N   0  0  0  0  0  0  0  0  0  0  0  0
   11.3591  -19.6922   29.9413 C   0  0  0  0  0  0  0  0  0  0  0  0
   11.4674  -18.4153   30.1225 O   0  0  0  0  0  0  0  0  0  0  0  0
   10.6222  -20.3431   30.9142 O   0  0  0  0  0  0  0  0  0  0  0  0
  2  8  1  0
  2  1  1  6
  3  2  1  0
  4  3  1  0
  5  4  1  0
  6  5  1  0
  7  6  1  0
  8  9  2  0
 11 10  1  1
 12 11  1  0
 12  8  1  0
 13 14  2  0
 13 11  1  0
 15 16  1  0
 16 17  2  0
 18 16  1  0
 18 19  1  0
 19 20  1  0
 20 21  1  0
 22 21  1  1
 22 24  1  0
 22 23  1  0
 23 13  1  0
 24 26  1  0
 25 24  2  0
M  END
$$$$
