KAR.pdb
     RDKit          3D

 26 25  0  0  1  0  0  0  0  0999 V2000
    8.5634  -20.4989   16.9648 N   0  0  0  0  0  0  0  0  0  0  0  0
    9.7577  -19.8736   17.4159 C   0  0  1  0  0  0  0  0  0  0  0  0
   10.0698  -18.5508   16.8169 C   0  0  0  0  0  0  0  0  0  0  0  0
    9.9552  -18.4003   15.3556 C   0  0  0  0  0  0  0  0  0  0  0  0
   10.2831  -17.0932   14.7455 C   0  0  0  0  0  0  0  0  0  0  0  0
   10.0069  -16.9479   13.2866 C   0  0  0  0  0  0  0  0  0  0  0  0
   10.2454  -15.6415   12.7363 N   0  0  0  0  0  0  0  0  0  0  0  0
    9.9085  -19.7892   18.8919 C   0  0  0  0  0  0  0  0  0  0  0  0
    8.9430  -19.3760   19.6229 O   0  0  0  0  0  0  0  0  0  0  0  0
   12.2294  -21.0566   21.4740 C   0  0  0  0  0  0  0  0  0  0  0  0
   11.1179  -20.1155   21.0640 C   0  0  2  0  0  0  0  0  0  0  0  0
   11.0803  -20.1402   19.5936 N   0  0  0  0  0  0  0  0  0  0  0  0
   11.4018  -18.7030   21.4756 C   0  0  0  0  0  0  0  0  0  0  0  0
   12.1603  -17.9708   20.7770 O   0  0  0  0  0  0  0  0  0  0  0  0
    7.0029  -12.5276   20.1176 N   0  0  0  0  0  0  0  0  0  0  0  0
    7.8067  -13.5096   19.4371 C   0  0  0  0  0  0  0  0  0  0  0  0
    7.6547  -13.6617   18.1462 N   0  0  0  0  0  0  0  0  0  0  0  0
    8.7282  -14.2720   20.1856 N   0  0  0  0  0  0  0  0  0  0  0  0
    8.7716  -14.0118   21.6481 C   0  0  0  0  0  0  0  0  0  0  0  0
   10.0384  -14.6068   22.1210 C   0  0  0  0  0  0  0  0  0  0  0  0
    9.9969  -15.9786   22.5921 C   0  0  0  0  0  0  0  0  0  0  0  0
   11.2039  -16.7035   23.0366 C   0  0  2  0  0  0  0  0  0  0  0  0
   10.8537  -18.1321   22.6302 N   0  0  0  0  0  0  0  0  0  0  0  0
   11.5035  -16.7035   24.4447 C   0  0  0  0  0  0  0  0  0  0  0  0
   10.8287  -17.5282   25.1792 O   0  0  0  0  0  0  0  0  0  0  0  0
   12.4299  -15.9496   25.1422 O   0  0  0  0  0  0  0  0  0  0  0  0
  2  8  1  0
  2  1  1  1
  3  2  1  0
  4  3  1  0
  5  4  1  0
  6  5  1  0
  7  6  1  0
  8  9  2  0
 11 10  1  6
 12 11  1  0
 12  8  1  0
 13 14  2  0
 13 11  1  0
 15 16  1  0
 16 17  2  0
 18 16  1  0
 18 19  1  0
 19 20  1  0
 20 21  1  0
 22 21  1  1
 22 24  1  0
 22 23  1  0
 23 13  1  0
 24 26  1  0
 25 24  2  0
M  END
$$$$
