KAR.pdb
     RDKit          3D

 26 25  0  0  1  0  0  0  0  0999 V2000
    8.1587  -13.0084   16.7093 N   0  0  0  0  0  0  0  0  0  0  0  0
    7.9092  -14.1873   17.4636 C   0  0  1  0  0  0  0  0  0  0  0  0
    8.3543  -15.4638   16.8485 C   0  0  0  0  0  0  0  0  0  0  0  0
    7.6528  -15.9415   15.6439 C   0  0  0  0  0  0  0  0  0  0  0  0
    8.3323  -15.8360   14.3341 C   0  0  0  0  0  0  0  0  0  0  0  0
    7.6149  -16.4127   13.1601 C   0  0  0  0  0  0  0  0  0  0  0  0
    8.2837  -16.2762   11.8950 N   0  0  0  0  0  0  0  0  0  0  0  0
    8.3650  -14.1414   18.8773 C   0  0  0  0  0  0  0  0  0  0  0  0
    9.5686  -13.8151   19.1636 O   0  0  0  0  0  0  0  0  0  0  0  0
    6.8250  -14.3370   22.2591 C   0  0  0  0  0  0  0  0  0  0  0  0
    8.0400  -14.2560   21.3610 C   0  0  2  0  0  0  0  0  0  0  0  0
    7.5483  -14.4420   19.9870 N   0  0  0  0  0  0  0  0  0  0  0  0
    9.0125  -15.3621   21.6362 C   0  0  0  0  0  0  0  0  0  0  0  0
    8.8328  -16.5127   21.1427 O   0  0  0  0  0  0  0  0  0  0  0  0
   16.8136  -16.5510   21.1391 N   0  0  0  0  0  0  0  0  0  0  0  0
   17.0531  -16.4211   22.5531 C   0  0  0  0  0  0  0  0  0  0  0  0
   18.2798  -16.2338   22.9686 N   0  0  0  0  0  0  0  0  0  0  0  0
   15.9579  -16.5005   23.4390 N   0  0  0  0  0  0  0  0  0  0  0  0
   14.8512  -15.5345   23.2142 C   0  0  0  0  0  0  0  0  0  0  0  0
   13.6302  -16.3538   23.0714 C   0  0  0  0  0  0  0  0  0  0  0  0
   12.3873  -15.6576   22.7959 C   0  0  0  0  0  0  0  0  0  0  0  0
   11.0850  -16.3503   22.7329 C   0  0  2  0  0  0  0  0  0  0  0  0
   10.1469  -15.1836   22.4366 N   0  0  0  0  0  0  0  0  0  0  0  0
   10.6167  -17.0040   23.9269 C   0  0  0  0  0  0  0  0  0  0  0  0
   11.1976  -18.1167   24.2423 O   0  0  0  0  0  0  0  0  0  0  0  0
    9.6294  -16.6086   24.8113 O   0  0  0  0  0  0  0  0  0  0  0  0
  2  8  1  0
  2  1  1  6
  3  2  1  0
  4  3  1  0
  5  4  1  0
  6  5  1  0
  7  6  1  0
  8  9  2  0
 11 10  1  1
 12 11  1  0
 12  8  1  0
 13 14  2  0
 13 11  1  0
 15 16  1  0
 16 17  2  0
 18 16  1  0
 18 19  1  0
 19 20  1  0
 20 21  1  0
 22 21  1  1
 22 24  1  0
 22 23  1  0
 23 13  1  0
 24 26  1  0
 25 24  2  0
M  END
$$$$
