DSC.pdb
     RDKit          3D

 21 20  0  0  1  0  0  0  0  0999 V2000
   14.2452   -9.9917  -13.1167 N   0  0  0  0  0  0  0  0  0  0  0  0
   15.4225  -10.1984  -12.3041 C   0  0  1  0  0  0  0  0  0  0  0  0
   16.3123  -11.2135  -12.9435 C   0  0  0  0  0  0  0  0  0  0  0  0
   15.7766  -12.5751  -12.7871 C   0  0  0  0  0  0  0  0  0  0  0  0
   14.7702  -12.7576  -12.0723 O   0  0  0  0  0  0  0  0  0  0  0  0
   16.1187   -8.8902  -12.1379 C   0  0  0  0  0  0  0  0  0  0  0  0
   16.2540   -8.1603  -13.1751 O   0  0  0  0  0  0  0  0  0  0  0  0
   16.3721  -13.6508  -13.4192 O   0  0  0  0  0  0  0  0  0  0  0  0
   16.0121   -6.7251   -8.7967 O   0  0  0  0  0  0  0  0  0  0  0  0
   17.3242   -6.8293   -9.2540 C   0  0  0  0  0  0  0  0  0  0  0  0
   17.3101   -7.2357  -10.7076 C   0  0  2  0  0  0  0  0  0  0  0  0
   16.6079   -8.4838  -10.8710 N   0  0  0  0  0  0  0  0  0  0  0  0
   18.6464   -7.3482  -11.2880 C   0  0  0  0  0  0  0  0  0  0  0  0
   19.3125   -8.4153  -11.3478 O   0  0  0  0  0  0  0  0  0  0  0  0
   19.2711   -6.1971  -11.8323 N   0  0  0  0  0  0  0  0  0  0  0  0
   20.5895   -6.2802  -12.4245 C   0  0  1  0  0  0  0  0  0  0  0  0
   20.4854   -7.2127  -13.6123 C   0  0  0  0  0  0  0  0  0  0  0  0
   22.0681   -7.3069  -14.4963 S   0  0  0  0  0  0  0  0  0  0  0  0
   21.0629   -4.9770  -12.9237 C   0  0  0  0  0  0  0  0  0  0  0  0
   20.3161   -4.0935  -13.4141 O   0  0  0  0  0  0  0  0  0  0  0  0
   22.4209   -4.7071  -12.8476 O   0  0  0  0  0  0  0  0  0  0  0  0
  2  1  1  6
  2  3  1  0
  3  4  1  0
  4  8  1  0
  4  5  2  0
  6  2  1  0
  7  6  2  0
 10  9  1  0
 11 10  1  1
 11 12  1  0
 12  6  1  0
 13 11  1  0
 13 15  1  0
 14 13  2  0
 16 15  1  0
 16 19  1  0
 16 17  1  6
 18 17  1  0
 19 21  1  0
 20 19  2  0
M  END
$$$$
