DSC.pdb
     RDKit          3D

 21 20  0  0  1  0  0  0  0  0999 V2000
   17.5300  -11.2966  -10.7157 N   0  0  0  0  0  0  0  0  0  0  0  0
   16.8857  -10.2128  -11.4222 C   0  0  1  0  0  0  0  0  0  0  0  0
   15.4283  -10.5001  -11.5784 C   0  0  0  0  0  0  0  0  0  0  0  0
   15.1939  -11.5975  -12.5304 C   0  0  0  0  0  0  0  0  0  0  0  0
   14.9497  -12.7416  -12.0962 O   0  0  0  0  0  0  0  0  0  0  0  0
   17.1144   -8.9502  -10.6625 C   0  0  0  0  0  0  0  0  0  0  0  0
   16.9474   -8.9863   -9.3985 O   0  0  0  0  0  0  0  0  0  0  0  0
   15.2411  -11.3781  -13.8945 O   0  0  0  0  0  0  0  0  0  0  0  0
   17.7850   -5.3048  -12.6272 O   0  0  0  0  0  0  0  0  0  0  0  0
   18.4852   -5.5511  -11.4480 C   0  0  0  0  0  0  0  0  0  0  0  0
   17.7056   -6.5316  -10.6059 C   0  0  2  0  0  0  0  0  0  0  0  0
   17.5018   -7.7611  -11.3299 N   0  0  0  0  0  0  0  0  0  0  0  0
   16.4162   -6.0096  -10.1582 C   0  0  0  0  0  0  0  0  0  0  0  0
   15.3474   -6.0799  -10.8205 O   0  0  0  0  0  0  0  0  0  0  0  0
   16.3210   -5.3720   -8.8949 N   0  0  0  0  0  0  0  0  0  0  0  0
   15.1032   -4.6990   -8.4950 C   0  0  1  0  0  0  0  0  0  0  0  0
   14.7462   -5.2084   -7.1150 C   0  0  0  0  0  0  0  0  0  0  0  0
   14.2216   -6.9448   -7.1866 S   0  0  0  0  0  0  0  0  0  0  0  0
   15.2757   -3.2387   -8.3981 C   0  0  0  0  0  0  0  0  0  0  0  0
   16.3768   -2.6466   -8.5230 O   0  0  0  0  0  0  0  0  0  0  0  0
   14.1501   -2.4669   -8.1532 O   0  0  0  0  0  0  0  0  0  0  0  0
  2  1  1  1
  2  3  1  0
  3  4  1  0
  4  8  1  0
  4  5  2  0
  6  2  1  0
  7  6  2  0
 10  9  1  0
 11 10  1  6
 11 12  1  0
 12  6  1  0
 13 11  1  0
 13 15  1  0
 14 13  2  0
 16 15  1  0
 16 19  1  0
 16 17  1  1
 18 17  1  0
 19 21  1  0
 20 19  2  0
M  END
$$$$
