DSC.pdb
     RDKit          3D

 21 20  0  0  1  0  0  0  0  0999 V2000
   17.5831  -12.1326  -14.9976 N   0  0  0  0  0  0  0  0  0  0  0  0
   16.5209  -11.2542  -14.5626 C   0  0  1  0  0  0  0  0  0  0  0  0
   15.2813  -12.0443  -14.2977 C   0  0  0  0  0  0  0  0  0  0  0  0
   14.4820  -12.2198  -15.5207 C   0  0  0  0  0  0  0  0  0  0  0  0
   14.8294  -11.6354  -16.5670 O   0  0  0  0  0  0  0  0  0  0  0  0
   16.9765  -10.5287  -13.3421 C   0  0  0  0  0  0  0  0  0  0  0  0
   17.4149  -11.2295  -12.3708 O   0  0  0  0  0  0  0  0  0  0  0  0
   13.3550  -13.0204  -15.5251 O   0  0  0  0  0  0  0  0  0  0  0  0
   18.0323   -6.5800  -13.5371 O   0  0  0  0  0  0  0  0  0  0  0  0
   18.5428   -7.4558  -12.5811 C   0  0  0  0  0  0  0  0  0  0  0  0
   17.4495   -8.3988  -12.1410 C   0  0  2  0  0  0  0  0  0  0  0  0
   16.9195   -9.1138  -13.2747 N   0  0  0  0  0  0  0  0  0  0  0  0
   16.3601   -7.7289  -11.4340 C   0  0  0  0  0  0  0  0  0  0  0  0
   15.3274   -7.2658  -11.9863 O   0  0  0  0  0  0  0  0  0  0  0  0
   16.4340   -7.5696  -10.0267 N   0  0  0  0  0  0  0  0  0  0  0  0
   15.4954   -6.7174   -9.3276 C   0  0  1  0  0  0  0  0  0  0  0  0
   15.3366   -7.2818   -7.9321 C   0  0  0  0  0  0  0  0  0  0  0  0
   14.1675   -6.2851   -6.9649 S   0  0  0  0  0  0  0  0  0  0  0  0
   15.9863   -5.3343   -9.1937 C   0  0  0  0  0  0  0  0  0  0  0  0
   17.1957   -5.0233   -9.0548 O   0  0  0  0  0  0  0  0  0  0  0  0
   15.0536   -4.3088   -9.2230 O   0  0  0  0  0  0  0  0  0  0  0  0
  2  1  1  1
  2  3  1  0
  3  4  1  0
  4  8  1  0
  4  5  2  0
  6  2  1  0
  7  6  2  0
 10  9  1  0
 11 10  1  6
 11 12  1  0
 12  6  1  0
 13 11  1  0
 13 15  1  0
 14 13  2  0
 16 15  1  0
 16 19  1  0
 16 17  1  1
 18 17  1  0
 19 21  1  0
 20 19  2  0
M  END
$$$$
