DSC.pdb
     RDKit          3D

 21 20  0  0  1  0  0  0  0  0999 V2000
   14.8430  -11.7759  -14.9682 N   0  0  0  0  0  0  0  0  0  0  0  0
   15.9974  -11.5288  -14.1343 C   0  0  1  0  0  0  0  0  0  0  0  0
   17.0972  -12.4740  -14.4919 C   0  0  0  0  0  0  0  0  0  0  0  0
   16.7289  -13.8674  -14.1947 C   0  0  0  0  0  0  0  0  0  0  0  0
   16.2071  -14.1403  -13.0946 O   0  0  0  0  0  0  0  0  0  0  0  0
   16.4173  -10.1096  -14.3156 C   0  0  0  0  0  0  0  0  0  0  0  0
   16.0250   -9.5106  -15.3712 O   0  0  0  0  0  0  0  0  0  0  0  0
   16.9532  -14.8742  -15.1152 O   0  0  0  0  0  0  0  0  0  0  0  0
   16.5738   -7.6506  -11.3224 O   0  0  0  0  0  0  0  0  0  0  0  0
   16.5346   -7.2440  -12.6546 C   0  0  0  0  0  0  0  0  0  0  0  0
   17.5286   -8.0563  -13.4486 C   0  0  2  0  0  0  0  0  0  0  0  0
   17.2223   -9.4609  -13.3457 N   0  0  0  0  0  0  0  0  0  0  0  0
   18.9140   -7.8282  -13.0437 C   0  0  0  0  0  0  0  0  0  0  0  0
   19.4017   -8.1757  -11.9359 O   0  0  0  0  0  0  0  0  0  0  0  0
   19.8030   -7.1722  -13.9331 N   0  0  0  0  0  0  0  0  0  0  0  0
   21.1839   -6.9423  -13.5641 C   0  0  1  0  0  0  0  0  0  0  0  0
   22.0409   -7.4910  -14.6848 C   0  0  0  0  0  0  0  0  0  0  0  0
   21.7907   -9.2796  -14.8686 S   0  0  0  0  0  0  0  0  0  0  0  0
   21.4963   -5.5086  -13.4278 C   0  0  0  0  0  0  0  0  0  0  0  0
   20.7298   -4.5802  -13.7871 O   0  0  0  0  0  0  0  0  0  0  0  0
   22.7155   -5.1604  -12.8665 O   0  0  0  0  0  0  0  0  0  0  0  0
  2  1  1  6
  2  3  1  0
  3  4  1  0
  4  8  1  0
  4  5  2  0
  6  2  1  0
  7  6  2  0
 10  9  1  0
 11 10  1  1
 11 12  1  0
 12  6  1  0
 13 11  1  0
 13 15  1  0
 14 13  2  0
 16 15  1  0
 16 19  1  0
 16 17  1  6
 18 17  1  0
 19 21  1  0
 20 19  2  0
M  END
$$$$
