DSC.pdb
     RDKit          3D

 21 20  0  0  1  0  0  0  0  0999 V2000
   17.6709  -13.6135  -16.8369 N   0  0  0  0  0  0  0  0  0  0  0  0
   17.2873  -12.3782  -16.1920 C   0  0  1  0  0  0  0  0  0  0  0  0
   17.3397  -12.5393  -14.7080 C   0  0  0  0  0  0  0  0  0  0  0  0
   16.3724  -13.5447  -14.2402 C   0  0  0  0  0  0  0  0  0  0  0  0
   15.1578  -13.2595  -14.2159 O   0  0  0  0  0  0  0  0  0  0  0  0
   18.2038  -11.2974  -16.6561 C   0  0  0  0  0  0  0  0  0  0  0  0
   19.2295  -11.6453  -17.3297 O   0  0  0  0  0  0  0  0  0  0  0  0
   16.7905  -14.7964  -13.8283 O   0  0  0  0  0  0  0  0  0  0  0  0
   18.9164   -7.1313  -18.4389 O   0  0  0  0  0  0  0  0  0  0  0  0
   18.0481   -8.0798  -17.9023 C   0  0  0  0  0  0  0  0  0  0  0  0
   18.7796   -8.8825  -16.8541 C   0  0  2  0  0  0  0  0  0  0  0  0
   17.9359   -9.9385  -16.3539 N   0  0  0  0  0  0  0  0  0  0  0  0
   19.2595   -8.0712  -15.7374 C   0  0  0  0  0  0  0  0  0  0  0  0
   18.5518   -7.7092  -14.7606 O   0  0  0  0  0  0  0  0  0  0  0  0
   20.6109   -7.6414  -15.7159 N   0  0  0  0  0  0  0  0  0  0  0  0
   21.1183   -6.8482  -14.6162 C   0  0  1  0  0  0  0  0  0  0  0  0
   22.5865   -7.1843  -14.4658 C   0  0  0  0  0  0  0  0  0  0  0  0
   22.7999   -8.9010  -13.9157 S   0  0  0  0  0  0  0  0  0  0  0  0
   21.0188   -5.4011  -14.8762 C   0  0  0  0  0  0  0  0  0  0  0  0
   20.6489   -4.9023  -15.9686 O   0  0  0  0  0  0  0  0  0  0  0  0
   21.3548   -4.5324  -13.8490 O   0  0  0  0  0  0  0  0  0  0  0  0
  2  1  1  6
  2  3  1  0
  3  4  1  0
  4  8  1  0
  4  5  2  0
  6  2  1  0
  7  6  2  0
 10  9  1  0
 11 10  1  6
 11 12  1  0
 12  6  1  0
 13 11  1  0
 13 15  1  0
 14 13  2  0
 16 15  1  0
 16 19  1  0
 16 17  1  6
 18 17  1  0
 19 21  1  0
 20 19  2  0
M  END
$$$$
