DSC.pdb
     RDKit          3D

 21 20  0  0  1  0  0  0  0  0999 V2000
   18.2520  -10.9669  -14.6363 N   0  0  0  0  0  0  0  0  0  0  0  0
   17.1005  -10.2035  -14.2118 C   0  0  1  0  0  0  0  0  0  0  0  0
   15.9404  -11.1154  -13.9804 C   0  0  0  0  0  0  0  0  0  0  0  0
   15.3759  -11.6026  -15.2491 C   0  0  0  0  0  0  0  0  0  0  0  0
   14.8293  -12.7238  -15.2842 O   0  0  0  0  0  0  0  0  0  0  0  0
   17.4599   -9.4532  -12.9743 C   0  0  0  0  0  0  0  0  0  0  0  0
   18.1094  -10.0811  -12.0739 O   0  0  0  0  0  0  0  0  0  0  0  0
   15.4436  -10.8371  -16.3983 O   0  0  0  0  0  0  0  0  0  0  0  0
   17.9426   -5.4564  -12.9822 O   0  0  0  0  0  0  0  0  0  0  0  0
   18.4832   -6.2887  -12.0042 C   0  0  0  0  0  0  0  0  0  0  0  0
   17.4712   -7.3486  -11.6428 C   0  0  2  0  0  0  0  0  0  0  0  0
   17.0881   -8.0946  -12.8150 N   0  0  0  0  0  0  0  0  0  0  0  0
   16.2770   -6.8091  -10.9961 C   0  0  0  0  0  0  0  0  0  0  0  0
   15.2493   -6.4141  -11.6075 O   0  0  0  0  0  0  0  0  0  0  0  0
   16.2338   -6.7068   -9.5821 N   0  0  0  0  0  0  0  0  0  0  0  0
   15.1240   -6.0538   -8.9205 C   0  0  1  0  0  0  0  0  0  0  0  0
   14.9599   -6.7161   -7.5693 C   0  0  0  0  0  0  0  0  0  0  0  0
   14.3930   -8.4302   -7.7582 S   0  0  0  0  0  0  0  0  0  0  0  0
   15.3764   -4.6212   -8.6847 C   0  0  0  0  0  0  0  0  0  0  0  0
   16.4903   -4.0630   -8.8471 O   0  0  0  0  0  0  0  0  0  0  0  0
   14.3162   -3.8372   -8.2558 O   0  0  0  0  0  0  0  0  0  0  0  0
  2  1  1  1
  2  3  1  0
  3  4  1  0
  4  8  1  0
  4  5  2  0
  6  2  1  0
  7  6  2  0
 10  9  1  0
 11 10  1  6
 11 12  1  0
 12  6  1  0
 13 11  1  0
 13 15  1  0
 14 13  2  0
 16 15  1  0
 16 19  1  0
 16 17  1  1
 18 17  1  0
 19 21  1  0
 20 19  2  0
M  END
$$$$
