IYP.pdb
     RDKit          3D

 28 29  0  0  1  0  0  0  0  0999 V2000
    7.1484  -23.1381   21.3574 C   0  0  0  0  0  0  0  0  0  0  0  0
    6.2920  -22.5444   22.4388 C   0  0  0  0  0  0  0  0  0  0  0  0
    6.4279  -21.0612   22.5665 C   0  0  2  0  0  0  0  0  0  0  0  0
    7.8469  -20.6750   22.8532 C   0  0  0  0  0  0  0  0  0  0  0  0
    5.5045  -20.4662   23.6262 C   0  0  2  0  0  0  0  0  0  0  0  0
    4.1201  -20.6563   23.1531 N   0  0  0  0  0  0  0  0  0  0  0  0
    5.7466  -19.0190   23.7122 C   0  0  0  0  0  0  0  0  0  0  0  0
    5.3308  -18.2396   22.7985 O   0  0  0  0  0  0  0  0  0  0  0  0
    7.5062  -10.9558   26.4468 O   0  0  0  0  0  0  0  0  0  0  0  0
    7.3842  -12.3175   26.3919 C   0  0  0  0  0  0  0  0  0  0  0  0
    8.4966  -13.1472   26.3904 C   0  0  0  0  0  0  0  0  0  0  0  0
    8.4040  -14.5026   26.3365 C   0  0  0  0  0  0  0  0  0  0  0  0
    7.1496  -15.0879   26.2807 C   0  0  0  0  0  0  0  0  0  0  0  0
    7.0323  -16.5464   26.2223 C   0  0  0  0  0  0  0  0  0  0  0  0
    6.7834  -16.9819   24.7381 C   0  0  2  0  0  0  0  0  0  0  0  0
    6.4473  -18.3730   24.8016 N   0  0  0  0  0  0  0  0  0  0  0  0
    7.9264  -16.5280   24.0057 C   0  0  0  0  0  0  0  0  0  0  0  0
    9.0479  -17.1065   24.3107 O   0  0  0  0  0  0  0  0  0  0  0  0
    6.0443  -14.2708   26.2820 C   0  0  0  0  0  0  0  0  0  0  0  0
    6.1444  -12.9020   26.3365 C   0  0  0  0  0  0  0  0  0  0  0  0
    7.9996  -15.5425   23.0006 N   0  0  0  0  0  0  0  0  0  0  0  0
    6.9155  -14.7261   22.5325 C   0  0  0  0  0  0  0  0  0  0  0  0
    7.4122  -14.0987   21.2045 C   0  0  0  0  0  0  0  0  0  0  0  0
    8.8799  -13.9435   21.5139 C   0  0  0  0  0  0  0  0  0  0  0  0
    9.1770  -15.2423   22.1992 C   0  0  1  0  0  0  0  0  0  0  0  0
   10.4178  -15.1337   23.0190 C   0  0  0  0  0  0  0  0  0  0  0  0
   11.6198  -15.0579   22.3488 O   0  0  0  0  0  0  0  0  0  0  0  0
   10.3856  -15.1114   24.2452 O   0  0  0  0  0  0  0  0  0  0  0  0
  1  2  1  0
  2  3  1  0
  3  4  1  1
  5  3  1  0
  5  6  1  6
  7  8  2  0
  7  5  1  0
  9 10  1  0
 10 11  2  0
 11 12  1  0
 13 12  2  0
 13 14  1  0
 15 14  1  1
 15 16  1  0
 16  7  1  0
 17 21  1  0
 17 15  1  0
 18 17  2  0
 19 13  1  0
 20 10  1  0
 20 19  2  0
 21 25  1  0
 22 21  1  0
 23 22  1  0
 23 24  1  0
 24 25  1  0
 25 26  1  1
 26 28  2  0
 26 27  1  0
M  END
$$$$
