IYP.pdb
     RDKit          3D

 28 29  0  0  1  0  0  0  0  0999 V2000
    5.3292  -11.1535   28.3283 C   0  0  0  0  0  0  0  0  0  0  0  0
    5.0640  -12.2443   27.3307 C   0  0  0  0  0  0  0  0  0  0  0  0
    6.2258  -12.5362   26.4365 C   0  0  2  0  0  0  0  0  0  0  0  0
    6.6923  -11.2944   25.7399 C   0  0  0  0  0  0  0  0  0  0  0  0
    5.9299  -13.6263   25.4101 C   0  0  2  0  0  0  0  0  0  0  0  0
    5.7086  -14.8789   26.1573 N   0  0  0  0  0  0  0  0  0  0  0  0
    7.1165  -13.8207   24.5645 C   0  0  0  0  0  0  0  0  0  0  0  0
    7.4872  -12.9145   23.7543 O   0  0  0  0  0  0  0  0  0  0  0  0
   11.0499  -15.1526   29.6241 O   0  0  0  0  0  0  0  0  0  0  0  0
   10.7773  -15.4284   28.3119 C   0  0  0  0  0  0  0  0  0  0  0  0
   10.0379  -16.5430   27.9420 C   0  0  0  0  0  0  0  0  0  0  0  0
    9.7527  -16.8405   26.6463 C   0  0  0  0  0  0  0  0  0  0  0  0
   10.2162  -16.0003   25.6472 C   0  0  0  0  0  0  0  0  0  0  0  0
    9.9178  -16.3064   24.2466 C   0  0  0  0  0  0  0  0  0  0  0  0
    9.0227  -15.1663   23.6520 C   0  0  2  0  0  0  0  0  0  0  0  0
    7.9414  -15.0100   24.5785 N   0  0  0  0  0  0  0  0  0  0  0  0
    8.7843  -15.5336   22.2893 C   0  0  0  0  0  0  0  0  0  0  0  0
    8.7200  -16.8101   22.0606 O   0  0  0  0  0  0  0  0  0  0  0  0
   10.9491  -14.8948   26.0079 C   0  0  0  0  0  0  0  0  0  0  0  0
   11.2340  -14.5996   27.3187 C   0  0  0  0  0  0  0  0  0  0  0  0
    8.6088  -14.7009   21.1657 N   0  0  0  0  0  0  0  0  0  0  0  0
    8.4621  -13.2730   21.1827 C   0  0  0  0  0  0  0  0  0  0  0  0
    7.9315  -12.8938   19.7760 C   0  0  0  0  0  0  0  0  0  0  0  0
    8.6228  -13.9397   18.9380 C   0  0  0  0  0  0  0  0  0  0  0  0
    8.4588  -15.1595   19.7923 C   0  0  1  0  0  0  0  0  0  0  0  0
    9.4597  -16.2009   19.4217 C   0  0  0  0  0  0  0  0  0  0  0  0
    9.1946  -16.9727   18.3109 O   0  0  0  0  0  0  0  0  0  0  0  0
   10.4855  -16.3757   20.0715 O   0  0  0  0  0  0  0  0  0  0  0  0
  1  2  1  0
  2  3  1  0
  3  4  1  6
  5  3  1  0
  5  6  1  1
  7  8  2  0
  7  5  1  0
  9 10  1  0
 10 11  2  0
 11 12  1  0
 13 12  2  0
 13 14  1  0
 15 14  1  1
 15 16  1  0
 16  7  1  0
 17 21  1  0
 17 15  1  0
 18 17  2  0
 19 13  1  0
 20 10  1  0
 20 19  2  0
 21 25  1  0
 22 21  1  0
 23 22  1  0
 23 24  1  0
 24 25  1  0
 25 26  1  6
 26 28  2  0
 26 27  1  0
M  END
$$$$
