IYP.pdb
     RDKit          3D

 28 29  0  0  1  0  0  0  0  0999 V2000
    7.9242  -12.2145   20.0621 C   0  0  0  0  0  0  0  0  0  0  0  0
    7.2070  -13.4734   20.4573 C   0  0  0  0  0  0  0  0  0  0  0  0
    8.0010  -14.7173   20.2188 C   0  0  2  0  0  0  0  0  0  0  0  0
    8.4469  -14.8039   18.7910 C   0  0  0  0  0  0  0  0  0  0  0  0
    7.2494  -15.9883   20.6052 C   0  0  2  0  0  0  0  0  0  0  0  0
    5.9486  -15.9528   19.9101 N   0  0  0  0  0  0  0  0  0  0  0  0
    6.9786  -15.9623   22.0497 C   0  0  0  0  0  0  0  0  0  0  0  0
    6.0108  -15.2813   22.5128 O   0  0  0  0  0  0  0  0  0  0  0  0
    9.2720  -17.6315   30.3852 O   0  0  0  0  0  0  0  0  0  0  0  0
    8.8482  -17.7079   29.0864 C   0  0  0  0  0  0  0  0  0  0  0  0
    9.6846  -18.1577   28.0745 C   0  0  0  0  0  0  0  0  0  0  0  0
    9.2894  -18.2435   26.7764 C   0  0  0  0  0  0  0  0  0  0  0  0
    7.9987  -17.8680   26.4416 C   0  0  0  0  0  0  0  0  0  0  0  0
    7.5572  -17.9544   25.0480 C   0  0  0  0  0  0  0  0  0  0  0  0
    7.5017  -16.5127   24.4373 C   0  0  2  0  0  0  0  0  0  0  0  0
    7.7532  -16.6833   23.0374 N   0  0  0  0  0  0  0  0  0  0  0  0
    8.3645  -15.7142   25.2538 C   0  0  0  0  0  0  0  0  0  0  0  0
    9.6318  -15.9739   25.1433 O   0  0  0  0  0  0  0  0  0  0  0  0
    7.1660  -17.4218   27.4400 C   0  0  0  0  0  0  0  0  0  0  0  0
    7.5711  -17.3373   28.7497 C   0  0  0  0  0  0  0  0  0  0  0  0
    8.0268  -14.6865   26.1574 N   0  0  0  0  0  0  0  0  0  0  0  0
    6.7085  -14.1763   26.4077 C   0  0  0  0  0  0  0  0  0  0  0  0
    6.9178  -12.8433   27.1715 C   0  0  0  0  0  0  0  0  0  0  0  0
    8.1586  -13.1784   27.9603 C   0  0  0  0  0  0  0  0  0  0  0  0
    8.9757  -13.9018   26.9338 C   0  0  1  0  0  0  0  0  0  0  0  0
   10.0183  -14.7437   27.5879 C   0  0  0  0  0  0  0  0  0  0  0  0
   11.0906  -14.0969   28.1637 O   0  0  0  0  0  0  0  0  0  0  0  0
    9.9381  -15.9674   27.6201 O   0  0  0  0  0  0  0  0  0  0  0  0
  1  2  1  0
  2  3  1  0
  3  4  1  6
  5  3  1  0
  5  6  1  6
  7  8  2  0
  7  5  1  0
  9 10  1  0
 10 11  2  0
 11 12  1  0
 13 12  2  0
 13 14  1  0
 15 14  1  1
 15 16  1  0
 16  7  1  0
 17 21  1  0
 17 15  1  0
 18 17  2  0
 19 13  1  0
 20 10  1  0
 20 19  2  0
 21 25  1  0
 22 21  1  0
 23 22  1  0
 23 24  1  0
 24 25  1  0
 25 26  1  1
 26 28  2  0
 26 27  1  0
M  END
$$$$
