IYP.pdb
     RDKit          3D

 28 29  0  0  1  0  0  0  0  0999 V2000
    0.9671  -20.9730   21.9996 C   0  0  0  0  0  0  0  0  0  0  0  0
    2.4667  -20.9090   22.0516 C   0  0  0  0  0  0  0  0  0  0  0  0
    3.0093  -19.5162   22.0396 C   0  0  2  0  0  0  0  0  0  0  0  0
    2.5020  -18.7527   20.8544 C   0  0  0  0  0  0  0  0  0  0  0  0
    4.5346  -19.4696   22.0721 C   0  0  2  0  0  0  0  0  0  0  0  0
    4.9771  -20.4264   23.1041 N   0  0  0  0  0  0  0  0  0  0  0  0
    4.9623  -18.1300   22.4999 C   0  0  0  0  0  0  0  0  0  0  0  0
    4.7516  -17.1183   21.7602 O   0  0  0  0  0  0  0  0  0  0  0  0
    7.8067  -11.2960   27.0597 O   0  0  0  0  0  0  0  0  0  0  0  0
    7.5121  -12.5785   26.6849 C   0  0  0  0  0  0  0  0  0  0  0  0
    6.2011  -13.0121   26.5463 C   0  0  0  0  0  0  0  0  0  0  0  0
    5.8805  -14.2803   26.1754 C   0  0  0  0  0  0  0  0  0  0  0  0
    6.8998  -15.1838   25.9233 C   0  0  0  0  0  0  0  0  0  0  0  0
    6.5715  -16.5536   25.5229 C   0  0  0  0  0  0  0  0  0  0  0  0
    6.2401  -16.5748   23.9918 C   0  0  2  0  0  0  0  0  0  0  0  0
    5.6307  -17.8490   23.7526 N   0  0  0  0  0  0  0  0  0  0  0  0
    7.4510  -16.1960   23.3294 C   0  0  0  0  0  0  0  0  0  0  0  0
    8.4557  -16.9995   23.5050 O   0  0  0  0  0  0  0  0  0  0  0  0
    8.2002  -14.7597   26.0591 C   0  0  0  0  0  0  0  0  0  0  0  0
    8.5178  -13.4771   26.4342 C   0  0  0  0  0  0  0  0  0  0  0  0
    7.7002  -15.0737   22.5138 N   0  0  0  0  0  0  0  0  0  0  0  0
    6.7459  -14.0690   22.1388 C   0  0  0  0  0  0  0  0  0  0  0  0
    7.3990  -13.2940   20.9654 C   0  0  0  0  0  0  0  0  0  0  0  0
    8.8496  -13.3665   21.3708 C   0  0  0  0  0  0  0  0  0  0  0  0
    8.9563  -14.7865   21.8367 C   0  0  1  0  0  0  0  0  0  0  0  0
   10.1412  -14.9621   22.7249 C   0  0  0  0  0  0  0  0  0  0  0  0
   11.3869  -14.9505   22.1351 O   0  0  0  0  0  0  0  0  0  0  0  0
   10.0270  -15.1123   23.9371 O   0  0  0  0  0  0  0  0  0  0  0  0
  1  2  1  0
  2  3  1  0
  3  4  1  6
  5  3  1  0
  5  6  1  1
  7  8  2  0
  7  5  1  0
  9 10  1  0
 10 11  2  0
 11 12  1  0
 13 12  2  0
 13 14  1  0
 15 14  1  1
 15 16  1  0
 16  7  1  0
 17 21  1  0
 17 15  1  0
 18 17  2  0
 19 13  1  0
 20 10  1  0
 20 19  2  0
 21 25  1  0
 22 21  1  0
 23 22  1  0
 23 24  1  0
 24 25  1  0
 25 26  1  1
 26 28  2  0
 26 27  1  0
M  END
$$$$
