IYP.pdb
     RDKit          3D

 28 29  0  0  1  0  0  0  0  0999 V2000
    6.8788  -16.5050   17.3956 C   0  0  0  0  0  0  0  0  0  0  0  0
    6.7661  -15.2678   18.2394 C   0  0  0  0  0  0  0  0  0  0  0  0
    7.5157  -15.3506   19.5301 C   0  0  2  0  0  0  0  0  0  0  0  0
    7.2007  -16.6247   20.2529 C   0  0  0  0  0  0  0  0  0  0  0  0
    7.2593  -14.1575   20.4468 C   0  0  2  0  0  0  0  0  0  0  0  0
    7.7336  -12.9541   19.7374 N   0  0  0  0  0  0  0  0  0  0  0  0
    8.0749  -14.3043   21.6608 C   0  0  0  0  0  0  0  0  0  0  0  0
    9.3406  -14.2056   21.6039 O   0  0  0  0  0  0  0  0  0  0  0  0
   10.7713  -14.7193   29.9443 O   0  0  0  0  0  0  0  0  0  0  0  0
    9.9841  -14.6407   28.8279 C   0  0  0  0  0  0  0  0  0  0  0  0
    9.9195  -13.4836   28.0645 C   0  0  0  0  0  0  0  0  0  0  0  0
    9.1461  -13.3783   26.9512 C   0  0  0  0  0  0  0  0  0  0  0  0
    8.3875  -14.4679   26.5556 C   0  0  0  0  0  0  0  0  0  0  0  0
    7.5491  -14.3711   25.3589 C   0  0  0  0  0  0  0  0  0  0  0  0
    8.4014  -14.7592   24.1029 C   0  0  2  0  0  0  0  0  0  0  0  0
    7.5352  -14.5593   22.9795 N   0  0  0  0  0  0  0  0  0  0  0  0
    8.9530  -16.0476   24.3937 C   0  0  0  0  0  0  0  0  0  0  0  0
    8.1008  -16.9381   24.8017 O   0  0  0  0  0  0  0  0  0  0  0  0
    8.4478  -15.6165   27.3081 C   0  0  0  0  0  0  0  0  0  0  0  0
    9.2311  -15.7167   28.4319 C   0  0  0  0  0  0  0  0  0  0  0  0
   10.2910  -16.4802   24.2966 N   0  0  0  0  0  0  0  0  0  0  0  0
   11.3723  -15.7619   23.6837 C   0  0  0  0  0  0  0  0  0  0  0  0
   12.5109  -16.7991   23.5056 C   0  0  0  0  0  0  0  0  0  0  0  0
   12.2839  -17.6581   24.7241 C   0  0  0  0  0  0  0  0  0  0  0  0
   10.7905  -17.7775   24.7282 C   0  0  1  0  0  0  0  0  0  0  0  0
   10.2963  -18.1624   26.0814 C   0  0  0  0  0  0  0  0  0  0  0  0
   10.6120  -19.4231   26.5402 O   0  0  0  0  0  0  0  0  0  0  0  0
    9.6323  -17.3961   26.7720 O   0  0  0  0  0  0  0  0  0  0  0  0
  1  2  1  0
  2  3  1  0
  3  4  1  1
  5  3  1  0
  5  6  1  6
  7  8  2  0
  7  5  1  0
  9 10  1  0
 10 11  2  0
 11 12  1  0
 13 12  2  0
 13 14  1  0
 15 14  1  1
 15 16  1  0
 16  7  1  0
 17 21  1  0
 17 15  1  0
 18 17  2  0
 19 13  1  0
 20 10  1  0
 20 19  2  0
 21 25  1  0
 22 21  1  0
 23 22  1  0
 23 24  1  0
 24 25  1  0
 25 26  1  1
 26 28  2  0
 26 27  1  0
M  END
$$$$
