IYP.pdb
     RDKit          3D

 28 29  0  0  1  0  0  0  0  0999 V2000
    7.8195  -13.3715   18.3053 C   0  0  0  0  0  0  0  0  0  0  0  0
    8.1181  -14.4009   19.3573 C   0  0  0  0  0  0  0  0  0  0  0  0
    9.5306  -14.8895   19.3360 C   0  0  2  0  0  0  0  0  0  0  0  0
    9.8324  -15.6032   18.0536 C   0  0  0  0  0  0  0  0  0  0  0  0
    9.8690  -15.7888   20.5219 C   0  0  2  0  0  0  0  0  0  0  0  0
    9.0168  -16.9883   20.4152 N   0  0  0  0  0  0  0  0  0  0  0  0
    9.5029  -15.0966   21.7658 C   0  0  0  0  0  0  0  0  0  0  0  0
    8.8634  -13.9990   21.7295 O   0  0  0  0  0  0  0  0  0  0  0  0
    5.5968  -11.4030   27.9397 O   0  0  0  0  0  0  0  0  0  0  0  0
    6.1233  -12.2264   26.9821 C   0  0  0  0  0  0  0  0  0  0  0  0
    6.9165  -11.7330   25.9557 C   0  0  0  0  0  0  0  0  0  0  0  0
    7.4520  -12.5283   24.9918 C   0  0  0  0  0  0  0  0  0  0  0  0
    7.1999  -13.8900   25.0287 C   0  0  0  0  0  0  0  0  0  0  0  0
    7.7692  -14.7607   23.9980 C   0  0  0  0  0  0  0  0  0  0  0  0
    9.3054  -14.9261   24.2576 C   0  0  2  0  0  0  0  0  0  0  0  0
    9.8190  -15.5821   23.0923 N   0  0  0  0  0  0  0  0  0  0  0  0
    9.4157  -15.5231   25.5538 C   0  0  0  0  0  0  0  0  0  0  0  0
    9.0601  -16.7699   25.6239 O   0  0  0  0  0  0  0  0  0  0  0  0
    6.4149  -14.3841   26.0431 C   0  0  0  0  0  0  0  0  0  0  0  0
    5.8767  -13.5754   27.0141 C   0  0  0  0  0  0  0  0  0  0  0  0
    9.8579  -14.9441   26.7604 N   0  0  0  0  0  0  0  0  0  0  0  0
    9.9162  -13.5405   27.0564 C   0  0  0  0  0  0  0  0  0  0  0  0
   10.8032  -13.4201   28.3223 C   0  0  0  0  0  0  0  0  0  0  0  0
   10.4364  -14.7005   29.0294 C   0  0  0  0  0  0  0  0  0  0  0  0
   10.4166  -15.6730   27.8897 C   0  0  1  0  0  0  0  0  0  0  0  0
    9.6203  -16.8831   28.2433 C   0  0  0  0  0  0  0  0  0  0  0  0
   10.1946  -17.7951   29.1025 O   0  0  0  0  0  0  0  0  0  0  0  0
    8.4947  -17.0734   27.7940 O   0  0  0  0  0  0  0  0  0  0  0  0
  1  2  1  0
  2  3  1  0
  3  4  1  6
  5  3  1  0
  5  6  1  6
  7  8  2  0
  7  5  1  0
  9 10  1  0
 10 11  2  0
 11 12  1  0
 13 12  2  0
 13 14  1  0
 15 14  1  6
 15 16  1  0
 16  7  1  0
 17 21  1  0
 17 15  1  0
 18 17  2  0
 19 13  1  0
 20 10  1  0
 20 19  2  0
 21 25  1  0
 22 21  1  0
 23 22  1  0
 23 24  1  0
 24 25  1  0
 25 26  1  1
 26 28  2  0
 26 27  1  0
M  END
$$$$
