IYP.pdb
     RDKit          3D

 28 29  0  0  1  0  0  0  0  0999 V2000
    8.9887  -12.4850   18.6242 C   0  0  0  0  0  0  0  0  0  0  0  0
    7.6366  -13.1236   18.7630 C   0  0  0  0  0  0  0  0  0  0  0  0
    7.3424  -13.6133   20.1444 C   0  0  2  0  0  0  0  0  0  0  0  0
    7.9982  -12.7435   21.1732 C   0  0  0  0  0  0  0  0  0  0  0  0
    7.7486  -15.0686   20.3609 C   0  0  2  0  0  0  0  0  0  0  0  0
    6.8845  -15.8946   19.4963 N   0  0  0  0  0  0  0  0  0  0  0  0
    7.4642  -15.4414   21.7540 C   0  0  0  0  0  0  0  0  0  0  0  0
    6.2881  -15.3352   22.2234 O   0  0  0  0  0  0  0  0  0  0  0  0
    7.6551  -18.6391   29.8314 O   0  0  0  0  0  0  0  0  0  0  0  0
    7.9431  -18.3610   28.5230 C   0  0  0  0  0  0  0  0  0  0  0  0
    6.9734  -18.4379   27.5333 C   0  0  0  0  0  0  0  0  0  0  0  0
    7.2323  -18.1671   26.2263 C   0  0  0  0  0  0  0  0  0  0  0  0
    8.5160  -17.7981   25.8589 C   0  0  0  0  0  0  0  0  0  0  0  0
    8.8116  -17.5031   24.4553 C   0  0  0  0  0  0  0  0  0  0  0  0
    8.1347  -16.1457   24.0631 C   0  0  2  0  0  0  0  0  0  0  0  0
    8.4543  -15.9473   22.6808 N   0  0  0  0  0  0  0  0  0  0  0  0
    8.5463  -15.2063   25.0615 C   0  0  0  0  0  0  0  0  0  0  0  0
    9.8297  -15.0884   25.2186 O   0  0  0  0  0  0  0  0  0  0  0  0
    9.4804  -17.7204   26.8351 C   0  0  0  0  0  0  0  0  0  0  0  0
    9.2127  -17.9952   28.1540 C   0  0  0  0  0  0  0  0  0  0  0  0
    7.7506  -14.3934   25.8938 N   0  0  0  0  0  0  0  0  0  0  0  0
    6.3205  -14.2767   25.8490 C   0  0  0  0  0  0  0  0  0  0  0  0
    5.9813  -13.0127   26.6805 C   0  0  0  0  0  0  0  0  0  0  0  0
    7.0686  -13.0783   27.7234 C   0  0  0  0  0  0  0  0  0  0  0  0
    8.2544  -13.4606   26.8912 C   0  0  1  0  0  0  0  0  0  0  0  0
    9.3264  -14.0526   27.7420 C   0  0  0  0  0  0  0  0  0  0  0  0
   10.1461  -13.1842   28.4302 O   0  0  0  0  0  0  0  0  0  0  0  0
    9.4848  -15.2655   27.8359 O   0  0  0  0  0  0  0  0  0  0  0  0
  1  2  1  0
  2  3  1  0
  3  4  1  1
  5  3  1  0
  5  6  1  6
  7  8  2  0
  7  5  1  0
  9 10  1  0
 10 11  2  0
 11 12  1  0
 13 12  2  0
 13 14  1  0
 15 14  1  1
 15 16  1  0
 16  7  1  0
 17 21  1  0
 17 15  1  0
 18 17  2  0
 19 13  1  0
 20 10  1  0
 20 19  2  0
 21 25  1  0
 22 21  1  0
 23 22  1  0
 23 24  1  0
 24 25  1  0
 25 26  1  1
 26 28  2  0
 26 27  1  0
M  END
$$$$
