IYP.pdb
     RDKit          3D

 28 29  0  0  1  0  0  0  0  0999 V2000
    5.9265  -22.0579   23.2992 C   0  0  0  0  0  0  0  0  0  0  0  0
    6.4801  -21.0669   24.2825 C   0  0  0  0  0  0  0  0  0  0  0  0
    6.4814  -19.6589   23.7803 C   0  0  2  0  0  0  0  0  0  0  0  0
    7.1462  -19.5675   22.4407 C   0  0  0  0  0  0  0  0  0  0  0  0
    7.1351  -18.6795   24.7514 C   0  0  2  0  0  0  0  0  0  0  0  0
    6.2876  -18.6322   25.9580 N   0  0  0  0  0  0  0  0  0  0  0  0
    7.1265  -17.3368   24.1533 C   0  0  0  0  0  0  0  0  0  0  0  0
    6.0290  -16.7721   23.8504 O   0  0  0  0  0  0  0  0  0  0  0  0
    5.8744  -12.2230   27.9728 O   0  0  0  0  0  0  0  0  0  0  0  0
    6.6487  -12.7246   26.9623 C   0  0  0  0  0  0  0  0  0  0  0  0
    7.6443  -13.6603   27.2057 C   0  0  0  0  0  0  0  0  0  0  0  0
    8.4277  -14.1749   26.2208 C   0  0  0  0  0  0  0  0  0  0  0  0
    8.2300  -13.7524   24.9163 C   0  0  0  0  0  0  0  0  0  0  0  0
    9.0652  -14.2968   23.8438 C   0  0  0  0  0  0  0  0  0  0  0  0
    8.2512  -15.3826   23.0608 C   0  0  2  0  0  0  0  0  0  0  0  0
    8.3165  -16.5631   23.8699 N   0  0  0  0  0  0  0  0  0  0  0  0
    8.7711  -15.3679   21.7274 C   0  0  0  0  0  0  0  0  0  0  0  0
    9.6370  -16.2971   21.4579 O   0  0  0  0  0  0  0  0  0  0  0  0
    7.2452  -12.8257   24.6696 C   0  0  0  0  0  0  0  0  0  0  0  0
    6.4570  -12.3095   25.6690 C   0  0  0  0  0  0  0  0  0  0  0  0
    8.4710  -14.4857   20.6699 N   0  0  0  0  0  0  0  0  0  0  0  0
    7.4467  -13.4798   20.6691 C   0  0  0  0  0  0  0  0  0  0  0  0
    7.2796  -13.0593   19.1861 C   0  0  0  0  0  0  0  0  0  0  0  0
    8.6994  -13.2138   18.7020 C   0  0  0  0  0  0  0  0  0  0  0  0
    9.0965  -14.5022   19.3556 C   0  0  1  0  0  0  0  0  0  0  0  0
   10.5812  -14.6211   19.4272 C   0  0  0  0  0  0  0  0  0  0  0  0
   11.2321  -15.1447   18.3309 O   0  0  0  0  0  0  0  0  0  0  0  0
   11.2133  -14.2700   20.4183 O   0  0  0  0  0  0  0  0  0  0  0  0
  1  2  1  0
  2  3  1  0
  3  4  1  6
  5  3  1  0
  5  6  1  1
  7  8  2  0
  7  5  1  0
  9 10  1  0
 10 11  2  0
 11 12  1  0
 13 12  2  0
 13 14  1  0
 15 14  1  1
 15 16  1  0
 16  7  1  0
 17 21  1  0
 17 15  1  0
 18 17  2  0
 19 13  1  0
 20 10  1  0
 20 19  2  0
 21 25  1  0
 22 21  1  0
 23 22  1  0
 23 24  1  0
 24 25  1  0
 25 26  1  1
 26 28  2  0
 26 27  1  0
M  END
$$$$
