EDN.pdb
     RDKit          3D

 26 25  0  0  1  0  0  0  0  0999 V2000
    9.4817  -17.4336   15.7124 N   0  0  0  0  0  0  0  0  0  0  0  0
   10.0352  -18.4434   16.6466 C   0  0  1  0  0  0  0  0  0  0  0  0
   11.4902  -18.5490   16.3257 C   0  0  0  0  0  0  0  0  0  0  0  0
   11.8033  -18.0474   14.9555 C   0  0  0  0  0  0  0  0  0  0  0  0
   13.2486  -18.2249   14.6755 C   0  0  0  0  0  0  0  0  0  0  0  0
   13.8866  -17.6731   13.7561 O   0  0  0  0  0  0  0  0  0  0  0  0
    9.8399  -17.9915   18.0320 C   0  0  0  0  0  0  0  0  0  0  0  0
    8.7196  -17.6628   18.4472 O   0  0  0  0  0  0  0  0  0  0  0  0
   13.9920  -19.0879   15.5024 O   0  0  0  0  0  0  0  0  0  0  0  0
   10.9464  -17.9253   18.9273 N   0  0  0  0  0  0  0  0  0  0  0  0
   10.9954  -18.6189   20.1844 C   0  0  1  0  0  0  0  0  0  0  0  0
   10.7134  -20.0864   20.0024 C   0  0  0  0  0  0  0  0  0  0  0  0
   10.6761  -20.8478   21.2538 C   0  0  0  0  0  0  0  0  0  0  0  0
   11.3071  -21.9468   21.2993 O   0  0  0  0  0  0  0  0  0  0  0  0
   12.2608  -18.3320   20.8701 C   0  0  0  0  0  0  0  0  0  0  0  0
   13.1432  -19.2118   20.9953 O   0  0  0  0  0  0  0  0  0  0  0  0
   10.0039  -20.4724   22.4131 O   0  0  0  0  0  0  0  0  0  0  0  0
    8.6126  -16.1349   22.3775 N   0  0  0  0  0  0  0  0  0  0  0  0
    9.9866  -15.9025   22.6645 C   0  0  0  0  0  0  0  0  0  0  0  0
   10.4428  -14.7507   22.4777 O   0  0  0  0  0  0  0  0  0  0  0  0
   10.9053  -16.9305   23.1666 C   0  0  0  0  0  0  0  0  0  0  0  0
   12.3535  -16.7043   22.7993 C   0  0  2  0  0  0  0  0  0  0  0  0
   12.4920  -17.0497   21.3999 N   0  0  0  0  0  0  0  0  0  0  0  0
   13.2592  -17.5641   23.5846 C   0  0  0  0  0  0  0  0  0  0  0  0
   13.0500  -18.8046   23.7250 O   0  0  0  0  0  0  0  0  0  0  0  0
   14.3698  -17.0147   24.1877 O   0  0  0  0  0  0  0  0  0  0  0  0
  2  1  1  6
  2  7  1  0
  3  4  1  0
  3  2  1  0
  5  4  1  0
  5  9  1  0
  6  5  2  0
  7  8  2  0
 10 11  1  0
 10  7  1  0
 11 15  1  0
 12 13  1  0
 11 12  1  6
 13 17  1  0
 14 13  2  0
 15 16  2  0
 18 19  1  0
 19 21  1  0
 19 20  2  0
 22 21  1  1
 22 24  1  0
 23 15  1  0
 23 22  1  0
 24 25  2  0
 24 26  1  0
M  END
$$$$
