EDN.pdb
     RDKit          3D

 26 25  0  0  1  0  0  0  0  0999 V2000
   10.6499  -13.7047   19.7826 N   0  0  0  0  0  0  0  0  0  0  0  0
    9.2820  -13.2066   20.0645 C   0  0  1  0  0  0  0  0  0  0  0  0
    8.5237  -13.3353   18.7841 C   0  0  0  0  0  0  0  0  0  0  0  0
    9.1514  -14.3186   17.8534 C   0  0  0  0  0  0  0  0  0  0  0  0
    8.2559  -14.5538   16.6952 C   0  0  0  0  0  0  0  0  0  0  0  0
    8.2966  -13.9459   15.6063 O   0  0  0  0  0  0  0  0  0  0  0  0
    8.6668  -14.0274   21.1178 C   0  0  0  0  0  0  0  0  0  0  0  0
    7.5186  -13.7959   21.5224 O   0  0  0  0  0  0  0  0  0  0  0  0
    7.2609  -15.5432   16.8055 O   0  0  0  0  0  0  0  0  0  0  0  0
    9.3879  -15.1129   21.6940 N   0  0  0  0  0  0  0  0  0  0  0  0
    8.8404  -15.9931   22.6887 C   0  0  1  0  0  0  0  0  0  0  0  0
    8.6072  -17.3684   22.1225 C   0  0  0  0  0  0  0  0  0  0  0  0
    8.1548  -18.3524   23.1096 C   0  0  0  0  0  0  0  0  0  0  0  0
    7.4321  -17.9431   24.0679 O   0  0  0  0  0  0  0  0  0  0  0  0
    9.6771  -15.9750   23.8942 C   0  0  0  0  0  0  0  0  0  0  0  0
   10.8745  -16.3401   23.8567 O   0  0  0  0  0  0  0  0  0  0  0  0
    8.4478  -19.7128   23.0934 O   0  0  0  0  0  0  0  0  0  0  0  0
    9.0598  -13.9860   29.7123 N   0  0  0  0  0  0  0  0  0  0  0  0
    9.8087  -14.2112   28.5238 C   0  0  0  0  0  0  0  0  0  0  0  0
   11.0579  -14.2532   28.6113 O   0  0  0  0  0  0  0  0  0  0  0  0
    9.2080  -14.3975   27.1981 C   0  0  0  0  0  0  0  0  0  0  0  0
    9.8650  -15.4711   26.3622 C   0  0  2  0  0  0  0  0  0  0  0  0
    9.1305  -15.5433   25.1162 N   0  0  0  0  0  0  0  0  0  0  0  0
    9.8034  -16.7912   27.0178 C   0  0  0  0  0  0  0  0  0  0  0  0
    8.7862  -17.5385   26.9236 O   0  0  0  0  0  0  0  0  0  0  0  0
   10.8777  -17.2371   27.7569 O   0  0  0  0  0  0  0  0  0  0  0  0
  2  1  1  6
  2  7  1  0
  3  4  1  0
  3  2  1  0
  5  4  1  0
  5  9  1  0
  6  5  2  0
  7  8  2  0
 10 11  1  0
 10  7  1  0
 11 15  1  0
 12 13  1  0
 11 12  1  6
 13 17  1  0
 14 13  2  0
 15 16  2  0
 18 19  1  0
 19 21  1  0
 19 20  2  0
 22 21  1  1
 22 24  1  0
 23 15  1  0
 23 22  1  0
 24 25  2  0
 24 26  1  0
M  END
$$$$
