EDN.pdb
     RDKit          3D

 26 25  0  0  1  0  0  0  0  0999 V2000
   13.0514  -18.1710   18.8757 N   0  0  0  0  0  0  0  0  0  0  0  0
   13.0552  -19.6264   18.5919 C   0  0  1  0  0  0  0  0  0  0  0  0
   13.7242  -19.7868   17.2661 C   0  0  0  0  0  0  0  0  0  0  0  0
   13.9867  -18.4750   16.6046 C   0  0  0  0  0  0  0  0  0  0  0  0
   14.5480  -18.7004   15.2508 C   0  0  0  0  0  0  0  0  0  0  0  0
   14.1840  -19.5834   14.4480 O   0  0  0  0  0  0  0  0  0  0  0  0
   13.8062  -20.3305   19.6416 C   0  0  0  0  0  0  0  0  0  0  0  0
   14.3804  -21.4037   19.4089 O   0  0  0  0  0  0  0  0  0  0  0  0
   15.5859  -17.8603   14.8056 O   0  0  0  0  0  0  0  0  0  0  0  0
   13.8871  -19.7837   20.9549 N   0  0  0  0  0  0  0  0  0  0  0  0
   14.8861  -18.8348   21.3616 C   0  0  1  0  0  0  0  0  0  0  0  0
   15.5913  -18.2486   20.1678 C   0  0  0  0  0  0  0  0  0  0  0  0
   16.8849  -17.6347   20.4795 C   0  0  0  0  0  0  0  0  0  0  0  0
   17.8606  -17.8819   19.7082 O   0  0  0  0  0  0  0  0  0  0  0  0
   14.2969  -17.8355   22.2603 C   0  0  0  0  0  0  0  0  0  0  0  0
   15.0176  -17.0396   22.9050 O   0  0  0  0  0  0  0  0  0  0  0  0
   17.1463  -16.7942   21.5574 O   0  0  0  0  0  0  0  0  0  0  0  0
   10.3464  -15.0073   24.5371 N   0  0  0  0  0  0  0  0  0  0  0  0
    9.9037  -15.8300   23.4641 C   0  0  0  0  0  0  0  0  0  0  0  0
    8.6975  -15.7688   23.1311 O   0  0  0  0  0  0  0  0  0  0  0  0
   10.7740  -16.7484   22.7212 C   0  0  0  0  0  0  0  0  0  0  0  0
   12.2071  -16.7722   23.1997 C   0  0  2  0  0  0  0  0  0  0  0  0
   12.8996  -17.7663   22.4064 N   0  0  0  0  0  0  0  0  0  0  0  0
   12.3046  -17.1575   24.6203 C   0  0  0  0  0  0  0  0  0  0  0  0
   12.3998  -16.2957   25.5426 O   0  0  0  0  0  0  0  0  0  0  0  0
   12.2919  -18.4909   24.9685 O   0  0  0  0  0  0  0  0  0  0  0  0
  2  1  1  1
  2  7  1  0
  3  4  1  0
  3  2  1  0
  5  4  1  0
  5  9  1  0
  6  5  2  0
  7  8  2  0
 10 11  1  0
 10  7  1  0
 11 15  1  0
 12 13  1  0
 11 12  1  6
 13 17  1  0
 14 13  2  0
 15 16  2  0
 18 19  1  0
 19 21  1  0
 19 20  2  0
 22 21  1  6
 22 24  1  0
 23 15  1  0
 23 22  1  0
 24 25  2  0
 24 26  1  0
M  END
$$$$
