EDN.pdb
     RDKit          3D

 26 25  0  0  1  0  0  0  0  0999 V2000
    7.7798  -12.6893   18.4306 N   0  0  0  0  0  0  0  0  0  0  0  0
    7.6250  -14.1466   18.6566 C   0  0  1  0  0  0  0  0  0  0  0  0
    8.1444  -14.8129   17.4249 C   0  0  0  0  0  0  0  0  0  0  0  0
    7.7946  -14.0586   16.1855 C   0  0  0  0  0  0  0  0  0  0  0  0
    8.1764  -14.8517   14.9922 C   0  0  0  0  0  0  0  0  0  0  0  0
    7.4381  -15.6499   14.3801 O   0  0  0  0  0  0  0  0  0  0  0  0
    8.4082  -14.5479   19.8344 C   0  0  0  0  0  0  0  0  0  0  0  0
    9.1540  -13.7447   20.4124 O   0  0  0  0  0  0  0  0  0  0  0  0
    9.4815  -14.7139   14.4835 O   0  0  0  0  0  0  0  0  0  0  0  0
    8.3197  -15.8791   20.3347 N   0  0  0  0  0  0  0  0  0  0  0  0
    9.0499  -16.3493   21.4791 C   0  0  1  0  0  0  0  0  0  0  0  0
    8.4205  -17.5934   22.0468 C   0  0  0  0  0  0  0  0  0  0  0  0
    9.1217  -18.1399   23.2117 C   0  0  0  0  0  0  0  0  0  0  0  0
   10.1360  -17.5124   23.6425 O   0  0  0  0  0  0  0  0  0  0  0  0
   10.4716  -16.4951   21.1457 C   0  0  0  0  0  0  0  0  0  0  0  0
   10.9078  -17.5419   20.6145 O   0  0  0  0  0  0  0  0  0  0  0  0
    8.7738  -19.2989   23.8991 O   0  0  0  0  0  0  0  0  0  0  0  0
   14.7524  -15.4728   23.9954 N   0  0  0  0  0  0  0  0  0  0  0  0
   13.6392  -16.3411   24.1714 C   0  0  0  0  0  0  0  0  0  0  0  0
   13.5730  -17.0105   25.2285 O   0  0  0  0  0  0  0  0  0  0  0  0
   12.5608  -16.5023   23.1895 C   0  0  0  0  0  0  0  0  0  0  0  0
   12.6970  -15.6263   21.9658 C   0  0  2  0  0  0  0  0  0  0  0  0
   11.3652  -15.4458   21.4267 N   0  0  0  0  0  0  0  0  0  0  0  0
   13.5384  -16.2567   20.9310 C   0  0  0  0  0  0  0  0  0  0  0  0
   14.3780  -15.5930   20.2552 O   0  0  0  0  0  0  0  0  0  0  0  0
   13.4183  -17.6069   20.6827 O   0  0  0  0  0  0  0  0  0  0  0  0
  2  1  1  6
  2  7  1  0
  3  4  1  0
  3  2  1  0
  5  4  1  0
  5  9  1  0
  6  5  2  0
  7  8  2  0
 10 11  1  0
 10  7  1  0
 11 15  1  0
 12 13  1  0
 11 12  1  6
 13 17  1  0
 14 13  2  0
 15 16  2  0
 18 19  1  0
 19 21  1  0
 19 20  2  0
 22 21  1  1
 22 24  1  0
 23 15  1  0
 23 22  1  0
 24 25  2  0
 24 26  1  0
M  END
$$$$
