EDN.pdb
     RDKit          3D

 26 25  0  0  1  0  0  0  0  0999 V2000
    7.3684  -16.7135   17.5451 N   0  0  0  0  0  0  0  0  0  0  0  0
    7.2866  -18.0902   18.0898 C   0  0  1  0  0  0  0  0  0  0  0  0
    7.2532  -19.0011   16.9065 C   0  0  0  0  0  0  0  0  0  0  0  0
    7.5135  -18.2755   15.6287 C   0  0  0  0  0  0  0  0  0  0  0  0
    7.4068  -19.2165   14.4879 C   0  0  0  0  0  0  0  0  0  0  0  0
    6.6418  -19.0935   13.5098 O   0  0  0  0  0  0  0  0  0  0  0  0
    8.4684  -18.3614   18.9214 C   0  0  0  0  0  0  0  0  0  0  0  0
    8.5810  -19.4244   19.5482 O   0  0  0  0  0  0  0  0  0  0  0  0
    8.2276  -20.3600   14.4813 O   0  0  0  0  0  0  0  0  0  0  0  0
    9.5129  -17.3972   19.0192 N   0  0  0  0  0  0  0  0  0  0  0  0
   10.6662  -17.5560   19.8609 C   0  0  1  0  0  0  0  0  0  0  0  0
   11.9364  -17.3394   19.0824 C   0  0  0  0  0  0  0  0  0  0  0  0
   12.3264  -18.4777   18.2460 C   0  0  0  0  0  0  0  0  0  0  0  0
   11.7352  -19.5835   18.4350 O   0  0  0  0  0  0  0  0  0  0  0  0
   10.5417  -16.7089   21.0527 C   0  0  0  0  0  0  0  0  0  0  0  0
   11.4882  -16.5896   21.8640 O   0  0  0  0  0  0  0  0  0  0  0  0
   13.2980  -18.4584   17.2499 O   0  0  0  0  0  0  0  0  0  0  0  0
    6.9866  -13.0377   20.0640 N   0  0  0  0  0  0  0  0  0  0  0  0
    8.0610  -13.4406   20.9052 C   0  0  0  0  0  0  0  0  0  0  0  0
    9.2144  -13.0408   20.6233 O   0  0  0  0  0  0  0  0  0  0  0  0
    7.9022  -14.2977   22.0855 C   0  0  0  0  0  0  0  0  0  0  0  0
    9.1181  -15.1310   22.4179 C   0  0  2  0  0  0  0  0  0  0  0  0
    9.3407  -16.0179   21.2951 N   0  0  0  0  0  0  0  0  0  0  0  0
    8.9074  -15.9508   23.6262 C   0  0  0  0  0  0  0  0  0  0  0  0
    8.7670  -17.2073   23.5663 O   0  0  0  0  0  0  0  0  0  0  0  0
    8.8611  -15.3446   24.8629 O   0  0  0  0  0  0  0  0  0  0  0  0
  2  1  1  6
  2  7  1  0
  3  4  1  0
  3  2  1  0
  5  4  1  0
  5  9  1  0
  6  5  2  0
  7  8  2  0
 10 11  1  0
 10  7  1  0
 11 15  1  0
 12 13  1  0
 11 12  1  6
 13 17  1  0
 14 13  2  0
 15 16  2  0
 18 19  1  0
 19 21  1  0
 19 20  2  0
 22 21  1  6
 22 24  1  0
 23 15  1  0
 23 22  1  0
 24 25  2  0
 24 26  1  0
M  END
$$$$
