EDN.pdb
     RDKit          3D

 26 25  0  0  1  0  0  0  0  0999 V2000
    9.5269  -12.9677   20.0011 N   0  0  0  0  0  0  0  0  0  0  0  0
    8.1693  -13.5636   19.9808 C   0  0  1  0  0  0  0  0  0  0  0  0
    7.8835  -13.8912   18.5518 C   0  0  0  0  0  0  0  0  0  0  0  0
    9.0677  -14.4803   17.8606 C   0  0  0  0  0  0  0  0  0  0  0  0
    8.7006  -14.8612   16.4754 C   0  0  0  0  0  0  0  0  0  0  0  0
    7.7775  -14.3605   15.8015 O   0  0  0  0  0  0  0  0  0  0  0  0
    8.1534  -14.7802   20.8062 C   0  0  0  0  0  0  0  0  0  0  0  0
    7.3874  -15.7196   20.5488 O   0  0  0  0  0  0  0  0  0  0  0  0
    9.4403  -15.8758   15.8393 O   0  0  0  0  0  0  0  0  0  0  0  0
    9.0279  -14.8991   21.9249 N   0  0  0  0  0  0  0  0  0  0  0  0
    9.3505  -16.1501   22.5532 C   0  0  1  0  0  0  0  0  0  0  0  0
    9.9346  -17.1183   21.5593 C   0  0  0  0  0  0  0  0  0  0  0  0
   10.3209  -18.4083   22.1374 C   0  0  0  0  0  0  0  0  0  0  0  0
    9.6402  -18.8499   23.1120 O   0  0  0  0  0  0  0  0  0  0  0  0
   10.1932  -15.9201   23.7325 C   0  0  0  0  0  0  0  0  0  0  0  0
   11.4394  -15.8472   23.6334 O   0  0  0  0  0  0  0  0  0  0  0  0
   11.3792  -19.2051   21.7110 O   0  0  0  0  0  0  0  0  0  0  0  0
   10.0940  -12.9932   28.7921 N   0  0  0  0  0  0  0  0  0  0  0  0
    9.8374  -14.3429   28.4224 C   0  0  0  0  0  0  0  0  0  0  0  0
   10.0875  -15.2423   29.2579 O   0  0  0  0  0  0  0  0  0  0  0  0
    9.2971  -14.7484   27.1199 C   0  0  0  0  0  0  0  0  0  0  0  0
   10.3076  -15.3938   26.2002 C   0  0  2  0  0  0  0  0  0  0  0  0
    9.5974  -15.7804   24.9990 N   0  0  0  0  0  0  0  0  0  0  0  0
   10.9022  -16.6028   26.8009 C   0  0  0  0  0  0  0  0  0  0  0  0
   11.8123  -16.5361   27.6782 O   0  0  0  0  0  0  0  0  0  0  0  0
   10.4632  -17.8480   26.4059 O   0  0  0  0  0  0  0  0  0  0  0  0
  2  1  1  6
  2  7  1  0
  3  4  1  0
  3  2  1  0
  5  4  1  0
  5  9  1  0
  6  5  2  0
  7  8  2  0
 10 11  1  0
 10  7  1  0
 11 15  1  0
 12 13  1  0
 11 12  1  6
 13 17  1  0
 14 13  2  0
 15 16  2  0
 18 19  1  0
 19 21  1  0
 19 20  2  0
 22 21  1  1
 22 24  1  0
 23 15  1  0
 23 22  1  0
 24 25  2  0
 24 26  1  0
M  END
$$$$
