EDN.pdb
     RDKit          3D

 26 25  0  0  1  0  0  0  0  0999 V2000
   10.6646  -15.5865   14.5626 N   0  0  0  0  0  0  0  0  0  0  0  0
    9.5976  -15.1001   15.4700 C   0  0  1  0  0  0  0  0  0  0  0  0
    8.3149  -15.6359   14.9236 C   0  0  0  0  0  0  0  0  0  0  0  0
    8.3645  -17.1126   14.7139 C   0  0  0  0  0  0  0  0  0  0  0  0
    7.0175  -17.6116   14.3459 C   0  0  0  0  0  0  0  0  0  0  0  0
    6.1454  -18.0127   15.1430 O   0  0  0  0  0  0  0  0  0  0  0  0
    9.8369  -15.6090   16.8284 C   0  0  0  0  0  0  0  0  0  0  0  0
    9.1128  -15.2724   17.7760 O   0  0  0  0  0  0  0  0  0  0  0  0
    6.6642  -17.6495   12.9839 O   0  0  0  0  0  0  0  0  0  0  0  0
   10.9148  -16.5068   17.0782 N   0  0  0  0  0  0  0  0  0  0  0  0
   11.1865  -17.0856   18.3646 C   0  0  1  0  0  0  0  0  0  0  0  0
   10.8917  -18.5619   18.3652 C   0  0  0  0  0  0  0  0  0  0  0  0
   10.9803  -19.1887   19.6868 C   0  0  0  0  0  0  0  0  0  0  0  0
   11.7570  -20.1819   19.8220 O   0  0  0  0  0  0  0  0  0  0  0  0
   12.5483  -16.7460   18.7935 C   0  0  0  0  0  0  0  0  0  0  0  0
   13.5371  -16.9951   18.0665 O   0  0  0  0  0  0  0  0  0  0  0  0
   10.2824  -18.7903   20.8230 O   0  0  0  0  0  0  0  0  0  0  0  0
   14.0982  -14.1392   17.8218 N   0  0  0  0  0  0  0  0  0  0  0  0
   14.8278  -14.0136   19.0368 C   0  0  0  0  0  0  0  0  0  0  0  0
   16.0095  -13.6016   18.9767 O   0  0  0  0  0  0  0  0  0  0  0  0
   14.2815  -14.3378   20.3593 C   0  0  0  0  0  0  0  0  0  0  0  0
   14.0538  -15.8130   20.5944 C   0  0  2  0  0  0  0  0  0  0  0  0
   12.7536  -16.1318   20.0422 N   0  0  0  0  0  0  0  0  0  0  0  0
   14.0448  -16.1443   22.0319 C   0  0  0  0  0  0  0  0  0  0  0  0
   12.9698  -16.3769   22.6585 O   0  0  0  0  0  0  0  0  0  0  0  0
   15.2339  -16.2071   22.7255 O   0  0  0  0  0  0  0  0  0  0  0  0
  2  1  1  6
  2  7  1  0
  3  4  1  0
  3  2  1  0
  5  4  1  0
  5  9  1  0
  6  5  2  0
  7  8  2  0
 10 11  1  0
 10  7  1  0
 11 15  1  0
 12 13  1  0
 11 12  1  6
 13 17  1  0
 14 13  2  0
 15 16  2  0
 18 19  1  0
 19 21  1  0
 19 20  2  0
 22 21  1  1
 22 24  1  0
 23 15  1  0
 23 22  1  0
 24 25  2  0
 24 26  1  0
M  END
$$$$
