EDN.pdb
     RDKit          3D

 26 25  0  0  1  0  0  0  0  0999 V2000
    9.2740  -20.5204   17.0254 N   0  0  0  0  0  0  0  0  0  0  0  0
   10.1791  -21.3224   17.8834 C   0  0  1  0  0  0  0  0  0  0  0  0
   11.5477  -21.1559   17.3087 C   0  0  0  0  0  0  0  0  0  0  0  0
   11.5413  -21.1926   15.8169 C   0  0  0  0  0  0  0  0  0  0  0  0
   12.9306  -21.0974   15.3076 C   0  0  0  0  0  0  0  0  0  0  0  0
   13.7680  -22.0222   15.2955 O   0  0  0  0  0  0  0  0  0  0  0  0
   10.1288  -20.8140   19.2621 C   0  0  0  0  0  0  0  0  0  0  0  0
    9.9949  -19.6043   19.4948 O   0  0  0  0  0  0  0  0  0  0  0  0
   13.3725  -19.8663   14.7876 O   0  0  0  0  0  0  0  0  0  0  0  0
   10.2329  -21.7136   20.3621 N   0  0  0  0  0  0  0  0  0  0  0  0
   10.2078  -21.2961   21.7366 C   0  0  1  0  0  0  0  0  0  0  0  0
    9.0924  -21.9743   22.4862 C   0  0  0  0  0  0  0  0  0  0  0  0
    7.7911  -21.9014   21.8165 C   0  0  0  0  0  0  0  0  0  0  0  0
    7.1306  -20.8236   21.9180 O   0  0  0  0  0  0  0  0  0  0  0  0
   11.5325  -21.4743   22.3424 C   0  0  0  0  0  0  0  0  0  0  0  0
   12.5756  -21.3910   21.6544 O   0  0  0  0  0  0  0  0  0  0  0  0
    7.2042  -22.9180   21.0689 O   0  0  0  0  0  0  0  0  0  0  0  0
   15.6524  -21.5628   25.2783 N   0  0  0  0  0  0  0  0  0  0  0  0
   15.0244  -20.4974   24.5750 C   0  0  0  0  0  0  0  0  0  0  0  0
   15.7150  -19.4936   24.2832 O   0  0  0  0  0  0  0  0  0  0  0  0
   13.6143  -20.5005   24.1692 C   0  0  0  0  0  0  0  0  0  0  0  0
   12.8889  -21.7963   24.4487 C   0  0  2  0  0  0  0  0  0  0  0  0
   11.6395  -21.7455   23.7185 N   0  0  0  0  0  0  0  0  0  0  0  0
   12.5853  -21.9563   25.8835 C   0  0  0  0  0  0  0  0  0  0  0  0
   11.6336  -21.3341   26.4397 O   0  0  0  0  0  0  0  0  0  0  0  0
   13.3511  -22.8053   26.6528 O   0  0  0  0  0  0  0  0  0  0  0  0
  2  1  1  6
  2  7  1  0
  3  4  1  0
  3  2  1  0
  5  4  1  0
  5  9  1  0
  6  5  2  0
  7  8  2  0
 10 11  1  0
 10  7  1  0
 11 15  1  0
 12 13  1  0
 11 12  1  1
 13 17  1  0
 14 13  2  0
 15 16  2  0
 18 19  1  0
 19 21  1  0
 19 20  2  0
 22 21  1  1
 22 24  1  0
 23 15  1  0
 23 22  1  0
 24 25  2  0
 24 26  1  0
M  END
$$$$
