EDN.pdb
     RDKit          3D

 26 25  0  0  1  0  0  0  0  0999 V2000
   10.8357  -20.0793   21.7114 N   0  0  0  0  0  0  0  0  0  0  0  0
   11.7001  -19.6903   22.8516 C   0  0  1  0  0  0  0  0  0  0  0  0
   12.5849  -18.5986   22.3454 C   0  0  0  0  0  0  0  0  0  0  0  0
   12.5233  -18.4659   20.8602 C   0  0  0  0  0  0  0  0  0  0  0  0
   13.4406  -17.3892   20.4153 C   0  0  0  0  0  0  0  0  0  0  0  0
   14.6612  -17.3214   20.6650 O   0  0  0  0  0  0  0  0  0  0  0  0
   10.8641  -19.2095   23.9614 C   0  0  0  0  0  0  0  0  0  0  0  0
   10.3451  -18.0847   23.9323 O   0  0  0  0  0  0  0  0  0  0  0  0
   12.9157  -16.3361   19.6429 O   0  0  0  0  0  0  0  0  0  0  0  0
   10.6348  -20.0381   25.0975 N   0  0  0  0  0  0  0  0  0  0  0  0
    9.8894  -19.6179   26.2515 C   0  0  1  0  0  0  0  0  0  0  0  0
    9.3783  -20.8039   27.0251 C   0  0  0  0  0  0  0  0  0  0  0  0
    8.6245  -20.4512   28.2312 C   0  0  0  0  0  0  0  0  0  0  0  0
    8.7239  -21.2156   29.2382 O   0  0  0  0  0  0  0  0  0  0  0  0
   10.6839  -18.6779   27.0508 C   0  0  0  0  0  0  0  0  0  0  0  0
   11.8708  -18.9323   27.3587 O   0  0  0  0  0  0  0  0  0  0  0  0
    7.7987  -19.3406   28.3772 O   0  0  0  0  0  0  0  0  0  0  0  0
   11.3171  -14.6253   25.9829 N   0  0  0  0  0  0  0  0  0  0  0  0
   10.1286  -14.7234   26.7589 C   0  0  0  0  0  0  0  0  0  0  0  0
    9.0446  -14.3936   26.2243 O   0  0  0  0  0  0  0  0  0  0  0  0
   10.0932  -15.1876   28.1504 C   0  0  0  0  0  0  0  0  0  0  0  0
   10.7516  -16.5288   28.3762 C   0  0  2  0  0  0  0  0  0  0  0  0
   10.1079  -17.4697   27.4833 N   0  0  0  0  0  0  0  0  0  0  0  0
   10.5716  -17.0017   29.7619 C   0  0  0  0  0  0  0  0  0  0  0  0
    9.8368  -17.9940   30.0404 O   0  0  0  0  0  0  0  0  0  0  0  0
   11.2170  -16.3546   30.7934 O   0  0  0  0  0  0  0  0  0  0  0  0
  2  1  1  6
  2  7  1  0
  3  4  1  0
  3  2  1  0
  5  4  1  0
  5  9  1  0
  6  5  2  0
  7  8  2  0
 10 11  1  0
 10  7  1  0
 11 15  1  0
 12 13  1  0
 11 12  1  1
 13 17  1  0
 14 13  2  0
 15 16  2  0
 18 19  1  0
 19 21  1  0
 19 20  2  0
 22 21  1  1
 22 24  1  0
 23 15  1  0
 23 22  1  0
 24 25  2  0
 24 26  1  0
M  END
$$$$
