EDN.pdb
     RDKit          3D

 26 25  0  0  1  0  0  0  0  0999 V2000
   13.7992  -17.5942   20.1039 N   0  0  0  0  0  0  0  0  0  0  0  0
   13.8066  -16.3873   20.9653 C   0  0  1  0  0  0  0  0  0  0  0  0
   13.8070  -15.2173   20.0368 C   0  0  0  0  0  0  0  0  0  0  0  0
   13.4377  -15.6031   18.6433 C   0  0  0  0  0  0  0  0  0  0  0  0
   13.4317  -14.4007   17.7758 C   0  0  0  0  0  0  0  0  0  0  0  0
   12.4769  -13.6106   17.6306 O   0  0  0  0  0  0  0  0  0  0  0  0
   12.6043  -16.3791   21.8115 C   0  0  0  0  0  0  0  0  0  0  0  0
   11.8176  -15.4219   21.7983 O   0  0  0  0  0  0  0  0  0  0  0  0
   14.5914  -14.0996   17.0370 O   0  0  0  0  0  0  0  0  0  0  0  0
   12.3220  -17.4832   22.6668 N   0  0  0  0  0  0  0  0  0  0  0  0
   11.1803  -17.5443   23.5367 C   0  0  1  0  0  0  0  0  0  0  0  0
   10.7147  -18.9645   23.7170 C   0  0  0  0  0  0  0  0  0  0  0  0
   10.3215  -19.6275   22.4708 C   0  0  0  0  0  0  0  0  0  0  0  0
    9.3835  -19.1092   21.7928 O   0  0  0  0  0  0  0  0  0  0  0  0
   11.4653  -16.8426   24.7937 C   0  0  0  0  0  0  0  0  0  0  0  0
   12.6033  -16.8846   25.3149 O   0  0  0  0  0  0  0  0  0  0  0  0
   10.8891  -20.7885   21.9544 O   0  0  0  0  0  0  0  0  0  0  0  0
   10.3223  -13.8844   29.1317 N   0  0  0  0  0  0  0  0  0  0  0  0
    9.5084  -13.5908   28.0023 C   0  0  0  0  0  0  0  0  0  0  0  0
    8.7201  -12.6199   28.0782 O   0  0  0  0  0  0  0  0  0  0  0  0
    9.5344  -14.3562   26.7508 C   0  0  0  0  0  0  0  0  0  0  0  0
   10.5991  -15.4271   26.6980 C   0  0  2  0  0  0  0  0  0  0  0  0
   10.4470  -16.1103   25.4302 N   0  0  0  0  0  0  0  0  0  0  0  0
   10.4386  -16.4140   27.7826 C   0  0  0  0  0  0  0  0  0  0  0  0
   10.7515  -16.1492   28.9803 O   0  0  0  0  0  0  0  0  0  0  0  0
    9.9337  -17.6644   27.4988 O   0  0  0  0  0  0  0  0  0  0  0  0
  2  1  1  6
  2  7  1  0
  3  4  1  0
  3  2  1  0
  5  4  1  0
  5  9  1  0
  6  5  2  0
  7  8  2  0
 10 11  1  0
 10  7  1  0
 11 15  1  0
 12 13  1  0
 11 12  1  1
 13 17  1  0
 14 13  2  0
 15 16  2  0
 18 19  1  0
 19 21  1  0
 19 20  2  0
 22 21  1  1
 22 24  1  0
 23 15  1  0
 23 22  1  0
 24 25  2  0
 24 26  1  0
M  END
$$$$
