EDN.pdb
     RDKit          3D

 26 25  0  0  1  0  0  0  0  0999 V2000
    9.3089  -13.1063   17.4962 N   0  0  0  0  0  0  0  0  0  0  0  0
    8.2382  -13.5785   18.4068 C   0  0  1  0  0  0  0  0  0  0  0  0
    7.0310  -13.7860   17.5521 C   0  0  0  0  0  0  0  0  0  0  0  0
    7.1983  -14.9295   16.6079 C   0  0  0  0  0  0  0  0  0  0  0  0
    7.7426  -14.4389   15.3188 C   0  0  0  0  0  0  0  0  0  0  0  0
    8.7755  -13.7534   15.1768 O   0  0  0  0  0  0  0  0  0  0  0  0
    8.6507  -14.8401   19.0390 C   0  0  0  0  0  0  0  0  0  0  0  0
    7.8280  -15.5705   19.6093 O   0  0  0  0  0  0  0  0  0  0  0  0
    7.0532  -14.7575   14.1338 O   0  0  0  0  0  0  0  0  0  0  0  0
   10.0158  -15.2469   19.0040 N   0  0  0  0  0  0  0  0  0  0  0  0
   10.5099  -16.4317   19.6488 C   0  0  1  0  0  0  0  0  0  0  0  0
   11.2136  -17.3279   18.6651 C   0  0  0  0  0  0  0  0  0  0  0  0
   11.6120  -18.6255   19.2173 C   0  0  0  0  0  0  0  0  0  0  0  0
   10.7772  -19.2425   19.9456 O   0  0  0  0  0  0  0  0  0  0  0  0
   11.3213  -16.0696   20.8168 C   0  0  0  0  0  0  0  0  0  0  0  0
   12.1503  -15.1325   20.7638 O   0  0  0  0  0  0  0  0  0  0  0  0
   12.8376  -19.2527   19.0143 O   0  0  0  0  0  0  0  0  0  0  0  0
    8.8371  -16.4887   25.0790 N   0  0  0  0  0  0  0  0  0  0  0  0
   10.2448  -16.2851   25.0463 C   0  0  0  0  0  0  0  0  0  0  0  0
   10.7109  -15.2823   25.6354 O   0  0  0  0  0  0  0  0  0  0  0  0
   11.1876  -17.1785   24.3636 C   0  0  0  0  0  0  0  0  0  0  0  0
   11.9390  -16.5352   23.2214 C   0  0  2  0  0  0  0  0  0  0  0  0
   11.1717  -16.7847   22.0189 N   0  0  0  0  0  0  0  0  0  0  0  0
   13.2816  -17.1216   23.0489 C   0  0  0  0  0  0  0  0  0  0  0  0
   14.3127  -16.5953   23.5609 O   0  0  0  0  0  0  0  0  0  0  0  0
   13.4328  -18.2764   22.3122 O   0  0  0  0  0  0  0  0  0  0  0  0
  2  1  1  6
  2  7  1  0
  3  4  1  0
  3  2  1  0
  5  4  1  0
  5  9  1  0
  6  5  2  0
  7  8  2  0
 10 11  1  0
 10  7  1  0
 11 15  1  0
 12 13  1  0
 11 12  1  6
 13 17  1  0
 14 13  2  0
 15 16  2  0
 18 19  1  0
 19 21  1  0
 19 20  2  0
 22 21  1  1
 22 24  1  0
 23 15  1  0
 23 22  1  0
 24 25  2  0
 24 26  1  0
M  END
$$$$
