YLN.pdb
     RDKit          3D

 29 29  0  0  1  0  0  0  0  0999 V2000
   20.7309  -25.9454  -21.8335 O   0  0  0  0  0  0  0  0  0  0  0  0
   21.0611  -25.1429  -20.7366 C   0  0  0  0  0  0  0  0  0  0  0  0
   22.0901  -24.2210  -20.8127 C   0  0  0  0  0  0  0  0  0  0  0  0
   22.3905  -23.4427  -19.7076 C   0  0  0  0  0  0  0  0  0  0  0  0
   21.6690  -23.5842  -18.5365 C   0  0  0  0  0  0  0  0  0  0  0  0
   21.9766  -22.7614  -17.3463 C   0  0  0  0  0  0  0  0  0  0  0  0
   23.3309  -23.0778  -16.7675 C   0  0  2  0  0  0  0  0  0  0  0  0
   23.3689  -24.4203  -16.2809 N   0  0  0  0  0  0  0  0  0  0  0  0
   23.5422  -22.1462  -15.6007 C   0  0  0  0  0  0  0  0  0  0  0  0
   23.3063  -22.5723  -14.4446 O   0  0  0  0  0  0  0  0  0  0  0  0
   20.6469  -24.5052  -18.4727 C   0  0  0  0  0  0  0  0  0  0  0  0
   20.3303  -25.2975  -19.5754 C   0  0  0  0  0  0  0  0  0  0  0  0
   27.4217  -18.3453  -16.4007 C   0  0  0  0  0  0  0  0  0  0  0  0
   26.4283  -19.4019  -15.9110 C   0  0  1  0  0  0  0  0  0  0  0  0
   27.1719  -20.1101  -14.7651 C   0  0  0  0  0  0  0  0  0  0  0  0
   25.1794  -18.7633  -15.4191 C   0  0  0  0  0  0  0  0  0  0  0  0
   24.1429  -19.7813  -14.9704 C   0  0  2  0  0  0  0  0  0  0  0  0
   23.9903  -20.8616  -15.8946 N   0  0  0  0  0  0  0  0  0  0  0  0
   22.9142  -19.1832  -14.4715 C   0  0  0  0  0  0  0  0  0  0  0  0
   22.9418  -18.2857  -13.5539 O   0  0  0  0  0  0  0  0  0  0  0  0
   20.3783  -16.6812  -17.1768 N   0  0  0  0  0  0  0  0  0  0  0  0
   20.0156  -16.9970  -15.8216 C   0  0  0  0  0  0  0  0  0  0  0  0
   20.1115  -16.0491  -15.0137 O   0  0  0  0  0  0  0  0  0  0  0  0
   19.5727  -18.3667  -15.4936 C   0  0  0  0  0  0  0  0  0  0  0  0
   20.4033  -18.9707  -14.4188 C   0  0  2  0  0  0  0  0  0  0  0  0
   21.6460  -19.5327  -14.9426 N   0  0  0  0  0  0  0  0  0  0  0  0
   19.6676  -20.1584  -13.8604 C   0  0  0  0  0  0  0  0  0  0  0  0
   19.9868  -21.3353  -14.0602 O   0  0  0  0  0  0  0  0  0  0  0  0
   18.5301  -19.9686  -13.0478 O   0  0  0  0  0  0  0  0  0  0  0  0
  2  3  2  0
  2  1  1  0
  4  3  1  0
  5  4  2  0
  6  5  1  0
  6  7  1  0
  7  8  1  1
  9  7  1  0
  9 18  1  0
 10  9  2  0
 11  5  1  0
 11 12  2  0
 12  2  1  0
 14 13  1  1
 14 15  1  0
 16 14  1  0
 17 16  1  6
 17 18  1  0
 19 17  1  0
 20 19  2  0
 21 22  1  0
 22 24  1  0
 23 22  2  0
 25 24  1  6
 25 26  1  0
 25 27  1  0
 26 19  1  0
 27 29  1  0
 28 27  2  0
M  END
$$$$
