YLN.pdb
     RDKit          3D

 29 29  0  0  1  0  0  0  0  0999 V2000
   18.3083  -14.5342  -16.0360 O   0  0  0  0  0  0  0  0  0  0  0  0
   17.9397  -13.2782  -15.5433 C   0  0  0  0  0  0  0  0  0  0  0  0
   18.2287  -12.9111  -14.2409 C   0  0  0  0  0  0  0  0  0  0  0  0
   17.8491  -11.6598  -13.7857 C   0  0  0  0  0  0  0  0  0  0  0  0
   17.1863  -10.7827  -14.6245 C   0  0  0  0  0  0  0  0  0  0  0  0
   16.7730   -9.4424  -14.1545 C   0  0  0  0  0  0  0  0  0  0  0  0
   15.5291   -9.4926  -13.3063 C   0  0  2  0  0  0  0  0  0  0  0  0
   14.4095   -9.9260  -14.0804 N   0  0  0  0  0  0  0  0  0  0  0  0
   15.2597   -8.0868  -12.8319 C   0  0  0  0  0  0  0  0  0  0  0  0
   14.6214   -7.3132  -13.5854 O   0  0  0  0  0  0  0  0  0  0  0  0
   16.9040  -11.1593  -15.9188 C   0  0  0  0  0  0  0  0  0  0  0  0
   17.2786  -12.4152  -16.3945 C   0  0  0  0  0  0  0  0  0  0  0  0
   14.9794   -7.3485   -7.2951 C   0  0  0  0  0  0  0  0  0  0  0  0
   14.7228   -7.1989   -8.7967 C   0  0  1  0  0  0  0  0  0  0  0  0
   13.4354   -6.3596   -8.8732 C   0  0  0  0  0  0  0  0  0  0  0  0
   15.8544   -6.4973   -9.4575 C   0  0  0  0  0  0  0  0  0  0  0  0
   15.7052   -6.4481  -10.9699 C   0  0  2  0  0  0  0  0  0  0  0  0
   15.7458   -7.7436  -11.5735 N   0  0  0  0  0  0  0  0  0  0  0  0
   16.5133   -5.4177  -11.6036 C   0  0  0  0  0  0  0  0  0  0  0  0
   17.6648   -5.6937  -12.0998 O   0  0  0  0  0  0  0  0  0  0  0  0
   16.9955   -2.1970  -16.0970 N   0  0  0  0  0  0  0  0  0  0  0  0
   17.5287   -2.4745  -14.7907 C   0  0  0  0  0  0  0  0  0  0  0  0
   18.5212   -1.7882  -14.4678 O   0  0  0  0  0  0  0  0  0  0  0  0
   16.8899   -3.5112  -13.9559 C   0  0  0  0  0  0  0  0  0  0  0  0
   16.7990   -3.0922  -12.5325 C   0  0  2  0  0  0  0  0  0  0  0  0
   16.1058   -4.0859  -11.7162 N   0  0  0  0  0  0  0  0  0  0  0  0
   15.9229   -1.8716  -12.4514 C   0  0  0  0  0  0  0  0  0  0  0  0
   14.6912   -1.9006  -12.3572 O   0  0  0  0  0  0  0  0  0  0  0  0
   16.4984   -0.5839  -12.4808 O   0  0  0  0  0  0  0  0  0  0  0  0
  2  3  2  0
  2  1  1  0
  4  3  1  0
  5  4  2  0
  6  5  1  0
  6  7  1  0
  7  8  1  6
  9  7  1  0
  9 18  1  0
 10  9  2  0
 11  5  1  0
 11 12  2  0
 12  2  1  0
 14 13  1  1
 14 15  1  0
 16 14  1  0
 17 16  1  1
 17 18  1  0
 19 17  1  0
 20 19  2  0
 21 22  1  0
 22 24  1  0
 23 22  2  0
 25 24  1  6
 25 26  1  0
 25 27  1  0
 26 19  1  0
 27 29  1  0
 28 27  2  0
M  END
$$$$
