YLN.pdb
     RDKit          3D

 29 29  0  0  1  0  0  0  0  0999 V2000
   21.7402  -14.3895  -24.8643 O   0  0  0  0  0  0  0  0  0  0  0  0
   21.6845  -13.5193  -23.7708 C   0  0  0  0  0  0  0  0  0  0  0  0
   20.5559  -12.7581  -23.5230 C   0  0  0  0  0  0  0  0  0  0  0  0
   20.5348  -11.9066  -22.4314 C   0  0  0  0  0  0  0  0  0  0  0  0
   21.6319  -11.8164  -21.5944 C   0  0  0  0  0  0  0  0  0  0  0  0
   21.6266  -10.9116  -20.4241 C   0  0  0  0  0  0  0  0  0  0  0  0
   21.8260  -11.6528  -19.1279 C   0  0  2  0  0  0  0  0  0  0  0  0
   20.7112  -12.5047  -18.8589 N   0  0  0  0  0  0  0  0  0  0  0  0
   21.9045  -10.6180  -18.0339 C   0  0  0  0  0  0  0  0  0  0  0  0
   20.8562  -10.3263  -17.4098 O   0  0  0  0  0  0  0  0  0  0  0  0
   22.7496  -12.5789  -21.8512 C   0  0  0  0  0  0  0  0  0  0  0  0
   22.7889  -13.4418  -22.9456 C   0  0  0  0  0  0  0  0  0  0  0  0
   26.8768  -10.3561  -15.6722 C   0  0  0  0  0  0  0  0  0  0  0  0
   25.3597  -10.3369  -15.8752 C   0  0  1  0  0  0  0  0  0  0  0  0
   24.7916  -10.5642  -14.4634 C   0  0  0  0  0  0  0  0  0  0  0  0
   24.9175   -9.0269  -16.4212 C   0  0  0  0  0  0  0  0  0  0  0  0
   23.4545   -9.0330  -16.8354 C   0  0  2  0  0  0  0  0  0  0  0  0
   23.1532  -10.0525  -17.7916 N   0  0  0  0  0  0  0  0  0  0  0  0
   22.9215   -7.7091  -17.1172 C   0  0  0  0  0  0  0  0  0  0  0  0
   23.0499   -7.1792  -18.2795 O   0  0  0  0  0  0  0  0  0  0  0  0
   20.3777   -3.5541  -17.7100 N   0  0  0  0  0  0  0  0  0  0  0  0
   19.8595   -4.8335  -18.1130 C   0  0  0  0  0  0  0  0  0  0  0  0
   18.9832   -4.7931  -19.0022 O   0  0  0  0  0  0  0  0  0  0  0  0
   20.3800   -6.0573  -17.4716 C   0  0  0  0  0  0  0  0  0  0  0  0
   21.4605   -5.7509  -16.4977 C   0  0  2  0  0  0  0  0  0  0  0  0
   22.2475   -6.9367  -16.1676 N   0  0  0  0  0  0  0  0  0  0  0  0
   20.8256   -5.3540  -15.1927 C   0  0  0  0  0  0  0  0  0  0  0  0
   19.7657   -5.8199  -14.7611 O   0  0  0  0  0  0  0  0  0  0  0  0
   21.4431   -4.3889  -14.3696 O   0  0  0  0  0  0  0  0  0  0  0  0
  2  3  2  0
  2  1  1  0
  4  3  1  0
  5  4  2  0
  6  5  1  0
  6  7  1  0
  7  8  1  1
  9  7  1  0
  9 18  1  0
 10  9  2  0
 11  5  1  0
 11 12  2  0
 12  2  1  0
 14 13  1  1
 14 15  1  0
 16 14  1  0
 17 16  1  6
 17 18  1  0
 19 17  1  0
 20 19  2  0
 21 22  1  0
 22 24  1  0
 23 22  2  0
 25 24  1  6
 25 26  1  0
 25 27  1  0
 26 19  1  0
 27 29  1  0
 28 27  2  0
M  END
$$$$
