YLN.pdb
     RDKit          3D

 29 29  0  0  1  0  0  0  0  0999 V2000
   23.4285  -14.3501  -20.0184 O   0  0  0  0  0  0  0  0  0  0  0  0
   23.3239  -15.4537  -19.1656 C   0  0  0  0  0  0  0  0  0  0  0  0
   23.1838  -15.2872  -17.7992 C   0  0  0  0  0  0  0  0  0  0  0  0
   23.0832  -16.4019  -16.9839 C   0  0  0  0  0  0  0  0  0  0  0  0
   23.1221  -17.6721  -17.5292 C   0  0  0  0  0  0  0  0  0  0  0  0
   23.0165  -18.8737  -16.6730 C   0  0  0  0  0  0  0  0  0  0  0  0
   24.3150  -19.1992  -15.9823 C   0  0  2  0  0  0  0  0  0  0  0  0
   25.3150  -19.5615  -16.9358 N   0  0  0  0  0  0  0  0  0  0  0  0
   24.0571  -20.3892  -15.0928 C   0  0  0  0  0  0  0  0  0  0  0  0
   24.2757  -21.5367  -15.5503 O   0  0  0  0  0  0  0  0  0  0  0  0
   23.2619  -17.8253  -18.8907 C   0  0  0  0  0  0  0  0  0  0  0  0
   23.3647  -16.7145  -19.7271 C   0  0  0  0  0  0  0  0  0  0  0  0
   25.9249  -19.9873  -10.2080 C   0  0  0  0  0  0  0  0  0  0  0  0
   25.3805  -20.5495  -11.5235 C   0  0  1  0  0  0  0  0  0  0  0  0
   26.0961  -21.9033  -11.6750 C   0  0  0  0  0  0  0  0  0  0  0  0
   23.9073  -20.7329  -11.4487 C   0  0  0  0  0  0  0  0  0  0  0  0
   23.2962  -21.0895  -12.7946 C   0  0  2  0  0  0  0  0  0  0  0  0
   23.5880  -20.1251  -13.8092 N   0  0  0  0  0  0  0  0  0  0  0  0
   21.9139  -21.5350  -12.7092 C   0  0  0  0  0  0  0  0  0  0  0  0
   21.0026  -20.7708  -12.2256 O   0  0  0  0  0  0  0  0  0  0  0  0
   17.6761  -23.7825  -10.1336 N   0  0  0  0  0  0  0  0  0  0  0  0
   18.3108  -23.8185  -11.4234 C   0  0  0  0  0  0  0  0  0  0  0  0
   17.6302  -24.3370  -12.3336 O   0  0  0  0  0  0  0  0  0  0  0  0
   19.6698  -23.2616  -11.5748 C   0  0  0  0  0  0  0  0  0  0  0  0
   20.1165  -23.2790  -12.9925 C   0  0  2  0  0  0  0  0  0  0  0  0
   21.4874  -22.7950  -13.1367 N   0  0  0  0  0  0  0  0  0  0  0  0
   19.2910  -22.2847  -13.7631 C   0  0  0  0  0  0  0  0  0  0  0  0
   19.7540  -21.3120  -14.3684 O   0  0  0  0  0  0  0  0  0  0  0  0
   17.8892  -22.4287  -13.8295 O   0  0  0  0  0  0  0  0  0  0  0  0
  2  3  2  0
  2  1  1  0
  4  3  1  0
  5  4  2  0
  6  5  1  0
  6  7  1  0
  7  8  1  6
  9  7  1  0
  9 18  1  0
 10  9  2  0
 11  5  1  0
 11 12  2  0
 12  2  1  0
 14 13  1  1
 14 15  1  0
 16 14  1  0
 17 16  1  1
 17 18  1  0
 19 17  1  0
 20 19  2  0
 21 22  1  0
 22 24  1  0
 23 22  2  0
 25 24  1  1
 25 26  1  0
 25 27  1  0
 26 19  1  0
 27 29  1  0
 28 27  2  0
M  END
$$$$
