YLN.pdb
     RDKit          3D

 29 29  0  0  1  0  0  0  0  0999 V2000
   36.3772  -34.4427  -25.6244 O   0  0  0  0  0  0  0  0  0  0  0  0
   36.0539  -33.7563  -24.4495 C   0  0  0  0  0  0  0  0  0  0  0  0
   35.7455  -32.4077  -24.4743 C   0  0  0  0  0  0  0  0  0  0  0  0
   35.4301  -31.7592  -23.2923 C   0  0  0  0  0  0  0  0  0  0  0  0
   35.4230  -32.4521  -22.0956 C   0  0  0  0  0  0  0  0  0  0  0  0
   35.0889  -31.7751  -20.8236 C   0  0  0  0  0  0  0  0  0  0  0  0
   36.0375  -30.6476  -20.5100 C   0  0  2  0  0  0  0  0  0  0  0  0
   37.3413  -31.1535  -20.2186 N   0  0  0  0  0  0  0  0  0  0  0  0
   35.5122  -29.9571  -19.2767 C   0  0  0  0  0  0  0  0  0  0  0  0
   35.8762  -30.3802  -18.1533 O   0  0  0  0  0  0  0  0  0  0  0  0
   35.7317  -33.7943  -22.0834 C   0  0  0  0  0  0  0  0  0  0  0  0
   36.0517  -34.4639  -23.2637 C   0  0  0  0  0  0  0  0  0  0  0  0
   35.2095  -26.3554  -20.4981 C   0  0  0  0  0  0  0  0  0  0  0  0
   34.3357  -25.8625  -19.3420 C   0  0  1  0  0  0  0  0  0  0  0  0
   33.6733  -24.5875  -19.8925 C   0  0  0  0  0  0  0  0  0  0  0  0
   33.3131  -26.8799  -18.9832 C   0  0  0  0  0  0  0  0  0  0  0  0
   33.9314  -28.1694  -18.4667 C   0  0  2  0  0  0  0  0  0  0  0  0
   34.6483  -28.8841  -19.4765 N   0  0  0  0  0  0  0  0  0  0  0  0
   33.0327  -28.9568  -17.6366 C   0  0  0  0  0  0  0  0  0  0  0  0
   32.4776  -28.4474  -16.5971 O   0  0  0  0  0  0  0  0  0  0  0  0
   29.6979  -31.8491  -15.4955 N   0  0  0  0  0  0  0  0  0  0  0  0
   29.2925  -31.1362  -16.6767 C   0  0  0  0  0  0  0  0  0  0  0  0
   28.0613  -30.9585  -16.7909 O   0  0  0  0  0  0  0  0  0  0  0  0
   30.3207  -30.6821  -17.6341 C   0  0  0  0  0  0  0  0  0  0  0  0
   31.6904  -31.0409  -17.1813 C   0  0  2  0  0  0  0  0  0  0  0  0
   32.7157  -30.2913  -17.9033 N   0  0  0  0  0  0  0  0  0  0  0  0
   31.9527  -32.4755  -17.5512 C   0  0  0  0  0  0  0  0  0  0  0  0
   32.6891  -32.8353  -18.4759 O   0  0  0  0  0  0  0  0  0  0  0  0
   31.3404  -33.5175  -16.8235 O   0  0  0  0  0  0  0  0  0  0  0  0
  2  3  2  0
  2  1  1  0
  4  3  1  0
  5  4  2  0
  6  5  1  0
  6  7  1  0
  7  8  1  1
  9  7  1  0
  9 18  1  0
 10  9  2  0
 11  5  1  0
 11 12  2  0
 12  2  1  0
 14 13  1  6
 14 15  1  0
 16 14  1  0
 17 16  1  6
 17 18  1  0
 19 17  1  0
 20 19  2  0
 21 22  1  0
 22 24  1  0
 23 22  2  0
 25 24  1  6
 25 26  1  0
 25 27  1  0
 26 19  1  0
 27 29  1  0
 28 27  2  0
M  END
$$$$
