YLN.pdb
     RDKit          3D

 29 29  0  0  1  0  0  0  0  0999 V2000
   20.0456  -20.1795  -20.3128 O   0  0  0  0  0  0  0  0  0  0  0  0
   20.6346  -18.9810  -19.8969 C   0  0  0  0  0  0  0  0  0  0  0  0
   22.0046  -18.7992  -19.9657 C   0  0  0  0  0  0  0  0  0  0  0  0
   22.5545  -17.6000  -19.5453 C   0  0  0  0  0  0  0  0  0  0  0  0
   21.7427  -16.5911  -19.0603 C   0  0  0  0  0  0  0  0  0  0  0  0
   22.3134  -15.3040  -18.6066 C   0  0  0  0  0  0  0  0  0  0  0  0
   23.2034  -15.4665  -17.4022 C   0  0  2  0  0  0  0  0  0  0  0  0
   22.4545  -15.9460  -16.2842 N   0  0  0  0  0  0  0  0  0  0  0  0
   23.7395  -14.0992  -17.0602 C   0  0  0  0  0  0  0  0  0  0  0  0
   23.0689  -13.3686  -16.2919 O   0  0  0  0  0  0  0  0  0  0  0  0
   20.3805  -16.7836  -18.9967 C   0  0  0  0  0  0  0  0  0  0  0  0
   19.8090  -17.9844  -19.4155 C   0  0  0  0  0  0  0  0  0  0  0  0
   29.1360  -13.9694  -17.0062 C   0  0  0  0  0  0  0  0  0  0  0  0
   27.6228  -13.8151  -16.8341 C   0  0  1  0  0  0  0  0  0  0  0  0
   27.4320  -13.6844  -15.3128 C   0  0  0  0  0  0  0  0  0  0  0  0
   27.1335  -12.6003  -17.5371 C   0  0  0  0  0  0  0  0  0  0  0  0
   25.6182  -12.4789  -17.5030 C   0  0  2  0  0  0  0  0  0  0  0  0
   24.9578  -13.7407  -17.6301 N   0  0  0  0  0  0  0  0  0  0  0  0
   25.1001  -11.3961  -18.3249 C   0  0  0  0  0  0  0  0  0  0  0  0
   25.5220  -10.1929  -18.1745 O   0  0  0  0  0  0  0  0  0  0  0  0
   23.8615  -11.2859  -23.8393 N   0  0  0  0  0  0  0  0  0  0  0  0
   23.8584  -10.5293  -22.6164 C   0  0  0  0  0  0  0  0  0  0  0  0
   24.5250   -9.4733  -22.6460 O   0  0  0  0  0  0  0  0  0  0  0  0
   23.0968  -11.0349  -21.4570 C   0  0  0  0  0  0  0  0  0  0  0  0
   23.6349  -10.5101  -20.1744 C   0  0  2  0  0  0  0  0  0  0  0  0
   24.1301  -11.5815  -19.3134 N   0  0  0  0  0  0  0  0  0  0  0  0
   22.4992   -9.9050  -19.3948 C   0  0  0  0  0  0  0  0  0  0  0  0
   21.7380  -10.5431  -18.6599 O   0  0  0  0  0  0  0  0  0  0  0  0
   22.2449   -8.5196  -19.4742 O   0  0  0  0  0  0  0  0  0  0  0  0
  2  3  2  0
  2  1  1  0
  4  3  1  0
  5  4  2  0
  6  5  1  0
  6  7  1  0
  7  8  1  1
  9  7  1  0
  9 18  1  0
 10  9  2  0
 11  5  1  0
 11 12  2  0
 12  2  1  0
 14 13  1  1
 14 15  1  0
 16 14  1  0
 17 16  1  6
 17 18  1  0
 19 17  1  0
 20 19  2  0
 21 22  1  0
 22 24  1  0
 23 22  2  0
 25 24  1  6
 25 26  1  0
 25 27  1  0
 26 19  1  0
 27 29  1  0
 28 27  2  0
M  END
$$$$
