YLN.pdb
     RDKit          3D

 29 29  0  0  1  0  0  0  0  0999 V2000
   28.8892  -14.5863  -19.1541 O   0  0  0  0  0  0  0  0  0  0  0  0
   28.1223  -15.5196  -18.4491 C   0  0  0  0  0  0  0  0  0  0  0  0
   27.1890  -16.3094  -19.0969 C   0  0  0  0  0  0  0  0  0  0  0  0
   26.4466  -17.2232  -18.3681 C   0  0  0  0  0  0  0  0  0  0  0  0
   26.6351  -17.3469  -17.0038 C   0  0  0  0  0  0  0  0  0  0  0  0
   25.8504  -18.3174  -16.2099 C   0  0  0  0  0  0  0  0  0  0  0  0
   26.7287  -19.2730  -15.4452 C   0  0  2  0  0  0  0  0  0  0  0  0
   27.4597  -20.1114  -16.3416 N   0  0  0  0  0  0  0  0  0  0  0  0
   25.8186  -20.1458  -14.6183 C   0  0  0  0  0  0  0  0  0  0  0  0
   25.3316  -21.1734  -15.1479 O   0  0  0  0  0  0  0  0  0  0  0  0
   27.5669  -16.5552  -16.3700 C   0  0  0  0  0  0  0  0  0  0  0  0
   28.3236  -15.6297  -17.0875 C   0  0  0  0  0  0  0  0  0  0  0  0
   27.2132  -21.5506  -11.2465 C   0  0  0  0  0  0  0  0  0  0  0  0
   25.9108  -21.3934  -10.4576 C   0  0  1  0  0  0  0  0  0  0  0  0
   26.3765  -21.1973   -9.0042 C   0  0  0  0  0  0  0  0  0  0  0  0
   25.1452  -20.2117  -10.9341 C   0  0  0  0  0  0  0  0  0  0  0  0
   24.6871  -20.3582  -12.3765 C   0  0  2  0  0  0  0  0  0  0  0  0
   25.5807  -19.7424  -13.3075 N   0  0  0  0  0  0  0  0  0  0  0  0
   23.2707  -20.0885  -12.5700 C   0  0  0  0  0  0  0  0  0  0  0  0
   22.7951  -18.9072  -12.4069 O   0  0  0  0  0  0  0  0  0  0  0  0
   19.1523  -18.5600  -15.4768 N   0  0  0  0  0  0  0  0  0  0  0  0
   19.6576  -19.8903  -15.2697 C   0  0  0  0  0  0  0  0  0  0  0  0
   18.8710  -20.8094  -15.5807 O   0  0  0  0  0  0  0  0  0  0  0  0
   21.0183  -20.0686  -14.7249 C   0  0  0  0  0  0  0  0  0  0  0  0
   20.9989  -20.7763  -13.4177 C   0  0  2  0  0  0  0  0  0  0  0  0
   22.3473  -21.0704  -12.9385 N   0  0  0  0  0  0  0  0  0  0  0  0
   20.3753  -22.1306  -13.6198 C   0  0  0  0  0  0  0  0  0  0  0  0
   19.2262  -22.4289  -13.2771 O   0  0  0  0  0  0  0  0  0  0  0  0
   21.1109  -23.1637  -14.2376 O   0  0  0  0  0  0  0  0  0  0  0  0
  2  3  2  0
  2  1  1  0
  4  3  1  0
  5  4  2  0
  6  5  1  0
  6  7  1  0
  7  8  1  6
  9  7  1  0
  9 18  1  0
 10  9  2  0
 11  5  1  0
 11 12  2  0
 12  2  1  0
 14 13  1  6
 14 15  1  0
 16 14  1  0
 17 16  1  1
 17 18  1  0
 19 17  1  0
 20 19  2  0
 21 22  1  0
 22 24  1  0
 23 22  2  0
 25 24  1  6
 25 26  1  0
 25 27  1  0
 26 19  1  0
 27 29  1  0
 28 27  2  0
M  END
$$$$
