YLN.pdb
     RDKit          3D

 29 29  0  0  1  0  0  0  0  0999 V2000
   18.4628  -16.3319  -17.9035 O   0  0  0  0  0  0  0  0  0  0  0  0
   18.5071  -15.0910  -17.2597 C   0  0  0  0  0  0  0  0  0  0  0  0
   19.3563  -14.8739  -16.1891 C   0  0  0  0  0  0  0  0  0  0  0  0
   19.3746  -13.6332  -15.5749 C   0  0  0  0  0  0  0  0  0  0  0  0
   18.5515  -12.6179  -16.0264 C   0  0  0  0  0  0  0  0  0  0  0  0
   18.5578  -11.2866  -15.3817 C   0  0  0  0  0  0  0  0  0  0  0  0
   18.7825  -10.1734  -16.3714 C   0  0  2  0  0  0  0  0  0  0  0  0
   20.0652  -10.2991  -16.9874 N   0  0  0  0  0  0  0  0  0  0  0  0
   18.7551   -8.8800  -15.5967 C   0  0  0  0  0  0  0  0  0  0  0  0
   17.7421   -8.6184  -14.9045 O   0  0  0  0  0  0  0  0  0  0  0  0
   17.7104  -12.8458  -17.0929 C   0  0  0  0  0  0  0  0  0  0  0  0
   17.6785  -14.0887  -17.7238 C   0  0  0  0  0  0  0  0  0  0  0  0
   21.2799   -4.8086  -13.0976 C   0  0  0  0  0  0  0  0  0  0  0  0
   21.5965   -4.8924  -14.5929 C   0  0  1  0  0  0  0  0  0  0  0  0
   23.0550   -4.4122  -14.6927 C   0  0  0  0  0  0  0  0  0  0  0  0
   21.4626   -6.2895  -15.0826 C   0  0  0  0  0  0  0  0  0  0  0  0
   20.0123   -6.7366  -15.1767 C   0  0  2  0  0  0  0  0  0  0  0  0
   19.8724   -8.0571  -15.7069 N   0  0  0  0  0  0  0  0  0  0  0  0
   19.1235   -5.7250  -15.7273 C   0  0  0  0  0  0  0  0  0  0  0  0
   19.2251   -5.3526  -16.9518 O   0  0  0  0  0  0  0  0  0  0  0  0
   14.2676   -2.2888  -14.5043 N   0  0  0  0  0  0  0  0  0  0  0  0
   14.9525   -3.1413  -15.4382 C   0  0  0  0  0  0  0  0  0  0  0  0
   14.7152   -2.9059  -16.6417 O   0  0  0  0  0  0  0  0  0  0  0  0
   15.8530   -4.1941  -14.9277 C   0  0  0  0  0  0  0  0  0  0  0  0
   17.2085   -4.0982  -15.5306 C   0  0  2  0  0  0  0  0  0  0  0  0
   18.1195   -5.1004  -14.9828 N   0  0  0  0  0  0  0  0  0  0  0  0
   17.8177   -2.7840  -15.1238 C   0  0  0  0  0  0  0  0  0  0  0  0
   18.2801   -2.5453  -14.0031 O   0  0  0  0  0  0  0  0  0  0  0  0
   17.8894   -1.7206  -16.0480 O   0  0  0  0  0  0  0  0  0  0  0  0
  2  3  2  0
  2  1  1  0
  4  3  1  0
  5  4  2  0
  6  5  1  0
  6  7  1  0
  7  8  1  1
  9  7  1  0
  9 18  1  0
 10  9  2  0
 11  5  1  0
 11 12  2  0
 12  2  1  0
 14 13  1  1
 14 15  1  0
 16 14  1  0
 17 16  1  6
 17 18  1  0
 19 17  1  0
 20 19  2  0
 21 22  1  0
 22 24  1  0
 23 22  2  0
 25 24  1  1
 25 26  1  0
 25 27  1  0
 26 19  1  0
 27 29  1  0
 28 27  2  0
M  END
$$$$
