YRS.pdb
     RDKit          3D

 30 30  0  0  1  0  0  0  0  0999 V2000
    5.5843  -10.5261   28.1149 O   0  0  0  0  0  0  0  0  0  0  0  0
    6.2172  -11.5856   27.4755 C   0  0  0  0  0  0  0  0  0  0  0  0
    6.4980  -12.7432   28.1865 C   0  0  0  0  0  0  0  0  0  0  0  0
    7.1345  -13.8220   27.5632 C   0  0  0  0  0  0  0  0  0  0  0  0
    7.4842  -13.7387   26.2421 C   0  0  0  0  0  0  0  0  0  0  0  0
    8.1566  -14.8638   25.5761 C   0  0  0  0  0  0  0  0  0  0  0  0
    7.1849  -15.4345   24.5335 C   0  0  2  0  0  0  0  0  0  0  0  0
    6.3460  -16.4493   25.1304 N   0  0  0  0  0  0  0  0  0  0  0  0
    7.9069  -15.9177   23.3474 C   0  0  0  0  0  0  0  0  0  0  0  0
    8.1460  -17.1743   23.3236 O   0  0  0  0  0  0  0  0  0  0  0  0
    7.2041  -12.5906   25.5416 C   0  0  0  0  0  0  0  0  0  0  0  0
    6.5739  -11.5135   26.1463 C   0  0  0  0  0  0  0  0  0  0  0  0
    8.9448  -15.2983   17.2244 N   0  0  0  0  0  0  0  0  0  0  0  0
    8.1962  -14.3062   16.5423 C   0  0  0  0  0  0  0  0  0  0  0  0
    8.0237  -14.2874   15.2618 N   0  0  0  0  0  0  0  0  0  0  0  0
    7.5906  -13.2622   17.2994 N   0  0  0  0  0  0  0  0  0  0  0  0
    8.0842  -12.8870   18.6174 C   0  0  0  0  0  0  0  0  0  0  0  0
    7.9121  -14.0541   19.5300 C   0  0  0  0  0  0  0  0  0  0  0  0
    9.1408  -14.5909   20.1343 C   0  0  0  0  0  0  0  0  0  0  0  0
    8.9912  -15.7133   21.1299 C   0  0  2  0  0  0  0  0  0  0  0  0
    8.3291  -15.0955   22.2804 N   0  0  0  0  0  0  0  0  0  0  0  0
   10.2965  -16.2071   21.6390 C   0  0  0  0  0  0  0  0  0  0  0  0
   10.9814  -15.5600   22.5071 O   0  0  0  0  0  0  0  0  0  0  0  0
    7.4581  -13.5777   14.7685 O   0  0  0  0  0  0  0  0  0  0  0  0
   11.3536  -20.0208   21.6995 C   0  0  0  0  0  0  0  0  0  0  0  0
   12.1771  -19.1463   22.3649 C   0  0  1  0  0  0  0  0  0  0  0  0
   12.2440  -17.8066   21.6730 N   0  0  0  0  0  0  0  0  0  0  0  0
   10.9061  -17.4257   21.2255 C   0  0  0  0  0  0  0  0  0  0  0  0
   13.1007  -17.9125   20.4564 O   0  0  0  0  0  0  0  0  0  0  0  0
   12.6701  -17.7120   19.3056 O   0  0  0  0  0  0  0  0  0  0  0  0
  2  1  1  0
  3  2  2  0
  4  3  1  0
  5 11  1  0
  5  4  2  0
  6  5  1  0
  7  9  1  0
  7  6  1  0
  7  8  1  1
  9 10  2  0
 11 12  2  0
 12  2  1  0
 13 14  1  0
 14 15  2  0
 16 14  1  0
 16 17  1  0
 18 17  1  0
 19 18  1  0
 20 19  1  6
 21 20  1  0
 21  9  1  0
 22 20  1  0
 23 22  2  0
 24 25  1  0
 26 25  1  1
 26 28  1  0
 26 27  1  0
 27 22  1  0
 28 30  1  0
 29 28  2  0
M  END
$$$$
