YRS.pdb
     RDKit          3D

 30 30  0  0  1  0  0  0  0  0999 V2000
    5.7139  -10.5128   26.9395 O   0  0  0  0  0  0  0  0  0  0  0  0
    6.1289  -11.8256   26.7481 C   0  0  0  0  0  0  0  0  0  0  0  0
    7.4721  -12.1441   26.8846 C   0  0  0  0  0  0  0  0  0  0  0  0
    7.9122  -13.4587   26.6963 C   0  0  0  0  0  0  0  0  0  0  0  0
    7.0139  -14.4408   26.3752 C   0  0  0  0  0  0  0  0  0  0  0  0
    7.4638  -15.8257   26.1713 C   0  0  0  0  0  0  0  0  0  0  0  0
    6.7699  -16.3587   24.9098 C   0  0  2  0  0  0  0  0  0  0  0  0
    6.1085  -17.6129   25.1916 N   0  0  0  0  0  0  0  0  0  0  0  0
    7.7145  -16.4526   23.7872 C   0  0  0  0  0  0  0  0  0  0  0  0
    8.2478  -17.6023   23.6123 O   0  0  0  0  0  0  0  0  0  0  0  0
    5.6846  -14.1211   26.2412 C   0  0  0  0  0  0  0  0  0  0  0  0
    5.2341  -12.8225   26.4246 C   0  0  0  0  0  0  0  0  0  0  0  0
    9.2060  -14.8860   17.2454 N   0  0  0  0  0  0  0  0  0  0  0  0
    8.0565  -14.1395   16.8829 C   0  0  0  0  0  0  0  0  0  0  0  0
    7.4013  -14.3146   15.7830 N   0  0  0  0  0  0  0  0  0  0  0  0
    7.5821  -13.1343   17.7741 N   0  0  0  0  0  0  0  0  0  0  0  0
    8.1862  -12.9244   19.0828 C   0  0  0  0  0  0  0  0  0  0  0  0
    8.0446  -14.1835   19.8696 C   0  0  0  0  0  0  0  0  0  0  0  0
    8.9371  -14.3264   21.0299 C   0  0  0  0  0  0  0  0  0  0  0  0
    8.9040  -15.6377   21.7733 C   0  0  2  0  0  0  0  0  0  0  0  0
    8.0450  -15.3803   22.9306 N   0  0  0  0  0  0  0  0  0  0  0  0
   10.2272  -16.0131   22.3347 C   0  0  0  0  0  0  0  0  0  0  0  0
   10.7530  -15.3898   23.3228 O   0  0  0  0  0  0  0  0  0  0  0  0
    6.6147  -13.7170   15.4814 O   0  0  0  0  0  0  0  0  0  0  0  0
   11.8305  -19.5246   23.0969 C   0  0  0  0  0  0  0  0  0  0  0  0
   12.6761  -18.8043   22.2895 C   0  0  2  0  0  0  0  0  0  0  0  0
   12.3788  -17.3257   22.3481 N   0  0  0  0  0  0  0  0  0  0  0  0
   11.0287  -17.0832   21.8445 C   0  0  0  0  0  0  0  0  0  0  0  0
   13.3197  -16.5890   21.4551 O   0  0  0  0  0  0  0  0  0  0  0  0
   12.9399  -15.9172   20.4782 O   0  0  0  0  0  0  0  0  0  0  0  0
  2  1  1  0
  3  2  2  0
  4  3  1  0
  5 11  1  0
  5  4  2  0
  6  5  1  0
  7  9  1  0
  7  6  1  0
  7  8  1  1
  9 10  2  0
 11 12  2  0
 12  2  1  0
 13 14  1  0
 14 15  2  0
 16 14  1  0
 16 17  1  0
 18 17  1  0
 19 18  1  0
 20 19  1  6
 21 20  1  0
 21  9  1  0
 22 20  1  0
 23 22  2  0
 24 25  1  0
 26 25  1  1
 26 28  1  0
 26 27  1  0
 27 22  1  0
 28 30  1  0
 29 28  2  0
M  END
$$$$
