YRS.pdb
     RDKit          3D

 30 30  0  0  1  0  0  0  0  0999 V2000
    8.5924  -13.6082   16.3800 O   0  0  0  0  0  0  0  0  0  0  0  0
    8.3961  -13.8067   17.7417 C   0  0  0  0  0  0  0  0  0  0  0  0
    9.2383  -14.6635   18.4354 C   0  0  0  0  0  0  0  0  0  0  0  0
    9.0591  -14.8784   19.8062 C   0  0  0  0  0  0  0  0  0  0  0  0
    8.0467  -14.2403   20.4715 C   0  0  0  0  0  0  0  0  0  0  0  0
    7.8454  -14.4601   21.9113 C   0  0  0  0  0  0  0  0  0  0  0  0
    7.2783  -15.8754   22.0905 C   0  0  2  0  0  0  0  0  0  0  0  0
    5.8898  -15.9152   21.6901 N   0  0  0  0  0  0  0  0  0  0  0  0
    7.4894  -16.3591   23.4626 C   0  0  0  0  0  0  0  0  0  0  0  0
    6.5589  -16.0773   24.2941 O   0  0  0  0  0  0  0  0  0  0  0  0
    7.2152  -13.3926   19.7807 C   0  0  0  0  0  0  0  0  0  0  0  0
    7.3808  -13.1702   18.4220 C   0  0  0  0  0  0  0  0  0  0  0  0
   11.8713  -20.6139   29.4319 N   0  0  0  0  0  0  0  0  0  0  0  0
   11.1022  -21.4738   28.6077 C   0  0  0  0  0  0  0  0  0  0  0  0
   10.6534  -22.6243   28.9879 N   0  0  0  0  0  0  0  0  0  0  0  0
   10.7964  -21.0585   27.2796 N   0  0  0  0  0  0  0  0  0  0  0  0
   11.4041  -19.8739   26.6889 C   0  0  0  0  0  0  0  0  0  0  0  0
   10.3888  -18.7813   26.6842 C   0  0  0  0  0  0  0  0  0  0  0  0
    9.7481  -18.4977   25.3910 C   0  0  0  0  0  0  0  0  0  0  0  0
    8.8283  -17.3051   25.3193 C   0  0  2  0  0  0  0  0  0  0  0  0
    8.6213  -17.0887   23.8862 N   0  0  0  0  0  0  0  0  0  0  0  0
    9.4624  -16.0597   25.8230 C   0  0  0  0  0  0  0  0  0  0  0  0
   10.3917  -15.4564   25.1795 O   0  0  0  0  0  0  0  0  0  0  0  0
   10.0645  -23.2347   28.3984 O   0  0  0  0  0  0  0  0  0  0  0  0
    9.1018  -12.0027   28.3092 C   0  0  0  0  0  0  0  0  0  0  0  0
    8.6005  -13.1702   27.7883 C   0  0  1  0  0  0  0  0  0  0  0  0
    9.7000  -14.1458   27.4457 N   0  0  0  0  0  0  0  0  0  0  0  0
    9.1083  -15.4205   27.0452 C   0  0  0  0  0  0  0  0  0  0  0  0
   10.5325  -14.4086   28.6553 O   0  0  0  0  0  0  0  0  0  0  0  0
   10.4787  -15.4750   29.2956 O   0  0  0  0  0  0  0  0  0  0  0  0
  2  1  1  0
  3  2  2  0
  4  3  1  0
  5 11  1  0
  5  4  2  0
  6  5  1  0
  7  9  1  0
  7  6  1  0
  7  8  1  1
  9 10  2  0
 11 12  2  0
 12  2  1  0
 13 14  1  0
 14 15  2  0
 16 14  1  0
 16 17  1  0
 18 17  1  0
 19 18  1  0
 20 19  1  6
 21 20  1  0
 21  9  1  0
 22 20  1  0
 23 22  2  0
 24 25  1  0
 26 25  1  6
 26 28  1  0
 26 27  1  0
 27 22  1  0
 28 30  1  0
 29 28  2  0
M  END
$$$$
