YRS.pdb
     RDKit          3D

 30 30  0  0  1  0  0  0  0  0999 V2000
    9.0317  -13.4603   16.1508 O   0  0  0  0  0  0  0  0  0  0  0  0
    8.6767  -13.6191   17.4853 C   0  0  0  0  0  0  0  0  0  0  0  0
    9.1880  -14.6888   18.2055 C   0  0  0  0  0  0  0  0  0  0  0  0
    8.8439  -14.8684   19.5497 C   0  0  0  0  0  0  0  0  0  0  0  0
    7.9971  -13.9841   20.1624 C   0  0  0  0  0  0  0  0  0  0  0  0
    7.6249  -14.1632   21.5735 C   0  0  0  0  0  0  0  0  0  0  0  0
    6.9228  -15.5226   21.6998 C   0  0  2  0  0  0  0  0  0  0  0  0
    5.6276  -15.4812   21.0590 N   0  0  0  0  0  0  0  0  0  0  0  0
    6.8498  -15.9508   23.1044 C   0  0  0  0  0  0  0  0  0  0  0  0
    5.8823  -15.4566   23.7801 O   0  0  0  0  0  0  0  0  0  0  0  0
    7.4932  -12.9260   19.4456 C   0  0  0  0  0  0  0  0  0  0  0  0
    7.8253  -12.7357   18.1128 C   0  0  0  0  0  0  0  0  0  0  0  0
    8.4946  -22.3823   29.1106 N   0  0  0  0  0  0  0  0  0  0  0  0
    9.0231  -21.3843   28.2534 C   0  0  0  0  0  0  0  0  0  0  0  0
    9.8260  -20.4504   28.6445 N   0  0  0  0  0  0  0  0  0  0  0  0
    8.6581  -21.3992   26.8763 N   0  0  0  0  0  0  0  0  0  0  0  0
    7.3856  -20.8603   26.4158 C   0  0  0  0  0  0  0  0  0  0  0  0
    7.4725  -19.3716   26.4409 C   0  0  0  0  0  0  0  0  0  0  0  0
    7.5390  -18.7042   25.1319 C   0  0  0  0  0  0  0  0  0  0  0  0
    7.5641  -17.1967   25.1223 C   0  0  2  0  0  0  0  0  0  0  0  0
    7.7574  -16.8432   23.7148 N   0  0  0  0  0  0  0  0  0  0  0  0
    8.7393  -16.6374   25.8387 C   0  0  0  0  0  0  0  0  0  0  0  0
    9.9294  -16.7229   25.3720 O   0  0  0  0  0  0  0  0  0  0  0  0
   10.3057  -19.7990   28.0024 O   0  0  0  0  0  0  0  0  0  0  0  0
   10.4365  -13.3075   28.8557 C   0  0  0  0  0  0  0  0  0  0  0  0
    9.3752  -14.0117   28.3425 C   0  0  2  0  0  0  0  0  0  0  0  0
    9.8242  -15.2850   27.6680 N   0  0  0  0  0  0  0  0  0  0  0  0
    8.6650  -15.9609   27.0895 C   0  0  0  0  0  0  0  0  0  0  0  0
   10.4113  -16.2093   28.6811 O   0  0  0  0  0  0  0  0  0  0  0  0
    9.8437  -17.2522   29.0555 O   0  0  0  0  0  0  0  0  0  0  0  0
  2  1  1  0
  3  2  2  0
  4  3  1  0
  5 11  1  0
  5  4  2  0
  6  5  1  0
  7  9  1  0
  7  6  1  0
  7  8  1  1
  9 10  2  0
 11 12  2  0
 12  2  1  0
 13 14  1  0
 14 15  2  0
 16 14  1  0
 16 17  1  0
 18 17  1  0
 19 18  1  0
 20 19  1  6
 21 20  1  0
 21  9  1  0
 22 20  1  0
 23 22  2  0
 24 25  1  0
 26 25  1  6
 26 28  1  0
 26 27  1  0
 27 22  1  0
 28 30  1  0
 29 28  2  0
M  END
$$$$
