YRS.pdb
     RDKit          3D

 30 30  0  0  1  0  0  0  0  0999 V2000
    4.9705  -10.7751   28.3034 O   0  0  0  0  0  0  0  0  0  0  0  0
    5.7270  -11.6687   27.5542 C   0  0  0  0  0  0  0  0  0  0  0  0
    6.5932  -12.5391   28.1996 C   0  0  0  0  0  0  0  0  0  0  0  0
    7.3645  -13.4467   27.4655 C   0  0  0  0  0  0  0  0  0  0  0  0
    7.2663  -13.4795   26.1003 C   0  0  0  0  0  0  0  0  0  0  0  0
    8.0737  -14.4261   25.3169 C   0  0  0  0  0  0  0  0  0  0  0  0
    7.1104  -15.4215   24.6550 C   0  0  2  0  0  0  0  0  0  0  0  0
    6.7316  -16.4543   25.5930 N   0  0  0  0  0  0  0  0  0  0  0  0
    7.6811  -15.9622   23.4126 C   0  0  0  0  0  0  0  0  0  0  0  0
    7.9639  -17.2097   23.4349 O   0  0  0  0  0  0  0  0  0  0  0  0
    6.4071  -12.6160   25.4652 C   0  0  0  0  0  0  0  0  0  0  0  0
    5.6368  -11.7110   26.1797 C   0  0  0  0  0  0  0  0  0  0  0  0
    8.1458  -12.9127   15.0019 N   0  0  0  0  0  0  0  0  0  0  0  0
    8.5886  -14.2594   14.9846 C   0  0  0  0  0  0  0  0  0  0  0  0
    8.9319  -14.8911   13.9109 N   0  0  0  0  0  0  0  0  0  0  0  0
    8.6665  -14.9718   16.2160 N   0  0  0  0  0  0  0  0  0  0  0  0
    8.2923  -14.3559   17.4817 C   0  0  0  0  0  0  0  0  0  0  0  0
    8.5677  -15.3319   18.5754 C   0  0  0  0  0  0  0  0  0  0  0  0
    8.1310  -14.9356   19.9227 C   0  0  0  0  0  0  0  0  0  0  0  0
    8.4472  -15.8751   21.0588 C   0  0  2  0  0  0  0  0  0  0  0  0
    7.9202  -15.2020   22.2474 N   0  0  0  0  0  0  0  0  0  0  0  0
    9.9067  -16.0185   21.2961 C   0  0  0  0  0  0  0  0  0  0  0  0
   10.5986  -15.1081   21.8739 O   0  0  0  0  0  0  0  0  0  0  0  0
    9.3145  -15.8505   13.9061 O   0  0  0  0  0  0  0  0  0  0  0  0
   11.6762  -19.4060   22.0744 C   0  0  0  0  0  0  0  0  0  0  0  0
   12.3660  -18.2353   22.2726 C   0  0  1  0  0  0  0  0  0  0  0  0
   12.1070  -17.2410   21.1671 N   0  0  0  0  0  0  0  0  0  0  0  0
   10.6696  -17.1594   20.9166 C   0  0  0  0  0  0  0  0  0  0  0  0
   12.7465  -17.7154   19.9056 O   0  0  0  0  0  0  0  0  0  0  0  0
   13.9760  -17.8710   19.7869 O   0  0  0  0  0  0  0  0  0  0  0  0
  2  1  1  0
  3  2  2  0
  4  3  1  0
  5 11  1  0
  5  4  2  0
  6  5  1  0
  7  9  1  0
  7  6  1  0
  7  8  1  1
  9 10  2  0
 11 12  2  0
 12  2  1  0
 13 14  1  0
 14 15  2  0
 16 14  1  0
 16 17  1  0
 18 17  1  0
 19 18  1  0
 20 19  1  6
 21 20  1  0
 21  9  1  0
 22 20  1  0
 23 22  2  0
 24 25  1  0
 26 25  1  1
 26 28  1  0
 26 27  1  0
 27 22  1  0
 28 30  1  0
 29 28  2  0
M  END
$$$$
