YRS.pdb
     RDKit          3D

 30 30  0  0  1  0  0  0  0  0999 V2000
    5.2705  -10.3195   27.8951 O   0  0  0  0  0  0  0  0  0  0  0  0
    5.9898  -11.3620   27.3224 C   0  0  0  0  0  0  0  0  0  0  0  0
    6.9404  -12.0322   28.0785 C   0  0  0  0  0  0  0  0  0  0  0  0
    7.6762  -13.0843   27.5225 C   0  0  0  0  0  0  0  0  0  0  0  0
    7.4592  -13.4584   26.2235 C   0  0  0  0  0  0  0  0  0  0  0  0
    8.2280  -14.5602   25.6262 C   0  0  0  0  0  0  0  0  0  0  0  0
    7.2599  -15.7283   25.3912 C   0  0  2  0  0  0  0  0  0  0  0  0
    6.8948  -16.3397   26.6493 N   0  0  0  0  0  0  0  0  0  0  0  0
    7.8177  -16.6915   24.4307 C   0  0  0  0  0  0  0  0  0  0  0  0
    8.3260  -17.7476   24.9435 O   0  0  0  0  0  0  0  0  0  0  0  0
    6.5167  -12.7923   25.4784 C   0  0  0  0  0  0  0  0  0  0  0  0
    5.7802  -11.7476   26.0161 C   0  0  0  0  0  0  0  0  0  0  0  0
    7.3685  -13.2663   19.1929 N   0  0  0  0  0  0  0  0  0  0  0  0
    8.4589  -13.5584   18.3352 C   0  0  0  0  0  0  0  0  0  0  0  0
    9.2409  -12.6606   17.8330 N   0  0  0  0  0  0  0  0  0  0  0  0
    8.7221  -14.9175   17.9986 N   0  0  0  0  0  0  0  0  0  0  0  0
    8.0045  -16.0157   18.6315 C   0  0  0  0  0  0  0  0  0  0  0  0
    8.4852  -16.1384   20.0381 C   0  0  0  0  0  0  0  0  0  0  0  0
    7.9484  -17.2694   20.8100 C   0  0  0  0  0  0  0  0  0  0  0  0
    8.5085  -17.4943   22.1917 C   0  0  2  0  0  0  0  0  0  0  0  0
    7.8177  -16.5130   23.0304 N   0  0  0  0  0  0  0  0  0  0  0  0
    9.9517  -17.1557   22.2884 C   0  0  0  0  0  0  0  0  0  0  0  0
   10.3769  -15.9486   22.2269 O   0  0  0  0  0  0  0  0  0  0  0  0
   10.0237  -12.8730   17.1936 O   0  0  0  0  0  0  0  0  0  0  0  0
   12.5712  -19.7564   23.8060 C   0  0  0  0  0  0  0  0  0  0  0  0
   13.0298  -18.4651   23.7178 C   0  0  1  0  0  0  0  0  0  0  0  0
   12.3913  -17.7234   22.5688 N   0  0  0  0  0  0  0  0  0  0  0  0
   10.9883  -18.1170   22.4587 C   0  0  0  0  0  0  0  0  0  0  0  0
   13.0573  -18.1089   21.2908 O   0  0  0  0  0  0  0  0  0  0  0  0
   12.4488  -18.6406   20.3438 O   0  0  0  0  0  0  0  0  0  0  0  0
  2  1  1  0
  3  2  2  0
  4  3  1  0
  5 11  1  0
  5  4  2  0
  6  5  1  0
  7  9  1  0
  7  6  1  0
  7  8  1  1
  9 10  2  0
 11 12  2  0
 12  2  1  0
 13 14  1  0
 14 15  2  0
 16 14  1  0
 16 17  1  0
 18 17  1  0
 19 18  1  0
 20 19  1  6
 21 20  1  0
 21  9  1  0
 22 20  1  0
 23 22  2  0
 24 25  1  0
 26 25  1  1
 26 28  1  0
 26 27  1  0
 27 22  1  0
 28 30  1  0
 29 28  2  0
M  END
$$$$
