YRS.pdb
     RDKit          3D

 30 30  0  0  1  0  0  0  0  0999 V2000
    5.9134  -10.1583   27.7800 O   0  0  0  0  0  0  0  0  0  0  0  0
    6.4405  -11.3395   27.2710 C   0  0  0  0  0  0  0  0  0  0  0  0
    6.2033  -11.6786   25.9470 C   0  0  0  0  0  0  0  0  0  0  0  0
    6.7239  -12.8627   25.4136 C   0  0  0  0  0  0  0  0  0  0  0  0
    7.4736  -13.6951   26.2007 C   0  0  0  0  0  0  0  0  0  0  0  0
    8.0236  -14.9441   25.6535 C   0  0  0  0  0  0  0  0  0  0  0  0
    6.9210  -15.6110   24.8191 C   0  0  2  0  0  0  0  0  0  0  0  0
    6.4994  -16.8471   25.4390 N   0  0  0  0  0  0  0  0  0  0  0  0
    7.3499  -15.7908   23.4244 C   0  0  0  0  0  0  0  0  0  0  0  0
    7.6052  -16.9959   23.0788 O   0  0  0  0  0  0  0  0  0  0  0  0
    7.7063  -13.3554   27.5113 C   0  0  0  0  0  0  0  0  0  0  0  0
    7.1966  -12.1852   28.0534 C   0  0  0  0  0  0  0  0  0  0  0  0
    9.9696  -15.4246   16.8549 N   0  0  0  0  0  0  0  0  0  0  0  0
    8.7763  -14.9498   16.2544 C   0  0  0  0  0  0  0  0  0  0  0  0
    8.6529  -14.7067   14.9913 N   0  0  0  0  0  0  0  0  0  0  0  0
    7.6364  -14.7239   17.0786 N   0  0  0  0  0  0  0  0  0  0  0  0
    7.5220  -13.5398   17.9191 C   0  0  0  0  0  0  0  0  0  0  0  0
    8.4733  -13.6825   19.0588 C   0  0  0  0  0  0  0  0  0  0  0  0
    7.8733  -13.7399   20.4004 C   0  0  0  0  0  0  0  0  0  0  0  0
    7.9362  -15.0564   21.1328 C   0  0  2  0  0  0  0  0  0  0  0  0
    7.4863  -14.7415   22.4900 N   0  0  0  0  0  0  0  0  0  0  0  0
    9.3240  -15.5653   21.2809 C   0  0  0  0  0  0  0  0  0  0  0  0
   10.2019  -14.9616   21.9924 O   0  0  0  0  0  0  0  0  0  0  0  0
    7.7805  -14.3685   14.5538 O   0  0  0  0  0  0  0  0  0  0  0  0
   10.3295  -18.9569   22.0185 C   0  0  0  0  0  0  0  0  0  0  0  0
   11.3083  -18.6010   21.1235 C   0  0  2  0  0  0  0  0  0  0  0  0
   11.2157  -17.1426   20.7460 N   0  0  0  0  0  0  0  0  0  0  0  0
    9.8099  -16.7526   20.6628 C   0  0  0  0  0  0  0  0  0  0  0  0
   11.8098  -16.9358   19.3934 O   0  0  0  0  0  0  0  0  0  0  0  0
   11.1501  -16.5289   18.4191 O   0  0  0  0  0  0  0  0  0  0  0  0
  2  1  1  0
  3  2  2  0
  4  3  1  0
  5 11  1  0
  5  4  2  0
  6  5  1  0
  7  9  1  0
  7  6  1  0
  7  8  1  1
  9 10  2  0
 11 12  2  0
 12  2  1  0
 13 14  1  0
 14 15  2  0
 16 14  1  0
 16 17  1  0
 18 17  1  0
 19 18  1  0
 20 19  1  6
 21 20  1  0
 21  9  1  0
 22 20  1  0
 23 22  2  0
 24 25  1  0
 26 25  1  1
 26 28  1  0
 26 27  1  0
 27 22  1  0
 28 30  1  0
 29 28  2  0
M  END
$$$$
