YRS.pdb
     RDKit          3D

 30 30  0  0  1  0  0  0  0  0999 V2000
    5.8416  -10.6067   27.2169 O   0  0  0  0  0  0  0  0  0  0  0  0
    6.4111  -11.8675   27.0817 C   0  0  0  0  0  0  0  0  0  0  0  0
    7.6015  -12.1528   27.7342 C   0  0  0  0  0  0  0  0  0  0  0  0
    8.1927  -13.4150   27.6122 C   0  0  0  0  0  0  0  0  0  0  0  0
    7.5950  -14.3783   26.8445 C   0  0  0  0  0  0  0  0  0  0  0  0
    8.2076  -15.7076   26.7052 C   0  0  0  0  0  0  0  0  0  0  0  0
    7.2374  -16.5843   25.9009 C   0  0  2  0  0  0  0  0  0  0  0  0
    7.0869  -17.8766   26.5311 N   0  0  0  0  0  0  0  0  0  0  0  0
    7.6554  -16.6818   24.4948 C   0  0  0  0  0  0  0  0  0  0  0  0
    8.2520  -17.7666   24.1726 O   0  0  0  0  0  0  0  0  0  0  0  0
    6.4161  -14.0916   26.2002 C   0  0  0  0  0  0  0  0  0  0  0  0
    5.8188  -12.8451   26.3118 C   0  0  0  0  0  0  0  0  0  0  0  0
    9.9617  -13.6776   18.1778 N   0  0  0  0  0  0  0  0  0  0  0  0
    8.8609  -13.6497   17.2848 C   0  0  0  0  0  0  0  0  0  0  0  0
    8.9770  -13.6552   15.9979 N   0  0  0  0  0  0  0  0  0  0  0  0
    7.5420  -13.6150   17.8226 N   0  0  0  0  0  0  0  0  0  0  0  0
    7.2996  -13.3984   19.2424 C   0  0  0  0  0  0  0  0  0  0  0  0
    7.8490  -14.5643   19.9930 C   0  0  0  0  0  0  0  0  0  0  0  0
    7.4092  -14.7013   21.3898 C   0  0  0  0  0  0  0  0  0  0  0  0
    7.8896  -15.9096   22.1530 C   0  0  2  0  0  0  0  0  0  0  0  0
    7.4378  -15.6781   23.5262 N   0  0  0  0  0  0  0  0  0  0  0  0
    9.3711  -15.9892   22.2289 C   0  0  0  0  0  0  0  0  0  0  0  0
   10.0670  -15.1566   22.9102 O   0  0  0  0  0  0  0  0  0  0  0  0
    8.1764  -13.7249   15.3490 O   0  0  0  0  0  0  0  0  0  0  0  0
   11.3224  -19.3125   21.0910 C   0  0  0  0  0  0  0  0  0  0  0  0
   12.0525  -18.4532   21.8748 C   0  0  1  0  0  0  0  0  0  0  0  0
   11.6080  -17.0218   21.6975 N   0  0  0  0  0  0  0  0  0  0  0  0
   10.1530  -16.9794   21.5688 C   0  0  0  0  0  0  0  0  0  0  0  0
   12.1771  -16.4728   20.4326 O   0  0  0  0  0  0  0  0  0  0  0  0
   11.4713  -16.1203   19.4695 O   0  0  0  0  0  0  0  0  0  0  0  0
  2  1  1  0
  3  2  2  0
  4  3  1  0
  5 11  1  0
  5  4  2  0
  6  5  1  0
  7  9  1  0
  7  6  1  0
  7  8  1  1
  9 10  2  0
 11 12  2  0
 12  2  1  0
 13 14  1  0
 14 15  2  0
 16 14  1  0
 16 17  1  0
 18 17  1  0
 19 18  1  0
 20 19  1  6
 21 20  1  0
 21  9  1  0
 22 20  1  0
 23 22  2  0
 24 25  1  0
 26 25  1  1
 26 28  1  0
 26 27  1  0
 27 22  1  0
 28 30  1  0
 29 28  2  0
M  END
$$$$
