YRS.pdb
     RDKit          3D

 30 30  0  0  1  0  0  0  0  0999 V2000
   11.5558  -14.9598   29.7285 O   0  0  0  0  0  0  0  0  0  0  0  0
   10.3981  -15.0106   28.9609 C   0  0  0  0  0  0  0  0  0  0  0  0
    9.9902  -13.8823   28.2645 C   0  0  0  0  0  0  0  0  0  0  0  0
    8.8282  -13.9107   27.4858 C   0  0  0  0  0  0  0  0  0  0  0  0
    8.0857  -15.0584   27.4077 C   0  0  0  0  0  0  0  0  0  0  0  0
    6.8607  -15.1006   26.5956 C   0  0  0  0  0  0  0  0  0  0  0  0
    6.8231  -16.4592   25.8817 C   0  0  2  0  0  0  0  0  0  0  0  0
    7.3116  -17.5009   26.7570 N   0  0  0  0  0  0  0  0  0  0  0  0
    7.5465  -16.4041   24.6031 C   0  0  0  0  0  0  0  0  0  0  0  0
    8.2677  -17.4262   24.3350 O   0  0  0  0  0  0  0  0  0  0  0  0
    8.4934  -16.1735   28.0987 C   0  0  0  0  0  0  0  0  0  0  0  0
    9.6427  -16.1600   28.8745 C   0  0  0  0  0  0  0  0  0  0  0  0
    9.8157  -13.6970   18.3192 N   0  0  0  0  0  0  0  0  0  0  0  0
    8.7199  -13.6624   17.4204 C   0  0  0  0  0  0  0  0  0  0  0  0
    8.8300  -13.8279   16.1436 N   0  0  0  0  0  0  0  0  0  0  0  0
    7.4132  -13.4341   17.9402 N   0  0  0  0  0  0  0  0  0  0  0  0
    7.1870  -13.1734   19.3553 C   0  0  0  0  0  0  0  0  0  0  0  0
    7.8485  -14.2549   20.1409 C   0  0  0  0  0  0  0  0  0  0  0  0
    7.4723  -14.3481   21.5597 C   0  0  0  0  0  0  0  0  0  0  0  0
    8.0510  -15.4893   22.3573 C   0  0  2  0  0  0  0  0  0  0  0  0
    7.4842  -15.3234   23.6970 N   0  0  0  0  0  0  0  0  0  0  0  0
    9.5224  -15.3806   22.5307 C   0  0  0  0  0  0  0  0  0  0  0  0
   10.0511  -14.8102   23.5489 O   0  0  0  0  0  0  0  0  0  0  0  0
    8.0321  -13.7928   15.4887 O   0  0  0  0  0  0  0  0  0  0  0  0
   13.0126  -17.9422   23.2339 C   0  0  0  0  0  0  0  0  0  0  0  0
   11.7610  -17.5087   22.8713 C   0  0  1  0  0  0  0  0  0  0  0  0
   11.8264  -16.2649   22.0189 N   0  0  0  0  0  0  0  0  0  0  0  0
   10.4760  -15.8908   21.6044 C   0  0  0  0  0  0  0  0  0  0  0  0
   12.6045  -16.5475   20.7779 O   0  0  0  0  0  0  0  0  0  0  0  0
   12.0664  -16.8210   19.6890 O   0  0  0  0  0  0  0  0  0  0  0  0
  2  1  1  0
  3  2  2  0
  4  3  1  0
  5 11  1  0
  5  4  2  0
  6  5  1  0
  7  9  1  0
  7  6  1  0
  7  8  1  1
  9 10  2  0
 11 12  2  0
 12  2  1  0
 13 14  1  0
 14 15  2  0
 16 14  1  0
 16 17  1  0
 18 17  1  0
 19 18  1  0
 20 19  1  6
 21 20  1  0
 21  9  1  0
 22 20  1  0
 23 22  2  0
 24 25  1  0
 26 25  1  1
 26 28  1  0
 26 27  1  0
 27 22  1  0
 28 30  1  0
 29 28  2  0
M  END
$$$$
