YRS.pdb
     RDKit          3D

 30 30  0  0  1  0  0  0  0  0999 V2000
    5.0855  -10.5244   28.2821 O   0  0  0  0  0  0  0  0  0  0  0  0
    5.8410  -11.5386   27.7051 C   0  0  0  0  0  0  0  0  0  0  0  0
    7.1146  -11.8008   28.1883 C   0  0  0  0  0  0  0  0  0  0  0  0
    7.8928  -12.8167   27.6226 C   0  0  0  0  0  0  0  0  0  0  0  0
    7.3973  -13.5597   26.5849 C   0  0  0  0  0  0  0  0  0  0  0  0
    8.2060  -14.6279   25.9793 C   0  0  0  0  0  0  0  0  0  0  0  0
    7.2396  -15.6625   25.3855 C   0  0  2  0  0  0  0  0  0  0  0  0
    6.8802  -16.6453   26.3829 N   0  0  0  0  0  0  0  0  0  0  0  0
    7.7962  -16.2660   24.1660 C   0  0  0  0  0  0  0  0  0  0  0  0
    8.3747  -17.3957   24.3264 O   0  0  0  0  0  0  0  0  0  0  0  0
    6.1354  -13.2969   26.1097 C   0  0  0  0  0  0  0  0  0  0  0  0
    5.3530  -12.2931   26.6603 C   0  0  0  0  0  0  0  0  0  0  0  0
    9.5167  -12.8026   18.0430 N   0  0  0  0  0  0  0  0  0  0  0  0
    8.8587  -13.8771   17.3929 C   0  0  0  0  0  0  0  0  0  0  0  0
    9.2884  -14.4353   16.3096 N   0  0  0  0  0  0  0  0  0  0  0  0
    7.6519  -14.3838   17.9557 N   0  0  0  0  0  0  0  0  0  0  0  0
    7.0618  -13.8010   19.1531 C   0  0  0  0  0  0  0  0  0  0  0  0
    7.8102  -14.3110   20.3381 C   0  0  0  0  0  0  0  0  0  0  0  0
    7.7954  -15.7684   20.5358 C   0  0  0  0  0  0  0  0  0  0  0  0
    8.4571  -16.3065   21.7792 C   0  0  2  0  0  0  0  0  0  0  0  0
    7.7242  -15.6826   22.8825 N   0  0  0  0  0  0  0  0  0  0  0  0
    9.8629  -15.8491   21.9254 C   0  0  0  0  0  0  0  0  0  0  0  0
   10.1784  -14.8174   22.6164 O   0  0  0  0  0  0  0  0  0  0  0  0
    8.7975  -15.2045   15.8258 O   0  0  0  0  0  0  0  0  0  0  0  0
   13.3917  -17.5413   23.8522 C   0  0  0  0  0  0  0  0  0  0  0  0
   12.1653  -17.3285   23.2722 C   0  0  1  0  0  0  0  0  0  0  0  0
   12.2840  -16.5468   21.9866 N   0  0  0  0  0  0  0  0  0  0  0  0
   10.9806  -16.4982   21.3278 C   0  0  0  0  0  0  0  0  0  0  0  0
   13.2195  -17.2463   21.0587 O   0  0  0  0  0  0  0  0  0  0  0  0
   14.4562  -17.2227   21.1993 O   0  0  0  0  0  0  0  0  0  0  0  0
  2  1  1  0
  3  2  2  0
  4  3  1  0
  5 11  1  0
  5  4  2  0
  6  5  1  0
  7  9  1  0
  7  6  1  0
  7  8  1  1
  9 10  2  0
 11 12  2  0
 12  2  1  0
 13 14  1  0
 14 15  2  0
 16 14  1  0
 16 17  1  0
 18 17  1  0
 19 18  1  0
 20 19  1  6
 21 20  1  0
 21  9  1  0
 22 20  1  0
 23 22  2  0
 24 25  1  0
 26 25  1  1
 26 28  1  0
 26 27  1  0
 27 22  1  0
 28 30  1  0
 29 28  2  0
M  END
$$$$
