FTT.pdb
     RDKit          3D

 26 26  0  0  1  0  0  0  0  0999 V2000
    5.7066  -17.8594   25.6708 N   0  0  0  0  0  0  0  0  0  0  0  0
    6.3343  -16.5751   25.4239 C   0  0  1  0  0  0  0  0  0  0  0  0
    6.9171  -16.0182   26.7123 C   0  0  0  0  0  0  0  0  0  0  0  0
    7.0118  -14.5387   26.6979 C   0  0  0  0  0  0  0  0  0  0  0  0
    8.2322  -13.9064   26.6204 C   0  0  0  0  0  0  0  0  0  0  0  0
    8.2686  -12.5272   26.6110 C   0  0  0  0  0  0  0  0  0  0  0  0
    7.1340  -11.7456   26.6758 C   0  0  0  0  0  0  0  0  0  0  0  0
    5.9384  -12.4317   26.7521 C   0  0  0  0  0  0  0  0  0  0  0  0
    5.8489  -13.8074   26.7648 C   0  0  0  0  0  0  0  0  0  0  0  0
    7.3080  -16.7315   24.3473 C   0  0  0  0  0  0  0  0  0  0  0  0
    8.0805  -17.7283   24.3545 O   0  0  0  0  0  0  0  0  0  0  0  0
    6.6809  -15.0184   20.7896 C   0  0  0  0  0  0  0  0  0  0  0  0
    8.1232  -14.9113   21.1906 C   0  0  1  0  0  0  0  0  0  0  0  0
    8.4729  -13.6529   21.6354 O   0  0  0  0  0  0  0  0  0  0  0  0
    8.4857  -16.0008   22.2170 C   0  0  2  0  0  0  0  0  0  0  0  0
    7.4815  -15.8473   23.2532 N   0  0  0  0  0  0  0  0  0  0  0  0
    9.8471  -15.7524   22.6847 C   0  0  0  0  0  0  0  0  0  0  0  0
   10.1975  -14.7937   23.4365 O   0  0  0  0  0  0  0  0  0  0  0  0
   12.0578  -17.7206   24.9593 C   0  0  0  0  0  0  0  0  0  0  0  0
   12.6848  -17.6839   23.5885 C   0  0  1  0  0  0  0  0  0  0  0  0
   12.2574  -18.8347   22.9095 O   0  0  0  0  0  0  0  0  0  0  0  0
   12.2351  -16.5029   22.7779 C   0  0  2  0  0  0  0  0  0  0  0  0
   10.8857  -16.6317   22.2884 N   0  0  0  0  0  0  0  0  0  0  0  0
   13.1753  -16.2994   21.6732 C   0  0  0  0  0  0  0  0  0  0  0  0
   14.4862  -15.9116   21.8133 O   0  0  0  0  0  0  0  0  0  0  0  0
   12.7731  -16.4900   20.4753 O   0  0  0  0  0  0  0  0  0  0  0  0
  2  1  1  1
  3  2  1  0
  4  3  1  0
  5  4  2  0
  6  5  1  0
  7  6  2  0
  7  8  1  0
  8  9  2  0
  9  4  1  0
 10  2  1  0
 10 11  2  0
 13 12  1  1
 13 15  1  0
 13 14  1  0
 15 16  1  1
 16 10  1  0
 17 15  1  0
 18 17  2  0
 20 21  1  0
 20 19  1  1
 22 20  1  0
 22 23  1  6
 23 17  1  0
 24 25  1  0
 24 22  1  0
 26 24  2  0
M  END
$$$$
