FTT.pdb
     RDKit          3D

 26 26  0  0  1  0  0  0  0  0999 V2000
    5.6116  -18.0800   25.4171 N   0  0  0  0  0  0  0  0  0  0  0  0
    6.1637  -16.7537   25.2160 C   0  0  1  0  0  0  0  0  0  0  0  0
    6.5611  -16.1418   26.5491 C   0  0  0  0  0  0  0  0  0  0  0  0
    6.8767  -14.6975   26.4376 C   0  0  0  0  0  0  0  0  0  0  0  0
    8.0623  -14.2708   25.8830 C   0  0  0  0  0  0  0  0  0  0  0  0
    8.3106  -12.9160   25.8021 C   0  0  0  0  0  0  0  0  0  0  0  0
    7.4226  -11.9616   26.2531 C   0  0  0  0  0  0  0  0  0  0  0  0
    6.2507  -12.4454   26.7996 C   0  0  0  0  0  0  0  0  0  0  0  0
    5.9558  -13.7881   26.9031 C   0  0  0  0  0  0  0  0  0  0  0  0
    7.2564  -16.8450   24.2519 C   0  0  0  0  0  0  0  0  0  0  0  0
    8.1524  -17.7170   24.4162 O   0  0  0  0  0  0  0  0  0  0  0  0
    6.7379  -15.4080   20.5215 C   0  0  0  0  0  0  0  0  0  0  0  0
    8.1238  -15.1516   21.0373 C   0  0  1  0  0  0  0  0  0  0  0  0
    8.3180  -13.8506   21.4538 O   0  0  0  0  0  0  0  0  0  0  0  0
    8.4917  -16.1643   22.1377 C   0  0  2  0  0  0  0  0  0  0  0  0
    7.4207  -16.0257   23.1070 N   0  0  0  0  0  0  0  0  0  0  0  0
    9.8053  -15.8063   22.6668 C   0  0  0  0  0  0  0  0  0  0  0  0
   10.1291  -14.6614   23.1045 O   0  0  0  0  0  0  0  0  0  0  0  0
   11.9014  -16.9982   25.6192 C   0  0  0  0  0  0  0  0  0  0  0  0
   12.5828  -17.3693   24.3262 C   0  0  1  0  0  0  0  0  0  0  0  0
   12.1917  -18.6805   24.0165 O   0  0  0  0  0  0  0  0  0  0  0  0
   12.1571  -16.5009   23.1778 C   0  0  2  0  0  0  0  0  0  0  0  0
   10.8245  -16.7903   22.7115 N   0  0  0  0  0  0  0  0  0  0  0  0
   13.1322  -16.6365   22.0931 C   0  0  0  0  0  0  0  0  0  0  0  0
   14.4593  -16.2900   22.1764 O   0  0  0  0  0  0  0  0  0  0  0  0
   12.7472  -17.1109   20.9708 O   0  0  0  0  0  0  0  0  0  0  0  0
  2  1  1  1
  3  2  1  0
  4  3  1  0
  5  4  2  0
  6  5  1  0
  7  6  2  0
  7  8  1  0
  8  9  2  0
  9  4  1  0
 10  2  1  0
 10 11  2  0
 13 12  1  1
 13 15  1  0
 13 14  1  0
 15 16  1  1
 16 10  1  0
 17 15  1  0
 18 17  2  0
 20 21  1  0
 20 19  1  1
 22 20  1  0
 22 23  1  6
 23 17  1  0
 24 25  1  0
 24 22  1  0
 26 24  2  0
M  END
$$$$
