FTT.pdb
     RDKit          3D

 26 26  0  0  1  0  0  0  0  0999 V2000
    5.6919  -16.2047   25.1754 N   0  0  0  0  0  0  0  0  0  0  0  0
    6.6912  -15.9647   24.1517 C   0  0  1  0  0  0  0  0  0  0  0  0
    6.7966  -14.4774   23.8579 C   0  0  0  0  0  0  0  0  0  0  0  0
    6.9298  -13.6646   25.0906 C   0  0  0  0  0  0  0  0  0  0  0  0
    8.1656  -13.2662   25.5480 C   0  0  0  0  0  0  0  0  0  0  0  0
    8.2379  -12.5115   26.7008 C   0  0  0  0  0  0  0  0  0  0  0  0
    7.1245  -12.1341   27.4223 C   0  0  0  0  0  0  0  0  0  0  0  0
    5.9121  -12.5608   26.9184 C   0  0  0  0  0  0  0  0  0  0  0  0
    5.7869  -13.3159   25.7717 C   0  0  0  0  0  0  0  0  0  0  0  0
    7.9466  -16.5802   24.5725 C   0  0  0  0  0  0  0  0  0  0  0  0
    8.0224  -17.1064   25.7161 O   0  0  0  0  0  0  0  0  0  0  0  0
   10.4668  -18.1629   21.8657 C   0  0  0  0  0  0  0  0  0  0  0  0
   11.1914  -17.3898   22.9285 C   0  0  1  0  0  0  0  0  0  0  0  0
   11.5959  -16.1383   22.5115 O   0  0  0  0  0  0  0  0  0  0  0  0
   10.3525  -17.3184   24.2180 C   0  0  2  0  0  0  0  0  0  0  0  0
    9.1332  -16.6515   23.8006 N   0  0  0  0  0  0  0  0  0  0  0  0
   11.1125  -16.5702   25.2162 C   0  0  0  0  0  0  0  0  0  0  0  0
   11.7598  -15.5034   24.9924 O   0  0  0  0  0  0  0  0  0  0  0  0
   10.5831  -14.3050   27.8415 C   0  0  0  0  0  0  0  0  0  0  0  0
   11.1105  -15.5525   28.5044 C   0  0  1  0  0  0  0  0  0  0  0  0
    9.9981  -16.3205   28.8798 O   0  0  0  0  0  0  0  0  0  0  0  0
   11.9344  -16.3970   27.5760 C   0  0  2  0  0  0  0  0  0  0  0  0
   11.1524  -17.0425   26.5519 N   0  0  0  0  0  0  0  0  0  0  0  0
   12.6789  -17.3817   28.3646 C   0  0  0  0  0  0  0  0  0  0  0  0
   13.5917  -17.0798   29.3465 O   0  0  0  0  0  0  0  0  0  0  0  0
   12.4849  -18.6253   28.1442 O   0  0  0  0  0  0  0  0  0  0  0  0
  2  1  1  1
  3  2  1  0
  4  3  1  0
  5  4  2  0
  6  5  1  0
  7  6  2  0
  7  8  1  0
  8  9  2  0
  9  4  1  0
 10  2  1  0
 10 11  2  0
 13 12  1  6
 13 15  1  0
 13 14  1  0
 15 16  1  6
 16 10  1  0
 17 15  1  0
 18 17  2  0
 20 21  1  0
 20 19  1  6
 22 20  1  0
 22 23  1  6
 23 17  1  0
 24 25  1  0
 24 22  1  0
 26 24  2  0
M  END
$$$$
