FTT.pdb
     RDKit          3D

 26 26  0  0  1  0  0  0  0  0999 V2000
    6.3120  -16.1758   26.0782 N   0  0  0  0  0  0  0  0  0  0  0  0
    6.0993  -15.7676   24.7025 C   0  0  1  0  0  0  0  0  0  0  0  0
    5.9417  -14.2583   24.6201 C   0  0  0  0  0  0  0  0  0  0  0  0
    6.6712  -13.5529   25.7009 C   0  0  0  0  0  0  0  0  0  0  0  0
    5.9937  -12.8796   26.6923 C   0  0  0  0  0  0  0  0  0  0  0  0
    6.7174  -12.2376   27.6761 C   0  0  0  0  0  0  0  0  0  0  0  0
    8.0962  -12.2376   27.7150 C   0  0  0  0  0  0  0  0  0  0  0  0
    8.7235  -12.9277   26.6970 C   0  0  0  0  0  0  0  0  0  0  0  0
    8.0462  -13.5848   25.6919 C   0  0  0  0  0  0  0  0  0  0  0  0
    7.1860  -16.2996   23.8853 C   0  0  0  0  0  0  0  0  0  0  0  0
    7.7497  -17.3730   24.2320 O   0  0  0  0  0  0  0  0  0  0  0  0
    7.1125  -15.5058   20.0831 C   0  0  0  0  0  0  0  0  0  0  0  0
    8.5501  -15.5542   20.5115 C   0  0  1  0  0  0  0  0  0  0  0  0
    9.1444  -14.3102   20.5663 O   0  0  0  0  0  0  0  0  0  0  0  0
    8.6969  -16.3162   21.8417 C   0  0  2  0  0  0  0  0  0  0  0  0
    7.6917  -15.7140   22.6977 N   0  0  0  0  0  0  0  0  0  0  0  0
   10.0620  -16.1291   22.3267 C   0  0  0  0  0  0  0  0  0  0  0  0
   10.4385  -15.2067   23.1106 O   0  0  0  0  0  0  0  0  0  0  0  0
   12.3050  -18.8149   24.1734 C   0  0  0  0  0  0  0  0  0  0  0  0
   12.9091  -18.3491   22.8727 C   0  0  1  0  0  0  0  0  0  0  0  0
   12.5094  -19.2604   21.8837 O   0  0  0  0  0  0  0  0  0  0  0  0
   12.4081  -16.9975   22.4532 C   0  0  2  0  0  0  0  0  0  0  0  0
   11.0734  -17.0307   21.9106 N   0  0  0  0  0  0  0  0  0  0  0  0
   13.3498  -16.4195   21.4915 C   0  0  0  0  0  0  0  0  0  0  0  0
   14.6498  -16.0721   21.7704 O   0  0  0  0  0  0  0  0  0  0  0  0
   12.9599  -16.2109   20.2926 O   0  0  0  0  0  0  0  0  0  0  0  0
  2  1  1  1
  3  2  1  0
  4  3  1  0
  5  4  2  0
  6  5  1  0
  7  6  2  0
  7  8  1  0
  8  9  2  0
  9  4  1  0
 10  2  1  0
 10 11  2  0
 13 12  1  1
 13 15  1  0
 13 14  1  0
 15 16  1  1
 16 10  1  0
 17 15  1  0
 18 17  2  0
 20 21  1  0
 20 19  1  1
 22 20  1  0
 22 23  1  6
 23 17  1  0
 24 25  1  0
 24 22  1  0
 26 24  2  0
M  END
$$$$
