FTT.pdb
     RDKit          3D

 26 26  0  0  1  0  0  0  0  0999 V2000
    5.8024  -17.3433   25.7996 N   0  0  0  0  0  0  0  0  0  0  0  0
    6.5964  -16.2042   25.3797 C   0  0  1  0  0  0  0  0  0  0  0  0
    7.2949  -15.5801   26.5764 C   0  0  0  0  0  0  0  0  0  0  0  0
    7.0278  -14.1265   26.6934 C   0  0  0  0  0  0  0  0  0  0  0  0
    5.7548  -13.6549   26.9220 C   0  0  0  0  0  0  0  0  0  0  0  0
    5.5567  -12.2931   27.0223 C   0  0  0  0  0  0  0  0  0  0  0  0
    6.5791  -11.3749   26.9040 C   0  0  0  0  0  0  0  0  0  0  0  0
    7.8341  -11.9029   26.6755 C   0  0  0  0  0  0  0  0  0  0  0  0
    8.0838  -13.2544   26.5673 C   0  0  0  0  0  0  0  0  0  0  0  0
    7.5015  -16.6332   24.3174 C   0  0  0  0  0  0  0  0  0  0  0  0
    8.0276  -17.7775   24.3803 O   0  0  0  0  0  0  0  0  0  0  0  0
    7.1520  -15.3117   20.6606 C   0  0  0  0  0  0  0  0  0  0  0  0
    8.6102  -15.3218   21.0152 C   0  0  1  0  0  0  0  0  0  0  0  0
    9.1282  -14.0605   21.2265 O   0  0  0  0  0  0  0  0  0  0  0  0
    8.8735  -16.2549   22.2118 C   0  0  2  0  0  0  0  0  0  0  0  0
    7.8633  -15.8694   23.1795 N   0  0  0  0  0  0  0  0  0  0  0  0
   10.2400  -16.0282   22.6754 C   0  0  0  0  0  0  0  0  0  0  0  0
   10.6238  -15.0308   23.3574 O   0  0  0  0  0  0  0  0  0  0  0  0
   12.4884  -18.3881   24.8436 C   0  0  0  0  0  0  0  0  0  0  0  0
   13.0933  -18.1361   23.4856 C   0  0  1  0  0  0  0  0  0  0  0  0
   12.6940  -19.1936   22.6547 O   0  0  0  0  0  0  0  0  0  0  0  0
   12.5928  -16.8688   22.8552 C   0  0  2  0  0  0  0  0  0  0  0  0
   11.2443  -16.9767   22.3582 N   0  0  0  0  0  0  0  0  0  0  0  0
   13.5142  -16.4736   21.7872 C   0  0  0  0  0  0  0  0  0  0  0  0
   14.8188  -16.0845   21.9737 O   0  0  0  0  0  0  0  0  0  0  0  0
   13.1000  -16.4818   20.5783 O   0  0  0  0  0  0  0  0  0  0  0  0
  2  1  1  1
  3  2  1  0
  4  3  1  0
  5  4  2  0
  6  5  1  0
  7  6  2  0
  7  8  1  0
  8  9  2  0
  9  4  1  0
 10  2  1  0
 10 11  2  0
 13 12  1  1
 13 15  1  0
 13 14  1  0
 15 16  1  1
 16 10  1  0
 17 15  1  0
 18 17  2  0
 20 21  1  0
 20 19  1  1
 22 20  1  0
 22 23  1  6
 23 17  1  0
 24 25  1  0
 24 22  1  0
 26 24  2  0
M  END
$$$$
