FTT.pdb
     RDKit          3D

 26 26  0  0  1  0  0  0  0  0999 V2000
    6.4473  -16.8369   26.0198 N   0  0  0  0  0  0  0  0  0  0  0  0
    6.9020  -15.7655   25.1540 C   0  0  1  0  0  0  0  0  0  0  0  0
    7.8674  -14.8598   25.9006 C   0  0  0  0  0  0  0  0  0  0  0  0
    7.2010  -13.6580   26.4570 C   0  0  0  0  0  0  0  0  0  0  0  0
    6.0686  -13.1390   25.8709 C   0  0  0  0  0  0  0  0  0  0  0  0
    5.4852  -12.0183   26.4254 C   0  0  0  0  0  0  0  0  0  0  0  0
    5.9848  -11.3882   27.5461 C   0  0  0  0  0  0  0  0  0  0  0  0
    7.1212  -11.9508   28.0923 C   0  0  0  0  0  0  0  0  0  0  0  0
    7.7412  -13.0688   27.5763 C   0  0  0  0  0  0  0  0  0  0  0  0
    7.4548  -16.3527   23.9369 C   0  0  0  0  0  0  0  0  0  0  0  0
    7.6301  -17.6002   23.8787 O   0  0  0  0  0  0  0  0  0  0  0  0
    6.7980  -14.7423   20.5244 C   0  0  0  0  0  0  0  0  0  0  0  0
    8.2216  -15.2161   20.4879 C   0  0  1  0  0  0  0  0  0  0  0  0
    9.1391  -14.1855   20.4960 O   0  0  0  0  0  0  0  0  0  0  0  0
    8.4886  -16.2270   21.6185 C   0  0  2  0  0  0  0  0  0  0  0  0
    7.8282  -15.6403   22.7698 N   0  0  0  0  0  0  0  0  0  0  0  0
    9.9342  -16.3586   21.7813 C   0  0  0  0  0  0  0  0  0  0  0  0
   10.6844  -15.5131   22.3554 O   0  0  0  0  0  0  0  0  0  0  0  0
   11.9005  -19.2696   23.4794 C   0  0  0  0  0  0  0  0  0  0  0  0
   12.2694  -19.1319   22.0239 C   0  0  1  0  0  0  0  0  0  0  0  0
   11.4616  -20.0281   21.3081 O   0  0  0  0  0  0  0  0  0  0  0  0
   11.9891  -17.7596   21.4832 C   0  0  2  0  0  0  0  0  0  0  0  0
   10.5858  -17.5092   21.2711 N   0  0  0  0  0  0  0  0  0  0  0  0
   12.7471  -17.5738   20.2436 C   0  0  0  0  0  0  0  0  0  0  0  0
   14.1175  -17.5991   20.1446 O   0  0  0  0  0  0  0  0  0  0  0  0
   12.1111  -17.3704   19.1540 O   0  0  0  0  0  0  0  0  0  0  0  0
  2  1  1  1
  3  2  1  0
  4  3  1  0
  5  4  2  0
  6  5  1  0
  7  6  2  0
  7  8  1  0
  8  9  2  0
  9  4  1  0
 10  2  1  0
 10 11  2  0
 13 12  1  1
 13 15  1  0
 13 14  1  0
 15 16  1  1
 16 10  1  0
 17 15  1  0
 18 17  2  0
 20 21  1  0
 20 19  1  1
 22 20  1  0
 22 23  1  6
 23 17  1  0
 24 25  1  0
 24 22  1  0
 26 24  2  0
M  END
$$$$
