FTT.pdb
     RDKit          3D

 26 26  0  0  1  0  0  0  0  0999 V2000
    5.6169  -18.0258   25.2077 N   0  0  0  0  0  0  0  0  0  0  0  0
    6.1464  -16.6783   25.1178 C   0  0  1  0  0  0  0  0  0  0  0  0
    6.3811  -16.1116   26.5082 C   0  0  0  0  0  0  0  0  0  0  0  0
    6.5227  -14.6358   26.5017 C   0  0  0  0  0  0  0  0  0  0  0  0
    7.7645  -14.0422   26.4708 C   0  0  0  0  0  0  0  0  0  0  0  0
    7.8445  -12.6647   26.4669 C   0  0  0  0  0  0  0  0  0  0  0  0
    6.7334  -11.8478   26.4925 C   0  0  0  0  0  0  0  0  0  0  0  0
    5.5148  -12.4961   26.5230 C   0  0  0  0  0  0  0  0  0  0  0  0
    5.3818  -13.8683   26.5282 C   0  0  0  0  0  0  0  0  0  0  0  0
    7.3376  -16.7010   24.2738 C   0  0  0  0  0  0  0  0  0  0  0  0
    8.1950  -17.6105   24.4417 O   0  0  0  0  0  0  0  0  0  0  0  0
    7.0725  -14.9723   20.7042 C   0  0  0  0  0  0  0  0  0  0  0  0
    8.4612  -14.8244   21.2537 C   0  0  1  0  0  0  0  0  0  0  0  0
    8.7259  -13.5573   21.7313 O   0  0  0  0  0  0  0  0  0  0  0  0
    8.7458  -15.9049   22.3136 C   0  0  2  0  0  0  0  0  0  0  0  0
    7.6420  -15.7733   23.2464 N   0  0  0  0  0  0  0  0  0  0  0  0
   10.0491  -15.6260   22.9112 C   0  0  0  0  0  0  0  0  0  0  0  0
   10.3322  -14.6000   23.5999 O   0  0  0  0  0  0  0  0  0  0  0  0
   12.1136  -17.3590   25.5648 C   0  0  0  0  0  0  0  0  0  0  0  0
   12.8287  -17.4393   24.2396 C   0  0  1  0  0  0  0  0  0  0  0  0
   12.4628  -18.6575   23.6478 O   0  0  0  0  0  0  0  0  0  0  0  0
   12.4167  -16.3495   23.2928 C   0  0  2  0  0  0  0  0  0  0  0  0
   11.1058  -16.5530   22.7296 N   0  0  0  0  0  0  0  0  0  0  0  0
   13.4266  -16.2296   22.2384 C   0  0  0  0  0  0  0  0  0  0  0  0
   14.7442  -15.8962   22.4413 O   0  0  0  0  0  0  0  0  0  0  0  0
   13.0844  -16.4461   21.0265 O   0  0  0  0  0  0  0  0  0  0  0  0
  2  1  1  1
  3  2  1  0
  4  3  1  0
  5  4  2  0
  6  5  1  0
  7  6  2  0
  7  8  1  0
  8  9  2  0
  9  4  1  0
 10  2  1  0
 10 11  2  0
 13 12  1  1
 13 15  1  0
 13 14  1  0
 15 16  1  1
 16 10  1  0
 17 15  1  0
 18 17  2  0
 20 21  1  0
 20 19  1  1
 22 20  1  0
 22 23  1  6
 23 17  1  0
 24 25  1  0
 24 22  1  0
 26 24  2  0
M  END
$$$$
