FTT.pdb
     RDKit          3D

 26 26  0  0  1  0  0  0  0  0999 V2000
    6.0600  -17.8881   26.0757 N   0  0  0  0  0  0  0  0  0  0  0  0
    6.6520  -16.7522   25.3949 C   0  0  1  0  0  0  0  0  0  0  0  0
    7.7229  -16.1165   26.2660 C   0  0  0  0  0  0  0  0  0  0  0  0
    7.5158  -14.6595   26.4454 C   0  0  0  0  0  0  0  0  0  0  0  0
    8.5771  -13.7831   26.4186 C   0  0  0  0  0  0  0  0  0  0  0  0
    8.3334  -12.4361   26.5913 C   0  0  0  0  0  0  0  0  0  0  0  0
    7.0695  -11.9211   26.7908 C   0  0  0  0  0  0  0  0  0  0  0  0
    6.0432  -12.8444   26.8086 C   0  0  0  0  0  0  0  0  0  0  0  0
    6.2345  -14.1994   26.6411 C   0  0  0  0  0  0  0  0  0  0  0  0
    7.1295  -17.1901   24.0865 C   0  0  0  0  0  0  0  0  0  0  0  0
    7.3367  -18.4176   23.8849 O   0  0  0  0  0  0  0  0  0  0  0  0
    5.8423  -15.5771   20.7789 C   0  0  0  0  0  0  0  0  0  0  0  0
    7.3354  -15.7125   20.7113 C   0  0  1  0  0  0  0  0  0  0  0  0
    8.0002  -14.5206   20.9141 O   0  0  0  0  0  0  0  0  0  0  0  0
    7.8270  -16.8111   21.6721 C   0  0  2  0  0  0  0  0  0  0  0  0
    7.3933  -16.3480   22.9773 N   0  0  0  0  0  0  0  0  0  0  0  0
    9.2784  -16.9138   21.5438 C   0  0  0  0  0  0  0  0  0  0  0  0
    9.8991  -17.1914   20.4739 O   0  0  0  0  0  0  0  0  0  0  0  0
   12.0663  -14.4443   22.9767 C   0  0  0  0  0  0  0  0  0  0  0  0
   12.2564  -15.8517   23.4835 C   0  0  1  0  0  0  0  0  0  0  0  0
   11.7129  -15.9006   24.7759 O   0  0  0  0  0  0  0  0  0  0  0  0
   11.5210  -16.8681   22.6588 C   0  0  2  0  0  0  0  0  0  0  0  0
   10.0909  -16.6913   22.6836 N   0  0  0  0  0  0  0  0  0  0  0  0
   11.8907  -18.2092   23.1176 C   0  0  0  0  0  0  0  0  0  0  0  0
   11.0162  -19.1379   23.6287 O   0  0  0  0  0  0  0  0  0  0  0  0
   13.1143  -18.5712   23.0490 O   0  0  0  0  0  0  0  0  0  0  0  0
  2  1  1  1
  3  2  1  0
  4  3  1  0
  5  4  2  0
  6  5  1  0
  7  6  2  0
  7  8  1  0
  8  9  2  0
  9  4  1  0
 10  2  1  0
 10 11  2  0
 13 12  1  1
 13 15  1  0
 13 14  1  0
 15 16  1  1
 16 10  1  0
 17 15  1  0
 18 17  2  0
 20 21  1  0
 20 19  1  6
 22 20  1  0
 22 23  1  1
 23 17  1  0
 24 25  1  0
 24 22  1  0
 26 24  2  0
M  END
$$$$
