FTT.pdb
     RDKit          3D

 26 26  0  0  1  0  0  0  0  0999 V2000
    7.1142  -16.3767   26.3725 N   0  0  0  0  0  0  0  0  0  0  0  0
    6.2934  -16.3438   25.1769 C   0  0  1  0  0  0  0  0  0  0  0  0
    5.4201  -15.1001   25.1724 C   0  0  0  0  0  0  0  0  0  0  0  0
    6.1206  -13.9143   25.7212 C   0  0  0  0  0  0  0  0  0  0  0  0
    7.1327  -13.2998   25.0189 C   0  0  0  0  0  0  0  0  0  0  0  0
    7.7549  -12.1996   25.5722 C   0  0  0  0  0  0  0  0  0  0  0  0
    7.4098  -11.6817   26.8031 C   0  0  0  0  0  0  0  0  0  0  0  0
    6.3892  -12.3366   27.4630 C   0  0  0  0  0  0  0  0  0  0  0  0
    5.7365  -13.4389   26.9533 C   0  0  0  0  0  0  0  0  0  0  0  0
    7.1636  -16.4661   24.0108 C   0  0  0  0  0  0  0  0  0  0  0  0
    6.6566  -16.7403   22.8892 O   0  0  0  0  0  0  0  0  0  0  0  0
    7.4057  -15.5324   21.6812 C   0  0  0  0  0  0  0  0  0  0  0  0
    8.8902  -15.3989   21.8570 C   0  0  1  0  0  0  0  0  0  0  0  0
    9.2840  -14.1261   22.2154 O   0  0  0  0  0  0  0  0  0  0  0  0
    9.4198  -16.4587   22.8409 C   0  0  2  0  0  0  0  0  0  0  0  0
    8.5714  -16.3017   24.0077 N   0  0  0  0  0  0  0  0  0  0  0  0
   10.8284  -16.1746   23.1032 C   0  0  0  0  0  0  0  0  0  0  0  0
   11.2595  -15.2369   23.8395 O   0  0  0  0  0  0  0  0  0  0  0  0
   12.6760  -18.7667   24.9071 C   0  0  0  0  0  0  0  0  0  0  0  0
   13.4048  -18.5076   23.6127 C   0  0  1  0  0  0  0  0  0  0  0  0
   12.9131  -19.4256   22.6727 O   0  0  0  0  0  0  0  0  0  0  0  0
   13.1417  -17.1346   23.0652 C   0  0  2  0  0  0  0  0  0  0  0  0
   11.8214  -16.9905   22.5057 N   0  0  0  0  0  0  0  0  0  0  0  0
   14.1692  -16.8148   22.0713 C   0  0  0  0  0  0  0  0  0  0  0  0
   15.5116  -16.6874   22.3362 O   0  0  0  0  0  0  0  0  0  0  0  0
   13.8192  -16.6350   20.8556 O   0  0  0  0  0  0  0  0  0  0  0  0
  2  1  1  1
  3  2  1  0
  4  3  1  0
  5  4  2  0
  6  5  1  0
  7  6  2  0
  7  8  1  0
  8  9  2  0
  9  4  1  0
 10  2  1  0
 10 11  2  0
 13 12  1  1
 13 15  1  0
 13 14  1  0
 15 16  1  1
 16 10  1  0
 17 15  1  0
 18 17  2  0
 20 21  1  0
 20 19  1  1
 22 20  1  0
 22 23  1  6
 23 17  1  0
 24 25  1  0
 24 22  1  0
 26 24  2  0
M  END
$$$$
