IGV.pdb
     RDKit          3D

 20 19  0  0  1  0  0  0  0  0999 V2000
   28.4079  -17.6857   -4.5385 C   0  0  0  0  0  0  0  0  0  0  0  0
   28.8916  -19.1006   -4.3046 C   0  0  0  0  0  0  0  0  0  0  0  0
   28.6363  -19.9693   -5.5174 C   0  0  2  0  0  0  0  0  0  0  0  0
   29.2664  -19.2663   -6.7072 C   0  0  0  0  0  0  0  0  0  0  0  0
   27.1765  -20.1320   -5.8078 C   0  0  2  0  0  0  0  0  0  0  0  0
   26.4795  -20.6354   -4.6610 N   0  0  0  0  0  0  0  0  0  0  0  0
   26.8767  -20.9307   -6.9936 C   0  0  0  0  0  0  0  0  0  0  0  0
   27.1506  -22.1534   -6.9909 O   0  0  0  0  0  0  0  0  0  0  0  0
   26.2838  -20.4182   -8.1805 N   0  0  0  0  0  0  0  0  0  0  0  0
   26.1859  -21.2214   -9.3745 C   0  0  0  0  0  0  0  0  0  0  0  0
   25.5088  -20.4711  -10.4781 C   0  0  0  0  0  0  0  0  0  0  0  0
   25.2455  -19.2561  -10.3237 O   0  0  0  0  0  0  0  0  0  0  0  0
   26.7149  -19.8221  -13.8168 C   0  0  0  0  0  0  0  0  0  0  0  0
   25.3997  -20.5431  -14.0325 C   0  0  1  0  0  0  0  0  0  0  0  0
   25.6095  -21.9878  -14.3990 C   0  0  0  0  0  0  0  0  0  0  0  0
   24.5260  -20.4583  -12.7953 C   0  0  2  0  0  0  0  0  0  0  0  0
   25.1659  -21.1219  -11.6885 N   0  0  0  0  0  0  0  0  0  0  0  0
   23.1734  -21.0168  -13.0395 C   0  0  0  0  0  0  0  0  0  0  0  0
   22.1906  -20.3519  -13.7282 O   0  0  0  0  0  0  0  0  0  0  0  0
   22.9105  -22.1600  -12.5928 O   0  0  0  0  0  0  0  0  0  0  0  0
  2  1  1  0
  3  5  1  0
  3  2  1  0
  3  4  1  6
  5  6  1  1
  7  8  2  0
  7  5  1  0
  9  7  1  0
 10 11  1  0
 10  9  1  0
 11 17  1  0
 12 11  2  0
 14 15  1  1
 14 13  1  0
 16 14  1  0
 16 17  1  1
 18 19  1  0
 18 16  1  0
 20 18  2  0
M  END
$$$$
