IGV.pdb
     RDKit          3D

 20 19  0  0  1  0  0  0  0  0999 V2000
   24.9540  -21.8793   -7.6028 C   0  0  0  0  0  0  0  0  0  0  0  0
   24.6715  -20.7019   -8.5109 C   0  0  0  0  0  0  0  0  0  0  0  0
   25.0917  -21.0006   -9.9339 C   0  0  2  0  0  0  0  0  0  0  0  0
   26.5866  -21.2673   -9.9085 C   0  0  0  0  0  0  0  0  0  0  0  0
   24.8528  -19.8452  -10.8557 C   0  0  2  0  0  0  0  0  0  0  0  0
   23.4719  -19.4610  -10.8478 N   0  0  0  0  0  0  0  0  0  0  0  0
   25.3313  -20.0463  -12.2212 C   0  0  0  0  0  0  0  0  0  0  0  0
   24.6950  -20.8096  -12.9844 O   0  0  0  0  0  0  0  0  0  0  0  0
   26.4907  -19.4291  -12.7669 N   0  0  0  0  0  0  0  0  0  0  0  0
   26.8335  -19.5815  -14.1596 C   0  0  0  0  0  0  0  0  0  0  0  0
   26.1687  -18.5358  -14.9987 C   0  0  0  0  0  0  0  0  0  0  0  0
   24.9986  -18.1813  -14.7255 O   0  0  0  0  0  0  0  0  0  0  0  0
   27.2604  -15.0650  -15.5236 C   0  0  0  0  0  0  0  0  0  0  0  0
   27.2002  -15.6890  -16.9031 C   0  0  1  0  0  0  0  0  0  0  0  0
   28.5661  -16.0853  -17.3958 C   0  0  0  0  0  0  0  0  0  0  0  0
   26.2898  -16.9024  -16.9099 C   0  0  2  0  0  0  0  0  0  0  0  0
   26.8498  -17.9483  -16.0928 N   0  0  0  0  0  0  0  0  0  0  0  0
   26.0307  -17.3864  -18.2882 C   0  0  0  0  0  0  0  0  0  0  0  0
   24.8972  -17.0823  -18.9988 O   0  0  0  0  0  0  0  0  0  0  0  0
   26.8938  -18.1139  -18.8371 O   0  0  0  0  0  0  0  0  0  0  0  0
  2  1  1  0
  3  5  1  0
  3  2  1  0
  3  4  1  1
  5  6  1  6
  7  8  2  0
  7  5  1  0
  9  7  1  0
 10 11  1  0
 10  9  1  0
 11 17  1  0
 12 11  2  0
 14 15  1  1
 14 13  1  0
 16 14  1  0
 16 17  1  1
 18 19  1  0
 18 16  1  0
 20 18  2  0
M  END
$$$$
