IGV.pdb
     RDKit          3D

 20 19  0  0  1  0  0  0  0  0999 V2000
   15.3537  -17.3640  -19.3462 C   0  0  0  0  0  0  0  0  0  0  0  0
   16.6055  -17.3210  -18.4966 C   0  0  0  0  0  0  0  0  0  0  0  0
   16.7041  -16.0135  -17.7407 C   0  0  2  0  0  0  0  0  0  0  0  0
   16.9529  -14.9240  -18.7692 C   0  0  0  0  0  0  0  0  0  0  0  0
   17.8483  -15.9954  -16.7752 C   0  0  2  0  0  0  0  0  0  0  0  0
   17.8139  -17.1445  -15.9191 N   0  0  0  0  0  0  0  0  0  0  0  0
   17.9678  -14.7661  -15.9952 C   0  0  0  0  0  0  0  0  0  0  0  0
   17.0527  -14.4592  -15.1963 O   0  0  0  0  0  0  0  0  0  0  0  0
   19.0677  -13.8676  -16.0723 N   0  0  0  0  0  0  0  0  0  0  0  0
   19.1467  -12.7076  -15.2188 C   0  0  0  0  0  0  0  0  0  0  0  0
   18.8105  -11.4581  -15.9706 C   0  0  0  0  0  0  0  0  0  0  0  0
   18.9795  -11.4233  -17.2114 O   0  0  0  0  0  0  0  0  0  0  0  0
   15.8716  -10.1603  -16.8648 C   0  0  0  0  0  0  0  0  0  0  0  0
   16.4317   -8.9950  -16.0745 C   0  0  1  0  0  0  0  0  0  0  0  0
   15.8256   -8.9114  -14.6993 C   0  0  0  0  0  0  0  0  0  0  0  0
   17.9406   -9.0962  -15.9554 C   0  0  2  0  0  0  0  0  0  0  0  0
   18.3056  -10.3217  -15.2923 N   0  0  0  0  0  0  0  0  0  0  0  0
   18.5158   -7.9216  -15.2550 C   0  0  0  0  0  0  0  0  0  0  0  0
   19.0322   -7.9731  -13.9850 O   0  0  0  0  0  0  0  0  0  0  0  0
   18.5324   -6.8189  -15.8544 O   0  0  0  0  0  0  0  0  0  0  0  0
  2  1  1  0
  3  5  1  0
  3  2  1  0
  3  4  1  6
  5  6  1  1
  7  8  2  0
  7  5  1  0
  9  7  1  0
 10 11  1  0
 10  9  1  0
 11 17  1  0
 12 11  2  0
 14 15  1  1
 14 13  1  0
 16 14  1  0
 16 17  1  1
 18 19  1  0
 18 16  1  0
 20 18  2  0
M  END
$$$$
