IGV.pdb
     RDKit          3D

 20 19  0  0  1  0  0  0  0  0999 V2000
   14.5934  -15.8751  -19.1672 C   0  0  0  0  0  0  0  0  0  0  0  0
   16.0535  -15.7086  -18.8049 C   0  0  0  0  0  0  0  0  0  0  0  0
   16.3991  -14.2494  -18.5998 C   0  0  2  0  0  0  0  0  0  0  0  0
   16.1989  -13.5541  -19.9351 C   0  0  0  0  0  0  0  0  0  0  0  0
   17.8266  -14.0508  -18.1946 C   0  0  2  0  0  0  0  0  0  0  0  0
   18.0896  -14.6672  -16.9275 N   0  0  0  0  0  0  0  0  0  0  0  0
   18.2741  -12.6603  -18.2019 C   0  0  0  0  0  0  0  0  0  0  0  0
   18.3407  -12.0466  -19.2923 O   0  0  0  0  0  0  0  0  0  0  0  0
   18.6495  -11.9293  -17.0410 N   0  0  0  0  0  0  0  0  0  0  0  0
   19.0842  -10.5569  -17.1295 C   0  0  0  0  0  0  0  0  0  0  0  0
   19.4829  -10.0273  -15.7879 C   0  0  0  0  0  0  0  0  0  0  0  0
   18.7724  -10.2865  -14.7891 O   0  0  0  0  0  0  0  0  0  0  0  0
   22.1954  -11.0200  -13.9052 C   0  0  0  0  0  0  0  0  0  0  0  0
   22.4404   -9.5297  -14.0293 C   0  0  1  0  0  0  0  0  0  0  0  0
   23.4826   -9.2208  -15.0703 C   0  0  0  0  0  0  0  0  0  0  0  0
   21.1566   -8.7958  -14.3675 C   0  0  2  0  0  0  0  0  0  0  0  0
   20.6511   -9.2399  -15.6411 N   0  0  0  0  0  0  0  0  0  0  0  0
   21.3461   -7.3244  -14.3550 C   0  0  0  0  0  0  0  0  0  0  0  0
   21.3679   -6.5717  -13.2081 O   0  0  0  0  0  0  0  0  0  0  0  0
   21.4949   -6.7328  -15.4519 O   0  0  0  0  0  0  0  0  0  0  0  0
  2  1  1  0
  3  5  1  0
  3  2  1  0
  3  4  1  6
  5  6  1  1
  7  8  2  0
  7  5  1  0
  9  7  1  0
 10 11  1  0
 10  9  1  0
 11 17  1  0
 12 11  2  0
 14 15  1  6
 14 13  1  0
 16 14  1  0
 16 17  1  6
 18 19  1  0
 18 16  1  0
 20 18  2  0
M  END
$$$$
