IGV.pdb
     RDKit          3D

 20 19  0  0  1  0  0  0  0  0999 V2000
   23.8022  -18.3230  -15.3155 C   0  0  0  0  0  0  0  0  0  0  0  0
   22.4701  -17.8548  -15.8605 C   0  0  0  0  0  0  0  0  0  0  0  0
   22.5073  -16.3782  -16.1909 C   0  0  2  0  0  0  0  0  0  0  0  0
   22.6431  -15.6324  -14.8748 C   0  0  0  0  0  0  0  0  0  0  0  0
   21.2486  -15.9075  -16.8510 C   0  0  2  0  0  0  0  0  0  0  0  0
   20.9091  -16.7462  -17.9627 N   0  0  0  0  0  0  0  0  0  0  0  0
   21.2551  -14.4999  -17.2414 C   0  0  0  0  0  0  0  0  0  0  0  0
   22.0980  -14.1031  -18.0792 O   0  0  0  0  0  0  0  0  0  0  0  0
   20.3583  -13.5196  -16.7336 N   0  0  0  0  0  0  0  0  0  0  0  0
   20.6010  -12.1114  -16.9294 C   0  0  0  0  0  0  0  0  0  0  0  0
   20.6369  -11.3812  -15.6236 C   0  0  0  0  0  0  0  0  0  0  0  0
   20.2363  -11.9578  -14.5860 O   0  0  0  0  0  0  0  0  0  0  0  0
   23.5135  -10.2407  -13.8865 C   0  0  0  0  0  0  0  0  0  0  0  0
   22.6914   -8.9785  -14.0513 C   0  0  1  0  0  0  0  0  0  0  0  0
   23.2218   -8.1084  -15.1590 C   0  0  0  0  0  0  0  0  0  0  0  0
   21.2366   -9.3109  -14.3237 C   0  0  2  0  0  0  0  0  0  0  0  0
   21.1178  -10.0508  -15.5539 N   0  0  0  0  0  0  0  0  0  0  0  0
   20.3914   -8.0920  -14.3533 C   0  0  0  0  0  0  0  0  0  0  0  0
   19.9758   -7.4291  -13.2262 O   0  0  0  0  0  0  0  0  0  0  0  0
   20.0353   -7.6398  -15.4687 O   0  0  0  0  0  0  0  0  0  0  0  0
  2  1  1  0
  3  5  1  0
  3  2  1  0
  3  4  1  1
  5  6  1  6
  7  8  2  0
  7  5  1  0
  9  7  1  0
 10 11  1  0
 10  9  1  0
 11 17  1  0
 12 11  2  0
 14 15  1  6
 14 13  1  0
 16 14  1  0
 16 17  1  6
 18 19  1  0
 18 16  1  0
 20 18  2  0
M  END
$$$$
