IGV.pdb
     RDKit          3D

 20 19  0  0  1  0  0  0  0  0999 V2000
   27.3695  -19.7294   -5.8280 C   0  0  0  0  0  0  0  0  0  0  0  0
   26.2363  -19.7902   -6.8294 C   0  0  0  0  0  0  0  0  0  0  0  0
   26.7409  -20.1996   -8.1963 C   0  0  2  0  0  0  0  0  0  0  0  0
   27.7020  -19.1175   -8.6568 C   0  0  0  0  0  0  0  0  0  0  0  0
   25.6416  -20.2905   -9.2087 C   0  0  2  0  0  0  0  0  0  0  0  0
   24.7014  -21.3123   -8.8530 N   0  0  0  0  0  0  0  0  0  0  0  0
   26.0953  -20.4550  -10.5874 C   0  0  0  0  0  0  0  0  0  0  0  0
   26.5083  -19.4536  -11.2174 O   0  0  0  0  0  0  0  0  0  0  0  0
   26.1059  -21.6921  -11.2892 N   0  0  0  0  0  0  0  0  0  0  0  0
   26.5305  -21.7673  -12.6656 C   0  0  0  0  0  0  0  0  0  0  0  0
   25.3632  -21.6813  -13.5980 C   0  0  0  0  0  0  0  0  0  0  0  0
   25.5586  -21.7391  -14.8341 O   0  0  0  0  0  0  0  0  0  0  0  0
   21.6685  -22.8738  -12.1930 C   0  0  0  0  0  0  0  0  0  0  0  0
   22.0428  -22.7804  -13.6584 C   0  0  1  0  0  0  0  0  0  0  0  0
   20.8266  -22.7722  -14.5450 C   0  0  0  0  0  0  0  0  0  0  0  0
   22.8720  -21.5390  -13.9279 C   0  0  2  0  0  0  0  0  0  0  0  0
   24.0471  -21.5358  -13.0950 N   0  0  0  0  0  0  0  0  0  0  0  0
   22.0811  -20.2985  -13.7355 C   0  0  0  0  0  0  0  0  0  0  0  0
   21.2520  -19.7709  -14.6928 O   0  0  0  0  0  0  0  0  0  0  0  0
   22.1734  -19.6965  -12.6381 O   0  0  0  0  0  0  0  0  0  0  0  0
  2  1  1  0
  3  5  1  0
  3  2  1  0
  3  4  1  6
  5  6  1  1
  7  8  2  0
  7  5  1  0
  9  7  1  0
 10 11  1  0
 10  9  1  0
 11 17  1  0
 12 11  2  0
 14 15  1  6
 14 13  1  0
 16 14  1  0
 16 17  1  1
 18 19  1  0
 18 16  1  0
 20 18  2  0
M  END
$$$$
