IGV.pdb
     RDKit          3D

 20 19  0  0  1  0  0  0  0  0999 V2000
   18.8757  -24.9532  -11.5076 C   0  0  0  0  0  0  0  0  0  0  0  0
   19.0973  -25.1244  -10.0202 C   0  0  0  0  0  0  0  0  0  0  0  0
   17.8316  -24.8285   -9.2449 C   0  0  2  0  0  0  0  0  0  0  0  0
   17.5486  -23.3451   -9.4070 C   0  0  0  0  0  0  0  0  0  0  0  0
   17.9793  -25.1046   -7.7809 C   0  0  2  0  0  0  0  0  0  0  0  0
   18.4584  -26.4369   -7.5570 N   0  0  0  0  0  0  0  0  0  0  0  0
   16.7820  -24.8398   -6.9871 C   0  0  0  0  0  0  0  0  0  0  0  0
   15.6888  -25.3339   -7.3486 O   0  0  0  0  0  0  0  0  0  0  0  0
   16.7578  -24.0460   -5.8072 N   0  0  0  0  0  0  0  0  0  0  0  0
   15.5194  -23.7538   -5.1278 C   0  0  0  0  0  0  0  0  0  0  0  0
   15.4743  -24.4036   -3.7805 C   0  0  0  0  0  0  0  0  0  0  0  0
   16.3953  -25.1830   -3.4431 O   0  0  0  0  0  0  0  0  0  0  0  0
   16.2889  -23.2900   -0.7402 C   0  0  0  0  0  0  0  0  0  0  0  0
   14.8118  -23.5805   -0.5665 C   0  0  1  0  0  0  0  0  0  0  0  0
   13.9752  -22.3424   -0.7472 C   0  0  0  0  0  0  0  0  0  0  0  0
   14.3510  -24.6475   -1.5413 C   0  0  2  0  0  0  0  0  0  0  0  0
   14.4037  -24.1445   -2.8901 N   0  0  0  0  0  0  0  0  0  0  0  0
   12.9916  -25.1418   -1.2115 C   0  0  0  0  0  0  0  0  0  0  0  0
   12.7531  -26.2262   -0.4056 O   0  0  0  0  0  0  0  0  0  0  0  0
   12.0035  -24.5371   -1.6947 O   0  0  0  0  0  0  0  0  0  0  0  0
  2  1  1  0
  3  5  1  0
  3  2  1  0
  3  4  1  1
  5  6  1  6
  7  8  2  0
  7  5  1  0
  9  7  1  0
 10 11  1  0
 10  9  1  0
 11 17  1  0
 12 11  2  0
 14 15  1  6
 14 13  1  0
 16 14  1  0
 16 17  1  6
 18 19  1  0
 18 16  1  0
 20 18  2  0
M  END
$$$$
