IGV.pdb
     RDKit          3D

 20 19  0  0  1  0  0  0  0  0999 V2000
   23.3558  -17.9519  -17.4598 C   0  0  0  0  0  0  0  0  0  0  0  0
   24.5948  -17.0985  -17.2944 C   0  0  0  0  0  0  0  0  0  0  0  0
   24.3030  -15.8749  -16.4527 C   0  0  2  0  0  0  0  0  0  0  0  0
   23.2210  -15.0890  -17.1727 C   0  0  0  0  0  0  0  0  0  0  0  0
   25.4951  -14.9802  -16.3110 C   0  0  2  0  0  0  0  0  0  0  0  0
   26.6298  -15.7118  -15.8297 N   0  0  0  0  0  0  0  0  0  0  0  0
   25.2658  -13.7829  -15.5061 C   0  0  0  0  0  0  0  0  0  0  0  0
   25.7102  -13.7404  -14.3354 O   0  0  0  0  0  0  0  0  0  0  0  0
   24.5607  -12.6328  -15.9569 N   0  0  0  0  0  0  0  0  0  0  0  0
   24.3427  -11.5016  -15.0891 C   0  0  0  0  0  0  0  0  0  0  0  0
   23.6021  -10.4107  -15.7968 C   0  0  0  0  0  0  0  0  0  0  0  0
   23.5669  -10.4041  -17.0491 O   0  0  0  0  0  0  0  0  0  0  0  0
   21.2650  -10.3526  -17.1793 C   0  0  0  0  0  0  0  0  0  0  0  0
   20.7896   -9.3219  -16.1753 C   0  0  1  0  0  0  0  0  0  0  0  0
   20.0477   -9.9591  -15.0311 C   0  0  0  0  0  0  0  0  0  0  0  0
   21.9545   -8.5148  -15.6342 C   0  0  2  0  0  0  0  0  0  0  0  0
   22.9447   -9.3921  -15.0643 N   0  0  0  0  0  0  0  0  0  0  0  0
   21.5085   -7.5033  -14.6447 C   0  0  0  0  0  0  0  0  0  0  0  0
   21.6775   -7.6406  -13.2901 O   0  0  0  0  0  0  0  0  0  0  0  0
   20.9456   -6.4639  -15.0667 O   0  0  0  0  0  0  0  0  0  0  0  0
  2  1  1  0
  3  5  1  0
  3  2  1  0
  3  4  1  6
  5  6  1  1
  7  8  2  0
  7  5  1  0
  9  7  1  0
 10 11  1  0
 10  9  1  0
 11 17  1  0
 12 11  2  0
 14 15  1  1
 14 13  1  0
 16 14  1  0
 16 17  1  1
 18 19  1  0
 18 16  1  0
 20 18  2  0
M  END
$$$$
