CWI.pdb
     RDKit          3D

 29 30  0  0  1  0  0  0  0  0999 V2000
   11.9045  -16.2655   19.2314 N   0  0  0  0  0  0  0  0  0  0  0  0
   11.2577  -17.1972   20.1066 C   0  0  1  0  0  0  0  0  0  0  0  0
   12.1395  -18.3580   20.5118 C   0  0  0  0  0  0  0  0  0  0  0  0
   13.6299  -17.7420   21.3086 S   0  0  0  0  0  0  0  0  0  0  0  0
   10.7643  -16.4633   21.3012 C   0  0  0  0  0  0  0  0  0  0  0  0
   11.3348  -15.3948   21.6710 O   0  0  0  0  0  0  0  0  0  0  0  0
    9.6621  -16.8932   22.0800 N   0  0  0  0  0  0  0  0  0  0  0  0
    9.1433  -16.1109   23.1670 C   0  0  1  0  0  0  0  0  0  0  0  0
    7.7384  -16.5328   23.5148 C   0  0  0  0  0  0  0  0  0  0  0  0
    7.0055  -15.6744   24.4157 C   0  0  0  0  0  0  0  0  0  0  0  0
    5.9701  -16.0912   25.2353 C   0  0  0  0  0  0  0  0  0  0  0  0
    5.5200  -15.0630   25.9663 N   0  0  0  0  0  0  0  0  0  0  0  0
    6.2529  -13.9731   25.6320 C   0  0  0  0  0  0  0  0  0  0  0  0
    6.2231  -12.6635   26.0564 C   0  0  0  0  0  0  0  0  0  0  0  0
    7.0742  -11.6884   25.5682 C   0  0  0  0  0  0  0  0  0  0  0  0
    7.9959  -12.0421   24.6118 C   0  0  0  0  0  0  0  0  0  0  0  0
    8.0280  -13.3666   24.1809 C   0  0  0  0  0  0  0  0  0  0  0  0
    7.1776  -14.3420   24.6696 C   0  0  0  0  0  0  0  0  0  0  0  0
    9.9610  -16.3735   24.3782 C   0  0  0  0  0  0  0  0  0  0  0  0
   10.7959  -17.3075   24.3335 O   0  0  0  0  0  0  0  0  0  0  0  0
    9.5219  -12.6299   28.5669 C   0  0  0  0  0  0  0  0  0  0  0  0
   10.0428  -13.5331   27.5116 C   0  0  0  0  0  0  0  0  0  0  0  0
   10.2415  -14.9562   27.8639 C   0  0  2  0  0  0  0  0  0  0  0  0
   10.9378  -15.1768   29.1926 C   0  0  0  0  0  0  0  0  0  0  0  0
   10.6552  -15.8800   26.7762 C   0  0  2  0  0  0  0  0  0  0  0  0
    9.8599  -15.6435   25.5708 N   0  0  0  0  0  0  0  0  0  0  0  0
   10.6345  -17.3090   27.0531 C   0  0  0  0  0  0  0  0  0  0  0  0
    9.5653  -18.1716   26.9685 O   0  0  0  0  0  0  0  0  0  0  0  0
   11.7261  -17.8618   27.4248 O   0  0  0  0  0  0  0  0  0  0  0  0
  2  1  1  6
  2  3  1  0
  3  4  1  0
  5  6  2  0
  5  2  1  0
  7  5  1  0
  8  7  1  0
  9 10  1  0
  8  9  1  1
 10 11  2  0
 10 18  1  0
 11 12  1  0
 12 13  1  0
 13 14  2  0
 14 15  1  0
 16 15  2  0
 17 16  1  0
 18 17  2  0
 18 13  1  0
 19  8  1  0
 19 20  2  0
 22 21  1  0
 23 22  1  0
 23 24  1  1
 25 26  1  6
 25 23  1  0
 26 19  1  0
 27 25  1  0
 28 27  1  0
 29 27  2  0
M  END
$$$$
