CWI.pdb
     RDKit          3D

 29 30  0  0  1  0  0  0  0  0999 V2000
    7.7151  -21.4091   23.9381 N   0  0  0  0  0  0  0  0  0  0  0  0
    7.7678  -20.2369   24.7600 C   0  0  1  0  0  0  0  0  0  0  0  0
    8.3690  -20.4833   26.1264 C   0  0  0  0  0  0  0  0  0  0  0  0
    8.2280  -18.9980   27.1311 S   0  0  0  0  0  0  0  0  0  0  0  0
    8.5182  -19.1799   24.0328 C   0  0  0  0  0  0  0  0  0  0  0  0
    9.5835  -19.4696   23.4122 O   0  0  0  0  0  0  0  0  0  0  0  0
    8.1083  -17.8249   23.9859 N   0  0  0  0  0  0  0  0  0  0  0  0
    8.8343  -16.8324   23.2440 C   0  0  1  0  0  0  0  0  0  0  0  0
    7.9501  -15.6612   22.8985 C   0  0  0  0  0  0  0  0  0  0  0  0
    7.1808  -15.0864   23.9772 C   0  0  0  0  0  0  0  0  0  0  0  0
    6.2991  -15.7905   24.7799 C   0  0  0  0  0  0  0  0  0  0  0  0
    5.7671  -14.9775   25.7019 N   0  0  0  0  0  0  0  0  0  0  0  0
    6.2934  -13.7434   25.5099 C   0  0  0  0  0  0  0  0  0  0  0  0
    6.1047  -12.5393   26.1507 C   0  0  0  0  0  0  0  0  0  0  0  0
    6.7508  -11.3735   25.7803 C   0  0  0  0  0  0  0  0  0  0  0  0
    7.6246  -11.4170   24.7202 C   0  0  0  0  0  0  0  0  0  0  0  0
    7.8172  -12.6343   24.0703 C   0  0  0  0  0  0  0  0  0  0  0  0
    7.1719  -13.8003   24.4411 C   0  0  0  0  0  0  0  0  0  0  0  0
    9.9159  -16.2887   24.1037 C   0  0  0  0  0  0  0  0  0  0  0  0
   10.7977  -15.5805   23.5628 O   0  0  0  0  0  0  0  0  0  0  0  0
    9.8132  -14.3769   29.5228 C   0  0  0  0  0  0  0  0  0  0  0  0
    9.9285  -15.3787   28.4347 C   0  0  0  0  0  0  0  0  0  0  0  0
   10.7263  -15.0098   27.2447 C   0  0  2  0  0  0  0  0  0  0  0  0
   10.2683  -13.7376   26.5588 C   0  0  0  0  0  0  0  0  0  0  0  0
   11.1371  -16.1052   26.3287 C   0  0  2  0  0  0  0  0  0  0  0  0
   10.0155  -16.5161   25.4834 N   0  0  0  0  0  0  0  0  0  0  0  0
   11.7160  -17.3037   26.9184 C   0  0  0  0  0  0  0  0  0  0  0  0
   11.2154  -18.5855   26.8927 O   0  0  0  0  0  0  0  0  0  0  0  0
   12.8238  -17.1859   27.5462 O   0  0  0  0  0  0  0  0  0  0  0  0
  2  1  1  6
  2  3  1  0
  3  4  1  0
  5  6  2  0
  5  2  1  0
  7  5  1  0
  8  7  1  0
  9 10  1  0
  8  9  1  1
 10 11  2  0
 10 18  1  0
 11 12  1  0
 12 13  1  0
 13 14  2  0
 14 15  1  0
 16 15  2  0
 17 16  1  0
 18 17  2  0
 18 13  1  0
 19  8  1  0
 19 20  2  0
 22 21  1  0
 23 22  1  0
 23 24  1  6
 25 26  1  1
 25 23  1  0
 26 19  1  0
 27 25  1  0
 28 27  1  0
 29 27  2  0
M  END
$$$$
