CWI.pdb
     RDKit          3D

 29 30  0  0  1  0  0  0  0  0999 V2000
   11.7048  -16.4374   19.1813 N   0  0  0  0  0  0  0  0  0  0  0  0
   11.0423  -17.3171   20.0976 C   0  0  1  0  0  0  0  0  0  0  0  0
   11.9152  -18.4541   20.5821 C   0  0  0  0  0  0  0  0  0  0  0  0
   13.3724  -17.7954   21.4055 S   0  0  0  0  0  0  0  0  0  0  0  0
   10.5316  -16.5160   21.2406 C   0  0  0  0  0  0  0  0  0  0  0  0
   10.9984  -15.3603   21.4655 O   0  0  0  0  0  0  0  0  0  0  0  0
    9.5241  -16.9735   22.1249 N   0  0  0  0  0  0  0  0  0  0  0  0
    9.0202  -16.1596   23.1955 C   0  0  1  0  0  0  0  0  0  0  0  0
    7.6014  -16.5360   23.5393 C   0  0  0  0  0  0  0  0  0  0  0  0
    6.9367  -15.7272   24.5342 C   0  0  0  0  0  0  0  0  0  0  0  0
    6.1315  -16.2241   25.5453 C   0  0  0  0  0  0  0  0  0  0  0  0
    5.6891  -15.2214   26.3153 N   0  0  0  0  0  0  0  0  0  0  0  0
    6.1981  -14.0687   25.8163 C   0  0  0  0  0  0  0  0  0  0  0  0
    6.0723  -12.7516   26.1980 C   0  0  0  0  0  0  0  0  0  0  0  0
    6.6840  -11.7065   25.5294 C   0  0  0  0  0  0  0  0  0  0  0  0
    7.4557  -11.9946   24.4291 C   0  0  0  0  0  0  0  0  0  0  0  0
    7.5845  -13.3266   24.0410 C   0  0  0  0  0  0  0  0  0  0  0  0
    6.9737  -14.3719   24.7100 C   0  0  0  0  0  0  0  0  0  0  0  0
    9.8214  -16.4258   24.4168 C   0  0  0  0  0  0  0  0  0  0  0  0
   10.5720  -17.4299   24.4210 O   0  0  0  0  0  0  0  0  0  0  0  0
    9.3892  -12.5887   28.4928 C   0  0  0  0  0  0  0  0  0  0  0  0
    9.8619  -13.5221   27.4411 C   0  0  0  0  0  0  0  0  0  0  0  0
   10.1872  -14.9065   27.8489 C   0  0  2  0  0  0  0  0  0  0  0  0
   10.9994  -15.0045   29.1254 C   0  0  0  0  0  0  0  0  0  0  0  0
   10.5782  -15.8617   26.7801 C   0  0  2  0  0  0  0  0  0  0  0  0
    9.7932  -15.6259   25.5677 N   0  0  0  0  0  0  0  0  0  0  0  0
   10.5170  -17.2842   27.0835 C   0  0  0  0  0  0  0  0  0  0  0  0
   11.5486  -18.1139   27.4597 O   0  0  0  0  0  0  0  0  0  0  0  0
    9.3813  -17.8655   26.9973 O   0  0  0  0  0  0  0  0  0  0  0  0
  2  1  1  6
  2  3  1  0
  3  4  1  0
  5  6  2  0
  5  2  1  0
  7  5  1  0
  8  7  1  0
  9 10  1  0
  8  9  1  1
 10 11  2  0
 10 18  1  0
 11 12  1  0
 12 13  1  0
 13 14  2  0
 14 15  1  0
 16 15  2  0
 17 16  1  0
 18 17  2  0
 18 13  1  0
 19  8  1  0
 19 20  2  0
 22 21  1  0
 23 22  1  0
 23 24  1  1
 25 26  1  6
 25 23  1  0
 26 19  1  0
 27 25  1  0
 28 27  1  0
 29 27  2  0
M  END
$$$$
