CWI.pdb
     RDKit          3D

 29 30  0  0  1  0  0  0  0  0999 V2000
   10.5742  -18.1883   20.0036 N   0  0  0  0  0  0  0  0  0  0  0  0
   11.3496  -17.0020   20.2129 C   0  0  1  0  0  0  0  0  0  0  0  0
   11.4060  -16.0954   19.0028 C   0  0  0  0  0  0  0  0  0  0  0  0
   12.0617  -17.0004   17.5934 S   0  0  0  0  0  0  0  0  0  0  0  0
   10.8045  -16.2798   21.3920 C   0  0  0  0  0  0  0  0  0  0  0  0
   11.3383  -15.1978   21.7772 O   0  0  0  0  0  0  0  0  0  0  0  0
    9.6908  -16.7357   22.1391 N   0  0  0  0  0  0  0  0  0  0  0  0
    9.1673  -16.0001   23.2560 C   0  0  1  0  0  0  0  0  0  0  0  0
    7.6891  -16.2462   23.4206 C   0  0  0  0  0  0  0  0  0  0  0  0
    7.0160  -15.4966   24.4555 C   0  0  0  0  0  0  0  0  0  0  0  0
    6.2573  -16.0572   25.4691 C   0  0  0  0  0  0  0  0  0  0  0  0
    5.7927  -15.0977   26.2801 N   0  0  0  0  0  0  0  0  0  0  0  0
    6.2411  -13.9101   25.8055 C   0  0  0  0  0  0  0  0  0  0  0  0
    6.0702  -12.6116   26.2308 C   0  0  0  0  0  0  0  0  0  0  0  0
    6.6214  -11.5219   25.5810 C   0  0  0  0  0  0  0  0  0  0  0  0
    7.3771  -11.7439   24.4545 C   0  0  0  0  0  0  0  0  0  0  0  0
    7.5514  -13.0570   24.0223 C   0  0  0  0  0  0  0  0  0  0  0  0
    7.0012  -14.1468   24.6725 C   0  0  0  0  0  0  0  0  0  0  0  0
    9.8061  -16.4997   24.4997 C   0  0  0  0  0  0  0  0  0  0  0  0
   10.4059  -17.5996   24.4524 O   0  0  0  0  0  0  0  0  0  0  0  0
    9.4302  -13.0426   28.8859 C   0  0  0  0  0  0  0  0  0  0  0  0
    9.8981  -13.8885   27.7605 C   0  0  0  0  0  0  0  0  0  0  0  0
   10.2196  -15.3026   28.0532 C   0  0  2  0  0  0  0  0  0  0  0  0
   11.0642  -15.5040   29.2962 C   0  0  0  0  0  0  0  0  0  0  0  0
   10.5724  -16.1769   26.9048 C   0  0  2  0  0  0  0  0  0  0  0  0
    9.7823  -15.8204   25.7257 N   0  0  0  0  0  0  0  0  0  0  0  0
   10.4737  -17.6173   27.0912 C   0  0  0  0  0  0  0  0  0  0  0  0
   11.4768  -18.4972   27.4285 O   0  0  0  0  0  0  0  0  0  0  0  0
    9.3296  -18.1644   26.9267 O   0  0  0  0  0  0  0  0  0  0  0  0
  2  1  1  6
  2  3  1  0
  3  4  1  0
  5  6  2  0
  5  2  1  0
  7  5  1  0
  8  7  1  0
  9 10  1  0
  8  9  1  1
 10 11  2  0
 10 18  1  0
 11 12  1  0
 12 13  1  0
 13 14  2  0
 14 15  1  0
 16 15  2  0
 17 16  1  0
 18 17  2  0
 18 13  1  0
 19  8  1  0
 19 20  2  0
 22 21  1  0
 23 22  1  0
 23 24  1  1
 25 26  1  6
 25 23  1  0
 26 19  1  0
 27 25  1  0
 28 27  1  0
 29 27  2  0
M  END
$$$$
