CWI.pdb
     RDKit          3D

 29 30  0  0  1  0  0  0  0  0999 V2000
   11.5835  -16.1093   18.6755 N   0  0  0  0  0  0  0  0  0  0  0  0
   10.9548  -16.9956   19.6092 C   0  0  1  0  0  0  0  0  0  0  0  0
   11.8466  -18.1326   20.0577 C   0  0  0  0  0  0  0  0  0  0  0  0
   13.2364  -17.4831   20.9967 S   0  0  0  0  0  0  0  0  0  0  0  0
   10.4812  -16.2017   20.7731 C   0  0  0  0  0  0  0  0  0  0  0  0
   10.7577  -14.9686   20.8560 O   0  0  0  0  0  0  0  0  0  0  0  0
    9.7159  -16.7502   21.8313 N   0  0  0  0  0  0  0  0  0  0  0  0
    9.1567  -15.9340   22.8724 C   0  0  1  0  0  0  0  0  0  0  0  0
    7.6689  -16.1490   22.9877 C   0  0  0  0  0  0  0  0  0  0  0  0
    7.0011  -15.4973   24.0900 C   0  0  0  0  0  0  0  0  0  0  0  0
    6.2675  -16.1511   25.0657 C   0  0  0  0  0  0  0  0  0  0  0  0
    5.8012  -15.2686   25.9589 N   0  0  0  0  0  0  0  0  0  0  0  0
    6.2232  -14.0389   25.5760 C   0  0  0  0  0  0  0  0  0  0  0  0
    6.0391  -12.7823   26.1082 C   0  0  0  0  0  0  0  0  0  0  0  0
    6.5626  -11.6343   25.5413 C   0  0  0  0  0  0  0  0  0  0  0  0
    7.3035  -11.7514   24.3894 C   0  0  0  0  0  0  0  0  0  0  0  0
    7.4913  -13.0219   23.8492 C   0  0  0  0  0  0  0  0  0  0  0  0
    6.9686  -14.1700   24.4165 C   0  0  0  0  0  0  0  0  0  0  0  0
    9.7331  -16.3570   24.1736 C   0  0  0  0  0  0  0  0  0  0  0  0
   10.2860  -17.4805   24.2351 O   0  0  0  0  0  0  0  0  0  0  0  0
   10.9222  -13.7363   29.7759 C   0  0  0  0  0  0  0  0  0  0  0  0
   11.0840  -14.8348   28.7920 C   0  0  0  0  0  0  0  0  0  0  0  0
   10.3382  -14.7300   27.5186 C   0  0  2  0  0  0  0  0  0  0  0  0
    8.9506  -14.1349   27.6576 C   0  0  0  0  0  0  0  0  0  0  0  0
   10.4423  -15.8672   26.5680 C   0  0  2  0  0  0  0  0  0  0  0  0
    9.6995  -15.5803   25.3402 N   0  0  0  0  0  0  0  0  0  0  0  0
   10.0397  -17.1850   27.0374 C   0  0  0  0  0  0  0  0  0  0  0  0
   10.7688  -18.0717   27.7967 O   0  0  0  0  0  0  0  0  0  0  0  0
    8.8727  -17.6015   26.7212 O   0  0  0  0  0  0  0  0  0  0  0  0
  2  1  1  6
  2  3  1  0
  3  4  1  0
  5  6  2  0
  5  2  1  0
  7  5  1  0
  8  7  1  0
  9 10  1  0
  8  9  1  1
 10 11  2  0
 10 18  1  0
 11 12  1  0
 12 13  1  0
 13 14  2  0
 14 15  1  0
 16 15  2  0
 17 16  1  0
 18 17  2  0
 18 13  1  0
 19  8  1  0
 19 20  2  0
 22 21  1  0
 23 22  1  0
 23 24  1  1
 25 26  1  6
 25 23  1  0
 26 19  1  0
 27 25  1  0
 28 27  1  0
 29 27  2  0
M  END
$$$$
