CWI.pdb
     RDKit          3D

 29 30  0  0  1  0  0  0  0  0999 V2000
   10.6267  -18.4870   20.1437 N   0  0  0  0  0  0  0  0  0  0  0  0
   11.2843  -17.2143   20.1291 C   0  0  1  0  0  0  0  0  0  0  0  0
   11.2407  -16.5268   18.7819 C   0  0  0  0  0  0  0  0  0  0  0  0
   12.6588  -15.4338   18.6094 S   0  0  0  0  0  0  0  0  0  0  0  0
   10.6820  -16.3560   21.1825 C   0  0  0  0  0  0  0  0  0  0  0  0
   11.1975  -15.2326   21.4587 O   0  0  0  0  0  0  0  0  0  0  0  0
    9.5317  -16.7225   21.9234 N   0  0  0  0  0  0  0  0  0  0  0  0
    9.0451  -15.9322   23.0194 C   0  0  1  0  0  0  0  0  0  0  0  0
    7.6249  -16.3023   23.3644 C   0  0  0  0  0  0  0  0  0  0  0  0
    6.9789  -15.5171   24.3900 C   0  0  0  0  0  0  0  0  0  0  0  0
    6.1506  -16.0317   25.3732 C   0  0  0  0  0  0  0  0  0  0  0  0
    5.7347  -15.0502   26.1841 N   0  0  0  0  0  0  0  0  0  0  0  0
    6.2840  -13.8937   25.7397 C   0  0  0  0  0  0  0  0  0  0  0  0
    6.1976  -12.5913   26.1786 C   0  0  0  0  0  0  0  0  0  0  0  0
    6.8474  -11.5380   25.5606 C   0  0  0  0  0  0  0  0  0  0  0  0
    7.6177  -11.8022   24.4534 C   0  0  0  0  0  0  0  0  0  0  0  0
    7.7068  -13.1192   24.0076 C   0  0  0  0  0  0  0  0  0  0  0  0
    7.0579  -14.1727   24.6259 C   0  0  0  0  0  0  0  0  0  0  0  0
    9.8527  -16.2399   24.2267 C   0  0  0  0  0  0  0  0  0  0  0  0
   10.4895  -17.3195   24.2493 O   0  0  0  0  0  0  0  0  0  0  0  0
   10.8071  -13.8239   29.9614 C   0  0  0  0  0  0  0  0  0  0  0  0
   11.1464  -14.7964   28.8937 C   0  0  0  0  0  0  0  0  0  0  0  0
   10.4870  -14.6299   27.5799 C   0  0  2  0  0  0  0  0  0  0  0  0
    9.1087  -14.0020   27.6508 C   0  0  0  0  0  0  0  0  0  0  0  0
   10.6234  -15.7380   26.5995 C   0  0  2  0  0  0  0  0  0  0  0  0
    9.9498  -15.4001   25.3450 N   0  0  0  0  0  0  0  0  0  0  0  0
   10.1773  -17.0632   27.0045 C   0  0  0  0  0  0  0  0  0  0  0  0
    8.9530  -17.6496   26.7774 O   0  0  0  0  0  0  0  0  0  0  0  0
   10.9979  -17.7975   27.6545 O   0  0  0  0  0  0  0  0  0  0  0  0
  2  1  1  6
  2  3  1  0
  3  4  1  0
  5  6  2  0
  5  2  1  0
  7  5  1  0
  8  7  1  0
  9 10  1  0
  8  9  1  1
 10 11  2  0
 10 18  1  0
 11 12  1  0
 12 13  1  0
 13 14  2  0
 14 15  1  0
 16 15  2  0
 17 16  1  0
 18 17  2  0
 18 13  1  0
 19  8  1  0
 19 20  2  0
 22 21  1  0
 23 22  1  0
 23 24  1  1
 25 26  1  6
 25 23  1  0
 26 19  1  0
 27 25  1  0
 28 27  1  0
 29 27  2  0
M  END
$$$$
