CWI.pdb
     RDKit          3D

 29 30  0  0  1  0  0  0  0  0999 V2000
   11.6571  -16.5320   19.1964 N   0  0  0  0  0  0  0  0  0  0  0  0
   11.0647  -17.4157   20.1559 C   0  0  1  0  0  0  0  0  0  0  0  0
   12.0012  -18.5033   20.6349 C   0  0  0  0  0  0  0  0  0  0  0  0
   13.5318  -17.7704   21.2315 S   0  0  0  0  0  0  0  0  0  0  0  0
   10.5609  -16.6085   21.2977 C   0  0  0  0  0  0  0  0  0  0  0  0
   11.0914  -15.4909   21.5691 O   0  0  0  0  0  0  0  0  0  0  0  0
    9.4913  -17.0190   22.1308 N   0  0  0  0  0  0  0  0  0  0  0  0
    9.0377  -16.2253   23.2384 C   0  0  1  0  0  0  0  0  0  0  0  0
    7.5810  -16.4839   23.5284 C   0  0  0  0  0  0  0  0  0  0  0  0
    6.9432  -15.6106   24.4856 C   0  0  0  0  0  0  0  0  0  0  0  0
    6.0638  -16.0278   25.4706 C   0  0  0  0  0  0  0  0  0  0  0  0
    5.6711  -14.9819   26.2094 N   0  0  0  0  0  0  0  0  0  0  0  0
    6.2866  -13.8799   25.7159 C   0  0  0  0  0  0  0  0  0  0  0  0
    6.2487  -12.5511   26.0751 C   0  0  0  0  0  0  0  0  0  0  0  0
    6.9646  -11.5669   25.4177 C   0  0  0  0  0  0  0  0  0  0  0  0
    7.7534  -11.9311   24.3525 C   0  0  0  0  0  0  0  0  0  0  0  0
    7.7935  -13.2751   23.9872 C   0  0  0  0  0  0  0  0  0  0  0  0
    7.0783  -14.2595   24.6452 C   0  0  0  0  0  0  0  0  0  0  0  0
    9.7771  -16.6385   24.4578 C   0  0  0  0  0  0  0  0  0  0  0  0
   10.3644  -17.7460   24.4429 O   0  0  0  0  0  0  0  0  0  0  0  0
    9.7993  -13.5842   29.5273 C   0  0  0  0  0  0  0  0  0  0  0  0
    9.6693  -14.7337   28.5986 C   0  0  0  0  0  0  0  0  0  0  0  0
   10.8030  -15.0125   27.6898 C   0  0  2  0  0  0  0  0  0  0  0  0
   11.4080  -13.7768   27.0529 C   0  0  0  0  0  0  0  0  0  0  0  0
   10.6874  -16.1904   26.7916 C   0  0  2  0  0  0  0  0  0  0  0  0
    9.8616  -15.8694   25.6268 N   0  0  0  0  0  0  0  0  0  0  0  0
   10.1924  -17.4348   27.3621 C   0  0  0  0  0  0  0  0  0  0  0  0
    8.9636  -18.0241   27.1690 O   0  0  0  0  0  0  0  0  0  0  0  0
   10.9680  -18.0838   28.1448 O   0  0  0  0  0  0  0  0  0  0  0  0
  2  1  1  6
  2  3  1  0
  3  4  1  0
  5  6  2  0
  5  2  1  0
  7  5  1  0
  8  7  1  0
  9 10  1  0
  8  9  1  1
 10 11  2  0
 10 18  1  0
 11 12  1  0
 12 13  1  0
 13 14  2  0
 14 15  1  0
 16 15  2  0
 17 16  1  0
 18 17  2  0
 18 13  1  0
 19  8  1  0
 19 20  2  0
 22 21  1  0
 23 22  1  0
 23 24  1  6
 25 26  1  6
 25 23  1  0
 26 19  1  0
 27 25  1  0
 28 27  1  0
 29 27  2  0
M  END
$$$$
