CWI.pdb
     RDKit          3D

 29 30  0  0  1  0  0  0  0  0999 V2000
   11.0284  -16.3035   18.7386 N   0  0  0  0  0  0  0  0  0  0  0  0
   11.0555  -17.1272   19.9105 C   0  0  1  0  0  0  0  0  0  0  0  0
   12.4275  -17.6800   20.2291 C   0  0  0  0  0  0  0  0  0  0  0  0
   12.3116  -18.8515   21.5891 S   0  0  0  0  0  0  0  0  0  0  0  0
   10.5202  -16.3437   21.0545 C   0  0  0  0  0  0  0  0  0  0  0  0
   10.8149  -15.1183   21.1789 O   0  0  0  0  0  0  0  0  0  0  0  0
    9.6744  -16.8941   22.0486 N   0  0  0  0  0  0  0  0  0  0  0  0
    9.1381  -16.1017   23.1195 C   0  0  1  0  0  0  0  0  0  0  0  0
    7.7161  -16.4979   23.4259 C   0  0  0  0  0  0  0  0  0  0  0  0
    7.0161  -15.7021   24.4069 C   0  0  0  0  0  0  0  0  0  0  0  0
    6.0669  -16.1919   25.2883 C   0  0  0  0  0  0  0  0  0  0  0  0
    5.6277  -15.2082   26.0842 N   0  0  0  0  0  0  0  0  0  0  0  0
    6.2818  -14.0750   25.7311 C   0  0  0  0  0  0  0  0  0  0  0  0
    6.2247  -12.7811   26.1989 C   0  0  0  0  0  0  0  0  0  0  0  0
    6.9902  -11.7524   25.6799 C   0  0  0  0  0  0  0  0  0  0  0  0
    7.8508  -12.0335   24.6457 C   0  0  0  0  0  0  0  0  0  0  0  0
    7.9105  -13.3420   24.1707 C   0  0  0  0  0  0  0  0  0  0  0  0
    7.1458  -14.3709   24.6903 C   0  0  0  0  0  0  0  0  0  0  0  0
    9.9148  -16.3779   24.3544 C   0  0  0  0  0  0  0  0  0  0  0  0
   10.5050  -17.4803   24.4441 O   0  0  0  0  0  0  0  0  0  0  0  0
    9.7413  -12.3896   28.3341 C   0  0  0  0  0  0  0  0  0  0  0  0
   10.2362  -13.3586   27.3257 C   0  0  0  0  0  0  0  0  0  0  0  0
   10.3305  -14.7791   27.7284 C   0  0  2  0  0  0  0  0  0  0  0  0
   10.9603  -14.9992   29.0899 C   0  0  0  0  0  0  0  0  0  0  0  0
   10.7259  -15.7618   26.6864 C   0  0  2  0  0  0  0  0  0  0  0  0
   10.0312  -15.4847   25.4286 N   0  0  0  0  0  0  0  0  0  0  0  0
   10.5596  -17.1763   26.9876 C   0  0  0  0  0  0  0  0  0  0  0  0
    9.4287  -17.9460   26.8364 O   0  0  0  0  0  0  0  0  0  0  0  0
   11.5674  -17.8108   27.4535 O   0  0  0  0  0  0  0  0  0  0  0  0
  2  1  1  6
  2  3  1  0
  3  4  1  0
  5  6  2  0
  5  2  1  0
  7  5  1  0
  8  7  1  0
  9 10  1  0
  8  9  1  1
 10 11  2  0
 10 18  1  0
 11 12  1  0
 12 13  1  0
 13 14  2  0
 14 15  1  0
 16 15  2  0
 17 16  1  0
 18 17  2  0
 18 13  1  0
 19  8  1  0
 19 20  2  0
 22 21  1  0
 23 22  1  0
 23 24  1  1
 25 26  1  6
 25 23  1  0
 26 19  1  0
 27 25  1  0
 28 27  1  0
 29 27  2  0
M  END
$$$$
