VEN.pdb
     RDKit          3D

 25 24  0  0  1  0  0  0  0  0999 V2000
    8.4602  -12.3592   25.7859 C   0  0  0  0  0  0  0  0  0  0  0  0
    7.2053  -12.8566   26.4884 C   0  0  1  0  0  0  0  0  0  0  0  0
    6.4098  -11.6717   26.9645 C   0  0  0  0  0  0  0  0  0  0  0  0
    6.4152  -13.7742   25.5650 C   0  0  2  0  0  0  0  0  0  0  0  0
    5.2662  -14.2218   26.3525 N   0  0  0  0  0  0  0  0  0  0  0  0
    7.1997  -14.8298   24.9608 C   0  0  0  0  0  0  0  0  0  0  0  0
    7.3532  -15.9144   25.5932 O   0  0  0  0  0  0  0  0  0  0  0  0
    7.7975  -14.6822   23.6877 N   0  0  0  0  0  0  0  0  0  0  0  0
    8.5059  -15.8067   23.0523 C   0  0  1  0  0  0  0  0  0  0  0  0
    8.6696  -15.5339   21.5886 C   0  0  0  0  0  0  0  0  0  0  0  0
    7.4257  -15.8931   20.8403 C   0  0  0  0  0  0  0  0  0  0  0  0
    7.7380  -16.6976   19.6062 C   0  0  0  0  0  0  0  0  0  0  0  0
    8.2001  -17.8388   19.7316 O   0  0  0  0  0  0  0  0  0  0  0  0
    9.7156  -16.1002   23.8158 C   0  0  0  0  0  0  0  0  0  0  0  0
   10.4255  -15.0750   24.1537 O   0  0  0  0  0  0  0  0  0  0  0  0
    7.4966  -16.1256   18.3849 O   0  0  0  0  0  0  0  0  0  0  0  0
   10.2437  -17.3572   27.2412 N   0  0  0  0  0  0  0  0  0  0  0  0
   10.7301  -18.6784   26.9237 C   0  0  0  0  0  0  0  0  0  0  0  0
   10.4630  -19.6405   27.6941 O   0  0  0  0  0  0  0  0  0  0  0  0
   11.5270  -18.7972   25.6841 C   0  0  0  0  0  0  0  0  0  0  0  0
   11.4630  -17.4972   24.9354 C   0  0  2  0  0  0  0  0  0  0  0  0
   10.1906  -17.3611   24.2266 N   0  0  0  0  0  0  0  0  0  0  0  0
   12.5768  -17.4336   23.9817 C   0  0  0  0  0  0  0  0  0  0  0  0
   12.5812  -17.9729   22.8396 O   0  0  0  0  0  0  0  0  0  0  0  0
   13.7283  -16.7399   24.3249 O   0  0  0  0  0  0  0  0  0  0  0  0
  2  1  1  6
  2  3  1  0
  4  2  1  0
  4  5  1  1
  6  7  2  0
  6  4  1  0
  8  6  1  0
  9  8  1  0
  9 10  1  6
 11 12  1  0
 11 10  1  0
 12 16  1  0
 13 12  2  0
 14  9  1  0
 14 22  1  0
 15 14  2  0
 17 18  1  0
 18 19  2  0
 20 18  1  0
 21 20  1  6
 21 22  1  0
 21 23  1  0
 23 24  2  0
 23 25  1  0
M  END
$$$$
