VEN.pdb
     RDKit          3D

 25 24  0  0  1  0  0  0  0  0999 V2000
   15.4340  -15.2625   19.1216 C   0  0  0  0  0  0  0  0  0  0  0  0
   14.4459  -14.2430   18.5740 C   0  0  1  0  0  0  0  0  0  0  0  0
   14.9504  -13.7360   17.2503 C   0  0  0  0  0  0  0  0  0  0  0  0
   13.0539  -14.8543   18.4879 C   0  0  2  0  0  0  0  0  0  0  0  0
   12.1992  -13.7989   17.9435 N   0  0  0  0  0  0  0  0  0  0  0  0
   12.5888  -15.4519   19.7213 C   0  0  0  0  0  0  0  0  0  0  0  0
   12.2988  -14.6969   20.6939 O   0  0  0  0  0  0  0  0  0  0  0  0
   12.4505  -16.8516   19.8685 N   0  0  0  0  0  0  0  0  0  0  0  0
   11.9759  -17.4333   21.1360 C   0  0  1  0  0  0  0  0  0  0  0  0
   11.1046  -18.6175   20.8495 C   0  0  0  0  0  0  0  0  0  0  0  0
   11.9301  -19.7978   20.4471 C   0  0  0  0  0  0  0  0  0  0  0  0
   11.0730  -21.0111   20.2001 C   0  0  0  0  0  0  0  0  0  0  0  0
   10.6024  -21.6235   21.1670 O   0  0  0  0  0  0  0  0  0  0  0  0
   13.1184  -17.6440   22.0209 C   0  0  0  0  0  0  0  0  0  0  0  0
   14.1537  -18.1919   21.4758 O   0  0  0  0  0  0  0  0  0  0  0  0
   10.8500  -21.3901   18.9025 O   0  0  0  0  0  0  0  0  0  0  0  0
   16.2727  -17.4333   22.3205 N   0  0  0  0  0  0  0  0  0  0  0  0
   16.3036  -16.3562   23.2806 C   0  0  0  0  0  0  0  0  0  0  0  0
   17.1779  -15.4536   23.1737 O   0  0  0  0  0  0  0  0  0  0  0  0
   15.2770  -16.4031   24.3433 C   0  0  0  0  0  0  0  0  0  0  0  0
   14.4300  -17.6280   24.1511 C   0  0  2  0  0  0  0  0  0  0  0  0
   13.2220  -17.3168   23.3871 N   0  0  0  0  0  0  0  0  0  0  0  0
   14.0656  -18.1743   25.4637 C   0  0  0  0  0  0  0  0  0  0  0  0
   13.5732  -17.5033   26.4136 O   0  0  0  0  0  0  0  0  0  0  0  0
   14.2635  -19.5237   25.7183 O   0  0  0  0  0  0  0  0  0  0  0  0
  2  1  1  6
  2  3  1  0
  4  2  1  0
  4  5  1  1
  6  7  2  0
  6  4  1  0
  8  6  1  0
  9  8  1  0
  9 10  1  6
 11 12  1  0
 11 10  1  0
 12 16  1  0
 13 12  2  0
 14  9  1  0
 14 22  1  0
 15 14  2  0
 17 18  1  0
 18 19  2  0
 20 18  1  0
 21 20  1  1
 21 22  1  0
 21 23  1  0
 23 24  2  0
 23 25  1  0
M  END
$$$$
