VEN.pdb
     RDKit          3D

 25 24  0  0  1  0  0  0  0  0999 V2000
    7.9832  -12.5889   21.0817 C   0  0  0  0  0  0  0  0  0  0  0  0
    7.6936  -13.2715   19.7529 C   0  0  1  0  0  0  0  0  0  0  0  0
    7.6329  -12.2279   18.6708 C   0  0  0  0  0  0  0  0  0  0  0  0
    8.7300  -14.3535   19.4813 C   0  0  2  0  0  0  0  0  0  0  0  0
    8.5291  -14.7422   18.0851 N   0  0  0  0  0  0  0  0  0  0  0  0
    8.7173  -15.4427   20.4343 C   0  0  0  0  0  0  0  0  0  0  0  0
    7.8550  -15.4339   21.3597 O   0  0  0  0  0  0  0  0  0  0  0  0
    9.6393  -16.5125   20.3597 N   0  0  0  0  0  0  0  0  0  0  0  0
    9.7001  -17.5311   21.4222 C   0  0  1  0  0  0  0  0  0  0  0  0
    9.7279  -18.8967   20.8072 C   0  0  0  0  0  0  0  0  0  0  0  0
    9.6735  -19.9544   21.8628 C   0  0  0  0  0  0  0  0  0  0  0  0
    9.6578  -21.3343   21.2599 C   0  0  0  0  0  0  0  0  0  0  0  0
    8.5878  -21.7995   20.8473 O   0  0  0  0  0  0  0  0  0  0  0  0
   10.7799  -17.1929   22.3453 C   0  0  0  0  0  0  0  0  0  0  0  0
   11.9405  -17.0148   21.8063 O   0  0  0  0  0  0  0  0  0  0  0  0
   10.8401  -22.0235   21.1949 O   0  0  0  0  0  0  0  0  0  0  0  0
   11.6235  -20.0730   26.8146 N   0  0  0  0  0  0  0  0  0  0  0  0
   12.0321  -20.0855   25.4305 C   0  0  0  0  0  0  0  0  0  0  0  0
   13.0570  -20.7374   25.0912 O   0  0  0  0  0  0  0  0  0  0  0  0
   11.1900  -19.3076   24.4971 C   0  0  0  0  0  0  0  0  0  0  0  0
   11.5160  -17.8492   24.6444 C   0  0  2  0  0  0  0  0  0  0  0  0
   10.7010  -17.0350   23.7429 N   0  0  0  0  0  0  0  0  0  0  0  0
   12.9403  -17.6412   24.3573 C   0  0  0  0  0  0  0  0  0  0  0  0
   13.8369  -17.4787   25.2318 O   0  0  0  0  0  0  0  0  0  0  0  0
   13.3721  -17.6131   23.0391 O   0  0  0  0  0  0  0  0  0  0  0  0
  2  1  1  1
  2  3  1  0
  4  2  1  0
  4  5  1  6
  6  7  2  0
  6  4  1  0
  8  6  1  0
  9  8  1  0
  9 10  1  6
 11 12  1  0
 11 10  1  0
 12 16  1  0
 13 12  2  0
 14  9  1  0
 14 22  1  0
 15 14  2  0
 17 18  1  0
 18 19  2  0
 20 18  1  0
 21 20  1  6
 21 22  1  0
 21 23  1  0
 23 24  2  0
 23 25  1  0
M  END
$$$$
