VEN.pdb
     RDKit          3D

 25 24  0  0  1  0  0  0  0  0999 V2000
    8.4108  -12.5676   20.9643 C   0  0  0  0  0  0  0  0  0  0  0  0
    7.6071  -13.3577   19.9418 C   0  0  1  0  0  0  0  0  0  0  0  0
    7.4972  -12.5502   18.6771 C   0  0  0  0  0  0  0  0  0  0  0  0
    8.2368  -14.7268   19.7232 C   0  0  2  0  0  0  0  0  0  0  0  0
    7.3935  -15.3876   18.7266 N   0  0  0  0  0  0  0  0  0  0  0  0
    8.4627  -15.4793   20.9387 C   0  0  0  0  0  0  0  0  0  0  0  0
    7.4719  -16.0026   21.5255 O   0  0  0  0  0  0  0  0  0  0  0  0
    9.7560  -15.6445   21.4866 N   0  0  0  0  0  0  0  0  0  0  0  0
    9.9656  -16.4679   22.6900 C   0  0  1  0  0  0  0  0  0  0  0  0
   11.2876  -17.1660   22.5963 C   0  0  0  0  0  0  0  0  0  0  0  0
   11.5662  -17.9426   23.8435 C   0  0  0  0  0  0  0  0  0  0  0  0
   12.8757  -18.6805   23.7521 C   0  0  0  0  0  0  0  0  0  0  0  0
   12.9298  -19.7344   23.1056 O   0  0  0  0  0  0  0  0  0  0  0  0
    9.7258  -15.6493   23.8752 C   0  0  0  0  0  0  0  0  0  0  0  0
   10.4312  -14.5703   23.9611 O   0  0  0  0  0  0  0  0  0  0  0  0
   13.9620  -18.1493   24.3963 O   0  0  0  0  0  0  0  0  0  0  0  0
    6.0719  -12.5274   25.5352 N   0  0  0  0  0  0  0  0  0  0  0  0
    7.0945  -13.1344   26.3529 C   0  0  0  0  0  0  0  0  0  0  0  0
    7.8103  -12.4071   27.0941 O   0  0  0  0  0  0  0  0  0  0  0  0
    7.2228  -14.6035   26.2491 C   0  0  0  0  0  0  0  0  0  0  0  0
    8.6668  -14.9539   26.0324 C   0  0  2  0  0  0  0  0  0  0  0  0
    8.8182  -15.8962   24.9238 N   0  0  0  0  0  0  0  0  0  0  0  0
    9.2124  -15.5373   27.2637 C   0  0  0  0  0  0  0  0  0  0  0  0
    9.2362  -14.9606   28.3871 O   0  0  0  0  0  0  0  0  0  0  0  0
    9.7523  -16.8150   27.2307 O   0  0  0  0  0  0  0  0  0  0  0  0
  2  1  1  1
  2  3  1  0
  4  2  1  0
  4  5  1  6
  6  7  2  0
  6  4  1  0
  8  6  1  0
  9  8  1  0
  9 10  1  1
 11 12  1  0
 11 10  1  0
 12 16  1  0
 13 12  2  0
 14  9  1  0
 14 22  1  0
 15 14  2  0
 17 18  1  0
 18 19  2  0
 20 18  1  0
 21 20  1  1
 21 22  1  0
 21 23  1  0
 23 24  2  0
 23 25  1  0
M  END
$$$$
