VEN.pdb
     RDKit          3D

 25 24  0  0  1  0  0  0  0  0999 V2000
    8.5927  -12.5052   25.9536 C   0  0  0  0  0  0  0  0  0  0  0  0
    7.3018  -13.1400   26.4499 C   0  0  1  0  0  0  0  0  0  0  0  0
    6.3027  -12.0531   26.7396 C   0  0  0  0  0  0  0  0  0  0  0  0
    6.7967  -14.1615   25.4398 C   0  0  2  0  0  0  0  0  0  0  0  0
    5.5554  -14.6883   26.0077 N   0  0  0  0  0  0  0  0  0  0  0  0
    7.7752  -15.1584   25.0610 C   0  0  0  0  0  0  0  0  0  0  0  0
    7.9007  -16.1934   25.7772 O   0  0  0  0  0  0  0  0  0  0  0  0
    8.5922  -15.0073   23.9165 N   0  0  0  0  0  0  0  0  0  0  0  0
    9.5992  -16.0249   23.5692 C   0  0  1  0  0  0  0  0  0  0  0  0
    9.9666  -15.8941   22.1229 C   0  0  0  0  0  0  0  0  0  0  0  0
    8.9943  -16.6336   21.2603 C   0  0  0  0  0  0  0  0  0  0  0  0
    9.6961  -17.5980   20.3410 C   0  0  0  0  0  0  0  0  0  0  0  0
    9.8366  -18.7752   20.6959 O   0  0  0  0  0  0  0  0  0  0  0  0
   10.6872  -15.9700   24.5417 C   0  0  0  0  0  0  0  0  0  0  0  0
   11.0881  -14.7851   24.8652 O   0  0  0  0  0  0  0  0  0  0  0  0
   10.1553  -17.1260   19.1395 O   0  0  0  0  0  0  0  0  0  0  0  0
   12.5342  -16.7481   29.0422 N   0  0  0  0  0  0  0  0  0  0  0  0
   11.1825  -16.2959   28.8162 C   0  0  0  0  0  0  0  0  0  0  0  0
   10.5138  -15.8309   29.7792 O   0  0  0  0  0  0  0  0  0  0  0  0
   10.6780  -16.4209   27.4322 C   0  0  0  0  0  0  0  0  0  0  0  0
   11.7704  -16.9722   26.5618 C   0  0  2  0  0  0  0  0  0  0  0  0
   11.3405  -17.0508   25.1657 N   0  0  0  0  0  0  0  0  0  0  0  0
   12.1471  -18.3056   27.0457 C   0  0  0  0  0  0  0  0  0  0  0  0
   13.0305  -18.5339   27.9189 O   0  0  0  0  0  0  0  0  0  0  0  0
   11.5086  -19.4233   26.5280 O   0  0  0  0  0  0  0  0  0  0  0  0
  2  1  1  6
  2  3  1  0
  4  2  1  0
  4  5  1  1
  6  7  2  0
  6  4  1  0
  8  6  1  0
  9  8  1  0
  9 10  1  6
 11 12  1  0
 11 10  1  0
 12 16  1  0
 13 12  2  0
 14  9  1  0
 14 22  1  0
 15 14  2  0
 17 18  1  0
 18 19  2  0
 20 18  1  0
 21 20  1  1
 21 22  1  0
 21 23  1  0
 23 24  2  0
 23 25  1  0
M  END
$$$$
