VEN.pdb
     RDKit          3D

 25 24  0  0  1  0  0  0  0  0999 V2000
    8.2304  -13.3463   21.7716 C   0  0  0  0  0  0  0  0  0  0  0  0
    7.6039  -14.0552   20.5797 C   0  0  1  0  0  0  0  0  0  0  0  0
    7.1704  -13.0258   19.5717 C   0  0  0  0  0  0  0  0  0  0  0  0
    8.5751  -15.0790   20.0076 C   0  0  2  0  0  0  0  0  0  0  0  0
    7.9187  -15.6123   18.8137 N   0  0  0  0  0  0  0  0  0  0  0  0
    9.0247  -16.0708   20.9610 C   0  0  0  0  0  0  0  0  0  0  0  0
    8.2433  -17.0150   21.2738 O   0  0  0  0  0  0  0  0  0  0  0  0
   10.3089  -16.0131   21.5507 N   0  0  0  0  0  0  0  0  0  0  0  0
   10.7642  -17.0694   22.4710 C   0  0  1  0  0  0  0  0  0  0  0  0
   12.2607  -17.1335   22.4603 C   0  0  0  0  0  0  0  0  0  0  0  0
   12.7454  -18.0120   21.3513 C   0  0  0  0  0  0  0  0  0  0  0  0
   14.2495  -18.0767   21.3171 C   0  0  0  0  0  0  0  0  0  0  0  0
   14.8201  -19.0778   21.7686 O   0  0  0  0  0  0  0  0  0  0  0  0
   10.1134  -16.8866   23.7655 C   0  0  0  0  0  0  0  0  0  0  0  0
   10.2180  -15.7068   24.2817 O   0  0  0  0  0  0  0  0  0  0  0  0
   14.9291  -17.0133   20.7840 O   0  0  0  0  0  0  0  0  0  0  0  0
    7.2970  -16.1588   24.3425 N   0  0  0  0  0  0  0  0  0  0  0  0
    6.6160  -17.1279   25.1670 C   0  0  0  0  0  0  0  0  0  0  0  0
    5.3581  -17.2080   25.1213 O   0  0  0  0  0  0  0  0  0  0  0  0
    7.4760  -17.9708   26.0245 C   0  0  0  0  0  0  0  0  0  0  0  0
    8.9051  -17.5417   25.8557 C   0  0  2  0  0  0  0  0  0  0  0  0
    9.3870  -17.8389   24.5069 N   0  0  0  0  0  0  0  0  0  0  0  0
    9.7372  -18.2319   26.8484 C   0  0  0  0  0  0  0  0  0  0  0  0
   10.6863  -19.0185   26.5734 O   0  0  0  0  0  0  0  0  0  0  0  0
    9.4926  -18.0318   28.1993 O   0  0  0  0  0  0  0  0  0  0  0  0
  2  1  1  1
  2  3  1  0
  4  2  1  0
  4  5  1  6
  6  7  2  0
  6  4  1  0
  8  6  1  0
  9  8  1  0
  9 10  1  1
 11 12  1  0
 11 10  1  0
 12 16  1  0
 13 12  2  0
 14  9  1  0
 14 22  1  0
 15 14  2  0
 17 18  1  0
 18 19  2  0
 20 18  1  0
 21 20  1  6
 21 22  1  0
 21 23  1  0
 23 24  2  0
 23 25  1  0
M  END
$$$$
