VEN.pdb
     RDKit          3D

 25 24  0  0  1  0  0  0  0  0999 V2000
    6.9882  -12.7077   19.1620 C   0  0  0  0  0  0  0  0  0  0  0  0
    8.3455  -13.3596   18.9421 C   0  0  1  0  0  0  0  0  0  0  0  0
    9.4198  -12.3197   19.1097 C   0  0  0  0  0  0  0  0  0  0  0  0
    8.5147  -14.5490   19.8776 C   0  0  2  0  0  0  0  0  0  0  0  0
    8.2107  -14.0380   21.2145 N   0  0  0  0  0  0  0  0  0  0  0  0
    9.7851  -15.2306   19.7504 C   0  0  0  0  0  0  0  0  0  0  0  0
    9.9208  -16.1048   18.8464 O   0  0  0  0  0  0  0  0  0  0  0  0
   10.8747  -14.9473   20.6063 N   0  0  0  0  0  0  0  0  0  0  0  0
   12.1352  -15.7019   20.4973 C   0  0  1  0  0  0  0  0  0  0  0  0
   13.2092  -14.8092   19.9556 C   0  0  0  0  0  0  0  0  0  0  0  0
   13.2678  -14.8959   18.4638 C   0  0  0  0  0  0  0  0  0  0  0  0
   14.5501  -14.3156   17.9282 C   0  0  0  0  0  0  0  0  0  0  0  0
   15.2373  -13.5934   18.6614 O   0  0  0  0  0  0  0  0  0  0  0  0
   12.4014  -16.3709   21.7677 C   0  0  0  0  0  0  0  0  0  0  0  0
   12.1705  -15.6694   22.8278 O   0  0  0  0  0  0  0  0  0  0  0  0
   14.9039  -14.6135   16.6386 O   0  0  0  0  0  0  0  0  0  0  0  0
   10.1287  -19.9927   25.0340 N   0  0  0  0  0  0  0  0  0  0  0  0
   11.3833  -20.1499   24.3382 C   0  0  0  0  0  0  0  0  0  0  0  0
   12.2742  -20.8981   24.8251 O   0  0  0  0  0  0  0  0  0  0  0  0
   11.5246  -19.3961   23.0743 C   0  0  0  0  0  0  0  0  0  0  0  0
   12.6299  -18.3911   23.2255 C   0  0  2  0  0  0  0  0  0  0  0  0
   12.8721  -17.6834   21.9684 N   0  0  0  0  0  0  0  0  0  0  0  0
   13.8527  -19.0790   23.6567 C   0  0  0  0  0  0  0  0  0  0  0  0
   14.3438  -19.0183   24.8187 O   0  0  0  0  0  0  0  0  0  0  0  0
   14.5496  -19.8624   22.7481 O   0  0  0  0  0  0  0  0  0  0  0  0
  2  1  1  1
  2  3  1  0
  4  2  1  0
  4  5  1  1
  6  7  2  0
  6  4  1  0
  8  6  1  0
  9  8  1  0
  9 10  1  1
 11 12  1  0
 11 10  1  0
 12 16  1  0
 13 12  2  0
 14  9  1  0
 14 22  1  0
 15 14  2  0
 17 18  1  0
 18 19  2  0
 20 18  1  0
 21 20  1  6
 21 22  1  0
 21 23  1  0
 23 24  2  0
 23 25  1  0
M  END
$$$$
