CRR.pdb
     RDKit          3D

 29 28  0  0  1  0  0  0  0  0999 V2000
   15.0187  -15.7669   13.7515 N   0  0  0  0  0  0  0  0  0  0  0  0
   13.8533  -16.2927   14.4088 C   0  0  1  0  0  0  0  0  0  0  0  0
   14.0139  -17.7522   14.7704 C   0  0  0  0  0  0  0  0  0  0  0  0
   15.3246  -17.9746   16.0020 S   0  0  0  0  0  0  0  0  0  0  0  0
   13.4896  -15.5021   15.5917 C   0  0  0  0  0  0  0  0  0  0  0  0
   14.4010  -14.8385   16.1853 O   0  0  0  0  0  0  0  0  0  0  0  0
    5.7042  -15.0956   16.3762 N   0  0  0  0  0  0  0  0  0  0  0  0
    6.4557  -13.9032   16.1847 C   0  0  0  0  0  0  0  0  0  0  0  0
    5.9971  -12.8511   15.6184 N   0  0  0  0  0  0  0  0  0  0  0  0
    7.8063  -13.8855   16.6560 N   0  0  0  0  0  0  0  0  0  0  0  0
    8.1278  -13.6096   18.0309 C   0  0  0  0  0  0  0  0  0  0  0  0
    9.6542  -13.7027   18.2237 C   0  0  0  0  0  0  0  0  0  0  0  0
   10.2658  -14.4806   17.1138 C   0  0  0  0  0  0  0  0  0  0  0  0
   11.7671  -14.5753   17.1624 C   0  0  2  0  0  0  0  0  0  0  0  0
   12.1696  -15.4722   16.0660 N   0  0  0  0  0  0  0  0  0  0  0  0
   12.2869  -15.1818   18.4185 C   0  0  0  0  0  0  0  0  0  0  0  0
   12.1642  -16.4373   18.6261 O   0  0  0  0  0  0  0  0  0  0  0  0
    6.6083  -12.0162   15.4542 N   0  0  0  0  0  0  0  0  0  0  0  0
   19.3687  -16.8475   21.5235 C   0  0  0  0  0  0  0  0  0  0  0  0
   19.0195  -16.0075   22.5910 N   0  0  0  0  0  0  0  0  0  0  0  0
   19.9071  -15.4693   23.3828 N   0  0  0  0  0  0  0  0  0  0  0  0
   17.6516  -15.7231   22.8321 C   0  0  0  0  0  0  0  0  0  0  0  0
   16.8413  -14.9842   21.8841 C   0  0  0  0  0  0  0  0  0  0  0  0
   15.3938  -14.8605   22.3145 C   0  0  0  0  0  0  0  0  0  0  0  0
   14.6477  -14.1833   21.2026 C   0  0  2  0  0  0  0  0  0  0  0  0
   13.5163  -14.9514   20.6418 N   0  0  0  0  0  0  0  0  0  0  0  0
   12.9354  -14.4293   19.4326 C   0  0  0  0  0  0  0  0  0  0  0  0
   12.5424  -15.4694   21.6306 O   0  0  0  0  0  0  0  0  0  0  0  0
   11.3979  -14.9777   21.6669 O   0  0  0  0  0  0  0  0  0  0  0  0
  2  1  1  1
  2  5  1  0
  2  3  1  0
  4  3  1  0
  5  6  2  0
  7  8  1  0
  8  9  2  0
  8 10  1  0
 10 11  1  0
 11 12  1  0
 12 13  1  0
 14 13  1  1
 15 14  1  0
 15  5  1  0
 16 14  1  0
 17 16  2  0
 18 19  1  0
 19 20  2  0
 19 21  1  0
 21 22  1  0
 22 23  1  0
 23 24  1  0
 25 24  1  6
 25 27  1  0
 25 26  1  0
 26 16  1  0
 27 29  1  0
 28 27  2  0
M  END
$$$$
