CRR.pdb
     RDKit          3D

 29 28  0  0  1  0  0  0  0  0999 V2000
    3.4453  -20.7848   21.4068 N   0  0  0  0  0  0  0  0  0  0  0  0
    3.7088  -19.4136   21.7490 C   0  0  1  0  0  0  0  0  0  0  0  0
    3.1170  -19.0377   23.0888 C   0  0  0  0  0  0  0  0  0  0  0  0
    1.3066  -19.0077   23.0125 S   0  0  0  0  0  0  0  0  0  0  0  0
    5.1445  -19.1071   21.7116 C   0  0  0  0  0  0  0  0  0  0  0  0
    5.9660  -19.9819   22.1399 O   0  0  0  0  0  0  0  0  0  0  0  0
    8.1566  -14.2176   16.0911 N   0  0  0  0  0  0  0  0  0  0  0  0
    8.1393  -13.4551   17.2918 C   0  0  0  0  0  0  0  0  0  0  0  0
    8.2064  -12.1776   17.3296 N   0  0  0  0  0  0  0  0  0  0  0  0
    8.0411  -14.1657   18.5295 N   0  0  0  0  0  0  0  0  0  0  0  0
    8.8858  -15.2913   18.8286 C   0  0  0  0  0  0  0  0  0  0  0  0
    8.5812  -15.7895   20.2550 C   0  0  0  0  0  0  0  0  0  0  0  0
    7.1999  -16.3355   20.3246 C   0  0  0  0  0  0  0  0  0  0  0  0
    7.0486  -17.5613   21.1848 C   0  0  2  0  0  0  0  0  0  0  0  0
    5.6113  -17.8801   21.2170 N   0  0  0  0  0  0  0  0  0  0  0  0
    7.4686  -17.3547   22.5979 C   0  0  0  0  0  0  0  0  0  0  0  0
    6.7355  -16.6751   23.3947 O   0  0  0  0  0  0  0  0  0  0  0  0
    8.2046  -11.6636   18.2425 N   0  0  0  0  0  0  0  0  0  0  0  0
   11.3993  -21.9913   29.2238 C   0  0  0  0  0  0  0  0  0  0  0  0
   10.7557  -20.8093   29.6183 N   0  0  0  0  0  0  0  0  0  0  0  0
   10.2084  -20.6646   30.7948 N   0  0  0  0  0  0  0  0  0  0  0  0
   10.6888  -19.7198   28.7135 C   0  0  0  0  0  0  0  0  0  0  0  0
   10.1245  -19.8571   27.3853 C   0  0  0  0  0  0  0  0  0  0  0  0
    9.9920  -18.5334   26.6600 C   0  0  0  0  0  0  0  0  0  0  0  0
    9.3993  -18.8146   25.3105 C   0  0  1  0  0  0  0  0  0  0  0  0
    9.2032  -17.6305   24.4479 N   0  0  0  0  0  0  0  0  0  0  0  0
    8.6703  -17.8860   23.1353 C   0  0  0  0  0  0  0  0  0  0  0  0
   10.2820  -16.6166   24.4985 O   0  0  0  0  0  0  0  0  0  0  0  0
   10.9243  -16.3646   23.4606 O   0  0  0  0  0  0  0  0  0  0  0  0
  2  1  1  1
  2  5  1  0
  2  3  1  0
  4  3  1  0
  5  6  2  0
  7  8  1  0
  8  9  2  0
  8 10  1  0
 10 11  1  0
 11 12  1  0
 12 13  1  0
 14 13  1  6
 15 14  1  0
 15  5  1  0
 16 14  1  0
 17 16  2  0
 18 19  1  0
 19 20  2  0
 19 21  1  0
 21 22  1  0
 22 23  1  0
 23 24  1  0
 25 24  1  1
 25 27  1  0
 25 26  1  0
 26 16  1  0
 27 29  1  0
 28 27  2  0
M  END
$$$$
