CRR.pdb
     RDKit          3D

 29 28  0  0  1  0  0  0  0  0999 V2000
    5.6699  -13.5089   26.8743 N   0  0  0  0  0  0  0  0  0  0  0  0
    6.5079  -13.0027   25.8216 C   0  0  1  0  0  0  0  0  0  0  0  0
    7.6055  -12.1065   26.3493 C   0  0  0  0  0  0  0  0  0  0  0  0
    8.6704  -13.0010   27.5112 S   0  0  0  0  0  0  0  0  0  0  0  0
    7.0700  -14.0844   25.0026 C   0  0  0  0  0  0  0  0  0  0  0  0
    7.0468  -15.2724   25.4625 O   0  0  0  0  0  0  0  0  0  0  0  0
    9.3449  -14.5573   17.9233 N   0  0  0  0  0  0  0  0  0  0  0  0
    8.4109  -13.4974   17.7577 C   0  0  0  0  0  0  0  0  0  0  0  0
    8.5189  -12.5798   16.8722 N   0  0  0  0  0  0  0  0  0  0  0  0
    7.2840  -13.4604   18.6383 N   0  0  0  0  0  0  0  0  0  0  0  0
    6.8459  -14.6247   19.3609 C   0  0  0  0  0  0  0  0  0  0  0  0
    6.7769  -14.2927   20.8645 C   0  0  0  0  0  0  0  0  0  0  0  0
    8.1282  -14.3965   21.4761 C   0  0  0  0  0  0  0  0  0  0  0  0
    8.1426  -14.9103   22.8907 C   0  0  2  0  0  0  0  0  0  0  0  0
    7.6233  -13.8250   23.7398 N   0  0  0  0  0  0  0  0  0  0  0  0
    9.5059  -15.2288   23.3966 C   0  0  0  0  0  0  0  0  0  0  0  0
   10.3303  -14.2883   23.6614 O   0  0  0  0  0  0  0  0  0  0  0  0
    7.8038  -11.8181   16.7937 N   0  0  0  0  0  0  0  0  0  0  0  0
   10.7126  -17.5895   29.6945 C   0  0  0  0  0  0  0  0  0  0  0  0
   12.0871  -17.5846   29.4158 N   0  0  0  0  0  0  0  0  0  0  0  0
   12.9811  -17.2055   30.2885 N   0  0  0  0  0  0  0  0  0  0  0  0
   12.5382  -18.0051   28.1391 C   0  0  0  0  0  0  0  0  0  0  0  0
   11.6611  -18.0358   26.9855 C   0  0  0  0  0  0  0  0  0  0  0  0
   12.3624  -18.4922   25.7222 C   0  0  0  0  0  0  0  0  0  0  0  0
   11.3999  -18.3211   24.5838 C   0  0  2  0  0  0  0  0  0  0  0  0
   11.2729  -16.9425   24.0660 N   0  0  0  0  0  0  0  0  0  0  0  0
    9.9621  -16.5553   23.6143 C   0  0  0  0  0  0  0  0  0  0  0  0
   12.3915  -16.4731   23.2159 O   0  0  0  0  0  0  0  0  0  0  0  0
   13.3563  -15.8939   23.7514 O   0  0  0  0  0  0  0  0  0  0  0  0
  2  1  1  1
  2  5  1  0
  2  3  1  0
  4  3  1  0
  5  6  2  0
  7  8  1  0
  8  9  2  0
  8 10  1  0
 10 11  1  0
 11 12  1  0
 12 13  1  0
 14 13  1  6
 15 14  1  0
 15  5  1  0
 16 14  1  0
 17 16  2  0
 18 19  1  0
 19 20  2  0
 19 21  1  0
 21 22  1  0
 22 23  1  0
 23 24  1  0
 25 24  1  1
 25 27  1  0
 25 26  1  0
 26 16  1  0
 27 29  1  0
 28 27  2  0
M  END
$$$$
