CRR.pdb
     RDKit          3D

 29 28  0  0  1  0  0  0  0  0999 V2000
    7.9596  -11.8476   26.6335 N   0  0  0  0  0  0  0  0  0  0  0  0
    6.9646  -12.8734   26.7892 C   0  0  1  0  0  0  0  0  0  0  0  0
    5.5995  -12.3000   27.0962 C   0  0  0  0  0  0  0  0  0  0  0  0
    5.1256  -11.0587   25.8638 S   0  0  0  0  0  0  0  0  0  0  0  0
    6.9044  -13.7585   25.6189 C   0  0  0  0  0  0  0  0  0  0  0  0
    6.0922  -14.7401   25.6381 O   0  0  0  0  0  0  0  0  0  0  0  0
    8.9123  -12.3338   17.4162 N   0  0  0  0  0  0  0  0  0  0  0  0
    8.5409  -13.7058   17.3613 C   0  0  0  0  0  0  0  0  0  0  0  0
    8.8825  -14.5028   16.4200 N   0  0  0  0  0  0  0  0  0  0  0  0
    7.7359  -14.2200   18.4263 N   0  0  0  0  0  0  0  0  0  0  0  0
    7.5151  -13.4775   19.6386 C   0  0  0  0  0  0  0  0  0  0  0  0
    7.8799  -14.3605   20.8481 C   0  0  0  0  0  0  0  0  0  0  0  0
    7.5918  -13.6393   22.1161 C   0  0  0  0  0  0  0  0  0  0  0  0
    7.7350  -14.4718   23.3619 C   0  0  2  0  0  0  0  0  0  0  0  0
    7.7199  -13.5365   24.4992 N   0  0  0  0  0  0  0  0  0  0  0  0
    9.0235  -15.2131   23.4399 C   0  0  0  0  0  0  0  0  0  0  0  0
   10.1288  -14.5760   23.5228 O   0  0  0  0  0  0  0  0  0  0  0  0
    8.6001  -15.5116   16.4375 N   0  0  0  0  0  0  0  0  0  0  0  0
   13.6822  -19.8404   27.2229 C   0  0  0  0  0  0  0  0  0  0  0  0
   12.6768  -19.8460   28.2008 N   0  0  0  0  0  0  0  0  0  0  0  0
   12.9042  -20.1792   29.4425 N   0  0  0  0  0  0  0  0  0  0  0  0
   11.3558  -19.4778   27.8407 C   0  0  0  0  0  0  0  0  0  0  0  0
   10.8625  -19.6136   26.4845 C   0  0  0  0  0  0  0  0  0  0  0  0
   10.9561  -18.3267   25.6901 C   0  0  0  0  0  0  0  0  0  0  0  0
   10.3283  -18.5757   24.3502 C   0  0  2  0  0  0  0  0  0  0  0  0
   10.3115  -17.4150   23.4353 N   0  0  0  0  0  0  0  0  0  0  0  0
    9.1047  -16.6303   23.4318 C   0  0  0  0  0  0  0  0  0  0  0  0
   10.9127  -17.6437   22.1009 O   0  0  0  0  0  0  0  0  0  0  0  0
   10.1625  -17.8327   21.1239 O   0  0  0  0  0  0  0  0  0  0  0  0
  2  1  1  6
  2  5  1  0
  2  3  1  0
  4  3  1  0
  5  6  2  0
  7  8  1  0
  8  9  2  0
  8 10  1  0
 10 11  1  0
 11 12  1  0
 12 13  1  0
 14 13  1  6
 15 14  1  0
 15  5  1  0
 16 14  1  0
 17 16  2  0
 18 19  1  0
 19 20  2  0
 19 21  1  0
 21 22  1  0
 22 23  1  0
 23 24  1  0
 25 24  1  1
 25 27  1  0
 25 26  1  0
 26 16  1  0
 27 29  1  0
 28 27  2  0
M  END
$$$$
