PIM.pdb
     RDKit          3D

 24 24  0  0  1  0  0  0  0  0999 V2000
   28.2319  -20.3890  -16.0371 N   0  0  0  0  0  0  0  0  0  0  0  0
   28.6795  -19.3903  -16.9767 C   0  0  0  0  0  0  0  0  0  0  0  0
   27.9119  -18.1351  -16.6921 C   0  0  0  0  0  0  0  0  0  0  0  0
   27.1494  -18.4244  -15.4081 C   0  0  0  0  0  0  0  0  0  0  0  0
   27.7973  -19.6770  -14.8695 C   0  0  1  0  0  0  0  0  0  0  0  0
   26.8652  -20.4820  -14.0330 C   0  0  0  0  0  0  0  0  0  0  0  0
   26.3854  -21.5749  -14.4299 O   0  0  0  0  0  0  0  0  0  0  0  0
   27.1122  -20.2505   -8.5828 C   0  0  0  0  0  0  0  0  0  0  0  0
   26.8008  -20.8576   -9.9243 C   0  0  0  0  0  0  0  0  0  0  0  0
   25.6034  -20.3131  -10.5926 C   0  0  2  0  0  0  0  0  0  0  0  0
   24.3944  -20.7446   -9.7465 C   0  0  0  0  0  0  0  0  0  0  0  0
   25.3643  -20.6740  -12.0191 C   0  0  2  0  0  0  0  0  0  0  0  0
   26.4847  -20.0400  -12.7521 N   0  0  0  0  0  0  0  0  0  0  0  0
   24.0853  -20.1720  -12.5412 C   0  0  0  0  0  0  0  0  0  0  0  0
   24.0256  -18.9448  -12.8845 O   0  0  0  0  0  0  0  0  0  0  0  0
   23.1958  -19.0096  -18.1375 C   0  0  0  0  0  0  0  0  0  0  0  0
   22.2010  -20.4935  -17.7514 S   0  0  0  0  0  0  0  0  0  0  0  0
   21.4042  -20.2841  -16.1160 C   0  0  0  0  0  0  0  0  0  0  0  0
   22.4240  -20.6787  -15.0865 C   0  0  0  0  0  0  0  0  0  0  0  0
   21.9138  -20.5351  -13.6705 C   0  0  2  0  0  0  0  0  0  0  0  0
   22.9168  -20.9279  -12.6999 N   0  0  0  0  0  0  0  0  0  0  0  0
   20.7046  -21.3379  -13.4812 C   0  0  0  0  0  0  0  0  0  0  0  0
   19.6396  -20.9692  -14.0881 O   0  0  0  0  0  0  0  0  0  0  0  0
   20.7118  -22.4476  -12.6811 O   0  0  0  0  0  0  0  0  0  0  0  0
  1  2  1  0
  3  2  1  0
  4  3  1  0
  5  4  1  0
  5  1  1  0
  5  6  1  6
  7  6  2  0
  9  8  1  0
  9 10  1  0
 10 12  1  0
 10 11  1  1
 12 13  1  6
 13  6  1  0
 14 15  2  0
 14 12  1  0
 17 16  1  0
 18 19  1  0
 18 17  1  0
 20 19  1  6
 20 21  1  0
 21 14  1  0
 22 20  1  0
 23 22  2  0
 24 22  1  0
M  END
$$$$
