PIM.pdb
     RDKit          3D

 24 24  0  0  1  0  0  0  0  0999 V2000
   28.2513  -21.4227  -15.6299 N   0  0  0  0  0  0  0  0  0  0  0  0
   28.9493  -20.6254  -16.6086 C   0  0  0  0  0  0  0  0  0  0  0  0
   28.2645  -19.2937  -16.6686 C   0  0  0  0  0  0  0  0  0  0  0  0
   27.2637  -19.3154  -15.5233 C   0  0  0  0  0  0  0  0  0  0  0  0
   27.6861  -20.4997  -14.6878 C   0  0  1  0  0  0  0  0  0  0  0  0
   26.5497  -21.0925  -13.9303 C   0  0  0  0  0  0  0  0  0  0  0  0
   25.9532  -22.1283  -14.3224 O   0  0  0  0  0  0  0  0  0  0  0  0
   26.4299  -20.5669   -8.4804 C   0  0  0  0  0  0  0  0  0  0  0  0
   26.2185  -21.1609   -9.8469 C   0  0  0  0  0  0  0  0  0  0  0  0
   25.0964  -20.5836  -10.6114 C   0  0  2  0  0  0  0  0  0  0  0  0
   23.8197  -20.8792   -9.8074 C   0  0  0  0  0  0  0  0  0  0  0  0
   24.9047  -21.0197  -12.0240 C   0  0  2  0  0  0  0  0  0  0  0  0
   26.0989  -20.5049  -12.7335 N   0  0  0  0  0  0  0  0  0  0  0  0
   23.6886  -20.4738  -12.6430 C   0  0  0  0  0  0  0  0  0  0  0  0
   23.6287  -19.2119  -12.8206 O   0  0  0  0  0  0  0  0  0  0  0  0
   21.7054  -21.2463  -18.1402 C   0  0  0  0  0  0  0  0  0  0  0  0
   20.0118  -21.0325  -17.4869 S   0  0  0  0  0  0  0  0  0  0  0  0
   20.0953  -20.3519  -15.7890 C   0  0  0  0  0  0  0  0  0  0  0  0
   21.2702  -21.0060  -15.1201 C   0  0  0  0  0  0  0  0  0  0  0  0
   21.4456  -20.5685  -13.6836 C   0  0  2  0  0  0  0  0  0  0  0  0
   22.5810  -21.2220  -13.0620 N   0  0  0  0  0  0  0  0  0  0  0  0
   20.2331  -20.8510  -12.9138 C   0  0  0  0  0  0  0  0  0  0  0  0
   20.2556  -21.8408  -12.1025 O   0  0  0  0  0  0  0  0  0  0  0  0
   19.1109  -20.0816  -13.0562 O   0  0  0  0  0  0  0  0  0  0  0  0
  1  2  1  0
  3  2  1  0
  4  3  1  0
  5  4  1  0
  5  1  1  0
  5  6  1  6
  7  6  2  0
  9  8  1  0
  9 10  1  0
 10 12  1  0
 10 11  1  1
 12 13  1  6
 13  6  1  0
 14 15  2  0
 14 12  1  0
 17 16  1  0
 18 19  1  0
 18 17  1  0
 20 19  1  6
 20 21  1  0
 21 14  1  0
 22 20  1  0
 23 22  2  0
 24 22  1  0
M  END
$$$$
