PIM.pdb
     RDKit          3D

 24 24  0  0  1  0  0  0  0  0999 V2000
   28.3030  -21.3640  -15.6192 N   0  0  0  0  0  0  0  0  0  0  0  0
   28.9259  -20.5588  -16.6410 C   0  0  0  0  0  0  0  0  0  0  0  0
   28.1997  -19.2485  -16.6799 C   0  0  0  0  0  0  0  0  0  0  0  0
   27.2600  -19.2853  -15.4843 C   0  0  0  0  0  0  0  0  0  0  0  0
   27.7597  -20.4464  -14.6591 C   0  0  1  0  0  0  0  0  0  0  0  0
   26.6818  -21.0627  -13.8376 C   0  0  0  0  0  0  0  0  0  0  0  0
   26.0709  -22.0989  -14.2055 O   0  0  0  0  0  0  0  0  0  0  0  0
   26.8654  -20.2899   -8.4007 C   0  0  0  0  0  0  0  0  0  0  0  0
   26.6053  -20.9950   -9.7046 C   0  0  0  0  0  0  0  0  0  0  0  0
   25.4085  -20.5352  -10.4346 C   0  0  2  0  0  0  0  0  0  0  0  0
   24.1971  -20.8813   -9.5533 C   0  0  0  0  0  0  0  0  0  0  0  0
   25.1806  -21.0506  -11.8148 C   0  0  2  0  0  0  0  0  0  0  0  0
   26.3056  -20.4980  -12.6046 N   0  0  0  0  0  0  0  0  0  0  0  0
   23.9049  -20.6119  -12.3980 C   0  0  0  0  0  0  0  0  0  0  0  0
   23.7617  -19.3683  -12.6438 O   0  0  0  0  0  0  0  0  0  0  0  0
   20.7971  -23.8042  -16.5498 C   0  0  0  0  0  0  0  0  0  0  0  0
   19.7145  -22.3374  -16.6799 S   0  0  0  0  0  0  0  0  0  0  0  0
   20.0270  -21.2219  -15.2619 C   0  0  0  0  0  0  0  0  0  0  0  0
   21.2904  -21.7017  -14.6068 C   0  0  0  0  0  0  0  0  0  0  0  0
   21.6494  -20.9065  -13.3721 C   0  0  2  0  0  0  0  0  0  0  0  0
   22.8239  -21.4448  -12.7138 N   0  0  0  0  0  0  0  0  0  0  0  0
   20.5254  -20.8868  -12.4346 C   0  0  0  0  0  0  0  0  0  0  0  0
   19.5192  -20.1493  -12.7211 O   0  0  0  0  0  0  0  0  0  0  0  0
   20.5488  -21.6329  -11.2882 O   0  0  0  0  0  0  0  0  0  0  0  0
  1  2  1  0
  3  2  1  0
  4  3  1  0
  5  4  1  0
  5  1  1  0
  5  6  1  6
  7  6  2  0
  9  8  1  0
  9 10  1  0
 10 12  1  0
 10 11  1  1
 12 13  1  6
 13  6  1  0
 14 15  2  0
 14 12  1  0
 17 16  1  0
 18 19  1  0
 18 17  1  0
 20 19  1  6
 20 21  1  0
 21 14  1  0
 22 20  1  0
 23 22  2  0
 24 22  1  0
M  END
$$$$
