PIM.pdb
     RDKit          3D

 24 24  0  0  1  0  0  0  0  0999 V2000
   17.7815  -12.8549    5.3974 N   0  0  0  0  0  0  0  0  0  0  0  0
   18.4798  -11.6018    5.2462 C   0  0  0  0  0  0  0  0  0  0  0  0
   19.9475  -11.9028    5.2817 C   0  0  0  0  0  0  0  0  0  0  0  0
   20.0371  -13.4211    5.2604 C   0  0  0  0  0  0  0  0  0  0  0  0
   18.6497  -13.8662    4.8659 C   0  0  1  0  0  0  0  0  0  0  0  0
   18.3205  -15.2218    5.3860 C   0  0  0  0  0  0  0  0  0  0  0  0
   17.6732  -15.3899    6.4513 O   0  0  0  0  0  0  0  0  0  0  0  0
   17.2320  -19.1632    1.9136 C   0  0  0  0  0  0  0  0  0  0  0  0
   17.2156  -18.3825    3.2002 C   0  0  0  0  0  0  0  0  0  0  0  0
   18.3711  -18.6171    4.0870 C   0  0  2  0  0  0  0  0  0  0  0  0
   18.2755  -20.0786    4.5549 C   0  0  0  0  0  0  0  0  0  0  0  0
   18.5457  -17.7281    5.2709 C   0  0  2  0  0  0  0  0  0  0  0  0
   18.7288  -16.3766    4.6926 N   0  0  0  0  0  0  0  0  0  0  0  0
   19.7127  -18.0756    6.0942 C   0  0  0  0  0  0  0  0  0  0  0  0
   20.8576  -18.0723    5.5314 O   0  0  0  0  0  0  0  0  0  0  0  0
   22.0676  -14.4858   10.0238 C   0  0  0  0  0  0  0  0  0  0  0  0
   23.2495  -15.8714    9.8694 S   0  0  0  0  0  0  0  0  0  0  0  0
   22.6820  -17.0124    8.5545 C   0  0  0  0  0  0  0  0  0  0  0  0
   21.3765  -17.5908    9.0201 C   0  0  0  0  0  0  0  0  0  0  0  0
   20.9038  -18.7399    8.1588 C   0  0  2  0  0  0  0  0  0  0  0  0
   19.6803  -18.4099    7.4540 N   0  0  0  0  0  0  0  0  0  0  0  0
   20.6936  -19.9359    8.9761 C   0  0  0  0  0  0  0  0  0  0  0  0
   19.4949  -20.2220    9.3222 O   0  0  0  0  0  0  0  0  0  0  0  0
   21.7448  -20.7237    9.3584 O   0  0  0  0  0  0  0  0  0  0  0  0
  1  2  1  0
  3  2  1  0
  4  3  1  0
  5  4  1  0
  5  1  1  0
  5  6  1  1
  7  6  2  0
  9  8  1  0
  9 10  1  0
 10 12  1  0
 10 11  1  1
 12 13  1  6
 13  6  1  0
 14 15  2  0
 14 12  1  0
 17 16  1  0
 18 19  1  0
 18 17  1  0
 20 19  1  1
 20 21  1  0
 21 14  1  0
 22 20  1  0
 23 22  2  0
 24 22  1  0
M  END
$$$$
