PIM.pdb
     RDKit          3D

 24 24  0  0  1  0  0  0  0  0999 V2000
   27.4567  -19.0731  -15.5681 N   0  0  0  0  0  0  0  0  0  0  0  0
   28.6815  -18.5688  -16.1393 C   0  0  0  0  0  0  0  0  0  0  0  0
   29.7207  -19.6365  -15.9782 C   0  0  0  0  0  0  0  0  0  0  0  0
   28.9604  -20.8493  -15.4635 C   0  0  0  0  0  0  0  0  0  0  0  0
   27.5103  -20.5011  -15.6975 C   0  0  1  0  0  0  0  0  0  0  0  0
   26.6012  -21.1883  -14.7395 C   0  0  0  0  0  0  0  0  0  0  0  0
   26.4344  -22.4350  -14.7535 O   0  0  0  0  0  0  0  0  0  0  0  0
   25.6568  -20.8350   -8.9459 C   0  0  0  0  0  0  0  0  0  0  0  0
   24.9625  -21.2139  -10.2263 C   0  0  0  0  0  0  0  0  0  0  0  0
   25.6426  -20.7725  -11.4590 C   0  0  2  0  0  0  0  0  0  0  0  0
   25.7828  -19.2447  -11.3597 C   0  0  0  0  0  0  0  0  0  0  0  0
   25.0309  -21.1299  -12.7706 C   0  0  2  0  0  0  0  0  0  0  0  0
   25.8882  -20.4550  -13.7727 N   0  0  0  0  0  0  0  0  0  0  0  0
   23.6439  -20.6650  -12.9134 C   0  0  0  0  0  0  0  0  0  0  0  0
   23.4350  -19.4067  -12.8908 O   0  0  0  0  0  0  0  0  0  0  0  0
   19.8173  -23.8349  -16.2527 C   0  0  0  0  0  0  0  0  0  0  0  0
   18.9350  -24.0242  -14.6633 S   0  0  0  0  0  0  0  0  0  0  0  0
   19.5274  -22.7558  -13.4829 C   0  0  0  0  0  0  0  0  0  0  0  0
   20.4038  -21.8178  -14.2626 C   0  0  0  0  0  0  0  0  0  0  0  0
   21.2255  -20.9097  -13.3761 C   0  0  2  0  0  0  0  0  0  0  0  0
   22.5216  -21.4869  -13.0768 N   0  0  0  0  0  0  0  0  0  0  0  0
   20.5106  -20.6322  -12.1294 C   0  0  0  0  0  0  0  0  0  0  0  0
   20.9217  -21.2072  -11.0623 O   0  0  0  0  0  0  0  0  0  0  0  0
   19.4367  -19.7850  -12.1047 O   0  0  0  0  0  0  0  0  0  0  0  0
  1  2  1  0
  3  2  1  0
  4  3  1  0
  5  4  1  0
  5  1  1  0
  5  6  1  1
  7  6  2  0
  9  8  1  0
  9 10  1  0
 10 12  1  0
 10 11  1  1
 12 13  1  6
 13  6  1  0
 14 15  2  0
 14 12  1  0
 17 16  1  0
 18 19  1  0
 18 17  1  0
 20 19  1  6
 20 21  1  0
 21 14  1  0
 22 20  1  0
 23 22  2  0
 24 22  1  0
M  END
$$$$
