PIM.pdb
     RDKit          3D

 24 24  0  0  1  0  0  0  0  0999 V2000
   27.3350  -19.2263  -15.0713 N   0  0  0  0  0  0  0  0  0  0  0  0
   28.6726  -19.0095  -15.5656 C   0  0  0  0  0  0  0  0  0  0  0  0
   29.4043  -20.3129  -15.4570 C   0  0  0  0  0  0  0  0  0  0  0  0
   28.3422  -21.3269  -15.0600 C   0  0  0  0  0  0  0  0  0  0  0  0
   27.0374  -20.6097  -15.3089 C   0  0  1  0  0  0  0  0  0  0  0  0
   25.9410  -21.1087  -14.4339 C   0  0  0  0  0  0  0  0  0  0  0  0
   25.4089  -22.2354  -14.6060 O   0  0  0  0  0  0  0  0  0  0  0  0
   26.6447  -20.5286   -9.3087 C   0  0  0  0  0  0  0  0  0  0  0  0
   26.1211  -21.0893  -10.6035 C   0  0  0  0  0  0  0  0  0  0  0  0
   24.8800  -20.4632  -11.0979 C   0  0  2  0  0  0  0  0  0  0  0  0
   23.7853  -20.7859  -10.0677 C   0  0  0  0  0  0  0  0  0  0  0  0
   24.3996  -20.8262  -12.4617 C   0  0  2  0  0  0  0  0  0  0  0  0
   25.4570  -20.3247  -13.3700 N   0  0  0  0  0  0  0  0  0  0  0  0
   23.1133  -20.2067  -12.8110 C   0  0  0  0  0  0  0  0  0  0  0  0
   23.0411  -18.9334  -12.7824 O   0  0  0  0  0  0  0  0  0  0  0  0
   19.9463  -20.6800  -17.9517 C   0  0  0  0  0  0  0  0  0  0  0  0
   18.4541  -20.5539  -16.9039 S   0  0  0  0  0  0  0  0  0  0  0  0
   18.9239  -19.9320  -15.2470 C   0  0  0  0  0  0  0  0  0  0  0  0
   20.2173  -20.6043  -14.8855 C   0  0  0  0  0  0  0  0  0  0  0  0
   20.7487  -20.1681  -13.5390 C   0  0  2  0  0  0  0  0  0  0  0  0
   21.9504  -20.8954  -13.1788 N   0  0  0  0  0  0  0  0  0  0  0  0
   19.7306  -20.3567  -12.5044 C   0  0  0  0  0  0  0  0  0  0  0  0
   18.9477  -19.3769  -12.2486 O   0  0  0  0  0  0  0  0  0  0  0  0
   19.6186  -21.5427  -11.8317 O   0  0  0  0  0  0  0  0  0  0  0  0
  1  2  1  0
  3  2  1  0
  4  3  1  0
  5  4  1  0
  5  1  1  0
  5  6  1  1
  7  6  2  0
  9  8  1  0
  9 10  1  0
 10 12  1  0
 10 11  1  1
 12 13  1  6
 13  6  1  0
 14 15  2  0
 14 12  1  0
 17 16  1  0
 18 19  1  0
 18 17  1  0
 20 19  1  6
 20 21  1  0
 21 14  1  0
 22 20  1  0
 23 22  2  0
 24 22  1  0
M  END
$$$$
