PIM.pdb
     RDKit          3D

 24 24  0  0  1  0  0  0  0  0999 V2000
   27.4377  -18.8606  -15.0505 N   0  0  0  0  0  0  0  0  0  0  0  0
   28.7026  -18.3575  -15.5275 C   0  0  0  0  0  0  0  0  0  0  0  0
   29.7047  -19.4622  -15.3817 C   0  0  0  0  0  0  0  0  0  0  0  0
   28.8885  -20.6819  -14.9818 C   0  0  0  0  0  0  0  0  0  0  0  0
   27.4616  -20.2791  -15.2655 C   0  0  1  0  0  0  0  0  0  0  0  0
   26.4873  -20.9971  -14.3984 C   0  0  0  0  0  0  0  0  0  0  0  0
   26.2914  -22.2357  -14.4968 O   0  0  0  0  0  0  0  0  0  0  0  0
   26.6465  -20.2285   -9.2260 C   0  0  0  0  0  0  0  0  0  0  0  0
   26.3522  -20.8970  -10.5419 C   0  0  0  0  0  0  0  0  0  0  0  0
   25.0857  -20.4892  -11.1793 C   0  0  2  0  0  0  0  0  0  0  0  0
   23.9587  -20.8966  -10.2161 C   0  0  0  0  0  0  0  0  0  0  0  0
   24.7824  -21.0066  -12.5441 C   0  0  2  0  0  0  0  0  0  0  0  0
   25.7427  -20.3035  -13.4262 N   0  0  0  0  0  0  0  0  0  0  0  0
   23.4088  -20.7228  -12.9835 C   0  0  0  0  0  0  0  0  0  0  0  0
   23.0465  -19.5013  -13.0458 O   0  0  0  0  0  0  0  0  0  0  0  0
   19.0967  -24.8577  -15.7466 C   0  0  0  0  0  0  0  0  0  0  0  0
   18.7734  -23.2445  -16.5426 S   0  0  0  0  0  0  0  0  0  0  0  0
   19.2852  -21.8955  -15.4151 C   0  0  0  0  0  0  0  0  0  0  0  0
   20.6337  -22.2750  -14.8737 C   0  0  0  0  0  0  0  0  0  0  0  0
   21.1668  -21.2745  -13.8734 C   0  0  2  0  0  0  0  0  0  0  0  0
   22.4546  -21.6820  -13.3462 N   0  0  0  0  0  0  0  0  0  0  0  0
   20.2176  -21.0995  -12.7730 C   0  0  0  0  0  0  0  0  0  0  0  0
   20.3283  -21.8712  -11.7578 O   0  0  0  0  0  0  0  0  0  0  0  0
   19.2425  -20.1414  -12.8271 O   0  0  0  0  0  0  0  0  0  0  0  0
  1  2  1  0
  3  2  1  0
  4  3  1  0
  5  4  1  0
  5  1  1  0
  5  6  1  1
  7  6  2  0
  9  8  1  0
  9 10  1  0
 10 12  1  0
 10 11  1  1
 12 13  1  6
 13  6  1  0
 14 15  2  0
 14 12  1  0
 17 16  1  0
 18 19  1  0
 18 17  1  0
 20 19  1  6
 20 21  1  0
 21 14  1  0
 22 20  1  0
 23 22  2  0
 24 22  1  0
M  END
$$$$
