PIM.pdb
     RDKit          3D

 24 24  0  0  1  0  0  0  0  0999 V2000
   26.6827  -22.8375  -17.1118 N   0  0  0  0  0  0  0  0  0  0  0  0
   26.7184  -23.2098  -18.5049 C   0  0  0  0  0  0  0  0  0  0  0  0
   27.9427  -22.5846  -19.1017 C   0  0  0  0  0  0  0  0  0  0  0  0
   28.7027  -22.0037  -17.9190 C   0  0  0  0  0  0  0  0  0  0  0  0
   28.0464  -22.6339  -16.7145 C   0  0  1  0  0  0  0  0  0  0  0  0
   28.1579  -21.7822  -15.4984 C   0  0  0  0  0  0  0  0  0  0  0  0
   29.2672  -21.5161  -14.9683 O   0  0  0  0  0  0  0  0  0  0  0  0
   26.5598  -17.1203  -16.1501 C   0  0  0  0  0  0  0  0  0  0  0  0
   27.2283  -18.3432  -15.5821 C   0  0  0  0  0  0  0  0  0  0  0  0
   26.5096  -18.9849  -14.4648 C   0  0  2  0  0  0  0  0  0  0  0  0
   26.3146  -17.9032  -13.3897 C   0  0  0  0  0  0  0  0  0  0  0  0
   27.1098  -20.1994  -13.8426 C   0  0  2  0  0  0  0  0  0  0  0  0
   27.0092  -21.2391  -14.8931 N   0  0  0  0  0  0  0  0  0  0  0  0
   26.4013  -20.6469  -12.6351 C   0  0  0  0  0  0  0  0  0  0  0  0
   25.2928  -21.2590  -12.7905 O   0  0  0  0  0  0  0  0  0  0  0  0
   27.9916  -19.2610   -6.6004 C   0  0  0  0  0  0  0  0  0  0  0  0
   26.7443  -20.5350   -6.1979 S   0  0  0  0  0  0  0  0  0  0  0  0
   25.8025  -20.9641   -7.7085 C   0  0  0  0  0  0  0  0  0  0  0  0
   26.6611  -20.5730   -8.8770 C   0  0  0  0  0  0  0  0  0  0  0  0
   26.0594  -20.9702  -10.2059 C   0  0  2  0  0  0  0  0  0  0  0  0
   26.8396  -20.4625  -11.3176 N   0  0  0  0  0  0  0  0  0  0  0  0
   24.6829  -20.4828  -10.3074 C   0  0  0  0  0  0  0  0  0  0  0  0
   24.4828  -19.3762  -10.9188 O   0  0  0  0  0  0  0  0  0  0  0  0
   23.6425  -21.1874   -9.7662 O   0  0  0  0  0  0  0  0  0  0  0  0
  1  2  1  0
  3  2  1  0
  4  3  1  0
  5  4  1  0
  5  1  1  0
  5  6  1  1
  7  6  2  0
  9  8  1  0
  9 10  1  0
 10 12  1  0
 10 11  1  1
 12 13  1  6
 13  6  1  0
 14 15  2  0
 14 12  1  0
 17 16  1  0
 18 19  1  0
 18 17  1  0
 20 19  1  1
 20 21  1  0
 21 14  1  0
 22 20  1  0
 23 22  2  0
 24 22  1  0
M  END
$$$$
