PIM.pdb
     RDKit          3D

 24 24  0  0  1  0  0  0  0  0999 V2000
   26.0514  -23.8694  -16.9628 N   0  0  0  0  0  0  0  0  0  0  0  0
   25.3465  -25.0652  -17.3550 C   0  0  0  0  0  0  0  0  0  0  0  0
   24.7458  -25.6549  -16.1151 C   0  0  0  0  0  0  0  0  0  0  0  0
   24.9839  -24.6148  -15.0310 C   0  0  0  0  0  0  0  0  0  0  0  0
   25.3846  -23.3745  -15.7926 C   0  0  1  0  0  0  0  0  0  0  0  0
   26.2534  -22.4720  -14.9881 C   0  0  0  0  0  0  0  0  0  0  0  0
   27.4992  -22.6315  -14.9178 O   0  0  0  0  0  0  0  0  0  0  0  0
   26.5151  -17.3808  -15.5362 C   0  0  0  0  0  0  0  0  0  0  0  0
   26.8403  -18.7888  -15.1158 C   0  0  0  0  0  0  0  0  0  0  0  0
   26.3198  -19.1806  -13.7921 C   0  0  2  0  0  0  0  0  0  0  0  0
   26.9490  -18.2187  -12.7710 C   0  0  0  0  0  0  0  0  0  0  0  0
   26.5239  -20.5864  -13.3399 C   0  0  2  0  0  0  0  0  0  0  0  0
   25.7014  -21.3952  -14.2693 N   0  0  0  0  0  0  0  0  0  0  0  0
   26.0851  -20.8239  -11.9573 C   0  0  0  0  0  0  0  0  0  0  0  0
   24.8747  -21.1820  -11.7725 O   0  0  0  0  0  0  0  0  0  0  0  0
   29.3936  -20.3633   -6.2015 C   0  0  0  0  0  0  0  0  0  0  0  0
   27.7755  -19.5688   -5.8996 S   0  0  0  0  0  0  0  0  0  0  0  0
   26.5391  -20.2401   -7.0716 C   0  0  0  0  0  0  0  0  0  0  0  0
   27.1906  -20.2524   -8.4247 C   0  0  0  0  0  0  0  0  0  0  0  0
   26.3113  -20.8608   -9.4936 C   0  0  2  0  0  0  0  0  0  0  0  0
   26.8849  -20.6940  -10.8148 N   0  0  0  0  0  0  0  0  0  0  0  0
   24.9766  -20.2609   -9.4572 C   0  0  0  0  0  0  0  0  0  0  0  0
   24.7893  -19.1764  -10.1108 O   0  0  0  0  0  0  0  0  0  0  0  0
   23.9609  -20.8405   -8.7472 O   0  0  0  0  0  0  0  0  0  0  0  0
  1  2  1  0
  3  2  1  0
  4  3  1  0
  5  4  1  0
  5  1  1  0
  5  6  1  1
  7  6  2  0
  9  8  1  0
  9 10  1  0
 10 12  1  0
 10 11  1  1
 12 13  1  6
 13  6  1  0
 14 15  2  0
 14 12  1  0
 17 16  1  0
 18 19  1  0
 18 17  1  0
 20 19  1  1
 20 21  1  0
 21 14  1  0
 22 20  1  0
 23 22  2  0
 24 22  1  0
M  END
$$$$
