PIM.pdb
     RDKit          3D

 24 24  0  0  1  0  0  0  0  0999 V2000
   28.2656  -21.0903  -15.5535 N   0  0  0  0  0  0  0  0  0  0  0  0
   28.8461  -20.2197  -16.5462 C   0  0  0  0  0  0  0  0  0  0  0  0
   28.1801  -18.8839  -16.4112 C   0  0  0  0  0  0  0  0  0  0  0  0
   27.3327  -18.9936  -15.1527 C   0  0  0  0  0  0  0  0  0  0  0  0
   27.8392  -20.2443  -14.4758 C   0  0  1  0  0  0  0  0  0  0  0  0
   26.7991  -20.8909  -13.6292 C   0  0  0  0  0  0  0  0  0  0  0  0
   26.1427  -21.8891  -14.0228 O   0  0  0  0  0  0  0  0  0  0  0  0
   26.9985  -20.2490   -8.1485 C   0  0  0  0  0  0  0  0  0  0  0  0
   26.7138  -20.9156   -9.4675 C   0  0  0  0  0  0  0  0  0  0  0  0
   25.5507  -20.3788  -10.1996 C   0  0  2  0  0  0  0  0  0  0  0  0
   24.3126  -20.6843   -9.3408 C   0  0  0  0  0  0  0  0  0  0  0  0
   25.3147  -20.8490  -11.5945 C   0  0  2  0  0  0  0  0  0  0  0  0
   26.5119  -20.3992  -12.3421 N   0  0  0  0  0  0  0  0  0  0  0  0
   24.1066  -20.2774  -12.2061 C   0  0  0  0  0  0  0  0  0  0  0  0
   24.2192  -19.1581  -12.8077 O   0  0  0  0  0  0  0  0  0  0  0  0
   23.5328  -20.9684  -17.3889 C   0  0  0  0  0  0  0  0  0  0  0  0
   21.7639  -21.3736  -17.1713 S   0  0  0  0  0  0  0  0  0  0  0  0
   21.1673  -20.6677  -15.5905 C   0  0  0  0  0  0  0  0  0  0  0  0
   22.1926  -21.0151  -14.5496 C   0  0  0  0  0  0  0  0  0  0  0  0
   21.8408  -20.4823  -13.1791 C   0  0  2  0  0  0  0  0  0  0  0  0
   22.8322  -20.8585  -12.1901 N   0  0  0  0  0  0  0  0  0  0  0  0
   20.5239  -20.9699  -12.7660 C   0  0  0  0  0  0  0  0  0  0  0  0
   20.4763  -22.0153  -12.0289 O   0  0  0  0  0  0  0  0  0  0  0  0
   19.3796  -20.3289  -13.1551 O   0  0  0  0  0  0  0  0  0  0  0  0
  1  2  1  0
  3  2  1  0
  4  3  1  0
  5  4  1  0
  5  1  1  0
  5  6  1  6
  7  6  2  0
  9  8  1  0
  9 10  1  0
 10 12  1  0
 10 11  1  1
 12 13  1  6
 13  6  1  0
 14 15  2  0
 14 12  1  0
 17 16  1  0
 18 19  1  0
 18 17  1  0
 20 19  1  6
 20 21  1  0
 21 14  1  0
 22 20  1  0
 23 22  2  0
 24 22  1  0
M  END
$$$$
