PIM.pdb
     RDKit          3D

 24 24  0  0  1  0  0  0  0  0999 V2000
   27.4963  -19.2401  -15.1962 N   0  0  0  0  0  0  0  0  0  0  0  0
   28.7767  -18.8841  -15.7569 C   0  0  0  0  0  0  0  0  0  0  0  0
   29.6615  -20.0887  -15.6471 C   0  0  0  0  0  0  0  0  0  0  0  0
   28.7447  -21.2069  -15.1747 C   0  0  0  0  0  0  0  0  0  0  0  0
   27.3548  -20.6558  -15.3827 C   0  0  1  0  0  0  0  0  0  0  0  0
   26.3633  -21.2514  -14.4452 C   0  0  0  0  0  0  0  0  0  0  0  0
   26.0229  -22.4605  -14.5121 O   0  0  0  0  0  0  0  0  0  0  0  0
   26.7920  -20.3064   -9.2679 C   0  0  0  0  0  0  0  0  0  0  0  0
   26.4169  -20.9799  -10.5605 C   0  0  0  0  0  0  0  0  0  0  0  0
   25.1605  -20.5040  -11.1702 C   0  0  2  0  0  0  0  0  0  0  0  0
   24.0428  -20.7940  -10.1550 C   0  0  0  0  0  0  0  0  0  0  0  0
   24.7719  -21.0460  -12.5034 C   0  0  2  0  0  0  0  0  0  0  0  0
   25.7656  -20.4698  -13.4389 N   0  0  0  0  0  0  0  0  0  0  0  0
   23.4173  -20.6558  -12.9194 C   0  0  0  0  0  0  0  0  0  0  0  0
   23.1592  -19.4094  -13.0052 O   0  0  0  0  0  0  0  0  0  0  0  0
   19.7935  -23.6821  -17.1680 C   0  0  0  0  0  0  0  0  0  0  0  0
   18.4461  -22.8787  -16.2301 S   0  0  0  0  0  0  0  0  0  0  0  0
   19.1381  -21.5279  -15.2058 C   0  0  0  0  0  0  0  0  0  0  0  0
   20.4105  -22.0522  -14.6042 C   0  0  0  0  0  0  0  0  0  0  0  0
   21.1119  -21.0330  -13.7353 C   0  0  2  0  0  0  0  0  0  0  0  0
   22.3761  -21.5378  -13.2359 N   0  0  0  0  0  0  0  0  0  0  0  0
   20.2571  -20.6478  -12.6113 C   0  0  0  0  0  0  0  0  0  0  0  0
   20.3420  -21.3315  -11.5324 O   0  0  0  0  0  0  0  0  0  0  0  0
   19.3945  -19.5906  -12.7099 O   0  0  0  0  0  0  0  0  0  0  0  0
  1  2  1  0
  3  2  1  0
  4  3  1  0
  5  4  1  0
  5  1  1  0
  5  6  1  1
  7  6  2  0
  9  8  1  0
  9 10  1  0
 10 12  1  0
 10 11  1  1
 12 13  1  6
 13  6  1  0
 14 15  2  0
 14 12  1  0
 17 16  1  0
 18 19  1  0
 18 17  1  0
 20 19  1  1
 20 21  1  0
 21 14  1  0
 22 20  1  0
 23 22  2  0
 24 22  1  0
M  END
$$$$
