HAD.pdb
     RDKit          3D

 24 24  0  0  1  0  0  0  0  0999 V2000
   17.8565  -12.6530  -18.0777 N   0  0  0  0  0  0  0  0  0  0  0  0
   17.9865  -11.7171  -16.9782 C   0  0  1  0  0  0  0  0  0  0  0  0
   18.6532  -12.4528  -15.8169 C   0  0  0  0  0  0  0  0  0  0  0  0
   17.7021  -13.4120  -15.1787 C   0  0  0  0  0  0  0  0  0  0  0  0
   16.4067  -13.6286  -15.5923 C   0  0  0  0  0  0  0  0  0  0  0  0
   15.8788  -14.5540  -14.7755 N   0  0  0  0  0  0  0  0  0  0  0  0
   16.7959  -14.9234  -13.8674 C   0  0  0  0  0  0  0  0  0  0  0  0
   17.9096  -14.2157  -14.1255 N   0  0  0  0  0  0  0  0  0  0  0  0
   18.8713  -10.5787  -17.3178 C   0  0  0  0  0  0  0  0  0  0  0  0
   19.7332  -10.7404  -18.1956 O   0  0  0  0  0  0  0  0  0  0  0  0
   19.5694   -7.8712  -18.5157 C   0  0  0  0  0  0  0  0  0  0  0  0
   19.6021   -8.1918  -17.0591 C   0  0  2  0  0  0  0  0  0  0  0  0
   18.7858   -9.3085  -16.6910 N   0  0  0  0  0  0  0  0  0  0  0  0
   19.2704   -6.9612  -16.2937 C   0  0  0  0  0  0  0  0  0  0  0  0
   18.0903   -6.7063  -15.9461 O   0  0  0  0  0  0  0  0  0  0  0  0
   20.2832   -6.0198  -15.9237 N   0  0  0  0  0  0  0  0  0  0  0  0
   20.0589   -4.8943  -15.0793 C   0  0  1  0  0  0  0  0  0  0  0  0
   21.3053   -4.3938  -14.3781 C   0  0  0  0  0  0  0  0  0  0  0  0
   21.7781   -5.3119  -13.3310 C   0  0  0  0  0  0  0  0  0  0  0  0
   21.0330   -6.2055  -12.8926 O   0  0  0  0  0  0  0  0  0  0  0  0
   19.4823   -3.7908  -15.8768 C   0  0  0  0  0  0  0  0  0  0  0  0
   18.9231   -2.7034  -15.2354 O   0  0  0  0  0  0  0  0  0  0  0  0
   23.0543   -5.1805  -12.8334 O   0  0  0  0  0  0  0  0  0  0  0  0
   19.4902   -3.8213  -17.1299 O   0  0  0  0  0  0  0  0  0  0  0  0
  2  1  1  6
  3  2  1  0
  3  4  1  0
  4  8  1  0
  5  4  2  0
  5  6  1  0
  6  7  1  0
  8  7  2  0
  9 10  2  0
  9  2  1  0
 12 11  1  6
 12 13  1  0
 12 14  1  0
 13  9  1  0
 14 16  1  0
 15 14  2  0
 16 17  1  0
 17 21  1  0
 17 18  1  6
 19 18  1  0
 20 19  2  0
 21 24  2  0
 21 22  1  0
 23 19  1  0
M  END
$$$$
