HAD.pdb
     RDKit          3D

 24 24  0  0  1  0  0  0  0  0999 V2000
   17.6329  -10.5364  -18.4189 N   0  0  0  0  0  0  0  0  0  0  0  0
   18.6363  -10.1882  -17.4321 C   0  0  1  0  0  0  0  0  0  0  0  0
   19.5191   -9.0947  -18.0317 C   0  0  0  0  0  0  0  0  0  0  0  0
   20.3334   -9.6298  -19.1641 C   0  0  0  0  0  0  0  0  0  0  0  0
   21.0491  -10.8057  -19.1321 C   0  0  0  0  0  0  0  0  0  0  0  0
   21.6430  -10.9415  -20.3284 N   0  0  0  0  0  0  0  0  0  0  0  0
   21.3251   -9.8944  -21.1062 C   0  0  0  0  0  0  0  0  0  0  0  0
   20.5216   -9.0973  -20.3804 N   0  0  0  0  0  0  0  0  0  0  0  0
   18.0354   -9.6172  -16.2046 C   0  0  0  0  0  0  0  0  0  0  0  0
   17.0562   -8.8640  -16.3202 O   0  0  0  0  0  0  0  0  0  0  0  0
   18.1332  -10.1658  -12.4944 C   0  0  0  0  0  0  0  0  0  0  0  0
   17.9460   -9.3265  -13.7134 C   0  0  2  0  0  0  0  0  0  0  0  0
   18.5211   -9.8862  -14.8987 N   0  0  0  0  0  0  0  0  0  0  0  0
   18.4421   -7.9546  -13.4271 C   0  0  0  0  0  0  0  0  0  0  0  0
   17.9848   -7.2809  -12.4703 O   0  0  0  0  0  0  0  0  0  0  0  0
   19.4600   -7.3491  -14.2309 N   0  0  0  0  0  0  0  0  0  0  0  0
   19.9119   -6.0072  -14.0719 C   0  0  1  0  0  0  0  0  0  0  0  0
   21.3535   -5.8937  -13.6192 C   0  0  0  0  0  0  0  0  0  0  0  0
   21.8371   -4.5049  -13.5991 C   0  0  0  0  0  0  0  0  0  0  0  0
   21.0346   -3.5570  -13.6557 O   0  0  0  0  0  0  0  0  0  0  0  0
   19.7530   -5.2820  -15.3505 C   0  0  0  0  0  0  0  0  0  0  0  0
   19.9498   -3.9159  -15.3907 O   0  0  0  0  0  0  0  0  0  0  0  0
   23.1876   -4.2536  -13.5171 O   0  0  0  0  0  0  0  0  0  0  0  0
   19.4417   -5.8840  -16.4050 O   0  0  0  0  0  0  0  0  0  0  0  0
  2  1  1  6
  3  2  1  0
  3  4  1  0
  4  8  1  0
  5  4  2  0
  5  6  1  0
  6  7  1  0
  8  7  2  0
  9 10  2  0
  9  2  1  0
 12 11  1  1
 12 13  1  0
 12 14  1  0
 13  9  1  0
 14 16  1  0
 15 14  2  0
 16 17  1  0
 17 21  1  0
 17 18  1  6
 19 18  1  0
 20 19  2  0
 21 24  2  0
 21 22  1  0
 23 19  1  0
M  END
$$$$
