HAD.pdb
     RDKit          3D

 24 24  0  0  1  0  0  0  0  0999 V2000
   28.3727  -12.2102  -16.2852 N   0  0  0  0  0  0  0  0  0  0  0  0
   27.1308  -12.1383  -17.0299 C   0  0  1  0  0  0  0  0  0  0  0  0
   26.1875  -13.1996  -16.4655 C   0  0  0  0  0  0  0  0  0  0  0  0
   26.7697  -14.5664  -16.6225 C   0  0  0  0  0  0  0  0  0  0  0  0
   28.0486  -14.8319  -17.0583 C   0  0  0  0  0  0  0  0  0  0  0  0
   28.1965  -16.1661  -17.0654 N   0  0  0  0  0  0  0  0  0  0  0  0
   27.0579  -16.7438  -16.6504 C   0  0  0  0  0  0  0  0  0  0  0  0
   26.1909  -15.7519  -16.3820 N   0  0  0  0  0  0  0  0  0  0  0  0
   26.4505  -10.8345  -16.8533 C   0  0  0  0  0  0  0  0  0  0  0  0
   26.3835  -10.3517  -15.7123 O   0  0  0  0  0  0  0  0  0  0  0  0
   25.0111   -8.0847  -19.0137 C   0  0  0  0  0  0  0  0  0  0  0  0
   25.1964   -8.8537  -17.7490 C   0  0  2  0  0  0  0  0  0  0  0  0
   25.8690  -10.1053  -17.9227 N   0  0  0  0  0  0  0  0  0  0  0  0
   23.8752   -8.9995  -17.0830 C   0  0  0  0  0  0  0  0  0  0  0  0
   23.4152  -10.1300  -16.7848 O   0  0  0  0  0  0  0  0  0  0  0  0
   23.0770   -7.8573  -16.7562 N   0  0  0  0  0  0  0  0  0  0  0  0
   21.8174   -7.9249  -16.0938 C   0  0  1  0  0  0  0  0  0  0  0  0
   21.8866   -8.5159  -14.7003 C   0  0  0  0  0  0  0  0  0  0  0  0
   20.5811   -8.5340  -14.0231 C   0  0  0  0  0  0  0  0  0  0  0  0
   20.5151   -8.5841  -12.7826 O   0  0  0  0  0  0  0  0  0  0  0  0
   21.2344   -6.5687  -16.0103 C   0  0  0  0  0  0  0  0  0  0  0  0
   19.9121   -6.4143  -15.6438 O   0  0  0  0  0  0  0  0  0  0  0  0
   19.4250   -8.4950  -14.7685 O   0  0  0  0  0  0  0  0  0  0  0  0
   21.9186   -5.5501  -16.2665 O   0  0  0  0  0  0  0  0  0  0  0  0
  2  1  1  1
  3  2  1  0
  3  4  1  0
  4  8  1  0
  5  4  2  0
  5  6  1  0
  6  7  1  0
  8  7  2  0
  9 10  2  0
  9  2  1  0
 12 11  1  6
 12 13  1  0
 12 14  1  0
 13  9  1  0
 14 16  1  0
 15 14  2  0
 16 17  1  0
 17 21  1  0
 17 18  1  1
 19 18  1  0
 20 19  2  0
 21 24  2  0
 21 22  1  0
 23 19  1  0
M  END
$$$$
