HAD.pdb
     RDKit          3D

 24 24  0  0  1  0  0  0  0  0999 V2000
   41.3049   -8.7324   -7.2454 N   0  0  0  0  0  0  0  0  0  0  0  0
   40.5141   -8.6765   -8.4592 C   0  0  1  0  0  0  0  0  0  0  0  0
   39.0821   -8.3172   -8.0657 C   0  0  0  0  0  0  0  0  0  0  0  0
   38.4632   -9.4091   -7.2554 C   0  0  0  0  0  0  0  0  0  0  0  0
   39.0938  -10.5811   -6.9019 C   0  0  0  0  0  0  0  0  0  0  0  0
   38.2189  -11.3008   -6.1817 N   0  0  0  0  0  0  0  0  0  0  0  0
   37.0657  -10.6222   -6.0721 C   0  0  0  0  0  0  0  0  0  0  0  0
   37.2286   -9.4638   -6.7349 N   0  0  0  0  0  0  0  0  0  0  0  0
   40.9777   -7.6105   -9.3771 C   0  0  0  0  0  0  0  0  0  0  0  0
   41.7226   -6.7256   -8.9282 O   0  0  0  0  0  0  0  0  0  0  0  0
   41.0353   -6.9663  -13.0916 C   0  0  0  0  0  0  0  0  0  0  0  0
   41.1371   -6.5722  -11.6564 C   0  0  2  0  0  0  0  0  0  0  0  0
   40.6144   -7.5466  -10.7474 N   0  0  0  0  0  0  0  0  0  0  0  0
   40.5126   -5.2340  -11.4852 C   0  0  0  0  0  0  0  0  0  0  0  0
   41.0240   -4.2047  -11.9926 O   0  0  0  0  0  0  0  0  0  0  0  0
   39.3048   -5.0674  -10.7355 N   0  0  0  0  0  0  0  0  0  0  0  0
   38.6758   -3.8106  -10.5012 C   0  0  1  0  0  0  0  0  0  0  0  0
   37.2020   -3.7858  -10.8524 C   0  0  0  0  0  0  0  0  0  0  0  0
   36.9611   -3.8073  -12.3031 C   0  0  0  0  0  0  0  0  0  0  0  0
   37.5404   -3.0001  -13.0504 O   0  0  0  0  0  0  0  0  0  0  0  0
   38.8354   -3.4405   -9.0786 C   0  0  0  0  0  0  0  0  0  0  0  0
   38.4415   -2.1886   -8.6496 O   0  0  0  0  0  0  0  0  0  0  0  0
   36.0880   -4.7277  -12.8363 O   0  0  0  0  0  0  0  0  0  0  0  0
   39.3233   -4.2435   -8.2489 O   0  0  0  0  0  0  0  0  0  0  0  0
  2  1  1  1
  3  2  1  0
  3  4  1  0
  4  8  1  0
  5  4  2  0
  5  6  1  0
  6  7  1  0
  8  7  2  0
  9 10  2  0
  9  2  1  0
 12 11  1  6
 12 13  1  0
 12 14  1  0
 13  9  1  0
 14 16  1  0
 15 14  2  0
 16 17  1  0
 17 21  1  0
 17 18  1  1
 19 18  1  0
 20 19  2  0
 21 24  2  0
 21 22  1  0
 23 19  1  0
M  END
$$$$
