HAD.pdb
     RDKit          3D

 24 24  0  0  1  0  0  0  0  0999 V2000
   18.0816  -11.6615  -16.9510 N   0  0  0  0  0  0  0  0  0  0  0  0
   19.1950  -10.8088  -17.3184 C   0  0  1  0  0  0  0  0  0  0  0  0
   18.6891   -9.8010  -18.3495 C   0  0  0  0  0  0  0  0  0  0  0  0
   18.3991  -10.4728  -19.6519 C   0  0  0  0  0  0  0  0  0  0  0  0
   19.1912  -11.4371  -20.2338 C   0  0  0  0  0  0  0  0  0  0  0  0
   18.6021  -11.7921  -21.3866 N   0  0  0  0  0  0  0  0  0  0  0  0
   17.4718  -11.0856  -21.5466 C   0  0  0  0  0  0  0  0  0  0  0  0
   17.3588  -10.2802  -20.4760 N   0  0  0  0  0  0  0  0  0  0  0  0
   19.6944  -10.0192  -16.1690 C   0  0  0  0  0  0  0  0  0  0  0  0
   18.8719   -9.4111  -15.4667 O   0  0  0  0  0  0  0  0  0  0  0  0
   22.9147   -9.4117  -14.2969 C   0  0  0  0  0  0  0  0  0  0  0  0
   21.5664   -9.0389  -14.8150 C   0  0  2  0  0  0  0  0  0  0  0  0
   21.0679   -9.9206  -15.8265 N   0  0  0  0  0  0  0  0  0  0  0  0
   21.6023   -7.6199  -15.2571 C   0  0  0  0  0  0  0  0  0  0  0  0
   22.0502   -7.2986  -16.3860 O   0  0  0  0  0  0  0  0  0  0  0  0
   21.1277   -6.5658  -14.4131 N   0  0  0  0  0  0  0  0  0  0  0  0
   21.1704   -5.1841  -14.7585 C   0  0  1  0  0  0  0  0  0  0  0  0
   19.8591   -4.4560  -14.5434 C   0  0  0  0  0  0  0  0  0  0  0  0
   18.8124   -4.8754  -15.4878 C   0  0  0  0  0  0  0  0  0  0  0  0
   19.0474   -4.9255  -16.7076 O   0  0  0  0  0  0  0  0  0  0  0  0
   22.2254   -4.5140  -13.9684 C   0  0  0  0  0  0  0  0  0  0  0  0
   22.8341   -5.1893  -12.9291 O   0  0  0  0  0  0  0  0  0  0  0  0
   17.5646   -5.2145  -15.0171 O   0  0  0  0  0  0  0  0  0  0  0  0
   22.5811   -3.3394  -14.2232 O   0  0  0  0  0  0  0  0  0  0  0  0
  2  1  1  1
  3  2  1  0
  3  4  1  0
  4  8  1  0
  5  4  2  0
  5  6  1  0
  6  7  1  0
  8  7  2  0
  9 10  2  0
  9  2  1  0
 12 11  1  6
 12 13  1  0
 12 14  1  0
 13  9  1  0
 14 16  1  0
 15 14  2  0
 16 17  1  0
 17 21  1  0
 17 18  1  1
 19 18  1  0
 20 19  2  0
 21 24  2  0
 21 22  1  0
 23 19  1  0
M  END
$$$$
