HAD.pdb
     RDKit          3D

 24 24  0  0  1  0  0  0  0  0999 V2000
   21.5351  -14.5781  -17.1358 N   0  0  0  0  0  0  0  0  0  0  0  0
   21.8857  -13.2264  -17.5255 C   0  0  1  0  0  0  0  0  0  0  0  0
   20.5883  -12.4324  -17.6705 C   0  0  0  0  0  0  0  0  0  0  0  0
   19.7880  -12.9284  -18.8305 C   0  0  0  0  0  0  0  0  0  0  0  0
   20.1811  -13.9334  -19.6857 C   0  0  0  0  0  0  0  0  0  0  0  0
   19.2021  -14.0897  -20.5908 N   0  0  0  0  0  0  0  0  0  0  0  0
   18.2124  -13.2201  -20.3329 C   0  0  0  0  0  0  0  0  0  0  0  0
   18.5840  -12.5137  -19.2509 N   0  0  0  0  0  0  0  0  0  0  0  0
   22.6861  -12.5375  -16.4869 C   0  0  0  0  0  0  0  0  0  0  0  0
   22.3740  -12.6967  -15.2967 O   0  0  0  0  0  0  0  0  0  0  0  0
   25.9369  -10.6668  -16.1905 C   0  0  0  0  0  0  0  0  0  0  0  0
   24.5431  -11.0043  -15.7800 C   0  0  2  0  0  0  0  0  0  0  0  0
   23.7948  -11.7021  -16.7811 N   0  0  0  0  0  0  0  0  0  0  0  0
   23.8683   -9.7617  -15.3208 C   0  0  0  0  0  0  0  0  0  0  0  0
   24.3775   -9.0311  -14.4346 O   0  0  0  0  0  0  0  0  0  0  0  0
   22.6126   -9.3505  -15.8712 N   0  0  0  0  0  0  0  0  0  0  0  0
   21.8973   -8.1913  -15.4529 C   0  0  1  0  0  0  0  0  0  0  0  0
   20.8724   -7.7056  -16.4577 C   0  0  0  0  0  0  0  0  0  0  0  0
   21.4849   -7.1566  -17.6770 C   0  0  0  0  0  0  0  0  0  0  0  0
   22.6806   -6.8162  -17.6835 O   0  0  0  0  0  0  0  0  0  0  0  0
   21.2156   -8.4722  -14.1713 C   0  0  0  0  0  0  0  0  0  0  0  0
   20.8595   -7.4266  -13.3428 O   0  0  0  0  0  0  0  0  0  0  0  0
   20.7285   -7.0191  -18.8183 O   0  0  0  0  0  0  0  0  0  0  0  0
   20.9525   -9.6460  -13.8186 O   0  0  0  0  0  0  0  0  0  0  0  0
  2  1  1  1
  3  2  1  0
  3  4  1  0
  4  8  1  0
  5  4  2  0
  5  6  1  0
  6  7  1  0
  8  7  2  0
  9 10  2  0
  9  2  1  0
 12 11  1  6
 12 13  1  0
 12 14  1  0
 13  9  1  0
 14 16  1  0
 15 14  2  0
 16 17  1  0
 17 21  1  0
 17 18  1  6
 19 18  1  0
 20 19  2  0
 21 24  2  0
 21 22  1  0
 23 19  1  0
M  END
$$$$
