HAD.pdb
     RDKit          3D

 24 24  0  0  1  0  0  0  0  0999 V2000
   26.0138  -21.4546  -16.7023 N   0  0  0  0  0  0  0  0  0  0  0  0
   24.6844  -21.9007  -17.0703 C   0  0  1  0  0  0  0  0  0  0  0  0
   24.3554  -23.1304  -16.2252 C   0  0  0  0  0  0  0  0  0  0  0  0
   25.3190  -24.2383  -16.5005 C   0  0  0  0  0  0  0  0  0  0  0  0
   26.0178  -24.9313  -15.5375 C   0  0  0  0  0  0  0  0  0  0  0  0
   26.7739  -25.8405  -16.1730 N   0  0  0  0  0  0  0  0  0  0  0  0
   26.5734  -25.7413  -17.4968 C   0  0  0  0  0  0  0  0  0  0  0  0
   25.6791  -24.7551  -17.6844 N   0  0  0  0  0  0  0  0  0  0  0  0
   23.6506  -20.8870  -16.7576 C   0  0  0  0  0  0  0  0  0  0  0  0
   23.7331  -20.2690  -15.6850 O   0  0  0  0  0  0  0  0  0  0  0  0
   20.9113  -19.0226  -18.5337 C   0  0  0  0  0  0  0  0  0  0  0  0
   21.5769  -19.5930  -17.3266 C   0  0  2  0  0  0  0  0  0  0  0  0
   22.5669  -20.5838  -17.6220 N   0  0  0  0  0  0  0  0  0  0  0  0
   20.5295  -20.0879  -16.3949 C   0  0  0  0  0  0  0  0  0  0  0  0
   20.0795  -21.2579  -16.4799 O   0  0  0  0  0  0  0  0  0  0  0  0
   19.9937  -19.2501  -15.3655 N   0  0  0  0  0  0  0  0  0  0  0  0
   19.0175  -19.6728  -14.4176 C   0  0  1  0  0  0  0  0  0  0  0  0
   19.3282  -19.2650  -12.9917 C   0  0  0  0  0  0  0  0  0  0  0  0
   20.1783  -20.2402  -12.2921 C   0  0  0  0  0  0  0  0  0  0  0  0
   20.4762  -21.3192  -12.8330 O   0  0  0  0  0  0  0  0  0  0  0  0
   17.6977  -19.1240  -14.7958 C   0  0  0  0  0  0  0  0  0  0  0  0
   17.6214  -17.8921  -15.4147 O   0  0  0  0  0  0  0  0  0  0  0  0
   20.6468  -19.9555  -11.0299 O   0  0  0  0  0  0  0  0  0  0  0  0
   16.6403  -19.7567  -14.5652 O   0  0  0  0  0  0  0  0  0  0  0  0
  2  1  1  1
  3  2  1  0
  3  4  1  0
  4  8  1  0
  5  4  2  0
  5  6  1  0
  6  7  1  0
  8  7  2  0
  9 10  2  0
  9  2  1  0
 12 11  1  6
 12 13  1  0
 12 14  1  0
 13  9  1  0
 14 16  1  0
 15 14  2  0
 16 17  1  0
 17 21  1  0
 17 18  1  1
 19 18  1  0
 20 19  2  0
 21 24  2  0
 21 22  1  0
 23 19  1  0
M  END
$$$$
