QMG.pdb
     RDKit          3D

 22 21  0  0  1  0  0  0  0  0999 V2000
    9.1177  -12.8037   17.4799 N   0  0  0  0  0  0  0  0  0  0  0  0
    7.9782  -13.6724   17.3224 C   0  0  0  0  0  0  0  0  0  0  0  0
    7.5233  -13.8912   16.1733 O   0  0  0  0  0  0  0  0  0  0  0  0
    7.4011  -14.2656   18.5279 C   0  0  0  0  0  0  0  0  0  0  0  0
    8.2045  -13.8975   19.7379 C   0  0  0  0  0  0  0  0  0  0  0  0
    8.5335  -15.0788   20.5902 C   0  0  2  0  0  0  0  0  0  0  0  0
    7.4462  -16.0370   20.4948 N   0  0  0  0  0  0  0  0  0  0  0  0
    8.6733  -14.5711   21.9916 C   0  0  0  0  0  0  0  0  0  0  0  0
    9.4598  -13.6484   22.2285 O   0  0  0  0  0  0  0  0  0  0  0  0
    7.5159  -11.5324   27.5805 C   0  0  0  0  0  0  0  0  0  0  0  0
    6.3774  -12.0629   26.2556 S   0  0  0  0  0  0  0  0  0  0  0  0
    6.3597  -13.8619   26.1495 C   0  0  0  0  0  0  0  0  0  0  0  0
    6.6545  -14.3491   24.7916 C   0  0  0  0  0  0  0  0  0  0  0  0
    8.0377  -14.6662   24.3942 C   0  0  2  0  0  0  0  0  0  0  0  0
    7.9023  -15.1636   22.9945 N   0  0  0  0  0  0  0  0  0  0  0  0
    8.7615  -15.7200   25.1073 C   0  0  0  0  0  0  0  0  0  0  0  0
    8.8470  -15.7337   26.3522 O   0  0  0  0  0  0  0  0  0  0  0  0
    9.4140  -16.7954   24.4302 N   0  0  0  0  0  0  0  0  0  0  0  0
   10.0757  -17.8734   25.1342 C   0  0  0  0  0  0  0  0  0  0  0  0
   11.5104  -17.5955   25.3583 C   0  0  0  0  0  0  0  0  0  0  0  0
   12.3547  -18.6274   25.7255 O   0  0  0  0  0  0  0  0  0  0  0  0
   11.9341  -16.4127   25.2076 O   0  0  0  0  0  0  0  0  0  0  0  0
  1  2  1  0
  2  3  2  0
  4  5  1  0
  4  2  1  0
  6  8  1  0
  6  5  1  0
  6  7  1  1
  8 15  1  0
  9  8  2  0
 10 11  1  0
 11 12  1  0
 12 13  1  0
 14 13  1  1
 14 16  1  0
 15 14  1  0
 16 17  2  0
 16 18  1  0
 18 19  1  0
 20 21  1  0
 20 19  1  0
 22 20  2  0
M  END
$$$$
