QMG.pdb
     RDKit          3D

 22 21  0  0  1  0  0  0  0  0999 V2000
    9.0301  -12.2257   18.4927 N   0  0  0  0  0  0  0  0  0  0  0  0
    8.0095  -13.0820   17.9421 C   0  0  0  0  0  0  0  0  0  0  0  0
    7.7720  -13.0455   16.7102 O   0  0  0  0  0  0  0  0  0  0  0  0
    7.2919  -13.9651   18.8604 C   0  0  0  0  0  0  0  0  0  0  0  0
    7.7744  -13.7750   20.2662 C   0  0  0  0  0  0  0  0  0  0  0  0
    7.4755  -14.9486   21.1398 C   0  0  2  0  0  0  0  0  0  0  0  0
    6.0658  -15.2744   21.0130 N   0  0  0  0  0  0  0  0  0  0  0  0
    7.8013  -14.5343   22.5411 C   0  0  0  0  0  0  0  0  0  0  0  0
    7.8200  -13.3337   22.8315 O   0  0  0  0  0  0  0  0  0  0  0  0
    6.5303  -11.1412   27.1656 C   0  0  0  0  0  0  0  0  0  0  0  0
    7.4561  -12.6622   26.7628 S   0  0  0  0  0  0  0  0  0  0  0  0
    6.4161  -13.7724   25.7963 C   0  0  0  0  0  0  0  0  0  0  0  0
    7.0652  -15.0681   25.5357 C   0  0  0  0  0  0  0  0  0  0  0  0
    8.3861  -15.1259   24.8849 C   0  0  2  0  0  0  0  0  0  0  0  0
    8.0763  -15.5290   23.4826 N   0  0  0  0  0  0  0  0  0  0  0  0
    9.3716  -16.1008   25.3552 C   0  0  0  0  0  0  0  0  0  0  0  0
    9.1473  -16.8455   26.3311 O   0  0  0  0  0  0  0  0  0  0  0  0
   10.6471  -16.2633   24.7328 N   0  0  0  0  0  0  0  0  0  0  0  0
   11.6301  -17.2151   25.2053 C   0  0  0  0  0  0  0  0  0  0  0  0
   12.7796  -17.3341   24.2831 C   0  0  0  0  0  0  0  0  0  0  0  0
   13.8462  -18.1451   24.6254 O   0  0  0  0  0  0  0  0  0  0  0  0
   12.7598  -16.6869   23.1959 O   0  0  0  0  0  0  0  0  0  0  0  0
  1  2  1  0
  2  3  2  0
  4  5  1  0
  4  2  1  0
  6  8  1  0
  6  5  1  0
  6  7  1  1
  8 15  1  0
  9  8  2  0
 10 11  1  0
 11 12  1  0
 12 13  1  0
 14 13  1  1
 14 16  1  0
 15 14  1  0
 16 17  2  0
 16 18  1  0
 18 19  1  0
 20 21  1  0
 20 19  1  0
 22 20  2  0
M  END
$$$$
