QMG.pdb
     RDKit          3D

 22 21  0  0  1  0  0  0  0  0999 V2000
    7.8176  -17.7113   18.6322 N   0  0  0  0  0  0  0  0  0  0  0  0
    9.0238  -18.5005   18.6520 C   0  0  0  0  0  0  0  0  0  0  0  0
    9.3492  -19.1559   17.6323 O   0  0  0  0  0  0  0  0  0  0  0  0
    9.8209  -18.4969   19.8779 C   0  0  0  0  0  0  0  0  0  0  0  0
    9.1493  -17.6886   20.9459 C   0  0  0  0  0  0  0  0  0  0  0  0
    9.5194  -16.2429   20.8904 C   0  0  2  0  0  0  0  0  0  0  0  0
   10.8758  -16.1302   20.3836 N   0  0  0  0  0  0  0  0  0  0  0  0
    9.4305  -15.7232   22.2917 C   0  0  0  0  0  0  0  0  0  0  0  0
   10.4482  -15.6827   22.9909 O   0  0  0  0  0  0  0  0  0  0  0  0
    6.8197  -11.1823   27.4632 C   0  0  0  0  0  0  0  0  0  0  0  0
    7.5585  -11.9302   25.9706 S   0  0  0  0  0  0  0  0  0  0  0  0
    6.4320  -13.1562   25.2804 C   0  0  0  0  0  0  0  0  0  0  0  0
    6.9655  -13.7886   24.0624 C   0  0  0  0  0  0  0  0  0  0  0  0
    8.1005  -14.7252   24.1411 C   0  0  2  0  0  0  0  0  0  0  0  0
    8.1877  -15.2975   22.7664 N   0  0  0  0  0  0  0  0  0  0  0  0
    8.0107  -15.8823   25.0331 C   0  0  0  0  0  0  0  0  0  0  0  0
    7.0912  -16.7203   24.9343 O   0  0  0  0  0  0  0  0  0  0  0  0
    8.9628  -16.1276   26.0695 N   0  0  0  0  0  0  0  0  0  0  0  0
    9.4630  -17.4520   26.3718 C   0  0  0  0  0  0  0  0  0  0  0  0
   10.5082  -17.4282   27.4173 C   0  0  0  0  0  0  0  0  0  0  0  0
   10.8364  -18.5975   28.0788 O   0  0  0  0  0  0  0  0  0  0  0  0
   11.0810  -16.3318   27.6834 O   0  0  0  0  0  0  0  0  0  0  0  0
  1  2  1  0
  2  3  2  0
  4  5  1  0
  4  2  1  0
  6  8  1  0
  6  5  1  0
  6  7  1  1
  8 15  1  0
  9  8  2  0
 10 11  1  0
 11 12  1  0
 12 13  1  0
 14 13  1  6
 14 16  1  0
 15 14  1  0
 16 17  2  0
 16 18  1  0
 18 19  1  0
 20 21  1  0
 20 19  1  0
 22 20  2  0
M  END
$$$$
