QMG.pdb
     RDKit          3D

 22 21  0  0  1  0  0  0  0  0999 V2000
    6.7840  -17.6113   19.3151 N   0  0  0  0  0  0  0  0  0  0  0  0
    8.0073  -16.9510   18.9336 C   0  0  0  0  0  0  0  0  0  0  0  0
    8.8485  -17.5665   18.2344 O   0  0  0  0  0  0  0  0  0  0  0  0
    8.2095  -15.5754   19.3862 C   0  0  0  0  0  0  0  0  0  0  0  0
    7.0105  -15.0814   20.1368 C   0  0  0  0  0  0  0  0  0  0  0  0
    7.1567  -13.6643   20.5845 C   0  0  2  0  0  0  0  0  0  0  0  0
    7.8653  -12.9234   19.5557 N   0  0  0  0  0  0  0  0  0  0  0  0
    7.9460  -13.6955   21.8562 C   0  0  0  0  0  0  0  0  0  0  0  0
    9.1228  -13.3195   21.8509 O   0  0  0  0  0  0  0  0  0  0  0  0
    6.0322  -10.8150   26.2939 C   0  0  0  0  0  0  0  0  0  0  0  0
    7.0047  -11.8398   27.4502 S   0  0  0  0  0  0  0  0  0  0  0  0
    7.9892  -13.0346   26.5275 C   0  0  0  0  0  0  0  0  0  0  0  0
    7.4344  -13.3098   25.1916 C   0  0  0  0  0  0  0  0  0  0  0  0
    8.1149  -14.2430   24.2764 C   0  0  2  0  0  0  0  0  0  0  0  0
    7.3195  -14.1532   23.0178 N   0  0  0  0  0  0  0  0  0  0  0  0
    8.1501  -15.6686   24.6068 C   0  0  0  0  0  0  0  0  0  0  0  0
    7.4306  -16.1549   25.5030 O   0  0  0  0  0  0  0  0  0  0  0  0
    9.0049  -16.5919   23.9303 N   0  0  0  0  0  0  0  0  0  0  0  0
   10.4487  -16.5027   23.9854 C   0  0  0  0  0  0  0  0  0  0  0  0
   11.0145  -17.2964   25.0971 C   0  0  0  0  0  0  0  0  0  0  0  0
   12.3778  -17.2700   25.3277 O   0  0  0  0  0  0  0  0  0  0  0  0
   10.2329  -17.9849   25.8155 O   0  0  0  0  0  0  0  0  0  0  0  0
  1  2  1  0
  2  3  2  0
  4  5  1  0
  4  2  1  0
  6  8  1  0
  6  5  1  0
  6  7  1  6
  8 15  1  0
  9  8  2  0
 10 11  1  0
 11 12  1  0
 12 13  1  0
 14 13  1  1
 14 16  1  0
 15 14  1  0
 16 17  2  0
 16 18  1  0
 18 19  1  0
 20 21  1  0
 20 19  1  0
 22 20  2  0
M  END
$$$$
