QMG.pdb
     RDKit          3D

 22 21  0  0  1  0  0  0  0  0999 V2000
    9.4610  -13.0660   17.4672 N   0  0  0  0  0  0  0  0  0  0  0  0
    8.0937  -13.4694   17.2536 C   0  0  0  0  0  0  0  0  0  0  0  0
    7.6839  -13.6658   16.0837 O   0  0  0  0  0  0  0  0  0  0  0  0
    7.2396  -13.6335   18.4291 C   0  0  0  0  0  0  0  0  0  0  0  0
    8.0267  -13.4384   19.6891 C   0  0  0  0  0  0  0  0  0  0  0  0
    8.4695  -14.7292   20.2955 C   0  0  2  0  0  0  0  0  0  0  0  0
    7.3905  -15.6937   20.1730 N   0  0  0  0  0  0  0  0  0  0  0  0
    8.7691  -14.4466   21.7348 C   0  0  0  0  0  0  0  0  0  0  0  0
    9.5841  -13.5645   22.0244 O   0  0  0  0  0  0  0  0  0  0  0  0
    6.4896  -11.3240   27.2101 C   0  0  0  0  0  0  0  0  0  0  0  0
    7.5794  -12.3998   26.2162 S   0  0  0  0  0  0  0  0  0  0  0  0
    6.8222  -14.0237   26.0219 C   0  0  0  0  0  0  0  0  0  0  0  0
    6.9976  -14.5683   24.6651 C   0  0  0  0  0  0  0  0  0  0  0  0
    8.3442  -14.8705   24.1484 C   0  0  2  0  0  0  0  0  0  0  0  0
    8.1107  -15.1972   22.7118 N   0  0  0  0  0  0  0  0  0  0  0  0
    9.0753  -16.0177   24.6886 C   0  0  0  0  0  0  0  0  0  0  0  0
    8.6924  -17.1905   24.5006 O   0  0  0  0  0  0  0  0  0  0  0  0
   10.2676  -15.8724   25.4619 N   0  0  0  0  0  0  0  0  0  0  0  0
   11.0655  -17.0036   25.8855 C   0  0  0  0  0  0  0  0  0  0  0  0
   10.6244  -17.5397   27.1909 C   0  0  0  0  0  0  0  0  0  0  0  0
   11.4919  -18.3176   27.9359 O   0  0  0  0  0  0  0  0  0  0  0  0
    9.4565  -17.2722   27.5978 O   0  0  0  0  0  0  0  0  0  0  0  0
  1  2  1  0
  2  3  2  0
  4  5  1  0
  4  2  1  0
  6  8  1  0
  6  5  1  0
  6  7  1  1
  8 15  1  0
  9  8  2  0
 10 11  1  0
 11 12  1  0
 12 13  1  0
 14 13  1  1
 14 16  1  0
 15 14  1  0
 16 17  2  0
 16 18  1  0
 18 19  1  0
 20 21  1  0
 20 19  1  0
 22 20  2  0
M  END
$$$$
