QMG.pdb
     RDKit          3D

 22 21  0  0  1  0  0  0  0  0999 V2000
    7.9389  -12.4946   17.9895 N   0  0  0  0  0  0  0  0  0  0  0  0
    7.7484  -13.7858   17.3774 C   0  0  0  0  0  0  0  0  0  0  0  0
    7.5715  -13.8605   16.1371 O   0  0  0  0  0  0  0  0  0  0  0  0
    7.7727  -14.9622   18.2455 C   0  0  0  0  0  0  0  0  0  0  0  0
    8.0309  -14.5677   19.6677 C   0  0  0  0  0  0  0  0  0  0  0  0
    8.4407  -15.7239   20.5193 C   0  0  2  0  0  0  0  0  0  0  0  0
    7.2884  -16.5855   20.7177 N   0  0  0  0  0  0  0  0  0  0  0  0
    8.9083  -15.1530   21.8218 C   0  0  0  0  0  0  0  0  0  0  0  0
    9.9166  -14.4396   21.8461 O   0  0  0  0  0  0  0  0  0  0  0  0
    6.4638  -11.1382   27.5427 C   0  0  0  0  0  0  0  0  0  0  0  0
    6.1709  -12.6254   26.5252 S   0  0  0  0  0  0  0  0  0  0  0  0
    7.7281  -13.2033   25.8258 C   0  0  0  0  0  0  0  0  0  0  0  0
    7.5529  -14.3768   24.9538 C   0  0  0  0  0  0  0  0  0  0  0  0
    8.7150  -15.0010   24.2967 C   0  0  2  0  0  0  0  0  0  0  0  0
    8.1817  -15.4489   22.9776 N   0  0  0  0  0  0  0  0  0  0  0  0
    9.3159  -16.1953   24.8929 C   0  0  0  0  0  0  0  0  0  0  0  0
    8.8144  -17.3284   24.7454 O   0  0  0  0  0  0  0  0  0  0  0  0
   10.5081  -16.1435   25.6781 N   0  0  0  0  0  0  0  0  0  0  0  0
   11.1569  -17.3317   26.1906 C   0  0  0  0  0  0  0  0  0  0  0  0
   10.5820  -17.7688   27.4808 C   0  0  0  0  0  0  0  0  0  0  0  0
   11.1644  -18.8204   28.1645 O   0  0  0  0  0  0  0  0  0  0  0  0
    9.5646  -17.1662   27.9314 O   0  0  0  0  0  0  0  0  0  0  0  0
  1  2  1  0
  2  3  2  0
  4  5  1  0
  4  2  1  0
  6  8  1  0
  6  5  1  0
  6  7  1  1
  8 15  1  0
  9  8  2  0
 10 11  1  0
 11 12  1  0
 12 13  1  0
 14 13  1  1
 14 16  1  0
 15 14  1  0
 16 17  2  0
 16 18  1  0
 18 19  1  0
 20 21  1  0
 20 19  1  0
 22 20  2  0
M  END
$$$$
