NSG.pdb
     RDKit          3D

 19 18  0  0  1  0  0  0  0  0999 V2000
   26.6312  -21.6902  -10.1446 N   0  0  0  0  0  0  0  0  0  0  0  0
   25.8407  -21.4408  -11.2956 C   0  0  0  0  0  0  0  0  0  0  0  0
   24.9291  -22.2794  -11.5920 O   0  0  0  0  0  0  0  0  0  0  0  0
   25.9665  -20.2976  -12.1958 C   0  0  0  0  0  0  0  0  0  0  0  0
   25.8152  -20.6434  -13.6584 C   0  0  2  0  0  0  0  0  0  0  0  0
   26.8663  -21.5762  -14.0203 N   0  0  0  0  0  0  0  0  0  0  0  0
   25.9062  -19.4066  -14.4880 C   0  0  0  0  0  0  0  0  0  0  0  0
   27.0253  -18.8688  -14.6430 O   0  0  0  0  0  0  0  0  0  0  0  0
   26.1045  -17.2121  -18.0034 O   0  0  0  0  0  0  0  0  0  0  0  0
   25.6290  -18.2568  -17.2105 C   0  0  0  0  0  0  0  0  0  0  0  0
   24.8037  -17.7853  -16.0453 C   0  0  2  0  0  0  0  0  0  0  0  0
   24.7406  -18.8661  -15.0803 N   0  0  0  0  0  0  0  0  0  0  0  0
   23.4076  -17.4378  -16.4191 C   0  0  0  0  0  0  0  0  0  0  0  0
   22.4978  -18.3039  -16.4746 O   0  0  0  0  0  0  0  0  0  0  0  0
   23.0474  -16.1006  -16.7301 N   0  0  0  0  0  0  0  0  0  0  0  0
   21.7039  -15.7836  -17.1590 C   0  0  0  0  0  0  0  0  0  0  0  0
   21.5869  -14.3311  -17.4172 C   0  0  0  0  0  0  0  0  0  0  0  0
   21.9919  -13.7450  -18.6209 O   0  0  0  0  0  0  0  0  0  0  0  0
   21.1031  -13.5805  -16.5213 O   0  0  0  0  0  0  0  0  0  0  0  0
  2  3  2  0
  2  1  1  0
  4  2  1  0
  5  4  1  0
  5  6  1  6
  7  5  1  0
  7  8  2  0
 10  9  1  0
 11 10  1  6
 11 12  1  0
 12  7  1  0
 13 15  1  0
 13 11  1  0
 14 13  2  0
 16 15  1  0
 17 16  1  0
 18 17  1  0
 19 17  2  0
M  END
$$$$
