NSG.pdb
     RDKit          3D

 19 18  0  0  1  0  0  0  0  0999 V2000
   15.7864  -10.9574  -17.4423 N   0  0  0  0  0  0  0  0  0  0  0  0
   16.2249  -11.5586  -16.2348 C   0  0  0  0  0  0  0  0  0  0  0  0
   15.5697  -12.5547  -15.7866 O   0  0  0  0  0  0  0  0  0  0  0  0
   17.3745  -11.1450  -15.4344 C   0  0  0  0  0  0  0  0  0  0  0  0
   18.7106  -11.5057  -16.0395 C   0  0  2  0  0  0  0  0  0  0  0  0
   18.8236  -12.9520  -16.0729 N   0  0  0  0  0  0  0  0  0  0  0  0
   19.8150  -10.9143  -15.2291 C   0  0  0  0  0  0  0  0  0  0  0  0
   20.3968  -11.6369  -14.3895 O   0  0  0  0  0  0  0  0  0  0  0  0
   22.9127   -9.5785  -16.4004 O   0  0  0  0  0  0  0  0  0  0  0  0
   22.5386   -9.7347  -15.0655 C   0  0  0  0  0  0  0  0  0  0  0  0
   21.2976   -8.9655  -14.7062 C   0  0  2  0  0  0  0  0  0  0  0  0
   20.1842   -9.5618  -15.4190 N   0  0  0  0  0  0  0  0  0  0  0  0
   21.3628   -7.5329  -15.0971 C   0  0  0  0  0  0  0  0  0  0  0  0
   21.2135   -7.1603  -16.2887 O   0  0  0  0  0  0  0  0  0  0  0  0
   21.5986   -6.5227  -14.1283 N   0  0  0  0  0  0  0  0  0  0  0  0
   21.7237   -5.1389  -14.5270 C   0  0  0  0  0  0  0  0  0  0  0  0
   20.3814   -4.5326  -14.6709 C   0  0  0  0  0  0  0  0  0  0  0  0
   19.8822   -3.5856  -13.7707 O   0  0  0  0  0  0  0  0  0  0  0  0
   19.6481   -4.8768  -15.6424 O   0  0  0  0  0  0  0  0  0  0  0  0
  2  3  2  0
  2  1  1  0
  4  2  1  0
  5  4  1  0
  5  6  1  1
  7  5  1  0
  7  8  2  0
 10  9  1  0
 11 10  1  6
 11 12  1  0
 12  7  1  0
 13 15  1  0
 13 11  1  0
 14 13  2  0
 16 15  1  0
 17 16  1  0
 18 17  1  0
 19 17  2  0
M  END
$$$$
