NSG.pdb
     RDKit          3D

 19 18  0  0  1  0  0  0  0  0999 V2000
   13.5577   -6.5784   -8.7184 N   0  0  0  0  0  0  0  0  0  0  0  0
   14.9316   -6.5681   -8.3663 C   0  0  0  0  0  0  0  0  0  0  0  0
   15.2853   -5.8946   -7.3446 O   0  0  0  0  0  0  0  0  0  0  0  0
   16.0063   -7.2642   -9.0689 C   0  0  0  0  0  0  0  0  0  0  0  0
   15.5402   -8.1020  -10.2360 C   0  0  2  0  0  0  0  0  0  0  0  0
   14.8518   -9.2692   -9.7169 N   0  0  0  0  0  0  0  0  0  0  0  0
   16.7079   -8.5121  -11.0693 C   0  0  0  0  0  0  0  0  0  0  0  0
   17.0224   -9.7227  -11.1075 O   0  0  0  0  0  0  0  0  0  0  0  0
   18.6421   -8.1375  -15.1854 O   0  0  0  0  0  0  0  0  0  0  0  0
   17.7582   -7.8973  -14.1331 C   0  0  0  0  0  0  0  0  0  0  0  0
   18.4269   -7.9071  -12.7863 C   0  0  2  0  0  0  0  0  0  0  0  0
   17.4340   -7.5390  -11.7954 N   0  0  0  0  0  0  0  0  0  0  0  0
   19.5457   -6.9341  -12.6809 C   0  0  0  0  0  0  0  0  0  0  0  0
   19.3464   -5.7102  -12.4732 O   0  0  0  0  0  0  0  0  0  0  0  0
   20.8944   -7.3567  -12.8122 N   0  0  0  0  0  0  0  0  0  0  0  0
   21.9707   -6.3921  -12.7904 C   0  0  0  0  0  0  0  0  0  0  0  0
   21.9770   -5.6156  -14.0502 C   0  0  0  0  0  0  0  0  0  0  0  0
   22.8853   -4.5798  -14.2921 O   0  0  0  0  0  0  0  0  0  0  0  0
   21.1323   -5.8908  -14.9507 O   0  0  0  0  0  0  0  0  0  0  0  0
  2  3  2  0
  2  1  1  0
  4  2  1  0
  5  4  1  0
  5  6  1  1
  7  5  1  0
  7  8  2  0
 10  9  1  0
 11 10  1  6
 11 12  1  0
 12  7  1  0
 13 15  1  0
 13 11  1  0
 14 13  2  0
 16 15  1  0
 17 16  1  0
 18 17  1  0
 19 17  2  0
M  END
$$$$
