NSG.pdb
     RDKit          3D

 19 18  0  0  1  0  0  0  0  0999 V2000
   16.7404  -11.0036  -19.2991 N   0  0  0  0  0  0  0  0  0  0  0  0
   18.0867  -10.5625  -19.2285 C   0  0  0  0  0  0  0  0  0  0  0  0
   18.8308  -10.7375  -20.2473 O   0  0  0  0  0  0  0  0  0  0  0  0
   18.7221   -9.9147  -18.0840 C   0  0  0  0  0  0  0  0  0  0  0  0
   20.1543  -10.3350  -17.8528 C   0  0  2  0  0  0  0  0  0  0  0  0
   20.1598  -11.7103  -17.3898 N   0  0  0  0  0  0  0  0  0  0  0  0
   20.7925   -9.4414  -16.8427 C   0  0  0  0  0  0  0  0  0  0  0  0
   20.5642   -9.6473  -15.6298 O   0  0  0  0  0  0  0  0  0  0  0  0
   24.5613   -6.9263  -15.6449 O   0  0  0  0  0  0  0  0  0  0  0  0
   23.7939   -7.7561  -16.4627 C   0  0  0  0  0  0  0  0  0  0  0  0
   22.3153   -7.5244  -16.3176 C   0  0  2  0  0  0  0  0  0  0  0  0
   21.6361   -8.3871  -17.2652 N   0  0  0  0  0  0  0  0  0  0  0  0
   21.9096   -6.1259  -16.6160 C   0  0  0  0  0  0  0  0  0  0  0  0
   21.7102   -5.7268  -17.7915 O   0  0  0  0  0  0  0  0  0  0  0  0
   21.7305   -5.1802  -15.5728 N   0  0  0  0  0  0  0  0  0  0  0  0
   21.4291   -3.7998  -15.8778 C   0  0  0  0  0  0  0  0  0  0  0  0
   21.3272   -3.0178  -14.6255 C   0  0  0  0  0  0  0  0  0  0  0  0
   21.4349   -3.6044  -13.3603 O   0  0  0  0  0  0  0  0  0  0  0  0
   21.1352   -1.7692  -14.6898 O   0  0  0  0  0  0  0  0  0  0  0  0
  2  3  2  0
  2  1  1  0
  4  2  1  0
  5  4  1  0
  5  6  1  1
  7  5  1  0
  7  8  2  0
 10  9  1  0
 11 10  1  6
 11 12  1  0
 12  7  1  0
 13 15  1  0
 13 11  1  0
 14 13  2  0
 16 15  1  0
 17 16  1  0
 18 17  1  0
 19 17  2  0
M  END
$$$$
