NSG.pdb
     RDKit          3D

 19 18  0  0  1  0  0  0  0  0999 V2000
   19.9462  -10.8680  -20.9526 N   0  0  0  0  0  0  0  0  0  0  0  0
   20.2672  -11.2902  -19.6370 C   0  0  0  0  0  0  0  0  0  0  0  0
   20.9425  -12.3611  -19.4974 O   0  0  0  0  0  0  0  0  0  0  0  0
   19.8955  -10.6100  -18.3992 C   0  0  0  0  0  0  0  0  0  0  0  0
   21.0355   -9.8799  -17.7291 C   0  0  2  0  0  0  0  0  0  0  0  0
   21.8707  -10.8554  -17.0533 N   0  0  0  0  0  0  0  0  0  0  0  0
   20.5020   -8.8844  -16.7541 C   0  0  0  0  0  0  0  0  0  0  0  0
   19.6907   -8.0224  -17.1597 O   0  0  0  0  0  0  0  0  0  0  0  0
   19.2616   -9.5695  -13.0630 O   0  0  0  0  0  0  0  0  0  0  0  0
   20.3236   -8.6658  -13.1044 C   0  0  0  0  0  0  0  0  0  0  0  0
   20.4484   -7.9616  -14.4271 C   0  0  2  0  0  0  0  0  0  0  0  0
   20.9158   -8.9285  -15.4019 N   0  0  0  0  0  0  0  0  0  0  0  0
   21.4256   -6.8417  -14.4044 C   0  0  0  0  0  0  0  0  0  0  0  0
   22.6608   -7.0329  -14.5407 O   0  0  0  0  0  0  0  0  0  0  0  0
   20.9943   -5.5012  -14.2263 N   0  0  0  0  0  0  0  0  0  0  0  0
   21.9512   -4.4179  -14.2172 C   0  0  0  0  0  0  0  0  0  0  0  0
   21.2433   -3.1210  -14.1330 C   0  0  0  0  0  0  0  0  0  0  0  0
   21.9158   -1.9043  -13.9792 O   0  0  0  0  0  0  0  0  0  0  0  0
   19.9804   -3.1000  -14.2017 O   0  0  0  0  0  0  0  0  0  0  0  0
  2  3  2  0
  2  1  1  0
  4  2  1  0
  5  4  1  0
  5  6  1  1
  7  5  1  0
  7  8  2  0
 10  9  1  0
 11 10  1  1
 11 12  1  0
 12  7  1  0
 13 15  1  0
 13 11  1  0
 14 13  2  0
 16 15  1  0
 17 16  1  0
 18 17  1  0
 19 17  2  0
M  END
$$$$
