NSG.pdb
     RDKit          3D

 19 18  0  0  1  0  0  0  0  0999 V2000
   14.8341  -11.9192  -16.0265 N   0  0  0  0  0  0  0  0  0  0  0  0
   15.6842  -12.4286  -15.0117 C   0  0  0  0  0  0  0  0  0  0  0  0
   15.3311  -13.4948  -14.4110 O   0  0  0  0  0  0  0  0  0  0  0  0
   16.9496  -11.8449  -14.5745 C   0  0  0  0  0  0  0  0  0  0  0  0
   17.3585  -10.6103  -15.3426 C   0  0  2  0  0  0  0  0  0  0  0  0
   17.7892  -11.0161  -16.6676 N   0  0  0  0  0  0  0  0  0  0  0  0
   18.4624   -9.9058  -14.6276 C   0  0  0  0  0  0  0  0  0  0  0  0
   18.2646   -9.5138  -13.4559 O   0  0  0  0  0  0  0  0  0  0  0  0
   22.3275   -9.6516  -16.3840 O   0  0  0  0  0  0  0  0  0  0  0  0
   22.0743   -9.6987  -15.0129 C   0  0  0  0  0  0  0  0  0  0  0  0
   20.7985   -9.0045  -14.6239 C   0  0  2  0  0  0  0  0  0  0  0  0
   19.7017   -9.6937  -15.2762 N   0  0  0  0  0  0  0  0  0  0  0  0
   20.7512   -7.5822  -15.0533 C   0  0  0  0  0  0  0  0  0  0  0  0
   20.2898   -7.2392  -16.1715 O   0  0  0  0  0  0  0  0  0  0  0  0
   21.2306   -6.5486  -14.2069 N   0  0  0  0  0  0  0  0  0  0  0  0
   21.2115   -5.1719  -14.6470 C   0  0  0  0  0  0  0  0  0  0  0  0
   21.6931   -4.2891  -13.5612 C   0  0  0  0  0  0  0  0  0  0  0  0
   21.9525   -4.7572  -12.2690 O   0  0  0  0  0  0  0  0  0  0  0  0
   21.8810   -3.0612  -13.7998 O   0  0  0  0  0  0  0  0  0  0  0  0
  2  3  2  0
  2  1  1  0
  4  2  1  0
  5  4  1  0
  5  6  1  6
  7  5  1  0
  7  8  2  0
 10  9  1  0
 11 10  1  6
 11 12  1  0
 12  7  1  0
 13 15  1  0
 13 11  1  0
 14 13  2  0
 16 15  1  0
 17 16  1  0
 18 17  1  0
 19 17  2  0
M  END
$$$$
