NSG.pdb
     RDKit          3D

 19 18  0  0  1  0  0  0  0  0999 V2000
   18.9193  -12.6044  -17.4702 N   0  0  0  0  0  0  0  0  0  0  0  0
   18.6304  -11.3483  -18.0625 C   0  0  0  0  0  0  0  0  0  0  0  0
   18.3552  -11.3190  -19.3058 O   0  0  0  0  0  0  0  0  0  0  0  0
   18.6157  -10.0571  -17.3802 C   0  0  0  0  0  0  0  0  0  0  0  0
   18.9648  -10.1299  -15.9124 C   0  0  2  0  0  0  0  0  0  0  0  0
   17.8861  -10.8073  -15.2173 N   0  0  0  0  0  0  0  0  0  0  0  0
   19.1576   -8.7557  -15.3642 C   0  0  0  0  0  0  0  0  0  0  0  0
   18.1487   -8.0976  -15.0255 O   0  0  0  0  0  0  0  0  0  0  0  0
   22.4174   -5.8087  -13.3215 O   0  0  0  0  0  0  0  0  0  0  0  0
   22.0489   -7.0085  -13.9307 C   0  0  0  0  0  0  0  0  0  0  0  0
   20.7059   -6.9409  -14.6037 C   0  0  2  0  0  0  0  0  0  0  0  0
   20.4619   -8.2228  -15.2366 N   0  0  0  0  0  0  0  0  0  0  0  0
   20.6327   -5.8991  -15.6614 C   0  0  0  0  0  0  0  0  0  0  0  0
   21.0036   -6.1216  -16.8420 O   0  0  0  0  0  0  0  0  0  0  0  0
   20.1357   -4.6011  -15.3734 N   0  0  0  0  0  0  0  0  0  0  0  0
   20.1849   -3.5582  -16.3731 C   0  0  0  0  0  0  0  0  0  0  0  0
   19.5540   -2.3269  -15.8480 C   0  0  0  0  0  0  0  0  0  0  0  0
   19.5727   -1.1146  -16.5455 O   0  0  0  0  0  0  0  0  0  0  0  0
   18.9720   -2.3603  -14.7254 O   0  0  0  0  0  0  0  0  0  0  0  0
  2  3  2  0
  2  1  1  0
  4  2  1  0
  5  4  1  0
  5  6  1  1
  7  5  1  0
  7  8  2  0
 10  9  1  0
 11 10  1  6
 11 12  1  0
 12  7  1  0
 13 15  1  0
 13 11  1  0
 14 13  2  0
 16 15  1  0
 17 16  1  0
 18 17  1  0
 19 17  2  0
M  END
$$$$
