LIN.pdb
     RDKit          3D

 25 24  0  0  1  0  0  0  0  0999 V2000
   18.0105  -12.6153  -19.5508 C   0  0  0  0  0  0  0  0  0  0  0  0
   16.7966  -12.2653  -18.7401 C   0  0  2  0  0  0  0  0  0  0  0  0
   15.6454  -11.8126  -19.5993 C   0  0  0  0  0  0  0  0  0  0  0  0
   17.1204  -11.1398  -17.7591 C   0  0  0  0  0  0  0  0  0  0  0  0
   18.2340  -11.6471  -16.8582 C   0  0  2  0  0  0  0  0  0  0  0  0
   17.7513  -12.7306  -16.0218 N   0  0  0  0  0  0  0  0  0  0  0  0
   18.7381  -10.5743  -15.9694 C   0  0  0  0  0  0  0  0  0  0  0  0
   18.0904  -10.2194  -14.9349 O   0  0  0  0  0  0  0  0  0  0  0  0
   23.5947  -10.6222  -14.1911 C   0  0  0  0  0  0  0  0  0  0  0  0
   22.0787  -10.3652  -14.2666 C   0  0  0  0  0  0  0  0  0  0  0  0
   21.8261   -9.0874  -14.9974 C   0  0  2  0  0  0  0  0  0  0  0  0
   22.5723   -7.9134  -14.3781 C   0  0  0  0  0  0  0  0  0  0  0  0
   20.4120   -8.7808  -15.3341 C   0  0  2  0  0  0  0  0  0  0  0  0
   19.9516   -9.8787  -16.1991 N   0  0  0  0  0  0  0  0  0  0  0  0
   20.1006   -7.5158  -15.9477 C   0  0  0  0  0  0  0  0  0  0  0  0
   20.2522   -7.4254  -17.2045 O   0  0  0  0  0  0  0  0  0  0  0  0
   17.7861   -3.0346  -17.3653 N   0  0  0  0  0  0  0  0  0  0  0  0
   17.3595   -4.3478  -17.6093 C   0  0  0  0  0  0  0  0  0  0  0  0
   16.4107   -4.5396  -18.4027 O   0  0  0  0  0  0  0  0  0  0  0  0
   17.9951   -5.4919  -16.9614 C   0  0  0  0  0  0  0  0  0  0  0  0
   19.1002   -5.1983  -16.0126 C   0  0  2  0  0  0  0  0  0  0  0  0
   19.6392   -6.3437  -15.3169 N   0  0  0  0  0  0  0  0  0  0  0  0
   18.6879   -4.1367  -15.0703 C   0  0  0  0  0  0  0  0  0  0  0  0
   18.9803   -2.7917  -15.2191 O   0  0  0  0  0  0  0  0  0  0  0  0
   18.0168   -4.5005  -14.0567 O   0  0  0  0  0  0  0  0  0  0  0  0
  2  1  1  6
  2  3  1  0
  4  2  1  0
  4  5  1  0
  5  7  1  0
  5  6  1  1
  7  8  2  0
  9 10  1  0
 10 11  1  0
 11 12  1  1
 13 11  1  0
 13 14  1  6
 14  7  1  0
 15 16  2  0
 15 13  1  0
 18 17  1  0
 18 20  1  0
 19 18  2  0
 21 20  1  1
 21 22  1  0
 22 15  1  0
 23 21  1  0
 23 24  1  0
 25 23  2  0
M  END
$$$$
