LIN.pdb
     RDKit          3D

 25 24  0  0  1  0  0  0  0  0999 V2000
   28.9252  -18.1596  -15.7662 C   0  0  0  0  0  0  0  0  0  0  0  0
   28.2691  -18.9929  -16.8284 C   0  0  2  0  0  0  0  0  0  0  0  0
   27.8320  -18.1708  -18.0123 C   0  0  0  0  0  0  0  0  0  0  0  0
   27.0354  -19.6958  -16.2646 C   0  0  0  0  0  0  0  0  0  0  0  0
   27.4976  -20.4993  -15.0606 C   0  0  2  0  0  0  0  0  0  0  0  0
   28.3007  -21.6303  -15.4878 N   0  0  0  0  0  0  0  0  0  0  0  0
   26.3465  -21.0228  -14.2887 C   0  0  0  0  0  0  0  0  0  0  0  0
   25.8118  -22.1383  -14.5811 O   0  0  0  0  0  0  0  0  0  0  0  0
   26.4990  -20.6228   -9.0089 C   0  0  0  0  0  0  0  0  0  0  0  0
   26.2404  -21.1885  -10.4172 C   0  0  0  0  0  0  0  0  0  0  0  0
   24.9920  -20.5867  -10.9739 C   0  0  2  0  0  0  0  0  0  0  0  0
   23.8064  -20.7473  -10.0320 C   0  0  0  0  0  0  0  0  0  0  0  0
   24.6728  -20.9051  -12.3895 C   0  0  2  0  0  0  0  0  0  0  0  0
   25.7674  -20.3364  -13.1920 N   0  0  0  0  0  0  0  0  0  0  0  0
   23.4057  -20.4848  -12.9293 C   0  0  0  0  0  0  0  0  0  0  0  0
   23.2290  -19.2394  -13.0979 O   0  0  0  0  0  0  0  0  0  0  0  0
   21.9029  -20.8340  -16.5715 N   0  0  0  0  0  0  0  0  0  0  0  0
   20.9213  -21.7384  -16.1419 C   0  0  0  0  0  0  0  0  0  0  0  0
   20.5058  -22.6072  -16.9413 O   0  0  0  0  0  0  0  0  0  0  0  0
   20.3752  -21.6896  -14.7884 C   0  0  0  0  0  0  0  0  0  0  0  0
   21.0632  -20.7990  -13.8181 C   0  0  2  0  0  0  0  0  0  0  0  0
   22.3169  -21.2973  -13.3018 N   0  0  0  0  0  0  0  0  0  0  0  0
   20.1366  -20.4295  -12.7273 C   0  0  0  0  0  0  0  0  0  0  0  0
   19.2831  -19.3397  -12.7516 O   0  0  0  0  0  0  0  0  0  0  0  0
   20.1344  -21.1758  -11.7011 O   0  0  0  0  0  0  0  0  0  0  0  0
  2  1  1  1
  2  3  1  0
  4  2  1  0
  4  5  1  0
  5  7  1  0
  5  6  1  6
  7  8  2  0
  9 10  1  0
 10 11  1  0
 11 12  1  1
 13 11  1  0
 13 14  1  6
 14  7  1  0
 15 16  2  0
 15 13  1  0
 18 17  1  0
 18 20  1  0
 19 18  2  0
 21 20  1  1
 21 22  1  0
 22 15  1  0
 23 21  1  0
 23 24  1  0
 25 23  2  0
M  END
$$$$
