LIN.pdb
     RDKit          3D

 25 24  0  0  1  0  0  0  0  0999 V2000
   23.7263  -14.8922  -14.5147 C   0  0  0  0  0  0  0  0  0  0  0  0
   24.3831  -14.7039  -15.8513 C   0  0  2  0  0  0  0  0  0  0  0  0
   25.8732  -14.5174  -15.7356 C   0  0  0  0  0  0  0  0  0  0  0  0
   23.8101  -13.4752  -16.5555 C   0  0  0  0  0  0  0  0  0  0  0  0
   22.3071  -13.6798  -16.6457 C   0  0  2  0  0  0  0  0  0  0  0  0
   21.9963  -14.7083  -17.6215 N   0  0  0  0  0  0  0  0  0  0  0  0
   21.6184  -12.4351  -17.0596 C   0  0  0  0  0  0  0  0  0  0  0  0
   21.8782  -11.8792  -18.1727 O   0  0  0  0  0  0  0  0  0  0  0  0
   16.3260  -10.2312  -17.7572 C   0  0  0  0  0  0  0  0  0  0  0  0
   17.7210   -9.7008  -17.3796 C   0  0  0  0  0  0  0  0  0  0  0  0
   18.6168  -10.8487  -17.0468 C   0  0  2  0  0  0  0  0  0  0  0  0
   17.9498  -11.8456  -16.1088 C   0  0  0  0  0  0  0  0  0  0  0  0
   20.0127  -10.5150  -16.6632 C   0  0  2  0  0  0  0  0  0  0  0  0
   20.6408  -11.7849  -16.2653 N   0  0  0  0  0  0  0  0  0  0  0  0
   20.2366   -9.5223  -15.6444 C   0  0  0  0  0  0  0  0  0  0  0  0
   19.9895   -9.8535  -14.4444 O   0  0  0  0  0  0  0  0  0  0  0  0
   22.4791   -4.0478  -14.1468 N   0  0  0  0  0  0  0  0  0  0  0  0
   22.3659   -5.4121  -13.8437 C   0  0  0  0  0  0  0  0  0  0  0  0
   22.4642   -5.7784  -12.6509 O   0  0  0  0  0  0  0  0  0  0  0  0
   22.1369   -6.4109  -14.8842 C   0  0  0  0  0  0  0  0  0  0  0  0
   20.9352   -7.2722  -14.7358 C   0  0  2  0  0  0  0  0  0  0  0  0
   20.7052   -8.2047  -15.8148 N   0  0  0  0  0  0  0  0  0  0  0  0
   19.7436   -6.4363  -14.4788 C   0  0  0  0  0  0  0  0  0  0  0  0
   19.3076   -6.0477  -13.2236 O   0  0  0  0  0  0  0  0  0  0  0  0
   19.0833   -6.0544  -15.4928 O   0  0  0  0  0  0  0  0  0  0  0  0
  2  1  1  1
  2  3  1  0
  4  2  1  0
  4  5  1  0
  5  7  1  0
  5  6  1  6
  7  8  2  0
  9 10  1  0
 10 11  1  0
 11 12  1  1
 13 11  1  0
 13 14  1  1
 14  7  1  0
 15 16  2  0
 15 13  1  0
 18 17  1  0
 18 20  1  0
 19 18  2  0
 21 20  1  6
 21 22  1  0
 22 15  1  0
 23 21  1  0
 23 24  1  0
 25 23  2  0
M  END
$$$$
