LIN.pdb
     RDKit          3D

 25 24  0  0  1  0  0  0  0  0999 V2000
   24.2802  -21.7638  -10.5306 C   0  0  0  0  0  0  0  0  0  0  0  0
   25.4747  -21.3284   -9.7326 C   0  0  2  0  0  0  0  0  0  0  0  0
   25.0906  -20.7540   -8.3944 C   0  0  0  0  0  0  0  0  0  0  0  0
   26.2602  -20.2613  -10.4929 C   0  0  0  0  0  0  0  0  0  0  0  0
   26.5771  -20.8390  -11.8621 C   0  0  2  0  0  0  0  0  0  0  0  0
   27.8818  -21.4747  -11.8511 N   0  0  0  0  0  0  0  0  0  0  0  0
   26.5928  -19.7831  -12.9013 C   0  0  0  0  0  0  0  0  0  0  0  0
   27.2857  -18.7277  -12.7554 O   0  0  0  0  0  0  0  0  0  0  0  0
   29.0603  -20.1289  -16.9020 C   0  0  0  0  0  0  0  0  0  0  0  0
   28.2320  -19.6084  -15.7133 C   0  0  0  0  0  0  0  0  0  0  0  0
   26.8473  -19.2892  -16.1730 C   0  0  2  0  0  0  0  0  0  0  0  0
   26.8424  -18.4409  -17.4376 C   0  0  0  0  0  0  0  0  0  0  0  0
   25.8939  -18.8156  -15.1369 C   0  0  2  0  0  0  0  0  0  0  0  0
   25.8542  -19.8673  -14.1083 N   0  0  0  0  0  0  0  0  0  0  0  0
   24.5524  -18.4703  -15.5304 C   0  0  0  0  0  0  0  0  0  0  0  0
   23.8285  -19.3976  -16.0067 O   0  0  0  0  0  0  0  0  0  0  0  0
   20.8833  -14.6342  -17.8648 N   0  0  0  0  0  0  0  0  0  0  0  0
   21.4596  -15.9021  -18.0270 C   0  0  0  0  0  0  0  0  0  0  0  0
   20.8691  -16.7508  -18.7324 O   0  0  0  0  0  0  0  0  0  0  0  0
   22.7280  -16.2531  -17.3940 C   0  0  0  0  0  0  0  0  0  0  0  0
   22.6565  -16.8860  -16.0515 C   0  0  2  0  0  0  0  0  0  0  0  0
   23.9300  -17.2090  -15.4511 N   0  0  0  0  0  0  0  0  0  0  0  0
   21.7639  -18.0633  -16.0954 C   0  0  0  0  0  0  0  0  0  0  0  0
   21.9117  -19.1343  -16.9602 O   0  0  0  0  0  0  0  0  0  0  0  0
   20.7971  -18.0792  -15.2738 O   0  0  0  0  0  0  0  0  0  0  0  0
  2  1  1  6
  2  3  1  0
  4  2  1  0
  4  5  1  0
  5  7  1  0
  5  6  1  1
  7  8  2  0
  9 10  1  0
 10 11  1  0
 11 12  1  6
 13 11  1  0
 13 14  1  1
 14  7  1  0
 15 16  2  0
 15 13  1  0
 18 17  1  0
 18 20  1  0
 19 18  2  0
 21 20  1  6
 21 22  1  0
 22 15  1  0
 23 21  1  0
 23 24  1  0
 25 23  2  0
M  END
$$$$
