LIN.pdb
     RDKit          3D

 25 24  0  0  1  0  0  0  0  0999 V2000
   20.0253  -22.8223  -15.3222 C   0  0  0  0  0  0  0  0  0  0  0  0
   19.2718  -21.6419  -14.7817 C   0  0  2  0  0  0  0  0  0  0  0  0
   18.3322  -21.0483  -15.7981 C   0  0  0  0  0  0  0  0  0  0  0  0
   20.2435  -20.5468  -14.3455 C   0  0  0  0  0  0  0  0  0  0  0  0
   21.2295  -21.1895  -13.3844 C   0  0  2  0  0  0  0  0  0  0  0  0
   20.6514  -21.2811  -12.0562 N   0  0  0  0  0  0  0  0  0  0  0  0
   22.4780  -20.3981  -13.2850 C   0  0  0  0  0  0  0  0  0  0  0  0
   22.4850  -19.2462  -12.7476 O   0  0  0  0  0  0  0  0  0  0  0  0
   26.4874  -21.6518  -10.5208 C   0  0  0  0  0  0  0  0  0  0  0  0
   25.4502  -20.8408  -11.3188 C   0  0  0  0  0  0  0  0  0  0  0  0
   25.8616  -20.7812  -12.7534 C   0  0  2  0  0  0  0  0  0  0  0  0
   27.3291  -20.4085  -12.9159 C   0  0  0  0  0  0  0  0  0  0  0  0
   24.9572  -20.0477  -13.6759 C   0  0  2  0  0  0  0  0  0  0  0  0
   23.7296  -20.8538  -13.7698 N   0  0  0  0  0  0  0  0  0  0  0  0
   25.4261  -19.7212  -14.9977 C   0  0  0  0  0  0  0  0  0  0  0  0
   25.5976  -20.6824  -15.8086 O   0  0  0  0  0  0  0  0  0  0  0  0
   27.2638  -17.4996  -19.4299 N   0  0  0  0  0  0  0  0  0  0  0  0
   26.8097  -16.4802  -18.5809 C   0  0  0  0  0  0  0  0  0  0  0  0
   26.8894  -15.2914  -18.9642 O   0  0  0  0  0  0  0  0  0  0  0  0
   26.2481  -16.7735  -17.2651 C   0  0  0  0  0  0  0  0  0  0  0  0
   26.2297  -18.1986  -16.8448 C   0  0  2  0  0  0  0  0  0  0  0  0
   25.7235  -18.4449  -15.5145 N   0  0  0  0  0  0  0  0  0  0  0  0
   27.5672  -18.7983  -17.0353 C   0  0  0  0  0  0  0  0  0  0  0  0
   27.8870  -19.7185  -18.0189 O   0  0  0  0  0  0  0  0  0  0  0  0
   28.4781  -18.4321  -16.2313 O   0  0  0  0  0  0  0  0  0  0  0  0
  2  1  1  6
  2  3  1  0
  4  2  1  0
  4  5  1  0
  5  7  1  0
  5  6  1  1
  7  8  2  0
  9 10  1  0
 10 11  1  0
 11 12  1  1
 13 11  1  0
 13 14  1  6
 14  7  1  0
 15 16  2  0
 15 13  1  0
 18 17  1  0
 18 20  1  0
 19 18  2  0
 21 20  1  1
 21 22  1  0
 22 15  1  0
 23 21  1  0
 23 24  1  0
 25 23  2  0
M  END
$$$$
