LIN.pdb
     RDKit          3D

 25 24  0  0  1  0  0  0  0  0999 V2000
   28.6748  -17.5211  -15.3610 C   0  0  0  0  0  0  0  0  0  0  0  0
   28.1130  -18.3860  -16.4518 C   0  0  2  0  0  0  0  0  0  0  0  0
   27.5009  -17.5776  -17.5654 C   0  0  0  0  0  0  0  0  0  0  0  0
   27.0314  -19.3089  -15.8930 C   0  0  0  0  0  0  0  0  0  0  0  0
   27.6683  -20.1013  -14.7637 C   0  0  2  0  0  0  0  0  0  0  0  0
   28.5641  -21.1101  -15.2989 N   0  0  0  0  0  0  0  0  0  0  0  0
   26.6435  -20.7895  -13.9445 C   0  0  0  0  0  0  0  0  0  0  0  0
   26.1621  -21.9108  -14.3001 O   0  0  0  0  0  0  0  0  0  0  0  0
   26.7899  -20.5540   -8.5725 C   0  0  0  0  0  0  0  0  0  0  0  0
   26.5775  -21.1409   -9.9799 C   0  0  0  0  0  0  0  0  0  0  0  0
   25.2992  -20.6191  -10.5493 C   0  0  2  0  0  0  0  0  0  0  0  0
   24.1071  -20.9092   -9.6474 C   0  0  0  0  0  0  0  0  0  0  0  0
   25.0422  -20.9072  -11.9838 C   0  0  2  0  0  0  0  0  0  0  0  0
   26.1340  -20.2629  -12.7310 N   0  0  0  0  0  0  0  0  0  0  0  0
   23.7748  -20.5298  -12.5539 C   0  0  0  0  0  0  0  0  0  0  0  0
   23.5920  -19.2989  -12.8034 O   0  0  0  0  0  0  0  0  0  0  0  0
   19.1280  -20.3137  -15.0619 N   0  0  0  0  0  0  0  0  0  0  0  0
   20.1003  -21.1373  -15.6470 C   0  0  0  0  0  0  0  0  0  0  0  0
   19.9220  -21.5503  -16.8150 O   0  0  0  0  0  0  0  0  0  0  0  0
   21.3112  -21.5222  -14.9272 C   0  0  0  0  0  0  0  0  0  0  0  0
   21.5014  -20.9409  -13.5730 C   0  0  2  0  0  0  0  0  0  0  0  0
   22.6917  -21.3708  -12.8766 N   0  0  0  0  0  0  0  0  0  0  0  0
   20.2883  -21.1562  -12.7564 C   0  0  0  0  0  0  0  0  0  0  0  0
   19.0260  -20.6881  -13.0791 O   0  0  0  0  0  0  0  0  0  0  0  0
   20.4304  -21.8212  -11.6851 O   0  0  0  0  0  0  0  0  0  0  0  0
  2  1  1  1
  2  3  1  0
  4  2  1  0
  4  5  1  0
  5  7  1  0
  5  6  1  6
  7  8  2  0
  9 10  1  0
 10 11  1  0
 11 12  1  1
 13 11  1  0
 13 14  1  6
 14  7  1  0
 15 16  2  0
 15 13  1  0
 18 17  1  0
 18 20  1  0
 19 18  2  0
 21 20  1  6
 21 22  1  0
 22 15  1  0
 23 21  1  0
 23 24  1  0
 25 23  2  0
M  END
$$$$
