SAK.pdb
     RDKit          3D

 21 20  0  0  1  0  0  0  0  0999 V2000
    5.8926  -17.9408   20.1501 O   0  0  0  0  0  0  0  0  0  0  0  0
    6.8106  -18.3926   19.2062 C   0  0  0  0  0  0  0  0  0  0  0  0
    7.6017  -17.2321   18.6412 C   0  0  2  0  0  0  0  0  0  0  0  0
    8.5840  -17.7007   17.7121 N   0  0  0  0  0  0  0  0  0  0  0  0
    8.1944  -16.4008   19.7241 C   0  0  0  0  0  0  0  0  0  0  0  0
    9.1772  -16.8538   20.3511 O   0  0  0  0  0  0  0  0  0  0  0  0
    7.4108  -13.0673   21.2414 C   0  0  0  0  0  0  0  0  0  0  0  0
    8.2542  -14.3211   21.1431 C   0  0  2  0  0  0  0  0  0  0  0  0
    7.6954  -15.1255   20.0727 N   0  0  0  0  0  0  0  0  0  0  0  0
    8.2136  -15.0445   22.4528 C   0  0  0  0  0  0  0  0  0  0  0  0
    7.1437  -15.5569   22.7974 O   0  0  0  0  0  0  0  0  0  0  0  0
    9.3464  -15.1472   23.2761 N   0  0  0  0  0  0  0  0  0  0  0  0
    9.5690  -15.9474   24.4136 C   0  0  1  0  0  0  0  0  0  0  0  0
    9.9809  -17.3911   24.1582 C   0  0  0  0  0  0  0  0  0  0  0  0
   10.1720  -18.1868   25.4105 C   0  0  0  0  0  0  0  0  0  0  0  0
   10.6529  -19.5833   25.2117 C   0  0  0  0  0  0  0  0  0  0  0  0
   10.8943  -20.3844   26.4396 C   0  0  0  0  0  0  0  0  0  0  0  0
   11.1745  -21.7751   26.1609 N   0  0  0  0  0  0  0  0  0  0  0  0
   10.3495  -15.4049   25.5102 C   0  0  0  0  0  0  0  0  0  0  0  0
   10.3723  -15.8974   26.6663 O   0  0  0  0  0  0  0  0  0  0  0  0
   11.1230  -14.2752   25.2880 O   0  0  0  0  0  0  0  0  0  0  0  0
  2  1  1  0
  3  2  1  0
  3  4  1  6
  5  3  1  0
  5  6  2  0
  8  7  1  1
  8  9  1  0
  8 10  1  0
  9  5  1  0
 10 12  1  0
 11 10  2  0
 12 13  1  0
 13 14  1  6
 14 15  1  0
 16 15  1  0
 16 17  1  0
 17 18  1  0
 19 21  1  0
 19 13  1  0
 20 19  2  0
M  END
$$$$
