SAK.pdb
     RDKit          3D

 21 20  0  0  1  0  0  0  0  0999 V2000
    4.3103  -18.8266   19.6784 O   0  0  0  0  0  0  0  0  0  0  0  0
    5.5235  -18.2814   20.0890 C   0  0  0  0  0  0  0  0  0  0  0  0
    6.0997  -17.3973   19.0035 C   0  0  2  0  0  0  0  0  0  0  0  0
    6.4847  -18.1818   17.8704 N   0  0  0  0  0  0  0  0  0  0  0  0
    7.2159  -16.5600   19.5210 C   0  0  0  0  0  0  0  0  0  0  0  0
    8.3582  -17.0656   19.5851 O   0  0  0  0  0  0  0  0  0  0  0  0
    7.5062  -13.0854   20.8901 C   0  0  0  0  0  0  0  0  0  0  0  0
    8.0907  -14.4461   20.5739 C   0  0  2  0  0  0  0  0  0  0  0  0
    7.0406  -15.2224   19.9417 N   0  0  0  0  0  0  0  0  0  0  0  0
    8.5592  -15.0866   21.8430 C   0  0  0  0  0  0  0  0  0  0  0  0
    7.7285  -15.2714   22.7384 O   0  0  0  0  0  0  0  0  0  0  0  0
    9.8970  -15.4714   22.0269 N   0  0  0  0  0  0  0  0  0  0  0  0
   10.5030  -16.1549   23.0991 C   0  0  1  0  0  0  0  0  0  0  0  0
   10.3766  -17.6724   23.0952 C   0  0  0  0  0  0  0  0  0  0  0  0
   10.9068  -18.3178   24.3363 C   0  0  0  0  0  0  0  0  0  0  0  0
   10.8522  -19.8069   24.3542 C   0  0  0  0  0  0  0  0  0  0  0  0
   11.2046  -20.4698   25.6365 C   0  0  0  0  0  0  0  0  0  0  0  0
   11.1842  -21.9129   25.5508 N   0  0  0  0  0  0  0  0  0  0  0  0
   11.8460  -15.7789   23.5002 C   0  0  0  0  0  0  0  0  0  0  0  0
   12.7227  -15.3541   22.7060 O   0  0  0  0  0  0  0  0  0  0  0  0
   12.2019  -15.8881   24.8364 O   0  0  0  0  0  0  0  0  0  0  0  0
  2  1  1  0
  3  2  1  0
  3  4  1  6
  5  3  1  0
  5  6  2  0
  8  7  1  1
  8  9  1  0
  8 10  1  0
  9  5  1  0
 10 12  1  0
 11 10  2  0
 12 13  1  0
 13 14  1  6
 14 15  1  0
 16 15  1  0
 16 17  1  0
 17 18  1  0
 19 21  1  0
 19 13  1  0
 20 19  2  0
M  END
$$$$
