SAK.pdb
     RDKit          3D

 21 20  0  0  1  0  0  0  0  0999 V2000
   13.0241  -17.5030   14.6759 O   0  0  0  0  0  0  0  0  0  0  0  0
   11.7799  -18.1242   14.7361 C   0  0  0  0  0  0  0  0  0  0  0  0
   11.9014  -19.5872   14.3661 C   0  0  2  0  0  0  0  0  0  0  0  0
   10.7893  -19.9948   13.5632 N   0  0  0  0  0  0  0  0  0  0  0  0
   12.0736  -20.4399   15.5736 C   0  0  0  0  0  0  0  0  0  0  0  0
   11.0664  -20.6954   16.2697 O   0  0  0  0  0  0  0  0  0  0  0  0
   14.7410  -22.6227   16.9381 C   0  0  0  0  0  0  0  0  0  0  0  0
   13.5014  -21.7808   17.1566 C   0  0  2  0  0  0  0  0  0  0  0  0
   13.3229  -20.9714   15.9658 N   0  0  0  0  0  0  0  0  0  0  0  0
   13.6926  -20.9317   18.3744 C   0  0  0  0  0  0  0  0  0  0  0  0
   14.2120  -19.8205   18.2288 O   0  0  0  0  0  0  0  0  0  0  0  0
   13.2998  -21.3690   19.6496 N   0  0  0  0  0  0  0  0  0  0  0  0
   13.4264  -20.7369   20.9020 C   0  0  1  0  0  0  0  0  0  0  0  0
   12.5338  -21.2594   22.0196 C   0  0  0  0  0  0  0  0  0  0  0  0
   12.5788  -20.4226   23.2588 C   0  0  0  0  0  0  0  0  0  0  0  0
   11.6412  -20.8349   24.3413 C   0  0  0  0  0  0  0  0  0  0  0  0
   11.6609  -20.0204   25.5839 C   0  0  0  0  0  0  0  0  0  0  0  0
   10.7565  -20.5146   26.5978 N   0  0  0  0  0  0  0  0  0  0  0  0
   14.7550  -20.4731   21.4226 C   0  0  0  0  0  0  0  0  0  0  0  0
   15.6389  -21.3544   21.5696 O   0  0  0  0  0  0  0  0  0  0  0  0
   15.0876  -19.1762   21.7852 O   0  0  0  0  0  0  0  0  0  0  0  0
  2  1  1  0
  3  2  1  0
  3  4  1  1
  5  3  1  0
  5  6  2  0
  8  7  1  6
  8  9  1  0
  8 10  1  0
  9  5  1  0
 10 12  1  0
 11 10  2  0
 12 13  1  0
 13 14  1  1
 14 15  1  0
 16 15  1  0
 16 17  1  0
 17 18  1  0
 19 21  1  0
 19 13  1  0
 20 19  2  0
M  END
$$$$
