SAK.pdb
     RDKit          3D

 21 20  0  0  1  0  0  0  0  0999 V2000
   11.0481  -16.4960   17.1498 O   0  0  0  0  0  0  0  0  0  0  0  0
    9.7036  -16.8551   17.1154 C   0  0  0  0  0  0  0  0  0  0  0  0
    9.1828  -17.0872   18.5179 C   0  0  2  0  0  0  0  0  0  0  0  0
    7.8685  -17.6515   18.4770 N   0  0  0  0  0  0  0  0  0  0  0  0
    9.2420  -15.8425   19.3317 C   0  0  0  0  0  0  0  0  0  0  0  0
   10.3645  -15.4013   19.6627 O   0  0  0  0  0  0  0  0  0  0  0  0
    6.8792  -13.1408   20.2195 C   0  0  0  0  0  0  0  0  0  0  0  0
    8.1394  -13.9211   20.5296 C   0  0  2  0  0  0  0  0  0  0  0  0
    8.0873  -15.1404   19.7450 N   0  0  0  0  0  0  0  0  0  0  0  0
    8.1878  -14.2135   21.9967 C   0  0  0  0  0  0  0  0  0  0  0  0
    8.2375  -13.2562   22.7758 O   0  0  0  0  0  0  0  0  0  0  0  0
    8.1776  -15.5284   22.4892 N   0  0  0  0  0  0  0  0  0  0  0  0
    8.2052  -15.9979   23.8169 C   0  0  1  0  0  0  0  0  0  0  0  0
    7.4741  -17.3055   24.0901 C   0  0  0  0  0  0  0  0  0  0  0  0
    6.2357  -17.4787   23.2690 C   0  0  0  0  0  0  0  0  0  0  0  0
    5.5545  -18.7964   23.4123 C   0  0  0  0  0  0  0  0  0  0  0  0
    4.3732  -19.0322   22.5423 C   0  0  0  0  0  0  0  0  0  0  0  0
    3.8310  -20.3658   22.6752 N   0  0  0  0  0  0  0  0  0  0  0  0
    9.4637  -15.9832   24.5393 C   0  0  0  0  0  0  0  0  0  0  0  0
    9.5651  -16.1805   25.7764 O   0  0  0  0  0  0  0  0  0  0  0  0
   10.6358  -15.7384   23.8391 O   0  0  0  0  0  0  0  0  0  0  0  0
  2  1  1  0
  3  2  1  0
  3  4  1  6
  5  3  1  0
  5  6  2  0
  8  7  1  1
  8  9  1  0
  8 10  1  0
  9  5  1  0
 10 12  1  0
 11 10  2  0
 12 13  1  0
 13 14  1  6
 14 15  1  0
 16 15  1  0
 16 17  1  0
 17 18  1  0
 19 21  1  0
 19 13  1  0
 20 19  2  0
M  END
$$$$
