SAK.pdb
     RDKit          3D

 21 20  0  0  1  0  0  0  0  0999 V2000
   10.2269  -18.5932   19.3898 O   0  0  0  0  0  0  0  0  0  0  0  0
    9.4191  -17.8639   18.5219 C   0  0  0  0  0  0  0  0  0  0  0  0
    9.9289  -16.4442   18.3933 C   0  0  2  0  0  0  0  0  0  0  0  0
   11.3311  -16.4395   18.1082 N   0  0  0  0  0  0  0  0  0  0  0  0
    9.5905  -15.6350   19.5957 C   0  0  0  0  0  0  0  0  0  0  0  0
   10.5062  -15.3532   20.3997 O   0  0  0  0  0  0  0  0  0  0  0  0
    6.4445  -14.1709   21.0065 C   0  0  0  0  0  0  0  0  0  0  0  0
    7.9273  -14.4681   21.0838 C   0  0  2  0  0  0  0  0  0  0  0  0
    8.2827  -15.1731   19.8666 N   0  0  0  0  0  0  0  0  0  0  0  0
    8.1992  -15.2984   22.2991 C   0  0  0  0  0  0  0  0  0  0  0  0
    8.1642  -16.5274   22.1794 O   0  0  0  0  0  0  0  0  0  0  0  0
    8.4868  -14.7154   23.5437 N   0  0  0  0  0  0  0  0  0  0  0  0
    8.7586  -15.3212   24.7858 C   0  0  1  0  0  0  0  0  0  0  0  0
    8.9928  -14.3830   25.9622 C   0  0  0  0  0  0  0  0  0  0  0  0
    9.5385  -15.0706   27.1735 C   0  0  0  0  0  0  0  0  0  0  0  0
    9.8566  -14.1786   28.3242 C   0  0  0  0  0  0  0  0  0  0  0  0
   10.4289  -14.8292   29.5313 C   0  0  0  0  0  0  0  0  0  0  0  0
   10.6955  -13.8964   30.6032 N   0  0  0  0  0  0  0  0  0  0  0  0
    7.9422  -16.4426   25.2121 C   0  0  0  0  0  0  0  0  0  0  0  0
    6.6931  -16.4909   25.0820 O   0  0  0  0  0  0  0  0  0  0  0  0
    8.5601  -17.5361   25.8008 O   0  0  0  0  0  0  0  0  0  0  0  0
  2  1  1  0
  3  2  1  0
  3  4  1  1
  5  3  1  0
  5  6  2  0
  8  7  1  6
  8  9  1  0
  8 10  1  0
  9  5  1  0
 10 12  1  0
 11 10  2  0
 12 13  1  0
 13 14  1  1
 14 15  1  0
 16 15  1  0
 16 17  1  0
 17 18  1  0
 19 21  1  0
 19 13  1  0
 20 19  2  0
M  END
$$$$
