SAK.pdb
     RDKit          3D

 21 20  0  0  1  0  0  0  0  0999 V2000
   10.7046  -14.5147   18.1817 O   0  0  0  0  0  0  0  0  0  0  0  0
    9.5417  -15.0229   17.6099 C   0  0  0  0  0  0  0  0  0  0  0  0
    8.3807  -14.0809   17.8479 C   0  0  2  0  0  0  0  0  0  0  0  0
    8.6229  -12.8187   17.2187 N   0  0  0  0  0  0  0  0  0  0  0  0
    8.0812  -13.9444   19.2993 C   0  0  0  0  0  0  0  0  0  0  0  0
    8.6121  -13.0040   19.9302 O   0  0  0  0  0  0  0  0  0  0  0  0
    5.7611  -15.5987   21.7096 C   0  0  0  0  0  0  0  0  0  0  0  0
    6.9654  -14.7288   21.4165 C   0  0  2  0  0  0  0  0  0  0  0  0
    7.2250  -14.8296   19.9925 N   0  0  0  0  0  0  0  0  0  0  0  0
    8.1295  -15.2133   22.2229 C   0  0  0  0  0  0  0  0  0  0  0  0
    8.8762  -16.0548   21.7127 O   0  0  0  0  0  0  0  0  0  0  0  0
    8.3799  -14.7370   23.5199 N   0  0  0  0  0  0  0  0  0  0  0  0
    9.1549  -15.2952   24.5551 C   0  0  1  0  0  0  0  0  0  0  0  0
    9.1247  -14.5688   25.8932 C   0  0  0  0  0  0  0  0  0  0  0  0
   10.0691  -15.1401   26.9029 C   0  0  0  0  0  0  0  0  0  0  0  0
   10.0637  -14.4682   28.2331 C   0  0  0  0  0  0  0  0  0  0  0  0
   11.0436  -14.9658   29.2332 C   0  0  0  0  0  0  0  0  0  0  0  0
   10.9530  -14.2798   30.5026 N   0  0  0  0  0  0  0  0  0  0  0  0
    9.0995  -16.7281   24.7774 C   0  0  0  0  0  0  0  0  0  0  0  0
    8.0309  -17.3834   24.8688 O   0  0  0  0  0  0  0  0  0  0  0  0
   10.2873  -17.4341   24.8988 O   0  0  0  0  0  0  0  0  0  0  0  0
  2  1  1  0
  3  2  1  0
  3  4  1  1
  5  3  1  0
  5  6  2  0
  8  7  1  6
  8  9  1  0
  8 10  1  0
  9  5  1  0
 10 12  1  0
 11 10  2  0
 12 13  1  0
 13 14  1  1
 14 15  1  0
 16 15  1  0
 16 17  1  0
 17 18  1  0
 19 21  1  0
 19 13  1  0
 20 19  2  0
M  END
$$$$
