SAK.pdb
     RDKit          3D

 21 20  0  0  1  0  0  0  0  0999 V2000
    5.0438  -22.8872   18.6183 O   0  0  0  0  0  0  0  0  0  0  0  0
    5.4139  -21.8681   19.4913 C   0  0  0  0  0  0  0  0  0  0  0  0
    4.4977  -21.8462   20.6964 C   0  0  2  0  0  0  0  0  0  0  0  0
    3.1542  -21.5558   20.2988 N   0  0  0  0  0  0  0  0  0  0  0  0
    4.9966  -20.9103   21.7404 C   0  0  0  0  0  0  0  0  0  0  0  0
    4.5965  -19.7255   21.7170 O   0  0  0  0  0  0  0  0  0  0  0  0
    6.5904  -21.1861   25.0326 C   0  0  0  0  0  0  0  0  0  0  0  0
    6.4097  -20.3880   23.7586 C   0  0  2  0  0  0  0  0  0  0  0  0
    5.9001  -21.3023   22.7538 N   0  0  0  0  0  0  0  0  0  0  0  0
    7.7272  -19.8048   23.3531 C   0  0  0  0  0  0  0  0  0  0  0  0
    8.5115  -20.5266   22.7286 O   0  0  0  0  0  0  0  0  0  0  0  0
    8.0770  -18.4810   23.6643 N   0  0  0  0  0  0  0  0  0  0  0  0
    9.2726  -17.7787   23.4172 C   0  0  1  0  0  0  0  0  0  0  0  0
    9.1322  -16.3995   22.7871 C   0  0  0  0  0  0  0  0  0  0  0  0
    8.6520  -16.4373   21.3708 C   0  0  0  0  0  0  0  0  0  0  0  0
    8.5069  -15.1091   20.7108 C   0  0  0  0  0  0  0  0  0  0  0  0
    7.9551  -15.1090   19.3312 C   0  0  0  0  0  0  0  0  0  0  0  0
    7.7708  -13.7784   18.7965 N   0  0  0  0  0  0  0  0  0  0  0  0
   10.2895  -17.7405   24.4517 C   0  0  0  0  0  0  0  0  0  0  0  0
   10.0564  -17.9288   25.6723 O   0  0  0  0  0  0  0  0  0  0  0  0
   11.6036  -17.4818   24.0909 O   0  0  0  0  0  0  0  0  0  0  0  0
  2  1  1  0
  3  2  1  0
  3  4  1  6
  5  3  1  0
  5  6  2  0
  8  7  1  1
  8  9  1  0
  8 10  1  0
  9  5  1  0
 10 12  1  0
 11 10  2  0
 12 13  1  0
 13 14  1  1
 14 15  1  0
 16 15  1  0
 16 17  1  0
 17 18  1  0
 19 21  1  0
 19 13  1  0
 20 19  2  0
M  END
$$$$
