SAK.pdb
     RDKit          3D

 21 20  0  0  1  0  0  0  0  0999 V2000
    6.2573  -18.3608   19.2648 O   0  0  0  0  0  0  0  0  0  0  0  0
    5.7077  -17.3565   18.4730 C   0  0  0  0  0  0  0  0  0  0  0  0
    6.8026  -16.5454   17.8131 C   0  0  2  0  0  0  0  0  0  0  0  0
    7.5041  -17.3399   16.8517 N   0  0  0  0  0  0  0  0  0  0  0  0
    7.7128  -15.9396   18.8228 C   0  0  0  0  0  0  0  0  0  0  0  0
    8.7589  -16.5547   19.1253 O   0  0  0  0  0  0  0  0  0  0  0  0
    7.6861  -12.8111   20.8829 C   0  0  0  0  0  0  0  0  0  0  0  0
    8.3149  -14.1216   20.4583 C   0  0  2  0  0  0  0  0  0  0  0  0
    7.4459  -14.7028   19.4522 N   0  0  0  0  0  0  0  0  0  0  0  0
    8.4456  -15.0137   21.6531 C   0  0  0  0  0  0  0  0  0  0  0  0
    7.4087  -15.4132   22.1927 O   0  0  0  0  0  0  0  0  0  0  0  0
    9.6993  -15.3942   22.1579 N   0  0  0  0  0  0  0  0  0  0  0  0
   10.0216  -16.2112   23.2591 C   0  0  1  0  0  0  0  0  0  0  0  0
   10.8678  -17.4429   22.9663 C   0  0  0  0  0  0  0  0  0  0  0  0
   10.3952  -18.2224   21.7801 C   0  0  0  0  0  0  0  0  0  0  0  0
   11.2810  -19.3450   21.3605 C   0  0  0  0  0  0  0  0  0  0  0  0
   10.8279  -20.1500   20.1966 C   0  0  0  0  0  0  0  0  0  0  0  0
   11.7592  -21.1954   19.8358 N   0  0  0  0  0  0  0  0  0  0  0  0
   10.4803  -15.5854   24.4855 C   0  0  0  0  0  0  0  0  0  0  0  0
   10.8821  -14.3968   24.5591 O   0  0  0  0  0  0  0  0  0  0  0  0
   10.4825  -16.3281   25.6569 O   0  0  0  0  0  0  0  0  0  0  0  0
  2  1  1  0
  3  2  1  0
  3  4  1  6
  5  3  1  0
  5  6  2  0
  8  7  1  1
  8  9  1  0
  8 10  1  0
  9  5  1  0
 10 12  1  0
 11 10  2  0
 12 13  1  0
 13 14  1  6
 14 15  1  0
 16 15  1  0
 16 17  1  0
 17 18  1  0
 19 21  1  0
 19 13  1  0
 20 19  2  0
M  END
$$$$
