NTN.pdb
     RDKit          3D

 24 23  0  0  1  0  0  0  0  0999 V2000
   16.1475  -14.6112  -14.1544 N   0  0  0  0  0  0  0  0  0  0  0  0
   17.3945  -14.5028  -14.8285 C   0  0  0  0  0  0  0  0  0  0  0  0
   18.2223  -15.4552  -14.7681 O   0  0  0  0  0  0  0  0  0  0  0  0
   17.7951  -13.2929  -15.6264 C   0  0  0  0  0  0  0  0  0  0  0  0
   16.6877  -12.2952  -15.4541 C   0  0  2  0  0  0  0  0  0  0  0  0
   15.4669  -12.8511  -15.9590 N   0  0  0  0  0  0  0  0  0  0  0  0
   16.9943  -10.9388  -15.9736 C   0  0  0  0  0  0  0  0  0  0  0  0
   16.7655  -10.6819  -17.1885 O   0  0  0  0  0  0  0  0  0  0  0  0
   15.9574   -8.8409  -17.3271 C   0  0  0  0  0  0  0  0  0  0  0  0
   16.4288   -7.9339  -16.2129 C   0  0  1  0  0  0  0  0  0  0  0  0
   15.4026   -7.7781  -15.2928 O   0  0  0  0  0  0  0  0  0  0  0  0
   17.6669   -8.5240  -15.6261 C   0  0  2  0  0  0  0  0  0  0  0  0
   17.5411   -9.8896  -15.1851 N   0  0  0  0  0  0  0  0  0  0  0  0
   18.3208   -7.6683  -14.5930 C   0  0  0  0  0  0  0  0  0  0  0  0
   18.1048   -7.7809  -13.3798 O   0  0  0  0  0  0  0  0  0  0  0  0
   22.7571   -5.2222  -12.6325 N   0  0  0  0  0  0  0  0  0  0  0  0
   22.1380   -4.6662  -13.7776 C   0  0  0  0  0  0  0  0  0  0  0  0
   22.2617   -3.4460  -14.0152 O   0  0  0  0  0  0  0  0  0  0  0  0
   21.3565   -5.5285  -14.6795 C   0  0  0  0  0  0  0  0  0  0  0  0
   19.9461   -5.7599  -14.1717 C   0  0  2  0  0  0  0  0  0  0  0  0
   19.2360   -6.6849  -15.0405 N   0  0  0  0  0  0  0  0  0  0  0  0
   19.2461   -4.4450  -14.1909 C   0  0  0  0  0  0  0  0  0  0  0  0
   19.2228   -3.6027  -13.0956 O   0  0  0  0  0  0  0  0  0  0  0  0
   18.6593   -4.0826  -15.2312 O   0  0  0  0  0  0  0  0  0  0  0  0
  2  1  1  0
  3  2  2  0
  4  2  1  0
  4  5  1  0
  5  6  1  6
  7  5  1  0
  8  7  2  0
 10  9  1  6
 10 12  1  0
 11 10  1  0
 12 13  1  1
 12 14  1  0
 13  7  1  0
 14 15  2  0
 14 21  1  0
 17 16  1  0
 18 17  2  0
 19 17  1  0
 20 19  1  6
 20 22  1  0
 21 20  1  0
 22 23  1  0
 24 22  2  0
M  END
$$$$
