NTN.pdb
     RDKit          3D

 24 23  0  0  1  0  0  0  0  0999 V2000
   15.5878  -13.5734  -11.1492 N   0  0  0  0  0  0  0  0  0  0  0  0
   14.3059  -13.0398  -11.4546 C   0  0  0  0  0  0  0  0  0  0  0  0
   13.2981  -13.8015  -11.4645 O   0  0  0  0  0  0  0  0  0  0  0  0
   14.0746  -11.5890  -11.7751 C   0  0  0  0  0  0  0  0  0  0  0  0
   13.7536  -10.9206  -10.4706 C   0  0  2  0  0  0  0  0  0  0  0  0
   12.4895  -11.3979   -9.9926 N   0  0  0  0  0  0  0  0  0  0  0  0
   13.8723   -9.4410  -10.4911 C   0  0  0  0  0  0  0  0  0  0  0  0
   12.9103   -8.7554  -10.9370 O   0  0  0  0  0  0  0  0  0  0  0  0
   14.6698   -7.0454   -7.6634 C   0  0  0  0  0  0  0  0  0  0  0  0
   15.6414   -6.6992   -8.7691 C   0  0  1  0  0  0  0  0  0  0  0  0
   16.9047   -7.1522   -8.4184 O   0  0  0  0  0  0  0  0  0  0  0  0
   15.1302   -7.2921  -10.0389 C   0  0  2  0  0  0  0  0  0  0  0  0
   15.0162   -8.7281  -10.0383 N   0  0  0  0  0  0  0  0  0  0  0  0
   15.8180   -6.7934  -11.2659 C   0  0  0  0  0  0  0  0  0  0  0  0
   16.6227   -7.4706  -11.9179 O   0  0  0  0  0  0  0  0  0  0  0  0
   17.0000   -3.4791  -15.0862 N   0  0  0  0  0  0  0  0  0  0  0  0
   15.9010   -2.9049  -14.4034 C   0  0  0  0  0  0  0  0  0  0  0  0
   15.4082   -1.8340  -14.8171 O   0  0  0  0  0  0  0  0  0  0  0  0
   15.3464   -3.5737  -13.2148 C   0  0  0  0  0  0  0  0  0  0  0  0
   16.1141   -4.8311  -12.8541 C   0  0  2  0  0  0  0  0  0  0  0  0
   15.5198   -5.4775  -11.6950 N   0  0  0  0  0  0  0  0  0  0  0  0
   17.5060   -4.4202  -12.5175 C   0  0  0  0  0  0  0  0  0  0  0  0
   18.5283   -4.4378  -13.4471 O   0  0  0  0  0  0  0  0  0  0  0  0
   17.7655   -4.0424  -11.3565 O   0  0  0  0  0  0  0  0  0  0  0  0
  2  1  1  0
  3  2  2  0
  4  2  1  0
  4  5  1  0
  5  6  1  6
  7  5  1  0
  8  7  2  0
 10  9  1  1
 10 12  1  0
 11 10  1  0
 12 13  1  1
 12 14  1  0
 13  7  1  0
 14 15  2  0
 14 21  1  0
 17 16  1  0
 18 17  2  0
 19 17  1  0
 20 19  1  1
 20 22  1  0
 21 20  1  0
 22 23  1  0
 24 22  2  0
M  END
$$$$
