NTN.pdb
     RDKit          3D

 24 23  0  0  1  0  0  0  0  0999 V2000
   15.7706  -14.9633  -15.6197 N   0  0  0  0  0  0  0  0  0  0  0  0
   15.9401  -14.0563  -14.5381 C   0  0  0  0  0  0  0  0  0  0  0  0
   15.2540  -14.2015  -13.4874 O   0  0  0  0  0  0  0  0  0  0  0  0
   16.9096  -12.9074  -14.5731 C   0  0  0  0  0  0  0  0  0  0  0  0
   17.4911  -12.8954  -15.9564 C   0  0  2  0  0  0  0  0  0  0  0  0
   18.2223  -14.1088  -16.1731 N   0  0  0  0  0  0  0  0  0  0  0  0
   18.2486  -11.6646  -16.2953 C   0  0  0  0  0  0  0  0  0  0  0  0
   19.4739  -11.7597  -16.5853 O   0  0  0  0  0  0  0  0  0  0  0  0
   17.5758   -9.2884  -18.9943 C   0  0  0  0  0  0  0  0  0  0  0  0
   17.7497   -8.3823  -17.7964 C   0  0  1  0  0  0  0  0  0  0  0  0
   16.5146   -7.8592  -17.4428 O   0  0  0  0  0  0  0  0  0  0  0  0
   18.3933   -9.1717  -16.7065 C   0  0  2  0  0  0  0  0  0  0  0  0
   17.6816  -10.3608  -16.3135 N   0  0  0  0  0  0  0  0  0  0  0  0
   18.8046   -8.3585  -15.5247 C   0  0  0  0  0  0  0  0  0  0  0  0
   18.2715   -8.4564  -14.4123 O   0  0  0  0  0  0  0  0  0  0  0  0
   22.9240   -4.0717  -14.2864 N   0  0  0  0  0  0  0  0  0  0  0  0
   22.4076   -5.3343  -13.9087 C   0  0  0  0  0  0  0  0  0  0  0  0
   22.4325   -5.6774  -12.7076 O   0  0  0  0  0  0  0  0  0  0  0  0
   21.8439   -6.2311  -14.9313 C   0  0  0  0  0  0  0  0  0  0  0  0
   20.3922   -6.5736  -14.6558 C   0  0  2  0  0  0  0  0  0  0  0  0
   19.8636   -7.4354  -15.7011 N   0  0  0  0  0  0  0  0  0  0  0  0
   19.6276   -5.2950  -14.6513 C   0  0  0  0  0  0  0  0  0  0  0  0
   19.4291   -4.5553  -13.5009 O   0  0  0  0  0  0  0  0  0  0  0  0
   19.1481   -4.8683  -15.7218 O   0  0  0  0  0  0  0  0  0  0  0  0
  2  1  1  0
  3  2  2  0
  4  2  1  0
  4  5  1  0
  5  6  1  1
  7  5  1  0
  8  7  2  0
 10  9  1  6
 10 12  1  0
 11 10  1  0
 12 13  1  1
 12 14  1  0
 13  7  1  0
 14 15  2  0
 14 21  1  0
 17 16  1  0
 18 17  2  0
 19 17  1  0
 20 19  1  6
 20 22  1  0
 21 20  1  0
 22 23  1  0
 24 22  2  0
M  END
$$$$
