NTN.pdb
     RDKit          3D

 24 23  0  0  1  0  0  0  0  0999 V2000
   17.9457  -12.8723  -19.7871 N   0  0  0  0  0  0  0  0  0  0  0  0
   17.3135  -12.7080  -18.5243 C   0  0  0  0  0  0  0  0  0  0  0  0
   16.3533  -13.4636  -18.2032 O   0  0  0  0  0  0  0  0  0  0  0  0
   17.7296  -11.6629  -17.5265 C   0  0  0  0  0  0  0  0  0  0  0  0
   18.9749  -12.1847  -16.8719 C   0  0  2  0  0  0  0  0  0  0  0  0
   18.6907  -13.4447  -16.2507 N   0  0  0  0  0  0  0  0  0  0  0  0
   19.6564  -11.2120  -15.9813 C   0  0  0  0  0  0  0  0  0  0  0  0
   19.2294  -11.0564  -14.8033 O   0  0  0  0  0  0  0  0  0  0  0  0
   23.0792  -11.1482  -14.7556 C   0  0  0  0  0  0  0  0  0  0  0  0
   22.9142   -9.7564  -15.3231 C   0  0  1  0  0  0  0  0  0  0  0  0
   23.6409   -9.6598  -16.5007 O   0  0  0  0  0  0  0  0  0  0  0  0
   21.4560   -9.4982  -15.5032 C   0  0  2  0  0  0  0  0  0  0  0  0
   20.7755  -10.4258  -16.3701 N   0  0  0  0  0  0  0  0  0  0  0  0
   21.1236   -8.0827  -15.8395 C   0  0  0  0  0  0  0  0  0  0  0  0
   20.6601   -7.7336  -16.9324 O   0  0  0  0  0  0  0  0  0  0  0  0
   20.6119   -2.9963  -15.3847 N   0  0  0  0  0  0  0  0  0  0  0  0
   19.5422   -3.8136  -14.9472 C   0  0  0  0  0  0  0  0  0  0  0  0
   18.4297   -3.2983  -14.7073 O   0  0  0  0  0  0  0  0  0  0  0  0
   19.7474   -5.2620  -14.7807 C   0  0  0  0  0  0  0  0  0  0  0  0
   21.1849   -5.6707  -15.0399 C   0  0  2  0  0  0  0  0  0  0  0  0
   21.3521   -7.1019  -14.8442 N   0  0  0  0  0  0  0  0  0  0  0  0
   22.0369   -4.9457  -14.0560 C   0  0  0  0  0  0  0  0  0  0  0  0
   22.6730   -5.5895  -13.0116 O   0  0  0  0  0  0  0  0  0  0  0  0
   22.1887   -3.7125  -14.1741 O   0  0  0  0  0  0  0  0  0  0  0  0
  2  1  1  0
  3  2  2  0
  4  2  1  0
  4  5  1  0
  5  6  1  1
  7  5  1  0
  8  7  2  0
 10  9  1  6
 10 12  1  0
 11 10  1  0
 12 13  1  6
 12 14  1  0
 13  7  1  0
 14 15  2  0
 14 21  1  0
 17 16  1  0
 18 17  2  0
 19 17  1  0
 20 19  1  1
 20 22  1  0
 21 20  1  0
 22 23  1  0
 24 22  2  0
M  END
$$$$
