NTN.pdb
     RDKit          3D

 24 23  0  0  1  0  0  0  0  0999 V2000
   20.3671  -14.7068  -17.1303 N   0  0  0  0  0  0  0  0  0  0  0  0
   21.2559  -14.9616  -16.0503 C   0  0  0  0  0  0  0  0  0  0  0  0
   21.3163  -16.1204  -15.5509 O   0  0  0  0  0  0  0  0  0  0  0  0
   22.1475  -13.9081  -15.4535 C   0  0  0  0  0  0  0  0  0  0  0  0
   21.8577  -12.6425  -16.2057 C   0  0  2  0  0  0  0  0  0  0  0  0
   22.1291  -12.8466  -17.5981 N   0  0  0  0  0  0  0  0  0  0  0  0
   22.4955  -11.4284  -15.6374 C   0  0  0  0  0  0  0  0  0  0  0  0
   22.2721  -11.1264  -14.4319 O   0  0  0  0  0  0  0  0  0  0  0  0
   26.0604  -10.4248  -15.3855 C   0  0  0  0  0  0  0  0  0  0  0  0
   25.4017   -9.2208  -16.0203 C   0  0  1  0  0  0  0  0  0  0  0  0
   25.7924   -9.1406  -17.3489 O   0  0  0  0  0  0  0  0  0  0  0  0
   23.9263   -9.3512  -15.8429 C   0  0  2  0  0  0  0  0  0  0  0  0
   23.3540  -10.5635  -16.3699 N   0  0  0  0  0  0  0  0  0  0  0  0
   23.1520   -8.1468  -16.2636 C   0  0  0  0  0  0  0  0  0  0  0  0
   22.5100   -8.0850  -17.3196 O   0  0  0  0  0  0  0  0  0  0  0  0
   21.0972   -3.3942  -15.8833 N   0  0  0  0  0  0  0  0  0  0  0  0
   21.0636   -4.0124  -14.6104 C   0  0  0  0  0  0  0  0  0  0  0  0
   20.4184   -3.4801  -13.6824 O   0  0  0  0  0  0  0  0  0  0  0  0
   21.7856   -5.2765  -14.3904 C   0  0  0  0  0  0  0  0  0  0  0  0
   22.4602   -5.7784  -15.6528 C   0  0  2  0  0  0  0  0  0  0  0  0
   23.1590   -7.0276  -15.3964 N   0  0  0  0  0  0  0  0  0  0  0  0
   23.4517   -4.7463  -16.0667 C   0  0  0  0  0  0  0  0  0  0  0  0
   23.1697   -3.7911  -17.0247 O   0  0  0  0  0  0  0  0  0  0  0  0
   24.5791   -4.7357  -15.5313 O   0  0  0  0  0  0  0  0  0  0  0  0
  2  1  1  0
  3  2  2  0
  4  2  1  0
  4  5  1  0
  5  6  1  6
  7  5  1  0
  8  7  2  0
 10  9  1  6
 10 12  1  0
 11 10  1  0
 12 13  1  6
 12 14  1  0
 13  7  1  0
 14 15  2  0
 14 21  1  0
 17 16  1  0
 18 17  2  0
 19 17  1  0
 20 19  1  1
 20 22  1  0
 21 20  1  0
 22 23  1  0
 24 22  2  0
M  END
$$$$
