NTN.pdb
     RDKit          3D

 24 23  0  0  1  0  0  0  0  0999 V2000
   16.4238  -16.1276  -15.5698 N   0  0  0  0  0  0  0  0  0  0  0  0
   17.6792  -15.7654  -15.0094 C   0  0  0  0  0  0  0  0  0  0  0  0
   18.2165  -16.5131  -14.1444 O   0  0  0  0  0  0  0  0  0  0  0  0
   18.4211  -14.5153  -15.3940 C   0  0  0  0  0  0  0  0  0  0  0  0
   17.5412  -13.7933  -16.3718 C   0  0  2  0  0  0  0  0  0  0  0  0
   17.4058  -14.5835  -17.5599 N   0  0  0  0  0  0  0  0  0  0  0  0
   17.9296  -12.3831  -16.6251 C   0  0  0  0  0  0  0  0  0  0  0  0
   18.7017  -12.1242  -17.5901 O   0  0  0  0  0  0  0  0  0  0  0  0
   16.2533   -9.5316  -17.8154 C   0  0  0  0  0  0  0  0  0  0  0  0
   16.8019   -9.0023  -16.5095 C   0  0  1  0  0  0  0  0  0  0  0  0
   15.7637   -8.8883  -15.5967 O   0  0  0  0  0  0  0  0  0  0  0  0
   17.8905   -9.9170  -16.0583 C   0  0  2  0  0  0  0  0  0  0  0  0
   17.4876  -11.2827  -15.8406 N   0  0  0  0  0  0  0  0  0  0  0  0
   18.6966   -9.3908  -14.9180 C   0  0  0  0  0  0  0  0  0  0  0  0
   18.6681   -9.8795  -13.7815 O   0  0  0  0  0  0  0  0  0  0  0  0
   22.1758   -6.3867  -12.4995 N   0  0  0  0  0  0  0  0  0  0  0  0
   22.1418   -5.9264  -13.8376 C   0  0  0  0  0  0  0  0  0  0  0  0
   22.9020   -5.0002  -14.1914 O   0  0  0  0  0  0  0  0  0  0  0  0
   21.2147   -6.5427  -14.8011 C   0  0  0  0  0  0  0  0  0  0  0  0
   20.3651   -7.6268  -14.1659 C   0  0  2  0  0  0  0  0  0  0  0  0
   19.5353   -8.2776  -15.1672 N   0  0  0  0  0  0  0  0  0  0  0  0
   19.4835   -6.9685  -13.1615 C   0  0  0  0  0  0  0  0  0  0  0  0
   19.6882   -7.0954  -11.8007 O   0  0  0  0  0  0  0  0  0  0  0  0
   18.5247   -6.2732  -13.5555 O   0  0  0  0  0  0  0  0  0  0  0  0
  2  1  1  0
  3  2  2  0
  4  2  1  0
  4  5  1  0
  5  6  1  6
  7  5  1  0
  8  7  2  0
 10  9  1  6
 10 12  1  0
 11 10  1  0
 12 13  1  1
 12 14  1  0
 13  7  1  0
 14 15  2  0
 14 21  1  0
 17 16  1  0
 18 17  2  0
 19 17  1  0
 20 19  1  6
 20 22  1  0
 21 20  1  0
 22 23  1  0
 24 22  2  0
M  END
$$$$
