NTN.pdb
     RDKit          3D

 24 23  0  0  1  0  0  0  0  0999 V2000
   14.1675  -15.7661  -11.7150 N   0  0  0  0  0  0  0  0  0  0  0  0
   15.2638  -14.8611  -11.6886 C   0  0  0  0  0  0  0  0  0  0  0  0
   16.3307  -15.1893  -11.0971 O   0  0  0  0  0  0  0  0  0  0  0  0
   15.2261  -13.5051  -12.3372 C   0  0  0  0  0  0  0  0  0  0  0  0
   14.7879  -12.5453  -11.2703 C   0  0  2  0  0  0  0  0  0  0  0  0
   13.4212  -12.8092  -10.9284 N   0  0  0  0  0  0  0  0  0  0  0  0
   15.0711  -11.1194  -11.5706 C   0  0  0  0  0  0  0  0  0  0  0  0
   14.7043  -10.6426  -12.6807 O   0  0  0  0  0  0  0  0  0  0  0  0
   13.5823   -8.2961  -10.8114 C   0  0  0  0  0  0  0  0  0  0  0  0
   14.9547   -7.9234  -10.2977 C   0  0  1  0  0  0  0  0  0  0  0  0
   14.9516   -7.9896   -8.9122 O   0  0  0  0  0  0  0  0  0  0  0  0
   15.9513   -8.8341  -10.9326 C   0  0  2  0  0  0  0  0  0  0  0  0
   15.7422  -10.2368  -10.6804 N   0  0  0  0  0  0  0  0  0  0  0  0
   17.3720   -8.4380  -10.7051 C   0  0  0  0  0  0  0  0  0  0  0  0
   18.0567   -8.8675   -9.7681 O   0  0  0  0  0  0  0  0  0  0  0  0
   22.0160   -6.1588  -13.6957 N   0  0  0  0  0  0  0  0  0  0  0  0
   21.5230   -6.8583  -12.5682 C   0  0  0  0  0  0  0  0  0  0  0  0
   22.2292   -6.9510  -11.5418 O   0  0  0  0  0  0  0  0  0  0  0  0
   20.1835   -7.4679  -12.6122 C   0  0  0  0  0  0  0  0  0  0  0  0
   19.2889   -6.9671  -11.4944 C   0  0  2  0  0  0  0  0  0  0  0  0
   17.9527   -7.5269  -11.6202 N   0  0  0  0  0  0  0  0  0  0  0  0
   19.2060   -5.4851  -11.6224 C   0  0  0  0  0  0  0  0  0  0  0  0
   20.1390   -4.6396  -11.0530 O   0  0  0  0  0  0  0  0  0  0  0  0
   18.2640   -4.9815  -12.2681 O   0  0  0  0  0  0  0  0  0  0  0  0
  2  1  1  0
  3  2  2  0
  4  2  1  0
  4  5  1  0
  5  6  1  6
  7  5  1  0
  8  7  2  0
 10  9  1  6
 10 12  1  0
 11 10  1  0
 12 13  1  1
 12 14  1  0
 13  7  1  0
 14 15  2  0
 14 21  1  0
 17 16  1  0
 18 17  2  0
 19 17  1  0
 20 19  1  6
 20 22  1  0
 21 20  1  0
 22 23  1  0
 24 22  2  0
M  END
$$$$
