NTN.pdb
     RDKit          3D

 24 23  0  0  1  0  0  0  0  0999 V2000
   15.9610  -24.2519  -11.9003 N   0  0  0  0  0  0  0  0  0  0  0  0
   15.6172  -22.9141  -11.5634 C   0  0  0  0  0  0  0  0  0  0  0  0
   14.4062  -22.6095  -11.3716 O   0  0  0  0  0  0  0  0  0  0  0  0
   16.6337  -21.8154  -11.4198 C   0  0  0  0  0  0  0  0  0  0  0  0
   17.9666  -22.4412  -11.7085 C   0  0  2  0  0  0  0  0  0  0  0  0
   18.2812  -23.3832  -10.6751 N   0  0  0  0  0  0  0  0  0  0  0  0
   19.0537  -21.4712  -11.9933 C   0  0  0  0  0  0  0  0  0  0  0  0
   19.7390  -21.0200  -11.0335 O   0  0  0  0  0  0  0  0  0  0  0  0
   22.2029  -21.7332  -13.2544 C   0  0  0  0  0  0  0  0  0  0  0  0
   21.6607  -20.6880  -14.2031 C   0  0  1  0  0  0  0  0  0  0  0  0
   21.4103  -21.2801  -15.4322 O   0  0  0  0  0  0  0  0  0  0  0  0
   20.4495  -20.0793  -13.5803 C   0  0  2  0  0  0  0  0  0  0  0  0
   19.3815  -21.0029  -13.2952 N   0  0  0  0  0  0  0  0  0  0  0  0
   19.9516  -18.8585  -14.2795 C   0  0  0  0  0  0  0  0  0  0  0  0
   18.8468  -18.7941  -14.8332 O   0  0  0  0  0  0  0  0  0  0  0  0
   20.0970  -13.9890  -16.1043 N   0  0  0  0  0  0  0  0  0  0  0  0
   21.2893  -14.1556  -15.3597 C   0  0  0  0  0  0  0  0  0  0  0  0
   22.0712  -13.1910  -15.2222 O   0  0  0  0  0  0  0  0  0  0  0  0
   21.5974  -15.4609  -14.7522 C   0  0  0  0  0  0  0  0  0  0  0  0
   20.4805  -16.4664  -14.9572 C   0  0  2  0  0  0  0  0  0  0  0  0
   20.7971  -17.7229  -14.2971 N   0  0  0  0  0  0  0  0  0  0  0  0
   20.3631  -16.7068  -16.4228 C   0  0  0  0  0  0  0  0  0  0  0  0
   20.9322  -17.8039  -17.0410 O   0  0  0  0  0  0  0  0  0  0  0  0
   19.7269  -15.8936  -17.1242 O   0  0  0  0  0  0  0  0  0  0  0  0
  2  1  1  0
  3  2  2  0
  4  2  1  0
  4  5  1  0
  5  6  1  1
  7  5  1  0
  8  7  2  0
 10  9  1  1
 10 12  1  0
 11 10  1  0
 12 13  1  6
 12 14  1  0
 13  7  1  0
 14 15  2  0
 14 21  1  0
 17 16  1  0
 18 17  2  0
 19 17  1  0
 20 19  1  6
 20 22  1  0
 21 20  1  0
 22 23  1  0
 24 22  2  0
M  END
$$$$
