NTN.pdb
     RDKit          3D

 24 23  0  0  1  0  0  0  0  0999 V2000
   19.0976  -17.0740  -15.6365 N   0  0  0  0  0  0  0  0  0  0  0  0
   18.3946  -15.9900  -16.2298 C   0  0  0  0  0  0  0  0  0  0  0  0
   17.1315  -15.9784  -16.2090 O   0  0  0  0  0  0  0  0  0  0  0  0
   19.0822  -14.8310  -16.8967 C   0  0  0  0  0  0  0  0  0  0  0  0
   18.7928  -13.6295  -16.0456 C   0  0  2  0  0  0  0  0  0  0  0  0
   17.3748  -13.4368  -15.9652 N   0  0  0  0  0  0  0  0  0  0  0  0
   19.5479  -12.4092  -16.4257 C   0  0  0  0  0  0  0  0  0  0  0  0
   20.7922  -12.4952  -16.6224 O   0  0  0  0  0  0  0  0  0  0  0  0
   17.9553   -9.3017  -18.6216 C   0  0  0  0  0  0  0  0  0  0  0  0
   19.4332   -9.5688  -18.4463 C   0  0  1  0  0  0  0  0  0  0  0  0
   20.1449   -8.4449  -18.8394 O   0  0  0  0  0  0  0  0  0  0  0  0
   19.6702   -9.9535  -17.0246 C   0  0  2  0  0  0  0  0  0  0  0  0
   18.9578  -11.1253  -16.5836 N   0  0  0  0  0  0  0  0  0  0  0  0
   19.5323   -8.8265  -16.0560 C   0  0  0  0  0  0  0  0  0  0  0  0
   18.4858   -8.5795  -15.4437 O   0  0  0  0  0  0  0  0  0  0  0  0
   20.9770   -4.6441  -13.3329 N   0  0  0  0  0  0  0  0  0  0  0  0
   22.1721   -5.2057  -13.8429 C   0  0  0  0  0  0  0  0  0  0  0  0
   23.2734   -4.7147  -13.5162 O   0  0  0  0  0  0  0  0  0  0  0  0
   22.1087   -6.3632  -14.7505 C   0  0  0  0  0  0  0  0  0  0  0  0
   20.6848   -6.8295  -14.9862 C   0  0  2  0  0  0  0  0  0  0  0  0
   20.6679   -8.0104  -15.8346 N   0  0  0  0  0  0  0  0  0  0  0  0
   19.9653   -5.7252  -15.6809 C   0  0  0  0  0  0  0  0  0  0  0  0
   19.0927   -4.8803  -15.0218 O   0  0  0  0  0  0  0  0  0  0  0  0
   20.1545   -5.5486  -16.9020 O   0  0  0  0  0  0  0  0  0  0  0  0
  2  1  1  0
  3  2  2  0
  4  2  1  0
  4  5  1  0
  5  6  1  6
  7  5  1  0
  8  7  2  0
 10  9  1  1
 10 12  1  0
 11 10  1  0
 12 13  1  1
 12 14  1  0
 13  7  1  0
 14 15  2  0
 14 21  1  0
 17 16  1  0
 18 17  2  0
 19 17  1  0
 20 19  1  6
 20 22  1  0
 21 20  1  0
 22 23  1  0
 24 22  2  0
M  END
$$$$
