NTN.pdb
     RDKit          3D

 24 23  0  0  1  0  0  0  0  0999 V2000
   15.9861  -12.9023  -15.7076 N   0  0  0  0  0  0  0  0  0  0  0  0
   17.1665  -13.6673  -15.5009 C   0  0  0  0  0  0  0  0  0  0  0  0
   17.0788  -14.9139  -15.3161 O   0  0  0  0  0  0  0  0  0  0  0  0
   18.5444  -13.0654  -15.4880 C   0  0  0  0  0  0  0  0  0  0  0  0
   18.3564  -11.5908  -15.6924 C   0  0  2  0  0  0  0  0  0  0  0  0
   18.4454  -11.2916  -17.0912 N   0  0  0  0  0  0  0  0  0  0  0  0
   19.2160  -10.7358  -14.8357 C   0  0  0  0  0  0  0  0  0  0  0  0
   19.1438  -10.8569  -13.5809 O   0  0  0  0  0  0  0  0  0  0  0  0
   22.9825   -9.7836  -15.5633 C   0  0  0  0  0  0  0  0  0  0  0  0
   22.2596   -8.5294  -15.1264 C   0  0  1  0  0  0  0  0  0  0  0  0
   22.1149   -7.6877  -16.2194 O   0  0  0  0  0  0  0  0  0  0  0  0
   20.9612   -8.9320  -14.5120 C   0  0  2  0  0  0  0  0  0  0  0  0
   20.1298   -9.7693  -15.3382 N   0  0  0  0  0  0  0  0  0  0  0  0
   20.1893   -7.8005  -13.9195 C   0  0  0  0  0  0  0  0  0  0  0  0
   19.1728   -7.3237  -14.4399 O   0  0  0  0  0  0  0  0  0  0  0  0
   18.6114   -4.3179  -10.4968 N   0  0  0  0  0  0  0  0  0  0  0  0
   18.9945   -5.5029   -9.8242 C   0  0  0  0  0  0  0  0  0  0  0  0
   18.7167   -5.6435   -8.6143 O   0  0  0  0  0  0  0  0  0  0  0  0
   19.7140   -6.5599  -10.5543 C   0  0  0  0  0  0  0  0  0  0  0  0
   20.0219   -6.1604  -11.9848 C   0  0  2  0  0  0  0  0  0  0  0  0
   20.6547   -7.2592  -12.6968 N   0  0  0  0  0  0  0  0  0  0  0  0
   20.9681   -5.0109  -11.9309 C   0  0  0  0  0  0  0  0  0  0  0  0
   22.3092   -5.1411  -12.2374 O   0  0  0  0  0  0  0  0  0  0  0  0
   20.5409   -3.8856  -11.6004 O   0  0  0  0  0  0  0  0  0  0  0  0
  2  1  1  0
  3  2  2  0
  4  2  1  0
  4  5  1  0
  5  6  1  6
  7  5  1  0
  8  7  2  0
 10  9  1  6
 10 12  1  0
 11 10  1  0
 12 13  1  6
 12 14  1  0
 13  7  1  0
 14 15  2  0
 14 21  1  0
 17 16  1  0
 18 17  2  0
 19 17  1  0
 20 19  1  1
 20 22  1  0
 21 20  1  0
 22 23  1  0
 24 22  2  0
M  END
$$$$
