GMV.pdb
     RDKit          3D

 20 19  0  0  1  0  0  0  0  0999 V2000
   12.9514  -11.0884    5.8867 N   0  0  0  0  0  0  0  0  0  0  0  0
   14.3731  -11.1528    5.7156 C   0  0  0  0  0  0  0  0  0  0  0  0
   14.8109  -12.5193    5.2875 C   0  0  0  0  0  0  0  0  0  0  0  0
   14.0295  -13.4854    5.2035 O   0  0  0  0  0  0  0  0  0  0  0  0
   20.7050  -16.3750    1.7662 C   0  0  0  0  0  0  0  0  0  0  0  0
   19.9298  -14.7841    2.1586 S   0  0  0  0  0  0  0  0  0  0  0  0
   18.4834  -15.1393    3.2130 C   0  0  0  0  0  0  0  0  0  0  0  0
   17.8333  -13.8784    3.6637 C   0  0  0  0  0  0  0  0  0  0  0  0
   16.6051  -14.0593    4.5122 C   0  0  2  0  0  0  0  0  0  0  0  0
   16.1790  -12.7205    4.9631 N   0  0  0  0  0  0  0  0  0  0  0  0
   16.8849  -14.8736    5.7316 C   0  0  0  0  0  0  0  0  0  0  0  0
   17.4253  -14.3883    6.7582 O   0  0  0  0  0  0  0  0  0  0  0  0
   14.4565  -17.9699    7.0848 C   0  0  0  0  0  0  0  0  0  0  0  0
   15.5453  -17.2770    7.7898 C   0  0  1  0  0  0  0  0  0  0  0  0
   15.8199  -17.9910    9.0919 C   0  0  0  0  0  0  0  0  0  0  0  0
   16.7621  -17.0948    6.9487 C   0  0  2  0  0  0  0  0  0  0  0  0
   16.5427  -16.2752    5.7881 N   0  0  0  0  0  0  0  0  0  0  0  0
   17.3597  -18.4059    6.5595 C   0  0  0  0  0  0  0  0  0  0  0  0
   17.1462  -18.9539    5.4471 O   0  0  0  0  0  0  0  0  0  0  0  0
   18.1931  -19.0756    7.4436 O   0  0  0  0  0  0  0  0  0  0  0  0
  2  1  1  0
  3 10  1  0
  3  2  1  0
  4  3  2  0
  5  6  1  0
  6  7  1  0
  8  7  1  0
  9  8  1  6
  9 10  1  0
  9 11  1  0
 11 12  2  0
 14 13  1  6
 14 15  1  0
 16 14  1  0
 17 11  1  0
 16 17  1  6
 18 16  1  0
 18 20  1  0
 19 18  2  0
M  END
$$$$
