GMV.pdb
     RDKit          3D

 20 19  0  0  1  0  0  0  0  0999 V2000
   28.5042  -18.8784  -16.7154 N   0  0  0  0  0  0  0  0  0  0  0  0
   27.7505  -18.4133  -15.5884 C   0  0  0  0  0  0  0  0  0  0  0  0
   26.9159  -19.5082  -14.9993 C   0  0  0  0  0  0  0  0  0  0  0  0
   26.5931  -20.5298  -15.6341 O   0  0  0  0  0  0  0  0  0  0  0  0
   25.4481  -19.8855   -8.6050 C   0  0  0  0  0  0  0  0  0  0  0  0
   25.9108  -21.5694   -9.0914 S   0  0  0  0  0  0  0  0  0  0  0  0
   25.5850  -21.7181  -10.8807 C   0  0  0  0  0  0  0  0  0  0  0  0
   25.9022  -20.4457  -11.5851 C   0  0  0  0  0  0  0  0  0  0  0  0
   25.6654  -20.4598  -13.0700 C   0  0  2  0  0  0  0  0  0  0  0  0
   26.4738  -19.3736  -13.6561 N   0  0  0  0  0  0  0  0  0  0  0  0
   24.2374  -20.1874  -13.4094 C   0  0  0  0  0  0  0  0  0  0  0  0
   23.7414  -19.0328  -13.3650 O   0  0  0  0  0  0  0  0  0  0  0  0
   20.2373  -21.4138  -15.9055 C   0  0  0  0  0  0  0  0  0  0  0  0
   21.6615  -21.5432  -15.5628 C   0  0  1  0  0  0  0  0  0  0  0  0
   22.4887  -20.8994  -16.6499 C   0  0  0  0  0  0  0  0  0  0  0  0
   21.9820  -21.0358  -14.1986 C   0  0  2  0  0  0  0  0  0  0  0  0
   23.3489  -21.2527  -13.8096 N   0  0  0  0  0  0  0  0  0  0  0  0
   21.0504  -21.5936  -13.1745 C   0  0  0  0  0  0  0  0  0  0  0  0
   20.0588  -20.9587  -12.7309 O   0  0  0  0  0  0  0  0  0  0  0  0
   21.2613  -22.8684  -12.6693 O   0  0  0  0  0  0  0  0  0  0  0  0
  2  1  1  0
  3 10  1  0
  3  2  1  0
  4  3  2  0
  5  6  1  0
  6  7  1  0
  8  7  1  0
  9  8  1  1
  9 10  1  0
  9 11  1  0
 11 12  2  0
 14 13  1  6
 14 15  1  0
 16 14  1  0
 17 11  1  0
 16 17  1  1
 18 16  1  0
 18 20  1  0
 19 18  2  0
M  END
$$$$
