DAY.pdb
     RDKit          3D

 26 26  0  0  1  0  0  0  0  0999 V2000
    8.5223  -18.6723   19.9079 N   0  0  0  0  0  0  0  0  0  0  0  0
    9.7838  -17.9818   19.9324 C   0  0  1  0  0  0  0  0  0  0  0  0
   10.2749  -17.8410   18.4870 C   0  0  0  0  0  0  0  0  0  0  0  0
   10.5335  -19.1834   17.9094 C   0  0  0  0  0  0  0  0  0  0  0  0
    9.7709  -19.6873   17.0677 O   0  0  0  0  0  0  0  0  0  0  0  0
    9.5883  -16.5993   20.4533 C   0  0  0  0  0  0  0  0  0  0  0  0
   10.5488  -15.7880   20.4416 O   0  0  0  0  0  0  0  0  0  0  0  0
   11.6545  -19.8785   18.3280 O   0  0  0  0  0  0  0  0  0  0  0  0
    6.6865  -14.4683   21.4552 C   0  0  0  0  0  0  0  0  0  0  0  0
    8.1639  -14.7976   21.4568 C   0  0  2  0  0  0  0  0  0  0  0  0
    8.3502  -16.1497   20.9696 N   0  0  0  0  0  0  0  0  0  0  0  0
    8.7387  -14.6205   22.8120 C   0  0  0  0  0  0  0  0  0  0  0  0
    9.0468  -13.4768   23.2305 O   0  0  0  0  0  0  0  0  0  0  0  0
    6.0108  -10.7333   27.0959 O   0  0  0  0  0  0  0  0  0  0  0  0
    6.6262  -11.9585   26.8272 C   0  0  0  0  0  0  0  0  0  0  0  0
    5.9001  -13.0401   26.3739 C   0  0  0  0  0  0  0  0  0  0  0  0
    6.4970  -14.2540   26.1055 C   0  0  0  0  0  0  0  0  0  0  0  0
    7.8575  -14.4443   26.2792 C   0  0  0  0  0  0  0  0  0  0  0  0
    8.5113  -15.7459   25.9944 C   0  0  0  0  0  0  0  0  0  0  0  0
    9.6041  -15.6456   24.9582 C   0  0  2  0  0  0  0  0  0  0  0  0
    8.9521  -15.7273   23.6596 N   0  0  0  0  0  0  0  0  0  0  0  0
   10.6689  -16.6468   25.1034 C   0  0  0  0  0  0  0  0  0  0  0  0
   10.9610  -17.5143   24.0643 O   0  0  0  0  0  0  0  0  0  0  0  0
    8.5810  -13.3573   26.7337 C   0  0  0  0  0  0  0  0  0  0  0  0
    7.9820  -12.1442   27.0014 C   0  0  0  0  0  0  0  0  0  0  0  0
   11.3676  -16.7797   26.1545 O   0  0  0  0  0  0  0  0  0  0  0  0
  2  1  1  6
  2  3  1  0
  4  3  1  0
  4  8  1  0
  5  4  2  0
  6  2  1  0
  7  6  2  0
 10  9  1  1
 10 11  1  0
 11  6  1  0
 12 10  1  0
 12 21  1  0
 13 12  2  0
 15 14  1  0
 16 15  2  0
 17 16  1  0
 18 24  1  0
 18 17  2  0
 19 18  1  0
 20 21  1  0
 20 22  1  0
 20 19  1  1
 22 26  2  0
 22 23  1  0
 24 25  2  0
 25 15  1  0
M  END
$$$$
