DAY.pdb
     RDKit          3D

 26 26  0  0  1  0  0  0  0  0999 V2000
    7.2001  -18.5390   20.1745 N   0  0  0  0  0  0  0  0  0  0  0  0
    8.5820  -18.2064   19.9550 C   0  0  1  0  0  0  0  0  0  0  0  0
    8.9048  -18.4724   18.4801 C   0  0  0  0  0  0  0  0  0  0  0  0
    8.6496  -19.8983   18.1574 C   0  0  0  0  0  0  0  0  0  0  0  0
    8.9367  -20.8072   18.9546 O   0  0  0  0  0  0  0  0  0  0  0  0
    8.7884  -16.7479   20.1807 C   0  0  0  0  0  0  0  0  0  0  0  0
    9.9318  -16.2491   20.0228 O   0  0  0  0  0  0  0  0  0  0  0  0
    8.0778  -20.2077   16.9358 O   0  0  0  0  0  0  0  0  0  0  0  0
    6.6094  -13.7512   20.6657 C   0  0  0  0  0  0  0  0  0  0  0  0
    7.9427  -14.4613   20.7624 C   0  0  2  0  0  0  0  0  0  0  0  0
    7.7389  -15.8835   20.5715 N   0  0  0  0  0  0  0  0  0  0  0  0
    8.5975  -14.1720   22.0607 C   0  0  0  0  0  0  0  0  0  0  0  0
    8.9215  -12.9970   22.3646 O   0  0  0  0  0  0  0  0  0  0  0  0
   11.2395  -15.0957   30.4522 O   0  0  0  0  0  0  0  0  0  0  0  0
   10.6136  -15.1179   29.2034 C   0  0  0  0  0  0  0  0  0  0  0  0
   10.2203  -13.9527   28.5789 C   0  0  0  0  0  0  0  0  0  0  0  0
    9.6017  -13.9627   27.3464 C   0  0  0  0  0  0  0  0  0  0  0  0
    9.3459  -15.1470   26.6760 C   0  0  0  0  0  0  0  0  0  0  0  0
    8.6806  -15.1709   25.3495 C   0  0  0  0  0  0  0  0  0  0  0  0
    9.6472  -15.0266   24.1994 C   0  0  2  0  0  0  0  0  0  0  0  0
    8.8709  -15.2049   22.9813 N   0  0  0  0  0  0  0  0  0  0  0  0
   10.7968  -15.9388   24.2577 C   0  0  0  0  0  0  0  0  0  0  0  0
   10.7154  -17.2047   23.7023 O   0  0  0  0  0  0  0  0  0  0  0  0
    9.7421  -16.3123   27.3058 C   0  0  0  0  0  0  0  0  0  0  0  0
   10.3606  -16.2998   28.5384 C   0  0  0  0  0  0  0  0  0  0  0  0
   11.9030  -15.6385   24.8024 O   0  0  0  0  0  0  0  0  0  0  0  0
  2  1  1  6
  2  3  1  0
  4  3  1  0
  4  8  1  0
  5  4  2  0
  6  2  1  0
  7  6  2  0
 10  9  1  1
 10 11  1  0
 11  6  1  0
 12 10  1  0
 12 21  1  0
 13 12  2  0
 15 14  1  0
 16 15  2  0
 17 16  1  0
 18 24  1  0
 18 17  2  0
 19 18  1  0
 20 21  1  0
 20 22  1  0
 20 19  1  1
 22 26  2  0
 22 23  1  0
 24 25  2  0
 25 15  1  0
M  END
$$$$
