DAY.pdb
     RDKit          3D

 26 26  0  0  1  0  0  0  0  0999 V2000
   12.2325  -14.4789   17.6083 N   0  0  0  0  0  0  0  0  0  0  0  0
   12.6613  -15.3862   18.6386 C   0  0  1  0  0  0  0  0  0  0  0  0
   13.8772  -14.7679   19.3383 C   0  0  0  0  0  0  0  0  0  0  0  0
   15.0790  -14.9089   18.4790 C   0  0  0  0  0  0  0  0  0  0  0  0
   15.0531  -15.5710   17.4279 O   0  0  0  0  0  0  0  0  0  0  0  0
   11.5938  -15.5132   19.6707 C   0  0  0  0  0  0  0  0  0  0  0  0
   10.9125  -14.5055   19.9889 O   0  0  0  0  0  0  0  0  0  0  0  0
   16.2491  -14.2824   18.8708 O   0  0  0  0  0  0  0  0  0  0  0  0
    9.3930  -18.0652   20.9555 C   0  0  0  0  0  0  0  0  0  0  0  0
   10.2423  -16.8596   21.2963 C   0  0  2  0  0  0  0  0  0  0  0  0
   11.3068  -16.7366   20.3204 N   0  0  0  0  0  0  0  0  0  0  0  0
   10.7748  -16.9669   22.6759 C   0  0  0  0  0  0  0  0  0  0  0  0
   11.4632  -17.9600   23.0192 O   0  0  0  0  0  0  0  0  0  0  0  0
   10.7680  -15.0596   31.4122 O   0  0  0  0  0  0  0  0  0  0  0  0
   10.6355  -15.0206   30.0220 C   0  0  0  0  0  0  0  0  0  0  0  0
    9.4381  -14.6831   29.4262 C   0  0  0  0  0  0  0  0  0  0  0  0
    9.2959  -14.6414   28.0551 C   0  0  0  0  0  0  0  0  0  0  0  0
   10.3520  -14.9373   27.2098 C   0  0  0  0  0  0  0  0  0  0  0  0
   10.2113  -14.8964   25.7328 C   0  0  0  0  0  0  0  0  0  0  0  0
   10.8518  -16.0767   25.0440 C   0  0  2  0  0  0  0  0  0  0  0  0
   10.5219  -15.9606   23.6312 N   0  0  0  0  0  0  0  0  0  0  0  0
   10.4635  -17.3819   25.5943 C   0  0  0  0  0  0  0  0  0  0  0  0
    9.1917  -17.8840   25.3755 O   0  0  0  0  0  0  0  0  0  0  0  0
   11.5501  -15.2749   27.8116 C   0  0  0  0  0  0  0  0  0  0  0  0
   11.6900  -15.3159   29.1830 C   0  0  0  0  0  0  0  0  0  0  0  0
   11.2404  -18.1112   26.2837 O   0  0  0  0  0  0  0  0  0  0  0  0
  2  1  1  6
  2  3  1  0
  4  3  1  0
  4  8  1  0
  5  4  2  0
  6  2  1  0
  7  6  2  0
 10  9  1  6
 10 11  1  0
 11  6  1  0
 12 10  1  0
 12 21  1  0
 13 12  2  0
 15 14  1  0
 16 15  2  0
 17 16  1  0
 18 24  1  0
 18 17  2  0
 19 18  1  0
 20 21  1  0
 20 22  1  0
 20 19  1  1
 22 26  2  0
 22 23  1  0
 24 25  2  0
 25 15  1  0
M  END
$$$$
