DAY.pdb
     RDKit          3D

 26 26  0  0  1  0  0  0  0  0999 V2000
   11.4199  -19.3010   15.9124 N   0  0  0  0  0  0  0  0  0  0  0  0
   11.7361  -17.9794   16.3836 C   0  0  1  0  0  0  0  0  0  0  0  0
   11.1309  -16.9691   15.4021 C   0  0  0  0  0  0  0  0  0  0  0  0
   11.9137  -16.9602   14.1412 C   0  0  0  0  0  0  0  0  0  0  0  0
   13.1053  -17.3110   14.1129 O   0  0  0  0  0  0  0  0  0  0  0  0
   11.0757  -17.7450   17.6988 C   0  0  0  0  0  0  0  0  0  0  0  0
   11.0793  -16.5921   18.2005 O   0  0  0  0  0  0  0  0  0  0  0  0
   11.2880  -16.5489   12.9775 O   0  0  0  0  0  0  0  0  0  0  0  0
    9.0667  -19.7852   20.1385 C   0  0  0  0  0  0  0  0  0  0  0  0
    9.8452  -18.5540   19.7269 C   0  0  2  0  0  0  0  0  0  0  0  0
   10.4337  -18.7779   18.4215 N   0  0  0  0  0  0  0  0  0  0  0  0
   10.8743  -18.2215   20.7411 C   0  0  0  0  0  0  0  0  0  0  0  0
   12.0325  -18.7005   20.6563 O   0  0  0  0  0  0  0  0  0  0  0  0
   14.2509  -13.8680   18.0343 O   0  0  0  0  0  0  0  0  0  0  0  0
   13.6378  -14.2880   19.2173 C   0  0  0  0  0  0  0  0  0  0  0  0
   14.3559  -14.9214   20.2101 C   0  0  0  0  0  0  0  0  0  0  0  0
   13.7611  -15.3402   21.3817 C   0  0  0  0  0  0  0  0  0  0  0  0
   12.4107  -15.1437   21.6169 C   0  0  0  0  0  0  0  0  0  0  0  0
   11.7590  -15.5903   22.8733 C   0  0  0  0  0  0  0  0  0  0  0  0
   11.4996  -17.0767   22.9101 C   0  0  2  0  0  0  0  0  0  0  0  0
   10.5784  -17.3632   21.8204 N   0  0  0  0  0  0  0  0  0  0  0  0
   10.9983  -17.5713   24.1989 C   0  0  0  0  0  0  0  0  0  0  0  0
   11.8510  -17.6888   25.2837 O   0  0  0  0  0  0  0  0  0  0  0  0
   11.6952  -14.5083   20.6189 C   0  0  0  0  0  0  0  0  0  0  0  0
   12.2921  -14.0903   19.4481 C   0  0  0  0  0  0  0  0  0  0  0  0
    9.7922  -17.9128   24.3975 O   0  0  0  0  0  0  0  0  0  0  0  0
  2  1  1  6
  2  3  1  0
  4  3  1  0
  4  8  1  0
  5  4  2  0
  6  2  1  0
  7  6  2  0
 10  9  1  1
 10 11  1  0
 11  6  1  0
 12 10  1  0
 12 21  1  0
 13 12  2  0
 15 14  1  0
 16 15  2  0
 17 16  1  0
 18 24  1  0
 18 17  2  0
 19 18  1  0
 20 21  1  0
 20 22  1  0
 20 19  1  1
 22 26  2  0
 22 23  1  0
 24 25  2  0
 25 15  1  0
M  END
$$$$
