DAY.pdb
     RDKit          3D

 26 26  0  0  1  0  0  0  0  0999 V2000
    9.6491  -12.9857   19.3814 N   0  0  0  0  0  0  0  0  0  0  0  0
    8.3037  -13.1145   19.8731 C   0  0  1  0  0  0  0  0  0  0  0  0
    7.3862  -13.3896   18.6762 C   0  0  0  0  0  0  0  0  0  0  0  0
    8.1600  -14.0323   17.5850 C   0  0  0  0  0  0  0  0  0  0  0  0
    8.7096  -15.1359   17.7401 O   0  0  0  0  0  0  0  0  0  0  0  0
    8.2082  -14.3037   20.7662 C   0  0  0  0  0  0  0  0  0  0  0  0
    7.1396  -14.5306   21.3886 O   0  0  0  0  0  0  0  0  0  0  0  0
    8.2633  -13.3749   16.3717 O   0  0  0  0  0  0  0  0  0  0  0  0
   10.0410  -17.4768   21.2580 C   0  0  0  0  0  0  0  0  0  0  0  0
    9.1789  -16.3635   21.8136 C   0  0  2  0  0  0  0  0  0  0  0  0
    9.2834  -15.2048   20.9493 N   0  0  0  0  0  0  0  0  0  0  0  0
    9.5707  -16.0433   23.2072 C   0  0  0  0  0  0  0  0  0  0  0  0
   10.5599  -15.3045   23.4388 O   0  0  0  0  0  0  0  0  0  0  0  0
    6.5499  -10.5273   26.3995 O   0  0  0  0  0  0  0  0  0  0  0  0
    6.8937  -11.8814   26.4110 C   0  0  0  0  0  0  0  0  0  0  0  0
    5.9896  -12.8527   26.0346 C   0  0  0  0  0  0  0  0  0  0  0  0
    6.3180  -14.1921   26.0421 C   0  0  0  0  0  0  0  0  0  0  0  0
    7.5748  -14.6257   26.4291 C   0  0  0  0  0  0  0  0  0  0  0  0
    7.9400  -16.0643   26.4419 C   0  0  0  0  0  0  0  0  0  0  0  0
    9.2175  -16.3576   25.6937 C   0  0  2  0  0  0  0  0  0  0  0  0
    8.8449  -16.5586   24.3012 N   0  0  0  0  0  0  0  0  0  0  0  0
    9.9841  -17.4911   26.2273 C   0  0  0  0  0  0  0  0  0  0  0  0
   10.6759  -17.3690   27.4207 O   0  0  0  0  0  0  0  0  0  0  0  0
    8.4775  -13.6485   26.8055 C   0  0  0  0  0  0  0  0  0  0  0  0
    8.1469  -12.3096   26.7971 C   0  0  0  0  0  0  0  0  0  0  0  0
   10.0615  -18.6187   25.6502 O   0  0  0  0  0  0  0  0  0  0  0  0
  2  1  1  6
  2  3  1  0
  4  3  1  0
  4  8  1  0
  5  4  2  0
  6  2  1  0
  7  6  2  0
 10  9  1  6
 10 11  1  0
 11  6  1  0
 12 10  1  0
 12 21  1  0
 13 12  2  0
 15 14  1  0
 16 15  2  0
 17 16  1  0
 18 24  1  0
 18 17  2  0
 19 18  1  0
 20 21  1  0
 20 22  1  0
 20 19  1  1
 22 26  2  0
 22 23  1  0
 24 25  2  0
 25 15  1  0
M  END
$$$$
