DAY.pdb
     RDKit          3D

 26 26  0  0  1  0  0  0  0  0999 V2000
    9.5775  -18.9705   19.9709 N   0  0  0  0  0  0  0  0  0  0  0  0
    9.8176  -18.7952   21.3781 C   0  0  1  0  0  0  0  0  0  0  0  0
   10.7365  -17.5808   21.5543 C   0  0  0  0  0  0  0  0  0  0  0  0
   12.1088  -17.9168   21.0998 C   0  0  0  0  0  0  0  0  0  0  0  0
   12.3693  -19.0106   20.5710 O   0  0  0  0  0  0  0  0  0  0  0  0
    8.5381  -18.4658   22.0676 C   0  0  0  0  0  0  0  0  0  0  0  0
    7.7182  -17.6863   21.5191 O   0  0  0  0  0  0  0  0  0  0  0  0
   13.1116  -16.9796   21.2757 O   0  0  0  0  0  0  0  0  0  0  0  0
    6.6543  -19.7946   25.0112 C   0  0  0  0  0  0  0  0  0  0  0  0
    6.9176  -18.7375   23.9602 C   0  0  2  0  0  0  0  0  0  0  0  0
    8.1977  -18.9990   23.3330 N   0  0  0  0  0  0  0  0  0  0  0  0
    6.8678  -17.3813   24.5572 C   0  0  0  0  0  0  0  0  0  0  0  0
    5.8131  -16.9572   25.0916 O   0  0  0  0  0  0  0  0  0  0  0  0
   11.0060  -15.6003   30.6671 O   0  0  0  0  0  0  0  0  0  0  0  0
   10.1042  -15.4833   29.6064 C   0  0  0  0  0  0  0  0  0  0  0  0
    9.4001  -16.5746   29.1417 C   0  0  0  0  0  0  0  0  0  0  0  0
    8.5076  -16.4707   28.0956 C   0  0  0  0  0  0  0  0  0  0  0  0
    8.2759  -15.2621   27.4607 C   0  0  0  0  0  0  0  0  0  0  0  0
    7.3184  -15.1378   26.3335 C   0  0  0  0  0  0  0  0  0  0  0  0
    7.9897  -15.1526   24.9818 C   0  0  2  0  0  0  0  0  0  0  0  0
    7.9989  -16.5390   24.5392 N   0  0  0  0  0  0  0  0  0  0  0  0
    9.3342  -14.5615   24.9678 C   0  0  0  0  0  0  0  0  0  0  0  0
    9.5072  -13.2088   25.2079 O   0  0  0  0  0  0  0  0  0  0  0  0
    8.9840  -14.1713   27.9300 C   0  0  0  0  0  0  0  0  0  0  0  0
    9.8760  -14.2774   28.9764 C   0  0  0  0  0  0  0  0  0  0  0  0
   10.3905  -15.2278   24.7421 O   0  0  0  0  0  0  0  0  0  0  0  0
  2  1  1  6
  2  3  1  0
  4  3  1  0
  4  8  1  0
  5  4  2  0
  6  2  1  0
  7  6  2  0
 10  9  1  1
 10 11  1  0
 11  6  1  0
 12 10  1  0
 12 21  1  0
 13 12  2  0
 15 14  1  0
 16 15  2  0
 17 16  1  0
 18 24  1  0
 18 17  2  0
 19 18  1  0
 20 21  1  0
 20 22  1  0
 20 19  1  1
 22 26  2  0
 22 23  1  0
 24 25  2  0
 25 15  1  0
M  END
$$$$
