DAY.pdb
     RDKit          3D

 26 26  0  0  1  0  0  0  0  0999 V2000
    7.6523  -19.4493   19.8784 N   0  0  0  0  0  0  0  0  0  0  0  0
    7.2036  -18.6335   20.9747 C   0  0  1  0  0  0  0  0  0  0  0  0
    7.7219  -19.2598   22.2744 C   0  0  0  0  0  0  0  0  0  0  0  0
    6.9994  -20.5272   22.5465 C   0  0  0  0  0  0  0  0  0  0  0  0
    7.0356  -21.4805   21.7503 O   0  0  0  0  0  0  0  0  0  0  0  0
    7.8201  -17.2803   20.8775 C   0  0  0  0  0  0  0  0  0  0  0  0
    9.0524  -17.1723   20.6524 O   0  0  0  0  0  0  0  0  0  0  0  0
    6.2722  -20.6352   23.7188 O   0  0  0  0  0  0  0  0  0  0  0  0
    6.5771  -13.7499   20.6989 C   0  0  0  0  0  0  0  0  0  0  0  0
    7.6702  -14.7784   20.8952 C   0  0  2  0  0  0  0  0  0  0  0  0
    7.0697  -16.0906   21.0296 N   0  0  0  0  0  0  0  0  0  0  0  0
    8.5062  -14.4366   22.0710 C   0  0  0  0  0  0  0  0  0  0  0  0
    9.2201  -13.4030   22.0680 O   0  0  0  0  0  0  0  0  0  0  0  0
   11.0901  -14.9040   30.5930 O   0  0  0  0  0  0  0  0  0  0  0  0
   10.4419  -14.8659   29.3559 C   0  0  0  0  0  0  0  0  0  0  0  0
   10.0028  -16.0203   28.7420 C   0  0  0  0  0  0  0  0  0  0  0  0
    9.3619  -15.9946   27.5211 C   0  0  0  0  0  0  0  0  0  0  0  0
    9.1287  -14.8047   26.8524 C   0  0  0  0  0  0  0  0  0  0  0  0
    8.4406  -14.7641   25.5380 C   0  0  0  0  0  0  0  0  0  0  0  0
    9.3669  -15.0293   24.3762 C   0  0  2  0  0  0  0  0  0  0  0  0
    8.5196  -15.2604   23.2156 N   0  0  0  0  0  0  0  0  0  0  0  0
   10.3120  -16.1319   24.5959 C   0  0  0  0  0  0  0  0  0  0  0  0
   10.0310  -17.4009   24.1182 O   0  0  0  0  0  0  0  0  0  0  0  0
    9.5706  -13.6503   27.4718 C   0  0  0  0  0  0  0  0  0  0  0  0
   10.2112  -13.6784   28.6928 C   0  0  0  0  0  0  0  0  0  0  0  0
   11.4108  -16.0000   25.2170 O   0  0  0  0  0  0  0  0  0  0  0  0
  2  1  1  6
  2  3  1  0
  4  3  1  0
  4  8  1  0
  5  4  2  0
  6  2  1  0
  7  6  2  0
 10  9  1  1
 10 11  1  0
 11  6  1  0
 12 10  1  0
 12 21  1  0
 13 12  2  0
 15 14  1  0
 16 15  2  0
 17 16  1  0
 18 24  1  0
 18 17  2  0
 19 18  1  0
 20 21  1  0
 20 22  1  0
 20 19  1  1
 22 26  2  0
 22 23  1  0
 24 25  2  0
 25 15  1  0
M  END
$$$$
