DAY.pdb
     RDKit          3D

 26 26  0  0  1  0  0  0  0  0999 V2000
    7.6378  -18.7222   20.8612 N   0  0  0  0  0  0  0  0  0  0  0  0
    9.0125  -18.4599   20.5298 C   0  0  1  0  0  0  0  0  0  0  0  0
    9.1512  -18.5172   19.0040 C   0  0  0  0  0  0  0  0  0  0  0  0
    8.8889  -19.8973   18.5255 C   0  0  0  0  0  0  0  0  0  0  0  0
    9.1145  -20.8878   19.2410 O   0  0  0  0  0  0  0  0  0  0  0  0
    9.3708  -17.0724   20.9390 C   0  0  0  0  0  0  0  0  0  0  0  0
   10.5414  -16.6518   20.7554 O   0  0  0  0  0  0  0  0  0  0  0  0
    8.3810  -20.0694   17.2498 O   0  0  0  0  0  0  0  0  0  0  0  0
    7.5607  -13.9522   21.7522 C   0  0  0  0  0  0  0  0  0  0  0  0
    8.7848  -14.8309   21.8952 C   0  0  2  0  0  0  0  0  0  0  0  0
    8.4382  -16.1914   21.5353 N   0  0  0  0  0  0  0  0  0  0  0  0
    9.3290  -14.7512   23.2721 C   0  0  0  0  0  0  0  0  0  0  0  0
    9.8391  -13.6844   23.6963 O   0  0  0  0  0  0  0  0  0  0  0  0
    5.5940  -10.9221   26.3998 O   0  0  0  0  0  0  0  0  0  0  0  0
    6.2881  -12.1346   26.3878 C   0  0  0  0  0  0  0  0  0  0  0  0
    5.6907  -13.2972   25.9474 C   0  0  0  0  0  0  0  0  0  0  0  0
    6.3663  -14.4993   25.9312 C   0  0  0  0  0  0  0  0  0  0  0  0
    7.6801  -14.5957   26.3577 C   0  0  0  0  0  0  0  0  0  0  0  0
    8.4176  -15.8837   26.3455 C   0  0  0  0  0  0  0  0  0  0  0  0
    9.6882  -15.8309   25.5329 C   0  0  2  0  0  0  0  0  0  0  0  0
    9.2870  -15.8664   24.1343 N   0  0  0  0  0  0  0  0  0  0  0  0
   10.6561  -16.8877   25.8547 C   0  0  0  0  0  0  0  0  0  0  0  0
   11.0940  -17.7594   24.8718 O   0  0  0  0  0  0  0  0  0  0  0  0
    8.2746  -13.4277   26.7981 C   0  0  0  0  0  0  0  0  0  0  0  0
    7.5971  -12.2265   26.8134 C   0  0  0  0  0  0  0  0  0  0  0  0
   11.1387  -17.0667   27.0147 O   0  0  0  0  0  0  0  0  0  0  0  0
  2  1  1  6
  2  3  1  0
  4  3  1  0
  4  8  1  0
  5  4  2  0
  6  2  1  0
  7  6  2  0
 10  9  1  1
 10 11  1  0
 11  6  1  0
 12 10  1  0
 12 21  1  0
 13 12  2  0
 15 14  1  0
 16 15  2  0
 17 16  1  0
 18 24  1  0
 18 17  2  0
 19 18  1  0
 20 21  1  0
 20 22  1  0
 20 19  1  1
 22 26  2  0
 22 23  1  0
 24 25  2  0
 25 15  1  0
M  END
$$$$
