DAY.pdb
     RDKit          3D

 26 26  0  0  1  0  0  0  0  0999 V2000
    8.5655  -18.6123   19.6604 N   0  0  0  0  0  0  0  0  0  0  0  0
    9.7676  -17.8314   19.7774 C   0  0  1  0  0  0  0  0  0  0  0  0
   10.2990  -17.5653   18.3642 C   0  0  0  0  0  0  0  0  0  0  0  0
   10.8891  -18.8070   17.8053 C   0  0  0  0  0  0  0  0  0  0  0  0
   10.1901  -19.6571   17.2286 O   0  0  0  0  0  0  0  0  0  0  0  0
    9.4462  -16.5023   20.3698 C   0  0  0  0  0  0  0  0  0  0  0  0
   10.3551  -15.6436   20.5024 O   0  0  0  0  0  0  0  0  0  0  0  0
   12.2517  -19.0092   17.9374 O   0  0  0  0  0  0  0  0  0  0  0  0
    6.3243  -14.6779   21.3794 C   0  0  0  0  0  0  0  0  0  0  0  0
    7.8279  -14.8428   21.3233 C   0  0  2  0  0  0  0  0  0  0  0  0
    8.1429  -16.1562   20.7976 N   0  0  0  0  0  0  0  0  0  0  0  0
    8.4285  -14.6312   22.6622 C   0  0  0  0  0  0  0  0  0  0  0  0
    8.2373  -13.5573   23.2854 O   0  0  0  0  0  0  0  0  0  0  0  0
   11.0750  -14.6240   30.8174 O   0  0  0  0  0  0  0  0  0  0  0  0
   10.5466  -14.7246   29.5281 C   0  0  0  0  0  0  0  0  0  0  0  0
   10.2714  -15.9514   28.9609 C   0  0  0  0  0  0  0  0  0  0  0  0
    9.7498  -16.0626   27.6892 C   0  0  0  0  0  0  0  0  0  0  0  0
    9.4769  -14.9441   26.9197 C   0  0  0  0  0  0  0  0  0  0  0  0
    8.9160  -15.0508   25.5497 C   0  0  0  0  0  0  0  0  0  0  0  0
    9.9440  -15.4469   24.5181 C   0  0  2  0  0  0  0  0  0  0  0  0
    9.2253  -15.6264   23.2653 N   0  0  0  0  0  0  0  0  0  0  0  0
   10.7328  -16.6333   24.8749 C   0  0  0  0  0  0  0  0  0  0  0  0
   11.9632  -16.4958   25.4951 O   0  0  0  0  0  0  0  0  0  0  0  0
    9.7543  -13.7167   27.4926 C   0  0  0  0  0  0  0  0  0  0  0  0
   10.2760  -13.6079   28.7646 C   0  0  0  0  0  0  0  0  0  0  0  0
   10.3529  -17.8224   24.6461 O   0  0  0  0  0  0  0  0  0  0  0  0
  2  1  1  6
  2  3  1  0
  4  3  1  0
  4  8  1  0
  5  4  2  0
  6  2  1  0
  7  6  2  0
 10  9  1  1
 10 11  1  0
 11  6  1  0
 12 10  1  0
 12 21  1  0
 13 12  2  0
 15 14  1  0
 16 15  2  0
 17 16  1  0
 18 24  1  0
 18 17  2  0
 19 18  1  0
 20 21  1  0
 20 22  1  0
 20 19  1  1
 22 26  2  0
 22 23  1  0
 24 25  2  0
 25 15  1  0
M  END
$$$$
