DAY.pdb
     RDKit          3D

 26 26  0  0  1  0  0  0  0  0999 V2000
    8.6779  -18.7500   19.8918 N   0  0  0  0  0  0  0  0  0  0  0  0
    9.7842  -17.8374   19.7827 C   0  0  1  0  0  0  0  0  0  0  0  0
   10.1660  -17.7307   18.3018 C   0  0  0  0  0  0  0  0  0  0  0  0
   10.6751  -19.0377   17.8170 C   0  0  0  0  0  0  0  0  0  0  0  0
   10.1480  -20.1091   18.1607 O   0  0  0  0  0  0  0  0  0  0  0  0
    9.3552  -16.4763   20.2120 C   0  0  0  0  0  0  0  0  0  0  0  0
   10.1791  -15.5268   20.1862 O   0  0  0  0  0  0  0  0  0  0  0  0
   11.7635  -19.0475   16.9624 O   0  0  0  0  0  0  0  0  0  0  0  0
    6.1569  -14.8141   21.2604 C   0  0  0  0  0  0  0  0  0  0  0  0
    7.6663  -14.9061   21.1939 C   0  0  2  0  0  0  0  0  0  0  0  0
    8.0407  -16.1984   20.6551 N   0  0  0  0  0  0  0  0  0  0  0  0
    8.2645  -14.6768   22.5310 C   0  0  0  0  0  0  0  0  0  0  0  0
    8.0108  -13.6270   23.1725 O   0  0  0  0  0  0  0  0  0  0  0  0
   11.0004  -14.6586   30.6609 O   0  0  0  0  0  0  0  0  0  0  0  0
   10.4658  -14.7672   29.3746 C   0  0  0  0  0  0  0  0  0  0  0  0
   10.2020  -13.6484   28.6122 C   0  0  0  0  0  0  0  0  0  0  0  0
    9.6745  -13.7437   27.3417 C   0  0  0  0  0  0  0  0  0  0  0  0
    9.3840  -14.9711   26.7701 C   0  0  0  0  0  0  0  0  0  0  0  0
    8.8156  -15.0866   25.4039 C   0  0  0  0  0  0  0  0  0  0  0  0
    9.8514  -15.4192   24.3577 C   0  0  2  0  0  0  0  0  0  0  0  0
    9.1290  -15.6279   23.1116 N   0  0  0  0  0  0  0  0  0  0  0  0
   10.7069  -16.5641   24.6962 C   0  0  0  0  0  0  0  0  0  0  0  0
   11.9712  -16.3619   25.2237 O   0  0  0  0  0  0  0  0  0  0  0  0
    9.6503  -16.0895   27.5381 C   0  0  0  0  0  0  0  0  0  0  0  0
   10.1779  -15.9918   28.8085 C   0  0  0  0  0  0  0  0  0  0  0  0
   10.3570  -17.7731   24.5331 O   0  0  0  0  0  0  0  0  0  0  0  0
  2  1  1  6
  2  3  1  0
  4  3  1  0
  4  8  1  0
  5  4  2  0
  6  2  1  0
  7  6  2  0
 10  9  1  1
 10 11  1  0
 11  6  1  0
 12 10  1  0
 12 21  1  0
 13 12  2  0
 15 14  1  0
 16 15  2  0
 17 16  1  0
 18 24  1  0
 18 17  2  0
 19 18  1  0
 20 21  1  0
 20 22  1  0
 20 19  1  1
 22 26  2  0
 22 23  1  0
 24 25  2  0
 25 15  1  0
M  END
$$$$
