DAY.pdb
     RDKit          3D

 26 26  0  0  1  0  0  0  0  0999 V2000
    8.9015  -18.7666   19.7661 N   0  0  0  0  0  0  0  0  0  0  0  0
    9.9541  -17.7971   19.6221 C   0  0  1  0  0  0  0  0  0  0  0  0
   10.3344  -17.7278   18.1386 C   0  0  0  0  0  0  0  0  0  0  0  0
   11.2494  -18.8462   17.7999 C   0  0  0  0  0  0  0  0  0  0  0  0
   10.9831  -20.0203   18.1073 O   0  0  0  0  0  0  0  0  0  0  0  0
    9.4464  -16.4468   19.9960 C   0  0  0  0  0  0  0  0  0  0  0  0
   10.1808  -15.4390   19.8350 O   0  0  0  0  0  0  0  0  0  0  0  0
   12.4232  -18.5591   17.1257 O   0  0  0  0  0  0  0  0  0  0  0  0
    6.2044  -14.9145   21.0499 C   0  0  0  0  0  0  0  0  0  0  0  0
    7.7175  -14.9503   21.0224 C   0  0  2  0  0  0  0  0  0  0  0  0
    8.1536  -16.2431   20.5333 N   0  0  0  0  0  0  0  0  0  0  0  0
    8.2730  -14.6579   22.3655 C   0  0  0  0  0  0  0  0  0  0  0  0
    7.9503  -13.6081   22.9753 O   0  0  0  0  0  0  0  0  0  0  0  0
   10.6933  -14.5903   30.6156 O   0  0  0  0  0  0  0  0  0  0  0  0
   10.2141  -14.7152   29.3092 C   0  0  0  0  0  0  0  0  0  0  0  0
    9.8812  -13.6061   28.5597 C   0  0  0  0  0  0  0  0  0  0  0  0
    9.4073  -13.7175   27.2695 C   0  0  0  0  0  0  0  0  0  0  0  0
    9.2430  -14.9521   26.6641 C   0  0  0  0  0  0  0  0  0  0  0  0
    8.7335  -15.0849   25.2765 C   0  0  0  0  0  0  0  0  0  0  0  0
    9.8304  -15.2856   24.2594 C   0  0  2  0  0  0  0  0  0  0  0  0
    9.1729  -15.5479   22.9877 N   0  0  0  0  0  0  0  0  0  0  0  0
   10.7934  -16.3381   24.6084 C   0  0  0  0  0  0  0  0  0  0  0  0
   11.9703  -16.0208   25.2655 O   0  0  0  0  0  0  0  0  0  0  0  0
    9.5781  -16.0607   27.4193 C   0  0  0  0  0  0  0  0  0  0  0  0
   10.0519  -15.9468   28.7094 C   0  0  0  0  0  0  0  0  0  0  0  0
   10.6178  -17.5660   24.3399 O   0  0  0  0  0  0  0  0  0  0  0  0
  2  1  1  6
  2  3  1  0
  4  3  1  0
  4  8  1  0
  5  4  2  0
  6  2  1  0
  7  6  2  0
 10  9  1  1
 10 11  1  0
 11  6  1  0
 12 10  1  0
 12 21  1  0
 13 12  2  0
 15 14  1  0
 16 15  2  0
 17 16  1  0
 18 24  1  0
 18 17  2  0
 19 18  1  0
 20 21  1  0
 20 22  1  0
 20 19  1  1
 22 26  2  0
 22 23  1  0
 24 25  2  0
 25 15  1  0
M  END
$$$$
