LNQ.pdb
     RDKit          3D

 26 25  0  0  1  0  0  0  0  0999 V2000
    6.7825  -12.6154   19.4974 C   0  0  0  0  0  0  0  0  0  0  0  0
    8.1437  -13.2800   19.4761 C   0  0  1  0  0  0  0  0  0  0  0  0
    9.2050  -12.2230   19.6340 C   0  0  0  0  0  0  0  0  0  0  0  0
    8.1740  -14.3067   20.5717 C   0  0  0  0  0  0  0  0  0  0  0  0
    9.5561  -14.8392   20.8430 C   0  0  2  0  0  0  0  0  0  0  0  0
   10.2080  -15.3541   19.6861 N   0  0  0  0  0  0  0  0  0  0  0  0
    9.5781  -15.8416   21.9214 C   0  0  0  0  0  0  0  0  0  0  0  0
    8.9020  -15.6339   22.9588 O   0  0  0  0  0  0  0  0  0  0  0  0
   11.7055  -21.4645   23.4355 N   0  0  0  0  0  0  0  0  0  0  0  0
   10.6824  -20.4381   23.4466 C   0  0  0  0  0  0  0  0  0  0  0  0
    9.8564  -20.5515   24.3742 O   0  0  0  0  0  0  0  0  0  0  0  0
   10.6831  -19.3861   22.4202 C   0  0  0  0  0  0  0  0  0  0  0  0
   10.2522  -18.0612   22.9281 C   0  0  2  0  0  0  0  0  0  0  0  0
   10.3216  -17.0433   21.8683 N   0  0  0  0  0  0  0  0  0  0  0  0
   11.1116  -17.5913   24.0734 C   0  0  0  0  0  0  0  0  0  0  0  0
   12.2857  -17.1987   23.9365 O   0  0  0  0  0  0  0  0  0  0  0  0
   10.9018  -13.0041   27.6742 N   0  0  0  0  0  0  0  0  0  0  0  0
    9.7503  -13.8363   27.6406 C   0  0  0  0  0  0  0  0  0  0  0  0
    8.6218  -13.3748   27.9199 O   0  0  0  0  0  0  0  0  0  0  0  0
    9.8590  -15.2693   27.2757 C   0  0  0  0  0  0  0  0  0  0  0  0
   11.1893  -15.6931   26.7724 C   0  0  0  0  0  0  0  0  0  0  0  0
   11.3566  -17.1442   26.5319 C   0  0  2  0  0  0  0  0  0  0  0  0
   10.5625  -17.5918   25.3872 N   0  0  0  0  0  0  0  0  0  0  0  0
   11.1007  -17.9973   27.7178 C   0  0  0  0  0  0  0  0  0  0  0  0
   10.1569  -18.8334   27.7759 O   0  0  0  0  0  0  0  0  0  0  0  0
   11.9052  -17.9101   28.8323 O   0  0  0  0  0  0  0  0  0  0  0  0
  2  3  1  1
  2  1  1  0
  4  5  1  0
  4  2  1  0
  5  6  1  6
  7  5  1  0
  7  8  2  0
 10  9  1  0
 11 10  2  0
 12 10  1  0
 13 12  1  6
 13 14  1  0
 14  7  1  0
 15 23  1  0
 15 13  1  0
 16 15  2  0
 18 17  1  0
 18 19  2  0
 20 21  1  0
 20 18  1  0
 22 21  1  1
 22 23  1  0
 22 24  1  0
 24 25  2  0
 24 26  1  0
M  END
$$$$
