LNQ.pdb
     RDKit          3D

 26 25  0  0  1  0  0  0  0  0999 V2000
    6.1999  -13.4568   19.1079 C   0  0  0  0  0  0  0  0  0  0  0  0
    7.6288  -13.8861   19.3696 C   0  0  1  0  0  0  0  0  0  0  0  0
    8.5308  -12.6875   19.2339 C   0  0  0  0  0  0  0  0  0  0  0  0
    7.6824  -14.5058   20.7366 C   0  0  0  0  0  0  0  0  0  0  0  0
    9.0848  -14.8130   21.1905 C   0  0  2  0  0  0  0  0  0  0  0  0
    9.8955  -15.4071   20.1813 N   0  0  0  0  0  0  0  0  0  0  0  0
    9.1205  -15.6334   22.4126 C   0  0  0  0  0  0  0  0  0  0  0  0
    8.2064  -15.4982   23.2628 O   0  0  0  0  0  0  0  0  0  0  0  0
    9.7578  -19.3024   22.2453 N   0  0  0  0  0  0  0  0  0  0  0  0
   10.9663  -19.3685   23.0425 C   0  0  0  0  0  0  0  0  0  0  0  0
   11.6581  -20.3857   22.8365 O   0  0  0  0  0  0  0  0  0  0  0  0
   11.2827  -18.2916   23.9914 C   0  0  0  0  0  0  0  0  0  0  0  0
   10.2681  -17.2105   24.0220 C   0  0  2  0  0  0  0  0  0  0  0  0
   10.1313  -16.5796   22.7002 N   0  0  0  0  0  0  0  0  0  0  0  0
   10.6257  -16.1315   25.0114 C   0  0  0  0  0  0  0  0  0  0  0  0
   11.1918  -15.0682   24.6949 O   0  0  0  0  0  0  0  0  0  0  0  0
    6.6641  -12.8620   25.7149 N   0  0  0  0  0  0  0  0  0  0  0  0
    7.3178  -12.4319   26.9014 C   0  0  0  0  0  0  0  0  0  0  0  0
    6.9571  -11.3859   27.4846 O   0  0  0  0  0  0  0  0  0  0  0  0
    8.4418  -13.2108   27.4745 C   0  0  0  0  0  0  0  0  0  0  0  0
    8.8824  -14.3730   26.6634 C   0  0  0  0  0  0  0  0  0  0  0  0
    9.9697  -15.1919   27.2454 C   0  0  2  0  0  0  0  0  0  0  0  0
   10.3039  -16.3271   26.3846 N   0  0  0  0  0  0  0  0  0  0  0  0
    9.7239  -15.6396   28.6379 C   0  0  0  0  0  0  0  0  0  0  0  0
    9.3764  -16.8165   28.9333 O   0  0  0  0  0  0  0  0  0  0  0  0
    9.8706  -14.7660   29.6925 O   0  0  0  0  0  0  0  0  0  0  0  0
  2  3  1  1
  2  1  1  0
  4  5  1  0
  4  2  1  0
  5  6  1  6
  7  5  1  0
  7  8  2  0
 10  9  1  0
 11 10  2  0
 12 10  1  0
 13 12  1  6
 13 14  1  0
 14  7  1  0
 15 23  1  0
 15 13  1  0
 16 15  2  0
 18 17  1  0
 18 19  2  0
 20 21  1  0
 20 18  1  0
 22 21  1  6
 22 23  1  0
 22 24  1  0
 24 25  2  0
 24 26  1  0
M  END
$$$$
