LNQ.pdb
     RDKit          3D

 26 25  0  0  1  0  0  0  0  0999 V2000
    8.0323  -11.6831   18.8561 C   0  0  0  0  0  0  0  0  0  0  0  0
    8.5575  -12.9342   19.5297 C   0  0  1  0  0  0  0  0  0  0  0  0
    8.1126  -12.9368   20.9686 C   0  0  0  0  0  0  0  0  0  0  0  0
    8.0524  -14.1206   18.7597 C   0  0  0  0  0  0  0  0  0  0  0  0
    8.5974  -15.4291   19.2677 C   0  0  2  0  0  0  0  0  0  0  0  0
    8.2906  -15.6842   20.6350 N   0  0  0  0  0  0  0  0  0  0  0  0
   10.0459  -15.5681   19.0423 C   0  0  0  0  0  0  0  0  0  0  0  0
   10.4730  -15.6498   17.8645 O   0  0  0  0  0  0  0  0  0  0  0  0
   14.8201  -15.7633   17.7420 N   0  0  0  0  0  0  0  0  0  0  0  0
   14.3298  -14.6900   18.5832 C   0  0  0  0  0  0  0  0  0  0  0  0
   15.2113  -13.8891   18.9536 O   0  0  0  0  0  0  0  0  0  0  0  0
   12.9028  -14.6172   18.9278 C   0  0  0  0  0  0  0  0  0  0  0  0
   12.4495  -15.7166   19.8138 C   0  0  2  0  0  0  0  0  0  0  0  0
   11.0060  -15.6170   20.0794 N   0  0  0  0  0  0  0  0  0  0  0  0
   13.1631  -15.7000   21.1409 C   0  0  0  0  0  0  0  0  0  0  0  0
   13.8661  -14.7492   21.5321 O   0  0  0  0  0  0  0  0  0  0  0  0
    8.1635  -15.8346   22.8589 N   0  0  0  0  0  0  0  0  0  0  0  0
    8.7482  -15.7052   24.1478 C   0  0  0  0  0  0  0  0  0  0  0  0
    8.0584  -15.3470   25.1277 O   0  0  0  0  0  0  0  0  0  0  0  0
   10.1876  -15.9900   24.3610 C   0  0  0  0  0  0  0  0  0  0  0  0
   10.9970  -16.1113   23.1229 C   0  0  0  0  0  0  0  0  0  0  0  0
   12.3396  -16.7133   23.2854 C   0  0  2  0  0  0  0  0  0  0  0  0
   13.0341  -16.8264   22.0024 N   0  0  0  0  0  0  0  0  0  0  0  0
   12.3489  -18.0093   24.0067 C   0  0  0  0  0  0  0  0  0  0  0  0
   11.7506  -19.0378   23.5857 O   0  0  0  0  0  0  0  0  0  0  0  0
   13.0304  -18.1462   25.1957 O   0  0  0  0  0  0  0  0  0  0  0  0
  2  3  1  1
  2  1  1  0
  4  5  1  0
  4  2  1  0
  5  6  1  1
  7  5  1  0
  7  8  2  0
 10  9  1  0
 11 10  2  0
 12 10  1  0
 13 12  1  6
 13 14  1  0
 14  7  1  0
 15 23  1  0
 15 13  1  0
 16 15  2  0
 18 17  1  0
 18 19  2  0
 20 21  1  0
 20 18  1  0
 22 21  1  6
 22 23  1  0
 22 24  1  0
 24 25  2  0
 24 26  1  0
M  END
$$$$
