LNQ.pdb
     RDKit          3D

 26 25  0  0  1  0  0  0  0  0999 V2000
    6.7984  -11.2561   26.2903 C   0  0  0  0  0  0  0  0  0  0  0  0
    6.9449  -12.7168   26.6642 C   0  0  1  0  0  0  0  0  0  0  0  0
    6.3011  -12.9434   28.0068 C   0  0  0  0  0  0  0  0  0  0  0  0
    6.3227  -13.5383   25.5718 C   0  0  0  0  0  0  0  0  0  0  0  0
    7.1506  -14.7369   25.1906 C   0  0  2  0  0  0  0  0  0  0  0  0
    8.5000  -14.6666   25.6410 N   0  0  0  0  0  0  0  0  0  0  0  0
    7.1161  -15.0159   23.7453 C   0  0  0  0  0  0  0  0  0  0  0  0
    6.0561  -14.7973   23.1088 O   0  0  0  0  0  0  0  0  0  0  0  0
    7.8426  -12.3187   19.3346 N   0  0  0  0  0  0  0  0  0  0  0  0
    8.5309  -13.4747   19.8731 C   0  0  0  0  0  0  0  0  0  0  0  0
    9.1910  -14.1138   19.0297 O   0  0  0  0  0  0  0  0  0  0  0  0
    8.4138  -13.8028   21.3010 C   0  0  0  0  0  0  0  0  0  0  0  0
    8.3910  -15.2600   21.5751 C   0  0  2  0  0  0  0  0  0  0  0  0
    8.2138  -15.5225   23.0118 N   0  0  0  0  0  0  0  0  0  0  0  0
    9.6659  -15.9345   21.1386 C   0  0  0  0  0  0  0  0  0  0  0  0
    9.7340  -16.7174   20.1724 O   0  0  0  0  0  0  0  0  0  0  0  0
   15.2017  -14.6641   19.5064 N   0  0  0  0  0  0  0  0  0  0  0  0
   13.8718  -14.5912   19.0106 C   0  0  0  0  0  0  0  0  0  0  0  0
   13.6272  -14.0254   17.9223 O   0  0  0  0  0  0  0  0  0  0  0  0
   12.7442  -15.1819   19.7709 C   0  0  0  0  0  0  0  0  0  0  0  0
   13.1282  -15.9076   21.0073 C   0  0  0  0  0  0  0  0  0  0  0  0
   12.0214  -16.5570   21.7453 C   0  0  2  0  0  0  0  0  0  0  0  0
   10.8634  -15.6700   21.8621 N   0  0  0  0  0  0  0  0  0  0  0  0
   12.4034  -17.1036   23.0701 C   0  0  0  0  0  0  0  0  0  0  0  0
   13.3156  -17.9620   23.2256 O   0  0  0  0  0  0  0  0  0  0  0  0
   11.7619  -16.6838   24.2143 O   0  0  0  0  0  0  0  0  0  0  0  0
  2  3  1  1
  2  1  1  0
  4  5  1  0
  4  2  1  0
  5  6  1  6
  7  5  1  0
  7  8  2  0
 10  9  1  0
 11 10  2  0
 12 10  1  0
 13 12  1  1
 13 14  1  0
 14  7  1  0
 15 23  1  0
 15 13  1  0
 16 15  2  0
 18 17  1  0
 18 19  2  0
 20 21  1  0
 20 18  1  0
 22 21  1  1
 22 23  1  0
 22 24  1  0
 24 25  2  0
 24 26  1  0
M  END
$$$$
