LNQ.pdb
     RDKit          3D

 26 25  0  0  1  0  0  0  0  0999 V2000
    7.8488  -12.0667   25.1357 C   0  0  0  0  0  0  0  0  0  0  0  0
    7.0840  -13.2908   25.5956 C   0  0  1  0  0  0  0  0  0  0  0  0
    5.9771  -12.8557   26.5196 C   0  0  0  0  0  0  0  0  0  0  0  0
    6.5792  -14.0059   24.3752 C   0  0  0  0  0  0  0  0  0  0  0  0
    6.4896  -15.4976   24.5604 C   0  0  2  0  0  0  0  0  0  0  0  0
    6.1035  -15.8886   25.8743 N   0  0  0  0  0  0  0  0  0  0  0  0
    7.7267  -16.1946   24.1707 C   0  0  0  0  0  0  0  0  0  0  0  0
    7.8780  -17.3961   24.5021 O   0  0  0  0  0  0  0  0  0  0  0  0
   11.5016  -17.1350   19.8852 N   0  0  0  0  0  0  0  0  0  0  0  0
   11.6432  -16.5144   21.1871 C   0  0  0  0  0  0  0  0  0  0  0  0
   12.7516  -16.7068   21.7258 O   0  0  0  0  0  0  0  0  0  0  0  0
   10.5325  -15.7401   21.7589 C   0  0  0  0  0  0  0  0  0  0  0  0
    9.9529  -16.3477   22.9812 C   0  0  2  0  0  0  0  0  0  0  0  0
    8.7748  -15.5932   23.4361 N   0  0  0  0  0  0  0  0  0  0  0  0
   10.9434  -16.3813   24.1165 C   0  0  0  0  0  0  0  0  0  0  0  0
   11.9073  -15.5984   24.2118 O   0  0  0  0  0  0  0  0  0  0  0  0
   10.5527  -13.4433   28.1648 N   0  0  0  0  0  0  0  0  0  0  0  0
   10.2322  -14.6300   28.8780 C   0  0  0  0  0  0  0  0  0  0  0  0
    9.6685  -14.5711   29.9930 O   0  0  0  0  0  0  0  0  0  0  0  0
   10.5589  -15.9640   28.3191 C   0  0  0  0  0  0  0  0  0  0  0  0
   11.3220  -15.9452   27.0463 C   0  0  0  0  0  0  0  0  0  0  0  0
   11.5254  -17.2592   26.3957 C   0  0  2  0  0  0  0  0  0  0  0  0
   10.7784  -17.3563   25.1411 N   0  0  0  0  0  0  0  0  0  0  0  0
   11.2469  -18.4264   27.2675 C   0  0  0  0  0  0  0  0  0  0  0  0
   11.9321  -18.7026   28.2908 O   0  0  0  0  0  0  0  0  0  0  0  0
   10.2004  -19.2772   26.9885 O   0  0  0  0  0  0  0  0  0  0  0  0
  2  3  1  1
  2  1  1  0
  4  5  1  0
  4  2  1  0
  5  6  1  1
  7  5  1  0
  7  8  2  0
 10  9  1  0
 11 10  2  0
 12 10  1  0
 13 12  1  6
 13 14  1  0
 14  7  1  0
 15 23  1  0
 15 13  1  0
 16 15  2  0
 18 17  1  0
 18 19  2  0
 20 21  1  0
 20 18  1  0
 22 21  1  1
 22 23  1  0
 22 24  1  0
 24 25  2  0
 24 26  1  0
M  END
$$$$
