LNQ.pdb
     RDKit          3D

 26 25  0  0  1  0  0  0  0  0999 V2000
    6.9283  -12.7485   20.5344 C   0  0  0  0  0  0  0  0  0  0  0  0
    7.4394  -13.4546   19.2955 C   0  0  1  0  0  0  0  0  0  0  0  0
    8.0700  -12.4383   18.3802 C   0  0  0  0  0  0  0  0  0  0  0  0
    8.4009  -14.5214   19.7349 C   0  0  0  0  0  0  0  0  0  0  0  0
    8.9544  -15.3253   18.5883 C   0  0  2  0  0  0  0  0  0  0  0  0
    7.9594  -16.0253   17.8477 N   0  0  0  0  0  0  0  0  0  0  0  0
   10.0179  -16.2541   19.0057 C   0  0  0  0  0  0  0  0  0  0  0  0
    9.6992  -17.3898   19.4360 O   0  0  0  0  0  0  0  0  0  0  0  0
   13.2100  -19.3614   17.5005 N   0  0  0  0  0  0  0  0  0  0  0  0
   13.1546  -17.9217   17.3443 C   0  0  0  0  0  0  0  0  0  0  0  0
   12.7863  -17.5453   16.2137 O   0  0  0  0  0  0  0  0  0  0  0  0
   13.5162  -17.0445   18.4667 C   0  0  0  0  0  0  0  0  0  0  0  0
   12.4279  -16.8711   19.4590 C   0  0  2  0  0  0  0  0  0  0  0  0
   11.3980  -15.9497   18.9548 N   0  0  0  0  0  0  0  0  0  0  0  0
   12.9397  -16.3184   20.7642 C   0  0  0  0  0  0  0  0  0  0  0  0
   13.4942  -15.2083   20.8710 O   0  0  0  0  0  0  0  0  0  0  0  0
   11.4112  -18.6844   26.5615 N   0  0  0  0  0  0  0  0  0  0  0  0
   12.3570  -17.6583   26.8308 C   0  0  0  0  0  0  0  0  0  0  0  0
   12.6728  -17.3751   28.0074 O   0  0  0  0  0  0  0  0  0  0  0  0
   12.9899  -16.8994   25.7253 C   0  0  0  0  0  0  0  0  0  0  0  0
   12.6042  -17.3342   24.3597 C   0  0  0  0  0  0  0  0  0  0  0  0
   13.2275  -16.5872   23.2439 C   0  0  2  0  0  0  0  0  0  0  0  0
   12.7866  -17.0984   21.9456 N   0  0  0  0  0  0  0  0  0  0  0  0
   14.7075  -16.5109   23.3062 C   0  0  0  0  0  0  0  0  0  0  0  0
   15.3261  -15.6157   23.9459 O   0  0  0  0  0  0  0  0  0  0  0  0
   15.4865  -17.4396   22.6524 O   0  0  0  0  0  0  0  0  0  0  0  0
  2  3  1  6
  2  1  1  0
  4  5  1  0
  4  2  1  0
  5  6  1  1
  7  5  1  0
  7  8  2  0
 10  9  1  0
 11 10  2  0
 12 10  1  0
 13 12  1  6
 13 14  1  0
 14  7  1  0
 15 23  1  0
 15 13  1  0
 16 15  2  0
 18 17  1  0
 18 19  2  0
 20 21  1  0
 20 18  1  0
 22 21  1  1
 22 23  1  0
 22 24  1  0
 24 25  2  0
 24 26  1  0
M  END
$$$$
