LNQ.pdb
     RDKit          3D

 26 25  0  0  1  0  0  0  0  0999 V2000
    6.9297  -12.5974   20.6746 C   0  0  0  0  0  0  0  0  0  0  0  0
    7.6185  -13.5573   19.7265 C   0  0  1  0  0  0  0  0  0  0  0  0
    8.5837  -12.7847   18.8663 C   0  0  0  0  0  0  0  0  0  0  0  0
    8.2902  -14.6184   20.5502 C   0  0  0  0  0  0  0  0  0  0  0  0
    8.8968  -15.7161   19.7170 C   0  0  2  0  0  0  0  0  0  0  0  0
    7.9477  -16.4250   18.9263 N   0  0  0  0  0  0  0  0  0  0  0  0
    9.6938  -16.6623   20.5155 C   0  0  0  0  0  0  0  0  0  0  0  0
    9.1704  -17.7451   20.8764 O   0  0  0  0  0  0  0  0  0  0  0  0
   15.4156  -18.2057   22.2959 N   0  0  0  0  0  0  0  0  0  0  0  0
   13.9974  -18.4212   22.0901 C   0  0  0  0  0  0  0  0  0  0  0  0
   13.5617  -19.4719   22.6016 O   0  0  0  0  0  0  0  0  0  0  0  0
   13.2056  -17.4413   21.3329 C   0  0  0  0  0  0  0  0  0  0  0  0
   11.7825  -17.3821   21.7457 C   0  0  2  0  0  0  0  0  0  0  0  0
   11.0316  -16.4314   20.9112 N   0  0  0  0  0  0  0  0  0  0  0  0
   11.6310  -16.9519   23.1820 C   0  0  0  0  0  0  0  0  0  0  0  0
   12.3856  -16.1314   23.7376 O   0  0  0  0  0  0  0  0  0  0  0  0
    6.2400  -17.0978   25.1446 N   0  0  0  0  0  0  0  0  0  0  0  0
    6.9346  -16.0786   24.4384 C   0  0  0  0  0  0  0  0  0  0  0  0
    6.3396  -15.3631   23.6027 O   0  0  0  0  0  0  0  0  0  0  0  0
    8.3790  -15.8405   24.6740 C   0  0  0  0  0  0  0  0  0  0  0  0
    9.0149  -16.7465   25.6626 C   0  0  0  0  0  0  0  0  0  0  0  0
   10.4074  -17.1515   25.3654 C   0  0  2  0  0  0  0  0  0  0  0  0
   10.5719  -17.5067   23.9553 N   0  0  0  0  0  0  0  0  0  0  0  0
   10.9371  -18.2221   26.2447 C   0  0  0  0  0  0  0  0  0  0  0  0
   11.3487  -19.3328   25.8087 O   0  0  0  0  0  0  0  0  0  0  0  0
   11.0043  -18.0415   27.6084 O   0  0  0  0  0  0  0  0  0  0  0  0
  2  3  1  1
  2  1  1  0
  4  5  1  0
  4  2  1  0
  5  6  1  1
  7  5  1  0
  7  8  2  0
 10  9  1  0
 11 10  2  0
 12 10  1  0
 13 12  1  6
 13 14  1  0
 14  7  1  0
 15 23  1  0
 15 13  1  0
 16 15  2  0
 18 17  1  0
 18 19  2  0
 20 21  1  0
 20 18  1  0
 22 21  1  1
 22 23  1  0
 22 24  1  0
 24 25  2  0
 24 26  1  0
M  END
$$$$
