LNQ.pdb
     RDKit          3D

 26 25  0  0  1  0  0  0  0  0999 V2000
    7.4403  -12.6950   21.1012 C   0  0  0  0  0  0  0  0  0  0  0  0
    7.8506  -13.3910   19.8197 C   0  0  1  0  0  0  0  0  0  0  0  0
    8.1699  -12.3494   18.7798 C   0  0  0  0  0  0  0  0  0  0  0  0
    9.0182  -14.2827   20.1314 C   0  0  0  0  0  0  0  0  0  0  0  0
    9.5422  -15.0124   18.9231 C   0  0  2  0  0  0  0  0  0  0  0  0
    8.7434  -16.1265   18.5366 N   0  0  0  0  0  0  0  0  0  0  0  0
   10.9466  -15.4282   19.0742 C   0  0  0  0  0  0  0  0  0  0  0  0
   11.2089  -16.6494   19.2029 O   0  0  0  0  0  0  0  0  0  0  0  0
   16.6046  -13.5580   18.5300 N   0  0  0  0  0  0  0  0  0  0  0  0
   15.6228  -14.4521   17.9497 C   0  0  0  0  0  0  0  0  0  0  0  0
   16.1110  -15.4675   17.4146 O   0  0  0  0  0  0  0  0  0  0  0  0
   14.1921  -14.1237   18.0243 C   0  0  0  0  0  0  0  0  0  0  0  0
   13.4337  -14.9851   18.9634 C   0  0  2  0  0  0  0  0  0  0  0  0
   12.0397  -14.5311   19.0849 N   0  0  0  0  0  0  0  0  0  0  0  0
   14.0397  -14.9825   20.3432 C   0  0  0  0  0  0  0  0  0  0  0  0
   15.2351  -15.2488   20.5700 O   0  0  0  0  0  0  0  0  0  0  0  0
   10.4621  -18.4988   23.3157 N   0  0  0  0  0  0  0  0  0  0  0  0
   11.5804  -18.4257   24.1898 C   0  0  0  0  0  0  0  0  0  0  0  0
   11.7204  -19.2540   25.1165 O   0  0  0  0  0  0  0  0  0  0  0  0
   12.6053  -17.3669   24.0253 C   0  0  0  0  0  0  0  0  0  0  0  0
   12.3794  -16.4414   22.8873 C   0  0  0  0  0  0  0  0  0  0  0  0
   13.3697  -15.3517   22.7346 C   0  0  2  0  0  0  0  0  0  0  0  0
   13.2107  -14.6598   21.4550 N   0  0  0  0  0  0  0  0  0  0  0  0
   14.7785  -15.7685   22.9378 C   0  0  0  0  0  0  0  0  0  0  0  0
   15.4550  -16.3677   22.0566 O   0  0  0  0  0  0  0  0  0  0  0  0
   15.4224  -15.5101   24.1276 O   0  0  0  0  0  0  0  0  0  0  0  0
  2  3  1  6
  2  1  1  0
  4  5  1  0
  4  2  1  0
  5  6  1  1
  7  5  1  0
  7  8  2  0
 10  9  1  0
 11 10  2  0
 12 10  1  0
 13 12  1  6
 13 14  1  0
 14  7  1  0
 15 23  1  0
 15 13  1  0
 16 15  2  0
 18 17  1  0
 18 19  2  0
 20 21  1  0
 20 18  1  0
 22 21  1  6
 22 23  1  0
 22 24  1  0
 24 25  2  0
 24 26  1  0
M  END
$$$$
