KIK.pdb
     RDKit          3D

 27 26  0  0  1  0  0  0  0  0999 V2000
    7.8132  -16.4004   21.4182 N   0  0  0  0  0  0  0  0  0  0  0  0
    9.0321  -16.8677   21.9344 C   0  0  1  0  0  0  0  0  0  0  0  0
   10.2170  -16.9941   21.0786 C   0  0  0  0  0  0  0  0  0  0  0  0
   10.1575  -17.1828   19.6420 C   0  0  0  0  0  0  0  0  0  0  0  0
    9.5004  -18.2541   18.9230 C   0  0  0  0  0  0  0  0  0  0  0  0
    9.5238  -18.3615   17.4576 C   0  0  0  0  0  0  0  0  0  0  0  0
   10.8848  -17.9058   16.9870 N   0  0  0  0  0  0  0  0  0  0  0  0
    9.4261  -15.9480   23.0770 C   0  0  0  0  0  0  0  0  0  0  0  0
   10.6179  -15.6337   23.2809 O   0  0  0  0  0  0  0  0  0  0  0  0
    6.7667  -11.6514   26.6363 C   0  0  0  0  0  0  0  0  0  0  0  0
    7.8352  -12.6691   26.4357 C   0  0  0  0  0  0  0  0  0  0  0  0
    7.6097  -13.6248   25.3131 C   0  0  2  0  0  0  0  0  0  0  0  0
    6.2531  -14.3035   25.5877 C   0  0  0  0  0  0  0  0  0  0  0  0
    8.6740  -14.6514   25.1161 C   0  0  2  0  0  0  0  0  0  0  0  0
    8.4299  -15.4427   23.9190 N   0  0  0  0  0  0  0  0  0  0  0  0
    8.9733  -15.4930   26.2883 C   0  0  0  0  0  0  0  0  0  0  0  0
    8.1555  -16.3650   26.6680 O   0  0  0  0  0  0  0  0  0  0  0  0
   10.1738  -15.3246   26.9895 N   0  0  0  0  0  0  0  0  0  0  0  0
   10.6917  -16.2730   27.9690 C   0  0  1  0  0  0  0  0  0  0  0  0
   12.0598  -16.6817   27.5401 C   0  0  0  0  0  0  0  0  0  0  0  0
   12.2215  -18.1447   27.3057 C   0  0  0  0  0  0  0  0  0  0  0  0
   13.3806  -18.7467   28.0568 C   0  0  0  0  0  0  0  0  0  0  0  0
   13.5562  -20.2051   27.8029 C   0  0  0  0  0  0  0  0  0  0  0  0
   13.8348  -20.5211   26.4259 N   0  0  0  0  0  0  0  0  0  0  0  0
   10.6391  -15.6477   29.3084 C   0  0  0  0  0  0  0  0  0  0  0  0
   10.7315  -16.3459   30.3557 O   0  0  0  0  0  0  0  0  0  0  0  0
   10.4876  -14.2789   29.4791 O   0  0  0  0  0  0  0  0  0  0  0  0
  2  1  1  6
  2  3  1  0
  3  4  1  0
  5  6  1  0
  5  4  1  0
  7  6  1  0
  8  2  1  0
  9  8  2  0
 11 10  1  0
 12 11  1  0
 12 13  1  1
 12 14  1  0
 14 15  1  6
 15  8  1  0
 16 17  2  0
 16 14  1  0
 18 16  1  0
 19 18  1  0
 20 21  1  0
 19 20  1  6
 21 22  1  0
 23 22  1  0
 23 24  1  0
 25 19  1  0
 26 25  2  0
 27 25  1  0
M  END
$$$$
