KIK.pdb
     RDKit          3D

 27 26  0  0  1  0  0  0  0  0999 V2000
    6.5310  -16.6615   21.2819 N   0  0  0  0  0  0  0  0  0  0  0  0
    6.3219  -17.0159   22.6240 C   0  0  1  0  0  0  0  0  0  0  0  0
    6.3076  -18.4224   23.0413 C   0  0  0  0  0  0  0  0  0  0  0  0
    5.1496  -19.2871   22.9216 C   0  0  0  0  0  0  0  0  0  0  0  0
    4.8477  -20.2073   21.8453 C   0  0  0  0  0  0  0  0  0  0  0  0
    4.0880  -21.4488   22.0482 C   0  0  0  0  0  0  0  0  0  0  0  0
    3.4693  -21.3868   23.4247 N   0  0  0  0  0  0  0  0  0  0  0  0
    7.4011  -16.3363   23.4487 C   0  0  0  0  0  0  0  0  0  0  0  0
    8.5952  -16.3278   23.0814 O   0  0  0  0  0  0  0  0  0  0  0  0
    5.5688  -12.1364   26.0626 C   0  0  0  0  0  0  0  0  0  0  0  0
    6.6861  -12.8883   25.4271 C   0  0  0  0  0  0  0  0  0  0  0  0
    7.3299  -13.9270   26.2821 C   0  0  2  0  0  0  0  0  0  0  0  0
    8.3599  -13.1885   27.1596 C   0  0  0  0  0  0  0  0  0  0  0  0
    7.9819  -15.0516   25.5503 C   0  0  2  0  0  0  0  0  0  0  0  0
    7.0475  -15.7062   24.6465 N   0  0  0  0  0  0  0  0  0  0  0  0
    8.7157  -16.0173   26.3876 C   0  0  0  0  0  0  0  0  0  0  0  0
    8.1118  -16.6889   27.2579 O   0  0  0  0  0  0  0  0  0  0  0  0
   10.0950  -16.1918   26.2192 N   0  0  0  0  0  0  0  0  0  0  0  0
   10.8958  -17.1601   26.9595 C   0  0  1  0  0  0  0  0  0  0  0  0
   12.2009  -17.3167   26.2560 C   0  0  0  0  0  0  0  0  0  0  0  0
   13.1962  -18.1555   26.9822 C   0  0  0  0  0  0  0  0  0  0  0  0
   13.8493  -19.1976   26.1117 C   0  0  0  0  0  0  0  0  0  0  0  0
   14.9059  -19.9784   26.8159 C   0  0  0  0  0  0  0  0  0  0  0  0
   15.4645  -21.0408   26.0203 N   0  0  0  0  0  0  0  0  0  0  0  0
   11.0151  -16.7039   28.3614 C   0  0  0  0  0  0  0  0  0  0  0  0
   11.2833  -17.5168   29.2888 O   0  0  0  0  0  0  0  0  0  0  0  0
   10.8404  -15.3756   28.7234 O   0  0  0  0  0  0  0  0  0  0  0  0
  2  1  1  6
  2  3  1  0
  3  4  1  0
  5  6  1  0
  5  4  1  0
  7  6  1  0
  8  2  1  0
  9  8  2  0
 11 10  1  0
 12 11  1  0
 12 13  1  6
 12 14  1  0
 14 15  1  1
 15  8  1  0
 16 17  2  0
 16 14  1  0
 18 16  1  0
 19 18  1  0
 20 21  1  0
 19 20  1  6
 21 22  1  0
 23 22  1  0
 23 24  1  0
 25 19  1  0
 26 25  2  0
 27 25  1  0
M  END
$$$$
