KIK.pdb
     RDKit          3D

 27 26  0  0  1  0  0  0  0  0999 V2000
    9.2336  -17.4255   16.0452 N   0  0  0  0  0  0  0  0  0  0  0  0
    8.4333  -17.6348   17.1794 C   0  0  1  0  0  0  0  0  0  0  0  0
    8.1247  -18.9906   17.6474 C   0  0  0  0  0  0  0  0  0  0  0  0
    8.4605  -20.1938   16.9108 C   0  0  0  0  0  0  0  0  0  0  0  0
    8.1113  -21.5576   17.2494 C   0  0  0  0  0  0  0  0  0  0  0  0
    8.5543  -22.7134   16.4574 C   0  0  0  0  0  0  0  0  0  0  0  0
    8.0637  -23.9606   17.1539 N   0  0  0  0  0  0  0  0  0  0  0  0
    9.0972  -16.9212   18.3441 C   0  0  0  0  0  0  0  0  0  0  0  0
   10.3395  -16.9012   18.4751 O   0  0  0  0  0  0  0  0  0  0  0  0
    6.8815  -12.1958   19.8883 C   0  0  0  0  0  0  0  0  0  0  0  0
    7.8500  -13.3008   19.6460 C   0  0  0  0  0  0  0  0  0  0  0  0
    7.9245  -14.3363   20.7168 C   0  0  2  0  0  0  0  0  0  0  0  0
    8.4076  -13.6109   21.9883 C   0  0  0  0  0  0  0  0  0  0  0  0
    8.8005  -15.5073   20.4220 C   0  0  2  0  0  0  0  0  0  0  0  0
    8.2972  -16.2722   19.2905 N   0  0  0  0  0  0  0  0  0  0  0  0
    9.1260  -16.3666   21.5743 C   0  0  0  0  0  0  0  0  0  0  0  0
    8.2561  -17.1253   22.0649 O   0  0  0  0  0  0  0  0  0  0  0  0
   10.4103  -16.3417   22.1321 N   0  0  0  0  0  0  0  0  0  0  0  0
   10.8566  -17.2250   23.2035 C   0  0  1  0  0  0  0  0  0  0  0  0
   12.3361  -17.3733   23.0959 C   0  0  0  0  0  0  0  0  0  0  0  0
   12.9511  -18.2123   24.1634 C   0  0  0  0  0  0  0  0  0  0  0  0
   14.4343  -18.4112   23.9882 C   0  0  0  0  0  0  0  0  0  0  0  0
   15.0346  -19.3142   25.0111 C   0  0  0  0  0  0  0  0  0  0  0  0
   16.4632  -19.4505   24.8927 N   0  0  0  0  0  0  0  0  0  0  0  0
   10.3963  -16.6727   24.4961 C   0  0  0  0  0  0  0  0  0  0  0  0
   10.1644  -15.4394   24.6303 O   0  0  0  0  0  0  0  0  0  0  0  0
   10.1987  -17.4727   25.6128 O   0  0  0  0  0  0  0  0  0  0  0  0
  2  1  1  6
  2  3  1  0
  3  4  1  0
  5  6  1  0
  5  4  1  0
  7  6  1  0
  8  2  1  0
  9  8  2  0
 11 10  1  0
 12 11  1  0
 12 13  1  1
 12 14  1  0
 14 15  1  6
 15  8  1  0
 16 17  2  0
 16 14  1  0
 18 16  1  0
 19 18  1  0
 20 21  1  0
 19 20  1  1
 21 22  1  0
 23 22  1  0
 23 24  1  0
 25 19  1  0
 26 25  2  0
 27 25  1  0
M  END
$$$$
