KIK.pdb
     RDKit          3D

 27 26  0  0  1  0  0  0  0  0999 V2000
    9.0700  -15.3746   20.1480 N   0  0  0  0  0  0  0  0  0  0  0  0
    8.1858  -15.8042   21.1502 C   0  0  1  0  0  0  0  0  0  0  0  0
    7.8426  -17.2228   21.2987 C   0  0  0  0  0  0  0  0  0  0  0  0
    7.6882  -18.1361   20.1828 C   0  0  0  0  0  0  0  0  0  0  0  0
    6.4932  -18.8563   19.7957 C   0  0  0  0  0  0  0  0  0  0  0  0
    6.4401  -19.7384   18.6216 C   0  0  0  0  0  0  0  0  0  0  0  0
    5.0575  -20.3440   18.5664 N   0  0  0  0  0  0  0  0  0  0  0  0
    8.7593  -15.3611   22.4849 C   0  0  0  0  0  0  0  0  0  0  0  0
    9.9724  -15.4960   22.7514 O   0  0  0  0  0  0  0  0  0  0  0  0
    6.8915  -11.6313   27.1150 C   0  0  0  0  0  0  0  0  0  0  0  0
    7.8072  -12.6814   26.5893 C   0  0  0  0  0  0  0  0  0  0  0  0
    7.4411  -13.2455   25.2580 C   0  0  2  0  0  0  0  0  0  0  0  0
    5.9837  -13.7328   25.3799 C   0  0  0  0  0  0  0  0  0  0  0  0
    8.3171  -14.3457   24.7605 C   0  0  2  0  0  0  0  0  0  0  0  0
    7.9077  -14.7892   23.4360 N   0  0  0  0  0  0  0  0  0  0  0  0
    8.5145  -15.4732   25.6888 C   0  0  0  0  0  0  0  0  0  0  0  0
    7.5881  -16.2928   25.8967 O   0  0  0  0  0  0  0  0  0  0  0  0
    9.7391  -15.6379   26.3481 N   0  0  0  0  0  0  0  0  0  0  0  0
   10.0901  -16.8066   27.1469 C   0  0  1  0  0  0  0  0  0  0  0  0
   11.4075  -17.3157   26.6694 C   0  0  0  0  0  0  0  0  0  0  0  0
   11.3799  -17.9129   25.3041 C   0  0  0  0  0  0  0  0  0  0  0  0
   12.7119  -18.4632   24.8646 C   0  0  0  0  0  0  0  0  0  0  0  0
   12.7106  -18.9633   23.4603 C   0  0  0  0  0  0  0  0  0  0  0  0
   13.9823  -19.4873   23.0338 N   0  0  0  0  0  0  0  0  0  0  0  0
   10.0700  -16.4275   28.5764 C   0  0  0  0  0  0  0  0  0  0  0  0
   10.2653  -17.2871   29.4796 O   0  0  0  0  0  0  0  0  0  0  0  0
    9.8384  -15.1238   28.9917 O   0  0  0  0  0  0  0  0  0  0  0  0
  2  1  1  6
  2  3  1  0
  3  4  1  0
  5  6  1  0
  5  4  1  0
  7  6  1  0
  8  2  1  0
  9  8  2  0
 11 10  1  0
 12 11  1  0
 12 13  1  1
 12 14  1  0
 14 15  1  6
 15  8  1  0
 16 17  2  0
 16 14  1  0
 18 16  1  0
 19 18  1  0
 20 21  1  0
 19 20  1  6
 21 22  1  0
 23 22  1  0
 23 24  1  0
 25 19  1  0
 26 25  2  0
 27 25  1  0
M  END
$$$$
