KIK.pdb
     RDKit          3D

 27 26  0  0  1  0  0  0  0  0999 V2000
    8.1275  -14.4228   20.2858 N   0  0  0  0  0  0  0  0  0  0  0  0
    7.4213  -15.0930   21.2970 C   0  0  1  0  0  0  0  0  0  0  0  0
    7.1988  -16.5417   21.2312 C   0  0  0  0  0  0  0  0  0  0  0  0
    6.7671  -17.2376   20.0344 C   0  0  0  0  0  0  0  0  0  0  0  0
    6.4262  -18.6391   19.9077 C   0  0  0  0  0  0  0  0  0  0  0  0
    5.9910  -19.2415   18.6399 C   0  0  0  0  0  0  0  0  0  0  0  0
    5.6708  -20.6929   18.9090 N   0  0  0  0  0  0  0  0  0  0  0  0
    8.1421  -14.8303   22.6077 C   0  0  0  0  0  0  0  0  0  0  0  0
    9.3895  -14.8313   22.6785 O   0  0  0  0  0  0  0  0  0  0  0  0
    5.9470  -11.2510   26.0280 C   0  0  0  0  0  0  0  0  0  0  0  0
    6.8906  -12.1379   25.2928 C   0  0  0  0  0  0  0  0  0  0  0  0
    7.1313  -13.4735   25.9114 C   0  0  2  0  0  0  0  0  0  0  0  0
    7.8156  -13.2064   27.2667 C   0  0  0  0  0  0  0  0  0  0  0  0
    7.9432  -14.4245   25.0978 C   0  0  2  0  0  0  0  0  0  0  0  0
    7.3900  -14.5818   23.7607 N   0  0  0  0  0  0  0  0  0  0  0  0
    8.2359  -15.7206   25.7352 C   0  0  0  0  0  0  0  0  0  0  0  0
    7.3030  -16.4992   26.0459 O   0  0  0  0  0  0  0  0  0  0  0  0
    9.5596  -16.0931   26.0007 N   0  0  0  0  0  0  0  0  0  0  0  0
    9.9585  -17.4042   26.4995 C   0  0  1  0  0  0  0  0  0  0  0  0
   11.1336  -17.8643   25.7057 C   0  0  0  0  0  0  0  0  0  0  0  0
   10.8607  -18.0529   24.2526 C   0  0  0  0  0  0  0  0  0  0  0  0
   12.0773  -18.4613   23.4631 C   0  0  0  0  0  0  0  0  0  0  0  0
   11.8069  -18.6343   22.0075 C   0  0  0  0  0  0  0  0  0  0  0  0
   12.9654  -19.0290   21.2487 N   0  0  0  0  0  0  0  0  0  0  0  0
   10.2132  -17.3014   27.9529 C   0  0  0  0  0  0  0  0  0  0  0  0
   10.3899  -16.1798   28.5040 O   0  0  0  0  0  0  0  0  0  0  0  0
   10.2698  -18.4189   28.7738 O   0  0  0  0  0  0  0  0  0  0  0  0
  2  1  1  6
  2  3  1  0
  3  4  1  0
  5  6  1  0
  5  4  1  0
  7  6  1  0
  8  2  1  0
  9  8  2  0
 11 10  1  0
 12 11  1  0
 12 13  1  1
 12 14  1  0
 14 15  1  6
 15  8  1  0
 16 17  2  0
 16 14  1  0
 18 16  1  0
 19 18  1  0
 20 21  1  0
 19 20  1  6
 21 22  1  0
 23 22  1  0
 23 24  1  0
 25 19  1  0
 26 25  2  0
 27 25  1  0
M  END
$$$$
