KIK.pdb
     RDKit          3D

 27 26  0  0  1  0  0  0  0  0999 V2000
    7.9135  -15.8881   20.7571 N   0  0  0  0  0  0  0  0  0  0  0  0
    7.4647  -16.2636   22.0331 C   0  0  1  0  0  0  0  0  0  0  0  0
    7.4306  -17.6732   22.4384 C   0  0  0  0  0  0  0  0  0  0  0  0
    7.7303  -18.7762   21.5458 C   0  0  0  0  0  0  0  0  0  0  0  0
    6.8766  -19.8993   21.2196 C   0  0  0  0  0  0  0  0  0  0  0  0
    7.2711  -20.9506   20.2716 C   0  0  0  0  0  0  0  0  0  0  0  0
    6.1896  -22.0050   20.2816 N   0  0  0  0  0  0  0  0  0  0  0  0
    8.3340  -15.5468   23.0515 C   0  0  0  0  0  0  0  0  0  0  0  0
    9.5593  -15.3872   22.8669 O   0  0  0  0  0  0  0  0  0  0  0  0
    5.8851  -11.7864   26.2782 C   0  0  0  0  0  0  0  0  0  0  0  0
    6.8824  -12.5419   25.4704 C   0  0  0  0  0  0  0  0  0  0  0  0
    7.5991  -13.6333   26.1912 C   0  0  2  0  0  0  0  0  0  0  0  0
    8.4208  -12.9515   27.3031 C   0  0  0  0  0  0  0  0  0  0  0  0
    8.4789  -14.4939   25.3483 C   0  0  2  0  0  0  0  0  0  0  0  0
    7.7470  -15.0552   24.2222 N   0  0  0  0  0  0  0  0  0  0  0  0
    9.2550  -15.5160   26.0729 C   0  0  0  0  0  0  0  0  0  0  0  0
    8.7200  -16.6006   26.4053 O   0  0  0  0  0  0  0  0  0  0  0  0
   10.5973  -15.2835   26.3977 N   0  0  0  0  0  0  0  0  0  0  0  0
   11.4831  -16.2805   26.9879 C   0  0  1  0  0  0  0  0  0  0  0  0
   10.6850  -17.1034   27.9411 C   0  0  0  0  0  0  0  0  0  0  0  0
   11.4149  -18.2733   28.5070 C   0  0  0  0  0  0  0  0  0  0  0  0
   11.3914  -18.3220   30.0127 C   0  0  0  0  0  0  0  0  0  0  0  0
   12.1787  -19.4536   30.5799 C   0  0  0  0  0  0  0  0  0  0  0  0
   12.1814  -19.4896   32.0195 N   0  0  0  0  0  0  0  0  0  0  0  0
   12.1144  -17.0578   25.8993 C   0  0  0  0  0  0  0  0  0  0  0  0
   13.3578  -17.2737   25.8914 O   0  0  0  0  0  0  0  0  0  0  0  0
   11.3805  -17.5824   24.8447 O   0  0  0  0  0  0  0  0  0  0  0  0
  2  1  1  6
  2  3  1  0
  3  4  1  0
  5  6  1  0
  5  4  1  0
  7  6  1  0
  8  2  1  0
  9  8  2  0
 11 10  1  0
 12 11  1  0
 12 13  1  1
 12 14  1  0
 14 15  1  6
 15  8  1  0
 16 17  2  0
 16 14  1  0
 18 16  1  0
 19 18  1  0
 20 21  1  0
 19 20  1  1
 21 22  1  0
 23 22  1  0
 23 24  1  0
 25 19  1  0
 26 25  2  0
 27 25  1  0
M  END
$$$$
