KIK.pdb
     RDKit          3D

 27 26  0  0  1  0  0  0  0  0999 V2000
    8.5523  -14.7667   20.3360 N   0  0  0  0  0  0  0  0  0  0  0  0
    7.7315  -15.3657   21.3045 C   0  0  1  0  0  0  0  0  0  0  0  0
    7.4100  -16.7959   21.2436 C   0  0  0  0  0  0  0  0  0  0  0  0
    6.8814  -17.4540   20.0644 C   0  0  0  0  0  0  0  0  0  0  0  0
    6.4391  -18.8278   19.9488 C   0  0  0  0  0  0  0  0  0  0  0  0
    5.9310  -19.3981   18.6934 C   0  0  0  0  0  0  0  0  0  0  0  0
    5.5743  -20.8418   18.9578 N   0  0  0  0  0  0  0  0  0  0  0  0
    8.3774  -15.1300   22.6587 C   0  0  0  0  0  0  0  0  0  0  0  0
    9.6191  -15.1206   22.7971 O   0  0  0  0  0  0  0  0  0  0  0  0
    5.7154  -11.7475   26.0385 C   0  0  0  0  0  0  0  0  0  0  0  0
    6.7345  -12.5436   25.3002 C   0  0  0  0  0  0  0  0  0  0  0  0
    7.0924  -13.8555   25.9128 C   0  0  2  0  0  0  0  0  0  0  0  0
    7.6745  -13.5394   27.3048 C   0  0  0  0  0  0  0  0  0  0  0  0
    8.0450  -14.6949   25.1295 C   0  0  2  0  0  0  0  0  0  0  0  0
    7.5613  -14.9191   23.7751 N   0  0  0  0  0  0  0  0  0  0  0  0
    8.4779  -15.9444   25.7801 C   0  0  0  0  0  0  0  0  0  0  0  0
    7.6422  -16.8383   26.0552 O   0  0  0  0  0  0  0  0  0  0  0  0
    9.8272  -16.1433   26.0980 N   0  0  0  0  0  0  0  0  0  0  0  0
   10.3513  -17.3462   26.7349 C   0  0  1  0  0  0  0  0  0  0  0  0
   11.6072  -17.7336   26.0312 C   0  0  0  0  0  0  0  0  0  0  0  0
   11.4091  -18.2094   24.6327 C   0  0  0  0  0  0  0  0  0  0  0  0
   12.6823  -18.6684   23.9706 C   0  0  0  0  0  0  0  0  0  0  0  0
   12.5030  -19.0404   22.5383 C   0  0  0  0  0  0  0  0  0  0  0  0
   13.7287  -19.4159   21.8823 N   0  0  0  0  0  0  0  0  0  0  0  0
   10.5245  -17.0808   28.1796 C   0  0  0  0  0  0  0  0  0  0  0  0
   10.4874  -15.9036   28.6332 O   0  0  0  0  0  0  0  0  0  0  0  0
   10.7338  -18.0999   29.0980 O   0  0  0  0  0  0  0  0  0  0  0  0
  2  1  1  6
  2  3  1  0
  3  4  1  0
  5  6  1  0
  5  4  1  0
  7  6  1  0
  8  2  1  0
  9  8  2  0
 11 10  1  0
 12 11  1  0
 12 13  1  1
 12 14  1  0
 14 15  1  6
 15  8  1  0
 16 17  2  0
 16 14  1  0
 18 16  1  0
 19 18  1  0
 20 21  1  0
 19 20  1  6
 21 22  1  0
 23 22  1  0
 23 24  1  0
 25 19  1  0
 26 25  2  0
 27 25  1  0
M  END
$$$$
