KIK.pdb
     RDKit          3D

 27 26  0  0  1  0  0  0  0  0999 V2000
    9.0342  -15.7018   20.1163 N   0  0  0  0  0  0  0  0  0  0  0  0
    8.0808  -15.9683   21.1117 C   0  0  1  0  0  0  0  0  0  0  0  0
    7.5568  -17.3238   21.3135 C   0  0  0  0  0  0  0  0  0  0  0  0
    7.4344  -18.3069   20.2544 C   0  0  0  0  0  0  0  0  0  0  0  0
    6.2265  -18.7103   19.5655 C   0  0  0  0  0  0  0  0  0  0  0  0
    5.6665  -20.0652   19.6668 C   0  0  0  0  0  0  0  0  0  0  0  0
    4.4325  -20.1165   18.7973 N   0  0  0  0  0  0  0  0  0  0  0  0
    8.6766  -15.5380   22.4408 C   0  0  0  0  0  0  0  0  0  0  0  0
    9.8697  -15.7722   22.7278 O   0  0  0  0  0  0  0  0  0  0  0  0
    6.9987  -11.5961   26.9817 C   0  0  0  0  0  0  0  0  0  0  0  0
    7.8981  -12.6536   26.4427 C   0  0  0  0  0  0  0  0  0  0  0  0
    7.4438  -13.3002   25.1778 C   0  0  2  0  0  0  0  0  0  0  0  0
    6.0118  -13.8069   25.4402 C   0  0  0  0  0  0  0  0  0  0  0  0
    8.3042  -14.4107   24.6758 C   0  0  2  0  0  0  0  0  0  0  0  0
    7.8688  -14.8643   23.3629 N   0  0  0  0  0  0  0  0  0  0  0  0
    8.5109  -15.5305   25.6113 C   0  0  0  0  0  0  0  0  0  0  0  0
    7.5948  -16.3621   25.8169 O   0  0  0  0  0  0  0  0  0  0  0  0
    9.7328  -15.6743   26.2803 N   0  0  0  0  0  0  0  0  0  0  0  0
   10.1074  -16.8477   27.0612 C   0  0  1  0  0  0  0  0  0  0  0  0
   11.3753  -17.3938   26.4981 C   0  0  0  0  0  0  0  0  0  0  0  0
   11.9534  -18.5307   27.2693 C   0  0  0  0  0  0  0  0  0  0  0  0
   13.2179  -19.0829   26.6641 C   0  0  0  0  0  0  0  0  0  0  0  0
   13.7457  -20.2765   27.3842 C   0  0  0  0  0  0  0  0  0  0  0  0
   14.8257  -20.9345   26.6955 N   0  0  0  0  0  0  0  0  0  0  0  0
   10.1956  -16.4608   28.4861 C   0  0  0  0  0  0  0  0  0  0  0  0
   10.2798  -15.2483   28.8263 O   0  0  0  0  0  0  0  0  0  0  0  0
   10.1900  -17.3995   29.5081 O   0  0  0  0  0  0  0  0  0  0  0  0
  2  1  1  6
  2  3  1  0
  3  4  1  0
  5  6  1  0
  5  4  1  0
  7  6  1  0
  8  2  1  0
  9  8  2  0
 11 10  1  0
 12 11  1  0
 12 13  1  1
 12 14  1  0
 14 15  1  6
 15  8  1  0
 16 17  2  0
 16 14  1  0
 18 16  1  0
 19 18  1  0
 20 21  1  0
 19 20  1  6
 21 22  1  0
 23 22  1  0
 23 24  1  0
 25 19  1  0
 26 25  2  0
 27 25  1  0
M  END
$$$$
