KIK.pdb
     RDKit          3D

 27 26  0  0  1  0  0  0  0  0999 V2000
    6.2577  -14.6880   21.2601 N   0  0  0  0  0  0  0  0  0  0  0  0
    7.6216  -14.4795   21.0015 C   0  0  1  0  0  0  0  0  0  0  0  0
    8.0756  -13.3202   20.2253 C   0  0  0  0  0  0  0  0  0  0  0  0
    7.7590  -13.1132   18.8253 C   0  0  0  0  0  0  0  0  0  0  0  0
    8.4749  -13.6286   17.6771 C   0  0  0  0  0  0  0  0  0  0  0  0
    8.0986  -13.3066   16.2935 C   0  0  0  0  0  0  0  0  0  0  0  0
    9.0564  -14.0319   15.3782 N   0  0  0  0  0  0  0  0  0  0  0  0
    8.3332  -14.4024   22.3410 C   0  0  0  0  0  0  0  0  0  0  0  0
    9.5745  -14.2807   22.4148 O   0  0  0  0  0  0  0  0  0  0  0  0
    6.1178  -11.3916   26.0519 C   0  0  0  0  0  0  0  0  0  0  0  0
    7.1275  -12.1820   25.2948 C   0  0  0  0  0  0  0  0  0  0  0  0
    7.3365  -13.5804   25.7695 C   0  0  2  0  0  0  0  0  0  0  0  0
    8.0172  -13.4727   27.1484 C   0  0  0  0  0  0  0  0  0  0  0  0
    8.1339  -14.4569   24.8633 C   0  0  2  0  0  0  0  0  0  0  0  0
    7.5795  -14.4693   23.5175 N   0  0  0  0  0  0  0  0  0  0  0  0
    8.4054  -15.8154   25.3661 C   0  0  0  0  0  0  0  0  0  0  0  0
    7.4585  -16.5818   25.6647 O   0  0  0  0  0  0  0  0  0  0  0  0
    9.7245  -16.2615   25.5161 N   0  0  0  0  0  0  0  0  0  0  0  0
   10.0930  -17.6243   25.8820 C   0  0  1  0  0  0  0  0  0  0  0  0
   11.3375  -17.9822   25.1433 C   0  0  0  0  0  0  0  0  0  0  0  0
   11.9197  -19.3019   25.5188 C   0  0  0  0  0  0  0  0  0  0  0  0
   13.1719  -19.6432   24.7535 C   0  0  0  0  0  0  0  0  0  0  0  0
   13.6909  -21.0092   25.0479 C   0  0  0  0  0  0  0  0  0  0  0  0
   14.9644  -21.2865   24.4356 N   0  0  0  0  0  0  0  0  0  0  0  0
   10.2192  -17.7026   27.3536 C   0  0  0  0  0  0  0  0  0  0  0  0
    9.9974  -18.7822   27.9685 O   0  0  0  0  0  0  0  0  0  0  0  0
   10.5834  -16.6066   28.1231 O   0  0  0  0  0  0  0  0  0  0  0  0
  2  1  1  1
  2  3  1  0
  3  4  1  0
  5  6  1  0
  5  4  1  0
  7  6  1  0
  8  2  1  0
  9  8  2  0
 11 10  1  0
 12 11  1  0
 12 13  1  1
 12 14  1  0
 14 15  1  6
 15  8  1  0
 16 17  2  0
 16 14  1  0
 18 16  1  0
 19 18  1  0
 20 21  1  0
 19 20  1  6
 21 22  1  0
 23 22  1  0
 23 24  1  0
 25 19  1  0
 26 25  2  0
 27 25  1  0
M  END
$$$$
