KIK.pdb
     RDKit          3D

 27 26  0  0  1  0  0  0  0  0999 V2000
    8.1325  -15.9322   20.5194 N   0  0  0  0  0  0  0  0  0  0  0  0
    7.5356  -16.1249   21.7753 C   0  0  1  0  0  0  0  0  0  0  0  0
    7.2242  -17.4721   22.2658 C   0  0  0  0  0  0  0  0  0  0  0  0
    7.8472  -18.6791   21.7580 C   0  0  0  0  0  0  0  0  0  0  0  0
    7.4588  -20.0480   22.0260 C   0  0  0  0  0  0  0  0  0  0  0  0
    6.8981  -20.9331   20.9957 C   0  0  0  0  0  0  0  0  0  0  0  0
    6.6402  -22.2761   21.6371 N   0  0  0  0  0  0  0  0  0  0  0  0
    8.4441  -15.4911   22.8142 C   0  0  0  0  0  0  0  0  0  0  0  0
    9.6777  -15.4037   22.6365 O   0  0  0  0  0  0  0  0  0  0  0  0
    5.8665  -12.6281   27.1296 C   0  0  0  0  0  0  0  0  0  0  0  0
    6.4146  -13.5036   26.0569 C   0  0  0  0  0  0  0  0  0  0  0  0
    7.7295  -13.0824   25.4929 C   0  0  2  0  0  0  0  0  0  0  0  0
    7.4162  -12.0738   24.3699 C   0  0  0  0  0  0  0  0  0  0  0  0
    8.5925  -14.1840   24.9762 C   0  0  2  0  0  0  0  0  0  0  0  0
    7.8845  -14.9946   23.9962 N   0  0  0  0  0  0  0  0  0  0  0  0
    9.2595  -15.0062   26.0014 C   0  0  0  0  0  0  0  0  0  0  0  0
    9.8807  -14.4617   26.9452 O   0  0  0  0  0  0  0  0  0  0  0  0
    9.2061  -16.4038   25.9291 N   0  0  0  0  0  0  0  0  0  0  0  0
    9.8970  -17.2998   26.8493 C   0  0  1  0  0  0  0  0  0  0  0  0
   10.6102  -18.3318   26.0438 C   0  0  0  0  0  0  0  0  0  0  0  0
   11.3915  -19.3122   26.8500 C   0  0  0  0  0  0  0  0  0  0  0  0
   12.0415  -20.3876   26.0187 C   0  0  0  0  0  0  0  0  0  0  0  0
   12.9461  -21.2756   26.8032 C   0  0  0  0  0  0  0  0  0  0  0  0
   13.3671  -22.4499   26.0840 N   0  0  0  0  0  0  0  0  0  0  0  0
   10.7808  -16.4953   27.7207 C   0  0  0  0  0  0  0  0  0  0  0  0
   11.6180  -15.6884   27.2299 O   0  0  0  0  0  0  0  0  0  0  0  0
   10.7348  -16.5858   29.1048 O   0  0  0  0  0  0  0  0  0  0  0  0
  2  1  1  6
  2  3  1  0
  3  4  1  0
  5  6  1  0
  5  4  1  0
  7  6  1  0
  8  2  1  0
  9  8  2  0
 11 10  1  0
 12 11  1  0
 12 13  1  6
 12 14  1  0
 14 15  1  1
 15  8  1  0
 16 17  2  0
 16 14  1  0
 18 16  1  0
 19 18  1  0
 20 21  1  0
 19 20  1  6
 21 22  1  0
 23 22  1  0
 23 24  1  0
 25 19  1  0
 26 25  2  0
 27 25  1  0
M  END
$$$$
