KIK.pdb
     RDKit          3D

 27 26  0  0  1  0  0  0  0  0999 V2000
    6.9710  -15.2621   20.6885 N   0  0  0  0  0  0  0  0  0  0  0  0
    6.8985  -15.8467   21.9627 C   0  0  1  0  0  0  0  0  0  0  0  0
    7.1930  -17.2704   22.1595 C   0  0  0  0  0  0  0  0  0  0  0  0
    6.8533  -18.3040   21.2006 C   0  0  0  0  0  0  0  0  0  0  0  0
    7.6130  -18.7051   20.0351 C   0  0  0  0  0  0  0  0  0  0  0  0
    7.1509  -19.7412   19.1010 C   0  0  0  0  0  0  0  0  0  0  0  0
    8.1341  -19.7964   17.9558 N   0  0  0  0  0  0  0  0  0  0  0  0
    7.8493  -15.0842   22.8690 C   0  0  0  0  0  0  0  0  0  0  0  0
    8.9079  -14.5846   22.4322 O   0  0  0  0  0  0  0  0  0  0  0  0
    5.5125  -11.7332   26.4134 C   0  0  0  0  0  0  0  0  0  0  0  0
    6.5030  -12.3649   25.4982 C   0  0  0  0  0  0  0  0  0  0  0  0
    7.3670  -13.4143   26.1121 C   0  0  2  0  0  0  0  0  0  0  0  0
    8.1784  -12.7140   27.2200 C   0  0  0  0  0  0  0  0  0  0  0  0
    8.2791  -14.1296   25.1730 C   0  0  2  0  0  0  0  0  0  0  0  0
    7.5303  -14.9395   24.2233 N   0  0  0  0  0  0  0  0  0  0  0  0
    9.3788  -14.8829   25.8016 C   0  0  0  0  0  0  0  0  0  0  0  0
   10.1477  -14.3200   26.6171 O   0  0  0  0  0  0  0  0  0  0  0  0
    9.5752  -16.2345   25.4920 N   0  0  0  0  0  0  0  0  0  0  0  0
   10.6366  -17.0597   26.0571 C   0  0  1  0  0  0  0  0  0  0  0  0
   10.0410  -18.3627   26.4695 C   0  0  0  0  0  0  0  0  0  0  0  0
   10.9232  -19.1986   27.3324 C   0  0  0  0  0  0  0  0  0  0  0  0
   10.3252  -20.5369   27.6810 C   0  0  0  0  0  0  0  0  0  0  0  0
   11.2124  -21.3761   28.5359 C   0  0  0  0  0  0  0  0  0  0  0  0
   11.0401  -21.1450   29.9468 N   0  0  0  0  0  0  0  0  0  0  0  0
   11.7246  -17.1798   25.0622 C   0  0  0  0  0  0  0  0  0  0  0  0
   11.4724  -17.2355   23.8269 O   0  0  0  0  0  0  0  0  0  0  0  0
   13.0609  -17.2365   25.4322 O   0  0  0  0  0  0  0  0  0  0  0  0
  2  1  1  6
  2  3  1  0
  3  4  1  0
  5  6  1  0
  5  4  1  0
  7  6  1  0
  8  2  1  0
  9  8  2  0
 11 10  1  0
 12 11  1  0
 12 13  1  1
 12 14  1  0
 14 15  1  1
 15  8  1  0
 16 17  2  0
 16 14  1  0
 18 16  1  0
 19 18  1  0
 20 21  1  0
 19 20  1  6
 21 22  1  0
 23 22  1  0
 23 24  1  0
 25 19  1  0
 26 25  2  0
 27 25  1  0
M  END
$$$$
