APM.pdb
     RDKit          3D

 21 21  0  0  1  0  0  0  0  0999 V2000
    9.7124  -18.4749   18.5604 C   0  0  0  0  0  0  0  0  0  0  0  0
    8.5368  -17.6023   18.9531 C   0  0  2  0  0  0  0  0  0  0  0  0
    7.7934  -17.2550   17.7897 N   0  0  0  0  0  0  0  0  0  0  0  0
    8.9038  -16.5225   19.8551 C   0  0  0  0  0  0  0  0  0  0  0  0
    9.8096  -16.8082   20.7148 O   0  0  0  0  0  0  0  0  0  0  0  0
    8.3872  -15.2038   19.9013 N   0  0  0  0  0  0  0  0  0  0  0  0
    7.3872  -14.7125   18.9752 C   0  0  0  0  0  0  0  0  0  0  0  0
    7.6822  -13.2016   18.9772 C   0  0  0  0  0  0  0  0  0  0  0  0
    7.9618  -12.9598   20.4169 C   0  0  0  0  0  0  0  0  0  0  0  0
    8.7484  -14.1681   20.8488 C   0  0  1  0  0  0  0  0  0  0  0  0
    8.3759  -14.5046   22.2319 C   0  0  0  0  0  0  0  0  0  0  0  0
    7.3413  -15.1846   22.4437 O   0  0  0  0  0  0  0  0  0  0  0  0
    6.5001  -11.1164   27.4844 C   0  0  0  0  0  0  0  0  0  0  0  0
    5.5404  -12.4108   26.6097 S   0  0  0  0  0  0  0  0  0  0  0  0
    6.6671  -13.7812   26.2575 C   0  0  0  0  0  0  0  0  0  0  0  0
    7.1829  -13.7337   24.8376 C   0  0  0  0  0  0  0  0  0  0  0  0
    8.5860  -14.2853   24.7299 C   0  0  2  0  0  0  0  0  0  0  0  0
    9.1149  -14.1107   23.3780 N   0  0  0  0  0  0  0  0  0  0  0  0
    8.5472  -15.7334   25.0398 C   0  0  0  0  0  0  0  0  0  0  0  0
    8.2965  -16.1838   26.3360 O   0  0  0  0  0  0  0  0  0  0  0  0
    8.7417  -16.5674   24.1283 O   0  0  0  0  0  0  0  0  0  0  0  0
  2  1  1  6
  3  2  1  0
  4  5  2  0
  4  2  1  0
  6  4  1  0
  7  6  1  0
  8  7  1  0
  9  8  1  0
  9 10  1  0
 10 11  1  1
 10  6  1  0
 11 18  1  0
 12 11  2  0
 13 14  1  0
 15 14  1  0
 16 15  1  0
 17 16  1  6
 18 17  1  0
 19 20  1  0
 19 17  1  0
 21 19  2  0
M  END
$$$$
