APM.pdb
     RDKit          3D

 21 21  0  0  1  0  0  0  0  0999 V2000
    9.8567  -18.7462   19.4821 C   0  0  0  0  0  0  0  0  0  0  0  0
   10.0677  -17.2711   19.2048 C   0  0  2  0  0  0  0  0  0  0  0  0
   11.2812  -17.0923   18.4821 N   0  0  0  0  0  0  0  0  0  0  0  0
    9.8618  -16.4350   20.3764 C   0  0  0  0  0  0  0  0  0  0  0  0
   10.9295  -16.0220   20.9517 O   0  0  0  0  0  0  0  0  0  0  0  0
    8.6362  -16.0240   20.9569 N   0  0  0  0  0  0  0  0  0  0  0  0
    7.3426  -16.4107   20.4316 C   0  0  0  0  0  0  0  0  0  0  0  0
    6.4570  -15.2443   20.9060 C   0  0  0  0  0  0  0  0  0  0  0  0
    6.9865  -15.0126   22.2753 C   0  0  0  0  0  0  0  0  0  0  0  0
    8.4742  -15.1900   22.1313 C   0  0  1  0  0  0  0  0  0  0  0  0
    8.9955  -15.8194   23.3548 C   0  0  0  0  0  0  0  0  0  0  0  0
    9.2112  -17.0567   23.3678 O   0  0  0  0  0  0  0  0  0  0  0  0
    9.8575  -12.8808   29.1559 C   0  0  0  0  0  0  0  0  0  0  0  0
   10.9519  -14.3280   29.4193 S   0  0  0  0  0  0  0  0  0  0  0  0
   10.6345  -15.5030   28.0814 C   0  0  0  0  0  0  0  0  0  0  0  0
   10.1024  -14.8160   26.8448 C   0  0  0  0  0  0  0  0  0  0  0  0
    9.8235  -15.7990   25.7310 C   0  0  2  0  0  0  0  0  0  0  0  0
    9.2826  -15.1185   24.5553 N   0  0  0  0  0  0  0  0  0  0  0  0
    8.8243  -16.7820   26.2105 C   0  0  0  0  0  0  0  0  0  0  0  0
    9.2230  -17.9763   26.8113 O   0  0  0  0  0  0  0  0  0  0  0  0
    7.6045  -16.5412   26.0764 O   0  0  0  0  0  0  0  0  0  0  0  0
  2  1  1  1
  3  2  1  0
  4  5  2  0
  4  2  1  0
  6  4  1  0
  7  6  1  0
  8  7  1  0
  9  8  1  0
  9 10  1  0
 10 11  1  1
 10  6  1  0
 11 18  1  0
 12 11  2  0
 13 14  1  0
 15 14  1  0
 16 15  1  0
 17 16  1  1
 18 17  1  0
 19 20  1  0
 19 17  1  0
 21 19  2  0
M  END
$$$$
