APM.pdb
     RDKit          3D

 21 21  0  0  1  0  0  0  0  0999 V2000
   11.1309  -18.4774   18.9874 C   0  0  0  0  0  0  0  0  0  0  0  0
   10.8828  -16.9838   18.9145 C   0  0  2  0  0  0  0  0  0  0  0  0
   11.9337  -16.3628   18.1820 N   0  0  0  0  0  0  0  0  0  0  0  0
   10.5322  -16.4003   20.1994 C   0  0  0  0  0  0  0  0  0  0  0  0
   11.4937  -15.8297   20.8248 O   0  0  0  0  0  0  0  0  0  0  0  0
    9.2688  -16.3851   20.8409 N   0  0  0  0  0  0  0  0  0  0  0  0
    8.0937  -17.0294   20.2904 C   0  0  0  0  0  0  0  0  0  0  0  0
    6.9631  -16.1900   20.9123 C   0  0  0  0  0  0  0  0  0  0  0  0
    7.4755  -15.9850   22.2923 C   0  0  0  0  0  0  0  0  0  0  0  0
    8.9519  -15.7575   22.1084 C   0  0  1  0  0  0  0  0  0  0  0  0
    9.6681  -16.3650   23.2411 C   0  0  0  0  0  0  0  0  0  0  0  0
   10.1416  -17.5223   23.1220 O   0  0  0  0  0  0  0  0  0  0  0  0
   10.5325  -12.5662   28.3393 C   0  0  0  0  0  0  0  0  0  0  0  0
    9.1299  -13.6324   27.8321 S   0  0  0  0  0  0  0  0  0  0  0  0
    9.7601  -15.3193   27.6625 C   0  0  0  0  0  0  0  0  0  0  0  0
   10.9120  -15.3933   26.6868 C   0  0  0  0  0  0  0  0  0  0  0  0
   10.6365  -16.3665   25.5637 C   0  0  2  0  0  0  0  0  0  0  0  0
    9.8726  -15.7279   24.4930 N   0  0  0  0  0  0  0  0  0  0  0  0
    9.8429  -17.4951   26.1033 C   0  0  0  0  0  0  0  0  0  0  0  0
    8.5162  -17.6890   25.7182 O   0  0  0  0  0  0  0  0  0  0  0  0
   10.3668  -18.2879   26.9164 O   0  0  0  0  0  0  0  0  0  0  0  0
  2  1  1  1
  3  2  1  0
  4  5  2  0
  4  2  1  0
  6  4  1  0
  7  6  1  0
  8  7  1  0
  9  8  1  0
  9 10  1  0
 10 11  1  1
 10  6  1  0
 11 18  1  0
 12 11  2  0
 13 14  1  0
 15 14  1  0
 16 15  1  0
 17 16  1  1
 18 17  1  0
 19 20  1  0
 19 17  1  0
 21 19  2  0
M  END
$$$$
