EIG.pdb
     RDKit          3D

 22 21  0  0  1  0  0  0  0  0999 V2000
    9.5140  -15.6280   20.2349 N   0  0  0  0  0  0  0  0  0  0  0  0
    8.6146  -15.9395   21.2788 C   0  0  1  0  0  0  0  0  0  0  0  0
    8.2767  -17.3797   21.3555 C   0  0  0  0  0  0  0  0  0  0  0  0
    7.9432  -18.0131   20.0620 C   0  0  0  0  0  0  0  0  0  0  0  0
    7.6313  -19.4319   20.0593 C   0  0  0  0  0  0  0  0  0  0  0  0
    7.6349  -20.2445   21.0011 O   0  0  0  0  0  0  0  0  0  0  0  0
    9.0446  -15.3826   22.6037 C   0  0  0  0  0  0  0  0  0  0  0  0
   10.2633  -15.2347   22.8837 O   0  0  0  0  0  0  0  0  0  0  0  0
    7.2655  -20.0065   18.8177 O   0  0  0  0  0  0  0  0  0  0  0  0
    7.1244  -11.6933   27.0493 C   0  0  0  0  0  0  0  0  0  0  0  0
    8.0858  -12.8491   26.7405 C   0  0  0  0  0  0  0  0  0  0  0  0
    7.6636  -13.4328   25.4373 C   0  0  2  0  0  0  0  0  0  0  0  0
    6.1740  -13.7671   25.4372 C   0  0  0  0  0  0  0  0  0  0  0  0
    8.4724  -14.5767   24.9368 C   0  0  2  0  0  0  0  0  0  0  0  0
    8.1077  -14.9986   23.5976 N   0  0  0  0  0  0  0  0  0  0  0  0
    8.4359  -15.7461   25.8503 C   0  0  0  0  0  0  0  0  0  0  0  0
    7.3526  -16.4148   25.9385 O   0  0  0  0  0  0  0  0  0  0  0  0
    9.5783  -16.0977   26.5986 N   0  0  0  0  0  0  0  0  0  0  0  0
    9.5973  -17.3241   27.3579 C   0  0  0  0  0  0  0  0  0  0  0  0
   10.2951  -17.2053   28.6391 C   0  0  0  0  0  0  0  0  0  0  0  0
   10.8098  -16.1323   29.0162 O   0  0  0  0  0  0  0  0  0  0  0  0
   10.3924  -18.3251   29.4721 O   0  0  0  0  0  0  0  0  0  0  0  0
  2  1  1  6
  2  7  1  0
  3  2  1  0
  3  4  1  0
  5  4  1  0
  5  6  2  0
  7  8  2  0
  9  5  1  0
 10 11  1  0
 11 12  1  0
 12 13  1  1
 12 14  1  0
 14 16  1  0
 14 15  1  6
 15  7  1  0
 16 17  2  0
 18 16  1  0
 18 19  1  0
 19 20  1  0
 20 21  2  0
 20 22  1  0
M  END
$$$$
