EIG.pdb
     RDKit          3D

 22 21  0  0  1  0  0  0  0  0999 V2000
    6.4653  -16.8859   21.6484 N   0  0  0  0  0  0  0  0  0  0  0  0
    7.6304  -16.2229   21.2028 C   0  0  1  0  0  0  0  0  0  0  0  0
    7.4600  -15.5459   19.8962 C   0  0  0  0  0  0  0  0  0  0  0  0
    6.9188  -16.3985   18.8165 C   0  0  0  0  0  0  0  0  0  0  0  0
    7.7638  -16.6543   17.6630 C   0  0  0  0  0  0  0  0  0  0  0  0
    7.7189  -16.1570   16.5236 O   0  0  0  0  0  0  0  0  0  0  0  0
    8.2186  -15.3163   22.2431 C   0  0  0  0  0  0  0  0  0  0  0  0
    9.2565  -14.6430   22.0090 O   0  0  0  0  0  0  0  0  0  0  0  0
    8.8014  -17.6044   17.8250 O   0  0  0  0  0  0  0  0  0  0  0  0
    6.6525  -11.6049   26.7077 C   0  0  0  0  0  0  0  0  0  0  0  0
    7.7958  -12.5304   26.2700 C   0  0  0  0  0  0  0  0  0  0  0  0
    7.2502  -13.4320   25.2180 C   0  0  2  0  0  0  0  0  0  0  0  0
    6.0012  -14.1610   25.7071 C   0  0  0  0  0  0  0  0  0  0  0  0
    8.2167  -14.3769   24.5964 C   0  0  2  0  0  0  0  0  0  0  0  0
    7.6396  -15.1741   23.5306 N   0  0  0  0  0  0  0  0  0  0  0  0
    8.8607  -15.2722   25.5898 C   0  0  0  0  0  0  0  0  0  0  0  0
    8.1545  -15.7166   26.5553 O   0  0  0  0  0  0  0  0  0  0  0  0
   10.2225  -15.6144   25.4586 N   0  0  0  0  0  0  0  0  0  0  0  0
   10.8424  -16.4984   26.4152 C   0  0  0  0  0  0  0  0  0  0  0  0
   12.2652  -16.7281   26.1595 C   0  0  0  0  0  0  0  0  0  0  0  0
   12.8500  -16.2315   25.1747 O   0  0  0  0  0  0  0  0  0  0  0  0
   12.9990  -17.5280   27.0421 O   0  0  0  0  0  0  0  0  0  0  0  0
  2  1  1  1
  2  7  1  0
  3  2  1  0
  3  4  1  0
  5  4  1  0
  5  6  2  0
  7  8  2  0
  9  5  1  0
 10 11  1  0
 11 12  1  0
 12 13  1  1
 12 14  1  0
 14 16  1  0
 14 15  1  6
 15  7  1  0
 16 17  2  0
 18 16  1  0
 18 19  1  0
 19 20  1  0
 20 21  2  0
 20 22  1  0
M  END
$$$$
