EIG.pdb
     RDKit          3D

 22 21  0  0  1  0  0  0  0  0999 V2000
    9.6186  -15.9116   20.6242 N   0  0  0  0  0  0  0  0  0  0  0  0
    8.5902  -16.0058   21.5882 C   0  0  1  0  0  0  0  0  0  0  0  0
    8.0109  -17.3646   21.7011 C   0  0  0  0  0  0  0  0  0  0  0  0
    8.4339  -18.3136   20.6495 C   0  0  0  0  0  0  0  0  0  0  0  0
    7.8929  -19.6611   20.6912 C   0  0  0  0  0  0  0  0  0  0  0  0
    7.1142  -20.1759   21.5134 O   0  0  0  0  0  0  0  0  0  0  0  0
    8.9872  -15.4420   22.9204 C   0  0  0  0  0  0  0  0  0  0  0  0
   10.1937  -15.4044   23.2786 O   0  0  0  0  0  0  0  0  0  0  0  0
    8.2901  -20.5448   19.6583 O   0  0  0  0  0  0  0  0  0  0  0  0
    6.5800  -11.7120   27.1992 C   0  0  0  0  0  0  0  0  0  0  0  0
    7.8244  -12.4929   26.7554 C   0  0  0  0  0  0  0  0  0  0  0  0
    7.4584  -13.2305   25.5148 C   0  0  2  0  0  0  0  0  0  0  0  0
    6.0058  -13.6982   25.5570 C   0  0  0  0  0  0  0  0  0  0  0  0
    8.3691  -14.3369   25.1152 C   0  0  2  0  0  0  0  0  0  0  0  0
    8.0312  -14.9279   23.8342 N   0  0  0  0  0  0  0  0  0  0  0  0
    8.4583  -15.4038   26.1434 C   0  0  0  0  0  0  0  0  0  0  0  0
    7.4484  -16.1638   26.3198 O   0  0  0  0  0  0  0  0  0  0  0  0
    9.6369  -15.5618   26.9015 N   0  0  0  0  0  0  0  0  0  0  0  0
    9.7181  -16.5926   27.9073 C   0  0  0  0  0  0  0  0  0  0  0  0
   10.4608  -17.7758   27.4703 C   0  0  0  0  0  0  0  0  0  0  0  0
   10.2282  -18.3390   26.3808 O   0  0  0  0  0  0  0  0  0  0  0  0
   11.4639  -18.2973   28.2943 O   0  0  0  0  0  0  0  0  0  0  0  0
  2  1  1  6
  2  7  1  0
  3  2  1  0
  3  4  1  0
  5  4  1  0
  5  6  2  0
  7  8  2  0
  9  5  1  0
 10 11  1  0
 11 12  1  0
 12 13  1  1
 12 14  1  0
 14 16  1  0
 14 15  1  6
 15  7  1  0
 16 17  2  0
 18 16  1  0
 18 19  1  0
 19 20  1  0
 20 21  2  0
 20 22  1  0
M  END
$$$$
