EIG.pdb
     RDKit          3D

 22 21  0  0  1  0  0  0  0  0999 V2000
    9.2978  -15.5675   20.7926 N   0  0  0  0  0  0  0  0  0  0  0  0
    8.7820  -16.0906   21.9992 C   0  0  1  0  0  0  0  0  0  0  0  0
    9.1194  -17.5169   22.2150 C   0  0  0  0  0  0  0  0  0  0  0  0
    9.4814  -18.2652   20.9925 C   0  0  0  0  0  0  0  0  0  0  0  0
    9.7938  -19.6776   21.1266 C   0  0  0  0  0  0  0  0  0  0  0  0
    9.0271  -20.6485   21.2565 O   0  0  0  0  0  0  0  0  0  0  0  0
    9.1101  -15.2398   23.1903 C   0  0  0  0  0  0  0  0  0  0  0  0
   10.2833  -14.8318   23.3963 O   0  0  0  0  0  0  0  0  0  0  0  0
   11.1636  -20.0366   21.1112 O   0  0  0  0  0  0  0  0  0  0  0  0
    6.1274  -11.4395   26.9834 C   0  0  0  0  0  0  0  0  0  0  0  0
    7.4695  -12.1369   26.7233 C   0  0  0  0  0  0  0  0  0  0  0  0
    7.2706  -13.0491   25.5634 C   0  0  2  0  0  0  0  0  0  0  0  0
    5.9326  -13.7784   25.6557 C   0  0  0  0  0  0  0  0  0  0  0  0
    8.3812  -13.9958   25.2739 C   0  0  2  0  0  0  0  0  0  0  0  0
    8.1233  -14.8565   24.1350 N   0  0  0  0  0  0  0  0  0  0  0  0
    8.7453  -14.8268   26.4488 C   0  0  0  0  0  0  0  0  0  0  0  0
    9.0433  -14.2377   27.5408 O   0  0  0  0  0  0  0  0  0  0  0  0
    8.7590  -16.2332   26.3461 N   0  0  0  0  0  0  0  0  0  0  0  0
    9.0922  -17.0398   27.4947 C   0  0  0  0  0  0  0  0  0  0  0  0
   10.2562  -17.9019   27.2832 C   0  0  0  0  0  0  0  0  0  0  0  0
   10.8979  -17.8977   26.2124 O   0  0  0  0  0  0  0  0  0  0  0  0
   10.6679  -18.7598   28.3087 O   0  0  0  0  0  0  0  0  0  0  0  0
  2  1  1  6
  2  7  1  0
  3  2  1  0
  3  4  1  0
  5  4  1  0
  5  6  2  0
  7  8  2  0
  9  5  1  0
 10 11  1  0
 11 12  1  0
 12 13  1  1
 12 14  1  0
 14 16  1  0
 14 15  1  6
 15  7  1  0
 16 17  2  0
 18 16  1  0
 18 19  1  0
 19 20  1  0
 20 21  2  0
 20 22  1  0
M  END
$$$$
