EIG.pdb
     RDKit          3D

 22 21  0  0  1  0  0  0  0  0999 V2000
    8.1730  -18.0353   17.7465 N   0  0  0  0  0  0  0  0  0  0  0  0
    9.4636  -17.4620   17.7096 C   0  0  1  0  0  0  0  0  0  0  0  0
    9.8456  -16.9557   16.3708 C   0  0  0  0  0  0  0  0  0  0  0  0
    9.5426  -17.8682   15.2479 C   0  0  0  0  0  0  0  0  0  0  0  0
   10.5267  -17.9914   14.1864 C   0  0  0  0  0  0  0  0  0  0  0  0
   11.5918  -18.6337   14.1658 O   0  0  0  0  0  0  0  0  0  0  0  0
    9.6790  -16.4421   18.7884 C   0  0  0  0  0  0  0  0  0  0  0  0
   10.7864  -15.8578   18.9209 O   0  0  0  0  0  0  0  0  0  0  0  0
   10.2659  -17.2895   12.9844 O   0  0  0  0  0  0  0  0  0  0  0  0
    8.0379  -12.4380   19.4823 C   0  0  0  0  0  0  0  0  0  0  0  0
    7.0671  -13.5787   19.8168 C   0  0  0  0  0  0  0  0  0  0  0  0
    7.6156  -14.2846   21.0076 C   0  0  2  0  0  0  0  0  0  0  0  0
    7.8294  -13.3212   22.1724 C   0  0  0  0  0  0  0  0  0  0  0  0
    8.8210  -15.1253   20.7758 C   0  0  2  0  0  0  0  0  0  0  0  0
    8.6546  -16.0890   19.7044 N   0  0  0  0  0  0  0  0  0  0  0  0
    9.2749  -15.8250   22.0037 C   0  0  0  0  0  0  0  0  0  0  0  0
    8.4060  -16.4339   22.7127 O   0  0  0  0  0  0  0  0  0  0  0  0
   10.6374  -15.8081   22.3673 N   0  0  0  0  0  0  0  0  0  0  0  0
   11.0818  -16.5154   23.5433 C   0  0  0  0  0  0  0  0  0  0  0  0
   12.5210  -16.3995   23.7837 C   0  0  0  0  0  0  0  0  0  0  0  0
   13.0623  -16.8712   24.8050 O   0  0  0  0  0  0  0  0  0  0  0  0
   13.3212  -15.7408   22.8440 O   0  0  0  0  0  0  0  0  0  0  0  0
  2  1  1  6
  2  7  1  0
  3  2  1  0
  3  4  1  0
  5  4  1  0
  5  6  2  0
  7  8  2  0
  9  5  1  0
 10 11  1  0
 11 12  1  0
 12 13  1  1
 12 14  1  0
 14 16  1  0
 14 15  1  6
 15  7  1  0
 16 17  2  0
 18 16  1  0
 18 19  1  0
 19 20  1  0
 20 21  2  0
 20 22  1  0
M  END
$$$$
