EIG.pdb
     RDKit          3D

 22 21  0  0  1  0  0  0  0  0999 V2000
    8.3281  -14.5973   20.1367 N   0  0  0  0  0  0  0  0  0  0  0  0
    7.8358  -15.3186   21.2471 C   0  0  1  0  0  0  0  0  0  0  0  0
    7.9032  -16.7881   21.0722 C   0  0  0  0  0  0  0  0  0  0  0  0
    7.3307  -17.2936   19.8064 C   0  0  0  0  0  0  0  0  0  0  0  0
    7.2073  -18.7316   19.6416 C   0  0  0  0  0  0  0  0  0  0  0  0
    6.8546  -19.5949   20.4649 O   0  0  0  0  0  0  0  0  0  0  0  0
    8.4372  -14.8701   22.5461 C   0  0  0  0  0  0  0  0  0  0  0  0
    9.6288  -14.4682   22.6081 O   0  0  0  0  0  0  0  0  0  0  0  0
    7.5281  -19.2619   18.3683 O   0  0  0  0  0  0  0  0  0  0  0  0
    5.7242  -11.8512   26.0963 C   0  0  0  0  0  0  0  0  0  0  0  0
    6.7720  -12.4625   25.1562 C   0  0  0  0  0  0  0  0  0  0  0  0
    7.3487  -13.6448   25.8540 C   0  0  2  0  0  0  0  0  0  0  0  0
    8.0003  -13.2443   27.1752 C   0  0  0  0  0  0  0  0  0  0  0  0
    8.2532  -14.5075   25.0471 C   0  0  2  0  0  0  0  0  0  0  0  0
    7.6995  -14.8769   23.7581 N   0  0  0  0  0  0  0  0  0  0  0  0
    8.6739  -15.7318   25.7733 C   0  0  0  0  0  0  0  0  0  0  0  0
    7.7725  -16.5439   26.1687 O   0  0  0  0  0  0  0  0  0  0  0  0
   10.0412  -15.9786   26.0151 N   0  0  0  0  0  0  0  0  0  0  0  0
   10.4633  -17.2476   26.5559 C   0  0  0  0  0  0  0  0  0  0  0  0
   10.4267  -17.2988   28.0183 C   0  0  0  0  0  0  0  0  0  0  0  0
   10.7645  -18.3185   28.6542 O   0  0  0  0  0  0  0  0  0  0  0  0
   10.0008  -16.1735   28.7322 O   0  0  0  0  0  0  0  0  0  0  0  0
  2  1  1  6
  2  7  1  0
  3  2  1  0
  3  4  1  0
  5  4  1  0
  5  6  2  0
  7  8  2  0
  9  5  1  0
 10 11  1  0
 11 12  1  0
 12 13  1  1
 12 14  1  0
 14 16  1  0
 14 15  1  6
 15  7  1  0
 16 17  2  0
 18 16  1  0
 18 19  1  0
 19 20  1  0
 20 21  2  0
 20 22  1  0
M  END
$$$$
