EIG.pdb
     RDKit          3D

 22 21  0  0  1  0  0  0  0  0999 V2000
    7.6272  -13.8077   19.8626 N   0  0  0  0  0  0  0  0  0  0  0  0
    7.1117  -14.5002   20.9808 C   0  0  1  0  0  0  0  0  0  0  0  0
    6.8587  -15.9362   20.7195 C   0  0  0  0  0  0  0  0  0  0  0  0
    8.0462  -16.7154   20.3093 C   0  0  0  0  0  0  0  0  0  0  0  0
    7.8853  -18.1447   20.1057 C   0  0  0  0  0  0  0  0  0  0  0  0
    7.9637  -19.0748   20.9280 O   0  0  0  0  0  0  0  0  0  0  0  0
    7.9195  -14.2801   22.2255 C   0  0  0  0  0  0  0  0  0  0  0  0
    9.1541  -14.0398   22.1669 O   0  0  0  0  0  0  0  0  0  0  0  0
    7.5960  -18.5772   18.7885 O   0  0  0  0  0  0  0  0  0  0  0  0
    5.8637  -11.5046   26.3891 C   0  0  0  0  0  0  0  0  0  0  0  0
    6.7928  -12.0287   25.2857 C   0  0  0  0  0  0  0  0  0  0  0  0
    7.3460  -13.3273   25.7601 C   0  0  2  0  0  0  0  0  0  0  0  0
    8.1743  -13.1454   27.0295 C   0  0  0  0  0  0  0  0  0  0  0  0
    8.0786  -14.1376   24.7503 C   0  0  2  0  0  0  0  0  0  0  0  0
    7.3375  -14.3315   23.5184 N   0  0  0  0  0  0  0  0  0  0  0  0
    8.5114  -15.4554   25.2791 C   0  0  0  0  0  0  0  0  0  0  0  0
    7.6154  -16.2899   25.6387 O   0  0  0  0  0  0  0  0  0  0  0  0
    9.8838  -15.7642   25.3778 N   0  0  0  0  0  0  0  0  0  0  0  0
   10.3016  -17.0803   25.7953 C   0  0  0  0  0  0  0  0  0  0  0  0
   10.3425  -17.2446   27.2493 C   0  0  0  0  0  0  0  0  0  0  0  0
    9.9886  -16.3361   28.0289 O   0  0  0  0  0  0  0  0  0  0  0  0
   10.7913  -18.4547   27.7891 O   0  0  0  0  0  0  0  0  0  0  0  0
  2  1  1  6
  2  7  1  0
  3  2  1  0
  3  4  1  0
  5  4  1  0
  5  6  2  0
  7  8  2  0
  9  5  1  0
 10 11  1  0
 11 12  1  0
 12 13  1  1
 12 14  1  0
 14 16  1  0
 14 15  1  6
 15  7  1  0
 16 17  2  0
 18 16  1  0
 18 19  1  0
 19 20  1  0
 20 21  2  0
 20 22  1  0
M  END
$$$$
