DAT.pdb
     RDKit          3D

 21 20  0  0  1  0  0  0  0  0999 V2000
   18.8669  -12.2285  -16.7408 N   0  0  0  0  0  0  0  0  0  0  0  0
   19.7854  -11.2793  -17.3290 C   0  0  1  0  0  0  0  0  0  0  0  0
   19.1044  -10.4405  -18.3893 C   0  0  0  0  0  0  0  0  0  0  0  0
   18.6872  -11.3046  -19.5145 C   0  0  0  0  0  0  0  0  0  0  0  0
   17.4763  -11.3778  -19.8230 O   0  0  0  0  0  0  0  0  0  0  0  0
   20.3719  -10.4468  -16.2595 C   0  0  0  0  0  0  0  0  0  0  0  0
   19.5859   -9.8362  -15.4857 O   0  0  0  0  0  0  0  0  0  0  0  0
   19.6021  -12.0429  -20.2452 O   0  0  0  0  0  0  0  0  0  0  0  0
   23.6796   -9.9353  -14.6864 C   0  0  0  0  0  0  0  0  0  0  0  0
   22.2674   -9.4784  -15.0078 C   0  0  2  0  0  0  0  0  0  0  0  0
   21.7734  -10.3034  -16.0641 N   0  0  0  0  0  0  0  0  0  0  0  0
   22.2285   -8.0320  -15.3433 C   0  0  0  0  0  0  0  0  0  0  0  0
   22.7022   -7.6233  -16.4348 O   0  0  0  0  0  0  0  0  0  0  0  0
   19.7245   -5.7530  -16.3111 C   0  0  0  0  0  0  0  0  0  0  0  0
   20.3129   -5.1072  -15.1043 C   0  0  1  0  0  0  0  0  0  0  0  0
   19.4776   -5.3398  -14.0110 O   0  0  0  0  0  0  0  0  0  0  0  0
   21.6755   -5.6494  -14.7412 C   0  0  2  0  0  0  0  0  0  0  0  0
   21.6696   -7.0569  -14.4739 N   0  0  0  0  0  0  0  0  0  0  0  0
   22.3008   -4.8474  -13.6823 C   0  0  0  0  0  0  0  0  0  0  0  0
   22.6388   -3.6642  -13.8867 O   0  0  0  0  0  0  0  0  0  0  0  0
   22.5192   -5.4077  -12.4425 O   0  0  0  0  0  0  0  0  0  0  0  0
  2  1  1  1
  2  3  1  0
  3  4  1  0
  4  8  1  0
  5  4  2  0
  6  2  1  0
  7  6  2  0
 10  9  1  6
 10 12  1  0
 10 11  1  0
 11  6  1  0
 12 13  2  0
 15 16  1  0
 15 14  1  6
 17 15  1  0
 18 12  1  0
 17 18  1  1
 19 17  1  0
 19 21  1  0
 20 19  2  0
M  END
$$$$
