DAT.pdb
     RDKit          3D

 21 20  0  0  1  0  0  0  0  0999 V2000
   16.3398  -13.5896  -16.0151 N   0  0  0  0  0  0  0  0  0  0  0  0
   15.4113  -12.6855  -15.3739 C   0  0  1  0  0  0  0  0  0  0  0  0
   14.7399  -13.3393  -14.1851 C   0  0  0  0  0  0  0  0  0  0  0  0
   13.9417  -14.4979  -14.6404 C   0  0  0  0  0  0  0  0  0  0  0  0
   13.8802  -14.7659  -15.8616 O   0  0  0  0  0  0  0  0  0  0  0  0
   16.1241  -11.4491  -14.9938 C   0  0  0  0  0  0  0  0  0  0  0  0
   15.4909  -10.5780  -14.3382 O   0  0  0  0  0  0  0  0  0  0  0  0
   13.2531  -15.3041  -13.7504 O   0  0  0  0  0  0  0  0  0  0  0  0
   19.6455  -10.3029  -14.8978 C   0  0  0  0  0  0  0  0  0  0  0  0
   18.1508  -10.0515  -14.8028 C   0  0  2  0  0  0  0  0  0  0  0  0
   17.4827  -11.1982  -15.3314 N   0  0  0  0  0  0  0  0  0  0  0  0
   17.7672   -8.7943  -15.4944 C   0  0  0  0  0  0  0  0  0  0  0  0
   17.5817   -8.7887  -16.7388 O   0  0  0  0  0  0  0  0  0  0  0  0
   16.0092   -5.5009  -13.3690 C   0  0  0  0  0  0  0  0  0  0  0  0
   15.8792   -5.8017  -14.8224 C   0  0  1  0  0  0  0  0  0  0  0  0
   15.5777   -4.6231  -15.5057 O   0  0  0  0  0  0  0  0  0  0  0  0
   17.1456   -6.3540  -15.4335 C   0  0  2  0  0  0  0  0  0  0  0  0
   17.5935   -7.5625  -14.8078 N   0  0  0  0  0  0  0  0  0  0  0  0
   18.1820   -5.3189  -15.5334 C   0  0  0  0  0  0  0  0  0  0  0  0
   19.2344   -5.3965  -14.8682 O   0  0  0  0  0  0  0  0  0  0  0  0
   17.9922   -4.2437  -16.3739 O   0  0  0  0  0  0  0  0  0  0  0  0
  2  1  1  1
  2  3  1  0
  3  4  1  0
  4  8  1  0
  5  4  2  0
  6  2  1  0
  7  6  2  0
 10  9  1  6
 10 12  1  0
 10 11  1  0
 11  6  1  0
 12 13  2  0
 15 16  1  0
 15 14  1  1
 17 15  1  0
 18 12  1  0
 17 18  1  1
 19 17  1  0
 19 21  1  0
 20 19  2  0
M  END
$$$$
