DAT.pdb
     RDKit          3D

 21 20  0  0  1  0  0  0  0  0999 V2000
   18.1088  -14.6616  -17.6854 N   0  0  0  0  0  0  0  0  0  0  0  0
   17.5581  -13.8442  -16.6275 C   0  0  1  0  0  0  0  0  0  0  0  0
   17.8437  -14.4416  -15.2662 C   0  0  0  0  0  0  0  0  0  0  0  0
   17.1233  -15.7254  -15.1260 C   0  0  0  0  0  0  0  0  0  0  0  0
   15.9145  -15.7950  -15.4440 O   0  0  0  0  0  0  0  0  0  0  0  0
   18.0895  -12.4716  -16.7500 C   0  0  0  0  0  0  0  0  0  0  0  0
   19.3361  -12.3275  -16.8708 O   0  0  0  0  0  0  0  0  0  0  0  0
   17.7489  -16.8646  -14.6495 O   0  0  0  0  0  0  0  0  0  0  0  0
   16.7023   -9.0477  -17.2057 C   0  0  0  0  0  0  0  0  0  0  0  0
   17.8390  -10.0239  -16.9582 C   0  0  2  0  0  0  0  0  0  0  0  0
   17.2646  -11.3131  -16.7378 N   0  0  0  0  0  0  0  0  0  0  0  0
   18.7003   -9.5794  -15.8326 C   0  0  0  0  0  0  0  0  0  0  0  0
   18.4271   -9.9234  -14.6536 O   0  0  0  0  0  0  0  0  0  0  0  0
   22.2815  -10.2905  -15.1422 C   0  0  0  0  0  0  0  0  0  0  0  0
   22.1406   -8.8074  -15.1348 C   0  0  1  0  0  0  0  0  0  0  0  0
   22.5844   -8.3021  -16.3574 O   0  0  0  0  0  0  0  0  0  0  0  0
   20.7137   -8.3439  -14.9581 C   0  0  2  0  0  0  0  0  0  0  0  0
   19.8485   -8.7638  -16.0201 N   0  0  0  0  0  0  0  0  0  0  0  0
   20.6541   -6.9037  -14.6793 C   0  0  0  0  0  0  0  0  0  0  0  0
   21.1454   -6.4301  -13.6350 O   0  0  0  0  0  0  0  0  0  0  0  0
   20.0467   -6.0594  -15.5831 O   0  0  0  0  0  0  0  0  0  0  0  0
  2  1  1  6
  2  3  1  0
  3  4  1  0
  4  8  1  0
  5  4  2  0
  6  2  1  0
  7  6  2  0
 10  9  1  1
 10 12  1  0
 10 11  1  0
 11  6  1  0
 12 13  2  0
 15 16  1  0
 15 14  1  6
 17 15  1  0
 18 12  1  0
 17 18  1  6
 19 17  1  0
 19 21  1  0
 20 19  2  0
M  END
$$$$
