DAT.pdb
     RDKit          3D

 21 20  0  0  1  0  0  0  0  0999 V2000
   17.3396  -12.3936  -15.7864 N   0  0  0  0  0  0  0  0  0  0  0  0
   17.2073  -11.0421  -16.2830 C   0  0  1  0  0  0  0  0  0  0  0  0
   16.0856  -10.3064  -15.5816 C   0  0  0  0  0  0  0  0  0  0  0  0
   14.7951  -10.9614  -15.8858 C   0  0  0  0  0  0  0  0  0  0  0  0
   13.9405  -11.0958  -14.9810 O   0  0  0  0  0  0  0  0  0  0  0  0
   18.5006  -10.3441  -16.1373 C   0  0  0  0  0  0  0  0  0  0  0  0
   19.0328  -10.3152  -14.9947 O   0  0  0  0  0  0  0  0  0  0  0  0
   14.4986  -11.4356  -17.1520 O   0  0  0  0  0  0  0  0  0  0  0  0
   21.1399   -9.0694  -18.3915 C   0  0  0  0  0  0  0  0  0  0  0  0
   20.4723   -9.1556  -17.0302 C   0  0  2  0  0  0  0  0  0  0  0  0
   19.1684   -9.7075  -17.2196 N   0  0  0  0  0  0  0  0  0  0  0  0
   20.4430   -7.8326  -16.3557 C   0  0  0  0  0  0  0  0  0  0  0  0
   19.4561   -7.0672  -16.5080 O   0  0  0  0  0  0  0  0  0  0  0  0
   22.1917   -4.7861  -12.8512 C   0  0  0  0  0  0  0  0  0  0  0  0
   22.1671   -6.1178  -13.5188 C   0  0  1  0  0  0  0  0  0  0  0  0
   21.4397   -7.0091  -12.7293 O   0  0  0  0  0  0  0  0  0  0  0  0
   21.5073   -6.0926  -14.8775 C   0  0  2  0  0  0  0  0  0  0  0  0
   21.4987   -7.3711  -15.5243 N   0  0  0  0  0  0  0  0  0  0  0  0
   22.0477   -5.0108  -15.7100 C   0  0  0  0  0  0  0  0  0  0  0  0
   23.0170   -5.2075  -16.4702 O   0  0  0  0  0  0  0  0  0  0  0  0
   21.4775   -3.7577  -15.6531 O   0  0  0  0  0  0  0  0  0  0  0  0
  2  1  1  1
  2  3  1  0
  3  4  1  0
  4  8  1  0
  5  4  2  0
  6  2  1  0
  7  6  2  0
 10  9  1  6
 10 12  1  0
 10 11  1  0
 11  6  1  0
 12 13  2  0
 15 16  1  0
 15 14  1  1
 17 15  1  0
 18 12  1  0
 17 18  1  6
 19 17  1  0
 19 21  1  0
 20 19  2  0
M  END
$$$$
