DAT.pdb
     RDKit          3D

 21 20  0  0  1  0  0  0  0  0999 V2000
   19.9457  -12.7466  -17.7460 N   0  0  0  0  0  0  0  0  0  0  0  0
   20.5523  -11.4761  -18.0751 C   0  0  1  0  0  0  0  0  0  0  0  0
   19.5990  -10.5983  -18.8575 C   0  0  0  0  0  0  0  0  0  0  0  0
   19.2856  -11.2371  -20.1538 C   0  0  0  0  0  0  0  0  0  0  0  0
   20.2081  -11.4750  -20.9658 O   0  0  0  0  0  0  0  0  0  0  0  0
   21.0107  -10.8223  -16.8327 C   0  0  0  0  0  0  0  0  0  0  0  0
   20.1469  -10.5382  -15.9593 O   0  0  0  0  0  0  0  0  0  0  0  0
   17.9916  -11.5842  -20.5019 O   0  0  0  0  0  0  0  0  0  0  0  0
   24.1627  -10.1496  -15.0490 C   0  0  0  0  0  0  0  0  0  0  0  0
   22.7294   -9.7854  -15.3946 C   0  0  2  0  0  0  0  0  0  0  0  0
   22.3725  -10.5007  -16.5785 N   0  0  0  0  0  0  0  0  0  0  0  0
   22.5628   -8.3166  -15.5394 C   0  0  0  0  0  0  0  0  0  0  0  0
   22.9335   -7.7394  -16.5941 O   0  0  0  0  0  0  0  0  0  0  0  0
   20.0068   -6.2046  -16.3004 C   0  0  0  0  0  0  0  0  0  0  0  0
   20.4670   -5.6376  -15.0018 C   0  0  1  0  0  0  0  0  0  0  0  0
   19.6080   -6.0653  -13.9888 O   0  0  0  0  0  0  0  0  0  0  0  0
   21.8587   -6.0812  -14.6162 C   0  0  2  0  0  0  0  0  0  0  0  0
   21.9915   -7.5047  -14.5229 N   0  0  0  0  0  0  0  0  0  0  0  0
   22.3347   -5.3623  -13.4278 C   0  0  0  0  0  0  0  0  0  0  0  0
   22.6078   -5.9718  -12.3742 O   0  0  0  0  0  0  0  0  0  0  0  0
   22.4830   -3.9932  -13.4739 O   0  0  0  0  0  0  0  0  0  0  0  0
  2  1  1  1
  2  3  1  0
  3  4  1  0
  4  8  1  0
  5  4  2  0
  6  2  1  0
  7  6  2  0
 10  9  1  6
 10 12  1  0
 10 11  1  0
 11  6  1  0
 12 13  2  0
 15 16  1  0
 15 14  1  6
 17 15  1  0
 18 12  1  0
 17 18  1  1
 19 17  1  0
 19 21  1  0
 20 19  2  0
M  END
$$$$
