DAT.pdb
     RDKit          3D

 21 20  0  0  1  0  0  0  0  0999 V2000
   18.3266  -12.0431  -16.3849 N   0  0  0  0  0  0  0  0  0  0  0  0
   19.3574  -11.1964  -16.9426 C   0  0  1  0  0  0  0  0  0  0  0  0
   18.8019  -10.2940  -18.0236 C   0  0  0  0  0  0  0  0  0  0  0  0
   18.8741  -10.9819  -19.3307 C   0  0  0  0  0  0  0  0  0  0  0  0
   19.7667  -11.8361  -19.5324 O   0  0  0  0  0  0  0  0  0  0  0  0
   19.9929  -10.4266  -15.8541 C   0  0  0  0  0  0  0  0  0  0  0  0
   19.2443   -9.7995  -15.0568 O   0  0  0  0  0  0  0  0  0  0  0  0
   17.9771  -10.7090  -20.3490 O   0  0  0  0  0  0  0  0  0  0  0  0
   23.3043  -10.0819  -14.2633 C   0  0  0  0  0  0  0  0  0  0  0  0
   21.9483   -9.5182  -14.6505 C   0  0  2  0  0  0  0  0  0  0  0  0
   21.4011  -10.3610  -15.6659 N   0  0  0  0  0  0  0  0  0  0  0  0
   22.0525   -8.0993  -15.0771 C   0  0  0  0  0  0  0  0  0  0  0  0
   22.5560   -7.8102  -16.1933 O   0  0  0  0  0  0  0  0  0  0  0  0
   19.7254   -5.7272  -16.2064 C   0  0  0  0  0  0  0  0  0  0  0  0
   20.3593   -5.0454  -15.0431 C   0  0  1  0  0  0  0  0  0  0  0  0
   19.5207   -5.1637  -13.9342 O   0  0  0  0  0  0  0  0  0  0  0  0
   21.6914   -5.6425  -14.6542 C   0  0  2  0  0  0  0  0  0  0  0  0
   21.6017   -7.0200  -14.2704 N   0  0  0  0  0  0  0  0  0  0  0  0
   22.3856   -4.7981  -13.6741 C   0  0  0  0  0  0  0  0  0  0  0  0
   22.6327   -5.2168  -12.5253 O   0  0  0  0  0  0  0  0  0  0  0  0
   22.7715   -3.5229  -14.0257 O   0  0  0  0  0  0  0  0  0  0  0  0
  2  1  1  1
  2  3  1  0
  3  4  1  0
  4  8  1  0
  5  4  2  0
  6  2  1  0
  7  6  2  0
 10  9  1  6
 10 12  1  0
 10 11  1  0
 11  6  1  0
 12 13  2  0
 15 16  1  0
 15 14  1  6
 17 15  1  0
 18 12  1  0
 17 18  1  1
 19 17  1  0
 19 21  1  0
 20 19  2  0
M  END
$$$$
