DAT.pdb
     RDKit          3D

 21 20  0  0  1  0  0  0  0  0999 V2000
   17.6628  -12.2955  -16.8883 N   0  0  0  0  0  0  0  0  0  0  0  0
   17.4585  -10.8649  -16.8441 C   0  0  1  0  0  0  0  0  0  0  0  0
   16.5023  -10.4804  -15.7353 C   0  0  0  0  0  0  0  0  0  0  0  0
   15.1577  -11.0214  -16.0290 C   0  0  0  0  0  0  0  0  0  0  0  0
   14.4837  -11.5378  -15.1092 O   0  0  0  0  0  0  0  0  0  0  0  0
   18.7663  -10.1934  -16.7022 C   0  0  0  0  0  0  0  0  0  0  0  0
   19.3783  -10.3139  -15.6066 O   0  0  0  0  0  0  0  0  0  0  0  0
   14.6146  -10.9745  -17.3013 O   0  0  0  0  0  0  0  0  0  0  0  0
   21.1201   -8.2589  -18.8444 C   0  0  0  0  0  0  0  0  0  0  0  0
   20.5960   -8.7416  -17.5032 C   0  0  2  0  0  0  0  0  0  0  0  0
   19.3624   -9.4224  -17.7381 N   0  0  0  0  0  0  0  0  0  0  0  0
   20.4580   -7.6199  -16.5393 C   0  0  0  0  0  0  0  0  0  0  0  0
   19.3647   -7.0060  -16.4363 O   0  0  0  0  0  0  0  0  0  0  0  0
   21.6023   -5.3539  -12.3995 C   0  0  0  0  0  0  0  0  0  0  0  0
   21.5831   -6.5061  -13.3438 C   0  0  1  0  0  0  0  0  0  0  0  0
   20.4967   -7.3267  -13.0382 O   0  0  0  0  0  0  0  0  0  0  0  0
   21.4299   -6.0918  -14.7885 C   0  0  2  0  0  0  0  0  0  0  0  0
   21.5237   -7.1903  -15.7035 N   0  0  0  0  0  0  0  0  0  0  0  0
   22.3187   -4.9701  -15.1160 C   0  0  0  0  0  0  0  0  0  0  0  0
   23.4500   -5.1673  -15.6032 O   0  0  0  0  0  0  0  0  0  0  0  0
   21.8997   -3.6783  -14.8828 O   0  0  0  0  0  0  0  0  0  0  0  0
  2  1  1  1
  2  3  1  0
  3  4  1  0
  4  8  1  0
  5  4  2  0
  6  2  1  0
  7  6  2  0
 10  9  1  6
 10 12  1  0
 10 11  1  0
 11  6  1  0
 12 13  2  0
 15 16  1  0
 15 14  1  1
 17 15  1  0
 18 12  1  0
 17 18  1  6
 19 17  1  0
 19 21  1  0
 20 19  2  0
M  END
$$$$
