MSM.pdb
     RDKit          3D

 23 22  0  0  1  0  0  0  0  0999 V2000
    9.1086  -12.1669   19.7969 C   0  0  0  0  0  0  0  0  0  0  0  0
    7.5313  -12.2068   20.6670 S   0  0  0  0  0  0  0  0  0  0  0  0
    7.0538  -13.9360   20.9264 C   0  0  0  0  0  0  0  0  0  0  0  0
    7.5835  -14.7721   19.7580 C   0  0  0  0  0  0  0  0  0  0  0  0
    7.2881  -16.2552   20.0184 C   0  0  2  0  0  0  0  0  0  0  0  0
    5.8444  -16.4186   19.9944 N   0  0  0  0  0  0  0  0  0  0  0  0
    7.8766  -16.6278   21.3067 C   0  0  0  0  0  0  0  0  0  0  0  0
    7.1027  -16.6336   22.3102 O   0  0  0  0  0  0  0  0  0  0  0  0
   11.9351  -16.7846   22.2698 O   0  0  0  0  0  0  0  0  0  0  0  0
   11.1883  -17.8859   22.6570 C   0  0  0  0  0  0  0  0  0  0  0  0
    9.7468  -17.4487   22.8094 C   0  0  2  0  0  0  0  0  0  0  0  0
    9.2169  -16.9793   21.5366 N   0  0  0  0  0  0  0  0  0  0  0  0
    9.5851  -16.4189   23.8630 C   0  0  0  0  0  0  0  0  0  0  0  0
    9.2391  -15.2531   23.4948 O   0  0  0  0  0  0  0  0  0  0  0  0
    6.9976  -11.0890   25.9723 C   0  0  0  0  0  0  0  0  0  0  0  0
    7.3140  -12.6577   26.8158 S   0  0  0  0  0  0  0  0  0  0  0  0
    7.8043  -13.8711   25.5348 C   0  0  0  0  0  0  0  0  0  0  0  0
    7.9808  -15.2350   26.1366 C   0  0  0  0  0  0  0  0  0  0  0  0
    9.4169  -15.5932   26.2389 C   0  0  2  0  0  0  0  0  0  0  0  0
    9.7787  -16.6114   25.2444 N   0  0  0  0  0  0  0  0  0  0  0  0
    9.8063  -15.9895   27.5795 C   0  0  0  0  0  0  0  0  0  0  0  0
    9.7506  -17.1392   28.0410 O   0  0  0  0  0  0  0  0  0  0  0  0
   10.2941  -14.9959   28.4518 O   0  0  0  0  0  0  0  0  0  0  0  0
  1  2  1  0
  3  2  1  0
  4  3  1  0
  5  6  1  1
  5  7  1  0
  5  4  1  0
  7  8  2  0
 10  9  1  0
 11 10  1  6
 11 13  1  0
 12  7  1  0
 12 11  1  0
 13 14  2  0
 13 20  1  0
 15 16  1  0
 17 16  1  0
 18 17  1  0
 19 18  1  1
 20 19  1  0
 21 19  1  0
 21 23  1  0
 22 21  2  0
M  END
$$$$
