MSM.pdb
     RDKit          3D

 23 22  0  0  1  0  0  0  0  0999 V2000
    8.2018  -13.0946   17.3421 C   0  0  0  0  0  0  0  0  0  0  0  0
    8.2702  -12.5442   19.0564 S   0  0  0  0  0  0  0  0  0  0  0  0
    6.7437  -13.0521   19.8916 C   0  0  0  0  0  0  0  0  0  0  0  0
    7.0847  -14.1291   20.9253 C   0  0  0  0  0  0  0  0  0  0  0  0
    7.7841  -15.3023   20.2260 C   0  0  2  0  0  0  0  0  0  0  0  0
    6.7867  -15.9767   19.4124 N   0  0  0  0  0  0  0  0  0  0  0  0
    8.3621  -16.1762   21.2492 C   0  0  0  0  0  0  0  0  0  0  0  0
    7.5600  -16.6858   22.0876 O   0  0  0  0  0  0  0  0  0  0  0  0
   12.5078  -17.0469   21.7988 O   0  0  0  0  0  0  0  0  0  0  0  0
   11.5390  -18.0188   21.9921 C   0  0  0  0  0  0  0  0  0  0  0  0
   10.2695  -17.3345   22.4533 C   0  0  2  0  0  0  0  0  0  0  0  0
    9.7207  -16.5038   21.3904 N   0  0  0  0  0  0  0  0  0  0  0  0
   10.4799  -16.5437   23.6889 C   0  0  0  0  0  0  0  0  0  0  0  0
   10.9354  -15.3647   23.5598 O   0  0  0  0  0  0  0  0  0  0  0  0
    6.6456  -12.0364   27.5780 C   0  0  0  0  0  0  0  0  0  0  0  0
    7.1165  -13.0361   26.1458 S   0  0  0  0  0  0  0  0  0  0  0  0
    8.0090  -14.5037   26.7807 C   0  0  0  0  0  0  0  0  0  0  0  0
    8.5562  -15.3224   25.6476 C   0  0  0  0  0  0  0  0  0  0  0  0
    9.7747  -16.0611   26.0606 C   0  0  2  0  0  0  0  0  0  0  0  0
   10.2197  -16.9777   25.0030 N   0  0  0  0  0  0  0  0  0  0  0  0
    9.6182  -16.7433   27.3319 C   0  0  0  0  0  0  0  0  0  0  0  0
    9.2845  -17.9281   27.4830 O   0  0  0  0  0  0  0  0  0  0  0  0
    9.8620  -16.0140   28.5128 O   0  0  0  0  0  0  0  0  0  0  0  0
  1  2  1  0
  3  2  1  0
  4  3  1  0
  5  6  1  1
  5  7  1  0
  5  4  1  0
  7  8  2  0
 10  9  1  0
 11 10  1  6
 11 13  1  0
 12  7  1  0
 12 11  1  0
 13 14  2  0
 13 20  1  0
 15 16  1  0
 17 16  1  0
 18 17  1  0
 19 18  1  6
 20 19  1  0
 21 19  1  0
 21 23  1  0
 22 21  2  0
M  END
$$$$
