MSM.pdb
     RDKit          3D

 23 22  0  0  1  0  0  0  0  0999 V2000
    8.3877  -11.4687   19.4488 C   0  0  0  0  0  0  0  0  0  0  0  0
    8.0357  -13.1847   19.8706 S   0  0  0  0  0  0  0  0  0  0  0  0
    7.0332  -13.2185   21.3804 C   0  0  0  0  0  0  0  0  0  0  0  0
    6.6774  -14.6730   21.7009 C   0  0  0  0  0  0  0  0  0  0  0  0
    7.8177  -15.5896   21.2380 C   0  0  2  0  0  0  0  0  0  0  0  0
    7.2669  -16.4959   20.2446 N   0  0  0  0  0  0  0  0  0  0  0  0
    8.3538  -16.2916   22.4062 C   0  0  0  0  0  0  0  0  0  0  0  0
    7.5130  -16.8234   23.1913 O   0  0  0  0  0  0  0  0  0  0  0  0
   11.1824  -18.9756   22.9473 O   0  0  0  0  0  0  0  0  0  0  0  0
   11.4959  -17.8256   23.6542 C   0  0  0  0  0  0  0  0  0  0  0  0
   10.2080  -17.0838   23.9437 C   0  0  2  0  0  0  0  0  0  0  0  0
    9.7109  -16.4321   22.7399 N   0  0  0  0  0  0  0  0  0  0  0  0
   10.3627  -16.1088   25.0490 C   0  0  0  0  0  0  0  0  0  0  0  0
   11.2249  -15.1872   24.9012 O   0  0  0  0  0  0  0  0  0  0  0  0
    7.1093  -11.1628   25.5526 C   0  0  0  0  0  0  0  0  0  0  0  0
    7.3608  -12.2144   27.0028 S   0  0  0  0  0  0  0  0  0  0  0  0
    8.6623  -13.4283   26.5714 C   0  0  0  0  0  0  0  0  0  0  0  0
    8.9878  -14.2981   27.7508 C   0  0  0  0  0  0  0  0  0  0  0  0
   10.0374  -15.2900   27.4110 C   0  0  2  0  0  0  0  0  0  0  0  0
    9.6386  -16.1056   26.2567 N   0  0  0  0  0  0  0  0  0  0  0  0
   10.4246  -16.1128   28.5420 C   0  0  0  0  0  0  0  0  0  0  0  0
   10.2833  -17.3419   28.6269 O   0  0  0  0  0  0  0  0  0  0  0  0
   11.0157  -15.4800   29.6537 O   0  0  0  0  0  0  0  0  0  0  0  0
  1  2  1  0
  3  2  1  0
  4  3  1  0
  5  6  1  6
  5  7  1  0
  5  4  1  0
  7  8  2  0
 10  9  1  0
 11 10  1  6
 11 13  1  0
 12  7  1  0
 12 11  1  0
 13 14  2  0
 13 20  1  0
 15 16  1  0
 17 16  1  0
 18 17  1  0
 19 18  1  1
 20 19  1  0
 21 19  1  0
 21 23  1  0
 22 21  2  0
M  END
$$$$
