MSM.pdb
     RDKit          3D

 23 22  0  0  1  0  0  0  0  0999 V2000
    8.2914  -11.6964   19.3464 C   0  0  0  0  0  0  0  0  0  0  0  0
    7.9618  -13.4530   19.1181 S   0  0  0  0  0  0  0  0  0  0  0  0
    6.5378  -13.9151   20.1400 C   0  0  0  0  0  0  0  0  0  0  0  0
    6.9250  -15.1165   21.0070 C   0  0  0  0  0  0  0  0  0  0  0  0
    8.3872  -14.9741   21.4501 C   0  0  2  0  0  0  0  0  0  0  0  0
    9.2144  -15.5374   20.3966 N   0  0  0  0  0  0  0  0  0  0  0  0
    8.5550  -15.6661   22.7299 C   0  0  0  0  0  0  0  0  0  0  0  0
    7.9571  -15.1715   23.7318 O   0  0  0  0  0  0  0  0  0  0  0  0
   10.5518  -19.2298   25.3857 O   0  0  0  0  0  0  0  0  0  0  0  0
   10.3695  -18.6937   24.1209 C   0  0  0  0  0  0  0  0  0  0  0  0
    9.5393  -17.4348   24.2571 C   0  0  2  0  0  0  0  0  0  0  0  0
    9.3154  -16.8258   22.9533 N   0  0  0  0  0  0  0  0  0  0  0  0
   10.1480  -16.4648   25.1978 C   0  0  0  0  0  0  0  0  0  0  0  0
   10.9434  -15.5998   24.7146 O   0  0  0  0  0  0  0  0  0  0  0  0
    6.5556  -12.3507   26.1426 C   0  0  0  0  0  0  0  0  0  0  0  0
    8.0890  -12.1584   27.0828 S   0  0  0  0  0  0  0  0  0  0  0  0
    8.6650  -13.8389   27.5275 C   0  0  0  0  0  0  0  0  0  0  0  0
   10.0928  -14.0379   27.1089 C   0  0  0  0  0  0  0  0  0  0  0  0
   10.5642  -15.4035   27.4463 C   0  0  2  0  0  0  0  0  0  0  0  0
    9.9259  -16.4092   26.5872 N   0  0  0  0  0  0  0  0  0  0  0  0
   10.4097  -15.7230   28.8534 C   0  0  0  0  0  0  0  0  0  0  0  0
   10.7870  -15.0197   29.8026 O   0  0  0  0  0  0  0  0  0  0  0  0
    9.7777  -16.9353   29.1949 O   0  0  0  0  0  0  0  0  0  0  0  0
  1  2  1  0
  3  2  1  0
  4  3  1  0
  5  6  1  6
  5  7  1  0
  5  4  1  0
  7  8  2  0
 10  9  1  0
 11 10  1  6
 11 13  1  0
 12  7  1  0
 12 11  1  0
 13 14  2  0
 13 20  1  0
 15 16  1  0
 17 16  1  0
 18 17  1  0
 19 18  1  1
 20 19  1  0
 21 19  1  0
 21 23  1  0
 22 21  2  0
M  END
$$$$
