MSM.pdb
     RDKit          3D

 23 22  0  0  1  0  0  0  0  0999 V2000
    7.7936  -11.7192   20.8935 C   0  0  0  0  0  0  0  0  0  0  0  0
    7.4103  -12.4353   19.2851 S   0  0  0  0  0  0  0  0  0  0  0  0
    7.9898  -14.1527   19.2603 C   0  0  0  0  0  0  0  0  0  0  0  0
    8.1671  -14.6318   20.7038 C   0  0  0  0  0  0  0  0  0  0  0  0
    8.5464  -16.1187   20.7035 C   0  0  2  0  0  0  0  0  0  0  0  0
    7.4589  -16.8416   20.0661 N   0  0  0  0  0  0  0  0  0  0  0  0
    8.7704  -16.5421   22.0875 C   0  0  0  0  0  0  0  0  0  0  0  0
    7.7442  -16.6783   22.8185 O   0  0  0  0  0  0  0  0  0  0  0  0
   11.1792  -19.2145   23.1478 O   0  0  0  0  0  0  0  0  0  0  0  0
   11.3562  -18.2511   24.1281 C   0  0  0  0  0  0  0  0  0  0  0  0
   10.1976  -17.2794   24.0494 C   0  0  2  0  0  0  0  0  0  0  0  0
   10.0139  -16.8117   22.6824 N   0  0  0  0  0  0  0  0  0  0  0  0
   10.3619  -16.1394   24.9820 C   0  0  0  0  0  0  0  0  0  0  0  0
   11.2503  -15.2755   24.7010 O   0  0  0  0  0  0  0  0  0  0  0  0
    6.4119  -11.4786   25.4645 C   0  0  0  0  0  0  0  0  0  0  0  0
    7.0101  -12.3166   26.9518 S   0  0  0  0  0  0  0  0  0  0  0  0
    8.3705  -13.4286   26.4359 C   0  0  0  0  0  0  0  0  0  0  0  0
    9.0023  -14.0826   27.6302 C   0  0  0  0  0  0  0  0  0  0  0  0
   10.0802  -15.0166   27.2215 C   0  0  2  0  0  0  0  0  0  0  0  0
    9.6204  -15.9200   26.1588 N   0  0  0  0  0  0  0  0  0  0  0  0
   10.6486  -15.7472   28.3391 C   0  0  0  0  0  0  0  0  0  0  0  0
   10.6014  -16.9757   28.5018 O   0  0  0  0  0  0  0  0  0  0  0  0
   11.3184  -15.0161   29.3404 O   0  0  0  0  0  0  0  0  0  0  0  0
  1  2  1  0
  3  2  1  0
  4  3  1  0
  5  6  1  1
  5  7  1  0
  5  4  1  0
  7  8  2  0
 10  9  1  0
 11 10  1  6
 11 13  1  0
 12  7  1  0
 12 11  1  0
 13 14  2  0
 13 20  1  0
 15 16  1  0
 17 16  1  0
 18 17  1  0
 19 18  1  1
 20 19  1  0
 21 19  1  0
 21 23  1  0
 22 21  2  0
M  END
$$$$
