MSM.pdb
     RDKit          3D

 23 22  0  0  1  0  0  0  0  0999 V2000
    8.9671  -11.5473   19.9459 C   0  0  0  0  0  0  0  0  0  0  0  0
    7.9945  -12.2635   18.6090 S   0  0  0  0  0  0  0  0  0  0  0  0
    8.2887  -14.0517   18.5691 C   0  0  0  0  0  0  0  0  0  0  0  0
    8.2862  -14.5817   20.0058 C   0  0  0  0  0  0  0  0  0  0  0  0
    8.5631  -16.0909   19.9919 C   0  0  2  0  0  0  0  0  0  0  0  0
    7.5738  -16.7034   19.1215 N   0  0  0  0  0  0  0  0  0  0  0  0
    8.4908  -16.5899   21.3669 C   0  0  0  0  0  0  0  0  0  0  0  0
    7.3532  -16.5699   21.9250 O   0  0  0  0  0  0  0  0  0  0  0  0
   11.6497  -18.4138   23.3200 O   0  0  0  0  0  0  0  0  0  0  0  0
   10.3661  -18.7964   23.6760 C   0  0  0  0  0  0  0  0  0  0  0  0
    9.4487  -17.6075   23.4827 C   0  0  2  0  0  0  0  0  0  0  0  0
    9.5618  -17.0888   22.1266 N   0  0  0  0  0  0  0  0  0  0  0  0
    9.7003  -16.5412   24.4807 C   0  0  0  0  0  0  0  0  0  0  0  0
   10.7218  -15.8057   24.3078 O   0  0  0  0  0  0  0  0  0  0  0  0
    6.4422  -10.9989   26.0303 C   0  0  0  0  0  0  0  0  0  0  0  0
    6.4772  -12.7961   26.2329 S   0  0  0  0  0  0  0  0  0  0  0  0
    8.0786  -13.2212   27.0129 C   0  0  0  0  0  0  0  0  0  0  0  0
    8.1506  -14.6912   27.3082 C   0  0  0  0  0  0  0  0  0  0  0  0
    9.3261  -15.3125   26.6499 C   0  0  2  0  0  0  0  0  0  0  0  0
    8.9079  -16.2625   25.6109 N   0  0  0  0  0  0  0  0  0  0  0  0
   10.2468  -15.9193   27.5934 C   0  0  0  0  0  0  0  0  0  0  0  0
   10.8655  -15.3239   28.4882 O   0  0  0  0  0  0  0  0  0  0  0  0
   10.4733  -17.3073   27.5032 O   0  0  0  0  0  0  0  0  0  0  0  0
  1  2  1  0
  3  2  1  0
  4  3  1  0
  5  6  1  6
  5  7  1  0
  5  4  1  0
  7  8  2  0
 10  9  1  0
 11 10  1  6
 11 13  1  0
 12  7  1  0
 12 11  1  0
 13 14  2  0
 13 20  1  0
 15 16  1  0
 17 16  1  0
 18 17  1  0
 19 18  1  1
 20 19  1  0
 21 19  1  0
 21 23  1  0
 22 21  2  0
M  END
$$$$
