MSM.pdb
     RDKit          3D

 23 22  0  0  1  0  0  0  0  0999 V2000
    7.9281  -11.8145   19.6641 C   0  0  0  0  0  0  0  0  0  0  0  0
    8.3405  -12.2937   17.9769 S   0  0  0  0  0  0  0  0  0  0  0  0
    8.5716  -14.0907   17.9228 C   0  0  0  0  0  0  0  0  0  0  0  0
    8.4640  -14.6426   19.3471 C   0  0  0  0  0  0  0  0  0  0  0  0
    8.6275  -16.1680   19.3155 C   0  0  2  0  0  0  0  0  0  0  0  0
    7.5812  -16.6967   18.4568 N   0  0  0  0  0  0  0  0  0  0  0  0
    8.5406  -16.6738   20.6872 C   0  0  0  0  0  0  0  0  0  0  0  0
    7.4165  -16.5761   21.2641 O   0  0  0  0  0  0  0  0  0  0  0  0
   11.7436  -18.3170   22.7903 O   0  0  0  0  0  0  0  0  0  0  0  0
   10.4841  -18.8248   23.0666 C   0  0  0  0  0  0  0  0  0  0  0  0
    9.4667  -17.7368   22.7948 C   0  0  2  0  0  0  0  0  0  0  0  0
    9.5841  -17.2570   21.4248 N   0  0  0  0  0  0  0  0  0  0  0  0
    9.5764  -16.6174   23.7598 C   0  0  0  0  0  0  0  0  0  0  0  0
   10.4118  -15.6969   23.4971 O   0  0  0  0  0  0  0  0  0  0  0  0
    6.0003  -12.0271   25.6840 C   0  0  0  0  0  0  0  0  0  0  0  0
    6.5470  -12.4952   27.3436 S   0  0  0  0  0  0  0  0  0  0  0  0
    8.0525  -13.5192   27.1482 C   0  0  0  0  0  0  0  0  0  0  0  0
    7.8333  -14.5937   26.1232 C   0  0  0  0  0  0  0  0  0  0  0  0
    9.0722  -15.3778   25.8962 C   0  0  2  0  0  0  0  0  0  0  0  0
    8.8360  -16.4750   24.9491 N   0  0  0  0  0  0  0  0  0  0  0  0
    9.6744  -15.8522   27.1285 C   0  0  0  0  0  0  0  0  0  0  0  0
    9.7717  -17.0379   27.4787 O   0  0  0  0  0  0  0  0  0  0  0  0
   10.2019  -14.8983   28.0215 O   0  0  0  0  0  0  0  0  0  0  0  0
  1  2  1  0
  3  2  1  0
  4  3  1  0
  5  6  1  6
  5  7  1  0
  5  4  1  0
  7  8  2  0
 10  9  1  0
 11 10  1  1
 11 13  1  0
 12  7  1  0
 12 11  1  0
 13 14  2  0
 13 20  1  0
 15 16  1  0
 17 16  1  0
 18 17  1  0
 19 18  1  1
 20 19  1  0
 21 19  1  0
 21 23  1  0
 22 21  2  0
M  END
$$$$
