DVM.pdb
     RDKit          3D

 24 23  0  0  1  0  0  0  0  0999 V2000
   10.4474  -17.4751   18.7832 N   0  0  0  0  0  0  0  0  0  0  0  0
   11.2000  -17.8643   20.0090 C   0  0  1  0  0  0  0  0  0  0  0  0
   12.6460  -17.7905   19.6719 C   0  0  0  0  0  0  0  0  0  0  0  0
   13.0643  -18.6257   18.5372 C   0  0  0  0  0  0  0  0  0  0  0  0
   12.1684  -19.2258   17.8808 O   0  0  0  0  0  0  0  0  0  0  0  0
   10.7742  -16.9802   21.1112 C   0  0  0  0  0  0  0  0  0  0  0  0
   11.6226  -16.5080   21.9358 O   0  0  0  0  0  0  0  0  0  0  0  0
   14.4155  -18.7226   18.2369 O   0  0  0  0  0  0  0  0  0  0  0  0
    6.7850  -15.3305   21.5920 C   0  0  0  0  0  0  0  0  0  0  0  0
    7.6369  -15.5792   22.8034 C   0  0  2  0  0  0  0  0  0  0  0  0
    7.4499  -14.5283   23.8730 C   0  0  0  0  0  0  0  0  0  0  0  0
    9.0490  -15.9004   22.5839 C   0  0  2  0  0  0  0  0  0  0  0  0
    9.4506  -16.5707   21.3866 N   0  0  0  0  0  0  0  0  0  0  0  0
    9.8700  -16.1887   23.7933 C   0  0  0  0  0  0  0  0  0  0  0  0
   11.0855  -15.7748   23.8491 O   0  0  0  0  0  0  0  0  0  0  0  0
    9.2690  -12.3038   27.6070 C   0  0  0  0  0  0  0  0  0  0  0  0
    9.9646  -13.4398   28.8111 S   0  0  0  0  0  0  0  0  0  0  0  0
   10.3274  -15.0540   28.1449 C   0  0  0  0  0  0  0  0  0  0  0  0
    9.7492  -15.3486   26.7977 C   0  0  0  0  0  0  0  0  0  0  0  0
   10.0664  -16.7046   26.2529 C   0  0  2  0  0  0  0  0  0  0  0  0
    9.4457  -16.9015   24.9292 N   0  0  0  0  0  0  0  0  0  0  0  0
    9.7394  -17.8327   27.1318 C   0  0  0  0  0  0  0  0  0  0  0  0
    8.6575  -18.4431   26.9214 O   0  0  0  0  0  0  0  0  0  0  0  0
   10.5029  -18.2915   28.1665 O   0  0  0  0  0  0  0  0  0  0  0  0
  2  1  1  6
  2  3  1  0
  3  4  1  0
  4  8  1  0
  4  5  2  0
  6  2  1  0
  7  6  2  0
 10  9  1  6
 10 12  1  0
 11 10  1  0
 12 13  1  6
 12 14  1  0
 13  6  1  0
 14 21  1  0
 15 14  2  0
 17 16  1  0
 18 17  1  0
 19 18  1  0
 20 19  1  1
 20 22  1  0
 21 20  1  0
 22 24  1  0
 23 22  2  0
M  END
$$$$
