DVM.pdb
     RDKit          3D

 24 23  0  0  1  0  0  0  0  0999 V2000
   11.0715  -17.8300   18.9424 N   0  0  0  0  0  0  0  0  0  0  0  0
    9.8730  -18.0720   19.7940 C   0  0  1  0  0  0  0  0  0  0  0  0
   10.1622  -19.2752   20.6179 C   0  0  0  0  0  0  0  0  0  0  0  0
   10.0931  -20.5545   19.8975 C   0  0  0  0  0  0  0  0  0  0  0  0
    9.5418  -20.5663   18.7620 O   0  0  0  0  0  0  0  0  0  0  0  0
    9.5999  -16.8436   20.5649 C   0  0  0  0  0  0  0  0  0  0  0  0
   10.4895  -16.3352   21.3219 O   0  0  0  0  0  0  0  0  0  0  0  0
   10.6293  -21.6887   20.4903 O   0  0  0  0  0  0  0  0  0  0  0  0
    7.8999  -13.2686   19.5557 C   0  0  0  0  0  0  0  0  0  0  0  0
    7.4271  -13.8217   20.8693 C   0  0  2  0  0  0  0  0  0  0  0  0
    7.2165  -12.7481   21.9117 C   0  0  0  0  0  0  0  0  0  0  0  0
    8.1349  -14.9853   21.4083 C   0  0  2  0  0  0  0  0  0  0  0  0
    8.3888  -16.1166   20.5718 N   0  0  0  0  0  0  0  0  0  0  0  0
    7.9399  -15.2813   22.8554 C   0  0  0  0  0  0  0  0  0  0  0  0
    7.1950  -16.2679   23.2069 O   0  0  0  0  0  0  0  0  0  0  0  0
   11.7993  -14.2016   28.5504 C   0  0  0  0  0  0  0  0  0  0  0  0
   10.0886  -13.7377   28.8377 S   0  0  0  0  0  0  0  0  0  0  0  0
    8.9397  -14.5112   27.7139 C   0  0  0  0  0  0  0  0  0  0  0  0
    9.1352  -14.1999   26.2645 C   0  0  0  0  0  0  0  0  0  0  0  0
    8.1920  -14.8920   25.3331 C   0  0  2  0  0  0  0  0  0  0  0  0
    8.5003  -14.5647   23.9282 N   0  0  0  0  0  0  0  0  0  0  0  0
    6.7659  -14.6719   25.5970 C   0  0  0  0  0  0  0  0  0  0  0  0
    6.2013  -13.7175   24.9989 O   0  0  0  0  0  0  0  0  0  0  0  0
    5.9816  -15.4100   26.4362 O   0  0  0  0  0  0  0  0  0  0  0  0
  2  1  1  6
  2  3  1  0
  3  4  1  0
  4  8  1  0
  4  5  2  0
  6  2  1  0
  7  6  2  0
 10  9  1  6
 10 12  1  0
 11 10  1  0
 12 13  1  6
 12 14  1  0
 13  6  1  0
 14 21  1  0
 15 14  2  0
 17 16  1  0
 18 17  1  0
 19 18  1  0
 20 19  1  1
 20 22  1  0
 21 20  1  0
 22 24  1  0
 23 22  2  0
M  END
$$$$
