DVM.pdb
     RDKit          3D

 24 23  0  0  1  0  0  0  0  0999 V2000
   12.6524  -17.2019   19.0243 N   0  0  0  0  0  0  0  0  0  0  0  0
   11.3493  -17.7370   19.5101 C   0  0  1  0  0  0  0  0  0  0  0  0
   11.6511  -18.9523   20.3113 C   0  0  0  0  0  0  0  0  0  0  0  0
   12.0846  -20.1204   19.5315 C   0  0  0  0  0  0  0  0  0  0  0  0
   13.2474  -20.5687   19.7322 O   0  0  0  0  0  0  0  0  0  0  0  0
   10.6570  -16.6633   20.2488 C   0  0  0  0  0  0  0  0  0  0  0  0
   11.3050  -15.8619   20.9977 O   0  0  0  0  0  0  0  0  0  0  0  0
   11.2071  -20.6772   18.6121 O   0  0  0  0  0  0  0  0  0  0  0  0
    7.6301  -14.2287   19.0262 C   0  0  0  0  0  0  0  0  0  0  0  0
    7.5400  -14.6043   20.4773 C   0  0  2  0  0  0  0  0  0  0  0  0
    7.1840  -13.4318   21.3617 C   0  0  0  0  0  0  0  0  0  0  0  0
    8.6278  -15.4097   21.0372 C   0  0  2  0  0  0  0  0  0  0  0  0
    9.2690  -16.4015   20.2314 N   0  0  0  0  0  0  0  0  0  0  0  0
    8.5667  -15.7023   22.4968 C   0  0  0  0  0  0  0  0  0  0  0  0
    9.4009  -16.5324   23.0135 O   0  0  0  0  0  0  0  0  0  0  0  0
    7.0612  -10.9374   28.6807 C   0  0  0  0  0  0  0  0  0  0  0  0
    6.5894  -11.5698   27.0678 S   0  0  0  0  0  0  0  0  0  0  0  0
    7.5955  -12.9337   26.5123 C   0  0  0  0  0  0  0  0  0  0  0  0
    7.2467  -13.4982   25.1722 C   0  0  0  0  0  0  0  0  0  0  0  0
    8.0707  -14.6697   24.7422 C   0  0  2  0  0  0  0  0  0  0  0  0
    7.6520  -15.1514   23.4123 N   0  0  0  0  0  0  0  0  0  0  0  0
    8.1206  -15.7901   25.6876 C   0  0  0  0  0  0  0  0  0  0  0  0
    8.6135  -15.5725   26.8265 O   0  0  0  0  0  0  0  0  0  0  0  0
    7.6785  -17.0601   25.4512 O   0  0  0  0  0  0  0  0  0  0  0  0
  2  1  1  1
  2  3  1  0
  3  4  1  0
  4  8  1  0
  4  5  2  0
  6  2  1  0
  7  6  2  0
 10  9  1  6
 10 12  1  0
 11 10  1  0
 12 13  1  6
 12 14  1  0
 13  6  1  0
 14 21  1  0
 15 14  2  0
 17 16  1  0
 18 17  1  0
 19 18  1  0
 20 19  1  1
 20 22  1  0
 21 20  1  0
 22 24  1  0
 23 22  2  0
M  END
$$$$
