DVM.pdb
     RDKit          3D

 24 23  0  0  1  0  0  0  0  0999 V2000
   10.7335  -18.4405   18.7199 N   0  0  0  0  0  0  0  0  0  0  0  0
    9.4640  -18.3857   19.4981 C   0  0  1  0  0  0  0  0  0  0  0  0
    9.4528  -19.5722   20.3937 C   0  0  0  0  0  0  0  0  0  0  0  0
    9.3808  -20.8699   19.7073 C   0  0  0  0  0  0  0  0  0  0  0  0
    9.4453  -20.8780   18.4466 O   0  0  0  0  0  0  0  0  0  0  0  0
    9.4046  -17.0845   20.1917 C   0  0  0  0  0  0  0  0  0  0  0  0
   10.4706  -16.4666   20.5153 O   0  0  0  0  0  0  0  0  0  0  0  0
    9.2434  -22.0238   20.4654 O   0  0  0  0  0  0  0  0  0  0  0  0
    7.8012  -13.8106   19.0319 C   0  0  0  0  0  0  0  0  0  0  0  0
    7.5481  -13.9865   20.5015 C   0  0  2  0  0  0  0  0  0  0  0  0
    7.6730  -12.6932   21.2732 C   0  0  0  0  0  0  0  0  0  0  0  0
    8.2191  -15.1003   21.1758 C   0  0  2  0  0  0  0  0  0  0  0  0
    8.2311  -16.3965   20.5726 N   0  0  0  0  0  0  0  0  0  0  0  0
    8.2264  -15.0797   22.6656 C   0  0  0  0  0  0  0  0  0  0  0  0
    7.3326  -15.7372   23.3140 O   0  0  0  0  0  0  0  0  0  0  0  0
    6.0163  -10.7590   27.2907 C   0  0  0  0  0  0  0  0  0  0  0  0
    5.8169  -12.5277   27.0539 S   0  0  0  0  0  0  0  0  0  0  0  0
    7.3412  -13.3755   26.6813 C   0  0  0  0  0  0  0  0  0  0  0  0
    7.6997  -13.4662   25.2324 C   0  0  0  0  0  0  0  0  0  0  0  0
    8.9424  -14.2422   24.9327 C   0  0  2  0  0  0  0  0  0  0  0  0
    9.1398  -14.3838   23.4777 N   0  0  0  0  0  0  0  0  0  0  0  0
    9.0417  -15.5541   25.5813 C   0  0  0  0  0  0  0  0  0  0  0  0
   10.1644  -15.8963   26.0393 O   0  0  0  0  0  0  0  0  0  0  0  0
    8.0238  -16.4502   25.7400 O   0  0  0  0  0  0  0  0  0  0  0  0
  2  1  1  1
  2  3  1  0
  3  4  1  0
  4  8  1  0
  4  5  2  0
  6  2  1  0
  7  6  2  0
 10  9  1  6
 10 12  1  0
 11 10  1  0
 12 13  1  1
 12 14  1  0
 13  6  1  0
 14 21  1  0
 15 14  2  0
 17 16  1  0
 18 17  1  0
 19 18  1  0
 20 19  1  6
 20 22  1  0
 21 20  1  0
 22 24  1  0
 23 22  2  0
M  END
$$$$
