DVM.pdb
     RDKit          3D

 24 23  0  0  1  0  0  0  0  0999 V2000
   13.1392  -14.0896   18.8418 N   0  0  0  0  0  0  0  0  0  0  0  0
   12.4731  -15.2412   19.5131 C   0  0  1  0  0  0  0  0  0  0  0  0
   13.5318  -15.9925   20.2375 C   0  0  0  0  0  0  0  0  0  0  0  0
   14.5263  -16.6514   19.3788 C   0  0  0  0  0  0  0  0  0  0  0  0
   14.1176  -17.5144   18.5531 O   0  0  0  0  0  0  0  0  0  0  0  0
   11.3919  -14.7138   20.3677 C   0  0  0  0  0  0  0  0  0  0  0  0
   11.6288  -13.8228   21.2469 O   0  0  0  0  0  0  0  0  0  0  0  0
   15.8630  -16.3035   19.5106 O   0  0  0  0  0  0  0  0  0  0  0  0
    8.0808  -12.8575   19.5676 C   0  0  0  0  0  0  0  0  0  0  0  0
    7.8449  -13.9201   20.6021 C   0  0  2  0  0  0  0  0  0  0  0  0
    6.8457  -13.4977   21.6541 C   0  0  0  0  0  0  0  0  0  0  0  0
    9.0207  -14.5707   21.1850 C   0  0  2  0  0  0  0  0  0  0  0  0
   10.0355  -15.1069   20.3326 N   0  0  0  0  0  0  0  0  0  0  0  0
    8.8257  -15.2768   22.4824 C   0  0  0  0  0  0  0  0  0  0  0  0
    9.0756  -16.5349   22.5644 O   0  0  0  0  0  0  0  0  0  0  0  0
    5.7030  -11.7975   26.2926 C   0  0  0  0  0  0  0  0  0  0  0  0
    7.3004  -12.0823   27.0617 S   0  0  0  0  0  0  0  0  0  0  0  0
    8.2932  -13.3002   26.2178 C   0  0  0  0  0  0  0  0  0  0  0  0
    7.6557  -14.6383   26.0204 C   0  0  0  0  0  0  0  0  0  0  0  0
    8.2494  -15.4701   24.9287 C   0  0  2  0  0  0  0  0  0  0  0  0
    8.3717  -14.6949   23.6797 N   0  0  0  0  0  0  0  0  0  0  0  0
    7.5719  -16.7438   24.6631 C   0  0  0  0  0  0  0  0  0  0  0  0
    6.5172  -16.7123   23.9744 O   0  0  0  0  0  0  0  0  0  0  0  0
    7.9783  -17.9742   25.0933 O   0  0  0  0  0  0  0  0  0  0  0  0
  2  1  1  1
  2  3  1  0
  3  4  1  0
  4  8  1  0
  4  5  2  0
  6  2  1  0
  7  6  2  0
 10  9  1  1
 10 12  1  0
 11 10  1  0
 12 13  1  6
 12 14  1  0
 13  6  1  0
 14 21  1  0
 15 14  2  0
 17 16  1  0
 18 17  1  0
 19 18  1  0
 20 19  1  1
 20 22  1  0
 21 20  1  0
 22 24  1  0
 23 22  2  0
M  END
$$$$
