DVM.pdb
     RDKit          3D

 24 23  0  0  1  0  0  0  0  0999 V2000
   11.9313  -17.2022   18.3864 N   0  0  0  0  0  0  0  0  0  0  0  0
   10.6365  -17.6704   18.9564 C   0  0  1  0  0  0  0  0  0  0  0  0
   10.8665  -19.0398   19.4874 C   0  0  0  0  0  0  0  0  0  0  0  0
   10.6400  -20.1272   18.5248 C   0  0  0  0  0  0  0  0  0  0  0  0
   10.3801  -19.8160   17.3293 O   0  0  0  0  0  0  0  0  0  0  0  0
   10.1906  -16.6833   19.9586 C   0  0  0  0  0  0  0  0  0  0  0  0
   11.0234  -16.1328   20.7500 O   0  0  0  0  0  0  0  0  0  0  0  0
   10.7176  -21.4407   18.9651 O   0  0  0  0  0  0  0  0  0  0  0  0
    7.4371  -13.5768   19.6259 C   0  0  0  0  0  0  0  0  0  0  0  0
    7.3787  -14.3681   20.9008 C   0  0  2  0  0  0  0  0  0  0  0  0
    7.0547  -13.5123   22.1034 C   0  0  0  0  0  0  0  0  0  0  0  0
    8.4725  -15.3052   21.1670 C   0  0  2  0  0  0  0  0  0  0  0  0
    8.8624  -16.2494   20.1667 N   0  0  0  0  0  0  0  0  0  0  0  0
    8.6529  -15.7463   22.5786 C   0  0  0  0  0  0  0  0  0  0  0  0
    8.5572  -16.9942   22.8710 O   0  0  0  0  0  0  0  0  0  0  0  0
    9.6831  -13.9660   30.3233 C   0  0  0  0  0  0  0  0  0  0  0  0
    9.9062  -13.4871   28.6072 S   0  0  0  0  0  0  0  0  0  0  0  0
    9.4754  -14.7697   27.4452 C   0  0  0  0  0  0  0  0  0  0  0  0
    9.4337  -14.3603   26.0076 C   0  0  0  0  0  0  0  0  0  0  0  0
    9.0223  -15.4349   25.0526 C   0  0  2  0  0  0  0  0  0  0  0  0
    8.9218  -14.9106   23.6774 N   0  0  0  0  0  0  0  0  0  0  0  0
    7.7954  -16.1583   25.4034 C   0  0  0  0  0  0  0  0  0  0  0  0
    7.8970  -17.1300   26.1990 O   0  0  0  0  0  0  0  0  0  0  0  0
    6.5395  -15.8770   24.9475 O   0  0  0  0  0  0  0  0  0  0  0  0
  2  1  1  1
  2  3  1  0
  3  4  1  0
  4  8  1  0
  4  5  2  0
  6  2  1  0
  7  6  2  0
 10  9  1  6
 10 12  1  0
 11 10  1  0
 12 13  1  6
 12 14  1  0
 13  6  1  0
 14 21  1  0
 15 14  2  0
 17 16  1  0
 18 17  1  0
 19 18  1  0
 20 19  1  1
 20 22  1  0
 21 20  1  0
 22 24  1  0
 23 22  2  0
M  END
$$$$
