DVM.pdb
     RDKit          3D

 24 23  0  0  1  0  0  0  0  0999 V2000
    7.5389  -17.0939   18.2316 N   0  0  0  0  0  0  0  0  0  0  0  0
    8.5826  -16.2445   18.8717 C   0  0  1  0  0  0  0  0  0  0  0  0
    8.2519  -14.8321   18.5462 C   0  0  0  0  0  0  0  0  0  0  0  0
    8.3812  -14.4735   17.1267 C   0  0  0  0  0  0  0  0  0  0  0  0
    7.4935  -13.7333   16.6191 O   0  0  0  0  0  0  0  0  0  0  0  0
    8.6115  -16.5582   20.3134 C   0  0  0  0  0  0  0  0  0  0  0  0
    7.5523  -16.4928   21.0183 O   0  0  0  0  0  0  0  0  0  0  0  0
    9.4627  -14.9608   16.4068 O   0  0  0  0  0  0  0  0  0  0  0  0
    9.8747  -19.8809   21.9800 C   0  0  0  0  0  0  0  0  0  0  0  0
   10.2902  -18.6806   22.7809 C   0  0  2  0  0  0  0  0  0  0  0  0
   10.2439  -18.9296   24.2707 C   0  0  0  0  0  0  0  0  0  0  0  0
    9.7049  -17.3881   22.4174 C   0  0  2  0  0  0  0  0  0  0  0  0
    9.7478  -16.9420   21.0597 N   0  0  0  0  0  0  0  0  0  0  0  0
    9.7426  -16.3167   23.4521 C   0  0  0  0  0  0  0  0  0  0  0  0
   10.7361  -15.5020   23.4865 O   0  0  0  0  0  0  0  0  0  0  0  0
    5.2174  -12.1966   25.5376 C   0  0  0  0  0  0  0  0  0  0  0  0
    6.6813  -11.7717   26.4866 S   0  0  0  0  0  0  0  0  0  0  0  0
    7.8517  -13.1095   26.6330 C   0  0  0  0  0  0  0  0  0  0  0  0
    7.7725  -14.1640   25.5757 C   0  0  0  0  0  0  0  0  0  0  0  0
    8.9532  -15.0786   25.5009 C   0  0  2  0  0  0  0  0  0  0  0  0
    8.7715  -16.0918   24.4443 N   0  0  0  0  0  0  0  0  0  0  0  0
    9.3303  -15.7303   26.7598 C   0  0  0  0  0  0  0  0  0  0  0  0
    9.0433  -16.9495   26.8957 O   0  0  0  0  0  0  0  0  0  0  0  0
    9.9706  -15.1377   27.8100 O   0  0  0  0  0  0  0  0  0  0  0  0
  2  1  1  6
  2  3  1  0
  3  4  1  0
  4  8  1  0
  4  5  2  0
  6  2  1  0
  7  6  2  0
 10  9  1  6
 10 12  1  0
 11 10  1  0
 12 13  1  6
 12 14  1  0
 13  6  1  0
 14 21  1  0
 15 14  2  0
 17 16  1  0
 18 17  1  0
 19 18  1  0
 20 19  1  1
 20 22  1  0
 21 20  1  0
 22 24  1  0
 23 22  2  0
M  END
$$$$
