DVM.pdb
     RDKit          3D

 24 23  0  0  1  0  0  0  0  0999 V2000
    9.8500  -18.7964   19.2552 N   0  0  0  0  0  0  0  0  0  0  0  0
    8.7158  -18.4075   20.1399 C   0  0  1  0  0  0  0  0  0  0  0  0
    8.6532  -19.4138   21.2324 C   0  0  0  0  0  0  0  0  0  0  0  0
    8.3085  -20.7770   20.8044 C   0  0  0  0  0  0  0  0  0  0  0  0
    9.2457  -21.6132   20.6774 O   0  0  0  0  0  0  0  0  0  0  0  0
    8.9360  -17.0187   20.5878 C   0  0  0  0  0  0  0  0  0  0  0  0
   10.0648  -16.6521   21.0507 O   0  0  0  0  0  0  0  0  0  0  0  0
    6.9790  -21.0870   20.5567 O   0  0  0  0  0  0  0  0  0  0  0  0
    7.3249  -13.5240   18.9019 C   0  0  0  0  0  0  0  0  0  0  0  0
    7.5025  -13.5238   20.3930 C   0  0  2  0  0  0  0  0  0  0  0  0
    7.9536  -12.1836   20.9259 C   0  0  0  0  0  0  0  0  0  0  0  0
    8.2496  -14.6353   20.9863 C   0  0  2  0  0  0  0  0  0  0  0  0
    7.9822  -15.9770   20.5710 N   0  0  0  0  0  0  0  0  0  0  0  0
    8.6917  -14.4712   22.3996 C   0  0  0  0  0  0  0  0  0  0  0  0
    9.1959  -13.3523   22.7814 O   0  0  0  0  0  0  0  0  0  0  0  0
    8.2144  -11.5572   27.5692 C   0  0  0  0  0  0  0  0  0  0  0  0
    6.7682  -12.1421   26.6801 S   0  0  0  0  0  0  0  0  0  0  0  0
    6.7851  -13.8972   26.3631 C   0  0  0  0  0  0  0  0  0  0  0  0
    7.1209  -14.3040   24.9639 C   0  0  0  0  0  0  0  0  0  0  0  0
    8.3754  -15.1049   24.8187 C   0  0  2  0  0  0  0  0  0  0  0  0
    8.6217  -15.4511   23.4062 N   0  0  0  0  0  0  0  0  0  0  0  0
    8.4573  -16.3100   25.6511 C   0  0  0  0  0  0  0  0  0  0  0  0
    8.2056  -17.4166   25.1038 O   0  0  0  0  0  0  0  0  0  0  0  0
    8.7848  -16.3497   26.9760 O   0  0  0  0  0  0  0  0  0  0  0  0
  2  1  1  6
  2  3  1  0
  3  4  1  0
  4  8  1  0
  4  5  2  0
  6  2  1  0
  7  6  2  0
 10  9  1  6
 10 12  1  0
 11 10  1  0
 12 13  1  1
 12 14  1  0
 13  6  1  0
 14 21  1  0
 15 14  2  0
 17 16  1  0
 18 17  1  0
 19 18  1  0
 20 19  1  6
 20 22  1  0
 21 20  1  0
 22 24  1  0
 23 22  2  0
M  END
$$$$
