DVM.pdb
     RDKit          3D

 24 23  0  0  1  0  0  0  0  0999 V2000
   11.3917  -17.3832   18.3448 N   0  0  0  0  0  0  0  0  0  0  0  0
   10.1446  -17.7469   19.0747 C   0  0  1  0  0  0  0  0  0  0  0  0
   10.3660  -19.0920   19.6679 C   0  0  0  0  0  0  0  0  0  0  0  0
   10.1879  -20.2184   18.7406 C   0  0  0  0  0  0  0  0  0  0  0  0
    9.8848  -21.3436   19.2261 O   0  0  0  0  0  0  0  0  0  0  0  0
    9.8540  -16.6789   20.0508 C   0  0  0  0  0  0  0  0  0  0  0  0
   10.7953  -16.0892   20.6746 O   0  0  0  0  0  0  0  0  0  0  0  0
   10.3611  -20.0027   17.3809 O   0  0  0  0  0  0  0  0  0  0  0  0
    7.4660  -13.3646   20.0610 C   0  0  0  0  0  0  0  0  0  0  0  0
    7.3536  -14.2039   21.3011 C   0  0  2  0  0  0  0  0  0  0  0  0
    7.1910  -13.3741   22.5536 C   0  0  0  0  0  0  0  0  0  0  0  0
    8.3246  -15.2864   21.4766 C   0  0  2  0  0  0  0  0  0  0  0  0
    8.5728  -16.2025   20.4074 N   0  0  0  0  0  0  0  0  0  0  0  0
    8.4741  -15.8407   22.8514 C   0  0  0  0  0  0  0  0  0  0  0  0
    7.8353  -16.9066   23.1793 O   0  0  0  0  0  0  0  0  0  0  0  0
   10.5104  -12.6039   28.4879 C   0  0  0  0  0  0  0  0  0  0  0  0
    9.4712  -13.9977   28.9368 S   0  0  0  0  0  0  0  0  0  0  0  0
    9.4018  -15.2692   27.6880 C   0  0  0  0  0  0  0  0  0  0  0  0
    9.3279  -14.7907   26.2732 C   0  0  0  0  0  0  0  0  0  0  0  0
    9.2820  -15.8698   25.2390 C   0  0  2  0  0  0  0  0  0  0  0  0
    9.2672  -15.2989   23.8789 N   0  0  0  0  0  0  0  0  0  0  0  0
    8.1931  -16.8417   25.3857 C   0  0  0  0  0  0  0  0  0  0  0  0
    7.0212  -16.4476   25.1435 O   0  0  0  0  0  0  0  0  0  0  0  0
    8.3279  -18.1472   25.7622 O   0  0  0  0  0  0  0  0  0  0  0  0
  2  1  1  1
  2  3  1  0
  3  4  1  0
  4  8  1  0
  4  5  2  0
  6  2  1  0
  7  6  2  0
 10  9  1  6
 10 12  1  0
 11 10  1  0
 12 13  1  6
 12 14  1  0
 13  6  1  0
 14 21  1  0
 15 14  2  0
 17 16  1  0
 18 17  1  0
 19 18  1  0
 20 19  1  1
 20 22  1  0
 21 20  1  0
 22 24  1  0
 23 22  2  0
M  END
$$$$
