DVM.pdb
     RDKit          3D

 24 23  0  0  1  0  0  0  0  0999 V2000
    9.2968  -18.5338   18.7977 N   0  0  0  0  0  0  0  0  0  0  0  0
    8.9550  -18.5446   20.2481 C   0  0  1  0  0  0  0  0  0  0  0  0
    9.8311  -19.5582   20.8924 C   0  0  0  0  0  0  0  0  0  0  0  0
    9.6705  -20.9300   20.3896 C   0  0  0  0  0  0  0  0  0  0  0  0
    8.6955  -21.1706   19.6247 O   0  0  0  0  0  0  0  0  0  0  0  0
    9.1086  -17.1720   20.7678 C   0  0  0  0  0  0  0  0  0  0  0  0
   10.1623  -16.4967   20.5301 O   0  0  0  0  0  0  0  0  0  0  0  0
   10.5872  -21.8979   20.7744 O   0  0  0  0  0  0  0  0  0  0  0  0
    6.8971  -13.9701   20.3096 C   0  0  0  0  0  0  0  0  0  0  0  0
    7.3530  -14.1072   21.7338 C   0  0  2  0  0  0  0  0  0  0  0  0
    7.6930  -12.7781   22.3674 C   0  0  0  0  0  0  0  0  0  0  0  0
    8.3560  -15.1333   22.0281 C   0  0  2  0  0  0  0  0  0  0  0  0
    8.1695  -16.4697   21.5554 N   0  0  0  0  0  0  0  0  0  0  0  0
    9.1004  -14.9990   23.3117 C   0  0  0  0  0  0  0  0  0  0  0  0
    9.1130  -13.8684   23.9230 O   0  0  0  0  0  0  0  0  0  0  0  0
    9.6051  -12.2645   27.1750 C   0  0  0  0  0  0  0  0  0  0  0  0
    9.8107  -13.5731   28.3872 S   0  0  0  0  0  0  0  0  0  0  0  0
    9.8221  -15.2095   27.6779 C   0  0  0  0  0  0  0  0  0  0  0  0
    9.3767  -15.3062   26.2537 C   0  0  0  0  0  0  0  0  0  0  0  0
   10.4016  -15.8353   25.3020 C   0  0  2  0  0  0  0  0  0  0  0  0
    9.8292  -16.0157   23.9545 N   0  0  0  0  0  0  0  0  0  0  0  0
   11.0841  -17.0632   25.7244 C   0  0  0  0  0  0  0  0  0  0  0  0
   10.6675  -18.1550   25.2535 O   0  0  0  0  0  0  0  0  0  0  0  0
   12.1397  -17.1386   26.5870 O   0  0  0  0  0  0  0  0  0  0  0  0
  2  1  1  6
  2  3  1  0
  3  4  1  0
  4  8  1  0
  4  5  2  0
  6  2  1  0
  7  6  2  0
 10  9  1  6
 10 12  1  0
 11 10  1  0
 12 13  1  1
 12 14  1  0
 13  6  1  0
 14 21  1  0
 15 14  2  0
 17 16  1  0
 18 17  1  0
 19 18  1  0
 20 19  1  1
 20 22  1  0
 21 20  1  0
 22 24  1  0
 23 22  2  0
M  END
$$$$
