DVM.pdb
     RDKit          3D

 24 23  0  0  1  0  0  0  0  0999 V2000
   13.6832  -14.2346   19.0557 N   0  0  0  0  0  0  0  0  0  0  0  0
   12.6865  -15.3423   19.0643 C   0  0  1  0  0  0  0  0  0  0  0  0
   13.4421  -16.6038   19.2824 C   0  0  0  0  0  0  0  0  0  0  0  0
   14.3570  -16.9777   18.1946 C   0  0  0  0  0  0  0  0  0  0  0  0
   15.2833  -17.7953   18.4538 O   0  0  0  0  0  0  0  0  0  0  0  0
   11.6720  -15.0412   20.0929 C   0  0  0  0  0  0  0  0  0  0  0  0
   12.0162  -14.6723   21.2627 O   0  0  0  0  0  0  0  0  0  0  0  0
   14.1696  -16.4199   16.9380 O   0  0  0  0  0  0  0  0  0  0  0  0
    8.1527  -12.9209   19.4396 C   0  0  0  0  0  0  0  0  0  0  0  0
    8.0655  -14.0450   20.4314 C   0  0  2  0  0  0  0  0  0  0  0  0
    7.1305  -13.7388   21.5784 C   0  0  0  0  0  0  0  0  0  0  0  0
    9.3215  -14.6458   20.8864 C   0  0  2  0  0  0  0  0  0  0  0  0
   10.2712  -15.1238   19.9306 N   0  0  0  0  0  0  0  0  0  0  0  0
    9.2876  -15.3748   22.1853 C   0  0  0  0  0  0  0  0  0  0  0  0
    9.3973  -16.6553   22.1977 O   0  0  0  0  0  0  0  0  0  0  0  0
   10.1761  -12.6561   28.2173 C   0  0  0  0  0  0  0  0  0  0  0  0
    9.8067  -14.3662   28.6213 S   0  0  0  0  0  0  0  0  0  0  0  0
    9.5865  -15.4075   27.1901 C   0  0  0  0  0  0  0  0  0  0  0  0
    9.3962  -14.6958   25.8888 C   0  0  0  0  0  0  0  0  0  0  0  0
    9.2338  -15.5840   24.6967 C   0  0  2  0  0  0  0  0  0  0  0  0
    9.1354  -14.7919   23.4562 N   0  0  0  0  0  0  0  0  0  0  0  0
    8.1260  -16.5429   24.7676 C   0  0  0  0  0  0  0  0  0  0  0  0
    6.9984  -16.1652   24.3513 O   0  0  0  0  0  0  0  0  0  0  0  0
    8.1992  -17.8200   25.2449 O   0  0  0  0  0  0  0  0  0  0  0  0
  2  1  1  1
  2  3  1  0
  3  4  1  0
  4  8  1  0
  4  5  2  0
  6  2  1  0
  7  6  2  0
 10  9  1  1
 10 12  1  0
 11 10  1  0
 12 13  1  6
 12 14  1  0
 13  6  1  0
 14 21  1  0
 15 14  2  0
 17 16  1  0
 18 17  1  0
 19 18  1  0
 20 19  1  1
 20 22  1  0
 21 20  1  0
 22 24  1  0
 23 22  2  0
M  END
$$$$
