IIK.pdb
     RDKit          3D

 26 25  0  0  1  0  0  0  0  0999 V2000
   30.9584  -20.4323  -12.6031 C   0  0  0  0  0  0  0  0  0  0  0  0
   29.5690  -19.9475  -12.9208 C   0  0  0  0  0  0  0  0  0  0  0  0
   29.1714  -20.2935  -14.3451 C   0  0  2  0  0  0  0  0  0  0  0  0
   30.1669  -19.7929  -15.3374 C   0  0  0  0  0  0  0  0  0  0  0  0
   27.7530  -19.7744  -14.6200 C   0  0  2  0  0  0  0  0  0  0  0  0
   27.7635  -18.4234  -14.0162 N   0  0  0  0  0  0  0  0  0  0  0  0
   26.7501  -20.5698  -13.8619 C   0  0  0  0  0  0  0  0  0  0  0  0
   26.5163  -21.7591  -14.2343 O   0  0  0  0  0  0  0  0  0  0  0  0
   26.0775  -19.7039   -8.5266 C   0  0  0  0  0  0  0  0  0  0  0  0
   26.1786  -20.4486   -9.8581 C   0  0  0  0  0  0  0  0  0  0  0  0
   24.9451  -20.2671  -10.6740 C   0  0  2  0  0  0  0  0  0  0  0  0
   23.7181  -20.6984   -9.8986 C   0  0  0  0  0  0  0  0  0  0  0  0
   25.0192  -20.8685  -12.0315 C   0  0  2  0  0  0  0  0  0  0  0  0
   26.0460  -20.0711  -12.7485 N   0  0  0  0  0  0  0  0  0  0  0  0
   23.7945  -20.9427  -12.8104 C   0  0  0  0  0  0  0  0  0  0  0  0
   23.2171  -19.9072  -13.3004 O   0  0  0  0  0  0  0  0  0  0  0  0
   23.1381  -22.1646  -13.1013 N   0  0  0  0  0  0  0  0  0  0  0  0
   21.9935  -22.2192  -14.0393 C   0  0  1  0  0  0  0  0  0  0  0  0
   22.0885  -23.4821  -14.8536 C   0  0  0  0  0  0  0  0  0  0  0  0
   23.4239  -23.7051  -15.4971 C   0  0  0  0  0  0  0  0  0  0  0  0
   23.4118  -25.0403  -16.2649 C   0  0  0  0  0  0  0  0  0  0  0  0
   24.7948  -25.2693  -16.8669 C   0  0  0  0  0  0  0  0  0  0  0  0
   24.8334  -26.5860  -17.4564 N   0  0  0  0  0  0  0  0  0  0  0  0
   20.7277  -22.0563  -13.3313 C   0  0  0  0  0  0  0  0  0  0  0  0
   19.5686  -21.6982  -14.0146 O   0  0  0  0  0  0  0  0  0  0  0  0
   20.6212  -22.2266  -12.0972 O   0  0  0  0  0  0  0  0  0  0  0  0
  2  1  1  0
  3  5  1  0
  3  2  1  0
  3  4  1  6
  5  6  1  1
  7  5  1  0
  7  8  2  0
 10  9  1  0
 11 10  1  0
 11 13  1  0
 11 12  1  1
 13 14  1  6
 14  7  1  0
 15 13  1  0
 15 17  1  0
 16 15  2  0
 18 17  1  0
 18 24  1  0
 18 19  1  1
 20 19  1  0
 21 22  1  0
 21 20  1  0
 22 23  1  0
 24 25  1  0
 26 24  2  0
M  END
$$$$
