IIK.pdb
     RDKit          3D

 26 25  0  0  1  0  0  0  0  0999 V2000
   17.1804  -12.8027  -18.8799 C   0  0  0  0  0  0  0  0  0  0  0  0
   18.5942  -13.3043  -18.7535 C   0  0  0  0  0  0  0  0  0  0  0  0
   19.3788  -12.5034  -17.7291 C   0  0  2  0  0  0  0  0  0  0  0  0
   19.3387  -11.0401  -18.0183 C   0  0  0  0  0  0  0  0  0  0  0  0
   20.8116  -13.0481  -17.6432 C   0  0  2  0  0  0  0  0  0  0  0  0
   20.6214  -14.4224  -17.1282 N   0  0  0  0  0  0  0  0  0  0  0  0
   21.5886  -12.3119  -16.6100 C   0  0  0  0  0  0  0  0  0  0  0  0
   21.2502  -12.4401  -15.3948 O   0  0  0  0  0  0  0  0  0  0  0  0
   27.1188  -10.6396  -15.1601 C   0  0  0  0  0  0  0  0  0  0  0  0
   25.6476  -10.2589  -14.9917 C   0  0  0  0  0  0  0  0  0  0  0  0
   24.7877  -10.9759  -15.9749 C   0  0  2  0  0  0  0  0  0  0  0  0
   25.3475  -10.8456  -17.3758 C   0  0  0  0  0  0  0  0  0  0  0  0
   23.3447  -10.6295  -15.8881 C   0  0  2  0  0  0  0  0  0  0  0  0
   22.6842  -11.4792  -16.9108 N   0  0  0  0  0  0  0  0  0  0  0  0
   22.9681   -9.2365  -16.0609 C   0  0  0  0  0  0  0  0  0  0  0  0
   22.8042   -8.6973  -17.2134 O   0  0  0  0  0  0  0  0  0  0  0  0
   22.7424   -8.3576  -14.9722 N   0  0  0  0  0  0  0  0  0  0  0  0
   22.2817   -6.9669  -15.1884 C   0  0  1  0  0  0  0  0  0  0  0  0
   20.9566   -6.9964  -15.9028 C   0  0  0  0  0  0  0  0  0  0  0  0
   20.3869   -5.6436  -16.2070 C   0  0  0  0  0  0  0  0  0  0  0  0
   19.0254   -5.8017  -16.9097 C   0  0  0  0  0  0  0  0  0  0  0  0
   18.4654   -4.4139  -17.2061 C   0  0  0  0  0  0  0  0  0  0  0  0
   17.2061   -4.5579  -17.8959 N   0  0  0  0  0  0  0  0  0  0  0  0
   22.2707   -6.2180  -13.9358 C   0  0  0  0  0  0  0  0  0  0  0  0
   22.3071   -4.8262  -13.9360 O   0  0  0  0  0  0  0  0  0  0  0  0
   22.2292   -6.7777  -12.8184 O   0  0  0  0  0  0  0  0  0  0  0  0
  2  1  1  0
  3  5  1  0
  3  2  1  0
  3  4  1  6
  5  6  1  1
  7  5  1  0
  7  8  2  0
 10  9  1  0
 11 10  1  0
 11 13  1  0
 11 12  1  6
 13 14  1  6
 14  7  1  0
 15 13  1  0
 15 17  1  0
 16 15  2  0
 18 17  1  0
 18 24  1  0
 18 19  1  1
 20 19  1  0
 21 22  1  0
 21 20  1  0
 22 23  1  0
 24 25  1  0
 26 24  2  0
M  END
$$$$
