IIK.pdb
     RDKit          3D

 26 25  0  0  1  0  0  0  0  0999 V2000
   26.0770  -22.4894  -19.9640 C   0  0  0  0  0  0  0  0  0  0  0  0
   25.5750  -21.0935  -19.7075 C   0  0  0  0  0  0  0  0  0  0  0  0
   24.7845  -21.0158  -18.4132 C   0  0  2  0  0  0  0  0  0  0  0  0
   23.8069  -22.1365  -18.2907 C   0  0  0  0  0  0  0  0  0  0  0  0
   24.1175  -19.6374  -18.3037 C   0  0  2  0  0  0  0  0  0  0  0  0
   25.2660  -18.7158  -18.1568 N   0  0  0  0  0  0  0  0  0  0  0  0
   23.3299  -19.5372  -17.0456 C   0  0  0  0  0  0  0  0  0  0  0  0
   23.9533  -19.5365  -15.9415 O   0  0  0  0  0  0  0  0  0  0  0  0
   20.5623  -15.7839  -16.4486 C   0  0  0  0  0  0  0  0  0  0  0  0
   21.2210  -16.9464  -15.7053 C   0  0  0  0  0  0  0  0  0  0  0  0
   20.3789  -18.1742  -15.7673 C   0  0  2  0  0  0  0  0  0  0  0  0
   19.2833  -18.1292  -14.7231 C   0  0  0  0  0  0  0  0  0  0  0  0
   21.1517  -19.4440  -15.7485 C   0  0  2  0  0  0  0  0  0  0  0  0
   21.9249  -19.4410  -17.0159 N   0  0  0  0  0  0  0  0  0  0  0  0
   20.4135  -20.6874  -15.6035 C   0  0  0  0  0  0  0  0  0  0  0  0
   19.7329  -21.2085  -16.5579 O   0  0  0  0  0  0  0  0  0  0  0  0
   20.3887  -21.4338  -14.3990 N   0  0  0  0  0  0  0  0  0  0  0  0
   19.6792  -22.7307  -14.3116 C   0  0  1  0  0  0  0  0  0  0  0  0
   20.5051  -23.6854  -13.4908 C   0  0  0  0  0  0  0  0  0  0  0  0
   19.8552  -25.0138  -13.2460 C   0  0  0  0  0  0  0  0  0  0  0  0
   20.7857  -25.8955  -12.3921 C   0  0  0  0  0  0  0  0  0  0  0  0
   20.0873  -27.2251  -12.1241 C   0  0  0  0  0  0  0  0  0  0  0  0
   20.9465  -28.0450  -11.3043 N   0  0  0  0  0  0  0  0  0  0  0  0
   18.3144  -22.5497  -13.8274 C   0  0  0  0  0  0  0  0  0  0  0  0
   17.2842  -23.3742  -14.2716 O   0  0  0  0  0  0  0  0  0  0  0  0
   18.0058  -21.6608  -13.0039 O   0  0  0  0  0  0  0  0  0  0  0  0
  2  1  1  0
  3  5  1  0
  3  2  1  0
  3  4  1  6
  5  6  1  1
  7  5  1  0
  7  8  2  0
 10  9  1  0
 11 10  1  0
 11 13  1  0
 11 12  1  1
 13 14  1  6
 14  7  1  0
 15 13  1  0
 15 17  1  0
 16 15  2  0
 18 17  1  0
 18 24  1  0
 18 19  1  1
 20 19  1  0
 21 22  1  0
 21 20  1  0
 22 23  1  0
 24 25  1  0
 26 24  2  0
M  END
$$$$
