IIK.pdb
     RDKit          3D

 26 25  0  0  1  0  0  0  0  0999 V2000
   17.1569  -22.1468  -12.7932 C   0  0  0  0  0  0  0  0  0  0  0  0
   18.2306  -22.0220  -11.7453 C   0  0  0  0  0  0  0  0  0  0  0  0
   19.4224  -21.2348  -12.2614 C   0  0  2  0  0  0  0  0  0  0  0  0
   19.8590  -21.7060  -13.6081 C   0  0  0  0  0  0  0  0  0  0  0  0
   20.5538  -21.2826  -11.2248 C   0  0  2  0  0  0  0  0  0  0  0  0
   20.0090  -20.5017  -10.0920 N   0  0  0  0  0  0  0  0  0  0  0  0
   21.7449  -20.5399  -11.7178 C   0  0  0  0  0  0  0  0  0  0  0  0
   21.6928  -19.2736  -11.7577 O   0  0  0  0  0  0  0  0  0  0  0  0
   26.2565  -21.1879   -9.5425 C   0  0  0  0  0  0  0  0  0  0  0  0
   25.0712  -20.6413  -10.3388 C   0  0  0  0  0  0  0  0  0  0  0  0
   25.2445  -20.8808  -11.7992 C   0  0  2  0  0  0  0  0  0  0  0  0
   26.5855  -20.3625  -12.2746 C   0  0  0  0  0  0  0  0  0  0  0  0
   24.1075  -20.4090  -12.6325 C   0  0  2  0  0  0  0  0  0  0  0  0
   22.9310  -21.1703  -12.1420 N   0  0  0  0  0  0  0  0  0  0  0  0
   24.2269  -20.5278  -14.0761 C   0  0  0  0  0  0  0  0  0  0  0  0
   24.2554  -21.6584  -14.6817 O   0  0  0  0  0  0  0  0  0  0  0  0
   24.3142  -19.4061  -14.9378 N   0  0  0  0  0  0  0  0  0  0  0  0
   24.2847  -19.5623  -16.4101 C   0  0  1  0  0  0  0  0  0  0  0  0
   25.6837  -19.8227  -16.9022 C   0  0  0  0  0  0  0  0  0  0  0  0
   25.7796  -20.1153  -18.3692 C   0  0  0  0  0  0  0  0  0  0  0  0
   27.2431  -20.4189  -18.7416 C   0  0  0  0  0  0  0  0  0  0  0  0
   27.3328  -20.6073  -20.2529 C   0  0  0  0  0  0  0  0  0  0  0  0
   28.6674  -21.0412  -20.5892 N   0  0  0  0  0  0  0  0  0  0  0  0
   23.3107  -20.5728  -16.8103 C   0  0  0  0  0  0  0  0  0  0  0  0
   22.0540  -20.2050  -17.2836 O   0  0  0  0  0  0  0  0  0  0  0  0
   23.5504  -21.7985  -16.7494 O   0  0  0  0  0  0  0  0  0  0  0  0
  2  1  1  0
  3  5  1  0
  3  2  1  0
  3  4  1  6
  5  6  1  1
  7  5  1  0
  7  8  2  0
 10  9  1  0
 11 10  1  0
 11 13  1  0
 11 12  1  6
 13 14  1  1
 14  7  1  0
 15 13  1  0
 15 17  1  0
 16 15  2  0
 18 17  1  0
 18 24  1  0
 18 19  1  1
 20 19  1  0
 21 22  1  0
 21 20  1  0
 22 23  1  0
 24 25  1  0
 26 24  2  0
M  END
$$$$
