IIK.pdb
     RDKit          3D

 26 25  0  0  1  0  0  0  0  0999 V2000
   18.4150  -12.5206  -18.0231 C   0  0  0  0  0  0  0  0  0  0  0  0
   17.5805  -11.4361  -17.3956 C   0  0  0  0  0  0  0  0  0  0  0  0
   17.9716  -11.2012  -15.9471 C   0  0  2  0  0  0  0  0  0  0  0  0
   18.0132  -12.4738  -15.1692 C   0  0  0  0  0  0  0  0  0  0  0  0
   17.0290  -10.1611  -15.3255 C   0  0  2  0  0  0  0  0  0  0  0  0
   17.0932   -9.0321  -16.2802 N   0  0  0  0  0  0  0  0  0  0  0  0
   17.5811   -9.6597  -14.0383 C   0  0  0  0  0  0  0  0  0  0  0  0
   17.7093  -10.4769  -13.0773 O   0  0  0  0  0  0  0  0  0  0  0  0
   22.0670   -7.3189  -13.8520 C   0  0  0  0  0  0  0  0  0  0  0  0
   20.7860   -8.0757  -13.4996 C   0  0  0  0  0  0  0  0  0  0  0  0
   19.7864   -7.1768  -12.8569 C   0  0  2  0  0  0  0  0  0  0  0  0
   20.3972   -6.4467  -11.6793 C   0  0  0  0  0  0  0  0  0  0  0  0
   18.4958   -7.8375  -12.5288 C   0  0  2  0  0  0  0  0  0  0  0  0
   17.9716   -8.3224  -13.8305 N   0  0  0  0  0  0  0  0  0  0  0  0
   17.4887   -7.0547  -11.8323 C   0  0  0  0  0  0  0  0  0  0  0  0
   16.8753   -6.0676  -12.3757 O   0  0  0  0  0  0  0  0  0  0  0  0
   17.0931   -7.3193  -10.4974 N   0  0  0  0  0  0  0  0  0  0  0  0
   15.9646   -6.5935   -9.8708 C   0  0  1  0  0  0  0  0  0  0  0  0
   14.9212   -7.5900   -9.4401 C   0  0  0  0  0  0  0  0  0  0  0  0
   13.7439   -6.9879   -8.7342 C   0  0  0  0  0  0  0  0  0  0  0  0
   12.7302   -8.0933   -8.3833 C   0  0  0  0  0  0  0  0  0  0  0  0
   11.5225   -7.4509   -7.7080 C   0  0  0  0  0  0  0  0  0  0  0  0
   10.5344   -8.4715   -7.4533 N   0  0  0  0  0  0  0  0  0  0  0  0
   16.4340   -5.7174   -8.8020 C   0  0  0  0  0  0  0  0  0  0  0  0
   15.7309   -4.5643   -8.4637 O   0  0  0  0  0  0  0  0  0  0  0  0
   17.4730   -5.9531   -8.1475 O   0  0  0  0  0  0  0  0  0  0  0  0
  2  1  1  0
  3  5  1  0
  3  2  1  0
  3  4  1  1
  5  6  1  6
  7  5  1  0
  7  8  2  0
 10  9  1  0
 11 10  1  0
 11 13  1  0
 11 12  1  1
 13 14  1  6
 14  7  1  0
 15 13  1  0
 15 17  1  0
 16 15  2  0
 18 17  1  0
 18 24  1  0
 18 19  1  1
 20 19  1  0
 21 22  1  0
 21 20  1  0
 22 23  1  0
 24 25  1  0
 26 24  2  0
M  END
$$$$
