IIK.pdb
     RDKit          3D

 26 25  0  0  1  0  0  0  0  0999 V2000
   22.4715  -21.3704   -7.2244 C   0  0  0  0  0  0  0  0  0  0  0  0
   22.6919  -21.8367   -8.6387 C   0  0  0  0  0  0  0  0  0  0  0  0
   23.3972  -20.7788   -9.4694 C   0  0  2  0  0  0  0  0  0  0  0  0
   22.7558  -19.4394   -9.3246 C   0  0  0  0  0  0  0  0  0  0  0  0
   23.4707  -21.2422  -10.9312 C   0  0  2  0  0  0  0  0  0  0  0  0
   23.9465  -22.6391  -10.8205 N   0  0  0  0  0  0  0  0  0  0  0  0
   24.5256  -20.4918  -11.6641 C   0  0  0  0  0  0  0  0  0  0  0  0
   24.3233  -19.2682  -11.9280 O   0  0  0  0  0  0  0  0  0  0  0  0
   29.5194  -21.1873  -10.3595 C   0  0  0  0  0  0  0  0  0  0  0  0
   28.2282  -20.5487  -10.8721 C   0  0  0  0  0  0  0  0  0  0  0  0
   28.0636  -20.7634  -12.3375 C   0  0  2  0  0  0  0  0  0  0  0  0
   29.2396  -20.1917  -13.1010 C   0  0  0  0  0  0  0  0  0  0  0  0
   26.7492  -20.3222  -12.8735 C   0  0  2  0  0  0  0  0  0  0  0  0
   25.7412  -21.0694  -12.0799 N   0  0  0  0  0  0  0  0  0  0  0  0
   26.5044  -20.4884  -14.2964 C   0  0  0  0  0  0  0  0  0  0  0  0
   26.3146  -21.6343  -14.8411 O   0  0  0  0  0  0  0  0  0  0  0  0
   26.4468  -19.3995  -15.2016 N   0  0  0  0  0  0  0  0  0  0  0  0
   26.0286  -19.5900  -16.6094 C   0  0  1  0  0  0  0  0  0  0  0  0
   24.6094  -19.1123  -16.7667 C   0  0  0  0  0  0  0  0  0  0  0  0
   24.1037  -19.1276  -18.1777 C   0  0  0  0  0  0  0  0  0  0  0  0
   22.6909  -18.5159  -18.2277 C   0  0  0  0  0  0  0  0  0  0  0  0
   22.2140  -18.5076  -19.6768 C   0  0  0  0  0  0  0  0  0  0  0  0
   20.8605  -18.0085  -19.7182 N   0  0  0  0  0  0  0  0  0  0  0  0
   26.9765  -18.9654  -17.5266 C   0  0  0  0  0  0  0  0  0  0  0  0
   27.3735  -19.6134  -18.6933 O   0  0  0  0  0  0  0  0  0  0  0  0
   27.4719  -17.8369  -17.3156 O   0  0  0  0  0  0  0  0  0  0  0  0
  2  1  1  0
  3  5  1  0
  3  2  1  0
  3  4  1  6
  5  6  1  1
  7  5  1  0
  7  8  2  0
 10  9  1  0
 11 10  1  0
 11 13  1  0
 11 12  1  6
 13 14  1  1
 14  7  1  0
 15 13  1  0
 15 17  1  0
 16 15  2  0
 18 17  1  0
 18 24  1  0
 18 19  1  1
 20 19  1  0
 21 22  1  0
 21 20  1  0
 22 23  1  0
 24 25  1  0
 26 24  2  0
M  END
$$$$
