LKD.pdb
     RDKit          3D

 26 25  0  0  1  0  0  0  0  0999 V2000
   22.4319  -27.0668  -16.0270 C   0  0  0  0  0  0  0  0  0  0  0  0
   21.4114  -27.8846  -15.2779 C   0  0  1  0  0  0  0  0  0  0  0  0
   21.2167  -29.2537  -15.8897 C   0  0  0  0  0  0  0  0  0  0  0  0
   21.8124  -28.0977  -13.8281 C   0  0  0  0  0  0  0  0  0  0  0  0
   20.7143  -28.9425  -13.2215 C   0  0  2  0  0  0  0  0  0  0  0  0
   19.4838  -28.1641  -13.4381 N   0  0  0  0  0  0  0  0  0  0  0  0
   20.8789  -29.1729  -11.7875 C   0  0  0  0  0  0  0  0  0  0  0  0
   21.9714  -29.6454  -11.3679 O   0  0  0  0  0  0  0  0  0  0  0  0
   19.8451  -28.8772  -10.8807 N   0  0  0  0  0  0  0  0  0  0  0  0
   19.9891  -29.0883   -9.4028 C   0  0  1  0  0  0  0  0  0  0  0  0
   18.9052  -28.3209   -8.7258 C   0  0  0  0  0  0  0  0  0  0  0  0
   19.2010  -26.8763   -8.4884 C   0  0  0  0  0  0  0  0  0  0  0  0
   17.9636  -26.1999   -7.9257 C   0  0  0  0  0  0  0  0  0  0  0  0
   18.2691  -24.7221   -7.7112 C   0  0  0  0  0  0  0  0  0  0  0  0
   17.0488  -24.0823   -7.2354 N   0  0  0  0  0  0  0  0  0  0  0  0
   19.9356  -30.5524   -9.1610 C   0  0  0  0  0  0  0  0  0  0  0  0
   18.9879  -31.2286   -9.6891 O   0  0  0  0  0  0  0  0  0  0  0  0
   20.8543  -31.2887   -8.3903 N   0  0  0  0  0  0  0  0  0  0  0  0
   20.6506  -32.7565   -8.1789 C   0  0  1  0  0  0  0  0  0  0  0  0
   20.7601  -33.4153   -9.5136 C   0  0  0  0  0  0  0  0  0  0  0  0
   20.7156  -34.8745   -9.5106 C   0  0  0  0  0  0  0  0  0  0  0  0
   20.6212  -35.5679   -8.4775 O   0  0  0  0  0  0  0  0  0  0  0  0
   21.6816  -33.2002   -7.2145 C   0  0  0  0  0  0  0  0  0  0  0  0
   22.5697  -32.3268   -6.6619 O   0  0  0  0  0  0  0  0  0  0  0  0
   20.7803  -35.5758  -10.7257 O   0  0  0  0  0  0  0  0  0  0  0  0
   21.7595  -34.4079   -6.8831 O   0  0  0  0  0  0  0  0  0  0  0  0
  2  1  1  6
  2  3  1  0
  4  2  1  0
  5  4  1  0
  5  6  1  1
  7  5  1  0
  8  7  2  0
  9  7  1  0
 10  9  1  0
 11 12  1  0
 10 11  1  1
 13 14  1  0
 13 12  1  0
 14 15  1  0
 16 18  1  0
 16 10  1  0
 17 16  2  0
 19 20  1  6
 19 18  1  0
 20 21  1  0
 21 22  2  0
 21 25  1  0
 23 24  1  0
 23 19  1  0
 26 23  2  0
M  END
$$$$
