LKD.pdb
     RDKit          3D

 26 25  0  0  1  0  0  0  0  0999 V2000
   45.0060   -8.2267   -5.8273 C   0  0  0  0  0  0  0  0  0  0  0  0
   44.5351   -9.2915   -6.7842 C   0  0  1  0  0  0  0  0  0  0  0  0
   44.6913   -8.8705   -8.2282 C   0  0  0  0  0  0  0  0  0  0  0  0
   45.3090  -10.5877   -6.6122 C   0  0  0  0  0  0  0  0  0  0  0  0
   44.6424  -11.5854   -7.5328 C   0  0  2  0  0  0  0  0  0  0  0  0
   43.2382  -11.6177   -7.0919 N   0  0  0  0  0  0  0  0  0  0  0  0
   45.1978  -12.9339   -7.4333 C   0  0  0  0  0  0  0  0  0  0  0  0
   46.2970  -13.0973   -6.8353 O   0  0  0  0  0  0  0  0  0  0  0  0
   44.5282  -14.0384   -7.9903 N   0  0  0  0  0  0  0  0  0  0  0  0
   45.1152  -15.4186   -7.9859 C   0  0  1  0  0  0  0  0  0  0  0  0
   44.0721  -16.3583   -8.4868 C   0  0  0  0  0  0  0  0  0  0  0  0
   44.5164  -17.7751   -8.6482 C   0  0  0  0  0  0  0  0  0  0  0  0
   43.3668  -18.5981   -9.2017 C   0  0  0  0  0  0  0  0  0  0  0  0
   43.8024  -20.0567   -9.2786 C   0  0  0  0  0  0  0  0  0  0  0  0
   42.7396  -20.8018   -9.9420 N   0  0  0  0  0  0  0  0  0  0  0  0
   46.3427  -15.3765   -8.8203 C   0  0  0  0  0  0  0  0  0  0  0  0
   46.3637  -14.6124   -9.8450 O   0  0  0  0  0  0  0  0  0  0  0  0
   47.5188  -16.1122   -8.5837 N   0  0  0  0  0  0  0  0  0  0  0  0
   48.6889  -15.9744   -9.5069 C   0  0  1  0  0  0  0  0  0  0  0  0
   49.5583  -14.8912   -8.9609 C   0  0  0  0  0  0  0  0  0  0  0  0
   50.6712  -14.4770   -9.8103 C   0  0  0  0  0  0  0  0  0  0  0  0
   50.9415  -14.9995  -10.9107 O   0  0  0  0  0  0  0  0  0  0  0  0
   49.3539  -17.2955   -9.5599 C   0  0  0  0  0  0  0  0  0  0  0  0
   49.4063  -18.0262  -10.7089 O   0  0  0  0  0  0  0  0  0  0  0  0
   51.5107  -13.4296   -9.3968 O   0  0  0  0  0  0  0  0  0  0  0  0
   49.8893  -17.7756   -8.5317 O   0  0  0  0  0  0  0  0  0  0  0  0
  2  1  1  1
  2  3  1  0
  4  2  1  0
  5  4  1  0
  5  6  1  1
  7  5  1  0
  8  7  2  0
  9  7  1  0
 10  9  1  0
 11 12  1  0
 10 11  1  6
 13 14  1  0
 13 12  1  0
 14 15  1  0
 16 18  1  0
 16 10  1  0
 17 16  2  0
 19 20  1  1
 19 18  1  0
 20 21  1  0
 21 22  2  0
 21 25  1  0
 23 24  1  0
 23 19  1  0
 26 23  2  0
M  END
$$$$
