LKD.pdb
     RDKit          3D

 26 25  0  0  1  0  0  0  0  0999 V2000
   28.4242  -13.5116  -17.2649 C   0  0  0  0  0  0  0  0  0  0  0  0
   27.2283  -13.1006  -16.4450 C   0  0  1  0  0  0  0  0  0  0  0  0
   27.6169  -12.6528  -15.0538 C   0  0  0  0  0  0  0  0  0  0  0  0
   26.4712  -11.9507  -17.0876 C   0  0  0  0  0  0  0  0  0  0  0  0
   25.2593  -11.7212  -16.2124 C   0  0  2  0  0  0  0  0  0  0  0  0
   24.6565  -13.0550  -16.0549 N   0  0  0  0  0  0  0  0  0  0  0  0
   24.2698  -10.8252  -16.8080 C   0  0  0  0  0  0  0  0  0  0  0  0
   24.6386   -9.6826  -17.1969 O   0  0  0  0  0  0  0  0  0  0  0  0
   22.9267  -11.2180  -16.9509 N   0  0  0  0  0  0  0  0  0  0  0  0
   21.8895  -10.3235  -17.5621 C   0  0  1  0  0  0  0  0  0  0  0  0
   20.7328  -11.1746  -17.9615 C   0  0  0  0  0  0  0  0  0  0  0  0
   20.9223  -11.9562  -19.2201 C   0  0  0  0  0  0  0  0  0  0  0  0
   19.6951  -12.8170  -19.4619 C   0  0  0  0  0  0  0  0  0  0  0  0
   19.9187  -13.6436  -20.7228 C   0  0  0  0  0  0  0  0  0  0  0  0
   18.7184  -14.4392  -20.9492 N   0  0  0  0  0  0  0  0  0  0  0  0
   21.5570   -9.2845  -16.5548 C   0  0  0  0  0  0  0  0  0  0  0  0
   21.5494   -9.6073  -15.3179 O   0  0  0  0  0  0  0  0  0  0  0  0
   21.2456   -7.9413  -16.8366 N   0  0  0  0  0  0  0  0  0  0  0  0
   20.8834   -7.0056  -15.7258 C   0  0  1  0  0  0  0  0  0  0  0  0
   22.0541   -6.9408  -14.8024 C   0  0  0  0  0  0  0  0  0  0  0  0
   21.9784   -5.9362  -13.7456 C   0  0  0  0  0  0  0  0  0  0  0  0
   20.9496   -5.6985  -13.0809 O   0  0  0  0  0  0  0  0  0  0  0  0
   20.5496   -5.7056  -16.3490 C   0  0  0  0  0  0  0  0  0  0  0  0
   19.9234   -4.7161  -15.6520 O   0  0  0  0  0  0  0  0  0  0  0  0
   23.1131   -5.1712  -13.4293 O   0  0  0  0  0  0  0  0  0  0  0  0
   20.8404   -5.4867  -17.5498 O   0  0  0  0  0  0  0  0  0  0  0  0
  2  1  1  6
  2  3  1  0
  4  2  1  0
  5  4  1  0
  5  6  1  6
  7  5  1  0
  8  7  2  0
  9  7  1  0
 10  9  1  0
 11 12  1  0
 10 11  1  1
 13 14  1  0
 13 12  1  0
 14 15  1  0
 16 18  1  0
 16 10  1  0
 17 16  2  0
 19 20  1  1
 19 18  1  0
 20 21  1  0
 21 22  2  0
 21 25  1  0
 23 24  1  0
 23 19  1  0
 26 23  2  0
M  END
$$$$
