LKD.pdb
     RDKit          3D

 26 25  0  0  1  0  0  0  0  0999 V2000
   22.1041  -30.4131  -12.9054 C   0  0  0  0  0  0  0  0  0  0  0  0
   21.0424  -29.3647  -13.1173 C   0  0  1  0  0  0  0  0  0  0  0  0
   19.8826  -29.8845  -13.9368 C   0  0  0  0  0  0  0  0  0  0  0  0
   20.4696  -28.8668  -11.8011 C   0  0  0  0  0  0  0  0  0  0  0  0
   19.5469  -27.7248  -12.1642 C   0  0  2  0  0  0  0  0  0  0  0  0
   20.4465  -26.6446  -12.6014 N   0  0  0  0  0  0  0  0  0  0  0  0
   18.7440  -27.2430  -11.0418 C   0  0  0  0  0  0  0  0  0  0  0  0
   17.8587  -28.0004  -10.5567 O   0  0  0  0  0  0  0  0  0  0  0  0
   18.9450  -25.9593  -10.5028 N   0  0  0  0  0  0  0  0  0  0  0  0
   18.1934  -25.4663   -9.3022 C   0  0  1  0  0  0  0  0  0  0  0  0
   19.1936  -25.0676   -8.2714 C   0  0  0  0  0  0  0  0  0  0  0  0
   19.0153  -25.7040   -6.9320 C   0  0  0  0  0  0  0  0  0  0  0  0
   17.7721  -25.1354   -6.2713 C   0  0  0  0  0  0  0  0  0  0  0  0
   17.6207  -25.7646   -4.8914 C   0  0  0  0  0  0  0  0  0  0  0  0
   16.4820  -25.1306   -4.2383 N   0  0  0  0  0  0  0  0  0  0  0  0
   17.3183  -24.3564   -9.7573 C   0  0  0  0  0  0  0  0  0  0  0  0
   17.8091  -23.4631  -10.5290 O   0  0  0  0  0  0  0  0  0  0  0  0
   15.9631  -24.1902   -9.4164 N   0  0  0  0  0  0  0  0  0  0  0  0
   15.1629  -23.0872  -10.0358 C   0  0  1  0  0  0  0  0  0  0  0  0
   15.1872  -23.2985  -11.5130 C   0  0  0  0  0  0  0  0  0  0  0  0
   14.2548  -22.4863  -12.2892 C   0  0  0  0  0  0  0  0  0  0  0  0
   13.4911  -21.6337  -11.7927 O   0  0  0  0  0  0  0  0  0  0  0  0
   13.8054  -23.1586   -9.4508 C   0  0  0  0  0  0  0  0  0  0  0  0
   13.0527  -22.0411   -9.2473 O   0  0  0  0  0  0  0  0  0  0  0  0
   14.1852  -22.6462  -13.6829 O   0  0  0  0  0  0  0  0  0  0  0  0
   13.3147  -24.2665   -9.1252 O   0  0  0  0  0  0  0  0  0  0  0  0
  2  1  1  1
  2  3  1  0
  4  2  1  0
  5  4  1  0
  5  6  1  1
  7  5  1  0
  8  7  2  0
  9  7  1  0
 10  9  1  0
 11 12  1  0
 10 11  1  1
 13 14  1  0
 13 12  1  0
 14 15  1  0
 16 18  1  0
 16 10  1  0
 17 16  2  0
 19 20  1  6
 19 18  1  0
 20 21  1  0
 21 22  2  0
 21 25  1  0
 23 24  1  0
 23 19  1  0
 26 23  2  0
M  END
$$$$
