LKD.pdb
     RDKit          3D

 26 25  0  0  1  0  0  0  0  0999 V2000
   28.5116  -19.5579   -7.7572 C   0  0  0  0  0  0  0  0  0  0  0  0
   27.3344  -20.2821   -8.3581 C   0  0  1  0  0  0  0  0  0  0  0  0
   26.0794  -20.1161   -7.5309 C   0  0  0  0  0  0  0  0  0  0  0  0
   27.0159  -19.7797   -9.7561 C   0  0  0  0  0  0  0  0  0  0  0  0
   25.9049  -20.6703  -10.2659 C   0  0  2  0  0  0  0  0  0  0  0  0
   26.5039  -22.0136  -10.3274 N   0  0  0  0  0  0  0  0  0  0  0  0
   25.4292  -20.3059  -11.5991 C   0  0  0  0  0  0  0  0  0  0  0  0
   24.9151  -19.1664  -11.7720 O   0  0  0  0  0  0  0  0  0  0  0  0
   25.5370  -21.2009  -12.6789 N   0  0  0  0  0  0  0  0  0  0  0  0
   25.0811  -20.8471  -14.0632 C   0  0  1  0  0  0  0  0  0  0  0  0
   25.9681  -21.5556  -15.0293 C   0  0  0  0  0  0  0  0  0  0  0  0
   27.3602  -21.0227  -15.1240 C   0  0  0  0  0  0  0  0  0  0  0  0
   27.5009  -20.2207  -16.4055 C   0  0  0  0  0  0  0  0  0  0  0  0
   28.8950  -19.6061  -16.4469 C   0  0  0  0  0  0  0  0  0  0  0  0
   28.9629  -18.7410  -17.6182 N   0  0  0  0  0  0  0  0  0  0  0  0
   23.6495  -21.2278  -14.1649 C   0  0  0  0  0  0  0  0  0  0  0  0
   23.2746  -22.3474  -13.6745 O   0  0  0  0  0  0  0  0  0  0  0  0
   22.6368  -20.4529  -14.7602 N   0  0  0  0  0  0  0  0  0  0  0  0
   21.2000  -20.7163  -14.4335 C   0  0  1  0  0  0  0  0  0  0  0  0
   21.0499  -20.5792  -12.9550 C   0  0  0  0  0  0  0  0  0  0  0  0
   19.6940  -20.7279  -12.4347 C   0  0  0  0  0  0  0  0  0  0  0  0
   18.9329  -19.7710  -12.1861 O   0  0  0  0  0  0  0  0  0  0  0  0
   20.3972  -19.7391  -15.2021 C   0  0  0  0  0  0  0  0  0  0  0  0
   20.9811  -18.7978  -15.9958 O   0  0  0  0  0  0  0  0  0  0  0  0
   19.1802  -22.0113  -12.1864 O   0  0  0  0  0  0  0  0  0  0  0  0
   19.1444  -19.7584  -15.1356 O   0  0  0  0  0  0  0  0  0  0  0  0
  2  1  1  1
  2  3  1  0
  4  2  1  0
  5  4  1  0
  5  6  1  6
  7  5  1  0
  8  7  2  0
  9  7  1  0
 10  9  1  0
 11 12  1  0
 10 11  1  6
 13 14  1  0
 13 12  1  0
 14 15  1  0
 16 18  1  0
 16 10  1  0
 17 16  2  0
 19 20  1  1
 19 18  1  0
 20 21  1  0
 21 22  2  0
 21 25  1  0
 23 24  1  0
 23 19  1  0
 26 23  2  0
M  END
$$$$
