LKD.pdb
     RDKit          3D

 26 25  0  0  1  0  0  0  0  0999 V2000
   18.4420  -13.7799    1.9846 C   0  0  0  0  0  0  0  0  0  0  0  0
   18.2265  -15.2679    2.0893 C   0  0  1  0  0  0  0  0  0  0  0  0
   19.5239  -16.0399    2.0036 C   0  0  0  0  0  0  0  0  0  0  0  0
   17.5659  -15.6518    3.4026 C   0  0  0  0  0  0  0  0  0  0  0  0
   17.6607  -17.1592    3.4810 C   0  0  2  0  0  0  0  0  0  0  0  0
   16.8168  -17.6428    2.3760 N   0  0  0  0  0  0  0  0  0  0  0  0
   17.1548  -17.7120    4.7360 C   0  0  0  0  0  0  0  0  0  0  0  0
   17.3870  -17.0937    5.8114 O   0  0  0  0  0  0  0  0  0  0  0  0
   16.4203  -18.9115    4.7579 N   0  0  0  0  0  0  0  0  0  0  0  0
   15.7916  -19.4449    6.0108 C   0  0  1  0  0  0  0  0  0  0  0  0
   14.6544  -20.3220    5.6114 C   0  0  0  0  0  0  0  0  0  0  0  0
   13.4925  -19.6157    4.9934 C   0  0  0  0  0  0  0  0  0  0  0  0
   12.4074  -20.6280    4.6720 C   0  0  0  0  0  0  0  0  0  0  0  0
   11.2446  -19.9028    4.0049 C   0  0  0  0  0  0  0  0  0  0  0  0
   10.2251  -20.8961    3.6905 N   0  0  0  0  0  0  0  0  0  0  0  0
   16.8567  -20.1445    6.7731 C   0  0  0  0  0  0  0  0  0  0  0  0
   17.8951  -20.5502    6.1475 O   0  0  0  0  0  0  0  0  0  0  0  0
   16.8359  -20.4070    8.1554 N   0  0  0  0  0  0  0  0  0  0  0  0
   17.9848  -21.1155    8.8024 C   0  0  1  0  0  0  0  0  0  0  0  0
   18.8550  -20.0735    9.4222 C   0  0  0  0  0  0  0  0  0  0  0  0
   19.9236  -20.5659   10.2864 C   0  0  0  0  0  0  0  0  0  0  0  0
   20.1802  -21.7746   10.4596 O   0  0  0  0  0  0  0  0  0  0  0  0
   17.4096  -22.0641    9.7820 C   0  0  0  0  0  0  0  0  0  0  0  0
   16.0634  -22.2237    9.9202 O   0  0  0  0  0  0  0  0  0  0  0  0
   20.7337  -19.6530   10.9816 O   0  0  0  0  0  0  0  0  0  0  0  0
   18.1623  -22.7492   10.5158 O   0  0  0  0  0  0  0  0  0  0  0  0
  2  1  1  1
  2  3  1  0
  4  2  1  0
  5  4  1  0
  5  6  1  6
  7  5  1  0
  8  7  2  0
  9  7  1  0
 10  9  1  0
 11 12  1  0
 10 11  1  6
 13 14  1  0
 13 12  1  0
 14 15  1  0
 16 18  1  0
 16 10  1  0
 17 16  2  0
 19 20  1  1
 19 18  1  0
 20 21  1  0
 21 22  2  0
 21 25  1  0
 23 24  1  0
 23 19  1  0
 26 23  2  0
M  END
$$$$
