MFL.pdb
     RDKit          3D

 28 28  0  0  1  0  0  0  0  0999 V2000
    7.8941  -12.5987   18.0227 C   0  0  0  0  0  0  0  0  0  0  0  0
    8.3095  -13.9680   16.9210 S   0  0  0  0  0  0  0  0  0  0  0  0
    8.9616  -15.3897   17.8498 C   0  0  0  0  0  0  0  0  0  0  0  0
    9.5995  -14.8394   19.1222 C   0  0  0  0  0  0  0  0  0  0  0  0
   10.1503  -15.9873   19.9675 C   0  0  2  0  0  0  0  0  0  0  0  0
    9.2904  -17.1287   19.7353 N   0  0  0  0  0  0  0  0  0  0  0  0
   10.0520  -15.5649   21.3824 C   0  0  0  0  0  0  0  0  0  0  0  0
   10.8009  -14.6454   21.8479 O   0  0  0  0  0  0  0  0  0  0  0  0
    9.1282  -16.1550   22.2877 N   0  0  0  0  0  0  0  0  0  0  0  0
    8.8793  -15.6333   23.6253 C   0  0  1  0  0  0  0  0  0  0  0  0
    7.4242  -15.3974   23.8769 C   0  0  0  0  0  0  0  0  0  0  0  0
    7.1109  -14.4753   24.9493 C   0  0  0  0  0  0  0  0  0  0  0  0
    7.3543  -13.1269   24.8155 C   0  0  0  0  0  0  0  0  0  0  0  0
    7.0506  -12.2370   25.8572 C   0  0  0  0  0  0  0  0  0  0  0  0
    6.5081  -12.6989   27.0206 C   0  0  0  0  0  0  0  0  0  0  0  0
    6.2600  -14.0408   27.1684 C   0  0  0  0  0  0  0  0  0  0  0  0
    6.5669  -14.9082   26.1267 C   0  0  0  0  0  0  0  0  0  0  0  0
    9.5914  -16.3883   24.6600 C   0  0  0  0  0  0  0  0  0  0  0  0
    9.9160  -17.5982   24.4675 O   0  0  0  0  0  0  0  0  0  0  0  0
   10.1191  -13.8186   29.4770 C   0  0  0  0  0  0  0  0  0  0  0  0
   10.4040  -14.3734   28.0756 C   0  0  1  0  0  0  0  0  0  0  0  0
   11.6886  -13.8193   27.5536 C   0  0  0  0  0  0  0  0  0  0  0  0
   10.4166  -15.8741   28.2321 C   0  0  0  0  0  0  0  0  0  0  0  0
   10.6991  -16.5928   26.9132 C   0  0  2  0  0  0  0  0  0  0  0  0
    9.9558  -15.8288   25.9084 N   0  0  0  0  0  0  0  0  0  0  0  0
   10.1065  -17.9450   27.0094 C   0  0  0  0  0  0  0  0  0  0  0  0
   10.7521  -18.8743   27.5463 O   0  0  0  0  0  0  0  0  0  0  0  0
    8.8426  -18.2520   26.5264 O   0  0  0  0  0  0  0  0  0  0  0  0
  1  2  1  0
  3  2  1  0
  4  3  1  0
  5  4  1  0
  5  6  1  1
  7  5  1  0
  8  7  2  0
  9  7  1  0
 10  9  1  0
 10 11  1  1
 11 12  1  0
 12 17  2  0
 13 14  2  0
 13 12  1  0
 14 15  1  0
 15 16  2  0
 17 16  1  0
 18 25  1  0
 18 10  1  0
 19 18  2  0
 21 20  1  1
 21 23  1  0
 21 22  1  0
 24 23  1  1
 24 26  1  0
 24 25  1  0
 26 28  1  0
 27 26  2  0
M  END
$$$$
