MFL.pdb
     RDKit          3D

 28 28  0  0  1  0  0  0  0  0999 V2000
   11.1583  -21.2202   25.9018 C   0  0  0  0  0  0  0  0  0  0  0  0
   10.5484  -22.4629   24.7421 S   0  0  0  0  0  0  0  0  0  0  0  0
    8.9919  -21.9335   23.9636 C   0  0  0  0  0  0  0  0  0  0  0  0
    8.5918  -20.6125   24.6145 C   0  0  0  0  0  0  0  0  0  0  0  0
    7.3143  -20.0786   23.9676 C   0  0  2  0  0  0  0  0  0  0  0  0
    7.2061  -20.7110   22.6697 N   0  0  0  0  0  0  0  0  0  0  0  0
    7.4940  -18.6192   23.8011 C   0  0  0  0  0  0  0  0  0  0  0  0
    8.1340  -18.1445   22.8070 O   0  0  0  0  0  0  0  0  0  0  0  0
    6.9689  -17.6795   24.7297 N   0  0  0  0  0  0  0  0  0  0  0  0
    7.1745  -16.2417   24.6111 C   0  0  1  0  0  0  0  0  0  0  0  0
    6.0725  -15.4598   25.2516 C   0  0  0  0  0  0  0  0  0  0  0  0
    6.2858  -14.0301   25.3457 C   0  0  0  0  0  0  0  0  0  0  0  0
    6.8526  -13.3302   24.3046 C   0  0  0  0  0  0  0  0  0  0  0  0
    7.0588  -11.9454   24.4001 C   0  0  0  0  0  0  0  0  0  0  0  0
    6.6985  -11.2725   25.5308 C   0  0  0  0  0  0  0  0  0  0  0  0
    6.1323  -11.9570   26.5771 C   0  0  0  0  0  0  0  0  0  0  0  0
    5.9353  -13.3284   26.4657 C   0  0  0  0  0  0  0  0  0  0  0  0
    8.5362  -15.8410   24.9754 C   0  0  0  0  0  0  0  0  0  0  0  0
    9.1071  -14.8794   24.3791 O   0  0  0  0  0  0  0  0  0  0  0  0
    9.8856  -13.9116   27.5299 C   0  0  0  0  0  0  0  0  0  0  0  0
   10.5534  -14.8321   28.5592 C   0  0  1  0  0  0  0  0  0  0  0  0
    9.7399  -14.8815   29.8104 C   0  0  0  0  0  0  0  0  0  0  0  0
   10.6859  -16.1707   27.8756 C   0  0  0  0  0  0  0  0  0  0  0  0
   10.6349  -16.0522   26.3528 C   0  0  2  0  0  0  0  0  0  0  0  0
    9.2821  -16.4838   25.9927 N   0  0  0  0  0  0  0  0  0  0  0  0
   11.6022  -17.0255   25.7997 C   0  0  0  0  0  0  0  0  0  0  0  0
   12.8292  -16.7762   25.8332 O   0  0  0  0  0  0  0  0  0  0  0  0
   11.2188  -18.2314   25.2306 O   0  0  0  0  0  0  0  0  0  0  0  0
  1  2  1  0
  3  2  1  0
  4  3  1  0
  5  4  1  0
  5  6  1  6
  7  5  1  0
  8  7  2  0
  9  7  1  0
 10  9  1  0
 10 11  1  1
 11 12  1  0
 12 17  2  0
 13 14  2  0
 13 12  1  0
 14 15  1  0
 15 16  2  0
 17 16  1  0
 18 25  1  0
 18 10  1  0
 19 18  2  0
 21 20  1  6
 21 23  1  0
 21 22  1  0
 24 23  1  1
 24 26  1  0
 24 25  1  0
 26 28  1  0
 27 26  2  0
M  END
$$$$
