MFL.pdb
     RDKit          3D

 28 28  0  0  1  0  0  0  0  0999 V2000
   14.0203  -20.4743   21.1742 C   0  0  0  0  0  0  0  0  0  0  0  0
   12.4272  -21.1132   20.6129 S   0  0  0  0  0  0  0  0  0  0  0  0
   11.4470  -19.8182   19.7934 C   0  0  0  0  0  0  0  0  0  0  0  0
   11.2622  -18.6893   20.8034 C   0  0  0  0  0  0  0  0  0  0  0  0
   10.3930  -17.5869   20.1995 C   0  0  2  0  0  0  0  0  0  0  0  0
   11.1690  -16.9734   19.1423 N   0  0  0  0  0  0  0  0  0  0  0  0
   10.1412  -16.6008   21.2738 C   0  0  0  0  0  0  0  0  0  0  0  0
   10.9935  -15.6944   21.5477 O   0  0  0  0  0  0  0  0  0  0  0  0
    8.9493  -16.6112   22.0487 N   0  0  0  0  0  0  0  0  0  0  0  0
    8.6910  -15.6647   23.1262 C   0  0  1  0  0  0  0  0  0  0  0  0
    7.2488  -15.2771   23.2027 C   0  0  0  0  0  0  0  0  0  0  0  0
    6.9044  -14.3306   24.2437 C   0  0  0  0  0  0  0  0  0  0  0  0
    6.2036  -14.7308   25.3590 C   0  0  0  0  0  0  0  0  0  0  0  0
    5.8708  -13.8105   26.3648 C   0  0  0  0  0  0  0  0  0  0  0  0
    6.2390  -12.5020   26.2494 C   0  0  0  0  0  0  0  0  0  0  0  0
    6.9381  -12.0883   25.1430 C   0  0  0  0  0  0  0  0  0  0  0  0
    7.2594  -13.0130   24.1564 C   0  0  0  0  0  0  0  0  0  0  0  0
    9.3089  -16.0758   24.3899 C   0  0  0  0  0  0  0  0  0  0  0  0
    9.2377  -17.2791   24.7815 O   0  0  0  0  0  0  0  0  0  0  0  0
   10.3722  -13.4518   29.6774 C   0  0  0  0  0  0  0  0  0  0  0  0
   10.6625  -14.7371   28.8921 C   0  0  1  0  0  0  0  0  0  0  0  0
    9.9432  -15.8912   29.5091 C   0  0  0  0  0  0  0  0  0  0  0  0
   10.2317  -14.4488   27.4751 C   0  0  0  0  0  0  0  0  0  0  0  0
   10.5606  -15.5982   26.5232 C   0  0  2  0  0  0  0  0  0  0  0  0
   10.0096  -15.1792   25.2322 N   0  0  0  0  0  0  0  0  0  0  0  0
    9.8143  -16.7875   26.9896 C   0  0  0  0  0  0  0  0  0  0  0  0
   10.4207  -17.7214   27.5631 O   0  0  0  0  0  0  0  0  0  0  0  0
    8.4444  -16.9325   26.8241 O   0  0  0  0  0  0  0  0  0  0  0  0
  1  2  1  0
  3  2  1  0
  4  3  1  0
  5  4  1  0
  5  6  1  6
  7  5  1  0
  8  7  2  0
  9  7  1  0
 10  9  1  0
 10 11  1  1
 11 12  1  0
 12 17  2  0
 13 14  2  0
 13 12  1  0
 14 15  1  0
 15 16  2  0
 17 16  1  0
 18 25  1  0
 18 10  1  0
 19 18  2  0
 21 20  1  1
 21 23  1  0
 21 22  1  0
 24 23  1  1
 24 26  1  0
 24 25  1  0
 26 28  1  0
 27 26  2  0
M  END
$$$$
