MFL.pdb
     RDKit          3D

 28 28  0  0  1  0  0  0  0  0999 V2000
   12.0338  -21.6472   22.3745 C   0  0  0  0  0  0  0  0  0  0  0  0
   12.7008  -21.2207   20.7515 S   0  0  0  0  0  0  0  0  0  0  0  0
   11.7589  -19.8668   19.9843 C   0  0  0  0  0  0  0  0  0  0  0  0
   11.6074  -18.7731   21.0377 C   0  0  0  0  0  0  0  0  0  0  0  0
   10.6622  -17.6858   20.5279 C   0  0  2  0  0  0  0  0  0  0  0  0
   11.3771  -16.9568   19.5013 N   0  0  0  0  0  0  0  0  0  0  0  0
   10.3781  -16.7917   21.6723 C   0  0  0  0  0  0  0  0  0  0  0  0
   11.2084  -15.8927   22.0268 O   0  0  0  0  0  0  0  0  0  0  0  0
    9.1782  -16.8861   22.4289 N   0  0  0  0  0  0  0  0  0  0  0  0
    8.8974  -16.0460   23.5860 C   0  0  1  0  0  0  0  0  0  0  0  0
    7.4805  -15.5682   23.6055 C   0  0  0  0  0  0  0  0  0  0  0  0
    7.1650  -14.5706   24.6073 C   0  0  0  0  0  0  0  0  0  0  0  0
    7.4667  -13.2432   24.4022 C   0  0  0  0  0  0  0  0  0  0  0  0
    7.1606  -12.2800   25.3758 C   0  0  0  0  0  0  0  0  0  0  0  0
    6.5577  -12.6485   26.5428 C   0  0  0  0  0  0  0  0  0  0  0  0
    6.2510  -13.9684   26.7613 C   0  0  0  0  0  0  0  0  0  0  0  0
    6.5612  -14.9093   25.7864 C   0  0  0  0  0  0  0  0  0  0  0  0
    9.3896  -16.6339   24.8348 C   0  0  0  0  0  0  0  0  0  0  0  0
    9.3970  -17.8908   24.9973 O   0  0  0  0  0  0  0  0  0  0  0  0
   10.0642  -13.1114   28.9110 C   0  0  0  0  0  0  0  0  0  0  0  0
   10.4638  -14.0235   27.7442 C   0  0  1  0  0  0  0  0  0  0  0  0
   11.8902  -13.7871   27.3710 C   0  0  0  0  0  0  0  0  0  0  0  0
   10.1926  -15.4290   28.2213 C   0  0  0  0  0  0  0  0  0  0  0  0
   10.4246  -16.4687   27.1256 C   0  0  2  0  0  0  0  0  0  0  0  0
    9.8787  -15.8562   25.9121 N   0  0  0  0  0  0  0  0  0  0  0  0
    9.6085  -17.6563   27.4613 C   0  0  0  0  0  0  0  0  0  0  0  0
    8.4527  -17.7737   26.9931 O   0  0  0  0  0  0  0  0  0  0  0  0
   10.0612  -18.6752   28.2869 O   0  0  0  0  0  0  0  0  0  0  0  0
  1  2  1  0
  3  2  1  0
  4  3  1  0
  5  4  1  0
  5  6  1  6
  7  5  1  0
  8  7  2  0
  9  7  1  0
 10  9  1  0
 10 11  1  1
 11 12  1  0
 12 17  2  0
 13 14  2  0
 13 12  1  0
 14 15  1  0
 15 16  2  0
 17 16  1  0
 18 25  1  0
 18 10  1  0
 19 18  2  0
 21 20  1  1
 21 23  1  0
 21 22  1  0
 24 23  1  1
 24 26  1  0
 24 25  1  0
 26 28  1  0
 27 26  2  0
M  END
$$$$
