MFL.pdb
     RDKit          3D

 28 28  0  0  1  0  0  0  0  0999 V2000
    7.1078  -12.2206   26.3261 C   0  0  0  0  0  0  0  0  0  0  0  0
    5.4893  -12.8609   25.8448 S   0  0  0  0  0  0  0  0  0  0  0  0
    5.3591  -14.6451   26.1750 C   0  0  0  0  0  0  0  0  0  0  0  0
    6.6412  -15.2913   25.6578 C   0  0  0  0  0  0  0  0  0  0  0  0
    6.3179  -16.2402   24.5042 C   0  0  2  0  0  0  0  0  0  0  0  0
    5.6203  -17.3727   25.0763 N   0  0  0  0  0  0  0  0  0  0  0  0
    7.6107  -16.6824   23.9359 C   0  0  0  0  0  0  0  0  0  0  0  0
    8.1337  -17.7929   24.2769 O   0  0  0  0  0  0  0  0  0  0  0  0
    8.3302  -15.9017   22.9903 N   0  0  0  0  0  0  0  0  0  0  0  0
    9.6999  -16.1974   22.5902 C   0  0  1  0  0  0  0  0  0  0  0  0
   10.1700  -15.3048   21.4864 C   0  0  0  0  0  0  0  0  0  0  0  0
    9.1554  -14.4726   20.8728 C   0  0  0  0  0  0  0  0  0  0  0  0
    8.0130  -15.0272   20.3414 C   0  0  0  0  0  0  0  0  0  0  0  0
    7.0330  -14.2177   19.7467 C   0  0  0  0  0  0  0  0  0  0  0  0
    7.2009  -12.8651   19.6874 C   0  0  0  0  0  0  0  0  0  0  0  0
    8.3349  -12.2980   20.2130 C   0  0  0  0  0  0  0  0  0  0  0  0
    9.2954  -13.1145   20.7983 C   0  0  0  0  0  0  0  0  0  0  0  0
   10.6020  -16.3213   23.7384 C   0  0  0  0  0  0  0  0  0  0  0  0
   11.8438  -16.5074   23.5661 O   0  0  0  0  0  0  0  0  0  0  0  0
   11.5881  -13.6396   28.2699 C   0  0  0  0  0  0  0  0  0  0  0  0
   10.9372  -15.0046   28.5268 C   0  0  1  0  0  0  0  0  0  0  0  0
   10.0762  -14.9435   29.7453 C   0  0  0  0  0  0  0  0  0  0  0  0
   10.1730  -15.3292   27.2669 C   0  0  0  0  0  0  0  0  0  0  0  0
   11.0690  -15.9258   26.1821 C   0  0  2  0  0  0  0  0  0  0  0  0
   10.1568  -16.2406   25.0800 N   0  0  0  0  0  0  0  0  0  0  0  0
   11.6226  -17.1919   26.7110 C   0  0  0  0  0  0  0  0  0  0  0  0
   12.7432  -17.1994   27.2703 O   0  0  0  0  0  0  0  0  0  0  0  0
   10.9543  -18.4044   26.6210 O   0  0  0  0  0  0  0  0  0  0  0  0
  1  2  1  0
  3  2  1  0
  4  3  1  0
  5  4  1  0
  5  6  1  1
  7  5  1  0
  8  7  2  0
  9  7  1  0
 10  9  1  0
 10 11  1  6
 11 12  1  0
 12 17  2  0
 13 14  2  0
 13 12  1  0
 14 15  1  0
 15 16  2  0
 17 16  1  0
 18 25  1  0
 18 10  1  0
 19 18  2  0
 21 20  1  6
 21 23  1  0
 21 22  1  0
 24 23  1  1
 24 26  1  0
 24 25  1  0
 26 28  1  0
 27 26  2  0
M  END
$$$$
