MFL.pdb
     RDKit          3D

 28 28  0  0  1  0  0  0  0  0999 V2000
    8.7543  -12.5680   18.3650 C   0  0  0  0  0  0  0  0  0  0  0  0
    7.6991  -13.9274   17.8176 S   0  0  0  0  0  0  0  0  0  0  0  0
    7.8447  -15.3644   18.9236 C   0  0  0  0  0  0  0  0  0  0  0  0
    9.3343  -15.6047   19.1524 C   0  0  0  0  0  0  0  0  0  0  0  0
    9.5317  -16.6144   20.2825 C   0  0  2  0  0  0  0  0  0  0  0  0
    8.3628  -17.4687   20.2900 N   0  0  0  0  0  0  0  0  0  0  0  0
    9.5964  -15.8418   21.5430 C   0  0  0  0  0  0  0  0  0  0  0  0
   10.5769  -15.0668   21.7899 O   0  0  0  0  0  0  0  0  0  0  0  0
    8.5804  -15.9214   22.5343 N   0  0  0  0  0  0  0  0  0  0  0  0
    8.5239  -15.0360   23.6903 C   0  0  1  0  0  0  0  0  0  0  0  0
    7.1307  -14.8740   24.2089 C   0  0  0  0  0  0  0  0  0  0  0  0
    6.9683  -13.9315   25.2969 C   0  0  0  0  0  0  0  0  0  0  0  0
    7.5141  -12.6697   25.2261 C   0  0  0  0  0  0  0  0  0  0  0  0
    7.3556  -11.7600   26.2828 C   0  0  0  0  0  0  0  0  0  0  0  0
    6.6557  -12.1162   27.3984 C   0  0  0  0  0  0  0  0  0  0  0  0
    6.1059  -13.3710   27.4831 C   0  0  0  0  0  0  0  0  0  0  0  0
    6.2725  -14.2595   26.4274 C   0  0  0  0  0  0  0  0  0  0  0  0
    9.5436  -15.3602   24.6917 C   0  0  0  0  0  0  0  0  0  0  0  0
   10.5520  -14.6095   24.8521 O   0  0  0  0  0  0  0  0  0  0  0  0
   10.7183  -13.6835   27.1692 C   0  0  0  0  0  0  0  0  0  0  0  0
   10.6624  -14.7412   28.2787 C   0  0  1  0  0  0  0  0  0  0  0  0
   10.2272  -14.1172   29.5636 C   0  0  0  0  0  0  0  0  0  0  0  0
    9.7155  -15.8026   27.7753 C   0  0  0  0  0  0  0  0  0  0  0  0
   10.3442  -16.6725   26.6874 C   0  0  2  0  0  0  0  0  0  0  0  0
    9.4690  -16.5023   25.5251 N   0  0  0  0  0  0  0  0  0  0  0  0
   10.2580  -18.0787   27.1393 C   0  0  0  0  0  0  0  0  0  0  0  0
   11.0631  -18.5111   27.9959 O   0  0  0  0  0  0  0  0  0  0  0  0
    9.3114  -18.9707   26.6563 O   0  0  0  0  0  0  0  0  0  0  0  0
  1  2  1  0
  3  2  1  0
  4  3  1  0
  5  4  1  0
  5  6  1  1
  7  5  1  0
  8  7  2  0
  9  7  1  0
 10  9  1  0
 10 11  1  1
 11 12  1  0
 12 17  2  0
 13 14  2  0
 13 12  1  0
 14 15  1  0
 15 16  2  0
 17 16  1  0
 18 25  1  0
 18 10  1  0
 19 18  2  0
 21 20  1  6
 21 23  1  0
 21 22  1  0
 24 23  1  1
 24 26  1  0
 24 25  1  0
 26 28  1  0
 27 26  2  0
M  END
$$$$
