MFL.pdb
     RDKit          3D

 28 28  0  0  1  0  0  0  0  0999 V2000
    8.0065  -13.0565   17.0666 C   0  0  0  0  0  0  0  0  0  0  0  0
    8.8326  -14.4740   16.3121 S   0  0  0  0  0  0  0  0  0  0  0  0
    9.2933  -15.7132   17.5617 C   0  0  0  0  0  0  0  0  0  0  0  0
    9.3976  -14.9844   18.8984 C   0  0  0  0  0  0  0  0  0  0  0  0
    9.9483  -15.9296   19.9656 C   0  0  2  0  0  0  0  0  0  0  0  0
    9.1672  -17.1463   19.8911 N   0  0  0  0  0  0  0  0  0  0  0  0
    9.7313  -15.2736   21.2743 C   0  0  0  0  0  0  0  0  0  0  0  0
    9.5944  -14.0100   21.3621 O   0  0  0  0  0  0  0  0  0  0  0  0
    9.6646  -16.0087   22.4894 N   0  0  0  0  0  0  0  0  0  0  0  0
    9.1758  -15.4402   23.7389 C   0  0  1  0  0  0  0  0  0  0  0  0
    7.8055  -14.8587   23.5959 C   0  0  0  0  0  0  0  0  0  0  0  0
    7.2989  -14.1464   24.7510 C   0  0  0  0  0  0  0  0  0  0  0  0
    7.5887  -12.8143   24.9429 C   0  0  0  0  0  0  0  0  0  0  0  0
    7.0972  -12.1281   26.0639 C   0  0  0  0  0  0  0  0  0  0  0  0
    6.3226  -12.7753   26.9818 C   0  0  0  0  0  0  0  0  0  0  0  0
    6.0253  -14.1034   26.8038 C   0  0  0  0  0  0  0  0  0  0  0  0
    6.5205  -14.7677   25.6878 C   0  0  0  0  0  0  0  0  0  0  0  0
    9.3699  -16.3435   24.8764 C   0  0  0  0  0  0  0  0  0  0  0  0
    9.1487  -17.5859   24.7587 O   0  0  0  0  0  0  0  0  0  0  0  0
   10.1767  -14.0364   29.6800 C   0  0  0  0  0  0  0  0  0  0  0  0
   10.2796  -14.5588   28.2415 C   0  0  1  0  0  0  0  0  0  0  0  0
   11.2968  -13.7742   27.4802 C   0  0  0  0  0  0  0  0  0  0  0  0
   10.6222  -16.0227   28.3687 C   0  0  0  0  0  0  0  0  0  0  0  0
   10.6405  -16.7341   27.0163 C   0  0  2  0  0  0  0  0  0  0  0  0
    9.8083  -15.8988   26.1470 N   0  0  0  0  0  0  0  0  0  0  0  0
    9.9708  -18.0414   27.1939 C   0  0  0  0  0  0  0  0  0  0  0  0
   10.5811  -18.9876   27.7426 O   0  0  0  0  0  0  0  0  0  0  0  0
    8.6705  -18.2870   26.7767 O   0  0  0  0  0  0  0  0  0  0  0  0
  1  2  1  0
  3  2  1  0
  4  3  1  0
  5  4  1  0
  5  6  1  1
  7  5  1  0
  8  7  2  0
  9  7  1  0
 10  9  1  0
 10 11  1  6
 11 12  1  0
 12 17  2  0
 13 14  2  0
 13 12  1  0
 14 15  1  0
 15 16  2  0
 17 16  1  0
 18 25  1  0
 18 10  1  0
 19 18  2  0
 21 20  1  1
 21 23  1  0
 21 22  1  0
 24 23  1  1
 24 26  1  0
 24 25  1  0
 26 28  1  0
 27 26  2  0
M  END
$$$$
