MFL.pdb
     RDKit          3D

 28 28  0  0  1  0  0  0  0  0999 V2000
   11.8413  -21.4709   22.0922 C   0  0  0  0  0  0  0  0  0  0  0  0
   12.6375  -21.0471   20.5278 S   0  0  0  0  0  0  0  0  0  0  0  0
   11.7271  -19.7353   19.6563 C   0  0  0  0  0  0  0  0  0  0  0  0
   11.2957  -18.7155   20.7065 C   0  0  0  0  0  0  0  0  0  0  0  0
   10.4421  -17.6272   20.0564 C   0  0  2  0  0  0  0  0  0  0  0  0
   11.2363  -17.0524   18.9910 N   0  0  0  0  0  0  0  0  0  0  0  0
   10.1827  -16.6061   21.0956 C   0  0  0  0  0  0  0  0  0  0  0  0
   10.9930  -15.6417   21.2870 O   0  0  0  0  0  0  0  0  0  0  0  0
    9.0297  -16.6452   21.9263 N   0  0  0  0  0  0  0  0  0  0  0  0
    8.7814  -15.6817   22.9910 C   0  0  1  0  0  0  0  0  0  0  0  0
    7.3679  -15.1938   22.9916 C   0  0  0  0  0  0  0  0  0  0  0  0
    7.0413  -14.2083   24.0018 C   0  0  0  0  0  0  0  0  0  0  0  0
    7.4921  -12.9119   23.8961 C   0  0  0  0  0  0  0  0  0  0  0  0
    7.1746  -11.9604   24.8776 C   0  0  0  0  0  0  0  0  0  0  0  0
    6.4119  -12.3098   25.9535 C   0  0  0  0  0  0  0  0  0  0  0  0
    5.9554  -13.5987   26.0723 C   0  0  0  0  0  0  0  0  0  0  0  0
    6.2793  -14.5283   25.0911 C   0  0  0  0  0  0  0  0  0  0  0  0
    9.3007  -16.1337   24.2847 C   0  0  0  0  0  0  0  0  0  0  0  0
    9.1870  -17.3456   24.6377 O   0  0  0  0  0  0  0  0  0  0  0  0
   12.0402  -15.1656   28.9128 C   0  0  0  0  0  0  0  0  0  0  0  0
   10.5373  -14.8613   28.8722 C   0  0  1  0  0  0  0  0  0  0  0  0
   10.2103  -13.7543   29.8195 C   0  0  0  0  0  0  0  0  0  0  0  0
   10.2328  -14.5293   27.4322 C   0  0  0  0  0  0  0  0  0  0  0  0
   10.4150  -15.7329   26.5081 C   0  0  2  0  0  0  0  0  0  0  0  0
    9.9488  -15.2688   25.1992 N   0  0  0  0  0  0  0  0  0  0  0  0
    9.5034  -16.7976   26.9819 C   0  0  0  0  0  0  0  0  0  0  0  0
    8.2633  -16.6353   26.9143 O   0  0  0  0  0  0  0  0  0  0  0  0
    9.9546  -17.9982   27.5111 O   0  0  0  0  0  0  0  0  0  0  0  0
  1  2  1  0
  3  2  1  0
  4  3  1  0
  5  4  1  0
  5  6  1  6
  7  5  1  0
  8  7  2  0
  9  7  1  0
 10  9  1  0
 10 11  1  1
 11 12  1  0
 12 17  2  0
 13 14  2  0
 13 12  1  0
 14 15  1  0
 15 16  2  0
 17 16  1  0
 18 25  1  0
 18 10  1  0
 19 18  2  0
 21 20  1  6
 21 23  1  0
 21 22  1  0
 24 23  1  1
 24 26  1  0
 24 25  1  0
 26 28  1  0
 27 26  2  0
M  END
$$$$
