MFL.pdb
     RDKit          3D

 28 28  0  0  1  0  0  0  0  0999 V2000
   14.3819  -19.2552   20.8891 C   0  0  0  0  0  0  0  0  0  0  0  0
   13.2354  -20.5132   20.2858 S   0  0  0  0  0  0  0  0  0  0  0  0
   11.6792  -19.7680   19.7095 C   0  0  0  0  0  0  0  0  0  0  0  0
   11.6252  -18.3509   20.2733 C   0  0  0  0  0  0  0  0  0  0  0  0
   10.2507  -17.7371   20.0092 C   0  0  2  0  0  0  0  0  0  0  0  0
   10.3126  -17.1178   18.7020 N   0  0  0  0  0  0  0  0  0  0  0  0
   10.0358  -16.7022   21.0449 C   0  0  0  0  0  0  0  0  0  0  0  0
   10.7595  -15.6546   21.0881 O   0  0  0  0  0  0  0  0  0  0  0  0
    9.0227  -16.8193   22.0354 N   0  0  0  0  0  0  0  0  0  0  0  0
    8.8394  -15.8485   23.1065 C   0  0  1  0  0  0  0  0  0  0  0  0
    7.4252  -15.3713   23.1992 C   0  0  0  0  0  0  0  0  0  0  0  0
    7.1388  -14.4539   24.2831 C   0  0  0  0  0  0  0  0  0  0  0  0
    6.4049  -14.8579   25.3755 C   0  0  0  0  0  0  0  0  0  0  0  0
    6.1285  -13.9657   26.4228 C   0  0  0  0  0  0  0  0  0  0  0  0
    6.5856  -12.6813   26.3714 C   0  0  0  0  0  0  0  0  0  0  0  0
    7.3186  -12.2643   25.2885 C   0  0  0  0  0  0  0  0  0  0  0  0
    7.5831  -13.1610   24.2600 C   0  0  0  0  0  0  0  0  0  0  0  0
    9.4491  -16.2851   24.3655 C   0  0  0  0  0  0  0  0  0  0  0  0
    9.0688  -17.3543   24.9298 O   0  0  0  0  0  0  0  0  0  0  0  0
   11.8073  -14.6372   28.9091 C   0  0  0  0  0  0  0  0  0  0  0  0
   10.2964  -14.7303   28.6611 C   0  0  1  0  0  0  0  0  0  0  0  0
    9.5837  -13.6555   29.4138 C   0  0  0  0  0  0  0  0  0  0  0  0
   10.1274  -14.6294   27.1652 C   0  0  0  0  0  0  0  0  0  0  0  0
   10.8088  -15.7799   26.4252 C   0  0  2  0  0  0  0  0  0  0  0  0
   10.4778  -15.5610   25.0150 N   0  0  0  0  0  0  0  0  0  0  0  0
   10.1655  -17.0359   26.8699 C   0  0  0  0  0  0  0  0  0  0  0  0
   10.8657  -17.9732   27.3170 O   0  0  0  0  0  0  0  0  0  0  0  0
    8.7943  -17.2414   26.8193 O   0  0  0  0  0  0  0  0  0  0  0  0
  1  2  1  0
  3  2  1  0
  4  3  1  0
  5  4  1  0
  5  6  1  6
  7  5  1  0
  8  7  2  0
  9  7  1  0
 10  9  1  0
 10 11  1  1
 11 12  1  0
 12 17  2  0
 13 14  2  0
 13 12  1  0
 14 15  1  0
 15 16  2  0
 17 16  1  0
 18 25  1  0
 18 10  1  0
 19 18  2  0
 21 20  1  6
 21 23  1  0
 21 22  1  0
 24 23  1  1
 24 26  1  0
 24 25  1  0
 26 28  1  0
 27 26  2  0
M  END
$$$$
