SKR.pdb
     RDKit          3D

 27 26  0  0  1  0  0  0  0  0999 V2000
   26.2056  -23.3312  -17.2009 O   0  0  0  0  0  0  0  0  0  0  0  0
   27.3698  -22.7465  -17.6351 C   0  0  0  0  0  0  0  0  0  0  0  0
   27.9594  -21.7542  -16.6658 C   0  0  2  0  0  0  0  0  0  0  0  0
   28.5294  -22.5126  -15.5671 N   0  0  0  0  0  0  0  0  0  0  0  0
   27.0073  -20.7679  -16.1550 C   0  0  0  0  0  0  0  0  0  0  0  0
   26.7119  -20.7751  -14.9173 O   0  0  0  0  0  0  0  0  0  0  0  0
   26.3646  -19.7776  -16.9293 N   0  0  0  0  0  0  0  0  0  0  0  0
   25.2789  -18.9397  -16.4076 C   0  0  1  0  0  0  0  0  0  0  0  0
   25.1748  -17.7467  -17.3187 C   0  0  0  0  0  0  0  0  0  0  0  0
   26.2792  -16.7640  -17.1599 C   0  0  0  0  0  0  0  0  0  0  0  0
   26.1886  -15.6034  -18.1078 C   0  0  0  0  0  0  0  0  0  0  0  0
   27.3306  -14.6422  -17.8866 C   0  0  0  0  0  0  0  0  0  0  0  0
   27.1945  -13.5351  -18.8340 N   0  0  0  0  0  0  0  0  0  0  0  0
   24.0214  -19.7302  -16.3028 C   0  0  0  0  0  0  0  0  0  0  0  0
   23.9882  -20.9415  -16.6314 O   0  0  0  0  0  0  0  0  0  0  0  0
   18.1020  -20.3768  -12.1695 N   0  0  0  0  0  0  0  0  0  0  0  0
   18.2451  -21.7398  -11.7671 C   0  0  0  0  0  0  0  0  0  0  0  0
   17.2309  -22.4259  -11.4058 N   0  0  0  0  0  0  0  0  0  0  0  0
   19.5321  -22.3560  -11.7640 N   0  0  0  0  0  0  0  0  0  0  0  0
   20.7063  -21.6086  -12.1484 C   0  0  0  0  0  0  0  0  0  0  0  0
   20.8124  -21.4932  -13.6503 C   0  0  0  0  0  0  0  0  0  0  0  0
   22.0038  -20.7177  -14.0974 C   0  0  0  0  0  0  0  0  0  0  0  0
   21.7152  -19.8263  -15.2536 C   0  0  2  0  0  0  0  0  0  0  0  0
   22.8144  -19.1523  -15.8305 N   0  0  0  0  0  0  0  0  0  0  0  0
   20.5576  -18.9217  -14.9654 C   0  0  0  0  0  0  0  0  0  0  0  0
   20.7828  -17.7758  -14.5334 O   0  0  0  0  0  0  0  0  0  0  0  0
   19.2561  -19.3241  -15.1655 O   0  0  0  0  0  0  0  0  0  0  0  0
  1  2  1  0
  3  2  1  0
  3  4  1  1
  5  3  1  0
  6  5  2  0
  7  5  1  0
  8  9  1  6
  8  7  1  0
 10  9  1  0
 11 10  1  0
 12 11  1  0
 13 12  1  0
 14  8  1  0
 15 14  2  0
 17 16  1  0
 17 19  1  0
 18 17  2  0
 20 19  1  0
 20 21  1  0
 21 22  1  0
 23 22  1  1
 23 24  1  0
 24 14  1  0
 25 23  1  0
 25 27  1  0
 26 25  2  0
M  END
$$$$
