SKR.pdb
     RDKit          3D

 27 26  0  0  1  0  0  0  0  0999 V2000
   21.7668   -5.0329  -13.1648 O   0  0  0  0  0  0  0  0  0  0  0  0
   22.3825   -4.3566  -14.1892 C   0  0  0  0  0  0  0  0  0  0  0  0
   22.8293   -5.2375  -15.3277 C   0  0  2  0  0  0  0  0  0  0  0  0
   23.3573   -4.3677  -16.3630 N   0  0  0  0  0  0  0  0  0  0  0  0
   21.7792   -6.0943  -15.8784 C   0  0  0  0  0  0  0  0  0  0  0  0
   20.8960   -5.5817  -16.6377 O   0  0  0  0  0  0  0  0  0  0  0  0
   21.6483   -7.4796  -15.6398 N   0  0  0  0  0  0  0  0  0  0  0  0
   20.6189   -8.3042  -16.2832 C   0  0  1  0  0  0  0  0  0  0  0  0
   21.0293   -9.7391  -16.0913 C   0  0  0  0  0  0  0  0  0  0  0  0
   20.0419  -10.7260  -16.6028 C   0  0  0  0  0  0  0  0  0  0  0  0
   20.4872  -12.1517  -16.4513 C   0  0  0  0  0  0  0  0  0  0  0  0
   19.4489  -13.0974  -17.0034 C   0  0  0  0  0  0  0  0  0  0  0  0
   19.9348  -14.4677  -16.8360 N   0  0  0  0  0  0  0  0  0  0  0  0
   19.2763   -7.9812  -15.7264 C   0  0  0  0  0  0  0  0  0  0  0  0
   19.0764   -7.9609  -14.4870 O   0  0  0  0  0  0  0  0  0  0  0  0
   12.2538  -11.0788  -12.9529 N   0  0  0  0  0  0  0  0  0  0  0  0
   11.7208   -9.9022  -13.5629 C   0  0  0  0  0  0  0  0  0  0  0  0
   10.4896   -9.5937  -13.4254 N   0  0  0  0  0  0  0  0  0  0  0  0
   12.5633   -9.0512  -14.3387 N   0  0  0  0  0  0  0  0  0  0  0  0
   13.9603   -9.3678  -14.5215 C   0  0  0  0  0  0  0  0  0  0  0  0
   14.6780   -8.2637  -15.2606 C   0  0  0  0  0  0  0  0  0  0  0  0
   16.1050   -8.5811  -15.5498 C   0  0  0  0  0  0  0  0  0  0  0  0
   16.8382   -7.4437  -16.1690 C   0  0  2  0  0  0  0  0  0  0  0  0
   18.1721   -7.6846  -16.5670 N   0  0  0  0  0  0  0  0  0  0  0  0
   16.6840   -6.1938  -15.3596 C   0  0  0  0  0  0  0  0  0  0  0  0
   16.7046   -6.2754  -14.1173 O   0  0  0  0  0  0  0  0  0  0  0  0
   16.5206   -4.9620  -15.9526 O   0  0  0  0  0  0  0  0  0  0  0  0
  1  2  1  0
  3  2  1  0
  3  4  1  6
  5  3  1  0
  6  5  2  0
  7  5  1  0
  8  9  1  1
  8  7  1  0
 10  9  1  0
 11 10  1  0
 12 11  1  0
 13 12  1  0
 14  8  1  0
 15 14  2  0
 17 16  1  0
 17 19  1  0
 18 17  2  0
 20 19  1  0
 20 21  1  0
 21 22  1  0
 23 22  1  1
 23 24  1  0
 24 14  1  0
 25 23  1  0
 25 27  1  0
 26 25  2  0
M  END
$$$$
