SKR.pdb
     RDKit          3D

 27 26  0  0  1  0  0  0  0  0999 V2000
   25.4441  -14.9945  -19.2372 O   0  0  0  0  0  0  0  0  0  0  0  0
   25.6590  -16.2745  -19.6857 C   0  0  0  0  0  0  0  0  0  0  0  0
   26.6458  -17.0590  -18.8595 C   0  0  2  0  0  0  0  0  0  0  0  0
   27.6232  -17.6199  -19.7746 N   0  0  0  0  0  0  0  0  0  0  0  0
   26.0484  -18.1207  -18.0496 C   0  0  0  0  0  0  0  0  0  0  0  0
   25.8246  -19.2546  -18.5819 O   0  0  0  0  0  0  0  0  0  0  0  0
   25.6850  -18.0030  -16.6904 N   0  0  0  0  0  0  0  0  0  0  0  0
   25.0216  -19.0809  -15.9478 C   0  0  1  0  0  0  0  0  0  0  0  0
   25.7795  -19.2506  -14.6590 C   0  0  0  0  0  0  0  0  0  0  0  0
   25.1954  -20.2637  -13.7408 C   0  0  0  0  0  0  0  0  0  0  0  0
   25.9220  -20.3745  -12.4317 C   0  0  0  0  0  0  0  0  0  0  0  0
   25.2117  -21.3309  -11.5055 C   0  0  0  0  0  0  0  0  0  0  0  0
   26.0131  -21.4799  -10.2900 N   0  0  0  0  0  0  0  0  0  0  0  0
   23.5780  -18.7672  -15.7620 C   0  0  0  0  0  0  0  0  0  0  0  0
   23.2130  -17.7456  -15.1300 O   0  0  0  0  0  0  0  0  0  0  0  0
   19.3572  -25.1604  -12.7837 N   0  0  0  0  0  0  0  0  0  0  0  0
   18.3587  -24.2831  -13.3068 C   0  0  0  0  0  0  0  0  0  0  0  0
   17.2006  -24.2170  -12.7737 N   0  0  0  0  0  0  0  0  0  0  0  0
   18.6450  -23.4638  -14.4395 N   0  0  0  0  0  0  0  0  0  0  0  0
   19.9810  -23.4025  -14.9840 C   0  0  0  0  0  0  0  0  0  0  0  0
   20.7850  -22.3013  -14.3350 C   0  0  0  0  0  0  0  0  0  0  0  0
   21.8151  -21.7151  -15.2383 C   0  0  0  0  0  0  0  0  0  0  0  0
   21.5573  -20.2856  -15.5615 C   0  0  2  0  0  0  0  0  0  0  0  0
   22.5594  -19.6040  -16.2873 N   0  0  0  0  0  0  0  0  0  0  0  0
   21.0918  -19.5320  -14.3545 C   0  0  0  0  0  0  0  0  0  0  0  0
   21.9354  -19.1459  -13.5242 O   0  0  0  0  0  0  0  0  0  0  0  0
   19.7596  -19.2566  -14.1414 O   0  0  0  0  0  0  0  0  0  0  0  0
  1  2  1  0
  3  2  1  0
  3  4  1  6
  5  3  1  0
  6  5  2  0
  7  5  1  0
  8  9  1  1
  8  7  1  0
 10  9  1  0
 11 10  1  0
 12 11  1  0
 13 12  1  0
 14  8  1  0
 15 14  2  0
 17 16  1  0
 17 19  1  0
 18 17  2  0
 20 19  1  0
 20 21  1  0
 21 22  1  0
 23 22  1  1
 23 24  1  0
 24 14  1  0
 25 23  1  0
 25 27  1  0
 26 25  2  0
M  END
$$$$
