SKR.pdb
     RDKit          3D

 27 26  0  0  1  0  0  0  0  0999 V2000
   13.2474   -6.9363   -8.9366 O   0  0  0  0  0  0  0  0  0  0  0  0
   14.3920   -7.3804   -9.5518 C   0  0  0  0  0  0  0  0  0  0  0  0
   14.2876   -8.7748  -10.1143 C   0  0  2  0  0  0  0  0  0  0  0  0
   14.0926   -9.6771   -8.9939 N   0  0  0  0  0  0  0  0  0  0  0  0
   15.4442   -9.1971  -10.9042 C   0  0  0  0  0  0  0  0  0  0  0  0
   16.4489   -9.7036  -10.3098 O   0  0  0  0  0  0  0  0  0  0  0  0
   15.5551   -9.0928  -12.3078 N   0  0  0  0  0  0  0  0  0  0  0  0
   16.6850   -9.6499  -13.0604 C   0  0  1  0  0  0  0  0  0  0  0  0
   16.1009  -10.5201  -14.1400 C   0  0  0  0  0  0  0  0  0  0  0  0
   17.1161  -11.1807  -15.0022 C   0  0  0  0  0  0  0  0  0  0  0  0
   16.5259  -12.1430  -15.9920 C   0  0  0  0  0  0  0  0  0  0  0  0
   17.6120  -12.8246  -16.7876 C   0  0  0  0  0  0  0  0  0  0  0  0
   17.0007  -13.8798  -17.5966 N   0  0  0  0  0  0  0  0  0  0  0  0
   17.5542   -8.5548  -13.5725 C   0  0  0  0  0  0  0  0  0  0  0  0
   17.0715   -7.5935  -14.2202 O   0  0  0  0  0  0  0  0  0  0  0  0
   19.9142   -4.2898   -8.7248 N   0  0  0  0  0  0  0  0  0  0  0  0
   19.8839   -3.5710   -9.9589 C   0  0  0  0  0  0  0  0  0  0  0  0
   19.3196   -2.4285  -10.0376 N   0  0  0  0  0  0  0  0  0  0  0  0
   20.4879   -4.1246  -11.1271 N   0  0  0  0  0  0  0  0  0  0  0  0
   20.3736   -5.5347  -11.4163 C   0  0  0  0  0  0  0  0  0  0  0  0
   21.2298   -5.9206  -12.5988 C   0  0  0  0  0  0  0  0  0  0  0  0
   21.0872   -7.3528  -12.9852 C   0  0  0  0  0  0  0  0  0  0  0  0
   19.8918   -7.6082  -13.8340 C   0  0  2  0  0  0  0  0  0  0  0  0
   18.9561   -8.5506  -13.3524 N   0  0  0  0  0  0  0  0  0  0  0  0
   20.2798   -7.8430  -15.2608 C   0  0  0  0  0  0  0  0  0  0  0  0
   20.5347   -6.8620  -15.9840 O   0  0  0  0  0  0  0  0  0  0  0  0
   20.3612   -9.1114  -15.7903 O   0  0  0  0  0  0  0  0  0  0  0  0
  1  2  1  0
  3  2  1  0
  3  4  1  1
  5  3  1  0
  6  5  2  0
  7  5  1  0
  8  9  1  6
  8  7  1  0
 10  9  1  0
 11 10  1  0
 12 11  1  0
 13 12  1  0
 14  8  1  0
 15 14  2  0
 17 16  1  0
 17 19  1  0
 18 17  2  0
 20 19  1  0
 20 21  1  0
 21 22  1  0
 23 22  1  1
 23 24  1  0
 24 14  1  0
 25 23  1  0
 25 27  1  0
 26 25  2  0
M  END
$$$$
