SKR.pdb
     RDKit          3D

 27 26  0  0  1  0  0  0  0  0999 V2000
   15.9892  -24.3808   -6.8549 O   0  0  0  0  0  0  0  0  0  0  0  0
   16.0953  -25.6347   -6.3051 C   0  0  0  0  0  0  0  0  0  0  0  0
   17.5096  -26.1465   -6.2071 C   0  0  2  0  0  0  0  0  0  0  0  0
   18.1221  -25.5012   -5.0600 N   0  0  0  0  0  0  0  0  0  0  0  0
   18.3200  -25.9191   -7.4037 C   0  0  0  0  0  0  0  0  0  0  0  0
   19.2767  -25.0816   -7.3541 O   0  0  0  0  0  0  0  0  0  0  0  0
   18.1354  -26.5609   -8.6476 N   0  0  0  0  0  0  0  0  0  0  0  0
   18.9825  -26.2919   -9.8152 C   0  0  1  0  0  0  0  0  0  0  0  0
   19.1997  -27.6103  -10.5072 C   0  0  0  0  0  0  0  0  0  0  0  0
   20.0455  -27.5232  -11.7268 C   0  0  0  0  0  0  0  0  0  0  0  0
   20.3748  -28.8608  -12.3236 C   0  0  0  0  0  0  0  0  0  0  0  0
   21.2470  -28.7011  -13.5448 C   0  0  0  0  0  0  0  0  0  0  0  0
   22.6320  -28.5274  -13.1053 N   0  0  0  0  0  0  0  0  0  0  0  0
   18.3563  -25.2533  -10.6790 C   0  0  0  0  0  0  0  0  0  0  0  0
   17.1209  -25.2558  -10.9035 O   0  0  0  0  0  0  0  0  0  0  0  0
   22.0971  -18.5447  -15.2550 N   0  0  0  0  0  0  0  0  0  0  0  0
   22.3068  -19.9452  -15.0679 C   0  0  0  0  0  0  0  0  0  0  0  0
   23.3977  -20.4986  -15.4333 N   0  0  0  0  0  0  0  0  0  0  0  0
   21.2928  -20.7488  -14.4662 N   0  0  0  0  0  0  0  0  0  0  0  0
   20.0739  -20.1495  -13.9759 C   0  0  0  0  0  0  0  0  0  0  0  0
   19.0805  -21.2038  -13.5492 C   0  0  0  0  0  0  0  0  0  0  0  0
   19.6417  -22.1789  -12.5720 C   0  0  0  0  0  0  0  0  0  0  0  0
   18.6630  -23.2252  -12.1696 C   0  0  2  0  0  0  0  0  0  0  0  0
   19.1236  -24.2230  -11.2820 N   0  0  0  0  0  0  0  0  0  0  0  0
   17.9460  -23.7837  -13.3593 C   0  0  0  0  0  0  0  0  0  0  0  0
   18.4490  -24.7470  -13.9670 O   0  0  0  0  0  0  0  0  0  0  0  0
   16.7496  -23.2604  -13.7957 O   0  0  0  0  0  0  0  0  0  0  0  0
  1  2  1  0
  3  2  1  0
  3  4  1  1
  5  3  1  0
  6  5  2  0
  7  5  1  0
  8  9  1  6
  8  7  1  0
 10  9  1  0
 11 10  1  0
 12 11  1  0
 13 12  1  0
 14  8  1  0
 15 14  2  0
 17 16  1  0
 17 19  1  0
 18 17  2  0
 20 19  1  0
 20 21  1  0
 21 22  1  0
 23 22  1  6
 23 24  1  0
 24 14  1  0
 25 23  1  0
 25 27  1  0
 26 25  2  0
M  END
$$$$
