SKR.pdb
     RDKit          3D

 27 26  0  0  1  0  0  0  0  0999 V2000
   27.0734  -21.9941  -10.7850 O   0  0  0  0  0  0  0  0  0  0  0  0
   25.7735  -21.8282  -11.1955 C   0  0  0  0  0  0  0  0  0  0  0  0
   25.5942  -21.8372  -12.6920 C   0  0  2  0  0  0  0  0  0  0  0  0
   26.3473  -20.7151  -13.2223 N   0  0  0  0  0  0  0  0  0  0  0  0
   24.2022  -21.7626  -13.1354 C   0  0  0  0  0  0  0  0  0  0  0  0
   23.5633  -20.6718  -12.9903 O   0  0  0  0  0  0  0  0  0  0  0  0
   23.4773  -22.8195  -13.7277 N   0  0  0  0  0  0  0  0  0  0  0  0
   22.0608  -22.7059  -14.0937 C   0  0  1  0  0  0  0  0  0  0  0  0
   21.9807  -22.8966  -15.5842 C   0  0  0  0  0  0  0  0  0  0  0  0
   20.5952  -22.8859  -16.1235 C   0  0  0  0  0  0  0  0  0  0  0  0
   20.5197  -23.2168  -17.5859 C   0  0  0  0  0  0  0  0  0  0  0  0
   19.0914  -23.1723  -18.0709 C   0  0  0  0  0  0  0  0  0  0  0  0
   19.0660  -23.5829  -19.4753 N   0  0  0  0  0  0  0  0  0  0  0  0
   21.2469  -23.6806  -13.3163 C   0  0  0  0  0  0  0  0  0  0  0  0
   21.6596  -24.8477  -13.1064 O   0  0  0  0  0  0  0  0  0  0  0  0
   17.8163  -26.6332   -7.7068 N   0  0  0  0  0  0  0  0  0  0  0  0
   18.3369  -25.5202   -6.9784 C   0  0  0  0  0  0  0  0  0  0  0  0
   18.9008  -25.6853   -5.8450 N   0  0  0  0  0  0  0  0  0  0  0  0
   18.2325  -24.2009   -7.5119 N   0  0  0  0  0  0  0  0  0  0  0  0
   17.3361  -23.9199   -8.6086 C   0  0  0  0  0  0  0  0  0  0  0  0
   17.8482  -24.5152   -9.8984 C   0  0  0  0  0  0  0  0  0  0  0  0
   18.6337  -23.5512  -10.7196 C   0  0  0  0  0  0  0  0  0  0  0  0
   19.1383  -24.1455  -11.9872 C   0  0  2  0  0  0  0  0  0  0  0  0
   19.9782  -23.3348  -12.7828 N   0  0  0  0  0  0  0  0  0  0  0  0
   18.0303  -24.7841  -12.7656 C   0  0  0  0  0  0  0  0  0  0  0  0
   17.3848  -24.0899  -13.5731 O   0  0  0  0  0  0  0  0  0  0  0  0
   17.7092  -26.1141  -12.6112 O   0  0  0  0  0  0  0  0  0  0  0  0
  1  2  1  0
  3  2  1  0
  3  4  1  6
  5  3  1  0
  6  5  2  0
  7  5  1  0
  8  9  1  6
  8  7  1  0
 10  9  1  0
 11 10  1  0
 12 11  1  0
 13 12  1  0
 14  8  1  0
 15 14  2  0
 17 16  1  0
 17 19  1  0
 18 17  2  0
 20 19  1  0
 20 21  1  0
 21 22  1  0
 23 22  1  1
 23 24  1  0
 24 14  1  0
 25 23  1  0
 25 27  1  0
 26 25  2  0
M  END
$$$$
