SKR.pdb
     RDKit          3D

 27 26  0  0  1  0  0  0  0  0999 V2000
   24.9868  -25.3638  -17.0371 O   0  0  0  0  0  0  0  0  0  0  0  0
   25.8044  -24.9871  -18.0741 C   0  0  0  0  0  0  0  0  0  0  0  0
   26.7166  -23.8316  -17.7508 C   0  0  2  0  0  0  0  0  0  0  0  0
   27.6600  -24.2953  -16.7496 N   0  0  0  0  0  0  0  0  0  0  0  0
   26.0282  -22.6317  -17.2751 C   0  0  0  0  0  0  0  0  0  0  0  0
   26.4682  -22.0336  -16.2416 O   0  0  0  0  0  0  0  0  0  0  0  0
   24.8859  -22.0559  -17.8725 N   0  0  0  0  0  0  0  0  0  0  0  0
   24.2835  -20.8055  -17.3963 C   0  0  1  0  0  0  0  0  0  0  0  0
   23.7929  -20.0688  -18.6132 C   0  0  0  0  0  0  0  0  0  0  0  0
   24.4453  -18.7502  -18.8281 C   0  0  0  0  0  0  0  0  0  0  0  0
   24.0086  -18.0650  -20.0904 C   0  0  0  0  0  0  0  0  0  0  0  0
   24.8162  -16.8120  -20.3254 C   0  0  0  0  0  0  0  0  0  0  0  0
   24.3170  -16.1594  -21.5364 N   0  0  0  0  0  0  0  0  0  0  0  0
   23.2192  -21.0934  -16.3956 C   0  0  0  0  0  0  0  0  0  0  0  0
   22.4302  -22.0580  -16.5482 O   0  0  0  0  0  0  0  0  0  0  0  0
   23.8188  -20.3814   -7.8889 N   0  0  0  0  0  0  0  0  0  0  0  0
   24.4889  -20.3947   -9.1503 C   0  0  0  0  0  0  0  0  0  0  0  0
   25.7622  -20.3312   -9.2160 N   0  0  0  0  0  0  0  0  0  0  0  0
   23.7384  -20.4798  -10.3609 N   0  0  0  0  0  0  0  0  0  0  0  0
   22.3778  -20.9633  -10.3504 C   0  0  0  0  0  0  0  0  0  0  0  0
   21.7942  -20.9815  -11.7431 C   0  0  0  0  0  0  0  0  0  0  0  0
   22.7721  -20.5845  -12.7952 C   0  0  0  0  0  0  0  0  0  0  0  0
   22.1713  -20.5333  -14.1558 C   0  0  2  0  0  0  0  0  0  0  0  0
   23.0519  -20.2951  -15.2343 N   0  0  0  0  0  0  0  0  0  0  0  0
   20.9606  -19.6530  -14.1814 C   0  0  0  0  0  0  0  0  0  0  0  0
   21.0653  -18.4994  -14.6383 O   0  0  0  0  0  0  0  0  0  0  0  0
   19.7399  -20.0859  -13.7142 O   0  0  0  0  0  0  0  0  0  0  0  0
  1  2  1  0
  3  2  1  0
  3  4  1  1
  5  3  1  0
  6  5  2  0
  7  5  1  0
  8  9  1  6
  8  7  1  0
 10  9  1  0
 11 10  1  0
 12 11  1  0
 13 12  1  0
 14  8  1  0
 15 14  2  0
 17 16  1  0
 17 19  1  0
 18 17  2  0
 20 19  1  0
 20 21  1  0
 21 22  1  0
 23 22  1  1
 23 24  1  0
 24 14  1  0
 25 23  1  0
 25 27  1  0
 26 25  2  0
M  END
$$$$
