SKR.pdb
     RDKit          3D

 27 26  0  0  1  0  0  0  0  0999 V2000
   27.8109  -21.8166  -13.5132 O   0  0  0  0  0  0  0  0  0  0  0  0
   28.0042  -21.0341  -12.4014 C   0  0  0  0  0  0  0  0  0  0  0  0
   26.7688  -20.3046  -11.9395 C   0  0  2  0  0  0  0  0  0  0  0  0
   25.9186  -21.2759  -11.2753 N   0  0  0  0  0  0  0  0  0  0  0  0
   26.0269  -19.6342  -13.0072 C   0  0  0  0  0  0  0  0  0  0  0  0
   24.8380  -20.0078  -13.2647 O   0  0  0  0  0  0  0  0  0  0  0  0
   26.5202  -18.5786  -13.8045 N   0  0  0  0  0  0  0  0  0  0  0  0
   25.8014  -18.0624  -14.9751 C   0  0  1  0  0  0  0  0  0  0  0  0
   26.4866  -16.7845  -15.3768 C   0  0  0  0  0  0  0  0  0  0  0  0
   25.5560  -15.6589  -15.6557 C   0  0  0  0  0  0  0  0  0  0  0  0
   26.2546  -14.3591  -15.9317 C   0  0  0  0  0  0  0  0  0  0  0  0
   25.2543  -13.2508  -16.1512 C   0  0  0  0  0  0  0  0  0  0  0  0
   25.9859  -11.9983  -16.3458 N   0  0  0  0  0  0  0  0  0  0  0  0
   25.7627  -19.0903  -16.0517 C   0  0  0  0  0  0  0  0  0  0  0  0
   26.7773  -19.7755  -16.3303 O   0  0  0  0  0  0  0  0  0  0  0  0
   25.0992  -25.9339  -15.3981 N   0  0  0  0  0  0  0  0  0  0  0  0
   25.6360  -25.7914  -16.7142 C   0  0  0  0  0  0  0  0  0  0  0  0
   25.7232  -26.7952  -17.4981 N   0  0  0  0  0  0  0  0  0  0  0  0
   26.0845  -24.5166  -17.1723 N   0  0  0  0  0  0  0  0  0  0  0  0
   25.8127  -23.3227  -16.4070 C   0  0  0  0  0  0  0  0  0  0  0  0
   24.3449  -22.9703  -16.4484 C   0  0  0  0  0  0  0  0  0  0  0  0
   24.0561  -21.5961  -15.9492 C   0  0  0  0  0  0  0  0  0  0  0  0
   23.9720  -20.5882  -17.0408 C   0  0  2  0  0  0  0  0  0  0  0  0
   24.5854  -19.3379  -16.8044 N   0  0  0  0  0  0  0  0  0  0  0  0
   22.5732  -20.4667  -17.5604 C   0  0  0  0  0  0  0  0  0  0  0  0
   22.2103  -21.2109  -18.4904 O   0  0  0  0  0  0  0  0  0  0  0  0
   21.6824  -19.5564  -17.0373 O   0  0  0  0  0  0  0  0  0  0  0  0
  1  2  1  0
  3  2  1  0
  3  4  1  6
  5  3  1  0
  6  5  2  0
  7  5  1  0
  8  9  1  6
  8  7  1  0
 10  9  1  0
 11 10  1  0
 12 11  1  0
 13 12  1  0
 14  8  1  0
 15 14  2  0
 17 16  1  0
 17 19  1  0
 18 17  2  0
 20 19  1  0
 20 21  1  0
 21 22  1  0
 23 22  1  1
 23 24  1  0
 24 14  1  0
 25 23  1  0
 25 27  1  0
 26 25  2  0
M  END
$$$$
