SKR.pdb
     RDKit          3D

 27 26  0  0  1  0  0  0  0  0999 V2000
   25.0179  -23.3526  -16.3389 O   0  0  0  0  0  0  0  0  0  0  0  0
   25.7268  -22.3426  -16.9416 C   0  0  0  0  0  0  0  0  0  0  0  0
   26.1497  -21.2418  -16.0029 C   0  0  2  0  0  0  0  0  0  0  0  0
   27.1888  -21.7830  -15.1457 N   0  0  0  0  0  0  0  0  0  0  0  0
   25.0657  -20.6890  -15.1908 C   0  0  0  0  0  0  0  0  0  0  0  0
   25.1366  -20.7726  -13.9231 O   0  0  0  0  0  0  0  0  0  0  0  0
   23.9118  -20.0514  -15.6961 N   0  0  0  0  0  0  0  0  0  0  0  0
   22.8221  -19.5786  -14.8345 C   0  0  1  0  0  0  0  0  0  0  0  0
   22.2457  -18.3556  -15.4950 C   0  0  0  0  0  0  0  0  0  0  0  0
   21.0899  -17.7632  -14.7714 C   0  0  0  0  0  0  0  0  0  0  0  0
   20.4960  -16.5719  -15.4655 C   0  0  0  0  0  0  0  0  0  0  0  0
   19.2903  -16.0620  -14.7149 C   0  0  0  0  0  0  0  0  0  0  0  0
   18.8308  -14.8305  -15.3582 N   0  0  0  0  0  0  0  0  0  0  0  0
   21.8311  -20.6672  -14.6112 C   0  0  0  0  0  0  0  0  0  0  0  0
   21.5286  -21.4668  -15.5308 O   0  0  0  0  0  0  0  0  0  0  0  0
   18.7378  -24.6975   -7.1403 N   0  0  0  0  0  0  0  0  0  0  0  0
   18.1560  -25.3590   -8.2647 C   0  0  0  0  0  0  0  0  0  0  0  0
   17.4005  -26.3760   -8.1075 N   0  0  0  0  0  0  0  0  0  0  0  0
   18.4135  -24.8882   -9.5869 N   0  0  0  0  0  0  0  0  0  0  0  0
   19.2955  -23.7667   -9.8095 C   0  0  0  0  0  0  0  0  0  0  0  0
   19.3486  -23.3960  -11.2724 C   0  0  0  0  0  0  0  0  0  0  0  0
   20.1893  -22.1960  -11.5444 C   0  0  0  0  0  0  0  0  0  0  0  0
   20.3024  -21.8838  -12.9951 C   0  0  2  0  0  0  0  0  0  0  0  0
   21.1901  -20.8465  -13.3579 N   0  0  0  0  0  0  0  0  0  0  0  0
   18.9522  -21.7487  -13.6278 C   0  0  0  0  0  0  0  0  0  0  0  0
   18.3614  -20.6550  -13.5567 O   0  0  0  0  0  0  0  0  0  0  0  0
   18.3508  -22.7996  -14.2834 O   0  0  0  0  0  0  0  0  0  0  0  0
  1  2  1  0
  3  2  1  0
  3  4  1  1
  5  3  1  0
  6  5  2  0
  7  5  1  0
  8  9  1  6
  8  7  1  0
 10  9  1  0
 11 10  1  0
 12 11  1  0
 13 12  1  0
 14  8  1  0
 15 14  2  0
 17 16  1  0
 17 19  1  0
 18 17  2  0
 20 19  1  0
 20 21  1  0
 21 22  1  0
 23 22  1  1
 23 24  1  0
 24 14  1  0
 25 23  1  0
 25 27  1  0
 26 25  2  0
M  END
$$$$
