YWW.pdb
     RDKit          3D

 41 45  0  0  1  0  0  0  0  0999 V2000
   29.6885  -16.2932  -18.4410 O   0  0  0  0  0  0  0  0  0  0  0  0
   28.9629  -16.9732  -17.4942 C   0  0  0  0  0  0  0  0  0  0  0  0
   27.7471  -16.4773  -17.0632 C   0  0  0  0  0  0  0  0  0  0  0  0
   27.0408  -17.1752  -16.1166 C   0  0  0  0  0  0  0  0  0  0  0  0
   27.5266  -18.3471  -15.6011 C   0  0  0  0  0  0  0  0  0  0  0  0
   26.7557  -19.0756  -14.5921 C   0  0  0  0  0  0  0  0  0  0  0  0
   27.5758  -20.3059  -14.1791 C   0  0  2  0  0  0  0  0  0  0  0  0
   27.3791  -21.3489  -15.1487 N   0  0  0  0  0  0  0  0  0  0  0  0
   27.0898  -20.7254  -12.8633 C   0  0  0  0  0  0  0  0  0  0  0  0
   26.0898  -21.5150  -12.8127 O   0  0  0  0  0  0  0  0  0  0  0  0
   28.7334  -18.8445  -16.0249 C   0  0  0  0  0  0  0  0  0  0  0  0
   29.4442  -18.1420  -16.9779 C   0  0  0  0  0  0  0  0  0  0  0  0
   27.6297  -20.3326  -11.6242 N   0  0  0  0  0  0  0  0  0  0  0  0
   27.0723  -20.8375  -10.3965 C   0  0  1  0  0  0  0  0  0  0  0  0
   27.8457  -20.5731   -9.1642 C   0  0  0  0  0  0  0  0  0  0  0  0
   27.1797  -20.8064   -7.8832 C   0  0  0  0  0  0  0  0  0  0  0  0
   26.0014  -21.4713   -7.6371 C   0  0  0  0  0  0  0  0  0  0  0  0
   25.8117  -21.4037   -6.3040 N   0  0  0  0  0  0  0  0  0  0  0  0
   26.8042  -20.7331   -5.6955 C   0  0  0  0  0  0  0  0  0  0  0  0
   27.0826  -20.3869   -4.3816 C   0  0  0  0  0  0  0  0  0  0  0  0
   28.2012  -19.6733   -4.0318 C   0  0  0  0  0  0  0  0  0  0  0  0
   29.0808  -19.2865   -5.0245 C   0  0  0  0  0  0  0  0  0  0  0  0
   28.8228  -19.6197   -6.3327 C   0  0  0  0  0  0  0  0  0  0  0  0
   27.6921  -20.3372   -6.6589 C   0  0  0  0  0  0  0  0  0  0  0  0
   25.7360  -20.1693  -10.2124 C   0  0  0  0  0  0  0  0  0  0  0  0
   25.7029  -18.9284  -10.0900 O   0  0  0  0  0  0  0  0  0  0  0  0
   24.5337  -20.8817  -10.1741 N   0  0  0  0  0  0  0  0  0  0  0  0
   23.2097  -20.2186  -10.1254 C   0  0  1  0  0  0  0  0  0  0  0  0
   23.1576  -19.4139  -11.3876 C   0  0  0  0  0  0  0  0  0  0  0  0
   22.2848  -19.9765  -12.4235 C   0  0  0  0  0  0  0  0  0  0  0  0
   20.8935  -20.0908  -12.3202 C   0  0  0  0  0  0  0  0  0  0  0  0
   20.4880  -20.6770  -13.4440 N   0  0  0  0  0  0  0  0  0  0  0  0
   21.5202  -20.9427  -14.2539 C   0  0  0  0  0  0  0  0  0  0  0  0
   21.6654  -21.5067  -15.5060 C   0  0  0  0  0  0  0  0  0  0  0  0
   22.8592  -21.6513  -16.1431 C   0  0  0  0  0  0  0  0  0  0  0  0
   24.0089  -21.2056  -15.4987 C   0  0  0  0  0  0  0  0  0  0  0  0
   23.9094  -20.6385  -14.2503 C   0  0  0  0  0  0  0  0  0  0  0  0
   22.6914  -20.5054  -13.6295 C   0  0  0  0  0  0  0  0  0  0  0  0
   22.1542  -21.2190  -10.0038 C   0  0  0  0  0  0  0  0  0  0  0  0
   20.9013  -20.9706   -9.4289 O   0  0  0  0  0  0  0  0  0  0  0  0
   22.3680  -22.4068  -10.4388 O   0  0  0  0  0  0  0  0  0  0  0  0
  2  1  1  0
  3  2  2  0
  4  3  1  0
  5  4  2  0
  5 11  1  0
  6  5  1  0
  7  6  1  0
  7  9  1  0
  7  8  1  6
  9 10  2  0
 11 12  2  0
 12  2  1  0
 13  9  1  0
 13 14  1  0
 14 25  1  0
 14 15  1  1
 16 15  1  0
 17 16  2  0
 18 17  1  0
 19 18  1  0
 19 24  2  0
 20 19  1  0
 21 20  2  0
 21 22  1  0
 22 23  2  0
 23 24  1  0
 24 16  1  0
 25 26  2  0
 27 25  1  0
 27 28  1  0
 28 29  1  6
 28 39  1  0
 30 29  1  0
 31 30  2  0
 32 31  1  0
 33 32  1  0
 33 38  2  0
 34 35  2  0
 34 33  1  0
 35 36  1  0
 36 37  2  0
 38 37  1  0
 38 30  1  0
 39 41  2  0
 39 40  1  0
M  END
$$$$
