YWW.pdb
     RDKit          3D

 41 45  0  0  1  0  0  0  0  0999 V2000
   29.7820  -16.2715  -18.1228 O   0  0  0  0  0  0  0  0  0  0  0  0
   29.0945  -16.9050  -17.1172 C   0  0  0  0  0  0  0  0  0  0  0  0
   27.8371  -17.4256  -17.3570 C   0  0  0  0  0  0  0  0  0  0  0  0
   27.1704  -18.0542  -16.3360 C   0  0  0  0  0  0  0  0  0  0  0  0
   27.7359  -18.1682  -15.0942 C   0  0  0  0  0  0  0  0  0  0  0  0
   27.0066  -18.8437  -14.0194 C   0  0  0  0  0  0  0  0  0  0  0  0
   27.7931  -20.1084  -13.6470 C   0  0  2  0  0  0  0  0  0  0  0  0
   27.8256  -20.9923  -14.7803 N   0  0  0  0  0  0  0  0  0  0  0  0
   27.0943  -20.7347  -12.5232 C   0  0  0  0  0  0  0  0  0  0  0  0
   26.1460  -21.5476  -12.7796 O   0  0  0  0  0  0  0  0  0  0  0  0
   28.9842  -17.6531  -14.8496 C   0  0  0  0  0  0  0  0  0  0  0  0
   29.6552  -17.0204  -15.8776 C   0  0  0  0  0  0  0  0  0  0  0  0
   27.3730  -20.5210  -11.1602 N   0  0  0  0  0  0  0  0  0  0  0  0
   26.7948  -21.3778  -10.1579 C   0  0  1  0  0  0  0  0  0  0  0  0
   27.4723  -21.4046   -8.8438 C   0  0  0  0  0  0  0  0  0  0  0  0
   27.3449  -20.2228   -7.9916 C   0  0  0  0  0  0  0  0  0  0  0  0
   26.7353  -19.0230   -8.2739 C   0  0  0  0  0  0  0  0  0  0  0  0
   26.8964  -18.2602   -7.1739 N   0  0  0  0  0  0  0  0  0  0  0  0
   27.5738  -18.9117   -6.2137 C   0  0  0  0  0  0  0  0  0  0  0  0
   27.9967  -18.5912   -4.9323 C   0  0  0  0  0  0  0  0  0  0  0  0
   28.6959  -19.4735   -4.1479 C   0  0  0  0  0  0  0  0  0  0  0  0
   28.9886  -20.7255   -4.6536 C   0  0  0  0  0  0  0  0  0  0  0  0
   28.5784  -21.0625   -5.9214 C   0  0  0  0  0  0  0  0  0  0  0  0
   27.8772  -20.1584   -6.6900 C   0  0  0  0  0  0  0  0  0  0  0  0
   25.3967  -20.8793   -9.9063 C   0  0  0  0  0  0  0  0  0  0  0  0
   25.1926  -19.6488   -9.9178 O   0  0  0  0  0  0  0  0  0  0  0  0
   24.3208  -21.7378   -9.6617 N   0  0  0  0  0  0  0  0  0  0  0  0
   22.9653  -21.2477   -9.3195 C   0  0  1  0  0  0  0  0  0  0  0  0
   22.0795  -21.8714  -10.3538 C   0  0  0  0  0  0  0  0  0  0  0  0
   20.6510  -21.5958  -10.1671 C   0  0  0  0  0  0  0  0  0  0  0  0
   19.9537  -20.5460  -10.7764 C   0  0  0  0  0  0  0  0  0  0  0  0
   18.7043  -20.6230  -10.3248 N   0  0  0  0  0  0  0  0  0  0  0  0
   18.5569  -21.6458   -9.4737 C   0  0  0  0  0  0  0  0  0  0  0  0
   17.5077  -22.1765   -8.7494 C   0  0  0  0  0  0  0  0  0  0  0  0
   17.6126  -23.2690   -7.9448 C   0  0  0  0  0  0  0  0  0  0  0  0
   18.8507  -23.8950   -7.8407 C   0  0  0  0  0  0  0  0  0  0  0  0
   19.9224  -23.3986   -8.5443 C   0  0  0  0  0  0  0  0  0  0  0  0
   19.7889  -22.2935   -9.3489 C   0  0  0  0  0  0  0  0  0  0  0  0
   22.6353  -21.6100   -7.9449 C   0  0  0  0  0  0  0  0  0  0  0  0
   21.7084  -20.9200   -7.1534 O   0  0  0  0  0  0  0  0  0  0  0  0
   23.2229  -22.6157   -7.4071 O   0  0  0  0  0  0  0  0  0  0  0  0
  2  1  1  0
  3  2  2  0
  4  3  1  0
  5  4  2  0
  5 11  1  0
  6  5  1  0
  7  6  1  0
  7  9  1  0
  7  8  1  6
  9 10  2  0
 11 12  2  0
 12  2  1  0
 13  9  1  0
 13 14  1  0
 14 25  1  0
 14 15  1  1
 16 15  1  0
 17 16  2  0
 18 17  1  0
 19 18  1  0
 19 24  2  0
 20 19  1  0
 21 20  2  0
 21 22  1  0
 22 23  2  0
 23 24  1  0
 24 16  1  0
 25 26  2  0
 27 25  1  0
 27 28  1  0
 28 29  1  6
 28 39  1  0
 30 29  1  0
 31 30  2  0
 32 31  1  0
 33 32  1  0
 33 38  2  0
 34 35  2  0
 34 33  1  0
 35 36  1  0
 36 37  2  0
 38 37  1  0
 38 30  1  0
 39 41  2  0
 39 40  1  0
M  END
$$$$
