YWW.pdb
     RDKit          3D

 41 45  0  0  1  0  0  0  0  0999 V2000
   31.3969  -21.2675  -19.1178 O   0  0  0  0  0  0  0  0  0  0  0  0
   30.5295  -20.8629  -18.1333 C   0  0  0  0  0  0  0  0  0  0  0  0
   30.2950  -21.6733  -17.0388 C   0  0  0  0  0  0  0  0  0  0  0  0
   29.4243  -21.2467  -16.0684 C   0  0  0  0  0  0  0  0  0  0  0  0
   28.7924  -20.0366  -16.1753 C   0  0  0  0  0  0  0  0  0  0  0  0
   27.8675  -19.6012  -15.1274 C   0  0  0  0  0  0  0  0  0  0  0  0
   26.7170  -20.6162  -15.0714 C   0  0  2  0  0  0  0  0  0  0  0  0
   25.9707  -20.5487  -16.2982 N   0  0  0  0  0  0  0  0  0  0  0  0
   25.8735  -20.2484  -13.9326 C   0  0  0  0  0  0  0  0  0  0  0  0
   25.3296  -19.0952  -13.9319 O   0  0  0  0  0  0  0  0  0  0  0  0
   29.0209  -19.2274  -17.2599 C   0  0  0  0  0  0  0  0  0  0  0  0
   29.8976  -19.6569  -18.2367 C   0  0  0  0  0  0  0  0  0  0  0  0
   25.6005  -21.0606  -12.8160 N   0  0  0  0  0  0  0  0  0  0  0  0
   24.6671  -20.6233  -11.8108 C   0  0  1  0  0  0  0  0  0  0  0  0
   23.2760  -21.1051  -11.9495 C   0  0  0  0  0  0  0  0  0  0  0  0
   22.4110  -20.4121  -12.9038 C   0  0  0  0  0  0  0  0  0  0  0  0
   21.6054  -19.3176  -12.6940 C   0  0  0  0  0  0  0  0  0  0  0  0
   21.0062  -19.0694  -13.8761 N   0  0  0  0  0  0  0  0  0  0  0  0
   21.3886  -19.9462  -14.8195 C   0  0  0  0  0  0  0  0  0  0  0  0
   21.0794  -20.1318  -16.1588 C   0  0  0  0  0  0  0  0  0  0  0  0
   21.6310  -21.1415  -16.9064 C   0  0  0  0  0  0  0  0  0  0  0  0
   22.5262  -22.0035  -16.3025 C   0  0  0  0  0  0  0  0  0  0  0  0
   22.8457  -21.8364  -14.9762 C   0  0  0  0  0  0  0  0  0  0  0  0
   22.2781  -20.8142  -14.2463 C   0  0  0  0  0  0  0  0  0  0  0  0
   25.1680  -21.1424  -10.4895 C   0  0  0  0  0  0  0  0  0  0  0  0
   25.5378  -22.3316  -10.4188 O   0  0  0  0  0  0  0  0  0  0  0  0
   25.2359  -20.3471   -9.3417 N   0  0  0  0  0  0  0  0  0  0  0  0
   25.6307  -20.8818   -8.0176 C   0  0  1  0  0  0  0  0  0  0  0  0
   25.8832  -19.6588   -7.1905 C   0  0  0  0  0  0  0  0  0  0  0  0
   27.3006  -19.3061   -7.0562 C   0  0  0  0  0  0  0  0  0  0  0  0
   28.0694  -18.6940   -8.0532 C   0  0  0  0  0  0  0  0  0  0  0  0
   29.2969  -18.5785   -7.5524 N   0  0  0  0  0  0  0  0  0  0  0  0
   29.3637  -19.0718   -6.3097 C   0  0  0  0  0  0  0  0  0  0  0  0
   30.3516  -19.1884   -5.3518 C   0  0  0  0  0  0  0  0  0  0  0  0
   30.1567  -19.7276   -4.1176 C   0  0  0  0  0  0  0  0  0  0  0  0
   28.8859  -20.1923   -3.7941 C   0  0  0  0  0  0  0  0  0  0  0  0
   27.8734  -20.0963   -4.7191 C   0  0  0  0  0  0  0  0  0  0  0  0
   28.0978  -19.5481   -5.9583 C   0  0  0  0  0  0  0  0  0  0  0  0
   24.5830  -21.7551   -7.4988 C   0  0  0  0  0  0  0  0  0  0  0  0
   24.8262  -22.8961   -6.7237 O   0  0  0  0  0  0  0  0  0  0  0  0
   23.3573  -21.4825   -7.7618 O   0  0  0  0  0  0  0  0  0  0  0  0
  2  1  1  0
  3  2  2  0
  4  3  1  0
  5  4  2  0
  5 11  1  0
  6  5  1  0
  7  6  1  0
  7  9  1  0
  7  8  1  6
  9 10  2  0
 11 12  2  0
 12  2  1  0
 13  9  1  0
 13 14  1  0
 14 25  1  0
 14 15  1  6
 16 15  1  0
 17 16  2  0
 18 17  1  0
 19 18  1  0
 19 24  2  0
 20 19  1  0
 21 20  2  0
 21 22  1  0
 22 23  2  0
 23 24  1  0
 24 16  1  0
 25 26  2  0
 27 25  1  0
 27 28  1  0
 28 29  1  1
 28 39  1  0
 30 29  1  0
 31 30  2  0
 32 31  1  0
 33 32  1  0
 33 38  2  0
 34 35  2  0
 34 33  1  0
 35 36  1  0
 36 37  2  0
 38 37  1  0
 38 30  1  0
 39 41  2  0
 39 40  1  0
M  END
$$$$
