YWW.pdb
     RDKit          3D

 41 45  0  0  1  0  0  0  0  0999 V2000
   29.1348  -15.4517  -18.0456 O   0  0  0  0  0  0  0  0  0  0  0  0
   28.4468  -16.3550  -17.2734 C   0  0  0  0  0  0  0  0  0  0  0  0
   27.9535  -17.5163  -17.8371 C   0  0  0  0  0  0  0  0  0  0  0  0
   27.2697  -18.4032  -17.0447 C   0  0  0  0  0  0  0  0  0  0  0  0
   27.0742  -18.1486  -15.7136 C   0  0  0  0  0  0  0  0  0  0  0  0
   26.3419  -19.1094  -14.8867 C   0  0  0  0  0  0  0  0  0  0  0  0
   27.3761  -19.9599  -14.1356 C   0  0  2  0  0  0  0  0  0  0  0  0
   27.9960  -20.8702  -15.0596 N   0  0  0  0  0  0  0  0  0  0  0  0
   26.6554  -20.6929  -13.0932 C   0  0  0  0  0  0  0  0  0  0  0  0
   25.9732  -21.7144  -13.4353 O   0  0  0  0  0  0  0  0  0  0  0  0
   27.5614  -16.9970  -15.1480 C   0  0  0  0  0  0  0  0  0  0  0  0
   28.2499  -16.1044  -15.9457 C   0  0  0  0  0  0  0  0  0  0  0  0
   26.6418  -20.3719  -11.7228 N   0  0  0  0  0  0  0  0  0  0  0  0
   25.7004  -21.0070  -10.8376 C   0  0  1  0  0  0  0  0  0  0  0  0
   25.9792  -20.8955   -9.3897 C   0  0  0  0  0  0  0  0  0  0  0  0
   27.3780  -20.9320   -8.9643 C   0  0  0  0  0  0  0  0  0  0  0  0
   28.4565  -21.4914   -9.6085 C   0  0  0  0  0  0  0  0  0  0  0  0
   29.5186  -21.2712   -8.8076 N   0  0  0  0  0  0  0  0  0  0  0  0
   29.1703  -20.6045   -7.6944 C   0  0  0  0  0  0  0  0  0  0  0  0
   29.8563  -20.1452   -6.5799 C   0  0  0  0  0  0  0  0  0  0  0  0
   29.2317  -19.4760   -5.5578 C   0  0  0  0  0  0  0  0  0  0  0  0
   27.8710  -19.2523   -5.6428 C   0  0  0  0  0  0  0  0  0  0  0  0
   27.1730  -19.6996   -6.7391 C   0  0  0  0  0  0  0  0  0  0  0  0
   27.8232  -20.3696   -7.7531 C   0  0  0  0  0  0  0  0  0  0  0  0
   24.3668  -20.3472  -11.0668 C   0  0  0  0  0  0  0  0  0  0  0  0
   24.3410  -19.2425  -11.6455 O   0  0  0  0  0  0  0  0  0  0  0  0
   23.1593  -20.9217  -10.6588 N   0  0  0  0  0  0  0  0  0  0  0  0
   21.8954  -20.7526  -11.4130 C   0  0  1  0  0  0  0  0  0  0  0  0
   22.2158  -21.2674  -12.7826 C   0  0  0  0  0  0  0  0  0  0  0  0
   21.1101  -21.1567  -13.7401 C   0  0  0  0  0  0  0  0  0  0  0  0
   20.2163  -20.0814  -13.8073 C   0  0  0  0  0  0  0  0  0  0  0  0
   19.3540  -20.3797  -14.7761 N   0  0  0  0  0  0  0  0  0  0  0  0
   19.6355  -21.5656  -15.3297 C   0  0  0  0  0  0  0  0  0  0  0  0
   19.0966  -22.3255  -16.3490 C   0  0  0  0  0  0  0  0  0  0  0  0
   19.5936  -23.5279  -16.7480 C   0  0  0  0  0  0  0  0  0  0  0  0
   20.7140  -24.0286  -16.0926 C   0  0  0  0  0  0  0  0  0  0  0  0
   21.2817  -23.3045  -15.0712 C   0  0  0  0  0  0  0  0  0  0  0  0
   20.7591  -22.0935  -14.6881 C   0  0  0  0  0  0  0  0  0  0  0  0
   20.8130  -21.4628  -10.7395 C   0  0  0  0  0  0  0  0  0  0  0  0
   19.4961  -20.9921  -10.6612 O   0  0  0  0  0  0  0  0  0  0  0  0
   21.0624  -22.5865  -10.1729 O   0  0  0  0  0  0  0  0  0  0  0  0
  2  1  1  0
  3  2  2  0
  4  3  1  0
  5  4  2  0
  5 11  1  0
  6  5  1  0
  7  6  1  0
  7  9  1  0
  7  8  1  6
  9 10  2  0
 11 12  2  0
 12  2  1  0
 13  9  1  0
 13 14  1  0
 14 25  1  0
 14 15  1  1
 16 15  1  0
 17 16  2  0
 18 17  1  0
 19 18  1  0
 19 24  2  0
 20 19  1  0
 21 20  2  0
 21 22  1  0
 22 23  2  0
 23 24  1  0
 24 16  1  0
 25 26  2  0
 27 25  1  0
 27 28  1  0
 28 29  1  6
 28 39  1  0
 30 29  1  0
 31 30  2  0
 32 31  1  0
 33 32  1  0
 33 38  2  0
 34 35  2  0
 34 33  1  0
 35 36  1  0
 36 37  2  0
 38 37  1  0
 38 30  1  0
 39 41  2  0
 39 40  1  0
M  END
$$$$
