YWW.pdb
     RDKit          3D

 41 45  0  0  1  0  0  0  0  0999 V2000
   30.4336  -27.7270  -19.0603 O   0  0  0  0  0  0  0  0  0  0  0  0
   30.3015  -26.5998  -18.2874 C   0  0  0  0  0  0  0  0  0  0  0  0
   31.2499  -25.5969  -18.3549 C   0  0  0  0  0  0  0  0  0  0  0  0
   31.0955  -24.4804  -17.5729 C   0  0  0  0  0  0  0  0  0  0  0  0
   30.0199  -24.3538  -16.7349 C   0  0  0  0  0  0  0  0  0  0  0  0
   29.8749  -23.1532  -15.9098 C   0  0  0  0  0  0  0  0  0  0  0  0
   28.6746  -22.3615  -16.4476 C   0  0  2  0  0  0  0  0  0  0  0  0
   29.0797  -21.6309  -17.6175 N   0  0  0  0  0  0  0  0  0  0  0  0
   28.2530  -21.4451  -15.3865 C   0  0  0  0  0  0  0  0  0  0  0  0
   28.9004  -20.3569  -15.2362 O   0  0  0  0  0  0  0  0  0  0  0  0
   29.0749  -25.3464  -16.6632 C   0  0  0  0  0  0  0  0  0  0  0  0
   29.2304  -26.4703  -17.4506 C   0  0  0  0  0  0  0  0  0  0  0  0
   27.1815  -21.6539  -14.4980 N   0  0  0  0  0  0  0  0  0  0  0  0
   26.8464  -20.6548  -13.5169 C   0  0  1  0  0  0  0  0  0  0  0  0
   25.7067  -19.7701  -13.8406 C   0  0  0  0  0  0  0  0  0  0  0  0
   26.0004  -18.5063  -14.5157 C   0  0  0  0  0  0  0  0  0  0  0  0
   26.8119  -17.4781  -14.0971 C   0  0  0  0  0  0  0  0  0  0  0  0
   26.7424  -16.5382  -15.0612 N   0  0  0  0  0  0  0  0  0  0  0  0
   25.9324  -16.9159  -16.0643 C   0  0  0  0  0  0  0  0  0  0  0  0
   25.5246  -16.3371  -17.2570 C   0  0  0  0  0  0  0  0  0  0  0  0
   24.6605  -16.9636  -18.1192 C   0  0  0  0  0  0  0  0  0  0  0  0
   24.1801  -18.2156  -17.7866 C   0  0  0  0  0  0  0  0  0  0  0  0
   24.5721  -18.8063  -16.6091 C   0  0  0  0  0  0  0  0  0  0  0  0
   25.4413  -18.1565  -15.7593 C   0  0  0  0  0  0  0  0  0  0  0  0
   26.4736  -21.3854  -12.2545 C   0  0  0  0  0  0  0  0  0  0  0  0
   25.9939  -22.5328  -12.3505 O   0  0  0  0  0  0  0  0  0  0  0  0
   26.6439  -20.8312  -10.9824 N   0  0  0  0  0  0  0  0  0  0  0  0
   26.2533  -21.5385   -9.7406 C   0  0  1  0  0  0  0  0  0  0  0  0
   27.4174  -21.3318   -8.8210 C   0  0  0  0  0  0  0  0  0  0  0  0
   27.2749  -20.1835   -7.9196 C   0  0  0  0  0  0  0  0  0  0  0  0
   26.4543  -19.0754   -8.1613 C   0  0  0  0  0  0  0  0  0  0  0  0
   26.6343  -18.2525   -7.1310 N   0  0  0  0  0  0  0  0  0  0  0  0
   27.5087  -18.7576   -6.2521 C   0  0  0  0  0  0  0  0  0  0  0  0
   28.0309  -18.3478   -5.0412 C   0  0  0  0  0  0  0  0  0  0  0  0
   28.9188  -19.0740   -4.3090 C   0  0  0  0  0  0  0  0  0  0  0  0
   29.3305  -20.3068   -4.8054 C   0  0  0  0  0  0  0  0  0  0  0  0
   28.8359  -20.7526   -6.0081 C   0  0  0  0  0  0  0  0  0  0  0  0
   27.9408  -19.9987   -6.7272 C   0  0  0  0  0  0  0  0  0  0  0  0
   24.9885  -21.0091   -9.2409 C   0  0  0  0  0  0  0  0  0  0  0  0
   24.3522  -19.8759   -9.7630 O   0  0  0  0  0  0  0  0  0  0  0  0
   24.4097  -21.5995   -8.2598 O   0  0  0  0  0  0  0  0  0  0  0  0
  2  1  1  0
  3  2  2  0
  4  3  1  0
  5  4  2  0
  5 11  1  0
  6  5  1  0
  7  6  1  0
  7  9  1  0
  7  8  1  6
  9 10  2  0
 11 12  2  0
 12  2  1  0
 13  9  1  0
 13 14  1  0
 14 25  1  0
 14 15  1  6
 16 15  1  0
 17 16  2  0
 18 17  1  0
 19 18  1  0
 19 24  2  0
 20 19  1  0
 21 20  2  0
 21 22  1  0
 22 23  2  0
 23 24  1  0
 24 16  1  0
 25 26  2  0
 27 25  1  0
 27 28  1  0
 28 29  1  1
 28 39  1  0
 30 29  1  0
 31 30  2  0
 32 31  1  0
 33 32  1  0
 33 38  2  0
 34 35  2  0
 34 33  1  0
 35 36  1  0
 36 37  2  0
 38 37  1  0
 38 30  1  0
 39 41  2  0
 39 40  1  0
M  END
$$$$
