YWW.pdb
     RDKit          3D

 41 45  0  0  1  0  0  0  0  0999 V2000
   16.5982  -23.9919  -16.8923 O   0  0  0  0  0  0  0  0  0  0  0  0
   17.4367  -23.1206  -16.2418 C   0  0  0  0  0  0  0  0  0  0  0  0
   16.9158  -22.1365  -15.4232 C   0  0  0  0  0  0  0  0  0  0  0  0
   17.7742  -21.2782  -14.7841 C   0  0  0  0  0  0  0  0  0  0  0  0
   19.1290  -21.3883  -14.9497 C   0  0  0  0  0  0  0  0  0  0  0  0
   20.0265  -20.4618  -14.2574 C   0  0  0  0  0  0  0  0  0  0  0  0
   20.6286  -21.2067  -13.0576 C   0  0  2  0  0  0  0  0  0  0  0  0
   19.8103  -20.9710  -11.8993 N   0  0  0  0  0  0  0  0  0  0  0  0
   21.9776  -20.6756  -12.8539 C   0  0  0  0  0  0  0  0  0  0  0  0
   22.1393  -19.7550  -11.9866 O   0  0  0  0  0  0  0  0  0  0  0  0
   19.6524  -22.3632  -15.7614 C   0  0  0  0  0  0  0  0  0  0  0  0
   18.7881  -23.2273  -16.4047 C   0  0  0  0  0  0  0  0  0  0  0  0
   23.1360  -21.0906  -13.5373 N   0  0  0  0  0  0  0  0  0  0  0  0
   24.4286  -20.5932  -13.1438 C   0  0  1  0  0  0  0  0  0  0  0  0
   25.3353  -21.5606  -12.4891 C   0  0  0  0  0  0  0  0  0  0  0  0
   25.8589  -21.2118  -11.1688 C   0  0  0  0  0  0  0  0  0  0  0  0
   25.1714  -20.7736  -10.0613 C   0  0  0  0  0  0  0  0  0  0  0  0
   26.1008  -20.5798   -9.1039 N   0  0  0  0  0  0  0  0  0  0  0  0
   27.3358  -20.8708   -9.5456 C   0  0  0  0  0  0  0  0  0  0  0  0
   28.6032  -20.8409   -8.9829 C   0  0  0  0  0  0  0  0  0  0  0  0
   29.7265  -21.1988   -9.6849 C   0  0  0  0  0  0  0  0  0  0  0  0
   29.5891  -21.6033  -10.9988 C   0  0  0  0  0  0  0  0  0  0  0  0
   28.3417  -21.6397  -11.5747 C   0  0  0  0  0  0  0  0  0  0  0  0
   27.2282  -21.2752  -10.8487 C   0  0  0  0  0  0  0  0  0  0  0  0
   25.1254  -20.1379  -14.3982 C   0  0  0  0  0  0  0  0  0  0  0  0
   25.0764  -20.8714  -15.4059 O   0  0  0  0  0  0  0  0  0  0  0  0
   25.8226  -18.9288  -14.4791 N   0  0  0  0  0  0  0  0  0  0  0  0
   26.5142  -18.4826  -15.7109 C   0  0  1  0  0  0  0  0  0  0  0  0
   27.1530  -17.1850  -15.3214 C   0  0  0  0  0  0  0  0  0  0  0  0
   27.9308  -16.5526  -16.3922 C   0  0  0  0  0  0  0  0  0  0  0  0
   27.3944  -15.7318  -17.3913 C   0  0  0  0  0  0  0  0  0  0  0  0
   28.4141  -15.3936  -18.1766 N   0  0  0  0  0  0  0  0  0  0  0  0
   29.5593  -15.9391  -17.7487 C   0  0  0  0  0  0  0  0  0  0  0  0
   30.8766  -15.9064  -18.1619 C   0  0  0  0  0  0  0  0  0  0  0  0
   31.8916  -16.5508  -17.5245 C   0  0  0  0  0  0  0  0  0  0  0  0
   31.5907  -17.2906  -16.3853 C   0  0  0  0  0  0  0  0  0  0  0  0
   30.2915  -17.3507  -15.9399 C   0  0  0  0  0  0  0  0  0  0  0  0
   29.2858  -16.6909  -16.6029 C   0  0  0  0  0  0  0  0  0  0  0  0
   27.4530  -19.5074  -16.1559 C   0  0  0  0  0  0  0  0  0  0  0  0
   27.6945  -19.8186  -17.5001 O   0  0  0  0  0  0  0  0  0  0  0  0
   28.1034  -20.1804  -15.2785 O   0  0  0  0  0  0  0  0  0  0  0  0
  2  1  1  0
  3  2  2  0
  4  3  1  0
  5  4  2  0
  5 11  1  0
  6  5  1  0
  7  6  1  0
  7  9  1  0
  7  8  1  1
  9 10  2  0
 11 12  2  0
 12  2  1  0
 13  9  1  0
 13 14  1  0
 14 25  1  0
 14 15  1  6
 16 15  1  0
 17 16  2  0
 18 17  1  0
 19 18  1  0
 19 24  2  0
 20 19  1  0
 21 20  2  0
 21 22  1  0
 22 23  2  0
 23 24  1  0
 24 16  1  0
 25 26  2  0
 27 25  1  0
 27 28  1  0
 28 29  1  1
 28 39  1  0
 30 29  1  0
 31 30  2  0
 32 31  1  0
 33 32  1  0
 33 38  2  0
 34 35  2  0
 34 33  1  0
 35 36  1  0
 36 37  2  0
 38 37  1  0
 38 30  1  0
 39 41  2  0
 39 40  1  0
M  END
$$$$
