YWW.pdb
     RDKit          3D

 41 45  0  0  1  0  0  0  0  0999 V2000
   31.2533  -16.3408  -19.1421 O   0  0  0  0  0  0  0  0  0  0  0  0
   30.3915  -16.5649  -18.0969 C   0  0  0  0  0  0  0  0  0  0  0  0
   30.4701  -17.7388  -17.3719 C   0  0  0  0  0  0  0  0  0  0  0  0
   29.5980  -17.9391  -16.3320 C   0  0  0  0  0  0  0  0  0  0  0  0
   28.6601  -16.9945  -16.0107 C   0  0  0  0  0  0  0  0  0  0  0  0
   27.7399  -17.2292  -14.8965 C   0  0  0  0  0  0  0  0  0  0  0  0
   26.9772  -18.5290  -15.1892 C   0  0  2  0  0  0  0  0  0  0  0  0
   26.1050  -18.3192  -16.3125 N   0  0  0  0  0  0  0  0  0  0  0  0
   26.2046  -18.8543  -13.9889 C   0  0  0  0  0  0  0  0  0  0  0  0
   25.4093  -17.9720  -13.5254 O   0  0  0  0  0  0  0  0  0  0  0  0
   28.5769  -15.8269  -16.7270 C   0  0  0  0  0  0  0  0  0  0  0  0
   29.4550  -15.6252  -17.7737 C   0  0  0  0  0  0  0  0  0  0  0  0
   26.2568  -20.0707  -13.2826 N   0  0  0  0  0  0  0  0  0  0  0  0
   25.3818  -20.2978  -12.1620 C   0  0  1  0  0  0  0  0  0  0  0  0
   24.1813  -21.1217  -12.4201 C   0  0  0  0  0  0  0  0  0  0  0  0
   23.0378  -20.4713  -13.0592 C   0  0  0  0  0  0  0  0  0  0  0  0
   22.7767  -20.3189  -14.4007 C   0  0  0  0  0  0  0  0  0  0  0  0
   21.6113  -19.6448  -14.4747 N   0  0  0  0  0  0  0  0  0  0  0  0
   21.1231  -19.3632  -13.2551 C   0  0  0  0  0  0  0  0  0  0  0  0
   19.9948  -18.7073  -12.7858 C   0  0  0  0  0  0  0  0  0  0  0  0
   19.7375  -18.5562  -11.4464 C   0  0  0  0  0  0  0  0  0  0  0  0
   20.6349  -19.0765  -10.5339 C   0  0  0  0  0  0  0  0  0  0  0  0
   21.7592  -19.7300  -10.9788 C   0  0  0  0  0  0  0  0  0  0  0  0
   21.9956  -19.8688  -12.3296 C   0  0  0  0  0  0  0  0  0  0  0  0
   26.1838  -21.0287  -11.1185 C   0  0  0  0  0  0  0  0  0  0  0  0
   27.0699  -21.8213  -11.4961 O   0  0  0  0  0  0  0  0  0  0  0  0
   25.9765  -20.8547   -9.7469 N   0  0  0  0  0  0  0  0  0  0  0  0
   26.4878  -21.8046   -8.7315 C   0  0  1  0  0  0  0  0  0  0  0  0
   27.7918  -21.2087   -8.2979 C   0  0  0  0  0  0  0  0  0  0  0  0
   27.6581  -20.0807   -7.3699 C   0  0  0  0  0  0  0  0  0  0  0  0
   26.8678  -18.9480   -7.5981 C   0  0  0  0  0  0  0  0  0  0  0  0
   27.0466  -18.1561   -6.5436 N   0  0  0  0  0  0  0  0  0  0  0  0
   27.8921  -18.7036   -5.6619 C   0  0  0  0  0  0  0  0  0  0  0  0
   28.4000  -18.3370   -4.4312 C   0  0  0  0  0  0  0  0  0  0  0  0
   29.2569  -19.1021   -3.7016 C   0  0  0  0  0  0  0  0  0  0  0  0
   29.6498  -20.3311   -4.2219 C   0  0  0  0  0  0  0  0  0  0  0  0
   29.1685  -20.7345   -5.4449 C   0  0  0  0  0  0  0  0  0  0  0  0
   28.3049  -19.9419   -6.1608 C   0  0  0  0  0  0  0  0  0  0  0  0
   25.5109  -21.9633   -7.6592 C   0  0  0  0  0  0  0  0  0  0  0  0
   24.2704  -21.3138   -7.6266 O   0  0  0  0  0  0  0  0  0  0  0  0
   25.7874  -22.7362   -6.6732 O   0  0  0  0  0  0  0  0  0  0  0  0
  2  1  1  0
  3  2  2  0
  4  3  1  0
  5  4  2  0
  5 11  1  0
  6  5  1  0
  7  6  1  0
  7  9  1  0
  7  8  1  6
  9 10  2  0
 11 12  2  0
 12  2  1  0
 13  9  1  0
 13 14  1  0
 14 25  1  0
 14 15  1  6
 16 15  1  0
 17 16  2  0
 18 17  1  0
 19 18  1  0
 19 24  2  0
 20 19  1  0
 21 20  2  0
 21 22  1  0
 22 23  2  0
 23 24  1  0
 24 16  1  0
 25 26  2  0
 27 25  1  0
 27 28  1  0
 28 29  1  1
 28 39  1  0
 30 29  1  0
 31 30  2  0
 32 31  1  0
 33 32  1  0
 33 38  2  0
 34 35  2  0
 34 33  1  0
 35 36  1  0
 36 37  2  0
 38 37  1  0
 38 30  1  0
 39 41  2  0
 39 40  1  0
M  END
$$$$
