AEM.pdb
     RDKit          3D

 23 22  0  0  1  0  0  0  0  0999 V2000
   29.0276  -20.1869  -14.4096 C   0  0  0  0  0  0  0  0  0  0  0  0
   27.5917  -19.8953  -14.7575 C   0  0  2  0  0  0  0  0  0  0  0  0
   27.5066  -18.7325  -15.6196 N   0  0  0  0  0  0  0  0  0  0  0  0
   26.7568  -19.6402  -13.5575 C   0  0  0  0  0  0  0  0  0  0  0  0
   26.6770  -18.4779  -13.0659 O   0  0  0  0  0  0  0  0  0  0  0  0
   26.0161  -20.6526  -12.9037 N   0  0  0  0  0  0  0  0  0  0  0  0
   25.1014  -20.3195  -11.7807 C   0  0  1  0  0  0  0  0  0  0  0  0
   23.7663  -20.8127  -12.2168 C   0  0  0  0  0  0  0  0  0  0  0  0
   23.0881  -20.0347  -13.2826 C   0  0  0  0  0  0  0  0  0  0  0  0
   21.6925  -20.5389  -13.5305 C   0  0  0  0  0  0  0  0  0  0  0  0
   20.9526  -19.8397  -14.2490 O   0  0  0  0  0  0  0  0  0  0  0  0
   25.6297  -20.9124  -10.5391 C   0  0  0  0  0  0  0  0  0  0  0  0
   26.0199  -22.1337  -10.5008 O   0  0  0  0  0  0  0  0  0  0  0  0
   21.2195  -21.7162  -13.0034 O   0  0  0  0  0  0  0  0  0  0  0  0
   29.8104  -19.0574   -5.7189 C   0  0  0  0  0  0  0  0  0  0  0  0
   28.2408  -19.1901   -4.9140 S   0  0  0  0  0  0  0  0  0  0  0  0
   27.0645  -20.2156   -5.8098 C   0  0  0  0  0  0  0  0  0  0  0  0
   26.8256  -19.8291   -7.2155 C   0  0  0  0  0  0  0  0  0  0  0  0
   25.9722  -20.7094   -8.0277 C   0  0  2  0  0  0  0  0  0  0  0  0
   25.7280  -20.1510   -9.3441 N   0  0  0  0  0  0  0  0  0  0  0  0
   24.7241  -21.1605   -7.3860 C   0  0  0  0  0  0  0  0  0  0  0  0
   24.7667  -22.0979   -6.3737 O   0  0  0  0  0  0  0  0  0  0  0  0
   23.5901  -20.7344   -7.7071 O   0  0  0  0  0  0  0  0  0  0  0  0
  2  3  1  0
  2  1  1  1
  2  4  1  0
  4  5  2  0
  6  4  1  0
  6  7  1  0
  7 12  1  0
  8  9  1  0
  7  8  1  6
  9 10  1  0
 10 11  2  0
 10 14  1  0
 12 20  1  0
 12 13  2  0
 16 15  1  0
 17 16  1  0
 19 18  1  1
 18 17  1  0
 19 21  1  0
 20 19  1  0
 21 22  1  0
 23 21  2  0
M  END
$$$$
