AEM.pdb
     RDKit          3D

 23 22  0  0  1  0  0  0  0  0999 V2000
   16.8558   -7.3965  -19.7979 C   0  0  0  0  0  0  0  0  0  0  0  0
   18.1071   -7.9223  -19.1455 C   0  0  2  0  0  0  0  0  0  0  0  0
   17.8787   -9.2510  -18.6117 N   0  0  0  0  0  0  0  0  0  0  0  0
   18.5771   -7.0555  -18.0365 C   0  0  0  0  0  0  0  0  0  0  0  0
   17.7663   -6.6363  -17.1613 O   0  0  0  0  0  0  0  0  0  0  0  0
   19.9252   -6.6530  -17.8902 N   0  0  0  0  0  0  0  0  0  0  0  0
   20.3496   -5.8268  -16.7300 C   0  0  1  0  0  0  0  0  0  0  0  0
   21.4324   -6.6126  -16.0775 C   0  0  0  0  0  0  0  0  0  0  0  0
   21.0076   -7.7808  -15.2676 C   0  0  0  0  0  0  0  0  0  0  0  0
   22.1906   -8.5502  -14.7461 C   0  0  0  0  0  0  0  0  0  0  0  0
   22.9690   -9.0389  -15.5874 O   0  0  0  0  0  0  0  0  0  0  0  0
   20.7301   -4.4859  -17.2092 C   0  0  0  0  0  0  0  0  0  0  0  0
   21.2260   -4.3157  -18.3798 O   0  0  0  0  0  0  0  0  0  0  0  0
   22.4341   -8.7267  -13.4056 O   0  0  0  0  0  0  0  0  0  0  0  0
   19.7948    1.7279  -20.7321 C   0  0  0  0  0  0  0  0  0  0  0  0
   19.5472    0.0713  -20.1633 S   0  0  0  0  0  0  0  0  0  0  0  0
   20.3125   -0.2568  -18.5682 C   0  0  0  0  0  0  0  0  0  0  0  0
   20.2083   -1.6499  -18.0877 C   0  0  0  0  0  0  0  0  0  0  0  0
   20.8530   -1.9782  -16.8072 C   0  0  2  0  0  0  0  0  0  0  0  0
   20.5575   -3.3366  -16.3928 N   0  0  0  0  0  0  0  0  0  0  0  0
   20.6329   -1.0139  -15.7142 C   0  0  0  0  0  0  0  0  0  0  0  0
   19.9190   -1.3895  -14.5941 O   0  0  0  0  0  0  0  0  0  0  0  0
   21.0663    0.1618  -15.7336 O   0  0  0  0  0  0  0  0  0  0  0  0
  2  3  1  0
  2  1  1  1
  2  4  1  0
  4  5  2  0
  6  4  1  0
  6  7  1  0
  7 12  1  0
  8  9  1  0
  7  8  1  6
  9 10  1  0
 10 11  2  0
 10 14  1  0
 12 20  1  0
 12 13  2  0
 16 15  1  0
 17 16  1  0
 19 18  1  6
 18 17  1  0
 19 21  1  0
 20 19  1  0
 21 22  1  0
 23 21  2  0
M  END
$$$$
