AEM.pdb
     RDKit          3D

 23 22  0  0  1  0  0  0  0  0999 V2000
   13.9649  -10.8787  -14.4317 C   0  0  0  0  0  0  0  0  0  0  0  0
   15.4411  -11.1456  -14.5633 C   0  0  2  0  0  0  0  0  0  0  0  0
   15.7001  -12.5723  -14.5474 N   0  0  0  0  0  0  0  0  0  0  0  0
   16.2308  -10.5226  -13.4722 C   0  0  0  0  0  0  0  0  0  0  0  0
   16.1847  -10.9905  -12.2983 O   0  0  0  0  0  0  0  0  0  0  0  0
   17.0635   -9.3961  -13.6689 N   0  0  0  0  0  0  0  0  0  0  0  0
   17.7041   -8.7142  -12.5142 C   0  0  1  0  0  0  0  0  0  0  0  0
   18.8669   -7.9895  -13.0959 C   0  0  0  0  0  0  0  0  0  0  0  0
   19.9957   -8.8243  -13.5754 C   0  0  0  0  0  0  0  0  0  0  0  0
   21.1204   -7.9784  -14.1075 C   0  0  0  0  0  0  0  0  0  0  0  0
   21.8126   -7.3610  -13.2756 O   0  0  0  0  0  0  0  0  0  0  0  0
   16.7004   -7.8755  -11.8349 C   0  0  0  0  0  0  0  0  0  0  0  0
   15.7840   -7.2699  -12.4972 O   0  0  0  0  0  0  0  0  0  0  0  0
   21.4017   -7.8679  -15.4477 O   0  0  0  0  0  0  0  0  0  0  0  0
   11.2681   -7.3953   -6.5059 C   0  0  0  0  0  0  0  0  0  0  0  0
   12.4548   -8.2340   -7.5145 S   0  0  0  0  0  0  0  0  0  0  0  0
   13.7111   -7.1408   -8.1961 C   0  0  0  0  0  0  0  0  0  0  0  0
   14.7354   -7.7951   -9.0358 C   0  0  0  0  0  0  0  0  0  0  0  0
   15.7420   -6.9347   -9.6757 C   0  0  2  0  0  0  0  0  0  0  0  0
   16.7117   -7.7120  -10.4240 N   0  0  0  0  0  0  0  0  0  0  0  0
   16.3949   -5.9495   -8.7947 C   0  0  0  0  0  0  0  0  0  0  0  0
   15.6740   -4.8835   -8.2956 O   0  0  0  0  0  0  0  0  0  0  0  0
   17.5995   -6.0186   -8.4559 O   0  0  0  0  0  0  0  0  0  0  0  0
  2  3  1  0
  2  1  1  1
  2  4  1  0
  4  5  2  0
  6  4  1  0
  6  7  1  0
  7 12  1  0
  8  9  1  0
  7  8  1  6
  9 10  1  0
 10 11  2  0
 10 14  1  0
 12 20  1  0
 12 13  2  0
 16 15  1  0
 17 16  1  0
 19 18  1  1
 18 17  1  0
 19 21  1  0
 20 19  1  0
 21 22  1  0
 23 21  2  0
M  END
$$$$
