AEM.pdb
     RDKit          3D

 23 22  0  0  1  0  0  0  0  0999 V2000
   12.3227  -11.1260  -12.1040 C   0  0  0  0  0  0  0  0  0  0  0  0
   13.7087  -11.7065  -12.2025 C   0  0  2  0  0  0  0  0  0  0  0  0
   13.7823  -12.9639  -11.4841 N   0  0  0  0  0  0  0  0  0  0  0  0
   14.7453  -10.7997  -11.6499 C   0  0  0  0  0  0  0  0  0  0  0  0
   14.9387  -10.7303  -10.4021 O   0  0  0  0  0  0  0  0  0  0  0  0
   15.5619   -9.9768  -12.4604 N   0  0  0  0  0  0  0  0  0  0  0  0
   16.5577   -9.0579  -11.8498 C   0  0  1  0  0  0  0  0  0  0  0  0
   17.5647   -8.8206  -12.9200 C   0  0  0  0  0  0  0  0  0  0  0  0
   18.5609   -9.8970  -13.1431 C   0  0  0  0  0  0  0  0  0  0  0  0
   19.5020   -9.5539  -14.2657 C   0  0  0  0  0  0  0  0  0  0  0  0
   20.6112   -9.0788  -13.9552 O   0  0  0  0  0  0  0  0  0  0  0  0
   15.8610   -7.8600  -11.3480 C   0  0  0  0  0  0  0  0  0  0  0  0
   14.8344   -7.3868  -11.9542 O   0  0  0  0  0  0  0  0  0  0  0  0
   19.1854   -9.7430  -15.5892 O   0  0  0  0  0  0  0  0  0  0  0  0
   12.7579   -4.0994   -5.3813 C   0  0  0  0  0  0  0  0  0  0  0  0
   13.5518   -5.4963   -6.1210 S   0  0  0  0  0  0  0  0  0  0  0  0
   14.3782   -5.1086   -7.6716 C   0  0  0  0  0  0  0  0  0  0  0  0
   15.0227   -6.2509   -8.3515 C   0  0  0  0  0  0  0  0  0  0  0  0
   15.6935   -5.9893   -9.6339 C   0  0  2  0  0  0  0  0  0  0  0  0
   16.3002   -7.1910  -10.1746 N   0  0  0  0  0  0  0  0  0  0  0  0
   16.6311   -4.8519   -9.6453 C   0  0  0  0  0  0  0  0  0  0  0  0
   16.1524   -3.5603   -9.5555 O   0  0  0  0  0  0  0  0  0  0  0  0
   17.8744   -4.9834   -9.7317 O   0  0  0  0  0  0  0  0  0  0  0  0
  2  3  1  0
  2  1  1  1
  2  4  1  0
  4  5  2  0
  6  4  1  0
  6  7  1  0
  7 12  1  0
  8  9  1  0
  7  8  1  6
  9 10  1  0
 10 11  2  0
 10 14  1  0
 12 20  1  0
 12 13  2  0
 16 15  1  0
 17 16  1  0
 19 18  1  1
 18 17  1  0
 19 21  1  0
 20 19  1  0
 21 22  1  0
 23 21  2  0
M  END
$$$$
