AEM.pdb
     RDKit          3D

 23 22  0  0  1  0  0  0  0  0999 V2000
   17.9893  -11.1896  -16.2745 C   0  0  0  0  0  0  0  0  0  0  0  0
   18.1819   -9.9237  -17.0670 C   0  0  2  0  0  0  0  0  0  0  0  0
   19.4127   -9.9879  -17.8309 N   0  0  0  0  0  0  0  0  0  0  0  0
   18.2376   -8.7167  -16.2055 C   0  0  0  0  0  0  0  0  0  0  0  0
   17.2598   -8.4111  -15.4642 O   0  0  0  0  0  0  0  0  0  0  0  0
   19.3572   -7.8534  -16.1588 N   0  0  0  0  0  0  0  0  0  0  0  0
   19.3243   -6.6103  -15.3449 C   0  0  1  0  0  0  0  0  0  0  0  0
   20.7106   -6.4578  -14.8247 C   0  0  0  0  0  0  0  0  0  0  0  0
   20.9991   -5.2195  -14.0602 C   0  0  0  0  0  0  0  0  0  0  0  0
   22.4098   -5.2100  -13.5373 C   0  0  0  0  0  0  0  0  0  0  0  0
   22.5823   -4.8135  -12.3688 O   0  0  0  0  0  0  0  0  0  0  0  0
   18.8277   -5.5024  -16.1806 C   0  0  0  0  0  0  0  0  0  0  0  0
   18.7469   -5.6176  -17.4555 O   0  0  0  0  0  0  0  0  0  0  0  0
   23.4869   -5.6144  -14.2882 O   0  0  0  0  0  0  0  0  0  0  0  0
   13.8304   -1.9053  -19.8938 C   0  0  0  0  0  0  0  0  0  0  0  0
   14.6760   -3.1897  -19.0197 S   0  0  0  0  0  0  0  0  0  0  0  0
   15.9662   -2.5773  -17.9251 C   0  0  0  0  0  0  0  0  0  0  0  0
   16.7427   -3.6145  -17.2151 C   0  0  0  0  0  0  0  0  0  0  0  0
   17.8370   -3.1661  -16.3408 C   0  0  2  0  0  0  0  0  0  0  0  0
   18.4183   -4.2713  -15.6025 N   0  0  0  0  0  0  0  0  0  0  0  0
   17.5262   -2.0251  -15.4606 C   0  0  0  0  0  0  0  0  0  0  0  0
   17.2976   -2.2320  -14.1151 O   0  0  0  0  0  0  0  0  0  0  0  0
   17.4555   -0.8410  -15.8650 O   0  0  0  0  0  0  0  0  0  0  0  0
  2  3  1  0
  2  1  1  1
  2  4  1  0
  4  5  2  0
  6  4  1  0
  6  7  1  0
  7 12  1  0
  8  9  1  0
  7  8  1  6
  9 10  1  0
 10 11  2  0
 10 14  1  0
 12 20  1  0
 12 13  2  0
 16 15  1  0
 17 16  1  0
 19 18  1  1
 18 17  1  0
 19 21  1  0
 20 19  1  0
 21 22  1  0
 23 21  2  0
M  END
$$$$
