AEM.pdb
     RDKit          3D

 23 22  0  0  1  0  0  0  0  0999 V2000
   17.3975  -13.3345  -14.9932 C   0  0  0  0  0  0  0  0  0  0  0  0
   16.7465  -12.4417  -16.0163 C   0  0  2  0  0  0  0  0  0  0  0  0
   16.6672  -13.1157  -17.2978 N   0  0  0  0  0  0  0  0  0  0  0  0
   17.4836  -11.1686  -16.2110 C   0  0  0  0  0  0  0  0  0  0  0  0
   18.4634  -11.1093  -17.0082 O   0  0  0  0  0  0  0  0  0  0  0  0
   17.1474   -9.9716  -15.5364 N   0  0  0  0  0  0  0  0  0  0  0  0
   17.8835   -8.7108  -15.8141 C   0  0  1  0  0  0  0  0  0  0  0  0
   16.9287   -7.6253  -15.4593 C   0  0  0  0  0  0  0  0  0  0  0  0
   17.4175   -6.2338  -15.6204 C   0  0  0  0  0  0  0  0  0  0  0  0
   16.3352   -5.2312  -15.3256 C   0  0  0  0  0  0  0  0  0  0  0  0
   15.8840   -4.5797  -16.2870 O   0  0  0  0  0  0  0  0  0  0  0  0
   19.1516   -8.7199  -15.0631 C   0  0  0  0  0  0  0  0  0  0  0  0
   19.2027   -9.1403  -13.8523 O   0  0  0  0  0  0  0  0  0  0  0  0
   15.8408   -5.0165  -14.0619 O   0  0  0  0  0  0  0  0  0  0  0  0
   26.5731  -10.7059  -14.9404 C   0  0  0  0  0  0  0  0  0  0  0  0
   24.9799  -10.6160  -15.7036 S   0  0  0  0  0  0  0  0  0  0  0  0
   23.9389   -9.3121  -15.0298 C   0  0  0  0  0  0  0  0  0  0  0  0
   22.5581   -9.2669  -15.5530 C   0  0  0  0  0  0  0  0  0  0  0  0
   21.6505   -8.2549  -14.9917 C   0  0  2  0  0  0  0  0  0  0  0  0
   20.3605   -8.2670  -15.6553 N   0  0  0  0  0  0  0  0  0  0  0  0
   22.1987   -6.8903  -14.8889 C   0  0  0  0  0  0  0  0  0  0  0  0
   21.8488   -5.9328  -15.8196 O   0  0  0  0  0  0  0  0  0  0  0  0
   22.9850   -6.5291  -13.9824 O   0  0  0  0  0  0  0  0  0  0  0  0
  2  3  1  0
  2  1  1  1
  2  4  1  0
  4  5  2  0
  6  4  1  0
  6  7  1  0
  7 12  1  0
  8  9  1  0
  7  8  1  1
  9 10  1  0
 10 11  2  0
 10 14  1  0
 12 20  1  0
 12 13  2  0
 16 15  1  0
 17 16  1  0
 19 18  1  6
 18 17  1  0
 19 21  1  0
 20 19  1  0
 21 22  1  0
 23 21  2  0
M  END
$$$$
