AEM.pdb
     RDKit          3D

 23 22  0  0  1  0  0  0  0  0999 V2000
   18.0085  -11.0966  -17.6511 C   0  0  0  0  0  0  0  0  0  0  0  0
   18.1993   -9.9927  -18.6574 C   0  0  2  0  0  0  0  0  0  0  0  0
   19.0254  -10.4494  -19.7582 N   0  0  0  0  0  0  0  0  0  0  0  0
   18.8411   -8.7914  -18.0683 C   0  0  0  0  0  0  0  0  0  0  0  0
   20.1011   -8.6961  -18.0177 O   0  0  0  0  0  0  0  0  0  0  0  0
   18.1057   -7.7048  -17.5397 N   0  0  0  0  0  0  0  0  0  0  0  0
   18.8021   -6.5266  -16.9601 C   0  0  1  0  0  0  0  0  0  0  0  0
   17.7616   -5.4644  -16.8904 C   0  0  0  0  0  0  0  0  0  0  0  0
   18.2019   -4.1368  -16.3958 C   0  0  0  0  0  0  0  0  0  0  0  0
   17.0832   -3.4072  -15.7033 C   0  0  0  0  0  0  0  0  0  0  0  0
   15.9639   -3.4282  -16.2502 O   0  0  0  0  0  0  0  0  0  0  0  0
   19.4108   -6.9132  -15.6747 C   0  0  0  0  0  0  0  0  0  0  0  0
   19.1526   -8.0466  -15.1326 O   0  0  0  0  0  0  0  0  0  0  0  0
   17.2520   -2.7353  -14.5168 O   0  0  0  0  0  0  0  0  0  0  0  0
   22.8024  -10.4443  -11.6075 C   0  0  0  0  0  0  0  0  0  0  0  0
   21.8746   -9.3815  -12.6746 S   0  0  0  0  0  0  0  0  0  0  0  0
   22.8974   -8.4833  -13.8514 C   0  0  0  0  0  0  0  0  0  0  0  0
   22.1726   -7.5613  -14.7497 C   0  0  0  0  0  0  0  0  0  0  0  0
   21.3841   -6.4861  -14.1290 C   0  0  2  0  0  0  0  0  0  0  0  0
   20.3064   -6.0457  -14.9945 N   0  0  0  0  0  0  0  0  0  0  0  0
   22.1582   -5.3489  -13.5994 C   0  0  0  0  0  0  0  0  0  0  0  0
   22.6534   -4.3893  -14.4592 O   0  0  0  0  0  0  0  0  0  0  0  0
   22.4030   -5.1887  -12.3808 O   0  0  0  0  0  0  0  0  0  0  0  0
  2  3  1  0
  2  1  1  1
  2  4  1  0
  4  5  2  0
  6  4  1  0
  6  7  1  0
  7 12  1  0
  8  9  1  0
  7  8  1  1
  9 10  1  0
 10 11  2  0
 10 14  1  0
 12 20  1  0
 12 13  2  0
 16 15  1  0
 17 16  1  0
 19 18  1  6
 18 17  1  0
 19 21  1  0
 20 19  1  0
 21 22  1  0
 23 21  2  0
M  END
$$$$
