AEM.pdb
     RDKit          3D

 23 22  0  0  1  0  0  0  0  0999 V2000
   29.1066  -18.1472  -15.0967 C   0  0  0  0  0  0  0  0  0  0  0  0
   27.9014  -19.0244  -15.3105 C   0  0  2  0  0  0  0  0  0  0  0  0
   27.1449  -18.5720  -16.4619 N   0  0  0  0  0  0  0  0  0  0  0  0
   26.9917  -19.0360  -14.1381 C   0  0  0  0  0  0  0  0  0  0  0  0
   26.6347  -17.9529  -13.5916 O   0  0  0  0  0  0  0  0  0  0  0  0
   26.4791  -20.2263  -13.5712 N   0  0  0  0  0  0  0  0  0  0  0  0
   25.5074  -20.1753  -12.4478 C   0  0  1  0  0  0  0  0  0  0  0  0
   24.2387  -20.7078  -13.0160 C   0  0  0  0  0  0  0  0  0  0  0  0
   23.2457  -19.7054  -13.4743 C   0  0  0  0  0  0  0  0  0  0  0  0
   21.9358  -20.3515  -13.8354 C   0  0  0  0  0  0  0  0  0  0  0  0
   21.3674  -19.9499  -14.8688 O   0  0  0  0  0  0  0  0  0  0  0  0
   26.0590  -20.9202  -11.3019 C   0  0  0  0  0  0  0  0  0  0  0  0
   26.2682  -22.1838  -11.3706 O   0  0  0  0  0  0  0  0  0  0  0  0
   21.3609  -21.3454  -13.0809 O   0  0  0  0  0  0  0  0  0  0  0  0
   29.0979  -18.7805   -5.8544 C   0  0  0  0  0  0  0  0  0  0  0  0
   27.7290  -19.6286   -5.1223 S   0  0  0  0  0  0  0  0  0  0  0  0
   26.6928  -20.4794   -6.3224 C   0  0  0  0  0  0  0  0  0  0  0  0
   26.8586  -20.0470   -7.7253 C   0  0  0  0  0  0  0  0  0  0  0  0
   26.1619  -20.8218   -8.7631 C   0  0  2  0  0  0  0  0  0  0  0  0
   26.3810  -20.2638  -10.0841 N   0  0  0  0  0  0  0  0  0  0  0  0
   24.7337  -21.0875   -8.5127 C   0  0  0  0  0  0  0  0  0  0  0  0
   24.3587  -22.1174   -7.6736 O   0  0  0  0  0  0  0  0  0  0  0  0
   23.8070  -20.4177   -9.0258 O   0  0  0  0  0  0  0  0  0  0  0  0
  2  3  1  0
  2  1  1  1
  2  4  1  0
  4  5  2  0
  6  4  1  0
  6  7  1  0
  7 12  1  0
  8  9  1  0
  7  8  1  6
  9 10  1  0
 10 11  2  0
 10 14  1  0
 12 20  1  0
 12 13  2  0
 16 15  1  0
 17 16  1  0
 19 18  1  1
 18 17  1  0
 19 21  1  0
 20 19  1  0
 21 22  1  0
 23 21  2  0
M  END
$$$$
