AEM.pdb
     RDKit          3D

 23 22  0  0  1  0  0  0  0  0999 V2000
   16.1069  -13.9421  -17.9188 C   0  0  0  0  0  0  0  0  0  0  0  0
   17.2507  -13.7675  -16.9549 C   0  0  2  0  0  0  0  0  0  0  0  0
   16.7865  -13.9103  -15.5886 N   0  0  0  0  0  0  0  0  0  0  0  0
   17.9041  -12.4413  -17.0824 C   0  0  0  0  0  0  0  0  0  0  0  0
   18.8064  -12.2505  -17.9476 O   0  0  0  0  0  0  0  0  0  0  0  0
   17.5695  -11.3349  -16.2670 N   0  0  0  0  0  0  0  0  0  0  0  0
   18.1693   -9.9982  -16.5170 C   0  0  1  0  0  0  0  0  0  0  0  0
   17.0613   -9.0325  -16.2810 C   0  0  0  0  0  0  0  0  0  0  0  0
   17.4226   -7.5937  -16.2928 C   0  0  0  0  0  0  0  0  0  0  0  0
   16.7675   -6.8510  -15.1601 C   0  0  0  0  0  0  0  0  0  0  0  0
   17.5152   -6.2604  -14.3573 O   0  0  0  0  0  0  0  0  0  0  0  0
   19.3553   -9.8359  -15.6571 C   0  0  0  0  0  0  0  0  0  0  0  0
   19.3755  -10.2977  -14.4606 O   0  0  0  0  0  0  0  0  0  0  0  0
   15.4054   -6.8044  -14.9870 O   0  0  0  0  0  0  0  0  0  0  0  0
   26.7575  -11.1588  -14.6540 C   0  0  0  0  0  0  0  0  0  0  0  0
   25.2516  -11.2018  -15.5810 S   0  0  0  0  0  0  0  0  0  0  0  0
   24.0451   -9.9821  -15.0384 C   0  0  0  0  0  0  0  0  0  0  0  0
   22.7561   -9.9982  -15.7601 C   0  0  0  0  0  0  0  0  0  0  0  0
   21.7420   -9.0094  -15.3640 C   0  0  2  0  0  0  0  0  0  0  0  0
   20.5170   -9.1660  -16.1251 N   0  0  0  0  0  0  0  0  0  0  0  0
   22.1926   -7.6061  -15.3376 C   0  0  0  0  0  0  0  0  0  0  0  0
   22.7900   -7.0930  -14.2039 O   0  0  0  0  0  0  0  0  0  0  0  0
   22.0674   -6.8228  -16.3078 O   0  0  0  0  0  0  0  0  0  0  0  0
  2  3  1  0
  2  1  1  6
  2  4  1  0
  4  5  2  0
  6  4  1  0
  6  7  1  0
  7 12  1  0
  8  9  1  0
  7  8  1  1
  9 10  1  0
 10 11  2  0
 10 14  1  0
 12 20  1  0
 12 13  2  0
 16 15  1  0
 17 16  1  0
 19 18  1  6
 18 17  1  0
 19 21  1  0
 20 19  1  0
 21 22  1  0
 23 21  2  0
M  END
$$$$
