WCF.pdb
     RDKit          3D

 32 34  0  0  1  0  0  0  0  0999 V2000
    7.7650  -18.0742   20.3329 N   0  0  0  0  0  0  0  0  0  0  0  0
    8.8431  -17.4104   21.0222 C   0  0  1  0  0  0  0  0  0  0  0  0
    8.2762  -16.3124   21.8996 C   0  0  0  0  0  0  0  0  0  0  0  0
    7.6881  -15.1964   21.1300 C   0  0  0  0  0  0  0  0  0  0  0  0
    6.3423  -14.9599   20.9610 C   0  0  0  0  0  0  0  0  0  0  0  0
    6.1691  -13.8758   20.1708 N   0  0  0  0  0  0  0  0  0  0  0  0
    7.3703  -13.3917   19.8153 C   0  0  0  0  0  0  0  0  0  0  0  0
    7.7443  -12.3236   19.0434 C   0  0  0  0  0  0  0  0  0  0  0  0
    9.0646  -11.9978   18.8125 C   0  0  0  0  0  0  0  0  0  0  0  0
   10.0008  -12.8128   19.4065 C   0  0  0  0  0  0  0  0  0  0  0  0
    9.6506  -13.9110   20.1999 C   0  0  0  0  0  0  0  0  0  0  0  0
    8.3244  -14.1971   20.4008 C   0  0  0  0  0  0  0  0  0  0  0  0
    9.6167  -18.3931   21.8147 C   0  0  0  0  0  0  0  0  0  0  0  0
    9.0588  -19.2418   22.5608 O   0  0  0  0  0  0  0  0  0  0  0  0
   11.0535  -18.4372   21.7769 N   0  0  0  0  0  0  0  0  0  0  0  0
   11.8452  -18.8775   22.9113 C   0  0  1  0  0  0  0  0  0  0  0  0
   13.3260  -18.9683   22.5055 C   0  0  0  0  0  0  0  0  0  0  0  0
   13.5221  -20.5123   21.5738 S   0  0  0  0  0  0  0  0  0  0  0  0
   11.8072  -17.9071   24.0229 C   0  0  0  0  0  0  0  0  0  0  0  0
   12.1081  -16.7057   23.7737 O   0  0  0  0  0  0  0  0  0  0  0  0
   11.4528  -18.2307   25.3570 N   0  0  0  0  0  0  0  0  0  0  0  0
   11.5031  -17.1855   26.3923 C   0  0  1  0  0  0  0  0  0  0  0  0
   10.0801  -16.7041   26.5738 C   0  0  0  0  0  0  0  0  0  0  0  0
    9.9348  -15.5949   27.5352 C   0  0  0  0  0  0  0  0  0  0  0  0
    9.5232  -14.3659   27.0005 C   0  0  0  0  0  0  0  0  0  0  0  0
    9.3672  -13.2956   27.8481 C   0  0  0  0  0  0  0  0  0  0  0  0
    9.6152  -13.4449   29.1962 C   0  0  0  0  0  0  0  0  0  0  0  0
   10.0189  -14.6540   29.7137 C   0  0  0  0  0  0  0  0  0  0  0  0
   10.1757  -15.7226   28.8741 C   0  0  0  0  0  0  0  0  0  0  0  0
   12.0173  -17.7050   27.6708 C   0  0  0  0  0  0  0  0  0  0  0  0
   11.7998  -18.8959   28.0156 O   0  0  0  0  0  0  0  0  0  0  0  0
   12.7521  -16.9319   28.5427 O   0  0  0  0  0  0  0  0  0  0  0  0
  2  1  1  1
  2 13  1  0
  2  3  1  0
  4  3  1  0
  4  5  2  0
  6  5  1  0
  7  6  1  0
  8  7  2  0
  9  8  1  0
 10  9  2  0
 10 11  1  0
 11 12  2  0
 12  7  1  0
 12  4  1  0
 13 14  2  0
 15 16  1  0
 15 13  1  0
 16 17  1  6
 17 18  1  0
 19 16  1  0
 20 19  2  0
 21 19  1  0
 22 21  1  0
 22 23  1  1
 24 23  1  0
 25 24  2  0
 26 25  1  0
 27 26  2  0
 27 28  1  0
 28 29  2  0
 29 24  1  0
 30 32  1  0
 30 22  1  0
 31 30  2  0
M  END
$$$$
