WCF.pdb
     RDKit          3D

 32 34  0  0  1  0  0  0  0  0999 V2000
    9.0580  -18.6601   20.4079 N   0  0  0  0  0  0  0  0  0  0  0  0
    9.0069  -17.7518   21.5261 C   0  0  1  0  0  0  0  0  0  0  0  0
    7.6257  -17.1332   21.6066 C   0  0  0  0  0  0  0  0  0  0  0  0
    7.4152  -16.0475   20.6265 C   0  0  0  0  0  0  0  0  0  0  0  0
    6.9785  -16.2100   19.3309 C   0  0  0  0  0  0  0  0  0  0  0  0
    6.9360  -15.0072   18.7135 N   0  0  0  0  0  0  0  0  0  0  0  0
    7.3343  -14.0552   19.5728 C   0  0  0  0  0  0  0  0  0  0  0  0
    7.4642  -12.6969   19.4516 C   0  0  0  0  0  0  0  0  0  0  0  0
    7.8920  -11.8943   20.4887 C   0  0  0  0  0  0  0  0  0  0  0  0
    8.1857  -12.5376   21.6690 C   0  0  0  0  0  0  0  0  0  0  0  0
    8.0635  -13.9230   21.8242 C   0  0  0  0  0  0  0  0  0  0  0  0
    7.6351  -14.6808   20.7644 C   0  0  0  0  0  0  0  0  0  0  0  0
    9.3544  -18.4678   22.7746 C   0  0  0  0  0  0  0  0  0  0  0  0
    8.9676  -19.6454   23.0028 O   0  0  0  0  0  0  0  0  0  0  0  0
   10.1572  -17.8598   23.8010 N   0  0  0  0  0  0  0  0  0  0  0  0
   11.0414  -18.6338   24.6534 C   0  0  1  0  0  0  0  0  0  0  0  0
   12.1753  -19.2396   23.8090 C   0  0  0  0  0  0  0  0  0  0  0  0
   13.1656  -17.8532   23.1865 S   0  0  0  0  0  0  0  0  0  0  0  0
   11.7161  -17.7921   25.6608 C   0  0  0  0  0  0  0  0  0  0  0  0
   12.2448  -18.3642   26.6555 O   0  0  0  0  0  0  0  0  0  0  0  0
   11.8147  -16.3797   25.5884 N   0  0  0  0  0  0  0  0  0  0  0  0
   11.0284  -15.5514   26.5172 C   0  0  1  0  0  0  0  0  0  0  0  0
    9.9141  -14.9404   25.6958 C   0  0  0  0  0  0  0  0  0  0  0  0
    9.0019  -14.0729   26.4646 C   0  0  0  0  0  0  0  0  0  0  0  0
    9.6097  -13.1581   27.3361 C   0  0  0  0  0  0  0  0  0  0  0  0
    8.8110  -12.3207   28.0772 C   0  0  0  0  0  0  0  0  0  0  0  0
    7.4396  -12.3921   27.9539 C   0  0  0  0  0  0  0  0  0  0  0  0
    6.8502  -13.2923   27.0966 C   0  0  0  0  0  0  0  0  0  0  0  0
    7.6408  -14.1282   26.3566 C   0  0  0  0  0  0  0  0  0  0  0  0
   10.4551  -16.3507   27.6132 C   0  0  0  0  0  0  0  0  0  0  0  0
   10.5488  -15.9654   28.8079 O   0  0  0  0  0  0  0  0  0  0  0  0
    9.7957  -17.5405   27.3959 O   0  0  0  0  0  0  0  0  0  0  0  0
  2  1  1  6
  2 13  1  0
  2  3  1  0
  4  3  1  0
  4  5  2  0
  6  5  1  0
  7  6  1  0
  8  7  2  0
  9  8  1  0
 10  9  2  0
 10 11  1  0
 11 12  2  0
 12  7  1  0
 12  4  1  0
 13 14  2  0
 15 16  1  0
 15 13  1  0
 16 17  1  6
 17 18  1  0
 19 16  1  0
 20 19  2  0
 21 19  1  0
 22 21  1  0
 22 23  1  6
 24 23  1  0
 25 24  2  0
 26 25  1  0
 27 26  2  0
 27 28  1  0
 28 29  2  0
 29 24  1  0
 30 32  1  0
 30 22  1  0
 31 30  2  0
M  END
$$$$
