WCF.pdb
     RDKit          3D

 32 34  0  0  1  0  0  0  0  0999 V2000
    5.8369  -19.3681   25.1284 N   0  0  0  0  0  0  0  0  0  0  0  0
    6.5361  -18.2225   24.6021 C   0  0  1  0  0  0  0  0  0  0  0  0
    7.3685  -17.5948   25.7020 C   0  0  0  0  0  0  0  0  0  0  0  0
    6.9304  -16.2290   26.0574 C   0  0  0  0  0  0  0  0  0  0  0  0
    5.6880  -15.8857   26.5413 C   0  0  0  0  0  0  0  0  0  0  0  0
    5.6270  -14.5465   26.7221 N   0  0  0  0  0  0  0  0  0  0  0  0
    6.8014  -13.9991   26.3688 C   0  0  0  0  0  0  0  0  0  0  0  0
    7.2550  -12.7065   26.3675 C   0  0  0  0  0  0  0  0  0  0  0  0
    8.5285  -12.3647   25.9626 C   0  0  0  0  0  0  0  0  0  0  0  0
    9.3321  -13.4044   25.5543 C   0  0  0  0  0  0  0  0  0  0  0  0
    8.8980  -14.7346   25.5438 C   0  0  0  0  0  0  0  0  0  0  0  0
    7.6224  -15.0266   25.9544 C   0  0  0  0  0  0  0  0  0  0  0  0
    7.3745  -18.6276   23.4510 C   0  0  0  0  0  0  0  0  0  0  0  0
    8.2489  -19.5306   23.5424 O   0  0  0  0  0  0  0  0  0  0  0  0
    7.2376  -18.0136   22.1579 N   0  0  0  0  0  0  0  0  0  0  0  0
    8.1635  -18.2798   21.0719 C   0  0  1  0  0  0  0  0  0  0  0  0
    7.5036  -17.9224   19.7294 C   0  0  0  0  0  0  0  0  0  0  0  0
    6.1353  -16.7908   20.1008 S   0  0  0  0  0  0  0  0  0  0  0  0
    9.3675  -17.4296   21.1499 C   0  0  0  0  0  0  0  0  0  0  0  0
   10.2906  -17.6281   20.3104 O   0  0  0  0  0  0  0  0  0  0  0  0
    9.5603  -16.3993   22.1045 N   0  0  0  0  0  0  0  0  0  0  0  0
   10.8277  -15.6507   22.1146 C   0  0  1  0  0  0  0  0  0  0  0  0
   10.4545  -14.1940   22.2831 C   0  0  0  0  0  0  0  0  0  0  0  0
    9.3651  -13.7424   21.3971 C   0  0  0  0  0  0  0  0  0  0  0  0
    8.0997  -13.6211   21.9889 C   0  0  0  0  0  0  0  0  0  0  0  0
    7.0454  -13.2014   21.2139 C   0  0  0  0  0  0  0  0  0  0  0  0
    7.2456  -12.9092   19.8814 C   0  0  0  0  0  0  0  0  0  0  0  0
    8.4901  -13.0305   19.3076 C   0  0  0  0  0  0  0  0  0  0  0  0
    9.5430  -13.4480   20.0747 C   0  0  0  0  0  0  0  0  0  0  0  0
   11.7026  -16.0694   23.2226 C   0  0  0  0  0  0  0  0  0  0  0  0
   12.8957  -15.6729   23.2856 O   0  0  0  0  0  0  0  0  0  0  0  0
   11.2719  -16.9007   24.2332 O   0  0  0  0  0  0  0  0  0  0  0  0
  2  1  1  1
  2 13  1  0
  2  3  1  0
  4  3  1  0
  4  5  2  0
  6  5  1  0
  7  6  1  0
  8  7  2  0
  9  8  1  0
 10  9  2  0
 10 11  1  0
 11 12  2  0
 12  7  1  0
 12  4  1  0
 13 14  2  0
 15 16  1  0
 15 13  1  0
 16 17  1  6
 17 18  1  0
 19 16  1  0
 20 19  2  0
 21 19  1  0
 22 21  1  0
 22 23  1  1
 24 23  1  0
 25 24  2  0
 26 25  1  0
 27 26  2  0
 27 28  1  0
 28 29  2  0
 29 24  1  0
 30 32  1  0
 30 22  1  0
 31 30  2  0
M  END
$$$$
