WCF.pdb
     RDKit          3D

 32 34  0  0  1  0  0  0  0  0999 V2000
    8.2617  -17.6822   20.7869 N   0  0  0  0  0  0  0  0  0  0  0  0
    8.8896  -16.7371   21.6761 C   0  0  1  0  0  0  0  0  0  0  0  0
    7.8642  -15.7170   22.1283 C   0  0  0  0  0  0  0  0  0  0  0  0
    7.3677  -14.8628   21.0294 C   0  0  0  0  0  0  0  0  0  0  0  0
    6.0879  -14.8720   20.5219 C   0  0  0  0  0  0  0  0  0  0  0  0
    5.9993  -13.9883   19.5016 N   0  0  0  0  0  0  0  0  0  0  0  0
    7.1918  -13.3963   19.3251 C   0  0  0  0  0  0  0  0  0  0  0  0
    7.6275  -12.4401   18.4463 C   0  0  0  0  0  0  0  0  0  0  0  0
    8.9210  -11.9609   18.4483 C   0  0  0  0  0  0  0  0  0  0  0  0
    9.7636  -12.5004   19.3929 C   0  0  0  0  0  0  0  0  0  0  0  0
    9.3489  -13.4782   20.3039 C   0  0  0  0  0  0  0  0  0  0  0  0
    8.0528  -13.9252   20.2635 C   0  0  0  0  0  0  0  0  0  0  0  0
    9.4910  -17.4488   22.8267 C   0  0  0  0  0  0  0  0  0  0  0  0
    8.8991  -18.3926   23.4158 O   0  0  0  0  0  0  0  0  0  0  0  0
   10.7899  -17.1044   23.3387 N   0  0  0  0  0  0  0  0  0  0  0  0
   11.3437  -17.7259   24.5279 C   0  0  1  0  0  0  0  0  0  0  0  0
   12.7473  -18.2742   24.2199 C   0  0  0  0  0  0  0  0  0  0  0  0
   12.5372  -19.6046   23.0049 S   0  0  0  0  0  0  0  0  0  0  0  0
   11.5392  -16.7535   25.6210 C   0  0  0  0  0  0  0  0  0  0  0  0
   12.4619  -15.8992   25.4986 O   0  0  0  0  0  0  0  0  0  0  0  0
   10.7583  -16.7098   26.8035 N   0  0  0  0  0  0  0  0  0  0  0  0
   11.2357  -15.9297   27.9569 C   0  0  1  0  0  0  0  0  0  0  0  0
   10.8779  -14.4883   27.6672 C   0  0  0  0  0  0  0  0  0  0  0  0
    9.4334  -14.2474   27.4910 C   0  0  0  0  0  0  0  0  0  0  0  0
    8.7883  -15.0428   26.5333 C   0  0  0  0  0  0  0  0  0  0  0  0
    7.4413  -14.8661   26.3266 C   0  0  0  0  0  0  0  0  0  0  0  0
    6.7525  -13.9201   27.0558 C   0  0  0  0  0  0  0  0  0  0  0  0
    7.3922  -13.1433   27.9939 C   0  0  0  0  0  0  0  0  0  0  0  0
    8.7331  -13.3152   28.2034 C   0  0  0  0  0  0  0  0  0  0  0  0
   10.5933  -16.3572   29.2112 C   0  0  0  0  0  0  0  0  0  0  0  0
   10.8573  -15.7805   30.2985 O   0  0  0  0  0  0  0  0  0  0  0  0
    9.6841  -17.3908   29.2631 O   0  0  0  0  0  0  0  0  0  0  0  0
  2  1  1  6
  2 13  1  0
  2  3  1  0
  4  3  1  0
  4  5  2  0
  6  5  1  0
  7  6  1  0
  8  7  2  0
  9  8  1  0
 10  9  2  0
 10 11  1  0
 11 12  2  0
 12  7  1  0
 12  4  1  0
 13 14  2  0
 15 16  1  0
 15 13  1  0
 16 17  1  6
 17 18  1  0
 19 16  1  0
 20 19  2  0
 21 19  1  0
 22 21  1  0
 22 23  1  6
 24 23  1  0
 25 24  2  0
 26 25  1  0
 27 26  2  0
 27 28  1  0
 28 29  2  0
 29 24  1  0
 30 32  1  0
 30 22  1  0
 31 30  2  0
M  END
$$$$
