WCF.pdb
     RDKit          3D

 32 34  0  0  1  0  0  0  0  0999 V2000
    6.4353  -17.6927   24.1479 N   0  0  0  0  0  0  0  0  0  0  0  0
    7.4926  -16.7469   23.8918 C   0  0  1  0  0  0  0  0  0  0  0  0
    7.8801  -16.0651   25.1885 C   0  0  0  0  0  0  0  0  0  0  0  0
    6.9790  -14.9527   25.5543 C   0  0  0  0  0  0  0  0  0  0  0  0
    5.8131  -15.0693   26.2774 C   0  0  0  0  0  0  0  0  0  0  0  0
    5.2285  -13.8550   26.3924 N   0  0  0  0  0  0  0  0  0  0  0  0
    5.9827  -12.9400   25.7618 C   0  0  0  0  0  0  0  0  0  0  0  0
    5.8440  -11.5881   25.5899 C   0  0  0  0  0  0  0  0  0  0  0  0
    6.7639  -10.8271   24.8989 C   0  0  0  0  0  0  0  0  0  0  0  0
    7.8444  -11.5057   24.3838 C   0  0  0  0  0  0  0  0  0  0  0  0
    8.0143  -12.8857   24.5422 C   0  0  0  0  0  0  0  0  0  0  0  0
    7.0727  -13.6016   25.2364 C   0  0  0  0  0  0  0  0  0  0  0  0
    8.6484  -17.4364   23.2747 C   0  0  0  0  0  0  0  0  0  0  0  0
    8.9922  -18.6015   23.6103 O   0  0  0  0  0  0  0  0  0  0  0  0
    9.4464  -16.8154   22.2523 N   0  0  0  0  0  0  0  0  0  0  0  0
   10.8167  -17.2159   21.9888 C   0  0  1  0  0  0  0  0  0  0  0  0
   11.3369  -16.4898   20.7367 C   0  0  0  0  0  0  0  0  0  0  0  0
   10.3057  -17.0336   19.3470 S   0  0  0  0  0  0  0  0  0  0  0  0
   11.7298  -16.8142   23.0767 C   0  0  0  0  0  0  0  0  0  0  0  0
   12.4359  -15.7802   22.9086 O   0  0  0  0  0  0  0  0  0  0  0  0
   11.8686  -17.5102   24.3040 N   0  0  0  0  0  0  0  0  0  0  0  0
   12.9227  -17.1066   25.2490 C   0  0  1  0  0  0  0  0  0  0  0  0
   12.6102  -15.6797   25.6436 C   0  0  0  0  0  0  0  0  0  0  0  0
   11.6248  -15.5558   26.7343 C   0  0  0  0  0  0  0  0  0  0  0  0
   10.6368  -16.5492   26.7879 C   0  0  0  0  0  0  0  0  0  0  0  0
    9.6924  -16.4886   27.7843 C   0  0  0  0  0  0  0  0  0  0  0  0
    9.7304  -15.4634   28.7056 C   0  0  0  0  0  0  0  0  0  0  0  0
   10.7030  -14.4922   28.6467 C   0  0  0  0  0  0  0  0  0  0  0  0
   11.6454  -14.5479   27.6567 C   0  0  0  0  0  0  0  0  0  0  0  0
   12.9392  -17.9602   26.4488 C   0  0  0  0  0  0  0  0  0  0  0  0
   12.0508  -18.8335   26.6295 O   0  0  0  0  0  0  0  0  0  0  0  0
   13.9099  -17.8538   27.4205 O   0  0  0  0  0  0  0  0  0  0  0  0
  2  1  1  1
  2 13  1  0
  2  3  1  0
  4  3  1  0
  4  5  2  0
  6  5  1  0
  7  6  1  0
  8  7  2  0
  9  8  1  0
 10  9  2  0
 10 11  1  0
 11 12  2  0
 12  7  1  0
 12  4  1  0
 13 14  2  0
 15 16  1  0
 15 13  1  0
 16 17  1  6
 17 18  1  0
 19 16  1  0
 20 19  2  0
 21 19  1  0
 22 21  1  0
 22 23  1  1
 24 23  1  0
 25 24  2  0
 26 25  1  0
 27 26  2  0
 27 28  1  0
 28 29  2  0
 29 24  1  0
 30 32  1  0
 30 22  1  0
 31 30  2  0
M  END
$$$$
