WCF.pdb
     RDKit          3D

 32 34  0  0  1  0  0  0  0  0999 V2000
   10.3180  -19.0470   18.9522 N   0  0  0  0  0  0  0  0  0  0  0  0
   11.0503  -18.0770   19.7274 C   0  0  1  0  0  0  0  0  0  0  0  0
   11.9035  -17.2352   18.8001 C   0  0  0  0  0  0  0  0  0  0  0  0
   12.9381  -18.0159   18.0905 C   0  0  0  0  0  0  0  0  0  0  0  0
   13.0247  -18.1792   16.7261 C   0  0  0  0  0  0  0  0  0  0  0  0
   14.0724  -18.9829   16.4322 N   0  0  0  0  0  0  0  0  0  0  0  0
   14.6788  -19.3528   17.5719 C   0  0  0  0  0  0  0  0  0  0  0  0
   15.7701  -20.1415   17.8238 C   0  0  0  0  0  0  0  0  0  0  0  0
   16.2339  -20.3855   19.0998 C   0  0  0  0  0  0  0  0  0  0  0  0
   15.5339  -19.7867   20.1219 C   0  0  0  0  0  0  0  0  0  0  0  0
   14.4155  -18.9762   19.8971 C   0  0  0  0  0  0  0  0  0  0  0  0
   13.9901  -18.7628   18.6108 C   0  0  0  0  0  0  0  0  0  0  0  0
   10.1103  -17.2411   20.5083 C   0  0  0  0  0  0  0  0  0  0  0  0
    9.2086  -16.5531   19.9589 O   0  0  0  0  0  0  0  0  0  0  0  0
   10.1711  -17.1672   21.9432 N   0  0  0  0  0  0  0  0  0  0  0  0
    9.0248  -16.7868   22.7486 C   0  0  1  0  0  0  0  0  0  0  0  0
    7.9513  -17.8858   22.6732 C   0  0  0  0  0  0  0  0  0  0  0  0
    6.5747  -17.3491   23.7256 S   0  0  0  0  0  0  0  0  0  0  0  0
    9.3662  -16.6768   24.1804 C   0  0  0  0  0  0  0  0  0  0  0  0
    9.7886  -17.7101   24.7719 O   0  0  0  0  0  0  0  0  0  0  0  0
    9.2545  -15.4857   24.9412 N   0  0  0  0  0  0  0  0  0  0  0  0
    9.5971  -15.5072   26.3727 C   0  0  1  0  0  0  0  0  0  0  0  0
    8.3044  -15.2580   27.1185 C   0  0  0  0  0  0  0  0  0  0  0  0
    7.5735  -14.0554   26.6768 C   0  0  0  0  0  0  0  0  0  0  0  0
    8.3360  -12.8868   26.5388 C   0  0  0  0  0  0  0  0  0  0  0  0
    7.7105  -11.7346   26.1271 C   0  0  0  0  0  0  0  0  0  0  0  0
    6.3580  -11.7450   25.8592 C   0  0  0  0  0  0  0  0  0  0  0  0
    5.6163  -12.8955   25.9969 C   0  0  0  0  0  0  0  0  0  0  0  0
    6.2341  -14.0452   26.4064 C   0  0  0  0  0  0  0  0  0  0  0  0
   10.1628  -16.8040   26.7813 C   0  0  0  0  0  0  0  0  0  0  0  0
   11.0977  -16.8621   27.6222 O   0  0  0  0  0  0  0  0  0  0  0  0
    9.7079  -18.0026   26.2770 O   0  0  0  0  0  0  0  0  0  0  0  0
  2  1  1  6
  2 13  1  0
  2  3  1  0
  4  3  1  0
  4  5  2  0
  6  5  1  0
  7  6  1  0
  8  7  2  0
  9  8  1  0
 10  9  2  0
 10 11  1  0
 11 12  2  0
 12  7  1  0
 12  4  1  0
 13 14  2  0
 15 16  1  0
 15 13  1  0
 16 17  1  1
 17 18  1  0
 19 16  1  0
 20 19  2  0
 21 19  1  0
 22 21  1  0
 22 23  1  1
 24 23  1  0
 25 24  2  0
 26 25  1  0
 27 26  2  0
 27 28  1  0
 28 29  2  0
 29 24  1  0
 30 32  1  0
 30 22  1  0
 31 30  2  0
M  END
$$$$
