WCF.pdb
     RDKit          3D

 32 34  0  0  1  0  0  0  0  0999 V2000
    6.5097  -18.3597   23.9395 N   0  0  0  0  0  0  0  0  0  0  0  0
    6.9749  -17.0035   23.7894 C   0  0  1  0  0  0  0  0  0  0  0  0
    7.3028  -16.4322   25.1542 C   0  0  0  0  0  0  0  0  0  0  0  0
    6.3576  -15.3830   25.5894 C   0  0  0  0  0  0  0  0  0  0  0  0
    5.2032  -15.5922   26.3100 C   0  0  0  0  0  0  0  0  0  0  0  0
    4.5681  -14.4130   26.4993 N   0  0  0  0  0  0  0  0  0  0  0  0
    5.2778  -13.4309   25.9202 C   0  0  0  0  0  0  0  0  0  0  0  0
    5.0801  -12.0785   25.8290 C   0  0  0  0  0  0  0  0  0  0  0  0
    5.9615  -11.2392   25.1796 C   0  0  0  0  0  0  0  0  0  0  0  0
    7.0661  -11.8392   24.6201 C   0  0  0  0  0  0  0  0  0  0  0  0
    7.2960  -13.2175   24.6959 C   0  0  0  0  0  0  0  0  0  0  0  0
    6.3911  -14.0128   25.3513 C   0  0  0  0  0  0  0  0  0  0  0  0
    8.1507  -16.9697   22.8902 C   0  0  0  0  0  0  0  0  0  0  0  0
    9.0211  -17.8811   22.8889 O   0  0  0  0  0  0  0  0  0  0  0  0
    8.3670  -15.8926   21.9623 N   0  0  0  0  0  0  0  0  0  0  0  0
    9.6067  -15.7453   21.2216 C   0  0  1  0  0  0  0  0  0  0  0  0
    9.5316  -14.4944   20.3297 C   0  0  0  0  0  0  0  0  0  0  0  0
    7.9981  -14.6245   19.3696 S   0  0  0  0  0  0  0  0  0  0  0  0
   10.7605  -15.5163   22.1131 C   0  0  0  0  0  0  0  0  0  0  0  0
   11.0417  -14.3254   22.4275 O   0  0  0  0  0  0  0  0  0  0  0  0
   11.5779  -16.5450   22.6457 N   0  0  0  0  0  0  0  0  0  0  0  0
   11.9100  -16.5353   24.0798 C   0  0  1  0  0  0  0  0  0  0  0  0
   10.5900  -16.4723   24.8169 C   0  0  0  0  0  0  0  0  0  0  0  0
   10.6684  -15.8335   26.1441 C   0  0  0  0  0  0  0  0  0  0  0  0
    9.4963  -15.8642   26.9130 C   0  0  0  0  0  0  0  0  0  0  0  0
    9.5090  -15.2875   28.1602 C   0  0  0  0  0  0  0  0  0  0  0  0
   10.6611  -14.6942   28.6312 C   0  0  0  0  0  0  0  0  0  0  0  0
   11.8075  -14.6680   27.8710 C   0  0  0  0  0  0  0  0  0  0  0  0
   11.8001  -15.2406   26.6287 C   0  0  0  0  0  0  0  0  0  0  0  0
   12.6438  -17.7476   24.4805 C   0  0  0  0  0  0  0  0  0  0  0  0
   13.6899  -17.6663   25.1758 O   0  0  0  0  0  0  0  0  0  0  0  0
   12.2331  -19.0136   24.1250 O   0  0  0  0  0  0  0  0  0  0  0  0
  2  1  1  1
  2 13  1  0
  2  3  1  0
  4  3  1  0
  4  5  2  0
  6  5  1  0
  7  6  1  0
  8  7  2  0
  9  8  1  0
 10  9  2  0
 10 11  1  0
 11 12  2  0
 12  7  1  0
 12  4  1  0
 13 14  2  0
 15 16  1  0
 15 13  1  0
 16 17  1  6
 17 18  1  0
 19 16  1  0
 20 19  2  0
 21 19  1  0
 22 21  1  0
 22 23  1  1
 24 23  1  0
 25 24  2  0
 26 25  1  0
 27 26  2  0
 27 28  1  0
 28 29  2  0
 29 24  1  0
 30 32  1  0
 30 22  1  0
 31 30  2  0
M  END
$$$$
