PAR.pdb
     RDKit          3D

 24 24  0  0  1  0  0  0  0  0999 V2000
    8.0034  -17.3072   18.9301 N   0  0  0  0  0  0  0  0  0  0  0  0
    7.4358  -18.2866   17.9904 C   0  0  0  0  0  0  0  0  0  0  0  0
    7.0897  -17.5123   16.7406 C   0  0  0  0  0  0  0  0  0  0  0  0
    7.2397  -16.0461   17.1761 C   0  0  0  0  0  0  0  0  0  0  0  0
    8.4017  -16.1736   18.1218 C   0  0  1  0  0  0  0  0  0  0  0  0
    8.6749  -14.9969   18.9429 C   0  0  0  0  0  0  0  0  0  0  0  0
    9.1178  -13.9066   18.4907 O   0  0  0  0  0  0  0  0  0  0  0  0
    7.3847  -12.8868   20.7574 C   0  0  0  0  0  0  0  0  0  0  0  0
    8.4427  -13.8781   21.1904 C   0  0  2  0  0  0  0  0  0  0  0  0
    8.4425  -15.0433   20.3342 N   0  0  0  0  0  0  0  0  0  0  0  0
    8.1806  -14.2218   22.6018 C   0  0  0  0  0  0  0  0  0  0  0  0
    8.1503  -13.2659   23.4333 O   0  0  0  0  0  0  0  0  0  0  0  0
    7.7364  -19.6286   28.2892 N   0  0  0  0  0  0  0  0  0  0  0  0
    6.7721  -20.2867   27.4631 C   0  0  0  0  0  0  0  0  0  0  0  0
    6.3225  -21.4230   27.8667 N   0  0  0  0  0  0  0  0  0  0  0  0
    6.3163  -19.7239   26.2426 N   0  0  0  0  0  0  0  0  0  0  0  0
    7.2533  -19.4336   25.1821 C   0  0  0  0  0  0  0  0  0  0  0  0
    7.5941  -17.9399   25.1670 C   0  0  0  0  0  0  0  0  0  0  0  0
    8.6216  -17.6365   24.1188 C   0  0  0  0  0  0  0  0  0  0  0  0
    8.8946  -16.1832   24.0306 C   0  0  2  0  0  0  0  0  0  0  0  0
    7.9595  -15.5192   23.1123 N   0  0  0  0  0  0  0  0  0  0  0  0
   10.2457  -15.9443   23.4763 C   0  0  0  0  0  0  0  0  0  0  0  0
   11.3510  -15.5225   24.1936 O   0  0  0  0  0  0  0  0  0  0  0  0
   10.4676  -16.1265   22.2218 O   0  0  0  0  0  0  0  0  0  0  0  0
  1  2  1  0
  3  2  1  0
  4  5  1  0
  4  3  1  0
  5  1  1  0
  5  6  1  1
  6  7  2  0
  9  8  1  6
  9 10  1  0
 10  6  1  0
 11  9  1  0
 12 11  2  0
 14 13  1  0
 14 15  2  0
 16 14  1  0
 17 16  1  0
 18 17  1  0
 19 18  1  0
 20 21  1  0
 20 19  1  6
 21 11  1  0
 22 20  1  0
 23 22  1  0
 24 22  2  0
M  END
$$$$
