PAR.pdb
     RDKit          3D

 24 24  0  0  1  0  0  0  0  0999 V2000
    7.4827  -17.4423   18.7439 N   0  0  0  0  0  0  0  0  0  0  0  0
    7.0091  -18.3685   17.7036 C   0  0  0  0  0  0  0  0  0  0  0  0
    7.4709  -17.7880   16.3878 C   0  0  0  0  0  0  0  0  0  0  0  0
    7.9565  -16.3808   16.7695 C   0  0  0  0  0  0  0  0  0  0  0  0
    8.5375  -16.6656   18.1267 C   0  0  1  0  0  0  0  0  0  0  0  0
    8.8765  -15.4896   18.9239 C   0  0  0  0  0  0  0  0  0  0  0  0
   10.0281  -15.2517   19.3785 O   0  0  0  0  0  0  0  0  0  0  0  0
    6.9339  -12.4213   19.9869 C   0  0  0  0  0  0  0  0  0  0  0  0
    8.0990  -13.3831   20.0707 C   0  0  2  0  0  0  0  0  0  0  0  0
    7.8803  -14.5368   19.2269 N   0  0  0  0  0  0  0  0  0  0  0  0
    8.2708  -13.7530   21.4893 C   0  0  0  0  0  0  0  0  0  0  0  0
    8.5952  -12.8279   22.2924 O   0  0  0  0  0  0  0  0  0  0  0  0
    5.8578  -19.6029   24.1485 N   0  0  0  0  0  0  0  0  0  0  0  0
    6.7731  -19.9166   25.2017 C   0  0  0  0  0  0  0  0  0  0  0  0
    7.3844  -21.0473   25.1389 N   0  0  0  0  0  0  0  0  0  0  0  0
    7.0115  -19.0278   26.2822 N   0  0  0  0  0  0  0  0  0  0  0  0
    7.3739  -17.6531   26.0253 C   0  0  0  0  0  0  0  0  0  0  0  0
    7.8256  -17.4845   24.5710 C   0  0  0  0  0  0  0  0  0  0  0  0
    7.2364  -16.2451   23.9684 C   0  0  0  0  0  0  0  0  0  0  0  0
    8.2892  -15.3329   23.4645 C   0  0  2  0  0  0  0  0  0  0  0  0
    8.1061  -15.0441   22.0357 N   0  0  0  0  0  0  0  0  0  0  0  0
    9.6213  -15.9665   23.5827 C   0  0  0  0  0  0  0  0  0  0  0  0
   10.3907  -16.0231   24.7312 O   0  0  0  0  0  0  0  0  0  0  0  0
   10.1603  -16.5266   22.5571 O   0  0  0  0  0  0  0  0  0  0  0  0
  1  2  1  0
  3  2  1  0
  4  5  1  0
  4  3  1  0
  5  1  1  0
  5  6  1  1
  6  7  2  0
  9  8  1  1
  9 10  1  0
 10  6  1  0
 11  9  1  0
 12 11  2  0
 14 13  1  0
 14 15  2  0
 16 14  1  0
 17 16  1  0
 18 17  1  0
 19 18  1  0
 20 21  1  0
 20 19  1  6
 21 11  1  0
 22 20  1  0
 23 22  1  0
 24 22  2  0
M  END
$$$$
