PAR.pdb
     RDKit          3D

 24 24  0  0  1  0  0  0  0  0999 V2000
    8.2234  -19.9204   17.1345 N   0  0  0  0  0  0  0  0  0  0  0  0
    7.5813  -19.9693   15.8118 C   0  0  0  0  0  0  0  0  0  0  0  0
    6.1147  -19.6981   16.0507 C   0  0  0  0  0  0  0  0  0  0  0  0
    5.9796  -19.7873   17.5789 C   0  0  0  0  0  0  0  0  0  0  0  0
    7.3022  -19.2032   17.9912 C   0  0  1  0  0  0  0  0  0  0  0  0
    7.6459  -19.3610   19.4021 C   0  0  0  0  0  0  0  0  0  0  0  0
    7.1248  -18.6929   20.3356 O   0  0  0  0  0  0  0  0  0  0  0  0
    9.6753  -21.9196   21.2815 C   0  0  0  0  0  0  0  0  0  0  0  0
    8.9833  -20.5797   21.1580 C   0  0  2  0  0  0  0  0  0  0  0  0
    8.6182  -20.3095   19.7852 N   0  0  0  0  0  0  0  0  0  0  0  0
    9.8940  -19.5553   21.7058 C   0  0  0  0  0  0  0  0  0  0  0  0
   11.0491  -19.4742   21.1908 O   0  0  0  0  0  0  0  0  0  0  0  0
    7.4071  -12.1144   20.8821 N   0  0  0  0  0  0  0  0  0  0  0  0
    8.1191  -12.8611   19.8917 C   0  0  0  0  0  0  0  0  0  0  0  0
    8.0525  -12.4468   18.6751 N   0  0  0  0  0  0  0  0  0  0  0  0
    8.8755  -14.0166   20.2189 N   0  0  0  0  0  0  0  0  0  0  0  0
    8.9494  -14.4725   21.5877 C   0  0  0  0  0  0  0  0  0  0  0  0
    9.8202  -15.7296   21.6838 C   0  0  0  0  0  0  0  0  0  0  0  0
    9.8470  -16.2554   23.0870 C   0  0  0  0  0  0  0  0  0  0  0  0
   10.5097  -17.5784   23.1586 C   0  0  2  0  0  0  0  0  0  0  0  0
    9.5969  -18.6553   22.7519 N   0  0  0  0  0  0  0  0  0  0  0  0
   10.9026  -17.8844   24.5521 C   0  0  0  0  0  0  0  0  0  0  0  0
   10.1876  -18.6680   25.4403 O   0  0  0  0  0  0  0  0  0  0  0  0
   11.9948  -17.4027   25.0329 O   0  0  0  0  0  0  0  0  0  0  0  0
  1  2  1  0
  3  2  1  0
  4  5  1  0
  4  3  1  0
  5  1  1  0
  5  6  1  1
  6  7  2  0
  9  8  1  6
  9 10  1  0
 10  6  1  0
 11  9  1  0
 12 11  2  0
 14 13  1  0
 14 15  2  0
 16 14  1  0
 17 16  1  0
 18 17  1  0
 19 18  1  0
 20 21  1  0
 20 19  1  1
 21 11  1  0
 22 20  1  0
 23 22  1  0
 24 22  2  0
M  END
$$$$
