YQH.pdb
     RDKit          3D

 32 33  0  0  1  0  0  0  0  0999 V2000
    7.9163  -13.2731   16.6664 O   0  0  0  0  0  0  0  0  0  0  0  0
    7.8166  -13.7382   17.9903 C   0  0  0  0  0  0  0  0  0  0  0  0
    6.9057  -13.2043   18.8713 C   0  0  0  0  0  0  0  0  0  0  0  0
    6.8109  -13.6617   20.1657 C   0  0  0  0  0  0  0  0  0  0  0  0
    7.6317  -14.6851   20.6431 C   0  0  0  0  0  0  0  0  0  0  0  0
    7.5295  -15.1795   22.0422 C   0  0  0  0  0  0  0  0  0  0  0  0
    6.6854  -16.4112   22.0348 C   0  0  2  0  0  0  0  0  0  0  0  0
    5.2834  -15.9644   21.9972 N   0  0  0  0  0  0  0  0  0  0  0  0
    6.8311  -17.2585   23.2247 C   0  0  0  0  0  0  0  0  0  0  0  0
    6.1817  -16.8935   24.2644 O   0  0  0  0  0  0  0  0  0  0  0  0
    8.5394  -15.2094   19.7470 C   0  0  0  0  0  0  0  0  0  0  0  0
    8.6339  -14.7507   18.4503 C   0  0  0  0  0  0  0  0  0  0  0  0
    6.2370  -19.3576   27.1108 N   0  0  0  0  0  0  0  0  0  0  0  0
    6.9322  -20.5867   27.2088 C   0  0  0  0  0  0  0  0  0  0  0  0
    7.0413  -21.2001   28.2766 O   0  0  0  0  0  0  0  0  0  0  0  0
    7.5472  -21.1452   25.9744 C   0  0  0  0  0  0  0  0  0  0  0  0
    7.3334  -20.3484   24.7579 C   0  0  0  0  0  0  0  0  0  0  0  0
    7.9475  -18.9988   24.6535 C   0  0  2  0  0  0  0  0  0  0  0  0
    7.6074  -18.4166   23.3234 N   0  0  0  0  0  0  0  0  0  0  0  0
    9.4180  -18.9538   24.8132 C   0  0  0  0  0  0  0  0  0  0  0  0
   10.1843  -19.5424   23.9598 O   0  0  0  0  0  0  0  0  0  0  0  0
   10.1283  -18.3031   25.8464 N   0  0  0  0  0  0  0  0  0  0  0  0
   11.5827  -18.3805   25.9596 C   0  0  1  0  0  0  0  0  0  0  0  0
   12.2290  -17.0544   25.6262 C   0  0  0  0  0  0  0  0  0  0  0  0
   12.0623  -16.6604   24.2224 C   0  0  0  0  0  0  0  0  0  0  0  0
   11.3747  -17.3380   23.2241 C   0  0  0  0  0  0  0  0  0  0  0  0
   11.4639  -16.6332   22.0682 N   0  0  0  0  0  0  0  0  0  0  0  0
   12.1985  -15.5255   22.3348 C   0  0  0  0  0  0  0  0  0  0  0  0
   12.5503  -15.5581   23.6359 N   0  0  0  0  0  0  0  0  0  0  0  0
   11.9077  -18.8328   27.3172 C   0  0  0  0  0  0  0  0  0  0  0  0
   11.0042  -18.9227   28.1732 O   0  0  0  0  0  0  0  0  0  0  0  0
   13.1963  -19.1602   27.6624 O   0  0  0  0  0  0  0  0  0  0  0  0
  2  1  1  0
  3  2  2  0
  4  3  1  0
  5  4  2  0
  5 11  1  0
  6  5  1  0
  7  9  1  0
  7  6  1  0
  7  8  1  1
  9 10  2  0
 11 12  2  0
 12  2  1  0
 14 13  1  0
 15 14  2  0
 16 14  1  0
 17 16  1  0
 18 17  1  6
 19 18  1  0
 19  9  1  0
 20 18  1  0
 21 20  2  0
 22 20  1  0
 23 30  1  0
 23 22  1  0
 24 25  1  0
 23 24  1  1
 25 29  1  0
 26 27  1  0
 26 25  2  0
 27 28  1  0
 28 29  2  0
 30 32  1  0
 31 30  2  0
M  END
$$$$
