YQH.pdb
     RDKit          3D

 32 33  0  0  1  0  0  0  0  0999 V2000
    6.5920  -12.9847   15.7451 O   0  0  0  0  0  0  0  0  0  0  0  0
    7.1116  -13.5429   16.9272 C   0  0  0  0  0  0  0  0  0  0  0  0
    7.2947  -12.7833   18.0587 C   0  0  0  0  0  0  0  0  0  0  0  0
    7.8033  -13.3326   19.2134 C   0  0  0  0  0  0  0  0  0  0  0  0
    8.1558  -14.6813   19.2898 C   0  0  0  0  0  0  0  0  0  0  0  0
    8.7056  -15.2751   20.5377 C   0  0  0  0  0  0  0  0  0  0  0  0
    7.9119  -16.4996   20.8537 C   0  0  2  0  0  0  0  0  0  0  0  0
    6.5887  -16.0420   21.3082 N   0  0  0  0  0  0  0  0  0  0  0  0
    8.4693  -17.3281   21.9298 C   0  0  0  0  0  0  0  0  0  0  0  0
    8.0151  -17.1119   23.1057 O   0  0  0  0  0  0  0  0  0  0  0  0
    7.9659  -15.4287   18.1465 C   0  0  0  0  0  0  0  0  0  0  0  0
    7.4563  -14.8778   16.9899 C   0  0  0  0  0  0  0  0  0  0  0  0
    8.8672  -23.1440   22.2111 N   0  0  0  0  0  0  0  0  0  0  0  0
    9.6511  -22.9362   23.3713 C   0  0  0  0  0  0  0  0  0  0  0  0
    9.8964  -23.8442   24.1737 O   0  0  0  0  0  0  0  0  0  0  0  0
   10.1904  -21.5717   23.6186 C   0  0  0  0  0  0  0  0  0  0  0  0
    9.8263  -20.5669   22.6093 C   0  0  0  0  0  0  0  0  0  0  0  0
    9.8938  -19.1240   22.9601 C   0  0  2  0  0  0  0  0  0  0  0  0
    9.4418  -18.3218   21.7871 N   0  0  0  0  0  0  0  0  0  0  0  0
   11.2271  -18.6296   23.3697 C   0  0  0  0  0  0  0  0  0  0  0  0
   11.6416  -18.7992   24.5786 O   0  0  0  0  0  0  0  0  0  0  0  0
   12.1591  -17.9571   22.5484 N   0  0  0  0  0  0  0  0  0  0  0  0
   13.2015  -17.0942   23.0991 C   0  0  1  0  0  0  0  0  0  0  0  0
   12.8589  -15.6333   22.9103 C   0  0  0  0  0  0  0  0  0  0  0  0
   12.6917  -15.2500   21.5037 C   0  0  0  0  0  0  0  0  0  0  0  0
   12.8594  -16.0468   20.3787 C   0  0  0  0  0  0  0  0  0  0  0  0
   12.6083  -15.3063   19.2700 N   0  0  0  0  0  0  0  0  0  0  0  0
   12.2864  -14.0586   19.6910 C   0  0  0  0  0  0  0  0  0  0  0  0
   12.3417  -14.0426   21.0380 N   0  0  0  0  0  0  0  0  0  0  0  0
   13.3806  -17.4462   24.5125 C   0  0  0  0  0  0  0  0  0  0  0  0
   14.2569  -16.8696   25.1882 O   0  0  0  0  0  0  0  0  0  0  0  0
   12.5956  -18.4044   25.1060 O   0  0  0  0  0  0  0  0  0  0  0  0
  2  1  1  0
  3  2  2  0
  4  3  1  0
  5  4  2  0
  5 11  1  0
  6  5  1  0
  7  9  1  0
  7  6  1  0
  7  8  1  1
  9 10  2  0
 11 12  2  0
 12  2  1  0
 14 13  1  0
 15 14  2  0
 16 14  1  0
 17 16  1  0
 18 17  1  6
 19 18  1  0
 19  9  1  0
 20 18  1  0
 21 20  2  0
 22 20  1  0
 23 30  1  0
 23 22  1  0
 24 25  1  0
 23 24  1  1
 25 29  1  0
 26 27  1  0
 26 25  2  0
 27 28  1  0
 28 29  2  0
 30 32  1  0
 31 30  2  0
M  END
$$$$
