YQH.pdb
     RDKit          3D

 32 33  0  0  1  0  0  0  0  0999 V2000
    7.0565  -14.0775   13.3400 O   0  0  0  0  0  0  0  0  0  0  0  0
    7.9834  -14.4561   14.3281 C   0  0  0  0  0  0  0  0  0  0  0  0
    7.9375  -13.9250   15.5956 C   0  0  0  0  0  0  0  0  0  0  0  0
    8.8459  -14.2977   16.5598 C   0  0  0  0  0  0  0  0  0  0  0  0
    9.8525  -15.2287   16.2974 C   0  0  0  0  0  0  0  0  0  0  0  0
   10.8345  -15.6315   17.3393 C   0  0  0  0  0  0  0  0  0  0  0  0
   10.8240  -17.1219   17.4304 C   0  0  2  0  0  0  0  0  0  0  0  0
    9.4869  -17.5082   17.9096 N   0  0  0  0  0  0  0  0  0  0  0  0
   11.7949  -17.6827   18.3780 C   0  0  0  0  0  0  0  0  0  0  0  0
   11.3842  -17.8532   19.5772 O   0  0  0  0  0  0  0  0  0  0  0  0
    9.8844  -15.7516   15.0216 C   0  0  0  0  0  0  0  0  0  0  0  0
    8.9740  -15.3778   14.0561 C   0  0  0  0  0  0  0  0  0  0  0  0
   16.3658  -21.6205   17.2814 N   0  0  0  0  0  0  0  0  0  0  0  0
   16.3522  -20.3657   16.6264 C   0  0  0  0  0  0  0  0  0  0  0  0
   16.9687  -20.1635   15.5741 O   0  0  0  0  0  0  0  0  0  0  0  0
   15.5638  -19.2628   17.2397 C   0  0  0  0  0  0  0  0  0  0  0  0
   14.9248  -19.5934   18.5214 C   0  0  0  0  0  0  0  0  0  0  0  0
   13.9985  -18.6141   19.1479 C   0  0  2  0  0  0  0  0  0  0  0  0
   13.1144  -18.0436   18.0912 N   0  0  0  0  0  0  0  0  0  0  0  0
   14.6460  -17.4913   19.8620 C   0  0  0  0  0  0  0  0  0  0  0  0
   14.9888  -16.4247   19.2241 O   0  0  0  0  0  0  0  0  0  0  0  0
   14.9500  -17.4400   21.2405 N   0  0  0  0  0  0  0  0  0  0  0  0
   14.9138  -16.1924   21.9997 C   0  0  1  0  0  0  0  0  0  0  0  0
   13.4974  -15.6835   22.1489 C   0  0  0  0  0  0  0  0  0  0  0  0
   13.1093  -14.7241   21.1085 C   0  0  0  0  0  0  0  0  0  0  0  0
   13.8965  -14.2144   20.0842 C   0  0  0  0  0  0  0  0  0  0  0  0
   13.1545  -13.3556   19.3409 N   0  0  0  0  0  0  0  0  0  0  0  0
   11.9154  -13.3245   19.8897 C   0  0  0  0  0  0  0  0  0  0  0  0
   11.9061  -14.1539   20.9526 N   0  0  0  0  0  0  0  0  0  0  0  0
   15.5589  -16.4323   23.2958 C   0  0  0  0  0  0  0  0  0  0  0  0
   15.8610  -15.4663   24.0256 O   0  0  0  0  0  0  0  0  0  0  0  0
   15.8367  -17.7088   23.7202 O   0  0  0  0  0  0  0  0  0  0  0  0
  2  1  1  0
  3  2  2  0
  4  3  1  0
  5  4  2  0
  5 11  1  0
  6  5  1  0
  7  9  1  0
  7  6  1  0
  7  8  1  1
  9 10  2  0
 11 12  2  0
 12  2  1  0
 14 13  1  0
 15 14  2  0
 16 14  1  0
 17 16  1  0
 18 17  1  6
 19 18  1  0
 19  9  1  0
 20 18  1  0
 21 20  2  0
 22 20  1  0
 23 30  1  0
 23 22  1  0
 24 25  1  0
 23 24  1  1
 25 29  1  0
 26 27  1  0
 26 25  2  0
 27 28  1  0
 28 29  2  0
 30 32  1  0
 31 30  2  0
M  END
$$$$
