YQH.pdb
     RDKit          3D

 32 33  0  0  1  0  0  0  0  0999 V2000
    7.6034  -11.5681   17.6374 O   0  0  0  0  0  0  0  0  0  0  0  0
    8.0234  -12.5205   18.5836 C   0  0  0  0  0  0  0  0  0  0  0  0
    9.3572  -12.7614   18.8153 C   0  0  0  0  0  0  0  0  0  0  0  0
    9.7646  -13.6938   19.7417 C   0  0  0  0  0  0  0  0  0  0  0  0
    8.8464  -14.4360   20.4868 C   0  0  0  0  0  0  0  0  0  0  0  0
    9.2865  -15.4440   21.4880 C   0  0  0  0  0  0  0  0  0  0  0  0
   10.0104  -16.5292   20.7615 C   0  0  2  0  0  0  0  0  0  0  0  0
    9.0128  -17.2209   19.9289 N   0  0  0  0  0  0  0  0  0  0  0  0
   10.6192  -17.5446   21.6294 C   0  0  0  0  0  0  0  0  0  0  0  0
    9.8542  -18.4944   22.0148 O   0  0  0  0  0  0  0  0  0  0  0  0
    7.5131  -14.1823   20.2423 C   0  0  0  0  0  0  0  0  0  0  0  0
    7.1056  -13.2480   19.3139 C   0  0  0  0  0  0  0  0  0  0  0  0
   16.2724  -18.8145   21.8320 N   0  0  0  0  0  0  0  0  0  0  0  0
   15.3154  -19.4208   20.9833 C   0  0  0  0  0  0  0  0  0  0  0  0
   15.5962  -19.8106   19.8442 O   0  0  0  0  0  0  0  0  0  0  0  0
   13.9284  -19.5866   21.4957 C   0  0  0  0  0  0  0  0  0  0  0  0
   13.6956  -19.0508   22.8445 C   0  0  0  0  0  0  0  0  0  0  0  0
   12.3693  -18.4686   23.1784 C   0  0  2  0  0  0  0  0  0  0  0  0
   11.9459  -17.5673   22.0685 N   0  0  0  0  0  0  0  0  0  0  0  0
   12.3102  -17.7015   24.4425 C   0  0  0  0  0  0  0  0  0  0  0  0
   13.0854  -16.6878   24.6262 O   0  0  0  0  0  0  0  0  0  0  0  0
   11.4549  -17.9566   25.5374 N   0  0  0  0  0  0  0  0  0  0  0  0
   11.4028  -17.0803   26.7051 C   0  0  1  0  0  0  0  0  0  0  0  0
   10.2568  -16.0988   26.6020 C   0  0  0  0  0  0  0  0  0  0  0  0
   10.1232  -15.2318   27.7785 C   0  0  0  0  0  0  0  0  0  0  0  0
   10.8724  -15.2618   28.9474 C   0  0  0  0  0  0  0  0  0  0  0  0
   10.4267  -14.2914   29.7842 N   0  0  0  0  0  0  0  0  0  0  0  0
    9.4094  -13.6579   29.1506 C   0  0  0  0  0  0  0  0  0  0  0  0
    9.2404  -14.2368   27.9449 N   0  0  0  0  0  0  0  0  0  0  0  0
   11.3066  -17.9252   27.9012 C   0  0  0  0  0  0  0  0  0  0  0  0
   10.8922  -19.0978   27.7996 O   0  0  0  0  0  0  0  0  0  0  0  0
   11.6671  -17.4437   29.1360 O   0  0  0  0  0  0  0  0  0  0  0  0
  2  1  1  0
  3  2  2  0
  4  3  1  0
  5  4  2  0
  5 11  1  0
  6  5  1  0
  7  9  1  0
  7  6  1  0
  7  8  1  6
  9 10  2  0
 11 12  2  0
 12  2  1  0
 14 13  1  0
 15 14  2  0
 16 14  1  0
 17 16  1  0
 18 17  1  6
 19 18  1  0
 19  9  1  0
 20 18  1  0
 21 20  2  0
 22 20  1  0
 23 30  1  0
 23 22  1  0
 24 25  1  0
 23 24  1  6
 25 29  1  0
 26 27  1  0
 26 25  2  0
 27 28  1  0
 28 29  2  0
 30 32  1  0
 31 30  2  0
M  END
$$$$
