YQH.pdb
     RDKit          3D

 32 33  0  0  1  0  0  0  0  0999 V2000
    7.6837  -11.7138   17.1151 O   0  0  0  0  0  0  0  0  0  0  0  0
    7.7533  -12.5071   18.2747 C   0  0  0  0  0  0  0  0  0  0  0  0
    8.9109  -12.6009   19.0109 C   0  0  0  0  0  0  0  0  0  0  0  0
    8.9755  -13.3779   20.1449 C   0  0  0  0  0  0  0  0  0  0  0  0
    7.8732  -14.1043   20.5991 C   0  0  0  0  0  0  0  0  0  0  0  0
    7.9429  -14.9442   21.8246 C   0  0  0  0  0  0  0  0  0  0  0  0
    8.7763  -16.1436   21.5142 C   0  0  2  0  0  0  0  0  0  0  0  0
    7.9993  -16.9685   20.5747 N   0  0  0  0  0  0  0  0  0  0  0  0
    9.0825  -16.9912   22.6730 C   0  0  0  0  0  0  0  0  0  0  0  0
    8.1307  -17.7292   23.1037 O   0  0  0  0  0  0  0  0  0  0  0  0
    6.7205  -13.9992   19.8495 C   0  0  0  0  0  0  0  0  0  0  0  0
    6.6564  -13.2205   18.7135 C   0  0  0  0  0  0  0  0  0  0  0  0
   12.7368  -20.4294   22.2409 N   0  0  0  0  0  0  0  0  0  0  0  0
   13.4506  -19.2890   22.6811 C   0  0  0  0  0  0  0  0  0  0  0  0
   14.5420  -18.9664   22.1984 O   0  0  0  0  0  0  0  0  0  0  0  0
   12.8522  -18.4614   23.7632 C   0  0  0  0  0  0  0  0  0  0  0  0
   11.5497  -18.9307   24.2569 C   0  0  0  0  0  0  0  0  0  0  0  0
   10.4765  -17.9408   24.5361 C   0  0  2  0  0  0  0  0  0  0  0  0
   10.3077  -17.0641   23.3417 N   0  0  0  0  0  0  0  0  0  0  0  0
   10.6995  -17.0747   25.7151 C   0  0  0  0  0  0  0  0  0  0  0  0
   11.6023  -16.1548   25.6862 O   0  0  0  0  0  0  0  0  0  0  0  0
   10.0003  -17.1333   26.9411 N   0  0  0  0  0  0  0  0  0  0  0  0
   10.2555  -16.1917   28.0285 C   0  0  1  0  0  0  0  0  0  0  0  0
    8.9637  -15.6399   28.5891 C   0  0  0  0  0  0  0  0  0  0  0  0
    8.1830  -14.8740   27.6107 C   0  0  0  0  0  0  0  0  0  0  0  0
    8.5449  -14.5294   26.3149 C   0  0  0  0  0  0  0  0  0  0  0  0
    7.5377  -13.8189   25.7479 N   0  0  0  0  0  0  0  0  0  0  0  0
    6.5536  -13.7171   26.6746 C   0  0  0  0  0  0  0  0  0  0  0  0
    6.9588  -14.3577   27.7895 N   0  0  0  0  0  0  0  0  0  0  0  0
   11.0547  -16.8824   29.0472 C   0  0  0  0  0  0  0  0  0  0  0  0
   11.2905  -18.1019   28.9277 O   0  0  0  0  0  0  0  0  0  0  0  0
   11.5495  -16.2050   30.1348 O   0  0  0  0  0  0  0  0  0  0  0  0
  2  1  1  0
  3  2  2  0
  4  3  1  0
  5  4  2  0
  5 11  1  0
  6  5  1  0
  7  9  1  0
  7  6  1  0
  7  8  1  6
  9 10  2  0
 11 12  2  0
 12  2  1  0
 14 13  1  0
 15 14  2  0
 16 14  1  0
 17 16  1  0
 18 17  1  6
 19 18  1  0
 19  9  1  0
 20 18  1  0
 21 20  2  0
 22 20  1  0
 23 30  1  0
 23 22  1  0
 24 25  1  0
 23 24  1  1
 25 29  1  0
 26 27  1  0
 26 25  2  0
 27 28  1  0
 28 29  2  0
 30 32  1  0
 31 30  2  0
M  END
$$$$
