YQH.pdb
     RDKit          3D

 32 33  0  0  1  0  0  0  0  0999 V2000
    6.6748  -12.2849   17.3652 O   0  0  0  0  0  0  0  0  0  0  0  0
    7.3834  -13.0263   18.3280 C   0  0  0  0  0  0  0  0  0  0  0  0
    8.4803  -13.7821   17.9865 C   0  0  0  0  0  0  0  0  0  0  0  0
    9.1712  -14.5062   18.9309 C   0  0  0  0  0  0  0  0  0  0  0  0
    8.7924  -14.5075   20.2746 C   0  0  0  0  0  0  0  0  0  0  0  0
    9.5390  -15.2903   21.2955 C   0  0  0  0  0  0  0  0  0  0  0  0
    9.5389  -16.7213   20.8693 C   0  0  2  0  0  0  0  0  0  0  0  0
    8.1510  -17.1980   20.9837 N   0  0  0  0  0  0  0  0  0  0  0  0
   10.3636  -17.6063   21.7009 C   0  0  0  0  0  0  0  0  0  0  0  0
    9.9956  -17.7472   22.9177 O   0  0  0  0  0  0  0  0  0  0  0  0
    7.6907  -13.7447   20.6002 C   0  0  0  0  0  0  0  0  0  0  0  0
    6.9989  -13.0194   19.6535 C   0  0  0  0  0  0  0  0  0  0  0  0
   10.4851  -22.1522   22.1388 N   0  0  0  0  0  0  0  0  0  0  0  0
   11.0216  -21.8907   20.8553 C   0  0  0  0  0  0  0  0  0  0  0  0
   10.6119  -22.4637   19.8393 O   0  0  0  0  0  0  0  0  0  0  0  0
   12.1161  -20.8891   20.7431 C   0  0  0  0  0  0  0  0  0  0  0  0
   12.5887  -20.3386   22.0216 C   0  0  0  0  0  0  0  0  0  0  0  0
   12.4488  -18.8823   22.2841 C   0  0  2  0  0  0  0  0  0  0  0  0
   11.5032  -18.3021   21.2877 N   0  0  0  0  0  0  0  0  0  0  0  0
   13.7054  -18.1024   22.2347 C   0  0  0  0  0  0  0  0  0  0  0  0
   14.7236  -18.5481   21.5814 O   0  0  0  0  0  0  0  0  0  0  0  0
   13.9396  -16.8524   22.8496 N   0  0  0  0  0  0  0  0  0  0  0  0
   15.2343  -16.1796   22.7770 C   0  0  1  0  0  0  0  0  0  0  0  0
   15.0821  -14.7486   22.3115 C   0  0  0  0  0  0  0  0  0  0  0  0
   14.8539  -14.6259   20.8670 C   0  0  0  0  0  0  0  0  0  0  0  0
   14.8699  -15.6358   19.9139 C   0  0  0  0  0  0  0  0  0  0  0  0
   14.6116  -15.0987   18.6952 N   0  0  0  0  0  0  0  0  0  0  0  0
   14.4351  -13.7672   18.8779 C   0  0  0  0  0  0  0  0  0  0  0  0
   14.5844  -13.5001   20.1909 N   0  0  0  0  0  0  0  0  0  0  0  0
   15.8669  -16.2713   24.0979 C   0  0  0  0  0  0  0  0  0  0  0  0
   15.2526  -16.8064   25.0431 O   0  0  0  0  0  0  0  0  0  0  0  0
   17.1299  -15.7753   24.3114 O   0  0  0  0  0  0  0  0  0  0  0  0
  2  1  1  0
  3  2  2  0
  4  3  1  0
  5  4  2  0
  5 11  1  0
  6  5  1  0
  7  9  1  0
  7  6  1  0
  7  8  1  1
  9 10  2  0
 11 12  2  0
 12  2  1  0
 14 13  1  0
 15 14  2  0
 16 14  1  0
 17 16  1  0
 18 17  1  6
 19 18  1  0
 19  9  1  0
 20 18  1  0
 21 20  2  0
 22 20  1  0
 23 30  1  0
 23 22  1  0
 24 25  1  0
 23 24  1  1
 25 29  1  0
 26 27  1  0
 26 25  2  0
 27 28  1  0
 28 29  2  0
 30 32  1  0
 31 30  2  0
M  END
$$$$
