YQH.pdb
     RDKit          3D

 32 33  0  0  1  0  0  0  0  0999 V2000
    8.6355  -12.3085   17.8073 O   0  0  0  0  0  0  0  0  0  0  0  0
    8.2138  -12.9124   19.0058 C   0  0  0  0  0  0  0  0  0  0  0  0
    8.7121  -12.5136   20.2238 C   0  0  0  0  0  0  0  0  0  0  0  0
    8.2973  -13.1066   21.3942 C   0  0  0  0  0  0  0  0  0  0  0  0
    7.3551  -14.1367   21.4000 C   0  0  0  0  0  0  0  0  0  0  0  0
    6.9068  -14.7778   22.6650 C   0  0  0  0  0  0  0  0  0  0  0  0
    8.0434  -15.5846   23.2003 C   0  0  2  0  0  0  0  0  0  0  0  0
    8.5733  -16.3705   22.0741 N   0  0  0  0  0  0  0  0  0  0  0  0
    7.6723  -16.5410   24.2503 C   0  0  0  0  0  0  0  0  0  0  0  0
    7.1200  -16.0512   25.2948 O   0  0  0  0  0  0  0  0  0  0  0  0
    6.8655  -14.5245   20.1704 C   0  0  0  0  0  0  0  0  0  0  0  0
    7.2815  -13.9300   18.9980 C   0  0  0  0  0  0  0  0  0  0  0  0
    7.6497  -21.0355   22.4639 N   0  0  0  0  0  0  0  0  0  0  0  0
    6.4170  -20.3427   22.3991 C   0  0  0  0  0  0  0  0  0  0  0  0
    5.8048  -20.1825   21.3370 O   0  0  0  0  0  0  0  0  0  0  0  0
    5.8530  -19.7945   23.6621 C   0  0  0  0  0  0  0  0  0  0  0  0
    6.7086  -19.9554   24.8465 C   0  0  0  0  0  0  0  0  0  0  0  0
    7.4658  -18.7851   25.3629 C   0  0  2  0  0  0  0  0  0  0  0  0
    7.8658  -17.9248   24.2125 N   0  0  0  0  0  0  0  0  0  0  0  0
    8.6820  -19.1066   26.1421 C   0  0  0  0  0  0  0  0  0  0  0  0
    8.7838  -20.2366   26.7543 O   0  0  0  0  0  0  0  0  0  0  0  0
    9.8151  -18.2789   26.3047 N   0  0  0  0  0  0  0  0  0  0  0  0
   11.0174  -18.7328   26.9994 C   0  0  1  0  0  0  0  0  0  0  0  0
   12.2064  -17.8609   26.6624 C   0  0  0  0  0  0  0  0  0  0  0  0
   12.5013  -17.8059   25.2259 C   0  0  0  0  0  0  0  0  0  0  0  0
   11.8420  -18.4638   24.1958 C   0  0  0  0  0  0  0  0  0  0  0  0
   12.4304  -18.1419   23.0165 N   0  0  0  0  0  0  0  0  0  0  0  0
   13.4476  -17.2918   23.2998 C   0  0  0  0  0  0  0  0  0  0  0  0
   13.4758  -17.1007   24.6341 N   0  0  0  0  0  0  0  0  0  0  0  0
   10.7295  -18.7503   28.4383 C   0  0  0  0  0  0  0  0  0  0  0  0
    9.6468  -18.2944   28.8589 O   0  0  0  0  0  0  0  0  0  0  0  0
   11.6368  -19.2626   29.3333 O   0  0  0  0  0  0  0  0  0  0  0  0
  2  1  1  0
  3  2  2  0
  4  3  1  0
  5  4  2  0
  5 11  1  0
  6  5  1  0
  7  9  1  0
  7  6  1  0
  7  8  1  6
  9 10  2  0
 11 12  2  0
 12  2  1  0
 14 13  1  0
 15 14  2  0
 16 14  1  0
 17 16  1  0
 18 17  1  6
 19 18  1  0
 19  9  1  0
 20 18  1  0
 21 20  2  0
 22 20  1  0
 23 30  1  0
 23 22  1  0
 24 25  1  0
 23 24  1  1
 25 29  1  0
 26 27  1  0
 26 25  2  0
 27 28  1  0
 28 29  2  0
 30 32  1  0
 31 30  2  0
M  END
$$$$
