RQV.pdb
     RDKit          3D

 28 27  0  0  1  0  0  0  0  0999 V2000
   15.7284  -15.0152  -14.3410 N   0  0  0  0  0  0  0  0  0  0  0  0
   16.5694  -14.8697  -15.4745 C   0  0  0  0  0  0  0  0  0  0  0  0
   16.2887  -15.4553  -16.5722 N   0  0  0  0  0  0  0  0  0  0  0  0
   17.7451  -14.0554  -15.3796 N   0  0  0  0  0  0  0  0  0  0  0  0
   17.7056  -12.7323  -14.8514 C   0  0  0  0  0  0  0  0  0  0  0  0
   17.6298  -11.5703  -15.7279 C   0  0  0  0  0  0  0  0  0  0  0  0
   17.6199  -10.1788  -15.2676 C   0  0  0  0  0  0  0  0  0  0  0  0
   16.6522   -9.8355  -14.2229 C   0  0  2  0  0  0  0  0  0  0  0  0
   15.3079   -9.9804  -14.6143 N   0  0  0  0  0  0  0  0  0  0  0  0
   16.8567   -8.4484  -13.6711 C   0  0  0  0  0  0  0  0  0  0  0  0
   16.6100   -7.4679  -14.4206 O   0  0  0  0  0  0  0  0  0  0  0  0
   16.9010  -15.3132  -17.4010 N   0  0  0  0  0  0  0  0  0  0  0  0
   15.4069   -7.1430   -8.0739 C   0  0  0  0  0  0  0  0  0  0  0  0
   15.0147   -6.3828   -9.1909 O   0  0  0  0  0  0  0  0  0  0  0  0
   14.1778   -5.4652   -9.0432 C   0  0  0  0  0  0  0  0  0  0  0  0
   15.5747   -6.6570  -10.5107 C   0  0  0  0  0  0  0  0  0  0  0  0
   17.0901   -6.7105  -10.4376 C   0  0  2  0  0  0  0  0  0  0  0  0
   17.5923   -6.8729  -11.8536 N   0  0  0  0  0  0  0  0  0  0  0  0
   17.3066   -8.1810  -12.3696 C   0  0  0  0  0  0  0  0  0  0  0  0
   19.0200   -6.5243  -11.8742 O   0  0  0  0  0  0  0  0  0  0  0  0
   19.9196   -7.1281  -11.2352 C   0  0  0  0  0  0  0  0  0  0  0  0
   21.4865   -7.0183  -13.9886 C   0  0  2  0  0  0  0  0  0  0  0  0
   21.4679   -5.5204  -13.9668 C   0  0  0  0  0  0  0  0  0  0  0  0
   20.6755   -5.0500  -15.1678 C   0  0  2  0  0  0  0  0  0  0  0  0
   20.8376   -5.0091  -12.6690 N   0  0  0  0  0  0  0  0  0  0  0  0
   19.4269   -5.4207  -12.6754 C   0  0  0  0  0  0  0  0  0  0  0  0
   20.9672   -3.5454  -12.6436 O   0  0  0  0  0  0  0  0  0  0  0  0
   19.9887   -2.8349  -12.9426 O   0  0  0  0  0  0  0  0  0  0  0  0
  2  1  1  0
  3  2  2  0
  4  2  1  0
  5  4  1  0
  6  5  1  0
  7  6  1  0
  8  7  1  0
  8  9  1  6
 10  8  1  0
 10 18  1  0
 11 10  2  0
 13 12  1  0
 14 13  2  0
 15 13  1  0
 16 15  1  0
 17 16  1  6
 17 18  1  0
 19 17  1  0
 20 19  2  0
 22 21  1  6
 22 23  1  0
 22 24  1  0
 24 26  1  0
 24 25  1  1
 25 19  1  0
 26 28  1  0
 27 26  2  0
M  END
$$$$
