RQV.pdb
     RDKit          3D

 28 27  0  0  1  0  0  0  0  0999 V2000
   17.0943  -23.2630  -10.4856 N   0  0  0  0  0  0  0  0  0  0  0  0
   17.8395  -24.0862  -11.3691 C   0  0  0  0  0  0  0  0  0  0  0  0
   17.8196  -25.3556  -11.2477 N   0  0  0  0  0  0  0  0  0  0  0  0
   18.6207  -23.4800  -12.4067 N   0  0  0  0  0  0  0  0  0  0  0  0
   18.3023  -22.1967  -12.9386 C   0  0  0  0  0  0  0  0  0  0  0  0
   19.0152  -21.0010  -12.5066 C   0  0  0  0  0  0  0  0  0  0  0  0
   19.5965  -20.0053  -13.4114 C   0  0  0  0  0  0  0  0  0  0  0  0
   20.6736  -20.4626  -14.2926 C   0  0  2  0  0  0  0  0  0  0  0  0
   20.6448  -21.8428  -14.5674 N   0  0  0  0  0  0  0  0  0  0  0  0
   22.0421  -20.0916  -13.7824 C   0  0  0  0  0  0  0  0  0  0  0  0
   22.3003  -18.8727  -13.6049 O   0  0  0  0  0  0  0  0  0  0  0  0
   18.4113  -25.9403  -11.8722 N   0  0  0  0  0  0  0  0  0  0  0  0
   25.0014  -20.9462   -9.5001 C   0  0  0  0  0  0  0  0  0  0  0  0
   26.1942  -20.7501  -10.2199 O   0  0  0  0  0  0  0  0  0  0  0  0
   27.1885  -20.2656   -9.6361 C   0  0  0  0  0  0  0  0  0  0  0  0
   26.2771  -21.1063  -11.6331 C   0  0  0  0  0  0  0  0  0  0  0  0
   24.9513  -21.6704  -12.1113 C   0  0  2  0  0  0  0  0  0  0  0  0
   24.3925  -20.6878  -13.1142 N   0  0  0  0  0  0  0  0  0  0  0  0
   23.0495  -21.0236  -13.4921 C   0  0  0  0  0  0  0  0  0  0  0  0
   25.3269  -20.6100  -14.2462 O   0  0  0  0  0  0  0  0  0  0  0  0
   25.4468  -21.4826  -15.1441 C   0  0  0  0  0  0  0  0  0  0  0  0
   28.2095  -17.4264  -16.7443 C   0  0  2  0  0  0  0  0  0  0  0  0
   27.4938  -17.7954  -15.4809 C   0  0  0  0  0  0  0  0  0  0  0  0
   26.4493  -16.7328  -15.2136 C   0  0  1  0  0  0  0  0  0  0  0  0
   26.8412  -19.1735  -15.6154 N   0  0  0  0  0  0  0  0  0  0  0  0
   26.1647  -19.4637  -14.3435 C   0  0  0  0  0  0  0  0  0  0  0  0
   27.8989  -20.1549  -15.8943 O   0  0  0  0  0  0  0  0  0  0  0  0
   28.5268  -20.6695  -14.9494 O   0  0  0  0  0  0  0  0  0  0  0  0
  2  1  1  0
  3  2  2  0
  4  2  1  0
  5  4  1  0
  6  5  1  0
  7  6  1  0
  8  7  1  0
  8  9  1  1
 10  8  1  0
 10 18  1  0
 11 10  2  0
 13 12  1  0
 14 13  2  0
 15 13  1  0
 16 15  1  0
 17 16  1  1
 17 18  1  0
 19 17  1  0
 20 19  2  0
 22 21  1  1
 22 23  1  0
 22 24  1  0
 24 26  1  0
 24 25  1  1
 25 19  1  0
 26 28  1  0
 27 26  2  0
M  END
$$$$
