RQV.pdb
     RDKit          3D

 28 27  0  0  1  0  0  0  0  0999 V2000
   32.5996  -20.7675  -11.6473 N   0  0  0  0  0  0  0  0  0  0  0  0
   32.9324  -21.9031  -12.4303 C   0  0  0  0  0  0  0  0  0  0  0  0
   33.3522  -22.9735  -11.8782 N   0  0  0  0  0  0  0  0  0  0  0  0
   32.7937  -21.8415  -13.8555 N   0  0  0  0  0  0  0  0  0  0  0  0
   31.9888  -20.8531  -14.4930 C   0  0  0  0  0  0  0  0  0  0  0  0
   30.7801  -20.3395  -13.8609 C   0  0  0  0  0  0  0  0  0  0  0  0
   29.4239  -20.5200  -14.3867 C   0  0  0  0  0  0  0  0  0  0  0  0
   28.8070  -21.8333  -14.1861 C   0  0  2  0  0  0  0  0  0  0  0  0
   28.9818  -22.7215  -15.2641 N   0  0  0  0  0  0  0  0  0  0  0  0
   27.3396  -21.7443  -13.8556 C   0  0  0  0  0  0  0  0  0  0  0  0
   26.5087  -21.9467  -14.7789 O   0  0  0  0  0  0  0  0  0  0  0  0
   33.6630  -23.7693  -12.4716 N   0  0  0  0  0  0  0  0  0  0  0  0
   24.5034  -20.8395   -8.1791 C   0  0  0  0  0  0  0  0  0  0  0  0
   23.4565  -20.9293   -9.1147 O   0  0  0  0  0  0  0  0  0  0  0  0
   22.2726  -20.9081   -8.7121 C   0  0  0  0  0  0  0  0  0  0  0  0
   23.7423  -21.0463  -10.5415 C   0  0  0  0  0  0  0  0  0  0  0  0
   25.2418  -21.0771  -10.7761 C   0  0  2  0  0  0  0  0  0  0  0  0
   25.4500  -21.2997  -12.2561 N   0  0  0  0  0  0  0  0  0  0  0  0
   26.8403  -21.4488  -12.5784 C   0  0  0  0  0  0  0  0  0  0  0  0
   24.7858  -20.2063  -12.9799 O   0  0  0  0  0  0  0  0  0  0  0  0
   25.1133  -18.9936  -12.9139 C   0  0  0  0  0  0  0  0  0  0  0  0
   22.5351  -21.1480  -16.3625 C   0  0  2  0  0  0  0  0  0  0  0  0
   23.1703  -19.8220  -16.0746 C   0  0  0  0  0  0  0  0  0  0  0  0
   22.4872  -18.7843  -16.9396 C   0  0  1  0  0  0  0  0  0  0  0  0
   23.0287  -19.4684  -14.5920 N   0  0  0  0  0  0  0  0  0  0  0  0
   23.6869  -20.5336  -13.8230 C   0  0  0  0  0  0  0  0  0  0  0  0
   21.5956  -19.3885  -14.2761 O   0  0  0  0  0  0  0  0  0  0  0  0
   21.0006  -20.3979  -13.8532 O   0  0  0  0  0  0  0  0  0  0  0  0
  2  1  1  0
  3  2  2  0
  4  2  1  0
  5  4  1  0
  6  5  1  0
  7  6  1  0
  8  7  1  0
  8  9  1  6
 10  8  1  0
 10 18  1  0
 11 10  2  0
 13 12  1  0
 14 13  2  0
 15 13  1  0
 16 15  1  0
 17 16  1  1
 17 18  1  0
 19 17  1  0
 20 19  2  0
 22 21  1  6
 22 23  1  0
 22 24  1  0
 24 26  1  0
 24 25  1  6
 25 19  1  0
 26 28  1  0
 27 26  2  0
M  END
$$$$
