RQV.pdb
     RDKit          3D

 28 27  0  0  1  0  0  0  0  0999 V2000
   17.3911  -26.3887   -9.3452 N   0  0  0  0  0  0  0  0  0  0  0  0
   17.9447  -27.5742   -9.8944 C   0  0  0  0  0  0  0  0  0  0  0  0
   17.5500  -28.7205   -9.4983 N   0  0  0  0  0  0  0  0  0  0  0  0
   18.9574  -27.4770  -10.9040 N   0  0  0  0  0  0  0  0  0  0  0  0
   19.3554  -26.2243  -11.4549 C   0  0  0  0  0  0  0  0  0  0  0  0
   18.5695  -25.5715  -12.4944 C   0  0  0  0  0  0  0  0  0  0  0  0
   18.9411  -24.3176  -13.1560 C   0  0  0  0  0  0  0  0  0  0  0  0
   19.3180  -23.1994  -12.2881 C   0  0  2  0  0  0  0  0  0  0  0  0
   18.3564  -22.8804  -11.3108 N   0  0  0  0  0  0  0  0  0  0  0  0
   19.6661  -21.9531  -13.0602 C   0  0  0  0  0  0  0  0  0  0  0  0
   18.9303  -20.9417  -12.9200 O   0  0  0  0  0  0  0  0  0  0  0  0
   17.9587  -29.5785   -9.9213 N   0  0  0  0  0  0  0  0  0  0  0  0
   24.9228  -17.7549  -15.8858 C   0  0  0  0  0  0  0  0  0  0  0  0
   24.3999  -18.9448  -15.3471 O   0  0  0  0  0  0  0  0  0  0  0  0
   25.1826  -19.7989  -14.8759 C   0  0  0  0  0  0  0  0  0  0  0  0
   22.9602  -19.1860  -15.3352 C   0  0  0  0  0  0  0  0  0  0  0  0
   22.6602  -20.5443  -14.7275 C   0  0  2  0  0  0  0  0  0  0  0  0
   21.1573  -20.6511  -14.6119 N   0  0  0  0  0  0  0  0  0  0  0  0
   20.7630  -21.8497  -13.9285 C   0  0  0  0  0  0  0  0  0  0  0  0
   20.5854  -20.5196  -15.9595 O   0  0  0  0  0  0  0  0  0  0  0  0
   20.6434  -21.3990  -16.8570 C   0  0  0  0  0  0  0  0  0  0  0  0
   17.1105  -18.7133  -16.3608 C   0  0  2  0  0  0  0  0  0  0  0  0
   18.0687  -18.2091  -17.3962 C   0  0  0  0  0  0  0  0  0  0  0  0
   18.5786  -16.8598  -16.9367 C   0  0  2  0  0  0  0  0  0  0  0  0
   19.2282  -19.1915  -17.5798 N   0  0  0  0  0  0  0  0  0  0  0  0
   19.9123  -19.3085  -16.2844 C   0  0  0  0  0  0  0  0  0  0  0  0
   20.1254  -18.6521  -18.6112 O   0  0  0  0  0  0  0  0  0  0  0  0
   21.1724  -18.0679  -18.2730 O   0  0  0  0  0  0  0  0  0  0  0  0
  2  1  1  0
  3  2  2  0
  4  2  1  0
  5  4  1  0
  6  5  1  0
  7  6  1  0
  8  7  1  0
  8  9  1  1
 10  8  1  0
 10 18  1  0
 11 10  2  0
 13 12  1  0
 14 13  2  0
 15 13  1  0
 16 15  1  0
 17 16  1  1
 17 18  1  0
 19 17  1  0
 20 19  2  0
 22 21  1  6
 22 23  1  0
 22 24  1  0
 24 26  1  0
 24 25  1  6
 25 19  1  0
 26 28  1  0
 27 26  2  0
M  END
$$$$
