RQV.pdb
     RDKit          3D

 28 27  0  0  1  0  0  0  0  0999 V2000
   19.0804  -15.7963  -15.9997 N   0  0  0  0  0  0  0  0  0  0  0  0
   19.4890  -16.7901  -16.9264 C   0  0  0  0  0  0  0  0  0  0  0  0
   20.0128  -16.4628  -18.0423 N   0  0  0  0  0  0  0  0  0  0  0  0
   19.3089  -18.1741  -16.6005 N   0  0  0  0  0  0  0  0  0  0  0  0
   18.8950  -18.5959  -15.3036 C   0  0  0  0  0  0  0  0  0  0  0  0
   19.3818  -17.9315  -14.1012 C   0  0  0  0  0  0  0  0  0  0  0  0
   19.9172  -18.6239  -12.9255 C   0  0  0  0  0  0  0  0  0  0  0  0
   19.9613  -20.0868  -12.9838 C   0  0  2  0  0  0  0  0  0  0  0  0
   19.2002  -20.7253  -11.9865 N   0  0  0  0  0  0  0  0  0  0  0  0
   21.3665  -20.6300  -12.9528 C   0  0  0  0  0  0  0  0  0  0  0  0
   22.1231  -20.2688  -12.0141 O   0  0  0  0  0  0  0  0  0  0  0  0
   20.3224  -17.2055  -18.7015 N   0  0  0  0  0  0  0  0  0  0  0  0
   24.0828  -25.1829  -16.5426 C   0  0  0  0  0  0  0  0  0  0  0  0
   25.0816  -24.7488  -15.6520 O   0  0  0  0  0  0  0  0  0  0  0  0
   26.1861  -25.3354  -15.6382 C   0  0  0  0  0  0  0  0  0  0  0  0
   24.8380  -23.6264  -14.7510 C   0  0  0  0  0  0  0  0  0  0  0  0
   23.4265  -23.0997  -14.9377 C   0  0  2  0  0  0  0  0  0  0  0  0
   23.2473  -21.9663  -13.9545 N   0  0  0  0  0  0  0  0  0  0  0  0
   21.8856  -21.5161  -13.9084 C   0  0  0  0  0  0  0  0  0  0  0  0
   24.2114  -20.9103  -14.2948 O   0  0  0  0  0  0  0  0  0  0  0  0
   23.9975  -19.9712  -15.1038 C   0  0  0  0  0  0  0  0  0  0  0  0
   27.1754  -20.0381  -11.6051 C   0  0  2  0  0  0  0  0  0  0  0  0
   27.6512  -20.0758  -13.0252 C   0  0  0  0  0  0  0  0  0  0  0  0
   28.3374  -21.4066  -13.2481 C   0  0  2  0  0  0  0  0  0  0  0  0
   26.4759  -19.9049  -13.9909 N   0  0  0  0  0  0  0  0  0  0  0  0
   25.4879  -20.9431  -13.6664 C   0  0  0  0  0  0  0  0  0  0  0  0
   26.9840  -20.0601  -15.3612 O   0  0  0  0  0  0  0  0  0  0  0  0
   26.7930  -21.1289  -15.9718 O   0  0  0  0  0  0  0  0  0  0  0  0
  2  1  1  0
  3  2  2  0
  4  2  1  0
  5  4  1  0
  6  5  1  0
  7  6  1  0
  8  7  1  0
  8  9  1  1
 10  8  1  0
 10 18  1  0
 11 10  2  0
 13 12  1  0
 14 13  2  0
 15 13  1  0
 16 15  1  0
 17 16  1  1
 17 18  1  0
 19 17  1  0
 20 19  2  0
 22 21  1  1
 22 23  1  0
 22 24  1  0
 24 26  1  0
 24 25  1  6
 25 19  1  0
 26 28  1  0
 27 26  2  0
M  END
$$$$
