INR.pdb
     RDKit          3D

 28 27  0  0  1  0  0  0  0  0999 V2000
    7.1284  -12.1080   18.3520 C   0  0  0  0  0  0  0  0  0  0  0  0
    8.5127  -12.6647   18.5188 C   0  0  0  0  0  0  0  0  0  0  0  0
    8.5143  -13.7029   19.6189 C   0  0  2  0  0  0  0  0  0  0  0  0
    7.9094  -13.1070   20.8500 C   0  0  0  0  0  0  0  0  0  0  0  0
    9.9022  -14.2633   19.8450 C   0  0  2  0  0  0  0  0  0  0  0  0
   10.4834  -14.6149   18.5778 N   0  0  0  0  0  0  0  0  0  0  0  0
    9.8787  -15.4082   20.7912 C   0  0  0  0  0  0  0  0  0  0  0  0
    9.1975  -15.3369   21.8451 O   0  0  0  0  0  0  0  0  0  0  0  0
   11.8062  -19.4734   18.7001 N   0  0  0  0  0  0  0  0  0  0  0  0
   10.9844  -19.3511   19.8372 C   0  0  0  0  0  0  0  0  0  0  0  0
    9.7691  -19.7199   19.6724 O   0  0  0  0  0  0  0  0  0  0  0  0
   11.3934  -18.8528   21.1508 C   0  0  0  0  0  0  0  0  0  0  0  0
   10.6954  -17.6025   21.5543 C   0  0  2  0  0  0  0  0  0  0  0  0
   10.6108  -16.6035   20.5457 N   0  0  0  0  0  0  0  0  0  0  0  0
   11.2985  -17.0894   22.8255 C   0  0  0  0  0  0  0  0  0  0  0  0
   11.9281  -15.9840   22.8747 O   0  0  0  0  0  0  0  0  0  0  0  0
    5.6094  -13.6080   26.7923 N   0  0  0  0  0  0  0  0  0  0  0  0
    6.7807  -12.8281   26.6064 C   0  0  0  0  0  0  0  0  0  0  0  0
    6.7564  -11.5827   26.9402 N   0  0  0  0  0  0  0  0  0  0  0  0
    7.9606  -13.4043   26.0630 N   0  0  0  0  0  0  0  0  0  0  0  0
    7.8946  -14.7031   25.3862 C   0  0  0  0  0  0  0  0  0  0  0  0
    9.2909  -15.1747   25.0689 C   0  0  0  0  0  0  0  0  0  0  0  0
    9.3346  -16.6937   25.0921 C   0  0  0  0  0  0  0  0  0  0  0  0
   10.7491  -17.1966   25.2846 C   0  0  2  0  0  0  0  0  0  0  0  0
   11.2055  -17.8008   24.0494 N   0  0  0  0  0  0  0  0  0  0  0  0
   10.7293  -18.1785   26.3988 C   0  0  0  0  0  0  0  0  0  0  0  0
   11.1669  -17.8709   27.5355 O   0  0  0  0  0  0  0  0  0  0  0  0
   10.2188  -19.4453   26.1659 O   0  0  0  0  0  0  0  0  0  0  0  0
  2  1  1  0
  3  2  1  0
  3  4  1  1
  5  3  1  0
  5  6  1  6
  7  8  2  0
  7  5  1  0
  9 10  1  0
 10 11  2  0
 10 12  1  0
 13 12  1  6
 13 14  1  0
 14  7  1  0
 15 16  2  0
 15 13  1  0
 17 18  1  0
 18 19  2  0
 20 18  1  0
 20 21  1  0
 22 21  1  0
 23 22  1  0
 24 23  1  6
 24 25  1  0
 25 15  1  0
 26 24  1  0
 27 26  2  0
 28 26  1  0
M  END
$$$$
