INR.pdb
     RDKit          3D

 28 27  0  0  1  0  0  0  0  0999 V2000
    6.5177  -12.2304   20.0440 C   0  0  0  0  0  0  0  0  0  0  0  0
    7.2658  -13.2897   19.2877 C   0  0  0  0  0  0  0  0  0  0  0  0
    8.1313  -14.0814   20.2428 C   0  0  2  0  0  0  0  0  0  0  0  0
    9.0237  -13.1384   20.9851 C   0  0  0  0  0  0  0  0  0  0  0  0
    8.8863  -15.1777   19.5220 C   0  0  2  0  0  0  0  0  0  0  0  0
    7.9547  -15.9916   18.7892 N   0  0  0  0  0  0  0  0  0  0  0  0
    9.7143  -15.9762   20.4618 C   0  0  0  0  0  0  0  0  0  0  0  0
    9.2217  -16.9820   21.0325 O   0  0  0  0  0  0  0  0  0  0  0  0
   14.3836  -14.7181   19.8790 N   0  0  0  0  0  0  0  0  0  0  0  0
   13.8301  -15.9280   20.3409 C   0  0  0  0  0  0  0  0  0  0  0  0
   13.8237  -16.8837   19.4886 O   0  0  0  0  0  0  0  0  0  0  0  0
   13.2791  -16.1741   21.6739 C   0  0  0  0  0  0  0  0  0  0  0  0
   11.8120  -16.4202   21.6729 C   0  0  2  0  0  0  0  0  0  0  0  0
   11.0676  -15.6401   20.7457 N   0  0  0  0  0  0  0  0  0  0  0  0
   11.2918  -16.3050   23.0726 C   0  0  0  0  0  0  0  0  0  0  0  0
   11.4005  -15.2298   23.7457 O   0  0  0  0  0  0  0  0  0  0  0  0
    5.5991  -17.9152   22.2295 N   0  0  0  0  0  0  0  0  0  0  0  0
    6.0434  -19.2002   21.8218 C   0  0  0  0  0  0  0  0  0  0  0  0
    5.7349  -19.6177   20.6414 N   0  0  0  0  0  0  0  0  0  0  0  0
    6.8141  -20.0150   22.6944 N   0  0  0  0  0  0  0  0  0  0  0  0
    7.2150  -19.5029   24.0083 C   0  0  0  0  0  0  0  0  0  0  0  0
    8.3820  -18.5625   23.8453 C   0  0  0  0  0  0  0  0  0  0  0  0
    8.9121  -18.1643   25.2128 C   0  0  0  0  0  0  0  0  0  0  0  0
   10.1451  -17.2953   25.0888 C   0  0  2  0  0  0  0  0  0  0  0  0
   10.6476  -17.3829   23.7327 N   0  0  0  0  0  0  0  0  0  0  0  0
   11.1422  -17.7866   26.0739 C   0  0  0  0  0  0  0  0  0  0  0  0
   12.2147  -18.3187   25.6933 O   0  0  0  0  0  0  0  0  0  0  0  0
   10.8716  -17.6493   27.4258 O   0  0  0  0  0  0  0  0  0  0  0  0
  2  1  1  0
  3  2  1  0
  3  4  1  6
  5  3  1  0
  5  6  1  1
  7  8  2  0
  7  5  1  0
  9 10  1  0
 10 11  2  0
 10 12  1  0
 13 12  1  1
 13 14  1  0
 14  7  1  0
 15 16  2  0
 15 13  1  0
 17 18  1  0
 18 19  2  0
 20 18  1  0
 20 21  1  0
 22 21  1  0
 23 22  1  0
 24 23  1  6
 24 25  1  0
 25 15  1  0
 26 24  1  0
 27 26  2  0
 28 26  1  0
M  END
$$$$
