INR.pdb
     RDKit          3D

 28 27  0  0  1  0  0  0  0  0999 V2000
    7.3524  -11.5203   18.9150 C   0  0  0  0  0  0  0  0  0  0  0  0
    7.7405  -12.9690   18.9820 C   0  0  0  0  0  0  0  0  0  0  0  0
    8.4136  -13.2547   20.3062 C   0  0  2  0  0  0  0  0  0  0  0  0
    9.5834  -12.3363   20.4645 C   0  0  0  0  0  0  0  0  0  0  0  0
    8.7801  -14.7179   20.4333 C   0  0  2  0  0  0  0  0  0  0  0  0
    7.6356  -15.5232   20.1033 N   0  0  0  0  0  0  0  0  0  0  0  0
    9.3175  -15.0286   21.7828 C   0  0  0  0  0  0  0  0  0  0  0  0
   10.3943  -14.5047   22.1649 O   0  0  0  0  0  0  0  0  0  0  0  0
    6.1394  -14.7387   25.0878 N   0  0  0  0  0  0  0  0  0  0  0  0
    7.5137  -14.9699   25.2910 C   0  0  0  0  0  0  0  0  0  0  0  0
    8.1801  -13.9581   25.7060 O   0  0  0  0  0  0  0  0  0  0  0  0
    8.2200  -16.2328   25.0734 C   0  0  0  0  0  0  0  0  0  0  0  0
    9.2023  -16.1782   23.9576 C   0  0  2  0  0  0  0  0  0  0  0  0
    8.6481  -15.9120   22.6752 N   0  0  0  0  0  0  0  0  0  0  0  0
   10.0408  -17.4189   23.9776 C   0  0  0  0  0  0  0  0  0  0  0  0
    9.5277  -18.5771   24.1050 O   0  0  0  0  0  0  0  0  0  0  0  0
   15.1504  -15.0794   20.2677 N   0  0  0  0  0  0  0  0  0  0  0  0
   13.8795  -15.4788   19.7778 C   0  0  0  0  0  0  0  0  0  0  0  0
   13.0320  -14.5688   19.4367 N   0  0  0  0  0  0  0  0  0  0  0  0
   13.5426  -16.8546   19.6635 N   0  0  0  0  0  0  0  0  0  0  0  0
   13.8785  -17.7816   20.7485 C   0  0  0  0  0  0  0  0  0  0  0  0
   13.4200  -17.2026   22.0627 C   0  0  0  0  0  0  0  0  0  0  0  0
   13.6011  -18.2324   23.1656 C   0  0  0  0  0  0  0  0  0  0  0  0
   12.2785  -18.5712   23.8191 C   0  0  2  0  0  0  0  0  0  0  0  0
   11.4537  -17.3806   23.8560 N   0  0  0  0  0  0  0  0  0  0  0  0
   12.5687  -19.0778   25.1848 C   0  0  0  0  0  0  0  0  0  0  0  0
   12.2177  -18.4271   26.2005 O   0  0  0  0  0  0  0  0  0  0  0  0
   13.2354  -20.2843   25.3238 O   0  0  0  0  0  0  0  0  0  0  0  0
  2  1  1  0
  3  2  1  0
  3  4  1  6
  5  3  1  0
  5  6  1  1
  7  8  2  0
  7  5  1  0
  9 10  1  0
 10 11  2  0
 10 12  1  0
 13 12  1  1
 13 14  1  0
 14  7  1  0
 15 16  2  0
 15 13  1  0
 17 18  1  0
 18 19  2  0
 20 18  1  0
 20 21  1  0
 22 21  1  0
 23 22  1  0
 24 23  1  1
 24 25  1  0
 25 15  1  0
 26 24  1  0
 27 26  2  0
 28 26  1  0
M  END
$$$$
