NRD.pdb
     RDKit          3D

 28 27  0  0  1  0  0  0  0  0999 V2000
   26.9418  -22.5914  -14.7326 N   0  0  0  0  0  0  0  0  0  0  0  0
   26.7898  -21.2271  -15.0794 C   0  0  0  0  0  0  0  0  0  0  0  0
   27.7491  -20.6341  -15.6295 O   0  0  0  0  0  0  0  0  0  0  0  0
   25.5416  -20.5047  -14.8085 C   0  0  0  0  0  0  0  0  0  0  0  0
   24.5058  -21.4776  -14.2844 C   0  0  2  0  0  0  0  0  0  0  0  0
   24.0440  -22.3402  -15.3602 N   0  0  0  0  0  0  0  0  0  0  0  0
   23.3392  -20.7881  -13.7117 C   0  0  0  0  0  0  0  0  0  0  0  0
   23.4489  -20.0155  -12.7309 O   0  0  0  0  0  0  0  0  0  0  0  0
   17.8771  -15.8137  -15.1582 N   0  0  0  0  0  0  0  0  0  0  0  0
   18.6534  -15.3029  -14.0855 C   0  0  0  0  0  0  0  0  0  0  0  0
   18.2283  -14.2635  -13.4688 N   0  0  0  0  0  0  0  0  0  0  0  0
   19.8632  -15.8981  -13.6854 N   0  0  0  0  0  0  0  0  0  0  0  0
   20.3536  -17.1149  -14.3225 C   0  0  0  0  0  0  0  0  0  0  0  0
   19.5069  -18.3034  -13.9376 C   0  0  0  0  0  0  0  0  0  0  0  0
   20.0914  -19.5086  -14.6744 C   0  0  0  0  0  0  0  0  0  0  0  0
   20.8370  -20.4192  -13.7613 C   0  0  2  0  0  0  0  0  0  0  0  0
   22.0399  -20.9662  -14.2427 N   0  0  0  0  0  0  0  0  0  0  0  0
   19.9240  -21.5279  -13.3846 C   0  0  0  0  0  0  0  0  0  0  0  0
   19.7947  -22.4993  -14.1729 O   0  0  0  0  0  0  0  0  0  0  0  0
   18.6639  -13.8442  -12.6222 N   0  0  0  0  0  0  0  0  0  0  0  0
   19.1904  -21.5272  -12.1611 C   0  0  2  0  0  0  0  0  0  0  0  0
   18.2415  -22.5452  -11.7990 C   0  0  0  0  0  0  0  0  0  0  0  0
   18.3680  -22.9109  -10.3536 C   0  0  0  0  0  0  0  0  0  0  0  0
   19.1510  -24.1188  -10.0947 O   0  0  0  0  0  0  0  0  0  0  0  0
   19.6295  -24.7358  -11.0807 C   0  0  0  0  0  0  0  0  0  0  0  0
   16.8574  -22.2069  -12.1922 O   0  0  0  0  0  0  0  0  0  0  0  0
   16.4087  -20.9284  -11.8863 O   0  0  0  0  0  0  0  0  0  0  0  0
   19.4192  -24.6559   -8.8440 O   0  0  0  0  0  0  0  0  0  0  0  0
  2  3  2  0
  2  1  1  0
  4  2  1  0
  5  6  1  6
  5  4  1  0
  7  5  1  0
  8  7  2  0
 10  9  1  0
 10 12  1  0
 11 10  2  0
 12 13  1  0
 13 14  1  0
 16 15  1  6
 15 14  1  0
 16 17  1  0
 17  7  1  0
 18 20  1  0
 18 16  1  0
 19 18  2  0
 21 25  1  0
 21 20  1  0
 21 22  1  6
 23 22  1  0
 24 23  2  0
 25 26  1  0
 27 23  1  0
 28 25  2  0
M  END
$$$$
