NRD.pdb
     RDKit          3D

 28 27  0  0  1  0  0  0  0  0999 V2000
   25.3495  -24.0581  -13.4482 N   0  0  0  0  0  0  0  0  0  0  0  0
   23.9487  -24.1202  -13.2519 C   0  0  0  0  0  0  0  0  0  0  0  0
   23.4249  -25.2300  -12.9904 O   0  0  0  0  0  0  0  0  0  0  0  0
   23.1100  -22.9199  -13.3483 C   0  0  0  0  0  0  0  0  0  0  0  0
   23.9832  -21.7262  -13.6748 C   0  0  2  0  0  0  0  0  0  0  0  0
   24.9475  -21.5084  -12.6083 N   0  0  0  0  0  0  0  0  0  0  0  0
   23.1960  -20.4950  -13.8445 C   0  0  0  0  0  0  0  0  0  0  0  0
   22.8993  -19.7653  -12.8695 O   0  0  0  0  0  0  0  0  0  0  0  0
   23.7207  -15.0689  -20.3172 N   0  0  0  0  0  0  0  0  0  0  0  0
   24.3769  -15.7550  -19.2623 C   0  0  0  0  0  0  0  0  0  0  0  0
   25.6492  -15.8915  -19.3248 N   0  0  0  0  0  0  0  0  0  0  0  0
   23.6777  -16.2844  -18.1628 N   0  0  0  0  0  0  0  0  0  0  0  0
   22.2233  -16.2082  -18.0846 C   0  0  0  0  0  0  0  0  0  0  0  0
   21.7191  -16.8315  -16.8061 C   0  0  0  0  0  0  0  0  0  0  0  0
   22.4744  -18.1501  -16.6396 C   0  0  0  0  0  0  0  0  0  0  0  0
   22.0363  -18.9008  -15.4298 C   0  0  2  0  0  0  0  0  0  0  0  0
   22.7381  -20.0787  -15.1168 N   0  0  0  0  0  0  0  0  0  0  0  0
   20.5986  -19.2309  -15.5992 C   0  0  0  0  0  0  0  0  0  0  0  0
   20.2796  -20.1583  -16.3865 O   0  0  0  0  0  0  0  0  0  0  0  0
   26.2349  -16.4087  -18.6380 N   0  0  0  0  0  0  0  0  0  0  0  0
   19.5700  -18.5321  -14.9000 C   0  0  1  0  0  0  0  0  0  0  0  0
   18.1747  -18.8688  -14.9882 C   0  0  0  0  0  0  0  0  0  0  0  0
   17.4588  -18.5386  -13.7164 C   0  0  0  0  0  0  0  0  0  0  0  0
   16.1989  -19.2550  -13.5200 O   0  0  0  0  0  0  0  0  0  0  0  0
   15.8780  -20.1292  -14.3653 C   0  0  0  0  0  0  0  0  0  0  0  0
   17.5208  -18.3004  -16.1856 O   0  0  0  0  0  0  0  0  0  0  0  0
   18.2133  -17.3127  -16.8744 O   0  0  0  0  0  0  0  0  0  0  0  0
   15.3110  -19.0572  -12.4725 O   0  0  0  0  0  0  0  0  0  0  0  0
  2  3  2  0
  2  1  1  0
  4  2  1  0
  5  6  1  1
  5  4  1  0
  7  5  1  0
  8  7  2  0
 10  9  1  0
 10 12  1  0
 11 10  2  0
 12 13  1  0
 13 14  1  0
 16 15  1  6
 15 14  1  0
 16 17  1  0
 17  7  1  0
 18 20  1  0
 18 16  1  0
 19 18  2  0
 21 25  1  0
 21 20  1  0
 21 22  1  6
 23 22  1  0
 24 23  2  0
 25 26  1  0
 27 23  1  0
 28 25  2  0
M  END
$$$$
