NRD.pdb
     RDKit          3D

 28 27  0  0  1  0  0  0  0  0999 V2000
   29.2114  -17.7931  -16.2590 N   0  0  0  0  0  0  0  0  0  0  0  0
   27.8563  -17.7476  -16.6668 C   0  0  0  0  0  0  0  0  0  0  0  0
   27.4282  -16.7071  -17.2222 O   0  0  0  0  0  0  0  0  0  0  0  0
   26.9556  -18.8860  -16.4522 C   0  0  0  0  0  0  0  0  0  0  0  0
   27.7155  -20.0006  -15.7637 C   0  0  2  0  0  0  0  0  0  0  0  0
   28.4724  -20.7652  -16.7420 N   0  0  0  0  0  0  0  0  0  0  0  0
   26.8187  -20.9228  -15.0499 C   0  0  0  0  0  0  0  0  0  0  0  0
   26.7030  -22.1230  -15.3919 O   0  0  0  0  0  0  0  0  0  0  0  0
   23.0863  -19.5287   -8.5501 N   0  0  0  0  0  0  0  0  0  0  0  0
   23.6286  -20.8389   -8.6091 C   0  0  0  0  0  0  0  0  0  0  0  0
   22.9758  -21.7924   -8.0560 N   0  0  0  0  0  0  0  0  0  0  0  0
   24.8495  -21.1171   -9.2496 N   0  0  0  0  0  0  0  0  0  0  0  0
   25.7256  -20.0437   -9.7048 C   0  0  0  0  0  0  0  0  0  0  0  0
   25.6607  -19.8948  -11.2051 C   0  0  0  0  0  0  0  0  0  0  0  0
   25.1749  -21.2367  -11.7531 C   0  0  0  0  0  0  0  0  0  0  0  0
   25.0795  -21.2363  -13.2397 C   0  0  2  0  0  0  0  0  0  0  0  0
   26.0459  -20.4961  -13.9442 N   0  0  0  0  0  0  0  0  0  0  0  0
   23.7312  -20.7337  -13.6056 C   0  0  0  0  0  0  0  0  0  0  0  0
   23.5178  -19.4947  -13.5722 O   0  0  0  0  0  0  0  0  0  0  0  0
   22.0749  -21.6901   -7.5458 N   0  0  0  0  0  0  0  0  0  0  0  0
   22.6724  -21.6079  -13.9927 C   0  0  2  0  0  0  0  0  0  0  0  0
   21.3883  -21.1516  -14.4519 C   0  0  0  0  0  0  0  0  0  0  0  0
   20.9855  -19.8882  -13.7586 C   0  0  0  0  0  0  0  0  0  0  0  0
   19.5508  -19.6052  -13.7882 O   0  0  0  0  0  0  0  0  0  0  0  0
   18.7876  -20.4711  -14.2875 C   0  0  0  0  0  0  0  0  0  0  0  0
   21.3049  -21.0565  -15.9245 O   0  0  0  0  0  0  0  0  0  0  0  0
   20.2606  -21.7324  -16.5428 O   0  0  0  0  0  0  0  0  0  0  0  0
   18.9440  -18.4530  -13.3096 O   0  0  0  0  0  0  0  0  0  0  0  0
  2  3  2  0
  2  1  1  0
  4  2  1  0
  5  6  1  6
  5  4  1  0
  7  5  1  0
  8  7  2  0
 10  9  1  0
 10 12  1  0
 11 10  2  0
 12 13  1  0
 13 14  1  0
 16 15  1  1
 15 14  1  0
 16 17  1  0
 17  7  1  0
 18 20  1  0
 18 16  1  0
 19 18  2  0
 21 25  1  0
 21 20  1  0
 21 22  1  6
 23 22  1  0
 24 23  2  0
 25 26  1  0
 27 23  1  0
 28 25  2  0
M  END
$$$$
