NRD.pdb
     RDKit          3D

 28 27  0  0  1  0  0  0  0  0999 V2000
   17.7054  -28.0206  -13.2982 N   0  0  0  0  0  0  0  0  0  0  0  0
   16.8220  -26.9305  -13.4877 C   0  0  0  0  0  0  0  0  0  0  0  0
   15.6684  -27.1581  -13.9258 O   0  0  0  0  0  0  0  0  0  0  0  0
   17.2305  -25.5544  -13.1828 C   0  0  0  0  0  0  0  0  0  0  0  0
   18.6157  -25.5694  -12.5703 C   0  0  2  0  0  0  0  0  0  0  0  0
   18.5283  -25.8655  -11.1493 N   0  0  0  0  0  0  0  0  0  0  0  0
   19.3060  -24.2804  -12.7322 C   0  0  0  0  0  0  0  0  0  0  0  0
   18.8797  -23.2342  -12.1895 O   0  0  0  0  0  0  0  0  0  0  0  0
   27.0871  -23.2490  -16.2206 N   0  0  0  0  0  0  0  0  0  0  0  0
   26.0006  -24.0763  -15.8342 C   0  0  0  0  0  0  0  0  0  0  0  0
   26.1453  -25.3467  -15.9150 N   0  0  0  0  0  0  0  0  0  0  0  0
   24.7827  -23.5470  -15.3711 N   0  0  0  0  0  0  0  0  0  0  0  0
   24.5886  -22.1082  -15.2316 C   0  0  0  0  0  0  0  0  0  0  0  0
   23.2093  -21.7993  -14.7032 C   0  0  0  0  0  0  0  0  0  0  0  0
   22.5417  -23.1453  -14.4213 C   0  0  0  0  0  0  0  0  0  0  0  0
   21.1865  -22.9872  -13.8235 C   0  0  2  0  0  0  0  0  0  0  0  0
   20.4833  -24.1637  -13.5082 N   0  0  0  0  0  0  0  0  0  0  0  0
   20.3696  -22.1788  -14.7637 C   0  0  0  0  0  0  0  0  0  0  0  0
   19.7679  -22.7646  -15.7000 O   0  0  0  0  0  0  0  0  0  0  0  0
   25.4478  -26.0541  -15.6061 N   0  0  0  0  0  0  0  0  0  0  0  0
   20.2454  -20.7630  -14.6403 C   0  0  1  0  0  0  0  0  0  0  0  0
   19.3885  -19.9616  -15.4718 C   0  0  0  0  0  0  0  0  0  0  0  0
   17.9941  -19.9233  -14.9305 C   0  0  0  0  0  0  0  0  0  0  0  0
   17.0510  -19.1369  -15.7251 O   0  0  0  0  0  0  0  0  0  0  0  0
   17.3506  -18.8862  -16.9206 C   0  0  0  0  0  0  0  0  0  0  0  0
   19.9424  -18.6182  -15.7419 O   0  0  0  0  0  0  0  0  0  0  0  0
   19.5028  -17.9732  -16.8911 O   0  0  0  0  0  0  0  0  0  0  0  0
   15.8384  -18.6339  -15.2765 O   0  0  0  0  0  0  0  0  0  0  0  0
  2  3  2  0
  2  1  1  0
  4  2  1  0
  5  6  1  1
  5  4  1  0
  7  5  1  0
  8  7  2  0
 10  9  1  0
 10 12  1  0
 11 10  2  0
 12 13  1  0
 13 14  1  0
 16 15  1  6
 15 14  1  0
 16 17  1  0
 17  7  1  0
 18 20  1  0
 18 16  1  0
 19 18  2  0
 21 25  1  0
 21 20  1  0
 21 22  1  6
 23 22  1  0
 24 23  2  0
 25 26  1  0
 27 23  1  0
 28 25  2  0
M  END
$$$$
