NRD.pdb
     RDKit          3D

 28 27  0  0  1  0  0  0  0  0999 V2000
   19.7760  -24.5485   -8.8613 N   0  0  0  0  0  0  0  0  0  0  0  0
   18.6385  -23.7355   -8.6386 C   0  0  0  0  0  0  0  0  0  0  0  0
   18.4171  -22.7803   -9.4216 O   0  0  0  0  0  0  0  0  0  0  0  0
   17.7249  -23.9904   -7.5189 C   0  0  0  0  0  0  0  0  0  0  0  0
   17.3498  -25.4577   -7.5052 C   0  0  2  0  0  0  0  0  0  0  0  0
   16.5736  -25.7841   -8.6908 N   0  0  0  0  0  0  0  0  0  0  0  0
   16.5549  -25.8143   -6.3197 C   0  0  0  0  0  0  0  0  0  0  0  0
   15.3387  -25.5241   -6.2327 O   0  0  0  0  0  0  0  0  0  0  0  0
   19.3496  -32.4841   -1.9005 N   0  0  0  0  0  0  0  0  0  0  0  0
   18.6403  -32.6438   -3.1193 C   0  0  0  0  0  0  0  0  0  0  0  0
   18.6381  -33.7984   -3.6745 N   0  0  0  0  0  0  0  0  0  0  0  0
   17.9480  -31.5820   -3.7289 N   0  0  0  0  0  0  0  0  0  0  0  0
   17.8296  -30.2835   -3.0755 C   0  0  0  0  0  0  0  0  0  0  0  0
   17.1271  -29.2921   -3.9705 C   0  0  0  0  0  0  0  0  0  0  0  0
   17.1323  -27.9569   -3.2262 C   0  0  0  0  0  0  0  0  0  0  0  0
   16.4986  -26.8674   -4.0203 C   0  0  2  0  0  0  0  0  0  0  0  0
   17.1278  -26.5017   -5.2238 N   0  0  0  0  0  0  0  0  0  0  0  0
   16.4019  -25.6700   -3.1476 C   0  0  0  0  0  0  0  0  0  0  0  0
   17.4329  -24.9754   -2.9572 O   0  0  0  0  0  0  0  0  0  0  0  0
   18.1444  -34.0425   -4.5570 N   0  0  0  0  0  0  0  0  0  0  0  0
   15.1809  -25.2828   -2.5195 C   0  0  1  0  0  0  0  0  0  0  0  0
   15.0504  -24.1277   -1.6729 C   0  0  0  0  0  0  0  0  0  0  0  0
   13.7091  -23.4858   -1.8395 C   0  0  0  0  0  0  0  0  0  0  0  0
   13.5602  -22.6869   -3.0555 O   0  0  0  0  0  0  0  0  0  0  0  0
   14.5578  -22.5710   -3.8125 C   0  0  0  0  0  0  0  0  0  0  0  0
   15.3873  -24.4085   -0.2615 O   0  0  0  0  0  0  0  0  0  0  0  0
   15.6428  -23.3151    0.5564 O   0  0  0  0  0  0  0  0  0  0  0  0
   12.4036  -22.0349   -3.4581 O   0  0  0  0  0  0  0  0  0  0  0  0
  2  3  2  0
  2  1  1  0
  4  2  1  0
  5  6  1  6
  5  4  1  0
  7  5  1  0
  8  7  2  0
 10  9  1  0
 10 12  1  0
 11 10  2  0
 12 13  1  0
 13 14  1  0
 16 15  1  1
 15 14  1  0
 16 17  1  0
 17  7  1  0
 18 20  1  0
 18 16  1  0
 19 18  2  0
 21 25  1  0
 21 20  1  0
 21 22  1  1
 23 22  1  0
 24 23  2  0
 25 26  1  0
 27 23  1  0
 28 25  2  0
M  END
$$$$
