VYH.pdb
     RDKit          3D

 30 31  0  0  1  0  0  0  0  0999 V2000
    6.9801  -13.2949   20.7947 C   0  0  0  0  0  0  0  0  0  0  0  0
    8.2861  -13.5036   20.0114 C   0  0  2  0  0  0  0  0  0  0  0  0
    7.8928  -13.5723   18.5622 C   0  0  0  0  0  0  0  0  0  0  0  0
    8.8491  -14.8105   20.5305 C   0  0  2  0  0  0  0  0  0  0  0  0
    7.7932  -15.8049   20.2520 N   0  0  0  0  0  0  0  0  0  0  0  0
    9.0727  -14.8206   21.9869 C   0  0  0  0  0  0  0  0  0  0  0  0
   10.1135  -14.3021   22.4419 O   0  0  0  0  0  0  0  0  0  0  0  0
    6.3855  -10.1768   27.5850 O   0  0  0  0  0  0  0  0  0  0  0  0
    6.5521  -11.4208   27.0006 C   0  0  0  0  0  0  0  0  0  0  0  0
    5.5975  -11.9698   26.1735 C   0  0  0  0  0  0  0  0  0  0  0  0
    5.7588  -13.2024   25.5925 C   0  0  0  0  0  0  0  0  0  0  0  0
    6.9117  -13.9697   25.8137 C   0  0  0  0  0  0  0  0  0  0  0  0
    7.0414  -15.3009   25.1468 C   0  0  0  0  0  0  0  0  0  0  0  0
    8.3277  -15.4226   24.3450 C   0  0  2  0  0  0  0  0  0  0  0  0
    8.1710  -15.3885   22.9324 N   0  0  0  0  0  0  0  0  0  0  0  0
    9.2460  -16.4482   24.8622 C   0  0  0  0  0  0  0  0  0  0  0  0
    9.5604  -16.4788   26.0802 O   0  0  0  0  0  0  0  0  0  0  0  0
    7.8548  -13.4128   26.6384 C   0  0  0  0  0  0  0  0  0  0  0  0
    7.6874  -12.1571   27.2287 C   0  0  0  0  0  0  0  0  0  0  0  0
    9.8330  -17.4573   24.0453 N   0  0  0  0  0  0  0  0  0  0  0  0
   10.5731  -18.5740   24.5794 C   0  0  1  0  0  0  0  0  0  0  0  0
   10.2034  -19.8194   23.7913 C   0  0  0  0  0  0  0  0  0  0  0  0
    8.7258  -20.0035   23.7847 C   0  0  0  0  0  0  0  0  0  0  0  0
    7.8962  -20.1085   24.8836 C   0  0  0  0  0  0  0  0  0  0  0  0
    6.6432  -20.2638   24.4200 N   0  0  0  0  0  0  0  0  0  0  0  0
    6.6665  -20.2588   23.0629 C   0  0  0  0  0  0  0  0  0  0  0  0
    7.9387  -20.0997   22.6915 N   0  0  0  0  0  0  0  0  0  0  0  0
   12.0264  -18.3615   24.5191 C   0  0  0  0  0  0  0  0  0  0  0  0
   12.4838  -17.2976   24.0313 O   0  0  0  0  0  0  0  0  0  0  0  0
   12.9301  -19.2950   24.9829 O   0  0  0  0  0  0  0  0  0  0  0  0
  2  4  1  0
  2  3  1  6
  2  1  1  0
  4  5  1  1
  6  4  1  0
  6  7  2  0
  8  9  1  0
  9 19  2  0
  9 10  1  0
 10 11  2  0
 11 12  1  0
 12 13  1  0
 14 13  1  1
 14 15  1  0
 15  6  1  0
 16 14  1  0
 16 20  1  0
 17 16  2  0
 18 12  2  0
 19 18  1  0
 21 20  1  0
 21 28  1  0
 22 23  1  0
 21 22  1  6
 23 27  1  0
 24 25  1  0
 24 23  2  0
 25 26  1  0
 26 27  2  0
 28 29  2  0
 28 30  1  0
M  END
$$$$
