VYH.pdb
     RDKit          3D

 30 31  0  0  1  0  0  0  0  0999 V2000
    8.2943  -18.7963   17.3910 C   0  0  0  0  0  0  0  0  0  0  0  0
    8.7130  -18.2847   18.7786 C   0  0  2  0  0  0  0  0  0  0  0  0
    7.9427  -19.1080   19.7728 C   0  0  0  0  0  0  0  0  0  0  0  0
    8.3161  -16.8229   18.7927 C   0  0  2  0  0  0  0  0  0  0  0  0
    9.1592  -16.2004   17.7521 N   0  0  0  0  0  0  0  0  0  0  0  0
    8.6263  -16.1386   20.0603 C   0  0  0  0  0  0  0  0  0  0  0  0
    9.8217  -15.9557   20.3713 O   0  0  0  0  0  0  0  0  0  0  0  0
    7.8573  -12.5668   28.1837 O   0  0  0  0  0  0  0  0  0  0  0  0
    7.5690  -13.0253   26.9096 C   0  0  0  0  0  0  0  0  0  0  0  0
    7.6836  -12.2153   25.8016 C   0  0  0  0  0  0  0  0  0  0  0  0
    7.3987  -12.6659   24.5373 C   0  0  0  0  0  0  0  0  0  0  0  0
    6.9737  -13.9827   24.3089 C   0  0  0  0  0  0  0  0  0  0  0  0
    6.6879  -14.4251   22.9102 C   0  0  0  0  0  0  0  0  0  0  0  0
    7.8746  -15.1312   22.2734 C   0  0  2  0  0  0  0  0  0  0  0  0
    7.6437  -15.6605   20.9744 N   0  0  0  0  0  0  0  0  0  0  0  0
    8.6014  -16.0096   23.2023 C   0  0  0  0  0  0  0  0  0  0  0  0
    8.1810  -17.1676   23.4589 O   0  0  0  0  0  0  0  0  0  0  0  0
    6.8638  -14.7795   25.4191 C   0  0  0  0  0  0  0  0  0  0  0  0
    7.1546  -14.3174   26.7056 C   0  0  0  0  0  0  0  0  0  0  0  0
    9.8038  -15.6263   23.8636 N   0  0  0  0  0  0  0  0  0  0  0  0
   10.6670  -16.5639   24.5388 C   0  0  1  0  0  0  0  0  0  0  0  0
   12.0945  -16.3253   24.0762 C   0  0  0  0  0  0  0  0  0  0  0  0
   13.0198  -17.2751   24.7538 C   0  0  0  0  0  0  0  0  0  0  0  0
   12.6790  -18.2799   25.6376 C   0  0  0  0  0  0  0  0  0  0  0  0
   13.8209  -18.8894   26.0031 N   0  0  0  0  0  0  0  0  0  0  0  0
   14.8651  -18.2941   25.3728 C   0  0  0  0  0  0  0  0  0  0  0  0
   14.3628  -17.3151   24.6172 N   0  0  0  0  0  0  0  0  0  0  0  0
   10.5917  -16.4396   26.0016 C   0  0  0  0  0  0  0  0  0  0  0  0
   10.1674  -15.3758   26.5184 O   0  0  0  0  0  0  0  0  0  0  0  0
   10.9731  -17.4577   26.8508 O   0  0  0  0  0  0  0  0  0  0  0  0
  2  4  1  0
  2  3  1  1
  2  1  1  0
  4  5  1  6
  6  4  1  0
  6  7  2  0
  8  9  1  0
  9 19  2  0
  9 10  1  0
 10 11  2  0
 11 12  1  0
 12 13  1  0
 14 13  1  1
 14 15  1  0
 15  6  1  0
 16 14  1  0
 16 20  1  0
 17 16  2  0
 18 12  2  0
 19 18  1  0
 21 20  1  0
 21 28  1  0
 22 23  1  0
 21 22  1  6
 23 27  1  0
 24 25  1  0
 24 23  2  0
 25 26  1  0
 26 27  2  0
 28 29  2  0
 28 30  1  0
M  END
$$$$
