VYH.pdb
     RDKit          3D

 30 31  0  0  1  0  0  0  0  0999 V2000
    6.3067  -16.6386   18.4435 C   0  0  0  0  0  0  0  0  0  0  0  0
    7.0321  -16.7399   19.7949 C   0  0  2  0  0  0  0  0  0  0  0  0
    6.0378  -17.3313   20.7547 C   0  0  0  0  0  0  0  0  0  0  0  0
    7.4104  -15.3153   20.1436 C   0  0  2  0  0  0  0  0  0  0  0  0
    8.3051  -14.8910   19.0478 N   0  0  0  0  0  0  0  0  0  0  0  0
    8.1804  -15.1977   21.3943 C   0  0  0  0  0  0  0  0  0  0  0  0
    9.3922  -15.4990   21.3882 O   0  0  0  0  0  0  0  0  0  0  0  0
   10.2438  -14.5095   30.0268 O   0  0  0  0  0  0  0  0  0  0  0  0
    9.5966  -14.3842   28.8093 C   0  0  0  0  0  0  0  0  0  0  0  0
    8.9352  -15.4414   28.2248 C   0  0  0  0  0  0  0  0  0  0  0  0
    8.2927  -15.3213   27.0183 C   0  0  0  0  0  0  0  0  0  0  0  0
    8.2776  -14.1077   26.3156 C   0  0  0  0  0  0  0  0  0  0  0  0
    7.5528  -14.0289   25.0109 C   0  0  0  0  0  0  0  0  0  0  0  0
    8.2713  -14.7843   23.9041 C   0  0  2  0  0  0  0  0  0  0  0  0
    7.6339  -14.7561   22.6337 N   0  0  0  0  0  0  0  0  0  0  0  0
    8.7925  -16.0920   24.3295 C   0  0  0  0  0  0  0  0  0  0  0  0
    8.1307  -17.1448   24.1372 O   0  0  0  0  0  0  0  0  0  0  0  0
    8.9388  -13.0627   26.9074 C   0  0  0  0  0  0  0  0  0  0  0  0
    9.5924  -13.1883   28.1363 C   0  0  0  0  0  0  0  0  0  0  0  0
   10.0519  -16.2609   24.9740 N   0  0  0  0  0  0  0  0  0  0  0  0
   10.7956  -17.4962   24.9425 C   0  0  1  0  0  0  0  0  0  0  0  0
   11.4255  -17.6455   23.5678 C   0  0  0  0  0  0  0  0  0  0  0  0
   10.6065  -18.5590   22.7239 C   0  0  0  0  0  0  0  0  0  0  0  0
    9.4543  -19.2236   23.0946 C   0  0  0  0  0  0  0  0  0  0  0  0
    9.0475  -19.9351   22.0282 N   0  0  0  0  0  0  0  0  0  0  0  0
    9.9127  -19.7339   21.0020 C   0  0  0  0  0  0  0  0  0  0  0  0
   10.8546  -18.8955   21.4397 N   0  0  0  0  0  0  0  0  0  0  0  0
   11.8403  -17.5462   25.9754 C   0  0  0  0  0  0  0  0  0  0  0  0
   12.5605  -18.5697   26.0884 O   0  0  0  0  0  0  0  0  0  0  0  0
   12.0714  -16.5001   26.8445 O   0  0  0  0  0  0  0  0  0  0  0  0
  2  4  1  0
  2  3  1  1
  2  1  1  0
  4  5  1  6
  6  4  1  0
  6  7  2  0
  8  9  1  0
  9 19  2  0
  9 10  1  0
 10 11  2  0
 11 12  1  0
 12 13  1  0
 14 13  1  1
 14 15  1  0
 15  6  1  0
 16 14  1  0
 16 20  1  0
 17 16  2  0
 18 12  2  0
 19 18  1  0
 21 20  1  0
 21 28  1  0
 22 23  1  0
 21 22  1  6
 23 27  1  0
 24 25  1  0
 24 23  2  0
 25 26  1  0
 26 27  2  0
 28 29  2  0
 28 30  1  0
M  END
$$$$
