VYH.pdb
     RDKit          3D

 30 31  0  0  1  0  0  0  0  0999 V2000
    8.6038  -17.0185   19.4609 C   0  0  0  0  0  0  0  0  0  0  0  0
   10.0644  -17.4899   19.3760 C   0  0  2  0  0  0  0  0  0  0  0  0
   10.0985  -18.5390   18.3000 C   0  0  0  0  0  0  0  0  0  0  0  0
   10.3765  -18.0463   20.7499 C   0  0  2  0  0  0  0  0  0  0  0  0
    9.3190  -19.0484   20.9923 N   0  0  0  0  0  0  0  0  0  0  0  0
   10.2750  -17.0478   21.8287 C   0  0  0  0  0  0  0  0  0  0  0  0
   11.2834  -16.3733   22.1244 O   0  0  0  0  0  0  0  0  0  0  0  0
    7.3473  -12.8743   18.1023 O   0  0  0  0  0  0  0  0  0  0  0  0
    7.4507  -13.3515   19.3978 C   0  0  0  0  0  0  0  0  0  0  0  0
    6.6570  -14.3774   19.8608 C   0  0  0  0  0  0  0  0  0  0  0  0
    6.7563  -14.8530   21.1441 C   0  0  0  0  0  0  0  0  0  0  0  0
    7.6773  -14.3143   22.0542 C   0  0  0  0  0  0  0  0  0  0  0  0
    7.7520  -14.8776   23.4366 C   0  0  0  0  0  0  0  0  0  0  0  0
    8.9240  -15.8308   23.6097 C   0  0  2  0  0  0  0  0  0  0  0  0
    9.0880  -16.7898   22.5731 N   0  0  0  0  0  0  0  0  0  0  0  0
    9.0671  -16.3408   24.9815 C   0  0  0  0  0  0  0  0  0  0  0  0
    8.9176  -15.5799   25.9726 O   0  0  0  0  0  0  0  0  0  0  0  0
    8.4619  -13.2941   21.5820 C   0  0  0  0  0  0  0  0  0  0  0  0
    8.3582  -12.8118   20.2743 C   0  0  0  0  0  0  0  0  0  0  0  0
    9.3775  -17.6982   25.2839 N   0  0  0  0  0  0  0  0  0  0  0  0
    9.4776  -18.2041   26.6308 C   0  0  1  0  0  0  0  0  0  0  0  0
    9.0102  -19.6499   26.6393 C   0  0  0  0  0  0  0  0  0  0  0  0
    7.7014  -19.7710   25.9394 C   0  0  0  0  0  0  0  0  0  0  0  0
    6.8210  -18.7501   25.6405 C   0  0  0  0  0  0  0  0  0  0  0  0
    5.7718  -19.3051   25.0079 N   0  0  0  0  0  0  0  0  0  0  0  0
    5.9718  -20.6434   24.9031 C   0  0  0  0  0  0  0  0  0  0  0  0
    7.1484  -20.9116   25.4735 N   0  0  0  0  0  0  0  0  0  0  0  0
   10.8471  -18.1218   27.1584 C   0  0  0  0  0  0  0  0  0  0  0  0
   11.7701  -17.6688   26.4360 O   0  0  0  0  0  0  0  0  0  0  0  0
   11.1728  -18.5272   28.4362 O   0  0  0  0  0  0  0  0  0  0  0  0
  2  4  1  0
  2  3  1  6
  2  1  1  0
  4  5  1  1
  6  4  1  0
  6  7  2  0
  8  9  1  0
  9 19  2  0
  9 10  1  0
 10 11  2  0
 11 12  1  0
 12 13  1  0
 14 13  1  1
 14 15  1  0
 15  6  1  0
 16 14  1  0
 16 20  1  0
 17 16  2  0
 18 12  2  0
 19 18  1  0
 21 20  1  0
 21 28  1  0
 22 23  1  0
 21 22  1  6
 23 27  1  0
 24 25  1  0
 24 23  2  0
 25 26  1  0
 26 27  2  0
 28 29  2  0
 28 30  1  0
M  END
$$$$
