VYH.pdb
     RDKit          3D

 30 31  0  0  1  0  0  0  0  0999 V2000
    9.0970  -19.4989   18.6945 C   0  0  0  0  0  0  0  0  0  0  0  0
    9.0408  -18.9140   20.1149 C   0  0  2  0  0  0  0  0  0  0  0  0
    7.6849  -19.2718   20.6562 C   0  0  0  0  0  0  0  0  0  0  0  0
    9.2256  -17.4219   19.9311 C   0  0  2  0  0  0  0  0  0  0  0  0
   10.5830  -17.2838   19.3659 N   0  0  0  0  0  0  0  0  0  0  0  0
    9.2094  -16.6644   21.1949 C   0  0  0  0  0  0  0  0  0  0  0  0
   10.1560  -16.8068   21.9966 O   0  0  0  0  0  0  0  0  0  0  0  0
    6.6875  -11.4577   27.9636 O   0  0  0  0  0  0  0  0  0  0  0  0
    6.7752  -12.0545   26.7175 C   0  0  0  0  0  0  0  0  0  0  0  0
    7.6712  -11.6221   25.7651 C   0  0  0  0  0  0  0  0  0  0  0  0
    7.7609  -12.2108   24.5289 C   0  0  0  0  0  0  0  0  0  0  0  0
    6.9391  -13.2895   24.1713 C   0  0  0  0  0  0  0  0  0  0  0  0
    7.0864  -13.9012   22.8157 C   0  0  0  0  0  0  0  0  0  0  0  0
    8.0619  -15.0675   22.8108 C   0  0  2  0  0  0  0  0  0  0  0  0
    8.1737  -15.7636   21.5763 N   0  0  0  0  0  0  0  0  0  0  0  0
    7.9758  -15.9087   24.0140 C   0  0  0  0  0  0  0  0  0  0  0  0
    6.9824  -16.6557   24.2103 O   0  0  0  0  0  0  0  0  0  0  0  0
    6.0516  -13.7111   25.1274 C   0  0  0  0  0  0  0  0  0  0  0  0
    5.9625  -13.1093   26.3856 C   0  0  0  0  0  0  0  0  0  0  0  0
    8.9835  -15.9406   25.0208 N   0  0  0  0  0  0  0  0  0  0  0  0
    9.0191  -16.9281   26.0713 C   0  0  1  0  0  0  0  0  0  0  0  0
    9.0090  -18.3087   25.4366 C   0  0  0  0  0  0  0  0  0  0  0  0
    9.0626  -19.3592   26.4906 C   0  0  0  0  0  0  0  0  0  0  0  0
    9.1120  -19.1644   27.8567 C   0  0  0  0  0  0  0  0  0  0  0  0
    9.1494  -20.3811   28.4288 N   0  0  0  0  0  0  0  0  0  0  0  0
    9.1248  -21.3303   27.4589 C   0  0  0  0  0  0  0  0  0  0  0  0
    9.0721  -20.6942   26.2866 N   0  0  0  0  0  0  0  0  0  0  0  0
   10.2021  -16.7860   26.9322 C   0  0  0  0  0  0  0  0  0  0  0  0
   10.4228  -17.6296   27.8370 O   0  0  0  0  0  0  0  0  0  0  0  0
   11.0998  -15.7482   26.7899 O   0  0  0  0  0  0  0  0  0  0  0  0
  2  4  1  0
  2  3  1  6
  2  1  1  0
  4  5  1  1
  6  4  1  0
  6  7  2  0
  8  9  1  0
  9 19  2  0
  9 10  1  0
 10 11  2  0
 11 12  1  0
 12 13  1  0
 14 13  1  6
 14 15  1  0
 15  6  1  0
 16 14  1  0
 16 20  1  0
 17 16  2  0
 18 12  2  0
 19 18  1  0
 21 20  1  0
 21 28  1  0
 22 23  1  0
 21 22  1  6
 23 27  1  0
 24 25  1  0
 24 23  2  0
 25 26  1  0
 26 27  2  0
 28 29  2  0
 28 30  1  0
M  END
$$$$
