VYH.pdb
     RDKit          3D

 30 31  0  0  1  0  0  0  0  0999 V2000
   10.0037  -20.1023   16.4287 C   0  0  0  0  0  0  0  0  0  0  0  0
   10.5533  -19.4540   17.7094 C   0  0  2  0  0  0  0  0  0  0  0  0
   10.5949  -20.5466   18.7410 C   0  0  0  0  0  0  0  0  0  0  0  0
    9.5624  -18.3605   18.0508 C   0  0  2  0  0  0  0  0  0  0  0  0
    9.5277  -17.5038   16.8482 N   0  0  0  0  0  0  0  0  0  0  0  0
    9.9889  -17.5057   19.1727 C   0  0  0  0  0  0  0  0  0  0  0  0
   10.9602  -16.7377   19.0116 O   0  0  0  0  0  0  0  0  0  0  0  0
    6.9844  -12.1179   18.1437 O   0  0  0  0  0  0  0  0  0  0  0  0
    7.4285  -12.9948   19.1186 C   0  0  0  0  0  0  0  0  0  0  0  0
    6.7505  -14.1561   19.4162 C   0  0  0  0  0  0  0  0  0  0  0  0
    7.1874  -15.0275   20.3819 C   0  0  0  0  0  0  0  0  0  0  0  0
    8.3540  -14.7773   21.1189 C   0  0  0  0  0  0  0  0  0  0  0  0
    8.7911  -15.7657   22.1512 C   0  0  0  0  0  0  0  0  0  0  0  0
    9.7901  -16.7718   21.6016 C   0  0  2  0  0  0  0  0  0  0  0  0
    9.3620  -17.4901   20.4519 N   0  0  0  0  0  0  0  0  0  0  0  0
   10.4526  -17.5696   22.6444 C   0  0  0  0  0  0  0  0  0  0  0  0
    9.8588  -18.5318   23.1966 O   0  0  0  0  0  0  0  0  0  0  0  0
    9.0204  -13.6188   20.8137 C   0  0  0  0  0  0  0  0  0  0  0  0
    8.5728  -12.7331   19.8296 C   0  0  0  0  0  0  0  0  0  0  0  0
   11.7808  -17.3199   23.0957 N   0  0  0  0  0  0  0  0  0  0  0  0
   12.4395  -18.1248   24.0950 C   0  0  1  0  0  0  0  0  0  0  0  0
   13.7725  -18.5932   23.5357 C   0  0  0  0  0  0  0  0  0  0  0  0
   13.5522  -19.5232   22.3937 C   0  0  0  0  0  0  0  0  0  0  0  0
   12.5608  -20.4774   22.2780 C   0  0  0  0  0  0  0  0  0  0  0  0
   12.7345  -21.0864   21.0914 N   0  0  0  0  0  0  0  0  0  0  0  0
   13.8060  -20.5398   20.4627 C   0  0  0  0  0  0  0  0  0  0  0  0
   14.2924  -19.5914   21.2662 N   0  0  0  0  0  0  0  0  0  0  0  0
   12.6580  -17.3902   25.3493 C   0  0  0  0  0  0  0  0  0  0  0  0
   12.3505  -16.1741   25.4243 O   0  0  0  0  0  0  0  0  0  0  0  0
   13.1959  -17.9862   26.4712 O   0  0  0  0  0  0  0  0  0  0  0  0
  2  4  1  0
  2  3  1  1
  2  1  1  0
  4  5  1  6
  6  4  1  0
  6  7  2  0
  8  9  1  0
  9 19  2  0
  9 10  1  0
 10 11  2  0
 11 12  1  0
 12 13  1  0
 14 13  1  1
 14 15  1  0
 15  6  1  0
 16 14  1  0
 16 20  1  0
 17 16  2  0
 18 12  2  0
 19 18  1  0
 21 20  1  0
 21 28  1  0
 22 23  1  0
 21 22  1  6
 23 27  1  0
 24 25  1  0
 24 23  2  0
 25 26  1  0
 26 27  2  0
 28 29  2  0
 28 30  1  0
M  END
$$$$
