VYH.pdb
     RDKit          3D

 30 31  0  0  1  0  0  0  0  0999 V2000
    8.5090  -15.4518   19.4100 C   0  0  0  0  0  0  0  0  0  0  0  0
    7.1267  -14.8816   19.7661 C   0  0  2  0  0  0  0  0  0  0  0  0
    6.4184  -14.6666   18.4578 C   0  0  0  0  0  0  0  0  0  0  0  0
    7.4142  -13.5874   20.4988 C   0  0  2  0  0  0  0  0  0  0  0  0
    8.2324  -12.8009   19.5537 N   0  0  0  0  0  0  0  0  0  0  0  0
    8.2219  -13.7656   21.7182 C   0  0  0  0  0  0  0  0  0  0  0  0
    9.4637  -13.6589   21.6412 O   0  0  0  0  0  0  0  0  0  0  0  0
   10.6754  -14.8784   30.2301 O   0  0  0  0  0  0  0  0  0  0  0  0
    9.9254  -14.7471   29.0738 C   0  0  0  0  0  0  0  0  0  0  0  0
    9.2404  -15.8092   28.5264 C   0  0  0  0  0  0  0  0  0  0  0  0
    8.4962  -15.6831   27.3805 C   0  0  0  0  0  0  0  0  0  0  0  0
    8.3954  -14.4582   26.7052 C   0  0  0  0  0  0  0  0  0  0  0  0
    7.5618  -14.3736   25.4676 C   0  0  0  0  0  0  0  0  0  0  0  0
    8.4066  -14.2573   24.2086 C   0  0  2  0  0  0  0  0  0  0  0  0
    7.6800  -14.0555   23.0035 N   0  0  0  0  0  0  0  0  0  0  0  0
    9.4966  -15.2422   24.1411 C   0  0  0  0  0  0  0  0  0  0  0  0
   10.6516  -14.9033   23.7743 O   0  0  0  0  0  0  0  0  0  0  0  0
    9.0811  -13.4085   27.2596 C   0  0  0  0  0  0  0  0  0  0  0  0
    9.8384  -13.5401   28.4268 C   0  0  0  0  0  0  0  0  0  0  0  0
    9.3317  -16.6170   24.4768 N   0  0  0  0  0  0  0  0  0  0  0  0
   10.2092  -17.6572   23.9992 C   0  0  1  0  0  0  0  0  0  0  0  0
   11.4053  -17.0074   23.3239 C   0  0  0  0  0  0  0  0  0  0  0  0
   12.3200  -18.0509   22.7837 C   0  0  0  0  0  0  0  0  0  0  0  0
   12.1971  -19.4189   22.9267 C   0  0  0  0  0  0  0  0  0  0  0  0
   13.2370  -19.9788   22.2832 N   0  0  0  0  0  0  0  0  0  0  0  0
   14.0058  -18.9997   21.7424 C   0  0  0  0  0  0  0  0  0  0  0  0
   13.4360  -17.8339   22.0549 N   0  0  0  0  0  0  0  0  0  0  0  0
   10.6688  -18.5408   25.0803 C   0  0  0  0  0  0  0  0  0  0  0  0
   10.8011  -19.7723   24.8686 O   0  0  0  0  0  0  0  0  0  0  0  0
   10.9678  -18.0711   26.3425 O   0  0  0  0  0  0  0  0  0  0  0  0
  2  4  1  0
  2  3  1  6
  2  1  1  0
  4  5  1  6
  6  4  1  0
  6  7  2  0
  8  9  1  0
  9 19  2  0
  9 10  1  0
 10 11  2  0
 11 12  1  0
 12 13  1  0
 14 13  1  1
 14 15  1  0
 15  6  1  0
 16 14  1  0
 16 20  1  0
 17 16  2  0
 18 12  2  0
 19 18  1  0
 21 20  1  0
 21 28  1  0
 22 23  1  0
 21 22  1  1
 23 27  1  0
 24 25  1  0
 24 23  2  0
 25 26  1  0
 26 27  2  0
 28 29  2  0
 28 30  1  0
M  END
$$$$
