VPR.pdb
     RDKit          3D

 26 26  0  0  1  0  0  0  0  0999 V2000
    7.7037  -13.2069   17.2678 C   0  0  0  0  0  0  0  0  0  0  0  0
    8.3343  -13.2798   18.6187 C   0  0  1  0  0  0  0  0  0  0  0  0
    7.5488  -12.5321   19.6740 C   0  0  0  0  0  0  0  0  0  0  0  0
    8.5956  -14.7180   19.0521 C   0  0  2  0  0  0  0  0  0  0  0  0
    7.3771  -15.4156   18.9208 N   0  0  0  0  0  0  0  0  0  0  0  0
    9.2868  -14.7533   20.3306 C   0  0  0  0  0  0  0  0  0  0  0  0
   10.5778  -14.6234   20.3158 O   0  0  0  0  0  0  0  0  0  0  0  0
    8.6867  -14.9164   21.5876 N   0  0  0  0  0  0  0  0  0  0  0  0
    7.3020  -15.0371   21.8974 C   0  0  0  0  0  0  0  0  0  0  0  0
    7.1837  -14.1833   23.1763 C   0  0  0  0  0  0  0  0  0  0  0  0
    8.3990  -14.6884   23.9249 C   0  0  0  0  0  0  0  0  0  0  0  0
    9.3992  -15.0166   22.8660 C   0  0  1  0  0  0  0  0  0  0  0  0
    9.9893  -16.3562   23.0480 C   0  0  0  0  0  0  0  0  0  0  0  0
    9.3873  -17.3432   22.5556 O   0  0  0  0  0  0  0  0  0  0  0  0
   16.9280  -19.4296   19.9976 N   0  0  0  0  0  0  0  0  0  0  0  0
   16.7083  -20.4053   21.0307 C   0  0  0  0  0  0  0  0  0  0  0  0
   17.3176  -21.5234   20.9330 N   0  0  0  0  0  0  0  0  0  0  0  0
   15.8445  -20.1089   22.1085 N   0  0  0  0  0  0  0  0  0  0  0  0
   15.1209  -18.8801   22.1894 C   0  0  0  0  0  0  0  0  0  0  0  0
   14.1209  -18.7943   23.2860 C   0  0  0  0  0  0  0  0  0  0  0  0
   13.2552  -17.5946   23.3326 C   0  0  0  0  0  0  0  0  0  0  0  0
   11.8564  -17.7998   23.8071 C   0  0  2  0  0  0  0  0  0  0  0  0
   11.2061  -16.4826   23.7667 N   0  0  0  0  0  0  0  0  0  0  0  0
   11.9037  -18.2661   25.2322 C   0  0  0  0  0  0  0  0  0  0  0  0
   11.4073  -17.4657   26.2440 O   0  0  0  0  0  0  0  0  0  0  0  0
   12.3847  -19.3754   25.5500 O   0  0  0  0  0  0  0  0  0  0  0  0
  2  3  1  1
  2  1  1  0
  4  5  1  1
  4  2  1  0
  6  4  1  0
  7  6  2  0
  8  9  1  0
  8  6  1  0
 10  9  1  0
 11 12  1  0
 11 10  1  0
 12  8  1  0
 13 14  2  0
 12 13  1  1
 16 17  2  0
 16 15  1  0
 18 16  1  0
 19 18  1  0
 20 19  1  0
 20 21  1  0
 22 21  1  1
 22 23  1  0
 23 13  1  0
 24 22  1  0
 25 24  1  0
 26 24  2  0
M  END
$$$$
