VPR.pdb
     RDKit          3D

 26 26  0  0  1  0  0  0  0  0999 V2000
    6.5803  -11.0044   26.1186 C   0  0  0  0  0  0  0  0  0  0  0  0
    7.1985  -12.2662   25.6149 C   0  0  1  0  0  0  0  0  0  0  0  0
    8.1153  -12.9157   26.6285 C   0  0  0  0  0  0  0  0  0  0  0  0
    6.1528  -13.2562   25.1139 C   0  0  2  0  0  0  0  0  0  0  0  0
    5.3020  -13.5423   26.2015 N   0  0  0  0  0  0  0  0  0  0  0  0
    6.7845  -14.3610   24.4113 C   0  0  0  0  0  0  0  0  0  0  0  0
    6.8194  -15.5102   25.0129 O   0  0  0  0  0  0  0  0  0  0  0  0
    7.3647  -14.3025   23.1358 N   0  0  0  0  0  0  0  0  0  0  0  0
    7.3721  -13.2146   22.2169 C   0  0  0  0  0  0  0  0  0  0  0  0
    7.1383  -13.9300   20.8708 C   0  0  0  0  0  0  0  0  0  0  0  0
    8.1099  -15.0804   21.0294 C   0  0  0  0  0  0  0  0  0  0  0  0
    8.1179  -15.3838   22.4912 C   0  0  1  0  0  0  0  0  0  0  0  0
    9.4853  -15.4839   23.0356 C   0  0  0  0  0  0  0  0  0  0  0  0
    9.9179  -14.5340   23.7352 O   0  0  0  0  0  0  0  0  0  0  0  0
    8.3460  -19.3398   28.8147 N   0  0  0  0  0  0  0  0  0  0  0  0
    9.0234  -20.2655   27.9478 C   0  0  0  0  0  0  0  0  0  0  0  0
    9.2150  -21.4527   28.3776 N   0  0  0  0  0  0  0  0  0  0  0  0
    9.4490  -19.8495   26.6665 N   0  0  0  0  0  0  0  0  0  0  0  0
   10.2558  -18.6872   26.4717 C   0  0  0  0  0  0  0  0  0  0  0  0
   10.5270  -18.3230   25.0562 C   0  0  0  0  0  0  0  0  0  0  0  0
   11.3492  -17.1185   24.8032 C   0  0  0  0  0  0  0  0  0  0  0  0
   11.5839  -16.7594   23.3749 C   0  0  2  0  0  0  0  0  0  0  0  0
   10.2579  -16.6398   22.7528 N   0  0  0  0  0  0  0  0  0  0  0  0
   12.3202  -17.8892   22.7176 C   0  0  0  0  0  0  0  0  0  0  0  0
   13.6547  -18.1102   23.0024 O   0  0  0  0  0  0  0  0  0  0  0  0
   11.7632  -18.6575   21.9038 O   0  0  0  0  0  0  0  0  0  0  0  0
  2  3  1  1
  2  1  1  0
  4  5  1  1
  4  2  1  0
  6  4  1  0
  7  6  2  0
  8  9  1  0
  8  6  1  0
 10  9  1  0
 11 12  1  0
 11 10  1  0
 12  8  1  0
 13 14  2  0
 12 13  1  1
 16 17  2  0
 16 15  1  0
 18 16  1  0
 19 18  1  0
 20 19  1  0
 20 21  1  0
 22 21  1  1
 22 23  1  0
 23 13  1  0
 24 22  1  0
 25 24  1  0
 26 24  2  0
M  END
$$$$
