VPR.pdb
     RDKit          3D

 26 26  0  0  1  0  0  0  0  0999 V2000
    8.0586  -12.5080   19.4344 C   0  0  0  0  0  0  0  0  0  0  0  0
    8.2445  -13.4933   20.5402 C   0  0  1  0  0  0  0  0  0  0  0  0
    7.1537  -13.4141   21.5860 C   0  0  0  0  0  0  0  0  0  0  0  0
    8.3958  -14.9180   20.0187 C   0  0  2  0  0  0  0  0  0  0  0  0
    7.2852  -15.1726   19.1879 N   0  0  0  0  0  0  0  0  0  0  0  0
    8.6793  -15.8379   21.1080 C   0  0  0  0  0  0  0  0  0  0  0  0
    7.6951  -16.5550   21.5562 O   0  0  0  0  0  0  0  0  0  0  0  0
    9.9244  -16.0249   21.7259 N   0  0  0  0  0  0  0  0  0  0  0  0
   11.1196  -15.2703   21.5527 C   0  0  0  0  0  0  0  0  0  0  0  0
   12.1967  -16.3739   21.5396 C   0  0  0  0  0  0  0  0  0  0  0  0
   11.7238  -17.1960   22.7198 C   0  0  0  0  0  0  0  0  0  0  0  0
   10.2371  -17.0590   22.7182 C   0  0  1  0  0  0  0  0  0  0  0  0
    9.7052  -16.7053   24.0479 C   0  0  0  0  0  0  0  0  0  0  0  0
    9.5878  -15.4880   24.3369 O   0  0  0  0  0  0  0  0  0  0  0  0
    7.6143  -22.4347   24.6142 N   0  0  0  0  0  0  0  0  0  0  0  0
    6.4838  -21.7827   24.0105 C   0  0  0  0  0  0  0  0  0  0  0  0
    6.1777  -22.1081   22.8141 N   0  0  0  0  0  0  0  0  0  0  0  0
    5.7517  -20.8204   24.7411 N   0  0  0  0  0  0  0  0  0  0  0  0
    6.2285  -20.2729   25.9710 C   0  0  0  0  0  0  0  0  0  0  0  0
    7.5041  -19.5143   25.8850 C   0  0  0  0  0  0  0  0  0  0  0  0
    7.5132  -18.1268   26.4001 C   0  0  0  0  0  0  0  0  0  0  0  0
    8.7897  -17.3696   26.2539 C   0  0  2  0  0  0  0  0  0  0  0  0
    9.3475  -17.7431   24.9467 N   0  0  0  0  0  0  0  0  0  0  0  0
    9.7357  -17.8255   27.3253 C   0  0  0  0  0  0  0  0  0  0  0  0
    9.5034  -17.4940   28.6470 O   0  0  0  0  0  0  0  0  0  0  0  0
   10.7495  -18.5095   27.0659 O   0  0  0  0  0  0  0  0  0  0  0  0
  2  3  1  1
  2  1  1  0
  4  5  1  1
  4  2  1  0
  6  4  1  0
  7  6  2  0
  8  9  1  0
  8  6  1  0
 10  9  1  0
 11 12  1  0
 11 10  1  0
 12  8  1  0
 13 14  2  0
 12 13  1  1
 16 17  2  0
 16 15  1  0
 18 16  1  0
 19 18  1  0
 20 19  1  0
 20 21  1  0
 22 21  1  1
 22 23  1  0
 23 13  1  0
 24 22  1  0
 25 24  1  0
 26 24  2  0
M  END
$$$$
