VPR.pdb
     RDKit          3D

 26 26  0  0  1  0  0  0  0  0999 V2000
    7.1316  -16.0828   15.5488 C   0  0  0  0  0  0  0  0  0  0  0  0
    7.8748  -15.9761   16.8388 C   0  0  1  0  0  0  0  0  0  0  0  0
    9.0954  -16.8692   16.8883 C   0  0  0  0  0  0  0  0  0  0  0  0
    8.2420  -14.5340   17.1708 C   0  0  2  0  0  0  0  0  0  0  0  0
    8.8818  -13.9996   16.0334 N   0  0  0  0  0  0  0  0  0  0  0  0
    8.9198  -14.4576   18.4546 C   0  0  0  0  0  0  0  0  0  0  0  0
   10.2174  -14.4632   18.4466 O   0  0  0  0  0  0  0  0  0  0  0  0
    8.3002  -14.3785   19.7102 N   0  0  0  0  0  0  0  0  0  0  0  0
    6.9080  -14.3559   20.0094 C   0  0  0  0  0  0  0  0  0  0  0  0
    6.8389  -13.3039   21.1350 C   0  0  0  0  0  0  0  0  0  0  0  0
    8.0106  -13.7636   21.9764 C   0  0  0  0  0  0  0  0  0  0  0  0
    8.9941  -14.3218   21.0014 C   0  0  1  0  0  0  0  0  0  0  0  0
    9.4892  -15.6519   21.4037 C   0  0  0  0  0  0  0  0  0  0  0  0
    8.8778  -16.6661   20.9834 O   0  0  0  0  0  0  0  0  0  0  0  0
   16.9466  -19.2836   22.2041 N   0  0  0  0  0  0  0  0  0  0  0  0
   16.0535  -20.3856   22.4394 C   0  0  0  0  0  0  0  0  0  0  0  0
   16.5674  -21.5126   22.7503 N   0  0  0  0  0  0  0  0  0  0  0  0
   14.6577  -20.1986   22.3268 N   0  0  0  0  0  0  0  0  0  0  0  0
   14.0846  -18.9441   21.9560 C   0  0  0  0  0  0  0  0  0  0  0  0
   13.2992  -18.2581   23.0155 C   0  0  0  0  0  0  0  0  0  0  0  0
   12.5879  -17.0140   22.6454 C   0  0  0  0  0  0  0  0  0  0  0  0
   11.0978  -17.0730   22.6441 C   0  0  2  0  0  0  0  0  0  0  0  0
   10.6290  -15.7390   22.2439 N   0  0  0  0  0  0  0  0  0  0  0  0
   10.6336  -17.3426   24.0450 C   0  0  0  0  0  0  0  0  0  0  0  0
   10.6988  -18.6211   24.5666 O   0  0  0  0  0  0  0  0  0  0  0  0
   10.1798  -16.4370   24.7776 O   0  0  0  0  0  0  0  0  0  0  0  0
  2  3  1  6
  2  1  1  0
  4  5  1  6
  4  2  1  0
  6  4  1  0
  7  6  2  0
  8  9  1  0
  8  6  1  0
 10  9  1  0
 11 12  1  0
 11 10  1  0
 12  8  1  0
 13 14  2  0
 12 13  1  1
 16 17  2  0
 16 15  1  0
 18 16  1  0
 19 18  1  0
 20 19  1  0
 20 21  1  0
 22 21  1  1
 22 23  1  0
 23 13  1  0
 24 22  1  0
 25 24  1  0
 26 24  2  0
M  END
$$$$
