VPR.pdb
     RDKit          3D

 26 26  0  0  1  0  0  0  0  0999 V2000
    7.4406  -17.5180   18.0823 C   0  0  0  0  0  0  0  0  0  0  0  0
    8.4289  -17.3019   16.9848 C   0  0  1  0  0  0  0  0  0  0  0  0
    7.9522  -17.8373   15.6522 C   0  0  0  0  0  0  0  0  0  0  0  0
    8.8433  -15.8394   16.8668 C   0  0  2  0  0  0  0  0  0  0  0  0
    9.7187  -15.7469   15.7651 N   0  0  0  0  0  0  0  0  0  0  0  0
    9.2817  -15.3229   18.1530 C   0  0  0  0  0  0  0  0  0  0  0  0
   10.4962  -15.5916   18.5226 O   0  0  0  0  0  0  0  0  0  0  0  0
    8.5109  -14.5569   19.0396 N   0  0  0  0  0  0  0  0  0  0  0  0
    7.1829  -14.0728   18.8654 C   0  0  0  0  0  0  0  0  0  0  0  0
    7.2791  -12.6522   19.4579 C   0  0  0  0  0  0  0  0  0  0  0  0
    8.0460  -12.9636   20.7256 C   0  0  0  0  0  0  0  0  0  0  0  0
    8.9350  -14.1094   20.3706 C   0  0  1  0  0  0  0  0  0  0  0  0
    8.8576  -15.2052   21.3552 C   0  0  0  0  0  0  0  0  0  0  0  0
    8.2508  -16.2561   21.0289 O   0  0  0  0  0  0  0  0  0  0  0  0
   16.1040  -17.8270   23.4649 N   0  0  0  0  0  0  0  0  0  0  0  0
   15.9015  -16.4219   23.2367 C   0  0  0  0  0  0  0  0  0  0  0  0
   16.9185  -15.6534   23.3149 N   0  0  0  0  0  0  0  0  0  0  0  0
   14.6101  -15.9354   22.9342 N   0  0  0  0  0  0  0  0  0  0  0  0
   13.4387  -16.7383   23.0858 C   0  0  0  0  0  0  0  0  0  0  0  0
   12.1621  -16.0959   22.6765 C   0  0  0  0  0  0  0  0  0  0  0  0
   10.9239  -16.8995   22.7855 C   0  0  0  0  0  0  0  0  0  0  0  0
    9.7519  -16.2352   23.4253 C   0  0  2  0  0  0  0  0  0  0  0  0
    9.4660  -15.0359   22.6257 N   0  0  0  0  0  0  0  0  0  0  0  0
   10.1477  -15.8055   24.8070 C   0  0  0  0  0  0  0  0  0  0  0  0
   10.2252  -14.4620   25.1234 O   0  0  0  0  0  0  0  0  0  0  0  0
   10.4163  -16.6319   25.7057 O   0  0  0  0  0  0  0  0  0  0  0  0
  2  3  1  6
  2  1  1  0
  4  5  1  6
  4  2  1  0
  6  4  1  0
  7  6  2  0
  8  9  1  0
  8  6  1  0
 10  9  1  0
 11 12  1  0
 11 10  1  0
 12  8  1  0
 13 14  2  0
 12 13  1  1
 16 17  2  0
 16 15  1  0
 18 16  1  0
 19 18  1  0
 20 19  1  0
 20 21  1  0
 22 21  1  6
 22 23  1  0
 23 13  1  0
 24 22  1  0
 25 24  1  0
 26 24  2  0
M  END
$$$$
