VPR.pdb
     RDKit          3D

 26 26  0  0  1  0  0  0  0  0999 V2000
    6.1944  -11.0577   26.5155 C   0  0  0  0  0  0  0  0  0  0  0  0
    6.9892  -12.1908   25.9566 C   0  0  1  0  0  0  0  0  0  0  0  0
    8.0513  -12.6898   26.9119 C   0  0  0  0  0  0  0  0  0  0  0  0
    6.1003  -13.3361   25.4847 C   0  0  2  0  0  0  0  0  0  0  0  0
    5.3529  -13.7644   26.6012 N   0  0  0  0  0  0  0  0  0  0  0  0
    6.8752  -14.3181   24.7441 C   0  0  0  0  0  0  0  0  0  0  0  0
    7.0714  -15.4715   25.3053 O   0  0  0  0  0  0  0  0  0  0  0  0
    7.4360  -14.1359   23.4716 N   0  0  0  0  0  0  0  0  0  0  0  0
    7.4604  -12.9542   22.6771 C   0  0  0  0  0  0  0  0  0  0  0  0
    7.1836  -13.5109   21.2657 C   0  0  0  0  0  0  0  0  0  0  0  0
    8.1233  -14.6979   21.2786 C   0  0  0  0  0  0  0  0  0  0  0  0
    8.1464  -15.1601   22.6981 C   0  0  1  0  0  0  0  0  0  0  0  0
    9.5190  -15.3570   23.2016 C   0  0  0  0  0  0  0  0  0  0  0  0
   10.0363  -14.4427   23.8910 O   0  0  0  0  0  0  0  0  0  0  0  0
    8.8842  -20.9754   28.1663 N   0  0  0  0  0  0  0  0  0  0  0  0
    8.1376  -19.9738   27.4546 C   0  0  0  0  0  0  0  0  0  0  0  0
    6.9426  -19.7371   27.8382 N   0  0  0  0  0  0  0  0  0  0  0  0
    8.7322  -19.2870   26.3726 N   0  0  0  0  0  0  0  0  0  0  0  0
    9.8926  -19.7807   25.7021 C   0  0  0  0  0  0  0  0  0  0  0  0
   10.3538  -18.9770   24.5397 C   0  0  0  0  0  0  0  0  0  0  0  0
   11.0121  -17.6812   24.8195 C   0  0  0  0  0  0  0  0  0  0  0  0
   11.4295  -16.8760   23.6357 C   0  0  2  0  0  0  0  0  0  0  0  0
   10.2013  -16.5618   22.8924 N   0  0  0  0  0  0  0  0  0  0  0  0
   12.3079  -17.7290   22.7690 C   0  0  0  0  0  0  0  0  0  0  0  0
   13.6050  -18.0107   23.1551 O   0  0  0  0  0  0  0  0  0  0  0  0
   11.9056  -18.2072   21.6863 O   0  0  0  0  0  0  0  0  0  0  0  0
  2  3  1  1
  2  1  1  0
  4  5  1  1
  4  2  1  0
  6  4  1  0
  7  6  2  0
  8  9  1  0
  8  6  1  0
 10  9  1  0
 11 12  1  0
 11 10  1  0
 12  8  1  0
 13 14  2  0
 12 13  1  1
 16 17  2  0
 16 15  1  0
 18 16  1  0
 19 18  1  0
 20 19  1  0
 20 21  1  0
 22 21  1  1
 22 23  1  0
 23 13  1  0
 24 22  1  0
 25 24  1  0
 26 24  2  0
M  END
$$$$
