VPR.pdb
     RDKit          3D

 26 26  0  0  1  0  0  0  0  0999 V2000
    9.0043  -12.3485   20.8249 C   0  0  0  0  0  0  0  0  0  0  0  0
    7.7336  -13.1049   20.6222 C   0  0  1  0  0  0  0  0  0  0  0  0
    7.4047  -13.3185   19.1607 C   0  0  0  0  0  0  0  0  0  0  0  0
    7.7272  -14.4277   21.3803 C   0  0  2  0  0  0  0  0  0  0  0  0
    6.4477  -14.9950   21.2080 N   0  0  0  0  0  0  0  0  0  0  0  0
    8.2371  -14.2503   22.7301 C   0  0  0  0  0  0  0  0  0  0  0  0
    9.5025  -14.4626   22.9238 O   0  0  0  0  0  0  0  0  0  0  0  0
    7.4858  -13.8694   23.8514 N   0  0  0  0  0  0  0  0  0  0  0  0
    6.0978  -13.5582   23.9217 C   0  0  0  0  0  0  0  0  0  0  0  0
    6.0885  -12.3476   24.8770 C   0  0  0  0  0  0  0  0  0  0  0  0
    7.0275  -12.8672   25.9450 C   0  0  0  0  0  0  0  0  0  0  0  0
    8.0022  -13.7335   25.2177 C   0  0  1  0  0  0  0  0  0  0  0  0
    8.1711  -15.0501   25.8612 C   0  0  0  0  0  0  0  0  0  0  0  0
    7.1787  -15.5623   26.4372 O   0  0  0  0  0  0  0  0  0  0  0  0
    6.7780  -20.7278   28.3132 N   0  0  0  0  0  0  0  0  0  0  0  0
    6.9961  -21.4922   27.1150 C   0  0  0  0  0  0  0  0  0  0  0  0
    7.3775  -22.7043   27.2432 N   0  0  0  0  0  0  0  0  0  0  0  0
    6.7842  -20.8980   25.8510 N   0  0  0  0  0  0  0  0  0  0  0  0
    7.0532  -19.5173   25.6034 C   0  0  0  0  0  0  0  0  0  0  0  0
    8.4160  -19.2092   25.0957 C   0  0  0  0  0  0  0  0  0  0  0  0
    8.7767  -17.7845   24.9199 C   0  0  0  0  0  0  0  0  0  0  0  0
    9.4990  -17.1350   26.0515 C   0  0  2  0  0  0  0  0  0  0  0  0
    9.4378  -15.6871   25.8076 N   0  0  0  0  0  0  0  0  0  0  0  0
   10.9349  -17.5670   26.0065 C   0  0  0  0  0  0  0  0  0  0  0  0
   11.3295  -18.7387   26.6248 O   0  0  0  0  0  0  0  0  0  0  0  0
   11.8101  -16.8952   25.4187 O   0  0  0  0  0  0  0  0  0  0  0  0
  2  3  1  6
  2  1  1  0
  4  5  1  1
  4  2  1  0
  6  4  1  0
  7  6  2  0
  8  9  1  0
  8  6  1  0
 10  9  1  0
 11 12  1  0
 11 10  1  0
 12  8  1  0
 13 14  2  0
 12 13  1  1
 16 17  2  0
 16 15  1  0
 18 16  1  0
 19 18  1  0
 20 19  1  0
 20 21  1  0
 22 21  1  6
 22 23  1  0
 23 13  1  0
 24 22  1  0
 25 24  1  0
 26 24  2  0
M  END
$$$$
