VPR.pdb
     RDKit          3D

 26 26  0  0  1  0  0  0  0  0999 V2000
    8.4060  -12.4156   25.4410 C   0  0  0  0  0  0  0  0  0  0  0  0
    7.2810  -12.8924   26.2985 C   0  0  1  0  0  0  0  0  0  0  0  0
    6.5651  -11.7638   27.0081 C   0  0  0  0  0  0  0  0  0  0  0  0
    6.2957  -13.7583   25.5214 C   0  0  2  0  0  0  0  0  0  0  0  0
    5.3674  -14.2645   26.4544 N   0  0  0  0  0  0  0  0  0  0  0  0
    7.0001  -14.6928   24.6589 C   0  0  0  0  0  0  0  0  0  0  0  0
    7.2737  -15.8646   25.1445 O   0  0  0  0  0  0  0  0  0  0  0  0
    7.4159  -14.4463   23.3424 N   0  0  0  0  0  0  0  0  0  0  0  0
    7.2302  -13.2695   22.5622 C   0  0  0  0  0  0  0  0  0  0  0  0
    6.8902  -13.8539   21.1761 C   0  0  0  0  0  0  0  0  0  0  0  0
    7.9577  -14.9241   21.0895 C   0  0  0  0  0  0  0  0  0  0  0  0
    8.1651  -15.3810   22.4957 C   0  0  1  0  0  0  0  0  0  0  0  0
    9.5919  -15.4176   22.8687 C   0  0  0  0  0  0  0  0  0  0  0  0
   10.0311  -14.5186   23.6289 O   0  0  0  0  0  0  0  0  0  0  0  0
   11.5371  -22.0986   27.1218 N   0  0  0  0  0  0  0  0  0  0  0  0
   12.5831  -21.1131   27.0756 C   0  0  0  0  0  0  0  0  0  0  0  0
   13.7779  -21.5214   26.8841 N   0  0  0  0  0  0  0  0  0  0  0  0
   12.2704  -19.7448   27.2363 N   0  0  0  0  0  0  0  0  0  0  0  0
   11.3212  -19.0773   26.4036 C   0  0  0  0  0  0  0  0  0  0  0  0
   11.8881  -18.3546   25.2347 C   0  0  0  0  0  0  0  0  0  0  0  0
   10.9443  -17.6400   24.3463 C   0  0  0  0  0  0  0  0  0  0  0  0
   11.5383  -16.9205   23.1829 C   0  0  2  0  0  0  0  0  0  0  0  0
   10.4117  -16.4581   22.3605 N   0  0  0  0  0  0  0  0  0  0  0  0
   12.3444  -17.9000   22.3822 C   0  0  0  0  0  0  0  0  0  0  0  0
   13.7005  -18.0388   22.6119 O   0  0  0  0  0  0  0  0  0  0  0  0
   11.8280  -18.6132   21.4947 O   0  0  0  0  0  0  0  0  0  0  0  0
  2  3  1  6
  2  1  1  0
  4  5  1  1
  4  2  1  0
  6  4  1  0
  7  6  2  0
  8  9  1  0
  8  6  1  0
 10  9  1  0
 11 12  1  0
 11 10  1  0
 12  8  1  0
 13 14  2  0
 12 13  1  1
 16 17  2  0
 16 15  1  0
 18 16  1  0
 19 18  1  0
 20 19  1  0
 20 21  1  0
 22 21  1  1
 22 23  1  0
 23 13  1  0
 24 22  1  0
 25 24  1  0
 26 24  2  0
M  END
$$$$
