DVF.pdb
     RDKit          3D

 27 27  0  0  1  0  0  0  0  0999 V2000
   34.1539  -30.3142  -17.1864 N   0  0  0  0  0  0  0  0  0  0  0  0
   33.4649  -29.5658  -18.2121 C   0  0  1  0  0  0  0  0  0  0  0  0
   32.2499  -30.3631  -18.6182 C   0  0  0  0  0  0  0  0  0  0  0  0
   32.7237  -31.5973  -19.2878 C   0  0  0  0  0  0  0  0  0  0  0  0
   33.9299  -31.7934  -19.5778 O   0  0  0  0  0  0  0  0  0  0  0  0
   33.1356  -28.2315  -17.7112 C   0  0  0  0  0  0  0  0  0  0  0  0
   32.9285  -28.0785  -16.4804 O   0  0  0  0  0  0  0  0  0  0  0  0
   31.8097  -32.5862  -19.6147 O   0  0  0  0  0  0  0  0  0  0  0  0
   35.0543  -24.9987  -18.2035 C   0  0  0  0  0  0  0  0  0  0  0  0
   33.6133  -24.7027  -18.5089 C   0  0  2  0  0  0  0  0  0  0  0  0
   33.1444  -23.4151  -17.8742 C   0  0  0  0  0  0  0  0  0  0  0  0
   32.7045  -25.8254  -17.9872 C   0  0  2  0  0  0  0  0  0  0  0  0
   33.0375  -27.0812  -18.5662 N   0  0  0  0  0  0  0  0  0  0  0  0
   31.3168  -25.3860  -18.3174 C   0  0  0  0  0  0  0  0  0  0  0  0
   30.9328  -25.5292  -19.5017 O   0  0  0  0  0  0  0  0  0  0  0  0
   30.4525  -24.8253  -17.3395 N   0  0  0  0  0  0  0  0  0  0  0  0
   29.0898  -24.4160  -17.6473 C   0  0  1  0  0  0  0  0  0  0  0  0
   28.1756  -25.1487  -16.6799 C   0  0  0  0  0  0  0  0  0  0  0  0
   27.9794  -26.5679  -17.0625 C   0  0  0  0  0  0  0  0  0  0  0  0
   28.6073  -27.5487  -16.3349 C   0  0  0  0  0  0  0  0  0  0  0  0
   28.4217  -28.8866  -16.6951 C   0  0  0  0  0  0  0  0  0  0  0  0
   27.6159  -29.2185  -17.7707 C   0  0  0  0  0  0  0  0  0  0  0  0
   26.9792  -28.2171  -18.5082 C   0  0  0  0  0  0  0  0  0  0  0  0
   27.1849  -26.9101  -18.1246 C   0  0  0  0  0  0  0  0  0  0  0  0
   28.8922  -22.9629  -17.3996 C   0  0  0  0  0  0  0  0  0  0  0  0
   27.7567  -22.3018  -17.7672 O   0  0  0  0  0  0  0  0  0  0  0  0
   29.8276  -22.3461  -16.8263 O   0  0  0  0  0  0  0  0  0  0  0  0
  2  3  1  0
  2  1  1  1
  4  3  1  0
  4  8  1  0
  5  4  2  0
  6  2  1  0
  7  6  2  0
 10  9  1  1
 10 12  1  0
 11 10  1  0
 12 13  1  6
 13  6  1  0
 14 12  1  0
 14 16  1  0
 15 14  2  0
 17 16  1  0
 17 25  1  0
 17 18  1  1
 19 18  1  0
 19 20  2  0
 21 20  1  0
 22 21  2  0
 23 24  2  0
 23 22  1  0
 24 19  1  0
 25 26  1  0
 27 25  2  0
M  END
$$$$
