DVF.pdb
     RDKit          3D

 27 27  0  0  1  0  0  0  0  0999 V2000
   22.9994   -9.2944  -21.1450 N   0  0  0  0  0  0  0  0  0  0  0  0
   23.0473   -8.3569  -20.0469 C   0  0  1  0  0  0  0  0  0  0  0  0
   22.2536   -7.1396  -20.4532 C   0  0  0  0  0  0  0  0  0  0  0  0
   23.0646   -6.3790  -21.4329 C   0  0  0  0  0  0  0  0  0  0  0  0
   24.1749   -6.7846  -21.8573 O   0  0  0  0  0  0  0  0  0  0  0  0
   22.5400   -8.9947  -18.8322 C   0  0  0  0  0  0  0  0  0  0  0  0
   21.5212   -9.7276  -18.9107 O   0  0  0  0  0  0  0  0  0  0  0  0
   22.5918   -5.1670  -21.9104 O   0  0  0  0  0  0  0  0  0  0  0  0
   24.2056  -11.3064  -16.3505 C   0  0  0  0  0  0  0  0  0  0  0  0
   23.5838  -10.1889  -15.5617 C   0  0  2  0  0  0  0  0  0  0  0  0
   22.8690  -10.6855  -14.3275 C   0  0  0  0  0  0  0  0  0  0  0  0
   22.5532   -9.4308  -16.4112 C   0  0  2  0  0  0  0  0  0  0  0  0
   23.1561   -8.8209  -17.5461 N   0  0  0  0  0  0  0  0  0  0  0  0
   21.9375   -8.4394  -15.4807 C   0  0  0  0  0  0  0  0  0  0  0  0
   22.6231   -7.4377  -15.1691 O   0  0  0  0  0  0  0  0  0  0  0  0
   20.6272   -8.6098  -14.9595 N   0  0  0  0  0  0  0  0  0  0  0  0
   20.0024   -7.6268  -14.0862 C   0  0  1  0  0  0  0  0  0  0  0  0
   19.4782   -6.5114  -14.9746 C   0  0  0  0  0  0  0  0  0  0  0  0
   18.3651   -6.9650  -15.8431 C   0  0  0  0  0  0  0  0  0  0  0  0
   18.6556   -7.5284  -17.0613 C   0  0  0  0  0  0  0  0  0  0  0  0
   17.6064   -7.9567  -17.8797 C   0  0  0  0  0  0  0  0  0  0  0  0
   16.2922   -7.8149  -17.4680 C   0  0  0  0  0  0  0  0  0  0  0  0
   16.0016   -7.2409  -16.2278 C   0  0  0  0  0  0  0  0  0  0  0  0
   17.0606   -6.8305  -15.4479 C   0  0  0  0  0  0  0  0  0  0  0  0
   18.8231   -8.1992  -13.3836 C   0  0  0  0  0  0  0  0  0  0  0  0
   18.1775   -7.5437  -12.3760 O   0  0  0  0  0  0  0  0  0  0  0  0
   18.4289   -9.3350  -13.7559 O   0  0  0  0  0  0  0  0  0  0  0  0
  2  3  1  0
  2  1  1  6
  4  3  1  0
  4  8  1  0
  5  4  2  0
  6  2  1  0
  7  6  2  0
 10  9  1  6
 10 12  1  0
 11 10  1  0
 12 13  1  6
 13  6  1  0
 14 12  1  0
 14 16  1  0
 15 14  2  0
 17 16  1  0
 17 25  1  0
 17 18  1  6
 19 18  1  0
 19 20  2  0
 21 20  1  0
 22 21  2  0
 23 24  2  0
 23 22  1  0
 24 19  1  0
 25 26  1  0
 27 25  2  0
M  END
$$$$
