DVF.pdb
     RDKit          3D

 27 27  0  0  1  0  0  0  0  0999 V2000
   24.8676  -17.3183  -18.8056 N   0  0  0  0  0  0  0  0  0  0  0  0
   24.8079  -17.5090  -17.3748 C   0  0  1  0  0  0  0  0  0  0  0  0
   24.7240  -16.1440  -16.7371 C   0  0  0  0  0  0  0  0  0  0  0  0
   26.0130  -15.4538  -16.9781 C   0  0  0  0  0  0  0  0  0  0  0  0
   26.9365  -15.9580  -17.6641 O   0  0  0  0  0  0  0  0  0  0  0  0
   23.6744  -18.3706  -17.0395 C   0  0  0  0  0  0  0  0  0  0  0  0
   22.8425  -18.6574  -17.9379 O   0  0  0  0  0  0  0  0  0  0  0  0
   26.2241  -14.1986  -16.4301 O   0  0  0  0  0  0  0  0  0  0  0  0
   22.9020  -21.0122  -17.7289 C   0  0  0  0  0  0  0  0  0  0  0  0
   22.8161  -21.2094  -16.2418 C   0  0  2  0  0  0  0  0  0  0  0  0
   21.7656  -22.2238  -15.8567 C   0  0  0  0  0  0  0  0  0  0  0  0
   22.4578  -19.8924  -15.5378 C   0  0  2  0  0  0  0  0  0  0  0  0
   23.4669  -18.9074  -15.7232 N   0  0  0  0  0  0  0  0  0  0  0  0
   22.2642  -20.2593  -14.1040 C   0  0  0  0  0  0  0  0  0  0  0  0
   23.2495  -20.7340  -13.4920 O   0  0  0  0  0  0  0  0  0  0  0  0
   21.0186  -20.0841  -13.4442 N   0  0  0  0  0  0  0  0  0  0  0  0
   20.8459  -20.3491  -12.0231 C   0  0  1  0  0  0  0  0  0  0  0  0
   20.5880  -19.0123  -11.3490 C   0  0  0  0  0  0  0  0  0  0  0  0
   19.5156  -18.2431  -12.0252 C   0  0  0  0  0  0  0  0  0  0  0  0
   19.8383  -17.4482  -13.0974 C   0  0  0  0  0  0  0  0  0  0  0  0
   18.8273  -16.7237  -13.7354 C   0  0  0  0  0  0  0  0  0  0  0  0
   17.5183  -16.8061  -13.2923 C   0  0  0  0  0  0  0  0  0  0  0  0
   17.1948  -17.6160  -12.2008 C   0  0  0  0  0  0  0  0  0  0  0  0
   18.2165  -18.3154  -11.5969 C   0  0  0  0  0  0  0  0  0  0  0  0
   19.6451  -21.1897  -11.7716 C   0  0  0  0  0  0  0  0  0  0  0  0
   19.3738  -21.7388  -10.5523 O   0  0  0  0  0  0  0  0  0  0  0  0
   18.8672  -21.3842  -12.7417 O   0  0  0  0  0  0  0  0  0  0  0  0
  2  3  1  0
  2  1  1  6
  4  3  1  0
  4  8  1  0
  5  4  2  0
  6  2  1  0
  7  6  2  0
 10  9  1  6
 10 12  1  0
 11 10  1  0
 12 13  1  1
 13  6  1  0
 14 12  1  0
 14 16  1  0
 15 14  2  0
 17 16  1  0
 17 25  1  0
 17 18  1  1
 19 18  1  0
 19 20  2  0
 21 20  1  0
 22 21  2  0
 23 24  2  0
 23 22  1  0
 24 19  1  0
 25 26  1  0
 27 25  2  0
M  END
$$$$
