DVF.pdb
     RDKit          3D

 27 27  0  0  1  0  0  0  0  0999 V2000
   27.6415  -19.5222  -18.8099 N   0  0  0  0  0  0  0  0  0  0  0  0
   27.3686  -20.6868  -17.9998 C   0  0  1  0  0  0  0  0  0  0  0  0
   28.6712  -21.1210  -17.3741 C   0  0  0  0  0  0  0  0  0  0  0  0
   29.4005  -21.9381  -18.3723 C   0  0  0  0  0  0  0  0  0  0  0  0
   28.9693  -22.1354  -19.5353 O   0  0  0  0  0  0  0  0  0  0  0  0
   26.3350  -20.3702  -17.0143 C   0  0  0  0  0  0  0  0  0  0  0  0
   26.0071  -19.1683  -16.8423 O   0  0  0  0  0  0  0  0  0  0  0  0
   30.6107  -22.5159  -18.0231 O   0  0  0  0  0  0  0  0  0  0  0  0
   22.8780  -21.1780  -17.2187 C   0  0  0  0  0  0  0  0  0  0  0  0
   23.2711  -21.6483  -15.8469 C   0  0  2  0  0  0  0  0  0  0  0  0
   22.2277  -21.3192  -14.8059 C   0  0  0  0  0  0  0  0  0  0  0  0
   24.5841  -20.9884  -15.4007 C   0  0  2  0  0  0  0  0  0  0  0  0
   25.6735  -21.3753  -16.2294 N   0  0  0  0  0  0  0  0  0  0  0  0
   24.7634  -21.4040  -13.9784 C   0  0  0  0  0  0  0  0  0  0  0  0
   25.0606  -22.6019  -13.7606 O   0  0  0  0  0  0  0  0  0  0  0  0
   24.6065  -20.4905  -12.9022 N   0  0  0  0  0  0  0  0  0  0  0  0
   24.6598  -20.9111  -11.5094 C   0  0  1  0  0  0  0  0  0  0  0  0
   25.6372  -19.9874  -10.8025 C   0  0  0  0  0  0  0  0  0  0  0  0
   27.0014  -20.0714  -11.3778 C   0  0  0  0  0  0  0  0  0  0  0  0
   27.3388  -19.2433  -12.4200 C   0  0  0  0  0  0  0  0  0  0  0  0
   28.6250  -19.3218  -12.9618 C   0  0  0  0  0  0  0  0  0  0  0  0
   29.5463  -20.2223  -12.4550 C   0  0  0  0  0  0  0  0  0  0  0  0
   29.1983  -21.0630  -11.3947 C   0  0  0  0  0  0  0  0  0  0  0  0
   27.9224  -20.9578  -10.8859 C   0  0  0  0  0  0  0  0  0  0  0  0
   23.3447  -20.7303  -10.8389 C   0  0  0  0  0  0  0  0  0  0  0  0
   23.0612  -21.2695   -9.6180 O   0  0  0  0  0  0  0  0  0  0  0  0
   22.4794  -20.0478  -11.4470 O   0  0  0  0  0  0  0  0  0  0  0  0
  2  3  1  0
  2  1  1  1
  4  3  1  0
  4  8  1  0
  5  4  2  0
  6  2  1  0
  7  6  2  0
 10  9  1  6
 10 12  1  0
 11 10  1  0
 12 13  1  6
 13  6  1  0
 14 12  1  0
 14 16  1  0
 15 14  2  0
 17 16  1  0
 17 25  1  0
 17 18  1  1
 19 18  1  0
 19 20  2  0
 21 20  1  0
 22 21  2  0
 23 24  2  0
 23 22  1  0
 24 19  1  0
 25 26  1  0
 27 25  2  0
M  END
$$$$
