DVF.pdb
     RDKit          3D

 27 27  0  0  1  0  0  0  0  0999 V2000
   17.3966   -1.7337  -16.0417 N   0  0  0  0  0  0  0  0  0  0  0  0
   17.5262   -2.7477  -15.0208 C   0  0  1  0  0  0  0  0  0  0  0  0
   16.1977   -3.4547  -14.9108 C   0  0  0  0  0  0  0  0  0  0  0  0
   15.2624   -2.5495  -14.2025 C   0  0  0  0  0  0  0  0  0  0  0  0
   15.6513   -1.6426  -13.4254 O   0  0  0  0  0  0  0  0  0  0  0  0
   18.6298   -3.6469  -15.3569 C   0  0  0  0  0  0  0  0  0  0  0  0
   19.0075   -3.7245  -16.5539 O   0  0  0  0  0  0  0  0  0  0  0  0
   13.8980   -2.6970  -14.3948 O   0  0  0  0  0  0  0  0  0  0  0  0
   22.1965   -3.9173  -13.9624 C   0  0  0  0  0  0  0  0  0  0  0  0
   21.5598   -5.2768  -13.8981 C   0  0  2  0  0  0  0  0  0  0  0  0
   22.5007   -6.3730  -14.3380 C   0  0  0  0  0  0  0  0  0  0  0  0
   20.3250   -5.3432  -14.8089 C   0  0  2  0  0  0  0  0  0  0  0  0
   19.3058   -4.4502  -14.3763 N   0  0  0  0  0  0  0  0  0  0  0  0
   19.8946   -6.7720  -14.7751 C   0  0  0  0  0  0  0  0  0  0  0  0
   19.6542   -7.2756  -13.6530 O   0  0  0  0  0  0  0  0  0  0  0  0
   19.7583   -7.5447  -15.9591 N   0  0  0  0  0  0  0  0  0  0  0  0
   19.2994   -8.9262  -15.9390 C   0  0  1  0  0  0  0  0  0  0  0  0
   18.1868   -9.0408  -16.9672 C   0  0  0  0  0  0  0  0  0  0  0  0
   17.6670  -10.4253  -17.0762 C   0  0  0  0  0  0  0  0  0  0  0  0
   17.7974  -11.0957  -18.2675 C   0  0  0  0  0  0  0  0  0  0  0  0
   17.3081  -12.4012  -18.3700 C   0  0  0  0  0  0  0  0  0  0  0  0
   16.7001  -13.0101  -17.2855 C   0  0  0  0  0  0  0  0  0  0  0  0
   16.5696  -12.3239  -16.0755 C   0  0  0  0  0  0  0  0  0  0  0  0
   17.0634  -11.0394  -16.0109 C   0  0  0  0  0  0  0  0  0  0  0  0
   20.3738   -9.8595  -16.3709 C   0  0  0  0  0  0  0  0  0  0  0  0
   20.5222  -11.1071  -15.8387 O   0  0  0  0  0  0  0  0  0  0  0  0
   21.1619   -9.4535  -17.2643 O   0  0  0  0  0  0  0  0  0  0  0  0
  2  3  1  0
  2  1  1  6
  4  3  1  0
  4  8  1  0
  5  4  2  0
  6  2  1  0
  7  6  2  0
 10  9  1  6
 10 12  1  0
 11 10  1  0
 12 13  1  1
 13  6  1  0
 14 12  1  0
 14 16  1  0
 15 14  2  0
 17 16  1  0
 17 25  1  0
 17 18  1  6
 19 18  1  0
 19 20  2  0
 21 20  1  0
 22 21  2  0
 23 24  2  0
 23 22  1  0
 24 19  1  0
 25 26  1  0
 27 25  2  0
M  END
$$$$
