DVF.pdb
     RDKit          3D

 27 27  0  0  1  0  0  0  0  0999 V2000
   27.6306  -21.5248  -16.5080 N   0  0  0  0  0  0  0  0  0  0  0  0
   26.8597  -20.4713  -15.8893 C   0  0  1  0  0  0  0  0  0  0  0  0
   25.9650  -19.8792  -16.9503 C   0  0  0  0  0  0  0  0  0  0  0  0
   26.7972  -18.9952  -17.8000 C   0  0  0  0  0  0  0  0  0  0  0  0
   27.7288  -19.4274  -18.5231 O   0  0  0  0  0  0  0  0  0  0  0  0
   26.1196  -21.0079  -14.7473 C   0  0  0  0  0  0  0  0  0  0  0  0
   25.5551  -22.1259  -14.8602 O   0  0  0  0  0  0  0  0  0  0  0  0
   26.5499  -17.6317  -17.8080 O   0  0  0  0  0  0  0  0  0  0  0  0
   27.2822  -21.1188  -11.0446 C   0  0  0  0  0  0  0  0  0  0  0  0
   25.8557  -20.6477  -11.0755 C   0  0  2  0  0  0  0  0  0  0  0  0
   24.9938  -21.3590  -10.0597 C   0  0  0  0  0  0  0  0  0  0  0  0
   25.2307  -20.8948  -12.4564 C   0  0  2  0  0  0  0  0  0  0  0  0
   26.0077  -20.3120  -13.4955 N   0  0  0  0  0  0  0  0  0  0  0  0
   23.8567  -20.3183  -12.3690 C   0  0  0  0  0  0  0  0  0  0  0  0
   23.7411  -19.1769  -11.8645 O   0  0  0  0  0  0  0  0  0  0  0  0
   22.7143  -21.0226  -12.8343 N   0  0  0  0  0  0  0  0  0  0  0  0
   21.3684  -20.4769  -12.7336 C   0  0  1  0  0  0  0  0  0  0  0  0
   21.3285  -19.2281  -13.5979 C   0  0  0  0  0  0  0  0  0  0  0  0
   21.5812  -19.5296  -15.0276 C   0  0  0  0  0  0  0  0  0  0  0  0
   20.5882  -20.1176  -15.7718 C   0  0  0  0  0  0  0  0  0  0  0  0
   20.8260  -20.4011  -17.1198 C   0  0  0  0  0  0  0  0  0  0  0  0
   22.0462  -20.0935  -17.6970 C   0  0  0  0  0  0  0  0  0  0  0  0
   23.0536  -19.4954  -16.9358 C   0  0  0  0  0  0  0  0  0  0  0  0
   22.7838  -19.2305  -15.6111 C   0  0  0  0  0  0  0  0  0  0  0  0
   20.3608  -21.4148  -13.2966 C   0  0  0  0  0  0  0  0  0  0  0  0
   20.6944  -22.6401  -13.7957 O   0  0  0  0  0  0  0  0  0  0  0  0
   19.1610  -21.0344  -13.2990 O   0  0  0  0  0  0  0  0  0  0  0  0
  2  3  1  0
  2  1  1  6
  4  3  1  0
  4  8  1  0
  5  4  2  0
  6  2  1  0
  7  6  2  0
 10  9  1  6
 10 12  1  0
 11 10  1  0
 12 13  1  6
 13  6  1  0
 14 12  1  0
 14 16  1  0
 15 14  2  0
 17 16  1  0
 17 25  1  0
 17 18  1  6
 19 18  1  0
 19 20  2  0
 21 20  1  0
 22 21  2  0
 23 24  2  0
 23 22  1  0
 24 19  1  0
 25 26  1  0
 27 25  2  0
M  END
$$$$
