DVF.pdb
     RDKit          3D

 27 27  0  0  1  0  0  0  0  0999 V2000
   21.1868  -11.2916  -22.2785 N   0  0  0  0  0  0  0  0  0  0  0  0
   20.2862  -11.3260  -21.1494 C   0  0  1  0  0  0  0  0  0  0  0  0
   20.7295  -12.4522  -20.2482 C   0  0  0  0  0  0  0  0  0  0  0  0
   20.2558  -13.7221  -20.8473 C   0  0  0  0  0  0  0  0  0  0  0  0
   19.5266  -13.7615  -21.8691 O   0  0  0  0  0  0  0  0  0  0  0  0
   20.2820  -10.0240  -20.4826 C   0  0  0  0  0  0  0  0  0  0  0  0
   21.3802   -9.4584  -20.2472 O   0  0  0  0  0  0  0  0  0  0  0  0
   20.6240  -14.9255  -20.2672 O   0  0  0  0  0  0  0  0  0  0  0  0
   17.6005   -7.0034  -21.0145 C   0  0  0  0  0  0  0  0  0  0  0  0
   17.8866   -7.2806  -19.5657 C   0  0  2  0  0  0  0  0  0  0  0  0
   18.0700   -6.0140  -18.7640 C   0  0  0  0  0  0  0  0  0  0  0  0
   19.1721   -8.1068  -19.4131 C   0  0  2  0  0  0  0  0  0  0  0  0
   19.0737   -9.3582  -20.0822 N   0  0  0  0  0  0  0  0  0  0  0  0
   19.3672   -8.2522  -17.9405 C   0  0  0  0  0  0  0  0  0  0  0  0
   18.6632   -9.1020  -17.3465 O   0  0  0  0  0  0  0  0  0  0  0  0
   20.3092   -7.4658  -17.2251 N   0  0  0  0  0  0  0  0  0  0  0  0
   20.5246   -7.6192  -15.7936 C   0  0  1  0  0  0  0  0  0  0  0  0
   22.0252   -7.7170  -15.5770 C   0  0  0  0  0  0  0  0  0  0  0  0
   22.3730   -7.8947  -14.1465 C   0  0  0  0  0  0  0  0  0  0  0  0
   22.5370   -6.7837  -13.3562 C   0  0  0  0  0  0  0  0  0  0  0  0
   22.8641   -6.9511  -12.0074 C   0  0  0  0  0  0  0  0  0  0  0  0
   23.0209   -8.2196  -11.4755 C   0  0  0  0  0  0  0  0  0  0  0  0
   22.8532   -9.3469  -12.2836 C   0  0  0  0  0  0  0  0  0  0  0  0
   22.5311   -9.1439  -13.6076 C   0  0  0  0  0  0  0  0  0  0  0  0
   20.0655   -6.4185  -15.0456 C   0  0  0  0  0  0  0  0  0  0  0  0
   19.5358   -6.4919  -13.7903 O   0  0  0  0  0  0  0  0  0  0  0  0
   20.1833   -5.3048  -15.6200 O   0  0  0  0  0  0  0  0  0  0  0  0
  2  3  1  0
  2  1  1  6
  4  3  1  0
  4  8  1  0
  5  4  2  0
  6  2  1  0
  7  6  2  0
 10  9  1  6
 10 12  1  0
 11 10  1  0
 12 13  1  6
 13  6  1  0
 14 12  1  0
 14 16  1  0
 15 14  2  0
 17 16  1  0
 17 25  1  0
 17 18  1  6
 19 18  1  0
 19 20  2  0
 21 20  1  0
 22 21  2  0
 23 24  2  0
 23 22  1  0
 24 19  1  0
 25 26  1  0
 27 25  2  0
M  END
$$$$
