DVF.pdb
     RDKit          3D

 27 27  0  0  1  0  0  0  0  0999 V2000
   20.6639  -21.1565  -12.7452 N   0  0  0  0  0  0  0  0  0  0  0  0
   21.5184  -20.1328  -12.1893 C   0  0  1  0  0  0  0  0  0  0  0  0
   20.6883  -19.3215  -11.2252 C   0  0  0  0  0  0  0  0  0  0  0  0
   19.8075  -18.4362  -12.0230 C   0  0  0  0  0  0  0  0  0  0  0  0
   18.5812  -18.6585  -12.1788 O   0  0  0  0  0  0  0  0  0  0  0  0
   22.6858  -20.7524  -11.5623 C   0  0  0  0  0  0  0  0  0  0  0  0
   22.5227  -21.7811  -10.8576 O   0  0  0  0  0  0  0  0  0  0  0  0
   20.3444  -17.3117  -12.6293 O   0  0  0  0  0  0  0  0  0  0  0  0
   25.7397  -21.8080  -13.4442 C   0  0  0  0  0  0  0  0  0  0  0  0
   26.2405  -21.1438  -12.1929 C   0  0  2  0  0  0  0  0  0  0  0  0
   27.3341  -21.9382  -11.5192 C   0  0  0  0  0  0  0  0  0  0  0  0
   25.1044  -20.9767  -11.1732 C   0  0  2  0  0  0  0  0  0  0  0  0
   24.0177  -20.2364  -11.7157 N   0  0  0  0  0  0  0  0  0  0  0  0
   25.7332  -20.3039   -9.9986 C   0  0  0  0  0  0  0  0  0  0  0  0
   25.3338  -19.1511   -9.7121 O   0  0  0  0  0  0  0  0  0  0  0  0
   26.7461  -20.9315   -9.2255 N   0  0  0  0  0  0  0  0  0  0  0  0
   27.4875  -20.2241   -8.1914 C   0  0  1  0  0  0  0  0  0  0  0  0
   26.6783  -20.3327   -6.9102 C   0  0  0  0  0  0  0  0  0  0  0  0
   27.3946  -19.7570   -5.7464 C   0  0  0  0  0  0  0  0  0  0  0  0
   27.3895  -18.3958   -5.5657 C   0  0  0  0  0  0  0  0  0  0  0  0
   28.0640  -17.8530   -4.4682 C   0  0  0  0  0  0  0  0  0  0  0  0
   28.7283  -18.6765   -3.5754 C   0  0  0  0  0  0  0  0  0  0  0  0
   28.7309  -20.0609   -3.7634 C   0  0  0  0  0  0  0  0  0  0  0  0
   28.0558  -20.5604   -4.8555 C   0  0  0  0  0  0  0  0  0  0  0  0
   28.7970  -20.8758   -7.9227 C   0  0  0  0  0  0  0  0  0  0  0  0
   29.8701  -20.1940   -7.4274 O   0  0  0  0  0  0  0  0  0  0  0  0
   28.8877  -22.1061   -8.1722 O   0  0  0  0  0  0  0  0  0  0  0  0
  2  3  1  0
  2  1  1  1
  4  3  1  0
  4  8  1  0
  5  4  2  0
  6  2  1  0
  7  6  2  0
 10  9  1  6
 10 12  1  0
 11 10  1  0
 12 13  1  6
 13  6  1  0
 14 12  1  0
 14 16  1  0
 15 14  2  0
 17 16  1  0
 17 25  1  0
 17 18  1  1
 19 18  1  0
 19 20  2  0
 21 20  1  0
 22 21  2  0
 23 24  2  0
 23 22  1  0
 24 19  1  0
 25 26  1  0
 27 25  2  0
M  END
$$$$
