DVF.pdb
     RDKit          3D

 27 27  0  0  1  0  0  0  0  0999 V2000
   27.5206  -21.3081  -17.4413 N   0  0  0  0  0  0  0  0  0  0  0  0
   27.6488  -20.2521  -16.4639 C   0  0  1  0  0  0  0  0  0  0  0  0
   26.5610  -19.2432  -16.7391 C   0  0  0  0  0  0  0  0  0  0  0  0
   26.9052  -18.5411  -17.9979 C   0  0  0  0  0  0  0  0  0  0  0  0
   27.9787  -17.9075  -18.1514 O   0  0  0  0  0  0  0  0  0  0  0  0
   27.5811  -20.8172  -15.1164 C   0  0  0  0  0  0  0  0  0  0  0  0
   26.9507  -21.8907  -14.9386 O   0  0  0  0  0  0  0  0  0  0  0  0
   26.0155  -18.5755  -19.0597 O   0  0  0  0  0  0  0  0  0  0  0  0
   30.4249  -21.3036  -12.4082 C   0  0  0  0  0  0  0  0  0  0  0  0
   29.2391  -20.6100  -11.7998 C   0  0  2  0  0  0  0  0  0  0  0  0
   28.8849  -21.1639  -10.4402 C   0  0  0  0  0  0  0  0  0  0  0  0
   27.9995  -20.7668  -12.6928 C   0  0  2  0  0  0  0  0  0  0  0  0
   28.2055  -20.1982  -13.9802 N   0  0  0  0  0  0  0  0  0  0  0  0
   26.8928  -20.1068  -11.9394 C   0  0  0  0  0  0  0  0  0  0  0  0
   26.5931  -18.9340  -12.2642 O   0  0  0  0  0  0  0  0  0  0  0  0
   26.1966  -20.7678  -10.8926 N   0  0  0  0  0  0  0  0  0  0  0  0
   24.9077  -20.3038  -10.3999 C   0  0  1  0  0  0  0  0  0  0  0  0
   23.8627  -20.7293  -11.4174 C   0  0  0  0  0  0  0  0  0  0  0  0
   22.4974  -20.3000  -11.0292 C   0  0  0  0  0  0  0  0  0  0  0  0
   21.7229  -21.1425  -10.2702 C   0  0  0  0  0  0  0  0  0  0  0  0
   20.4362  -20.7375   -9.9036 C   0  0  0  0  0  0  0  0  0  0  0  0
   19.9490  -19.5039  -10.3003 C   0  0  0  0  0  0  0  0  0  0  0  0
   20.7406  -18.6502  -11.0726 C   0  0  0  0  0  0  0  0  0  0  0  0
   22.0031  -19.0822  -11.4150 C   0  0  0  0  0  0  0  0  0  0  0  0
   24.5472  -20.9676   -9.1188 C   0  0  0  0  0  0  0  0  0  0  0  0
   23.8849  -20.3211   -8.1162 O   0  0  0  0  0  0  0  0  0  0  0  0
   24.8801  -22.1739   -8.9839 O   0  0  0  0  0  0  0  0  0  0  0  0
  2  3  1  0
  2  1  1  6
  4  3  1  0
  4  8  1  0
  5  4  2  0
  6  2  1  0
  7  6  2  0
 10  9  1  6
 10 12  1  0
 11 10  1  0
 12 13  1  6
 13  6  1  0
 14 12  1  0
 14 16  1  0
 15 14  2  0
 17 16  1  0
 17 25  1  0
 17 18  1  6
 19 18  1  0
 19 20  2  0
 21 20  1  0
 22 21  2  0
 23 24  2  0
 23 22  1  0
 24 19  1  0
 25 26  1  0
 27 25  2  0
M  END
$$$$
