NPV.pdb
     RDKit          3D

 23 23  0  0  1  0  0  0  0  0999 V2000
   27.1749  -17.4318  -20.7462 N   0  0  0  0  0  0  0  0  0  0  0  0
   27.4265  -17.8318  -19.4103 C   0  0  0  0  0  0  0  0  0  0  0  0
   28.3809  -17.2604  -18.8006 O   0  0  0  0  0  0  0  0  0  0  0  0
   26.6152  -18.8693  -18.7514 C   0  0  0  0  0  0  0  0  0  0  0  0
   27.5493  -19.9549  -18.1920 C   0  0  2  0  0  0  0  0  0  0  0  0
   27.8675  -20.7944  -19.3389 N   0  0  0  0  0  0  0  0  0  0  0  0
   26.7648  -20.7176  -17.2004 C   0  0  0  0  0  0  0  0  0  0  0  0
   26.1850  -21.7771  -17.6432 O   0  0  0  0  0  0  0  0  0  0  0  0
   26.6244  -20.3614  -15.8514 N   0  0  0  0  0  0  0  0  0  0  0  0
   27.1321  -19.1698  -15.2348 C   0  0  0  0  0  0  0  0  0  0  0  0
   27.4627  -19.6295  -13.8273 C   0  0  0  0  0  0  0  0  0  0  0  0
   27.0292  -21.0981  -13.7436 C   0  0  0  0  0  0  0  0  0  0  0  0
   25.9430  -21.0905  -14.8307 C   0  0  1  0  0  0  0  0  0  0  0  0
   24.7289  -20.3847  -14.3334 C   0  0  0  0  0  0  0  0  0  0  0  0
   24.7721  -19.1663  -14.0908 O   0  0  0  0  0  0  0  0  0  0  0  0
   21.1691  -22.4338  -15.1647 C   0  0  0  0  0  0  0  0  0  0  0  0
   21.3516  -20.9526  -15.2662 C   0  0  2  0  0  0  0  0  0  0  0  0
   21.9668  -20.6385  -16.6110 C   0  0  0  0  0  0  0  0  0  0  0  0
   22.2098  -20.4024  -14.1363 C   0  0  2  0  0  0  0  0  0  0  0  0
   23.4970  -21.0603  -14.1200 N   0  0  0  0  0  0  0  0  0  0  0  0
   21.5091  -20.7132  -12.8734 C   0  0  0  0  0  0  0  0  0  0  0  0
   20.4451  -19.9628  -12.3914 O   0  0  0  0  0  0  0  0  0  0  0  0
   21.8846  -21.6984  -12.1972 O   0  0  0  0  0  0  0  0  0  0  0  0
  2  3  2  0
  2  1  1  0
  4  2  1  0
  5  4  1  0
  5  6  1  6
  7  5  1  0
  7  8  2  0
  9  7  1  0
 10  9  1  0
 11 12  1  0
 11 10  1  0
 12 13  1  0
 13 14  1  1
 13  9  1  0
 14 20  1  0
 15 14  2  0
 17 19  1  0
 17 16  1  1
 18 17  1  0
 19 21  1  0
 19 20  1  1
 21 23  2  0
 21 22  1  0
M  END
$$$$
