NPV.pdb
     RDKit          3D

 23 23  0  0  1  0  0  0  0  0999 V2000
   27.7843  -17.3427  -17.7442 N   0  0  0  0  0  0  0  0  0  0  0  0
   26.4633  -17.7220  -17.3993 C   0  0  0  0  0  0  0  0  0  0  0  0
   25.5192  -17.2536  -18.1053 O   0  0  0  0  0  0  0  0  0  0  0  0
   26.1918  -18.6239  -16.2672 C   0  0  0  0  0  0  0  0  0  0  0  0
   27.0777  -19.8736  -16.3992 C   0  0  2  0  0  0  0  0  0  0  0  0
   26.4873  -20.6300  -17.4950 N   0  0  0  0  0  0  0  0  0  0  0  0
   26.9469  -20.6203  -15.1320 C   0  0  0  0  0  0  0  0  0  0  0  0
   26.0301  -21.5223  -15.1080 O   0  0  0  0  0  0  0  0  0  0  0  0
   27.7405  -20.4062  -13.9959 N   0  0  0  0  0  0  0  0  0  0  0  0
   28.7073  -19.3602  -13.8254 C   0  0  0  0  0  0  0  0  0  0  0  0
   29.7644  -20.0128  -12.9546 C   0  0  0  0  0  0  0  0  0  0  0  0
   29.2467  -21.4205  -12.6350 C   0  0  0  0  0  0  0  0  0  0  0  0
   27.7392  -21.1620  -12.7850 C   0  0  1  0  0  0  0  0  0  0  0  0
   27.2376  -20.3805  -11.6201 C   0  0  0  0  0  0  0  0  0  0  0  0
   27.5591  -19.1872  -11.4857 O   0  0  0  0  0  0  0  0  0  0  0  0
   23.7192  -21.9170   -9.9959 C   0  0  0  0  0  0  0  0  0  0  0  0
   24.0566  -20.4663  -10.1347 C   0  0  2  0  0  0  0  0  0  0  0  0
   23.7482  -20.0379  -11.5513 C   0  0  0  0  0  0  0  0  0  0  0  0
   25.5103  -20.1804   -9.7868 C   0  0  2  0  0  0  0  0  0  0  0  0
   26.3890  -20.9539  -10.6351 N   0  0  0  0  0  0  0  0  0  0  0  0
   25.7107  -20.6116   -8.3881 C   0  0  0  0  0  0  0  0  0  0  0  0
   25.2186  -19.9059   -7.2985 O   0  0  0  0  0  0  0  0  0  0  0  0
   26.3538  -21.6626   -8.1628 O   0  0  0  0  0  0  0  0  0  0  0  0
  2  3  2  0
  2  1  1  0
  4  2  1  0
  5  4  1  0
  5  6  1  6
  7  5  1  0
  7  8  2  0
  9  7  1  0
 10  9  1  0
 11 12  1  0
 11 10  1  0
 12 13  1  0
 13 14  1  1
 13  9  1  0
 14 20  1  0
 15 14  2  0
 17 19  1  0
 17 16  1  6
 18 17  1  0
 19 21  1  0
 19 20  1  6
 21 23  2  0
 21 22  1  0
M  END
$$$$
