NPV.pdb
     RDKit          3D

 23 23  0  0  1  0  0  0  0  0999 V2000
   17.3298  -21.2882    2.1720 N   0  0  0  0  0  0  0  0  0  0  0  0
   17.3955  -20.8011    3.5010 C   0  0  0  0  0  0  0  0  0  0  0  0
   17.4855  -21.6580    4.4321 O   0  0  0  0  0  0  0  0  0  0  0  0
   17.3612  -19.3585    3.7951 C   0  0  0  0  0  0  0  0  0  0  0  0
   16.0249  -19.0180    4.4750 C   0  0  2  0  0  0  0  0  0  0  0  0
   15.0301  -19.1491    3.4193 N   0  0  0  0  0  0  0  0  0  0  0  0
   16.1215  -17.6123    4.9167 C   0  0  0  0  0  0  0  0  0  0  0  0
   15.6916  -16.7340    4.0808 O   0  0  0  0  0  0  0  0  0  0  0  0
   16.6373  -17.1996    6.1535 N   0  0  0  0  0  0  0  0  0  0  0  0
   17.2517  -18.0442    7.1370 C   0  0  0  0  0  0  0  0  0  0  0  0
   16.8595  -17.3836    8.4453 C   0  0  0  0  0  0  0  0  0  0  0  0
   16.0747  -16.1210    8.0692 C   0  0  0  0  0  0  0  0  0  0  0  0
   16.6737  -15.8717    6.6760 C   0  0  1  0  0  0  0  0  0  0  0  0
   18.0603  -15.3424    6.8046 C   0  0  0  0  0  0  0  0  0  0  0  0
   18.9913  -16.1042    7.1181 O   0  0  0  0  0  0  0  0  0  0  0  0
   18.8432  -11.2448    5.6883 C   0  0  0  0  0  0  0  0  0  0  0  0
   19.7521  -12.3855    5.3564 C   0  0  2  0  0  0  0  0  0  0  0  0
   19.3517  -12.9381    4.0075 C   0  0  0  0  0  0  0  0  0  0  0  0
   19.7172  -13.4739    6.4195 C   0  0  2  0  0  0  0  0  0  0  0  0
   18.3701  -13.9740    6.5791 N   0  0  0  0  0  0  0  0  0  0  0  0
   20.1377  -12.8480    7.6899 C   0  0  0  0  0  0  0  0  0  0  0  0
   21.4669  -12.6211    8.0206 O   0  0  0  0  0  0  0  0  0  0  0  0
   19.2617  -12.5016    8.5155 O   0  0  0  0  0  0  0  0  0  0  0  0
  2  3  2  0
  2  1  1  0
  4  2  1  0
  5  4  1  0
  5  6  1  6
  7  5  1  0
  7  8  2  0
  9  7  1  0
 10  9  1  0
 11 12  1  0
 11 10  1  0
 12 13  1  0
 13 14  1  1
 13  9  1  0
 14 20  1  0
 15 14  2  0
 17 19  1  0
 17 16  1  1
 18 17  1  0
 19 21  1  0
 19 20  1  1
 21 23  2  0
 21 22  1  0
M  END
$$$$
