NPV.pdb
     RDKit          3D

 23 23  0  0  1  0  0  0  0  0999 V2000
   16.4600   -9.6562  -18.5112 N   0  0  0  0  0  0  0  0  0  0  0  0
   17.3007   -9.0195  -17.5648 C   0  0  0  0  0  0  0  0  0  0  0  0
   18.0911   -8.1257  -17.9955 O   0  0  0  0  0  0  0  0  0  0  0  0
   17.2622   -9.3774  -16.1369 C   0  0  0  0  0  0  0  0  0  0  0  0
   18.6795   -9.7577  -15.6778 C   0  0  2  0  0  0  0  0  0  0  0  0
   18.8279  -11.1556  -16.0592 N   0  0  0  0  0  0  0  0  0  0  0  0
   18.6980   -9.6228  -14.2075 C   0  0  0  0  0  0  0  0  0  0  0  0
   18.3165  -10.6589  -13.5473 O   0  0  0  0  0  0  0  0  0  0  0  0
   19.0955   -8.4680  -13.5186 N   0  0  0  0  0  0  0  0  0  0  0  0
   19.4747   -7.2183  -14.1123 C   0  0  0  0  0  0  0  0  0  0  0  0
   20.5239   -6.6902  -13.1521 C   0  0  0  0  0  0  0  0  0  0  0  0
   20.6037   -7.7044  -12.0047 C   0  0  0  0  0  0  0  0  0  0  0  0
   19.1875   -8.2927  -12.1049 C   0  0  1  0  0  0  0  0  0  0  0  0
   18.1917   -7.3164  -11.5808 C   0  0  0  0  0  0  0  0  0  0  0  0
   17.9520   -6.2720  -12.2110 O   0  0  0  0  0  0  0  0  0  0  0  0
   14.9419   -8.9180  -10.0489 C   0  0  0  0  0  0  0  0  0  0  0  0
   15.3404   -7.7269   -9.2364 C   0  0  2  0  0  0  0  0  0  0  0  0
   14.0874   -6.9835   -8.8327 C   0  0  0  0  0  0  0  0  0  0  0  0
   16.2937   -6.8116   -9.9910 C   0  0  2  0  0  0  0  0  0  0  0  0
   17.4892   -7.5335  -10.3648 N   0  0  0  0  0  0  0  0  0  0  0  0
   16.6730   -5.7264   -9.0631 C   0  0  0  0  0  0  0  0  0  0  0  0
   16.0358   -4.4932   -9.0367 O   0  0  0  0  0  0  0  0  0  0  0  0
   17.6129   -5.9170   -8.2574 O   0  0  0  0  0  0  0  0  0  0  0  0
  2  3  2  0
  2  1  1  0
  4  2  1  0
  5  4  1  0
  5  6  1  1
  7  5  1  0
  7  8  2  0
  9  7  1  0
 10  9  1  0
 11 12  1  0
 11 10  1  0
 12 13  1  0
 13 14  1  6
 13  9  1  0
 14 20  1  0
 15 14  2  0
 17 19  1  0
 17 16  1  6
 18 17  1  0
 19 21  1  0
 19 20  1  1
 21 23  2  0
 21 22  1  0
M  END
$$$$
