DKR.pdb
     RDKit          3D

 29 28  0  0  1  0  0  0  0  0999 V2000
   25.5541  -25.3790  -15.1264 N   0  0  0  0  0  0  0  0  0  0  0  0
   24.6931  -24.2455  -15.4496 C   0  0  1  0  0  0  0  0  0  0  0  0
   24.8792  -23.9533  -16.9183 C   0  0  0  0  0  0  0  0  0  0  0  0
   26.2495  -23.5068  -17.1802 C   0  0  0  0  0  0  0  0  0  0  0  0
   26.6549  -23.1672  -18.3343 O   0  0  0  0  0  0  0  0  0  0  0  0
   23.2734  -24.5830  -15.1959 C   0  0  0  0  0  0  0  0  0  0  0  0
   22.3907  -23.7887  -15.6487 O   0  0  0  0  0  0  0  0  0  0  0  0
   27.1580  -23.4461  -16.1349 O   0  0  0  0  0  0  0  0  0  0  0  0
   22.9042  -25.7409  -14.4797 N   0  0  0  0  0  0  0  0  0  0  0  0
   21.4876  -26.1104  -14.2690 C   0  0  1  0  0  0  0  0  0  0  0  0
   21.4454  -27.4727  -13.6495 C   0  0  0  0  0  0  0  0  0  0  0  0
   21.6470  -27.5845  -12.1966 C   0  0  0  0  0  0  0  0  0  0  0  0
   21.4338  -29.0797  -11.8599 C   0  0  0  0  0  0  0  0  0  0  0  0
   21.5006  -29.1610  -10.3492 C   0  0  0  0  0  0  0  0  0  0  0  0
   21.2783  -30.5425   -9.9759 N   0  0  0  0  0  0  0  0  0  0  0  0
   20.8525  -25.0310  -13.5385 C   0  0  0  0  0  0  0  0  0  0  0  0
   21.3871  -24.5479  -12.5128 O   0  0  0  0  0  0  0  0  0  0  0  0
   21.8183  -17.6456  -15.3098 N   0  0  0  0  0  0  0  0  0  0  0  0
   22.3131  -18.9680  -15.1426 C   0  0  0  0  0  0  0  0  0  0  0  0
   23.4401  -19.2974  -15.6956 N   0  0  0  0  0  0  0  0  0  0  0  0
   21.6317  -19.9541  -14.3983 N   0  0  0  0  0  0  0  0  0  0  0  0
   20.3950  -19.7487  -13.6842 C   0  0  0  0  0  0  0  0  0  0  0  0
   19.9982  -21.0451  -13.0162 C   0  0  0  0  0  0  0  0  0  0  0  0
   19.4537  -22.0417  -14.0090 C   0  0  0  0  0  0  0  0  0  0  0  0
   19.0408  -23.2924  -13.2787 C   0  0  2  0  0  0  0  0  0  0  0  0
   19.6134  -24.4745  -13.9461 N   0  0  0  0  0  0  0  0  0  0  0  0
   17.5826  -23.3849  -13.2100 C   0  0  0  0  0  0  0  0  0  0  0  0
   16.8272  -22.6643  -12.3006 O   0  0  0  0  0  0  0  0  0  0  0  0
   16.9935  -24.1511  -14.0105 O   0  0  0  0  0  0  0  0  0  0  0  0
  2  1  1  6
  2  3  1  0
  3  4  1  0
  4  8  1  0
  4  5  2  0
  6  7  2  0
  6  2  1  0
  9  6  1  0
 10 16  1  0
 10  9  1  0
 10 11  1  1
 12 11  1  0
 12 13  1  0
 13 14  1  0
 14 15  1  0
 16 17  2  0
 18 19  1  0
 19 21  1  0
 20 19  2  0
 22 21  1  0
 23 24  1  0
 23 22  1  0
 25 24  1  6
 25 27  1  0
 26 25  1  0
 26 16  1  0
 27 29  2  0
 27 28  1  0
M  END
$$$$
