DKR.pdb
     RDKit          3D

 29 28  0  0  1  0  0  0  0  0999 V2000
   27.1611  -20.5192  -18.1301 N   0  0  0  0  0  0  0  0  0  0  0  0
   27.3539  -19.5245  -17.0793 C   0  0  1  0  0  0  0  0  0  0  0  0
   26.1346  -18.6354  -17.0828 C   0  0  0  0  0  0  0  0  0  0  0  0
   26.1952  -17.6906  -18.2006 C   0  0  0  0  0  0  0  0  0  0  0  0
   27.1470  -17.6770  -19.0405 O   0  0  0  0  0  0  0  0  0  0  0  0
   27.4738  -20.1821  -15.7576 C   0  0  0  0  0  0  0  0  0  0  0  0
   26.6844  -21.1461  -15.5072 O   0  0  0  0  0  0  0  0  0  0  0  0
   25.1780  -16.7632  -18.3649 O   0  0  0  0  0  0  0  0  0  0  0  0
   28.4256  -19.7617  -14.8051 N   0  0  0  0  0  0  0  0  0  0  0  0
   28.4700  -20.3318  -13.4410 C   0  0  1  0  0  0  0  0  0  0  0  0
   29.7746  -19.9484  -12.8147 C   0  0  0  0  0  0  0  0  0  0  0  0
   30.0004  -20.2988  -11.4040 C   0  0  0  0  0  0  0  0  0  0  0  0
   30.8471  -21.5938  -11.4264 C   0  0  0  0  0  0  0  0  0  0  0  0
   31.1739  -21.8809   -9.9758 C   0  0  0  0  0  0  0  0  0  0  0  0
   31.9129  -23.1256   -9.9327 N   0  0  0  0  0  0  0  0  0  0  0  0
   27.2604  -19.9263  -12.7522 C   0  0  0  0  0  0  0  0  0  0  0  0
   26.9144  -18.7220  -12.7169 O   0  0  0  0  0  0  0  0  0  0  0  0
   19.2172  -22.1483  -13.2835 N   0  0  0  0  0  0  0  0  0  0  0  0
   20.2402  -21.2980  -13.7857 C   0  0  0  0  0  0  0  0  0  0  0  0
   20.1927  -20.9127  -15.0241 N   0  0  0  0  0  0  0  0  0  0  0  0
   21.3197  -20.8474  -12.9968 N   0  0  0  0  0  0  0  0  0  0  0  0
   21.5155  -21.1587  -11.6017 C   0  0  0  0  0  0  0  0  0  0  0  0
   22.7991  -20.5116  -11.1346 C   0  0  0  0  0  0  0  0  0  0  0  0
   23.9942  -21.0257  -11.8979 C   0  0  0  0  0  0  0  0  0  0  0  0
   25.2480  -20.4299  -11.3139 C   0  0  2  0  0  0  0  0  0  0  0  0
   26.4194  -20.8611  -12.0965 N   0  0  0  0  0  0  0  0  0  0  0  0
   25.3876  -20.8118   -9.9088 C   0  0  0  0  0  0  0  0  0  0  0  0
   26.1321  -21.9048   -9.4989 O   0  0  0  0  0  0  0  0  0  0  0  0
   24.8066  -20.1175   -9.0396 O   0  0  0  0  0  0  0  0  0  0  0  0
  2  1  1  6
  2  3  1  0
  3  4  1  0
  4  8  1  0
  4  5  2  0
  6  7  2  0
  6  2  1  0
  9  6  1  0
 10 16  1  0
 10  9  1  0
 10 11  1  1
 12 11  1  0
 12 13  1  0
 13 14  1  0
 14 15  1  0
 16 17  2  0
 18 19  1  0
 19 21  1  0
 20 19  2  0
 22 21  1  0
 23 24  1  0
 23 22  1  0
 25 24  1  6
 25 27  1  0
 26 25  1  0
 26 16  1  0
 27 29  2  0
 27 28  1  0
M  END
$$$$
