DKR.pdb
     RDKit          3D

 29 28  0  0  1  0  0  0  0  0999 V2000
   23.7001  -19.9388  -18.3094 N   0  0  0  0  0  0  0  0  0  0  0  0
   23.0087  -19.2876  -17.2011 C   0  0  1  0  0  0  0  0  0  0  0  0
   21.6842  -18.7974  -17.7327 C   0  0  0  0  0  0  0  0  0  0  0  0
   21.8649  -17.5532  -18.4843 C   0  0  0  0  0  0  0  0  0  0  0  0
   22.8462  -16.7703  -18.2952 O   0  0  0  0  0  0  0  0  0  0  0  0
   22.7664  -20.2510  -16.1024 C   0  0  0  0  0  0  0  0  0  0  0  0
   22.6047  -21.4718  -16.4165 O   0  0  0  0  0  0  0  0  0  0  0  0
   20.9341  -17.1979  -19.4482 O   0  0  0  0  0  0  0  0  0  0  0  0
   22.7153  -19.8390  -14.7542 N   0  0  0  0  0  0  0  0  0  0  0  0
   22.5226  -20.8034  -13.6495 C   0  0  1  0  0  0  0  0  0  0  0  0
   23.3701  -20.3690  -12.4945 C   0  0  0  0  0  0  0  0  0  0  0  0
   23.3142  -21.1568  -11.2535 C   0  0  0  0  0  0  0  0  0  0  0  0
   24.3498  -20.5107  -10.3023 C   0  0  0  0  0  0  0  0  0  0  0  0
   24.3639  -21.3922   -9.0711 C   0  0  0  0  0  0  0  0  0  0  0  0
   25.4282  -20.9215   -8.2091 N   0  0  0  0  0  0  0  0  0  0  0  0
   21.0974  -20.9287  -13.4148 C   0  0  0  0  0  0  0  0  0  0  0  0
   20.3553  -19.9184  -13.4142 O   0  0  0  0  0  0  0  0  0  0  0  0
   14.3443  -26.0038  -13.1918 N   0  0  0  0  0  0  0  0  0  0  0  0
   15.6342  -26.4831  -13.5495 C   0  0  0  0  0  0  0  0  0  0  0  0
   15.7451  -27.3437  -14.5147 N   0  0  0  0  0  0  0  0  0  0  0  0
   16.8152  -26.0670  -12.8992 N   0  0  0  0  0  0  0  0  0  0  0  0
   16.8665  -25.2181  -11.7338 C   0  0  0  0  0  0  0  0  0  0  0  0
   17.2487  -23.8212  -12.1662 C   0  0  0  0  0  0  0  0  0  0  0  0
   18.7099  -23.7287  -12.5292 C   0  0  0  0  0  0  0  0  0  0  0  0
   19.0622  -22.2897  -12.8000 C   0  0  2  0  0  0  0  0  0  0  0  0
   20.4815  -22.1845  -13.1810 N   0  0  0  0  0  0  0  0  0  0  0  0
   18.7722  -21.4643  -11.6277 C   0  0  0  0  0  0  0  0  0  0  0  0
   17.5959  -20.7477  -11.4872 O   0  0  0  0  0  0  0  0  0  0  0  0
   19.6279  -21.4047  -10.7117 O   0  0  0  0  0  0  0  0  0  0  0  0
  2  1  1  6
  2  3  1  0
  3  4  1  0
  4  8  1  0
  4  5  2  0
  6  7  2  0
  6  2  1  0
  9  6  1  0
 10 16  1  0
 10  9  1  0
 10 11  1  1
 12 11  1  0
 12 13  1  0
 13 14  1  0
 14 15  1  0
 16 17  2  0
 18 19  1  0
 19 21  1  0
 20 19  2  0
 22 21  1  0
 23 24  1  0
 23 22  1  0
 25 24  1  1
 25 27  1  0
 26 25  1  0
 26 16  1  0
 27 29  2  0
 27 28  1  0
M  END
$$$$
