DKR.pdb
     RDKit          3D

 29 28  0  0  1  0  0  0  0  0999 V2000
   17.7522  -19.3269  -19.1634 N   0  0  0  0  0  0  0  0  0  0  0  0
   18.0812  -19.3127  -17.7414 C   0  0  1  0  0  0  0  0  0  0  0  0
   16.8535  -18.8310  -17.0081 C   0  0  0  0  0  0  0  0  0  0  0  0
   16.7800  -17.3684  -17.0416 C   0  0  0  0  0  0  0  0  0  0  0  0
   17.6580  -16.6472  -17.6077 O   0  0  0  0  0  0  0  0  0  0  0  0
   18.4246  -20.6756  -17.2742 C   0  0  0  0  0  0  0  0  0  0  0  0
   17.8046  -21.6513  -17.8023 O   0  0  0  0  0  0  0  0  0  0  0  0
   15.7127  -16.7256  -16.4338 O   0  0  0  0  0  0  0  0  0  0  0  0
   19.4020  -20.8934  -16.2807 N   0  0  0  0  0  0  0  0  0  0  0  0
   19.8649  -22.2524  -15.9250 C   0  0  1  0  0  0  0  0  0  0  0  0
   21.3587  -22.2290  -15.8294 C   0  0  0  0  0  0  0  0  0  0  0  0
   22.0620  -23.4986  -15.5900 C   0  0  0  0  0  0  0  0  0  0  0  0
   23.5534  -23.1233  -15.4184 C   0  0  0  0  0  0  0  0  0  0  0  0
   24.2817  -24.4429  -15.2718 C   0  0  0  0  0  0  0  0  0  0  0  0
   25.6993  -24.1543  -15.2056 N   0  0  0  0  0  0  0  0  0  0  0  0
   19.1326  -22.6754  -14.7473 C   0  0  0  0  0  0  0  0  0  0  0  0
   19.0335  -21.9245  -13.7485 O   0  0  0  0  0  0  0  0  0  0  0  0
   21.5976  -29.1451  -11.2586 N   0  0  0  0  0  0  0  0  0  0  0  0
   20.3126  -28.8128  -10.7487 C   0  0  0  0  0  0  0  0  0  0  0  0
   20.0495  -29.0389   -9.4981 N   0  0  0  0  0  0  0  0  0  0  0  0
   19.2950  -28.2443  -11.5436 N   0  0  0  0  0  0  0  0  0  0  0  0
   19.4547  -27.8064  -12.9089 C   0  0  0  0  0  0  0  0  0  0  0  0
   19.3006  -26.3037  -12.9587 C   0  0  0  0  0  0  0  0  0  0  0  0
   17.8997  -25.8979  -13.3435 C   0  0  0  0  0  0  0  0  0  0  0  0
   17.8284  -24.3967  -13.4403 C   0  0  2  0  0  0  0  0  0  0  0  0
   18.4983  -23.9415  -14.6710 N   0  0  0  0  0  0  0  0  0  0  0  0
   18.4298  -23.7803  -12.2580 C   0  0  0  0  0  0  0  0  0  0  0  0
   17.7674  -23.6773  -11.0465 O   0  0  0  0  0  0  0  0  0  0  0  0
   19.5962  -23.3260  -12.3482 O   0  0  0  0  0  0  0  0  0  0  0  0
  2  1  1  6
  2  3  1  0
  3  4  1  0
  4  8  1  0
  4  5  2  0
  6  7  2  0
  6  2  1  0
  9  6  1  0
 10 16  1  0
 10  9  1  0
 10 11  1  1
 12 11  1  0
 12 13  1  0
 13 14  1  0
 14 15  1  0
 16 17  2  0
 18 19  1  0
 19 21  1  0
 20 19  2  0
 22 21  1  0
 23 24  1  0
 23 22  1  0
 25 24  1  1
 25 27  1  0
 26 25  1  0
 26 16  1  0
 27 29  2  0
 27 28  1  0
M  END
$$$$
