DKR.pdb
     RDKit          3D

 29 28  0  0  1  0  0  0  0  0999 V2000
   27.5952  -21.9562  -15.6066 N   0  0  0  0  0  0  0  0  0  0  0  0
   27.1636  -20.7758  -14.8643 C   0  0  1  0  0  0  0  0  0  0  0  0
   26.5149  -19.8420  -15.8564 C   0  0  0  0  0  0  0  0  0  0  0  0
   27.5161  -19.3026  -16.7797 C   0  0  0  0  0  0  0  0  0  0  0  0
   27.4296  -19.4280  -18.0399 O   0  0  0  0  0  0  0  0  0  0  0  0
   26.1744  -21.1481  -13.8266 C   0  0  0  0  0  0  0  0  0  0  0  0
   25.4084  -22.1322  -14.0712 O   0  0  0  0  0  0  0  0  0  0  0  0
   28.6131  -18.6226  -16.2739 O   0  0  0  0  0  0  0  0  0  0  0  0
   26.0782  -20.4430  -12.6086 N   0  0  0  0  0  0  0  0  0  0  0  0
   25.0196  -20.7359  -11.6180 C   0  0  1  0  0  0  0  0  0  0  0  0
   25.3874  -20.0713  -10.3280 C   0  0  0  0  0  0  0  0  0  0  0  0
   25.9331  -20.9042   -9.2453 C   0  0  0  0  0  0  0  0  0  0  0  0
   26.3394  -19.9176   -8.1245 C   0  0  0  0  0  0  0  0  0  0  0  0
   26.9149  -20.7822   -7.0224 C   0  0  0  0  0  0  0  0  0  0  0  0
   27.2935  -19.9064   -5.9330 N   0  0  0  0  0  0  0  0  0  0  0  0
   23.7468  -20.3735  -12.2102 C   0  0  0  0  0  0  0  0  0  0  0  0
   23.5939  -19.2654  -12.7760 O   0  0  0  0  0  0  0  0  0  0  0  0
   17.9917  -23.7729  -18.0066 N   0  0  0  0  0  0  0  0  0  0  0  0
   17.5929  -22.5116  -17.4856 C   0  0  0  0  0  0  0  0  0  0  0  0
   16.6044  -21.8804  -18.0414 N   0  0  0  0  0  0  0  0  0  0  0  0
   18.2264  -21.9020  -16.3821 N   0  0  0  0  0  0  0  0  0  0  0  0
   19.3296  -22.4653  -15.6424 C   0  0  0  0  0  0  0  0  0  0  0  0
   19.6989  -21.5185  -14.5237 C   0  0  0  0  0  0  0  0  0  0  0  0
   21.0645  -21.8241  -13.9607 C   0  0  0  0  0  0  0  0  0  0  0  0
   21.3508  -20.8841  -12.8194 C   0  0  2  0  0  0  0  0  0  0  0  0
   22.6287  -21.2453  -12.1812 N   0  0  0  0  0  0  0  0  0  0  0  0
   20.2557  -20.9103  -11.8501 C   0  0  0  0  0  0  0  0  0  0  0  0
   19.0500  -20.2635  -12.0628 O   0  0  0  0  0  0  0  0  0  0  0  0
   20.4184  -21.5466  -10.7808 O   0  0  0  0  0  0  0  0  0  0  0  0
  2  1  1  6
  2  3  1  0
  3  4  1  0
  4  8  1  0
  4  5  2  0
  6  7  2  0
  6  2  1  0
  9  6  1  0
 10 16  1  0
 10  9  1  0
 10 11  1  1
 12 11  1  0
 12 13  1  0
 13 14  1  0
 14 15  1  0
 16 17  2  0
 18 19  1  0
 19 21  1  0
 20 19  2  0
 22 21  1  0
 23 24  1  0
 23 22  1  0
 25 24  1  6
 25 27  1  0
 26 25  1  0
 26 16  1  0
 27 29  2  0
 27 28  1  0
M  END
$$$$
