TQW.pdb
     RDKit          3D

 31 32  0  0  1  0  0  0  0  0999 V2000
    5.4427  -20.2816   24.6916 C   0  0  0  0  0  0  0  0  0  0  0  0
    6.3994  -19.3553   24.0276 C   0  0  1  0  0  0  0  0  0  0  0  0
    7.6961  -19.8491   24.2161 O   0  0  0  0  0  0  0  0  0  0  0  0
    6.1954  -19.2710   22.5253 C   0  0  2  0  0  0  0  0  0  0  0  0
    6.3453  -20.6105   21.9932 N   0  0  0  0  0  0  0  0  0  0  0  0
    7.2711  -18.4167   21.9201 C   0  0  0  0  0  0  0  0  0  0  0  0
    8.2996  -18.9314   21.4113 O   0  0  0  0  0  0  0  0  0  0  0  0
    6.9798  -13.0426   18.5949 N   0  0  0  0  0  0  0  0  0  0  0  0
    8.3281  -13.0196   19.1154 C   0  0  0  0  0  0  0  0  0  0  0  0
    9.0327  -12.0930   18.7146 O   0  0  0  0  0  0  0  0  0  0  0  0
    8.7472  -14.0463   20.0376 C   0  0  0  0  0  0  0  0  0  0  0  0
    7.7612  -14.9823   20.6087 C   0  0  0  0  0  0  0  0  0  0  0  0
    8.2197  -16.1251   21.4022 C   0  0  2  0  0  0  0  0  0  0  0  0
    7.1967  -17.0103   21.8848 N   0  0  0  0  0  0  0  0  0  0  0  0
    9.2498  -15.8752   22.4082 C   0  0  0  0  0  0  0  0  0  0  0  0
   10.3247  -15.3449   22.0268 O   0  0  0  0  0  0  0  0  0  0  0  0
    9.1154  -16.1854   23.7880 N   0  0  0  0  0  0  0  0  0  0  0  0
   10.1028  -15.9737   24.8031 C   0  0  1  0  0  0  0  0  0  0  0  0
    9.6102  -15.2210   25.9879 C   0  0  0  0  0  0  0  0  0  0  0  0
    8.1365  -15.0709   26.0125 C   0  0  0  0  0  0  0  0  0  0  0  0
    7.1304  -16.0099   25.9033 C   0  0  0  0  0  0  0  0  0  0  0  0
    5.9433  -15.3861   25.9796 N   0  0  0  0  0  0  0  0  0  0  0  0
    6.1077  -14.0597   26.1363 C   0  0  0  0  0  0  0  0  0  0  0  0
    5.2479  -12.9781   26.2657 C   0  0  0  0  0  0  0  0  0  0  0  0
    5.7132  -11.6901   26.4168 C   0  0  0  0  0  0  0  0  0  0  0  0
    7.0750  -11.4773   26.4392 C   0  0  0  0  0  0  0  0  0  0  0  0
    7.9392  -12.5625   26.3094 C   0  0  0  0  0  0  0  0  0  0  0  0
    7.4748  -13.8460   26.1588 C   0  0  0  0  0  0  0  0  0  0  0  0
   10.7502  -17.2427   25.2361 C   0  0  0  0  0  0  0  0  0  0  0  0
   10.2348  -18.3261   24.8963 O   0  0  0  0  0  0  0  0  0  0  0  0
   11.8977  -17.2516   25.9975 O   0  0  0  0  0  0  0  0  0  0  0  0
  2  1  1  6
  3  2  1  0
  4  2  1  0
  4  5  1  6
  6  4  1  0
  6 14  1  0
  7  6  2  0
  8  9  1  0
  9 10  2  0
 11  9  1  0
 11 12  1  0
 13 12  1  1
 13 14  1  0
 15 13  1  0
 16 15  2  0
 17 15  1  0
 18 17  1  0
 18 29  1  0
 18 19  1  1
 20 28  1  0
 20 19  1  0
 21 20  2  0
 22 21  1  0
 22 23  1  0
 23 28  2  0
 24 23  1  0
 24 25  2  0
 25 26  1  0
 26 27  2  0
 28 27  1  0
 29 31  1  0
 30 29  2  0
M  END
$$$$
