TQW.pdb
     RDKit          3D

 31 32  0  0  1  0  0  0  0  0999 V2000
   14.4658  -18.8271   19.0911 C   0  0  0  0  0  0  0  0  0  0  0  0
   13.5144  -18.3928   20.1496 C   0  0  1  0  0  0  0  0  0  0  0  0
   14.0549  -17.2761   20.7990 O   0  0  0  0  0  0  0  0  0  0  0  0
   12.1733  -17.9479   19.5936 C   0  0  2  0  0  0  0  0  0  0  0  0
   12.4155  -16.7913   18.7550 N   0  0  0  0  0  0  0  0  0  0  0  0
   11.2813  -17.5155   20.7208 C   0  0  0  0  0  0  0  0  0  0  0  0
   11.3492  -16.3516   21.1925 O   0  0  0  0  0  0  0  0  0  0  0  0
    5.8390  -20.4739   22.8166 N   0  0  0  0  0  0  0  0  0  0  0  0
    6.0227  -19.3089   23.6523 C   0  0  0  0  0  0  0  0  0  0  0  0
    5.0719  -19.0277   24.3821 O   0  0  0  0  0  0  0  0  0  0  0  0
    7.2631  -18.5764   23.5808 C   0  0  0  0  0  0  0  0  0  0  0  0
    8.2251  -18.8446   22.4958 C   0  0  0  0  0  0  0  0  0  0  0  0
    9.4333  -18.0249   22.3776 C   0  0  2  0  0  0  0  0  0  0  0  0
   10.3296  -18.3710   21.3098 N   0  0  0  0  0  0  0  0  0  0  0  0
   10.1470  -17.6974   23.6101 C   0  0  0  0  0  0  0  0  0  0  0  0
   11.0832  -18.4588   23.9648 O   0  0  0  0  0  0  0  0  0  0  0  0
    9.8578  -16.5739   24.4300 N   0  0  0  0  0  0  0  0  0  0  0  0
   10.4022  -16.3110   25.7279 C   0  0  1  0  0  0  0  0  0  0  0  0
    9.9921  -15.0049   26.3100 C   0  0  0  0  0  0  0  0  0  0  0  0
    8.5304  -14.7714   26.2476 C   0  0  0  0  0  0  0  0  0  0  0  0
    7.4743  -15.6595   26.2043 C   0  0  0  0  0  0  0  0  0  0  0  0
    6.3252  -14.9662   26.1500 N   0  0  0  0  0  0  0  0  0  0  0  0
    6.5635  -13.6417   26.1549 C   0  0  0  0  0  0  0  0  0  0  0  0
    5.7664  -12.5064   26.1140 C   0  0  0  0  0  0  0  0  0  0  0  0
    6.3026  -11.2374   26.1320 C   0  0  0  0  0  0  0  0  0  0  0  0
    7.6729  -11.0993   26.1925 C   0  0  0  0  0  0  0  0  0  0  0  0
    8.4741  -12.2386   26.2336 C   0  0  0  0  0  0  0  0  0  0  0  0
    7.9390  -13.5031   26.2157 C   0  0  0  0  0  0  0  0  0  0  0  0
   10.1232  -17.4109   26.6920 C   0  0  0  0  0  0  0  0  0  0  0  0
    9.2978  -18.2908   26.3766 O   0  0  0  0  0  0  0  0  0  0  0  0
   10.7497  -17.4823   27.9163 O   0  0  0  0  0  0  0  0  0  0  0  0
  2  1  1  6
  3  2  1  0
  4  2  1  0
  4  5  1  6
  6  4  1  0
  6 14  1  0
  7  6  2  0
  8  9  1  0
  9 10  2  0
 11  9  1  0
 11 12  1  0
 13 12  1  1
 13 14  1  0
 15 13  1  0
 16 15  2  0
 17 15  1  0
 18 17  1  0
 18 29  1  0
 18 19  1  1
 20 28  1  0
 20 19  1  0
 21 20  2  0
 22 21  1  0
 22 23  1  0
 23 28  2  0
 24 23  1  0
 24 25  2  0
 25 26  1  0
 26 27  2  0
 28 27  1  0
 29 31  1  0
 30 29  2  0
M  END
$$$$
