TQW.pdb
     RDKit          3D

 31 32  0  0  1  0  0  0  0  0999 V2000
    9.0052  -12.7813   20.3380 C   0  0  0  0  0  0  0  0  0  0  0  0
    7.8541  -13.3547   19.5893 C   0  0  1  0  0  0  0  0  0  0  0  0
    7.5555  -12.5039   18.5180 O   0  0  0  0  0  0  0  0  0  0  0  0
    8.1623  -14.7097   18.9772 C   0  0  2  0  0  0  0  0  0  0  0  0
    6.9614  -15.1632   18.3048 N   0  0  0  0  0  0  0  0  0  0  0  0
    8.4740  -15.6934   20.0673 C   0  0  0  0  0  0  0  0  0  0  0  0
    7.5554  -16.2887   20.6868 O   0  0  0  0  0  0  0  0  0  0  0  0
   12.8755  -20.1460   20.2891 N   0  0  0  0  0  0  0  0  0  0  0  0
   13.2319  -18.7679   20.0382 C   0  0  0  0  0  0  0  0  0  0  0  0
   14.3686  -18.5880   19.6008 O   0  0  0  0  0  0  0  0  0  0  0  0
   12.2684  -17.7286   20.3064 C   0  0  0  0  0  0  0  0  0  0  0  0
   11.0528  -18.0234   21.0874 C   0  0  0  0  0  0  0  0  0  0  0  0
   10.1663  -16.9295   21.4913 C   0  0  2  0  0  0  0  0  0  0  0  0
    9.7911  -16.0057   20.4573 N   0  0  0  0  0  0  0  0  0  0  0  0
   10.4647  -16.2525   22.7516 C   0  0  0  0  0  0  0  0  0  0  0  0
   11.1147  -15.1770   22.6991 O   0  0  0  0  0  0  0  0  0  0  0  0
   10.0643  -16.7249   24.0301 N   0  0  0  0  0  0  0  0  0  0  0  0
   10.3399  -16.0988   25.2879 C   0  0  1  0  0  0  0  0  0  0  0  0
    9.8467  -14.6995   25.3956 C   0  0  0  0  0  0  0  0  0  0  0  0
    8.3795  -14.6104   25.5808 C   0  0  0  0  0  0  0  0  0  0  0  0
    7.3913  -15.5642   25.4405 C   0  0  0  0  0  0  0  0  0  0  0  0
    6.2025  -15.0021   25.7141 N   0  0  0  0  0  0  0  0  0  0  0  0
    6.3485  -13.7031   26.0343 C   0  0  0  0  0  0  0  0  0  0  0  0
    5.4791  -12.6822   26.3917 C   0  0  0  0  0  0  0  0  0  0  0  0
    5.9249  -11.4091   26.6725 C   0  0  0  0  0  0  0  0  0  0  0  0
    7.2764  -11.1493   26.5939 C   0  0  0  0  0  0  0  0  0  0  0  0
    8.1503  -12.1737   26.2352 C   0  0  0  0  0  0  0  0  0  0  0  0
    7.7053  -13.4423   25.9555 C   0  0  0  0  0  0  0  0  0  0  0  0
    9.8494  -16.9041   26.4404 C   0  0  0  0  0  0  0  0  0  0  0  0
   10.0631  -16.4894   27.5968 O   0  0  0  0  0  0  0  0  0  0  0  0
    9.1689  -18.0882   26.2640 O   0  0  0  0  0  0  0  0  0  0  0  0
  2  1  1  6
  3  2  1  0
  4  2  1  0
  4  5  1  1
  6  4  1  0
  6 14  1  0
  7  6  2  0
  8  9  1  0
  9 10  2  0
 11  9  1  0
 11 12  1  0
 13 12  1  6
 13 14  1  0
 15 13  1  0
 16 15  2  0
 17 15  1  0
 18 17  1  0
 18 29  1  0
 18 19  1  6
 20 28  1  0
 20 19  1  0
 21 20  2  0
 22 21  1  0
 22 23  1  0
 23 28  2  0
 24 23  1  0
 24 25  2  0
 25 26  1  0
 26 27  2  0
 28 27  1  0
 29 31  1  0
 30 29  2  0
M  END
$$$$
