TQW.pdb
     RDKit          3D

 31 32  0  0  1  0  0  0  0  0999 V2000
    8.0928  -12.1449   19.5668 C   0  0  0  0  0  0  0  0  0  0  0  0
    8.4643  -13.2922   20.4385 C   0  0  1  0  0  0  0  0  0  0  0  0
    8.0492  -13.0074   21.7451 O   0  0  0  0  0  0  0  0  0  0  0  0
    7.7667  -14.5829   20.0472 C   0  0  2  0  0  0  0  0  0  0  0  0
    6.3399  -14.3347   20.0957 N   0  0  0  0  0  0  0  0  0  0  0  0
    8.0790  -15.6483   21.0575 C   0  0  0  0  0  0  0  0  0  0  0  0
    7.2824  -15.9068   21.9957 O   0  0  0  0  0  0  0  0  0  0  0  0
   12.3180  -20.5642   20.6748 N   0  0  0  0  0  0  0  0  0  0  0  0
   11.8915  -20.5263   22.0554 C   0  0  0  0  0  0  0  0  0  0  0  0
   12.3219  -21.4351   22.7657 O   0  0  0  0  0  0  0  0  0  0  0  0
   11.0204  -19.4650   22.4971 C   0  0  0  0  0  0  0  0  0  0  0  0
   10.5652  -18.4316   21.5487 C   0  0  0  0  0  0  0  0  0  0  0  0
    9.6904  -17.3530   22.0148 C   0  0  2  0  0  0  0  0  0  0  0  0
    9.2626  -16.4113   21.0182 N   0  0  0  0  0  0  0  0  0  0  0  0
   10.0411  -16.6996   23.2741 C   0  0  0  0  0  0  0  0  0  0  0  0
   10.8367  -15.7266   23.2274 O   0  0  0  0  0  0  0  0  0  0  0  0
    9.5387  -17.0863   24.5454 N   0  0  0  0  0  0  0  0  0  0  0  0
    9.9400  -16.5525   25.8119 C   0  0  1  0  0  0  0  0  0  0  0  0
    8.8134  -16.2724   26.7421 C   0  0  0  0  0  0  0  0  0  0  0  0
    7.7470  -15.4430   26.1341 C   0  0  0  0  0  0  0  0  0  0  0  0
    6.6721  -15.7920   25.3411 C   0  0  0  0  0  0  0  0  0  0  0  0
    5.9828  -14.6820   25.0300 N   0  0  0  0  0  0  0  0  0  0  0  0
    6.5506  -13.5941   25.5826 C   0  0  0  0  0  0  0  0  0  0  0  0
    6.2620  -12.2367   25.5840 C   0  0  0  0  0  0  0  0  0  0  0  0
    7.0447  -11.3251   26.2582 C   0  0  0  0  0  0  0  0  0  0  0  0
    8.1460  -11.7827   26.9499 C   0  0  0  0  0  0  0  0  0  0  0  0
    8.4365  -13.1454   26.9492 C   0  0  0  0  0  0  0  0  0  0  0  0
    7.6560  -14.0535   26.2770 C   0  0  0  0  0  0  0  0  0  0  0  0
   10.9609  -17.4013   26.4859 C   0  0  0  0  0  0  0  0  0  0  0  0
   11.2478  -18.5069   25.9855 O   0  0  0  0  0  0  0  0  0  0  0  0
   11.5942  -16.9995   27.6409 O   0  0  0  0  0  0  0  0  0  0  0  0
  2  1  1  6
  3  2  1  0
  4  2  1  0
  4  5  1  1
  6  4  1  0
  6 14  1  0
  7  6  2  0
  8  9  1  0
  9 10  2  0
 11  9  1  0
 11 12  1  0
 13 12  1  6
 13 14  1  0
 15 13  1  0
 16 15  2  0
 17 15  1  0
 18 17  1  0
 18 29  1  0
 18 19  1  1
 20 28  1  0
 20 19  1  0
 21 20  2  0
 22 21  1  0
 22 23  1  0
 23 28  2  0
 24 23  1  0
 24 25  2  0
 25 26  1  0
 26 27  2  0
 28 27  1  0
 29 31  1  0
 30 29  2  0
M  END
$$$$
