TQW.pdb
     RDKit          3D

 31 32  0  0  1  0  0  0  0  0999 V2000
    7.6559  -12.4911   19.3870 C   0  0  0  0  0  0  0  0  0  0  0  0
    8.2718  -13.4777   20.3151 C   0  0  1  0  0  0  0  0  0  0  0  0
    7.7593  -13.2564   21.5993 O   0  0  0  0  0  0  0  0  0  0  0  0
    7.9261  -14.9145   19.9659 C   0  0  2  0  0  0  0  0  0  0  0  0
    6.4827  -15.0347   20.0108 N   0  0  0  0  0  0  0  0  0  0  0  0
    8.4932  -15.8344   21.0077 C   0  0  0  0  0  0  0  0  0  0  0  0
    7.7980  -16.2175   21.9832 O   0  0  0  0  0  0  0  0  0  0  0  0
   13.5098  -19.8921   20.4733 N   0  0  0  0  0  0  0  0  0  0  0  0
   13.2060  -19.8593   21.8861 C   0  0  0  0  0  0  0  0  0  0  0  0
   13.8701  -20.6236   22.5865 O   0  0  0  0  0  0  0  0  0  0  0  0
   12.1815  -18.9658   22.3681 C   0  0  0  0  0  0  0  0  0  0  0  0
   11.5299  -18.0146   21.4489 C   0  0  0  0  0  0  0  0  0  0  0  0
   10.4384  -17.1670   21.9348 C   0  0  2  0  0  0  0  0  0  0  0  0
    9.8156  -16.3173   20.9584 N   0  0  0  0  0  0  0  0  0  0  0  0
   10.6345  -16.4848   23.2122 C   0  0  0  0  0  0  0  0  0  0  0  0
   11.2159  -15.3696   23.1975 O   0  0  0  0  0  0  0  0  0  0  0  0
   10.2067  -16.9943   24.4674 N   0  0  0  0  0  0  0  0  0  0  0  0
   10.4661  -16.4124   25.7497 C   0  0  1  0  0  0  0  0  0  0  0  0
    9.9953  -15.0083   25.8906 C   0  0  0  0  0  0  0  0  0  0  0  0
    8.5196  -14.8815   25.8572 C   0  0  0  0  0  0  0  0  0  0  0  0
    7.5381  -15.8148   25.5898 C   0  0  0  0  0  0  0  0  0  0  0  0
    6.3371  -15.2197   25.6765 N   0  0  0  0  0  0  0  0  0  0  0  0
    6.4684  -13.9182   25.9926 C   0  0  0  0  0  0  0  0  0  0  0  0
    5.5829  -12.8702   26.2013 C   0  0  0  0  0  0  0  0  0  0  0  0
    6.0157  -11.6023   26.5227 C   0  0  0  0  0  0  0  0  0  0  0  0
    7.3705  -11.3755   26.6387 C   0  0  0  0  0  0  0  0  0  0  0  0
    8.2605  -12.4271   26.4294 C   0  0  0  0  0  0  0  0  0  0  0  0
    7.8284  -13.6906   26.1091 C   0  0  0  0  0  0  0  0  0  0  0  0
    9.9369  -17.2438   26.8659 C   0  0  0  0  0  0  0  0  0  0  0  0
   10.0723  -16.8343   28.0360 O   0  0  0  0  0  0  0  0  0  0  0  0
    9.3046  -18.4464   26.6416 O   0  0  0  0  0  0  0  0  0  0  0  0
  2  1  1  6
  3  2  1  0
  4  2  1  0
  4  5  1  1
  6  4  1  0
  6 14  1  0
  7  6  2  0
  8  9  1  0
  9 10  2  0
 11  9  1  0
 11 12  1  0
 13 12  1  6
 13 14  1  0
 15 13  1  0
 16 15  2  0
 17 15  1  0
 18 17  1  0
 18 29  1  0
 18 19  1  6
 20 28  1  0
 20 19  1  0
 21 20  2  0
 22 21  1  0
 22 23  1  0
 23 28  2  0
 24 23  1  0
 24 25  2  0
 25 26  1  0
 26 27  2  0
 28 27  1  0
 29 31  1  0
 30 29  2  0
M  END
$$$$
