TQW.pdb
     RDKit          3D

 31 32  0  0  1  0  0  0  0  0999 V2000
   11.8176  -18.8059   21.3846 C   0  0  0  0  0  0  0  0  0  0  0  0
   12.0105  -18.0387   20.1243 C   0  0  1  0  0  0  0  0  0  0  0  0
   12.9924  -18.6820   19.3609 O   0  0  0  0  0  0  0  0  0  0  0  0
   10.7635  -17.9992   19.2588 C   0  0  2  0  0  0  0  0  0  0  0  0
   11.1076  -17.3002   18.0370 N   0  0  0  0  0  0  0  0  0  0  0  0
    9.6957  -17.2052   19.9534 C   0  0  0  0  0  0  0  0  0  0  0  0
    9.6391  -15.9540   19.8391 O   0  0  0  0  0  0  0  0  0  0  0  0
    3.8767  -17.6627   22.9903 N   0  0  0  0  0  0  0  0  0  0  0  0
    4.0878  -17.9668   21.5931 C   0  0  0  0  0  0  0  0  0  0  0  0
    3.4931  -18.9597   21.1734 O   0  0  0  0  0  0  0  0  0  0  0  0
    4.9504  -17.1185   20.8078 C   0  0  0  0  0  0  0  0  0  0  0  0
    6.2832  -17.5926   20.3915 C   0  0  0  0  0  0  0  0  0  0  0  0
    7.4669  -17.1967   21.1584 C   0  0  2  0  0  0  0  0  0  0  0  0
    8.7080  -17.8014   20.7618 N   0  0  0  0  0  0  0  0  0  0  0  0
    7.3321  -17.1205   22.6115 C   0  0  0  0  0  0  0  0  0  0  0  0
    6.2353  -16.7183   23.0778 O   0  0  0  0  0  0  0  0  0  0  0  0
    8.3545  -17.4761   23.5315 N   0  0  0  0  0  0  0  0  0  0  0  0
    9.4295  -16.6370   23.9679 C   0  0  1  0  0  0  0  0  0  0  0  0
    9.0891  -15.1903   24.0311 C   0  0  0  0  0  0  0  0  0  0  0  0
    7.8821  -14.9097   24.8430 C   0  0  0  0  0  0  0  0  0  0  0  0
    6.8176  -15.7179   25.1889 C   0  0  0  0  0  0  0  0  0  0  0  0
    5.9591  -15.0085   25.9398 N   0  0  0  0  0  0  0  0  0  0  0  0
    6.4023  -13.7500   26.1155 C   0  0  0  0  0  0  0  0  0  0  0  0
    5.9249  -12.6313   26.7837 C   0  0  0  0  0  0  0  0  0  0  0  0
    6.6129  -11.4377   26.7924 C   0  0  0  0  0  0  0  0  0  0  0  0
    7.8109  -11.3600   26.1146 C   0  0  0  0  0  0  0  0  0  0  0  0
    8.2912  -12.4826   25.4434 C   0  0  0  0  0  0  0  0  0  0  0  0
    7.6049  -13.6720   25.4352 C   0  0  0  0  0  0  0  0  0  0  0  0
   10.0054  -17.0843   25.2661 C   0  0  0  0  0  0  0  0  0  0  0  0
    9.4808  -18.0504   25.8546 O   0  0  0  0  0  0  0  0  0  0  0  0
   11.0969  -16.4630   25.8309 O   0  0  0  0  0  0  0  0  0  0  0  0
  2  1  1  1
  3  2  1  0
  4  2  1  0
  4  5  1  6
  6  4  1  0
  6 14  1  0
  7  6  2  0
  8  9  1  0
  9 10  2  0
 11  9  1  0
 11 12  1  0
 13 12  1  1
 13 14  1  0
 15 13  1  0
 16 15  2  0
 17 15  1  0
 18 17  1  0
 18 29  1  0
 18 19  1  1
 20 28  1  0
 20 19  1  0
 21 20  2  0
 22 21  1  0
 22 23  1  0
 23 28  2  0
 24 23  1  0
 24 25  2  0
 25 26  1  0
 26 27  2  0
 28 27  1  0
 29 31  1  0
 30 29  2  0
M  END
$$$$
