TQW.pdb
     RDKit          3D

 31 32  0  0  1  0  0  0  0  0999 V2000
    6.7330  -12.3325   19.7808 C   0  0  0  0  0  0  0  0  0  0  0  0
    7.6068  -13.4209   20.2965 C   0  0  1  0  0  0  0  0  0  0  0  0
    6.8521  -14.5984   20.3662 O   0  0  0  0  0  0  0  0  0  0  0  0
    8.7774  -13.7252   19.3784 C   0  0  2  0  0  0  0  0  0  0  0  0
    8.2295  -14.1295   18.0993 N   0  0  0  0  0  0  0  0  0  0  0  0
    9.5576  -14.8840   19.9275 C   0  0  0  0  0  0  0  0  0  0  0  0
    9.4445  -16.0351   19.4335 O   0  0  0  0  0  0  0  0  0  0  0  0
   15.1182  -16.6387   19.9352 N   0  0  0  0  0  0  0  0  0  0  0  0
   14.4643  -15.3839   19.6398 C   0  0  0  0  0  0  0  0  0  0  0  0
   15.0933  -14.6210   18.9062 O   0  0  0  0  0  0  0  0  0  0  0  0
   13.1638  -15.1151   20.2025 C   0  0  0  0  0  0  0  0  0  0  0  0
   12.5004  -16.1170   21.0572 C   0  0  0  0  0  0  0  0  0  0  0  0
   11.1827  -15.8267   21.6275 C   0  0  2  0  0  0  0  0  0  0  0  0
   10.4491  -14.7568   21.0107 N   0  0  0  0  0  0  0  0  0  0  0  0
   11.0713  -15.8014   23.0843 C   0  0  0  0  0  0  0  0  0  0  0  0
   11.9683  -15.2011   23.7301 O   0  0  0  0  0  0  0  0  0  0  0  0
   10.0148  -16.4039   23.8185 N   0  0  0  0  0  0  0  0  0  0  0  0
    9.9112  -16.4799   25.2445 C   0  0  1  0  0  0  0  0  0  0  0  0
    8.5348  -16.7408   25.7447 C   0  0  0  0  0  0  0  0  0  0  0  0
    7.5344  -15.7766   25.2303 C   0  0  0  0  0  0  0  0  0  0  0  0
    6.5088  -15.9375   24.3202 C   0  0  0  0  0  0  0  0  0  0  0  0
    5.8711  -14.7647   24.1721 N   0  0  0  0  0  0  0  0  0  0  0  0
    6.4263  -13.8155   24.9479 C   0  0  0  0  0  0  0  0  0  0  0  0
    6.1728  -12.4704   25.1770 C   0  0  0  0  0  0  0  0  0  0  0  0
    6.9295  -11.7243   26.0538 C   0  0  0  0  0  0  0  0  0  0  0  0
    7.9681  -12.3392   26.7199 C   0  0  0  0  0  0  0  0  0  0  0  0
    8.2235  -13.6897   26.4907 C   0  0  0  0  0  0  0  0  0  0  0  0
    7.4688  -14.4328   25.6166 C   0  0  0  0  0  0  0  0  0  0  0  0
   10.8631  -17.4643   25.8293 C   0  0  0  0  0  0  0  0  0  0  0  0
   11.5272  -18.1872   25.0603 O   0  0  0  0  0  0  0  0  0  0  0  0
   11.0294  -17.5964   27.1900 O   0  0  0  0  0  0  0  0  0  0  0  0
  2  1  1  6
  3  2  1  0
  4  2  1  0
  4  5  1  6
  6  4  1  0
  6 14  1  0
  7  6  2  0
  8  9  1  0
  9 10  2  0
 11  9  1  0
 11 12  1  0
 13 12  1  1
 13 14  1  0
 15 13  1  0
 16 15  2  0
 17 15  1  0
 18 17  1  0
 18 29  1  0
 18 19  1  6
 20 28  1  0
 20 19  1  0
 21 20  2  0
 22 21  1  0
 22 23  1  0
 23 28  2  0
 24 23  1  0
 24 25  2  0
 25 26  1  0
 26 27  2  0
 28 27  1  0
 29 31  1  0
 30 29  2  0
M  END
$$$$
