TQW.pdb
     RDKit          3D

 31 32  0  0  1  0  0  0  0  0999 V2000
    6.6196  -21.9876   20.6521 C   0  0  0  0  0  0  0  0  0  0  0  0
    7.3946  -20.7342   20.4465 C   0  0  1  0  0  0  0  0  0  0  0  0
    6.5560  -19.7900   19.8414 O   0  0  0  0  0  0  0  0  0  0  0  0
    7.8632  -20.1079   21.7480 C   0  0  2  0  0  0  0  0  0  0  0  0
    6.6809  -19.7500   22.5055 N   0  0  0  0  0  0  0  0  0  0  0  0
    8.6166  -18.8435   21.4537 C   0  0  0  0  0  0  0  0  0  0  0  0
    9.6898  -18.8648   20.7982 O   0  0  0  0  0  0  0  0  0  0  0  0
    6.6049  -13.1761   19.6714 N   0  0  0  0  0  0  0  0  0  0  0  0
    8.0040  -12.9708   19.9711 C   0  0  0  0  0  0  0  0  0  0  0  0
    8.4762  -11.9032   19.5802 O   0  0  0  0  0  0  0  0  0  0  0  0
    8.7314  -13.9925   20.6833 C   0  0  0  0  0  0  0  0  0  0  0  0
    8.0909  -15.2840   20.9934 C   0  0  0  0  0  0  0  0  0  0  0  0
    8.8585  -16.3309   21.6721 C   0  0  2  0  0  0  0  0  0  0  0  0
    8.1765  -17.5769   21.8854 N   0  0  0  0  0  0  0  0  0  0  0  0
    9.6563  -15.9354   22.8309 C   0  0  0  0  0  0  0  0  0  0  0  0
   10.5530  -15.0707   22.6573 O   0  0  0  0  0  0  0  0  0  0  0  0
    9.4821  -16.4579   24.1405 N   0  0  0  0  0  0  0  0  0  0  0  0
   10.3566  -16.2546   25.2558 C   0  0  1  0  0  0  0  0  0  0  0  0
    9.8029  -15.3669   26.3133 C   0  0  0  0  0  0  0  0  0  0  0  0
    8.3748  -15.0319   26.1052 C   0  0  0  0  0  0  0  0  0  0  0  0
    7.2936  -15.8340   25.7992 C   0  0  0  0  0  0  0  0  0  0  0  0
    6.1953  -15.0664   25.7063 N   0  0  0  0  0  0  0  0  0  0  0  0
    6.4922  -13.7744   25.9379 C   0  0  0  0  0  0  0  0  0  0  0  0
    5.7613  -12.5951   25.9676 C   0  0  0  0  0  0  0  0  0  0  0  0
    6.3488  -11.3792   26.2407 C   0  0  0  0  0  0  0  0  0  0  0  0
    7.7040  -11.3409   26.4909 C   0  0  0  0  0  0  0  0  0  0  0  0
    8.4388  -12.5244   26.4614 C   0  0  0  0  0  0  0  0  0  0  0  0
    7.8525  -13.7359   26.1891 C   0  0  0  0  0  0  0  0  0  0  0  0
   10.8177  -17.5376   25.8546 C   0  0  0  0  0  0  0  0  0  0  0  0
   11.6444  -17.5019   26.7875 O   0  0  0  0  0  0  0  0  0  0  0  0
   10.3570  -18.7563   25.4084 O   0  0  0  0  0  0  0  0  0  0  0  0
  2  1  1  1
  3  2  1  0
  4  2  1  0
  4  5  1  1
  6  4  1  0
  6 14  1  0
  7  6  2  0
  8  9  1  0
  9 10  2  0
 11  9  1  0
 11 12  1  0
 13 12  1  1
 13 14  1  0
 15 13  1  0
 16 15  2  0
 17 15  1  0
 18 17  1  0
 18 29  1  0
 18 19  1  1
 20 28  1  0
 20 19  1  0
 21 20  2  0
 22 21  1  0
 22 23  1  0
 23 28  2  0
 24 23  1  0
 24 25  2  0
 25 26  1  0
 26 27  2  0
 28 27  1  0
 29 31  1  0
 30 29  2  0
M  END
$$$$
