TQW.pdb
     RDKit          3D

 31 32  0  0  1  0  0  0  0  0999 V2000
    7.5653  -12.1883   19.6885 C   0  0  0  0  0  0  0  0  0  0  0  0
    8.0786  -13.2957   20.5396 C   0  0  1  0  0  0  0  0  0  0  0  0
    7.1438  -13.5451   21.5519 O   0  0  0  0  0  0  0  0  0  0  0  0
    8.2353  -14.6015   19.7806 C   0  0  2  0  0  0  0  0  0  0  0  0
    6.9311  -14.9569   19.2584 N   0  0  0  0  0  0  0  0  0  0  0  0
    8.6580  -15.6855   20.7289 C   0  0  0  0  0  0  0  0  0  0  0  0
    7.8465  -16.5677   21.1098 O   0  0  0  0  0  0  0  0  0  0  0  0
   10.8964  -20.4329   20.9337 N   0  0  0  0  0  0  0  0  0  0  0  0
   11.8116  -20.1184   22.0074 C   0  0  0  0  0  0  0  0  0  0  0  0
   12.2363  -21.0860   22.6391 O   0  0  0  0  0  0  0  0  0  0  0  0
   12.1565  -18.7412   22.2614 C   0  0  0  0  0  0  0  0  0  0  0  0
   11.5391  -17.6606   21.4704 C   0  0  0  0  0  0  0  0  0  0  0  0
   10.4743  -16.8461   22.0607 C   0  0  2  0  0  0  0  0  0  0  0  0
    9.9664  -15.7806   21.2422 N   0  0  0  0  0  0  0  0  0  0  0  0
   10.6330  -16.4400   23.4555 C   0  0  0  0  0  0  0  0  0  0  0  0
   11.6145  -15.7084   23.7445 O   0  0  0  0  0  0  0  0  0  0  0  0
    9.7498  -16.8114   24.5044 N   0  0  0  0  0  0  0  0  0  0  0  0
    9.9211  -16.5238   25.8965 C   0  0  1  0  0  0  0  0  0  0  0  0
    8.6738  -16.6274   26.7004 C   0  0  0  0  0  0  0  0  0  0  0  0
    7.5589  -15.8186   26.1547 C   0  0  0  0  0  0  0  0  0  0  0  0
    6.4160  -16.1951   25.4780 C   0  0  0  0  0  0  0  0  0  0  0  0
    5.7043  -15.0953   25.1812 N   0  0  0  0  0  0  0  0  0  0  0  0
    6.3224  -13.9880   25.6317 C   0  0  0  0  0  0  0  0  0  0  0  0
    6.0386  -12.6300   25.5988 C   0  0  0  0  0  0  0  0  0  0  0  0
    6.8813  -11.6947   26.1587 C   0  0  0  0  0  0  0  0  0  0  0  0
    8.0393  -12.1286   26.7680 C   0  0  0  0  0  0  0  0  0  0  0  0
    8.3251  -13.4920   26.8016 C   0  0  0  0  0  0  0  0  0  0  0  0
    7.4847  -14.4236   26.2433 C   0  0  0  0  0  0  0  0  0  0  0  0
   10.9983  -17.3446   26.5155 C   0  0  0  0  0  0  0  0  0  0  0  0
   11.5226  -18.2537   25.8420 O   0  0  0  0  0  0  0  0  0  0  0  0
   11.4293  -17.1271   27.8053 O   0  0  0  0  0  0  0  0  0  0  0  0
  2  1  1  6
  3  2  1  0
  4  2  1  0
  4  5  1  1
  6  4  1  0
  6 14  1  0
  7  6  2  0
  8  9  1  0
  9 10  2  0
 11  9  1  0
 11 12  1  0
 13 12  1  6
 13 14  1  0
 15 13  1  0
 16 15  2  0
 17 15  1  0
 18 17  1  0
 18 29  1  0
 18 19  1  1
 20 28  1  0
 20 19  1  0
 21 20  2  0
 22 21  1  0
 22 23  1  0
 23 28  2  0
 24 23  1  0
 24 25  2  0
 25 26  1  0
 26 27  2  0
 28 27  1  0
 29 31  1  0
 30 29  2  0
M  END
$$$$
