GKA.pdb
     RDKit          3D

 19 18  0  0  1  0  0  0  0  0999 V2000
    3.1355  -19.3919   20.9198 N   0  0  0  0  0  0  0  0  0  0  0  0
    3.4181  -18.0581   21.3739 C   0  0  0  0  0  0  0  0  0  0  0  0
    4.8481  -17.8837   21.7534 C   0  0  0  0  0  0  0  0  0  0  0  0
    5.6305  -18.8649   21.9046 O   0  0  0  0  0  0  0  0  0  0  0  0
    5.3581  -16.5896   21.9531 N   0  0  0  0  0  0  0  0  0  0  0  0
    6.7362  -16.3020   22.2912 C   0  0  1  0  0  0  0  0  0  0  0  0
    7.1552  -14.9935   21.6858 C   0  0  0  0  0  0  0  0  0  0  0  0
    7.5332  -15.0649   20.2561 C   0  0  0  0  0  0  0  0  0  0  0  0
    7.9788  -13.7141   19.7528 C   0  0  0  0  0  0  0  0  0  0  0  0
    8.2707  -13.6649   18.2855 C   0  0  0  0  0  0  0  0  0  0  0  0
    8.5373  -12.2659   17.9611 N   0  0  0  0  0  0  0  0  0  0  0  0
    6.8999  -16.3758   23.7431 C   0  0  0  0  0  0  0  0  0  0  0  0
    6.0025  -15.9350   24.4994 O   0  0  0  0  0  0  0  0  0  0  0  0
    7.0637  -18.1145   26.2078 C   0  0  0  0  0  0  0  0  0  0  0  0
    8.1428  -17.1018   25.8115 C   0  0  2  0  0  0  0  0  0  0  0  0
    8.0430  -16.9305   24.3819 N   0  0  0  0  0  0  0  0  0  0  0  0
    9.4678  -17.6281   26.2159 C   0  0  0  0  0  0  0  0  0  0  0  0
   10.5151  -17.8347   25.3365 O   0  0  0  0  0  0  0  0  0  0  0  0
    9.6475  -17.9015   27.4278 O   0  0  0  0  0  0  0  0  0  0  0  0
  1  2  1  0
  3  2  1  0
  3  5  1  0
  4  3  2  0
  6  5  1  0
  6 12  1  0
  6  7  1  1
  8  7  1  0
  9  8  1  0
 10  9  1  0
 11 10  1  0
 12 16  1  0
 13 12  2  0
 15 17  1  0
 15 14  1  6
 16 15  1  0
 17 18  1  0
 19 17  2  0
M  END
$$$$
