GKA.pdb
     RDKit          3D

 19 18  0  0  1  0  0  0  0  0999 V2000
    5.2051  -20.0467   23.1071 N   0  0  0  0  0  0  0  0  0  0  0  0
    5.2934  -18.7077   23.6214 C   0  0  0  0  0  0  0  0  0  0  0  0
    6.4017  -17.9353   22.9934 C   0  0  0  0  0  0  0  0  0  0  0  0
    7.3278  -18.4945   22.3396 O   0  0  0  0  0  0  0  0  0  0  0  0
    6.4311  -16.5365   23.1244 N   0  0  0  0  0  0  0  0  0  0  0  0
    7.4644  -15.6892   22.5670 C   0  0  1  0  0  0  0  0  0  0  0  0
    6.9469  -14.2912   22.3888 C   0  0  0  0  0  0  0  0  0  0  0  0
    7.8609  -13.3795   21.6639 C   0  0  0  0  0  0  0  0  0  0  0  0
    7.8257  -13.6550   20.1809 C   0  0  0  0  0  0  0  0  0  0  0  0
    8.7545  -12.8057   19.3706 C   0  0  0  0  0  0  0  0  0  0  0  0
    8.5911  -13.2209   17.9798 N   0  0  0  0  0  0  0  0  0  0  0  0
    8.6655  -15.7876   23.3965 C   0  0  0  0  0  0  0  0  0  0  0  0
    8.6495  -15.3658   24.5769 O   0  0  0  0  0  0  0  0  0  0  0  0
   11.3888  -17.7884   24.1199 C   0  0  0  0  0  0  0  0  0  0  0  0
   11.1023  -16.3339   23.7336 C   0  0  2  0  0  0  0  0  0  0  0  0
    9.8930  -16.3466   22.9458 N   0  0  0  0  0  0  0  0  0  0  0  0
   12.2561  -15.8031   22.9700 C   0  0  0  0  0  0  0  0  0  0  0  0
   13.4423  -15.3946   23.5524 O   0  0  0  0  0  0  0  0  0  0  0  0
   12.1482  -15.7204   21.7222 O   0  0  0  0  0  0  0  0  0  0  0  0
  1  2  1  0
  3  2  1  0
  3  5  1  0
  4  3  2  0
  6  5  1  0
  6 12  1  0
  6  7  1  1
  8  7  1  0
  9  8  1  0
 10  9  1  0
 11 10  1  0
 12 16  1  0
 13 12  2  0
 15 17  1  0
 15 14  1  6
 16 15  1  0
 17 18  1  0
 19 17  2  0
M  END
$$$$
