GKA.pdb
     RDKit          3D

 19 18  0  0  1  0  0  0  0  0999 V2000
    3.2915  -19.8775   22.3091 N   0  0  0  0  0  0  0  0  0  0  0  0
    3.6671  -18.6146   22.8827 C   0  0  0  0  0  0  0  0  0  0  0  0
    5.0499  -18.2121   22.5017 C   0  0  0  0  0  0  0  0  0  0  0  0
    5.9773  -19.0554   22.3389 O   0  0  0  0  0  0  0  0  0  0  0  0
    5.3475  -16.8517   22.3136 N   0  0  0  0  0  0  0  0  0  0  0  0
    6.6800  -16.3356   22.0805 C   0  0  1  0  0  0  0  0  0  0  0  0
    6.6097  -15.0560   21.2982 C   0  0  0  0  0  0  0  0  0  0  0  0
    7.8096  -14.7616   20.4824 C   0  0  0  0  0  0  0  0  0  0  0  0
    7.5960  -13.5256   19.6439 C   0  0  0  0  0  0  0  0  0  0  0  0
    8.6885  -13.2485   18.6589 C   0  0  0  0  0  0  0  0  0  0  0  0
    8.2633  -12.0869   17.8821 N   0  0  0  0  0  0  0  0  0  0  0  0
    7.3823  -16.2241   23.3591 C   0  0  0  0  0  0  0  0  0  0  0  0
    6.7918  -15.7560   24.3610 O   0  0  0  0  0  0  0  0  0  0  0  0
    9.1527  -17.7469   25.6178 C   0  0  0  0  0  0  0  0  0  0  0  0
    9.4254  -16.4722   24.8130 C   0  0  2  0  0  0  0  0  0  0  0  0
    8.7334  -16.6221   23.5554 N   0  0  0  0  0  0  0  0  0  0  0  0
   10.8882  -16.3247   24.6271 C   0  0  0  0  0  0  0  0  0  0  0  0
   11.7610  -15.9695   25.6395 O   0  0  0  0  0  0  0  0  0  0  0  0
   11.3602  -16.5351   23.4831 O   0  0  0  0  0  0  0  0  0  0  0  0
  1  2  1  0
  3  2  1  0
  3  5  1  0
  4  3  2  0
  6  5  1  0
  6 12  1  0
  6  7  1  1
  8  7  1  0
  9  8  1  0
 10  9  1  0
 11 10  1  0
 12 16  1  0
 13 12  2  0
 15 17  1  0
 15 14  1  1
 16 15  1  0
 17 18  1  0
 19 17  2  0
M  END
$$$$
