GKA.pdb
     RDKit          3D

 19 18  0  0  1  0  0  0  0  0999 V2000
   10.8528  -17.6890   17.4069 N   0  0  0  0  0  0  0  0  0  0  0  0
    9.8961  -17.8942   18.4594 C   0  0  0  0  0  0  0  0  0  0  0  0
   10.2078  -17.0832   19.6696 C   0  0  0  0  0  0  0  0  0  0  0  0
   11.3748  -16.6679   19.9212 O   0  0  0  0  0  0  0  0  0  0  0  0
    9.1787  -16.7615   20.5707 N   0  0  0  0  0  0  0  0  0  0  0  0
    9.3640  -15.9659   21.7662 C   0  0  1  0  0  0  0  0  0  0  0  0
    8.1076  -15.2073   22.0827 C   0  0  0  0  0  0  0  0  0  0  0  0
    7.9979  -13.8868   21.4222 C   0  0  0  0  0  0  0  0  0  0  0  0
    7.7113  -14.0476   19.9496 C   0  0  0  0  0  0  0  0  0  0  0  0
    7.5642  -12.7589   19.2026 C   0  0  0  0  0  0  0  0  0  0  0  0
    7.3498  -13.1124   17.8017 N   0  0  0  0  0  0  0  0  0  0  0  0
    9.8376  -16.8287   22.8486 C   0  0  0  0  0  0  0  0  0  0  0  0
    9.1734  -17.8378   23.1835 O   0  0  0  0  0  0  0  0  0  0  0  0
   12.9367  -17.0584   24.9457 C   0  0  0  0  0  0  0  0  0  0  0  0
   11.4836  -17.4464   24.6539 C   0  0  2  0  0  0  0  0  0  0  0  0
   11.0387  -16.5981   23.5743 N   0  0  0  0  0  0  0  0  0  0  0  0
   10.6777  -17.2499   25.8819 C   0  0  0  0  0  0  0  0  0  0  0  0
   10.7177  -18.0990   26.9730 O   0  0  0  0  0  0  0  0  0  0  0  0
    9.9150  -16.2542   25.9323 O   0  0  0  0  0  0  0  0  0  0  0  0
  1  2  1  0
  3  2  1  0
  3  5  1  0
  4  3  2  0
  6  5  1  0
  6 12  1  0
  6  7  1  1
  8  7  1  0
  9  8  1  0
 10  9  1  0
 11 10  1  0
 12 16  1  0
 13 12  2  0
 15 17  1  0
 15 14  1  1
 16 15  1  0
 17 18  1  0
 19 17  2  0
M  END
$$$$
