GKA.pdb
     RDKit          3D

 19 18  0  0  1  0  0  0  0  0999 V2000
    4.0453  -19.8218   21.4679 N   0  0  0  0  0  0  0  0  0  0  0  0
    4.1037  -18.5030   22.0357 C   0  0  0  0  0  0  0  0  0  0  0  0
    5.5027  -18.0669   22.3039 C   0  0  0  0  0  0  0  0  0  0  0  0
    6.4510  -18.8908   22.4446 O   0  0  0  0  0  0  0  0  0  0  0  0
    5.7924  -16.6957   22.4063 N   0  0  0  0  0  0  0  0  0  0  0  0
    7.0887  -16.1635   22.7708 C   0  0  1  0  0  0  0  0  0  0  0  0
    7.2608  -14.7852   22.2011 C   0  0  0  0  0  0  0  0  0  0  0  0
    7.5634  -14.7467   20.7524 C   0  0  0  0  0  0  0  0  0  0  0  0
    8.0240  -13.3707   20.3387 C   0  0  0  0  0  0  0  0  0  0  0  0
    8.2704  -13.2151   18.8705 C   0  0  0  0  0  0  0  0  0  0  0  0
    8.6093  -11.8112   18.6522 N   0  0  0  0  0  0  0  0  0  0  0  0
    7.2487  -16.2414   24.2229 C   0  0  0  0  0  0  0  0  0  0  0  0
    6.3185  -15.8718   24.9778 O   0  0  0  0  0  0  0  0  0  0  0  0
    7.4972  -17.9579   26.6828 C   0  0  0  0  0  0  0  0  0  0  0  0
    8.5292  -16.8951   26.2925 C   0  0  2  0  0  0  0  0  0  0  0  0
    8.4237  -16.7225   24.8634 N   0  0  0  0  0  0  0  0  0  0  0  0
    9.8764  -17.3617   26.6968 C   0  0  0  0  0  0  0  0  0  0  0  0
   10.2614  -17.5559   28.0110 O   0  0  0  0  0  0  0  0  0  0  0  0
   10.7151  -17.5934   25.7921 O   0  0  0  0  0  0  0  0  0  0  0  0
  1  2  1  0
  3  2  1  0
  3  5  1  0
  4  3  2  0
  6  5  1  0
  6 12  1  0
  6  7  1  1
  8  7  1  0
  9  8  1  0
 10  9  1  0
 11 10  1  0
 12 16  1  0
 13 12  2  0
 15 17  1  0
 15 14  1  6
 16 15  1  0
 17 18  1  0
 19 17  2  0
M  END
$$$$
