GKA.pdb
     RDKit          3D

 19 18  0  0  1  0  0  0  0  0999 V2000
    4.0456  -19.8816   21.4948 N   0  0  0  0  0  0  0  0  0  0  0  0
    4.1130  -18.5411   22.0083 C   0  0  0  0  0  0  0  0  0  0  0  0
    5.5141  -18.1096   22.2732 C   0  0  0  0  0  0  0  0  0  0  0  0
    6.4736  -18.9304   22.3295 O   0  0  0  0  0  0  0  0  0  0  0  0
    5.7928  -16.7463   22.4691 N   0  0  0  0  0  0  0  0  0  0  0  0
    7.1136  -16.2166   22.7361 C   0  0  1  0  0  0  0  0  0  0  0  0
    7.1737  -14.7637   22.3623 C   0  0  0  0  0  0  0  0  0  0  0  0
    7.0660  -14.4923   20.9109 C   0  0  0  0  0  0  0  0  0  0  0  0
    7.9954  -13.3749   20.5054 C   0  0  0  0  0  0  0  0  0  0  0  0
    7.9592  -13.0370   19.0477 C   0  0  0  0  0  0  0  0  0  0  0  0
    8.9325  -11.9670   18.8446 N   0  0  0  0  0  0  0  0  0  0  0  0
    7.4718  -16.4979   24.1264 C   0  0  0  0  0  0  0  0  0  0  0  0
    6.7393  -16.0899   25.0584 O   0  0  0  0  0  0  0  0  0  0  0  0
    8.6207  -18.8858   26.2262 C   0  0  0  0  0  0  0  0  0  0  0  0
    9.0061  -17.4420   25.8884 C   0  0  2  0  0  0  0  0  0  0  0  0
    8.6310  -17.2261   24.5115 N   0  0  0  0  0  0  0  0  0  0  0  0
   10.4628  -17.2713   26.0998 C   0  0  0  0  0  0  0  0  0  0  0  0
   11.0720  -17.3234   27.3404 O   0  0  0  0  0  0  0  0  0  0  0  0
   11.1838  -17.0676   25.0926 O   0  0  0  0  0  0  0  0  0  0  0  0
  1  2  1  0
  3  2  1  0
  3  5  1  0
  4  3  2  0
  6  5  1  0
  6 12  1  0
  6  7  1  1
  8  7  1  0
  9  8  1  0
 10  9  1  0
 11 10  1  0
 12 16  1  0
 13 12  2  0
 15 17  1  0
 15 14  1  6
 16 15  1  0
 17 18  1  0
 19 17  2  0
M  END
$$$$
