GKA.pdb
     RDKit          3D

 19 18  0  0  1  0  0  0  0  0999 V2000
    7.8637  -12.2947   19.1317 N   0  0  0  0  0  0  0  0  0  0  0  0
    8.5027  -13.4336   19.7314 C   0  0  0  0  0  0  0  0  0  0  0  0
    7.9248  -13.7667   21.0635 C   0  0  0  0  0  0  0  0  0  0  0  0
    7.1432  -12.9837   21.6747 O   0  0  0  0  0  0  0  0  0  0  0  0
    8.2513  -14.9901   21.6730 N   0  0  0  0  0  0  0  0  0  0  0  0
    7.6328  -15.4853   22.8848 C   0  0  1  0  0  0  0  0  0  0  0  0
    7.5330  -16.9827   22.8400 C   0  0  0  0  0  0  0  0  0  0  0  0
    6.9724  -17.6034   24.0616 C   0  0  0  0  0  0  0  0  0  0  0  0
    6.8342  -19.0958   23.8880 C   0  0  0  0  0  0  0  0  0  0  0  0
    6.2082  -19.7997   25.0513 C   0  0  0  0  0  0  0  0  0  0  0  0
    6.1880  -21.2210   24.7155 N   0  0  0  0  0  0  0  0  0  0  0  0
    8.3586  -14.9626   24.0426 C   0  0  0  0  0  0  0  0  0  0  0  0
    9.6046  -15.0834   24.1095 O   0  0  0  0  0  0  0  0  0  0  0  0
    7.5780  -12.6560   26.8551 C   0  0  0  0  0  0  0  0  0  0  0  0
    8.4653  -13.7472   26.2474 C   0  0  2  0  0  0  0  0  0  0  0  0
    7.7318  -14.3043   25.1363 N   0  0  0  0  0  0  0  0  0  0  0  0
    8.7562  -14.7638   27.2856 C   0  0  0  0  0  0  0  0  0  0  0  0
    8.3192  -16.0745   27.2234 O   0  0  0  0  0  0  0  0  0  0  0  0
    9.4392  -14.4123   28.2784 O   0  0  0  0  0  0  0  0  0  0  0  0
  1  2  1  0
  3  2  1  0
  3  5  1  0
  4  3  2  0
  6  5  1  0
  6 12  1  0
  6  7  1  6
  8  7  1  0
  9  8  1  0
 10  9  1  0
 11 10  1  0
 12 16  1  0
 13 12  2  0
 15 17  1  0
 15 14  1  1
 16 15  1  0
 17 18  1  0
 19 17  2  0
M  END
$$$$
