GKA.pdb
     RDKit          3D

 19 18  0  0  1  0  0  0  0  0999 V2000
    8.1775  -13.2600   18.1123 N   0  0  0  0  0  0  0  0  0  0  0  0
    7.3589  -13.7788   19.1733 C   0  0  0  0  0  0  0  0  0  0  0  0
    8.0798  -13.8105   20.4767 C   0  0  0  0  0  0  0  0  0  0  0  0
    9.3384  -13.7225   20.5538 O   0  0  0  0  0  0  0  0  0  0  0  0
    7.3481  -13.9422   21.6691 N   0  0  0  0  0  0  0  0  0  0  0  0
    7.9299  -13.8660   22.9927 C   0  0  1  0  0  0  0  0  0  0  0  0
    6.9632  -13.2260   23.9467 C   0  0  0  0  0  0  0  0  0  0  0  0
    7.4742  -13.0559   25.3258 C   0  0  0  0  0  0  0  0  0  0  0  0
    6.4285  -12.4210   26.2090 C   0  0  0  0  0  0  0  0  0  0  0  0
    6.8885  -12.1305   27.6034 C   0  0  0  0  0  0  0  0  0  0  0  0
    5.7529  -11.5311   28.2996 N   0  0  0  0  0  0  0  0  0  0  0  0
    8.3838  -15.1973   23.3951 C   0  0  0  0  0  0  0  0  0  0  0  0
    7.5735  -16.1533   23.4292 O   0  0  0  0  0  0  0  0  0  0  0  0
   11.5369  -17.0397   23.5923 C   0  0  0  0  0  0  0  0  0  0  0  0
   10.1495  -16.8057   24.1986 C   0  0  2  0  0  0  0  0  0  0  0  0
    9.7243  -15.4969   23.7634 N   0  0  0  0  0  0  0  0  0  0  0  0
   10.2486  -16.8945   25.6745 C   0  0  0  0  0  0  0  0  0  0  0  0
   10.5283  -18.0637   26.3583 O   0  0  0  0  0  0  0  0  0  0  0  0
   10.0677  -15.8460   26.3406 O   0  0  0  0  0  0  0  0  0  0  0  0
  1  2  1  0
  3  2  1  0
  3  5  1  0
  4  3  2  0
  6  5  1  0
  6 12  1  0
  6  7  1  1
  8  7  1  0
  9  8  1  0
 10  9  1  0
 11 10  1  0
 12 16  1  0
 13 12  2  0
 15 17  1  0
 15 14  1  6
 16 15  1  0
 17 18  1  0
 19 17  2  0
M  END
$$$$
