FDP.pdb
     RDKit          3D

 27 28  0  0  1  0  0  0  0  0999 V2000
   27.7249  -21.7968  -17.6747 N   0  0  0  0  0  0  0  0  0  0  0  0
   26.7228  -22.4120  -16.8591 C   0  0  1  0  0  0  0  0  0  0  0  0
   27.3457  -22.8161  -15.5515 C   0  0  0  0  0  0  0  0  0  0  0  0
   28.2084  -23.9961  -15.8186 C   0  0  0  0  0  0  0  0  0  0  0  0
   27.7200  -25.2916  -15.8470 C   0  0  0  0  0  0  0  0  0  0  0  0
   28.5422  -26.3804  -16.0983 C   0  0  0  0  0  0  0  0  0  0  0  0
   29.8858  -26.2028  -16.3299 C   0  0  0  0  0  0  0  0  0  0  0  0
   30.3831  -24.9000  -16.3024 C   0  0  0  0  0  0  0  0  0  0  0  0
   29.5655  -23.8383  -16.0544 C   0  0  0  0  0  0  0  0  0  0  0  0
   25.5360  -21.5160  -16.6504 C   0  0  0  0  0  0  0  0  0  0  0  0
   25.7550  -20.2906  -16.5023 O   0  0  0  0  0  0  0  0  0  0  0  0
   24.2272  -22.0170  -16.6199 N   0  0  0  0  0  0  0  0  0  0  0  0
   22.9897  -21.2709  -16.3867 C   0  0  1  0  0  0  0  0  0  0  0  0
   22.4995  -20.7100  -17.6413 C   0  0  0  0  0  0  0  0  0  0  0  0
   21.2510  -19.9199  -17.5836 C   0  0  0  0  0  0  0  0  0  0  0  0
   20.1496  -20.3340  -18.0190 O   0  0  0  0  0  0  0  0  0  0  0  0
   22.1540  -21.7786  -15.3334 C   0  0  0  0  0  0  0  0  0  0  0  0
   21.4973  -22.8435  -15.6752 O   0  0  0  0  0  0  0  0  0  0  0  0
   21.2546  -18.6502  -17.0270 O   0  0  0  0  0  0  0  0  0  0  0  0
   21.9396  -21.3315  -14.0449 N   0  0  0  0  0  0  0  0  0  0  0  0
   22.9125  -20.6762  -13.1383 C   0  0  0  0  0  0  0  0  0  0  0  0
   22.1032  -19.3942  -12.8035 C   0  0  0  0  0  0  0  0  0  0  0  0
   20.6389  -19.8094  -13.0178 C   0  0  0  0  0  0  0  0  0  0  0  0
   20.8040  -21.3405  -13.1366 C   0  0  1  0  0  0  0  0  0  0  0  0
   19.6337  -22.0505  -13.5234 C   0  0  0  0  0  0  0  0  0  0  0  0
   19.5088  -22.3390  -14.7938 O   0  0  0  0  0  0  0  0  0  0  0  0
   18.5887  -22.4892  -12.7737 O   0  0  0  0  0  0  0  0  0  0  0  0
  2  1  1  6
  3  2  1  0
  4  3  1  0
  5  4  2  0
  6  5  1  0
  7  6  2  0
  7  8  1  0
  8  9  2  0
  9  4  1  0
 10 11  2  0
 10  2  1  0
 12 10  1  0
 13 12  1  0
 13 14  1  6
 15 16  2  0
 15 14  1  0
 17 13  1  0
 18 17  2  0
 19 15  1  0
 20 21  1  0
 20 17  1  0
 22 21  1  0
 23 24  1  0
 23 22  1  0
 24 20  1  0
 25 27  1  0
 24 25  1  6
 26 25  2  0
M  END
$$$$
