FDP.pdb
     RDKit          3D

 27 28  0  0  1  0  0  0  0  0999 V2000
   21.4394  -10.0209  -16.4054 N   0  0  0  0  0  0  0  0  0  0  0  0
   21.4239   -8.6989  -15.8576 C   0  0  1  0  0  0  0  0  0  0  0  0
   22.5666   -7.9188  -16.4465 C   0  0  0  0  0  0  0  0  0  0  0  0
   22.3041   -7.7812  -17.9026 C   0  0  0  0  0  0  0  0  0  0  0  0
   21.6308   -6.6993  -18.4447 C   0  0  0  0  0  0  0  0  0  0  0  0
   21.3957   -6.5892  -19.8075 C   0  0  0  0  0  0  0  0  0  0  0  0
   21.8306   -7.5653  -20.6728 C   0  0  0  0  0  0  0  0  0  0  0  0
   22.5093   -8.6573  -20.1322 C   0  0  0  0  0  0  0  0  0  0  0  0
   22.7343   -8.7543  -18.7916 C   0  0  0  0  0  0  0  0  0  0  0  0
   20.1101   -8.0084  -16.0856 C   0  0  0  0  0  0  0  0  0  0  0  0
   19.2825   -8.5732  -16.8389 O   0  0  0  0  0  0  0  0  0  0  0  0
   19.8069   -6.7785  -15.4853 N   0  0  0  0  0  0  0  0  0  0  0  0
   18.5608   -6.0171  -15.5872 C   0  0  1  0  0  0  0  0  0  0  0  0
   17.4556   -6.7892  -15.0293 C   0  0  0  0  0  0  0  0  0  0  0  0
   16.1085   -6.1836  -15.0983 C   0  0  0  0  0  0  0  0  0  0  0  0
   15.3270   -6.3433  -16.0668 O   0  0  0  0  0  0  0  0  0  0  0  0
   18.7006   -4.5907  -15.4810 C   0  0  0  0  0  0  0  0  0  0  0  0
   18.6916   -4.1697  -14.2545 O   0  0  0  0  0  0  0  0  0  0  0  0
   15.6466   -5.3907  -14.0590 O   0  0  0  0  0  0  0  0  0  0  0  0
   18.8415   -3.6148  -16.4475 N   0  0  0  0  0  0  0  0  0  0  0  0
   19.2655   -3.7885  -17.8573 C   0  0  0  0  0  0  0  0  0  0  0  0
   18.0622   -3.1003  -18.5568 C   0  0  0  0  0  0  0  0  0  0  0  0
   17.5215   -2.1257  -17.4983 C   0  0  0  0  0  0  0  0  0  0  0  0
   18.6749   -2.1703  -16.4718 C   0  0  1  0  0  0  0  0  0  0  0  0
   18.4232   -1.4973  -15.2442 C   0  0  0  0  0  0  0  0  0  0  0  0
   19.1780   -0.4640  -14.9696 O   0  0  0  0  0  0  0  0  0  0  0  0
   17.5058   -1.7573  -14.2761 O   0  0  0  0  0  0  0  0  0  0  0  0
  2  1  1  6
  3  2  1  0
  4  3  1  0
  5  4  2  0
  6  5  1  0
  7  6  2  0
  7  8  1  0
  8  9  2  0
  9  4  1  0
 10 11  2  0
 10  2  1  0
 12 10  1  0
 13 12  1  0
 13 14  1  1
 15 16  2  0
 15 14  1  0
 17 13  1  0
 18 17  2  0
 19 15  1  0
 20 21  1  0
 20 17  1  0
 22 21  1  0
 23 24  1  0
 23 22  1  0
 24 20  1  0
 25 27  1  0
 24 25  1  1
 26 25  2  0
M  END
$$$$
