FDP.pdb
     RDKit          3D

 27 28  0  0  1  0  0  0  0  0999 V2000
   22.1125  -17.7833  -19.3562 N   0  0  0  0  0  0  0  0  0  0  0  0
   23.1220  -18.5751  -18.7226 C   0  0  1  0  0  0  0  0  0  0  0  0
   22.6198  -19.9869  -18.5960 C   0  0  0  0  0  0  0  0  0  0  0  0
   21.4578  -19.9615  -17.6702 C   0  0  0  0  0  0  0  0  0  0  0  0
   21.5890  -19.7569  -16.3069 C   0  0  0  0  0  0  0  0  0  0  0  0
   20.4912  -19.7367  -15.4589 C   0  0  0  0  0  0  0  0  0  0  0  0
   19.2220  -19.9220  -15.9543 C   0  0  0  0  0  0  0  0  0  0  0  0
   19.0840  -20.1286  -17.3267 C   0  0  0  0  0  0  0  0  0  0  0  0
   20.1702  -20.1463  -18.1498 C   0  0  0  0  0  0  0  0  0  0  0  0
   24.4291  -18.5195  -19.4598 C   0  0  0  0  0  0  0  0  0  0  0  0
   24.4024  -18.1527  -20.6582 O   0  0  0  0  0  0  0  0  0  0  0  0
   25.6409  -18.8618  -18.8439 N   0  0  0  0  0  0  0  0  0  0  0  0
   26.9727  -18.8980  -19.4501 C   0  0  1  0  0  0  0  0  0  0  0  0
   27.7574  -17.7520  -19.0032 C   0  0  0  0  0  0  0  0  0  0  0  0
   29.0139  -17.4711  -19.7303 C   0  0  0  0  0  0  0  0  0  0  0  0
   29.0499  -17.0222  -20.9014 O   0  0  0  0  0  0  0  0  0  0  0  0
   27.5037  -20.2116  -19.6914 C   0  0  0  0  0  0  0  0  0  0  0  0
   28.0390  -20.7441  -18.6370 O   0  0  0  0  0  0  0  0  0  0  0  0
   30.2380  -17.7022  -19.1219 O   0  0  0  0  0  0  0  0  0  0  0  0
   27.5366  -20.9851  -20.8345 N   0  0  0  0  0  0  0  0  0  0  0  0
   26.6881  -20.8544  -22.0431 C   0  0  0  0  0  0  0  0  0  0  0  0
   27.8083  -20.7487  -23.1130 C   0  0  0  0  0  0  0  0  0  0  0  0
   29.0095  -21.4588  -22.4685 C   0  0  0  0  0  0  0  0  0  0  0  0
   28.3138  -22.1356  -21.2669 C   0  0  1  0  0  0  0  0  0  0  0  0
   29.1856  -22.7546  -20.3287 C   0  0  0  0  0  0  0  0  0  0  0  0
   29.0626  -24.0478  -20.1697 O   0  0  0  0  0  0  0  0  0  0  0  0
   30.1515  -22.2120  -19.5418 O   0  0  0  0  0  0  0  0  0  0  0  0
  2  1  1  6
  3  2  1  0
  4  3  1  0
  5  4  2  0
  6  5  1  0
  7  6  2  0
  7  8  1  0
  8  9  2  0
  9  4  1  0
 10 11  2  0
 10  2  1  0
 12 10  1  0
 13 12  1  0
 13 14  1  1
 15 16  2  0
 15 14  1  0
 17 13  1  0
 18 17  2  0
 19 15  1  0
 20 21  1  0
 20 17  1  0
 22 21  1  0
 23 24  1  0
 23 22  1  0
 24 20  1  0
 25 27  1  0
 24 25  1  1
 26 25  2  0
M  END
$$$$
