FDP.pdb
     RDKit          3D

 27 28  0  0  1  0  0  0  0  0999 V2000
   22.2766  -14.0007  -18.2746 N   0  0  0  0  0  0  0  0  0  0  0  0
   21.0999  -13.1891  -18.2078 C   0  0  1  0  0  0  0  0  0  0  0  0
   20.1144  -13.8429  -17.2791 C   0  0  0  0  0  0  0  0  0  0  0  0
   19.5748  -15.0385  -17.9774 C   0  0  0  0  0  0  0  0  0  0  0  0
   18.5428  -14.9676  -18.8981 C   0  0  0  0  0  0  0  0  0  0  0  0
   18.0530  -16.0959  -19.5396 C   0  0  0  0  0  0  0  0  0  0  0  0
   18.5854  -17.3359  -19.2765 C   0  0  0  0  0  0  0  0  0  0  0  0
   19.6252  -17.4132  -18.3500 C   0  0  0  0  0  0  0  0  0  0  0  0
   20.0979  -16.2976  -17.7261 C   0  0  0  0  0  0  0  0  0  0  0  0
   21.4076  -11.7821  -17.7826 C   0  0  0  0  0  0  0  0  0  0  0  0
   22.3341  -11.6174  -16.9544 O   0  0  0  0  0  0  0  0  0  0  0  0
   20.6940  -10.6849  -18.2845 N   0  0  0  0  0  0  0  0  0  0  0  0
   20.8966   -9.2690  -17.9736 C   0  0  1  0  0  0  0  0  0  0  0  0
   21.0334   -8.5005  -19.2063 C   0  0  0  0  0  0  0  0  0  0  0  0
   21.3403   -7.0604  -19.0718 C   0  0  0  0  0  0  0  0  0  0  0  0
   20.5795   -6.1499  -19.4795 O   0  0  0  0  0  0  0  0  0  0  0  0
   20.2414   -8.8002  -16.7835 C   0  0  0  0  0  0  0  0  0  0  0  0
   18.9510   -8.7473  -16.9018 O   0  0  0  0  0  0  0  0  0  0  0  0
   22.5205   -6.6525  -18.4693 O   0  0  0  0  0  0  0  0  0  0  0  0
   20.7465   -8.4066  -15.5603 N   0  0  0  0  0  0  0  0  0  0  0  0
   22.0217   -8.8225  -14.9290 C   0  0  0  0  0  0  0  0  0  0  0  0
   22.6306   -7.4181  -14.6692 C   0  0  0  0  0  0  0  0  0  0  0  0
   21.4082   -6.4903  -14.5839 C   0  0  0  0  0  0  0  0  0  0  0  0
   20.2765   -7.5375  -14.4933 C   0  0  1  0  0  0  0  0  0  0  0  0
   18.9561   -7.0154  -14.5779 C   0  0  0  0  0  0  0  0  0  0  0  0
   18.3930   -7.0174  -15.7594 O   0  0  0  0  0  0  0  0  0  0  0  0
   18.1577   -6.4942  -13.6098 O   0  0  0  0  0  0  0  0  0  0  0  0
  2  1  1  1
  3  2  1  0
  4  3  1  0
  5  4  2  0
  6  5  1  0
  7  6  2  0
  7  8  1  0
  8  9  2  0
  9  4  1  0
 10 11  2  0
 10  2  1  0
 12 10  1  0
 13 12  1  0
 13 14  1  6
 15 16  2  0
 15 14  1  0
 17 13  1  0
 18 17  2  0
 19 15  1  0
 20 21  1  0
 20 17  1  0
 22 21  1  0
 23 24  1  0
 23 22  1  0
 24 20  1  0
 25 27  1  0
 24 25  1  6
 26 25  2  0
M  END
$$$$
