FDP.pdb
     RDKit          3D

 27 28  0  0  1  0  0  0  0  0999 V2000
   26.9066   -9.8721  -14.9532 N   0  0  0  0  0  0  0  0  0  0  0  0
   25.6985   -9.9230  -15.7184 C   0  0  1  0  0  0  0  0  0  0  0  0
   25.2303  -11.3503  -15.7875 C   0  0  0  0  0  0  0  0  0  0  0  0
   26.3157  -12.1415  -16.4232 C   0  0  0  0  0  0  0  0  0  0  0  0
   26.6830  -11.9816  -17.7488 C   0  0  0  0  0  0  0  0  0  0  0  0
   27.6994  -12.7303  -18.3239 C   0  0  0  0  0  0  0  0  0  0  0  0
   28.3822  -13.6667  -17.5840 C   0  0  0  0  0  0  0  0  0  0  0  0
   28.0163  -13.8319  -16.2483 C   0  0  0  0  0  0  0  0  0  0  0  0
   27.0160  -13.0904  -15.6944 C   0  0  0  0  0  0  0  0  0  0  0  0
   24.6364   -9.0214  -15.1579 C   0  0  0  0  0  0  0  0  0  0  0  0
   24.6491   -8.8109  -13.9222 O   0  0  0  0  0  0  0  0  0  0  0  0
   23.6614   -8.4308  -15.9736 N   0  0  0  0  0  0  0  0  0  0  0  0
   22.8736   -7.2284  -15.6974 C   0  0  1  0  0  0  0  0  0  0  0  0
   23.6800   -6.2596  -14.9623 C   0  0  0  0  0  0  0  0  0  0  0  0
   22.9992   -5.0332  -14.4948 C   0  0  0  0  0  0  0  0  0  0  0  0
   23.1650   -3.9065  -15.0212 O   0  0  0  0  0  0  0  0  0  0  0  0
   21.8938   -6.8921  -16.6936 C   0  0  0  0  0  0  0  0  0  0  0  0
   22.3517   -6.0926  -17.6063 O   0  0  0  0  0  0  0  0  0  0  0  0
   22.1238   -5.0881  -13.4211 O   0  0  0  0  0  0  0  0  0  0  0  0
   20.5744   -7.2719  -16.8383 N   0  0  0  0  0  0  0  0  0  0  0  0
   19.9007   -8.4539  -16.2496 C   0  0  0  0  0  0  0  0  0  0  0  0
   18.7223   -7.7315  -15.5423 C   0  0  0  0  0  0  0  0  0  0  0  0
   18.5475   -6.4302  -16.3413 C   0  0  0  0  0  0  0  0  0  0  0  0
   19.4333   -6.7419  -17.5676 C   0  0  1  0  0  0  0  0  0  0  0  0
   19.6456   -5.6526  -18.4575 C   0  0  0  0  0  0  0  0  0  0  0  0
   18.8600   -5.5790  -19.5016 O   0  0  0  0  0  0  0  0  0  0  0  0
   20.5580   -4.6469  -18.4072 O   0  0  0  0  0  0  0  0  0  0  0  0
  2  1  1  1
  3  2  1  0
  4  3  1  0
  5  4  2  0
  6  5  1  0
  7  6  2  0
  7  8  1  0
  8  9  2  0
  9  4  1  0
 10 11  2  0
 10  2  1  0
 12 10  1  0
 13 12  1  0
 13 14  1  6
 15 16  2  0
 15 14  1  0
 17 13  1  0
 18 17  2  0
 19 15  1  0
 20 21  1  0
 20 17  1  0
 22 21  1  0
 23 24  1  0
 23 22  1  0
 24 20  1  0
 25 27  1  0
 24 25  1  1
 26 25  2  0
M  END
$$$$
