FDP.pdb
     RDKit          3D

 27 28  0  0  1  0  0  0  0  0999 V2000
   28.8448  -21.6431  -11.6970 N   0  0  0  0  0  0  0  0  0  0  0  0
   27.4962  -21.2144  -11.4841 C   0  0  1  0  0  0  0  0  0  0  0  0
   27.5174  -19.8677  -10.8156 C   0  0  0  0  0  0  0  0  0  0  0  0
   27.7035  -20.0996   -9.3596 C   0  0  0  0  0  0  0  0  0  0  0  0
   28.9523  -20.1895   -8.7678 C   0  0  0  0  0  0  0  0  0  0  0  0
   29.1050  -20.4064   -7.4061 C   0  0  0  0  0  0  0  0  0  0  0  0
   28.0050  -20.5405   -6.5921 C   0  0  0  0  0  0  0  0  0  0  0  0
   26.7448  -20.4507   -7.1829 C   0  0  0  0  0  0  0  0  0  0  0  0
   26.6074  -20.2374   -8.5220 C   0  0  0  0  0  0  0  0  0  0  0  0
   26.7052  -21.1835  -12.7602 C   0  0  0  0  0  0  0  0  0  0  0  0
   27.2599  -20.6961  -13.7732 O   0  0  0  0  0  0  0  0  0  0  0  0
   25.3953  -21.6774  -12.8306 N   0  0  0  0  0  0  0  0  0  0  0  0
   24.5342  -21.7622  -14.0113 C   0  0  1  0  0  0  0  0  0  0  0  0
   25.0177  -22.8054  -14.9095 C   0  0  0  0  0  0  0  0  0  0  0  0
   26.2066  -22.4901  -15.7300 C   0  0  0  0  0  0  0  0  0  0  0  0
   27.1543  -23.2920  -15.9116 O   0  0  0  0  0  0  0  0  0  0  0  0
   23.1493  -21.4502  -13.7869 C   0  0  0  0  0  0  0  0  0  0  0  0
   22.5341  -22.3492  -13.0832 O   0  0  0  0  0  0  0  0  0  0  0  0
   26.3190  -21.2543  -16.3484 O   0  0  0  0  0  0  0  0  0  0  0  0
   22.3816  -20.3744  -14.1862 N   0  0  0  0  0  0  0  0  0  0  0  0
   22.8398  -19.0007  -14.5033 C   0  0  0  0  0  0  0  0  0  0  0  0
   22.2323  -18.8671  -15.9260 C   0  0  0  0  0  0  0  0  0  0  0  0
   21.0486  -19.8475  -15.9209 C   0  0  0  0  0  0  0  0  0  0  0  0
   20.9607  -20.1614  -14.4111 C   0  0  1  0  0  0  0  0  0  0  0  0
   20.0563  -21.2009  -14.0574 C   0  0  0  0  0  0  0  0  0  0  0  0
   20.1384  -22.3149  -14.7394 O   0  0  0  0  0  0  0  0  0  0  0  0
   19.0882  -21.2315  -13.1043 O   0  0  0  0  0  0  0  0  0  0  0  0
  2  1  1  6
  3  2  1  0
  4  3  1  0
  5  4  2  0
  6  5  1  0
  7  6  2  0
  7  8  1  0
  8  9  2  0
  9  4  1  0
 10 11  2  0
 10  2  1  0
 12 10  1  0
 13 12  1  0
 13 14  1  1
 15 16  2  0
 15 14  1  0
 17 13  1  0
 18 17  2  0
 19 15  1  0
 20 21  1  0
 20 17  1  0
 22 21  1  0
 23 24  1  0
 23 22  1  0
 24 20  1  0
 25 27  1  0
 24 25  1  6
 26 25  2  0
M  END
$$$$
