FDP.pdb
     RDKit          3D

 27 28  0  0  1  0  0  0  0  0999 V2000
   25.1955   -9.6903  -15.5856 N   0  0  0  0  0  0  0  0  0  0  0  0
   25.7517  -10.7894  -16.3139 C   0  0  1  0  0  0  0  0  0  0  0  0
   27.2424  -10.7945  -16.1167 C   0  0  0  0  0  0  0  0  0  0  0  0
   27.8413  -10.0459  -17.2520 C   0  0  0  0  0  0  0  0  0  0  0  0
   27.8244  -10.5176  -18.5539 C   0  0  0  0  0  0  0  0  0  0  0  0
   28.3892   -9.8033  -19.6005 C   0  0  0  0  0  0  0  0  0  0  0  0
   28.9912   -8.5883  -19.3727 C   0  0  0  0  0  0  0  0  0  0  0  0
   29.0111   -8.1084  -18.0633 C   0  0  0  0  0  0  0  0  0  0  0  0
   28.4528   -8.8193  -17.0433 C   0  0  0  0  0  0  0  0  0  0  0  0
   25.1385  -12.1004  -15.9135 C   0  0  0  0  0  0  0  0  0  0  0  0
   24.9122  -12.2850  -14.6944 O   0  0  0  0  0  0  0  0  0  0  0  0
   24.8257  -13.0894  -16.8564 N   0  0  0  0  0  0  0  0  0  0  0  0
   24.2839  -14.4255  -16.6040 C   0  0  1  0  0  0  0  0  0  0  0  0
   22.8389  -14.4261  -16.8064 C   0  0  0  0  0  0  0  0  0  0  0  0
   22.1237  -15.6950  -16.5526 C   0  0  0  0  0  0  0  0  0  0  0  0
   21.8052  -16.0922  -15.4059 O   0  0  0  0  0  0  0  0  0  0  0  0
   25.1587  -15.5170  -16.9343 C   0  0  0  0  0  0  0  0  0  0  0  0
   25.2864  -15.6962  -18.2123 O   0  0  0  0  0  0  0  0  0  0  0  0
   21.7680  -16.5183  -17.6099 O   0  0  0  0  0  0  0  0  0  0  0  0
   25.8719  -16.3871  -16.1340 N   0  0  0  0  0  0  0  0  0  0  0  0
   26.4612  -16.1173  -14.8007 C   0  0  0  0  0  0  0  0  0  0  0  0
   25.8052  -17.2802  -14.0082 C   0  0  0  0  0  0  0  0  0  0  0  0
   25.5057  -18.3409  -15.0794 C   0  0  0  0  0  0  0  0  0  0  0  0
   26.3124  -17.7668  -16.2650 C   0  0  1  0  0  0  0  0  0  0  0  0
   26.1151  -18.4247  -17.5106 C   0  0  0  0  0  0  0  0  0  0  0  0
   24.8776  -18.5967  -17.9001 O   0  0  0  0  0  0  0  0  0  0  0  0
   27.0230  -18.9246  -18.3893 O   0  0  0  0  0  0  0  0  0  0  0  0
  2  1  1  1
  3  2  1  0
  4  3  1  0
  5  4  2  0
  6  5  1  0
  7  6  2  0
  7  8  1  0
  8  9  2  0
  9  4  1  0
 10 11  2  0
 10  2  1  0
 12 10  1  0
 13 12  1  0
 13 14  1  6
 15 16  2  0
 15 14  1  0
 17 13  1  0
 18 17  2  0
 19 15  1  0
 20 21  1  0
 20 17  1  0
 22 21  1  0
 23 24  1  0
 23 22  1  0
 24 20  1  0
 25 27  1  0
 24 25  1  6
 26 25  2  0
M  END
$$$$
