MPQ.pdb
     RDKit          3D

 25 25  0  0  1  0  0  0  0  0999 V2000
    7.8727  -11.8550   27.4003 C   0  0  0  0  0  0  0  0  0  0  0  0
    6.1022  -12.1438   27.3915 S   0  0  0  0  0  0  0  0  0  0  0  0
    5.6558  -13.7181   26.6221 C   0  0  0  0  0  0  0  0  0  0  0  0
    6.8169  -14.2997   25.8435 C   0  0  0  0  0  0  0  0  0  0  0  0
    6.4152  -15.6089   25.1779 C   0  0  2  0  0  0  0  0  0  0  0  0
    5.9622  -16.5053   26.1702 N   0  0  0  0  0  0  0  0  0  0  0  0
    7.4303  -16.0865   24.2382 C   0  0  0  0  0  0  0  0  0  0  0  0
    7.7371  -17.3194   24.4412 O   0  0  0  0  0  0  0  0  0  0  0  0
    8.0576  -15.3562   23.1989 N   0  0  0  0  0  0  0  0  0  0  0  0
    7.9969  -13.9858   22.7851 C   0  0  0  0  0  0  0  0  0  0  0  0
    7.6460  -14.1493   21.3173 C   0  0  0  0  0  0  0  0  0  0  0  0
    8.5396  -15.3182   20.9580 C   0  0  0  0  0  0  0  0  0  0  0  0
    8.9872  -15.9477   22.2605 C   0  0  1  0  0  0  0  0  0  0  0  0
   10.3967  -15.6264   22.6027 C   0  0  0  0  0  0  0  0  0  0  0  0
   10.8628  -14.4950   22.3352 O   0  0  0  0  0  0  0  0  0  0  0  0
   11.0558  -13.8652   27.5849 N   0  0  0  0  0  0  0  0  0  0  0  0
   10.7563  -15.2759   27.5855 C   0  0  0  0  0  0  0  0  0  0  0  0
   10.4200  -15.7613   28.6755 O   0  0  0  0  0  0  0  0  0  0  0  0
   10.8453  -16.0993   26.3535 C   0  0  0  0  0  0  0  0  0  0  0  0
   11.5985  -15.3238   25.3209 C   0  0  0  0  0  0  0  0  0  0  0  0
   12.2173  -16.2073   24.2617 C   0  0  2  0  0  0  0  0  0  0  0  0
   11.2597  -16.5591   23.2321 N   0  0  0  0  0  0  0  0  0  0  0  0
   12.8728  -17.4046   24.7972 C   0  0  0  0  0  0  0  0  0  0  0  0
   12.3223  -18.6470   24.5638 O   0  0  0  0  0  0  0  0  0  0  0  0
   13.9272  -17.3331   25.4666 O   0  0  0  0  0  0  0  0  0  0  0  0
  2  1  1  0
  3  2  1  0
  4  3  1  0
  4  5  1  0
  5  7  1  0
  5  6  1  1
  7  8  2  0
  9 13  1  0
  9  7  1  0
 10  9  1  0
 11 10  1  0
 11 12  1  0
 12 13  1  0
 14 15  2  0
 13 14  1  1
 16 17  1  0
 17 18  2  0
 19 17  1  0
 19 20  1  0
 21 20  1  1
 21 22  1  0
 21 23  1  0
 22 14  1  0
 23 25  2  0
 23 24  1  0
M  END
$$$$
