MPQ.pdb
     RDKit          3D

 25 25  0  0  1  0  0  0  0  0999 V2000
    7.7063  -11.7761   26.6820 C   0  0  0  0  0  0  0  0  0  0  0  0
    7.3954  -13.5014   27.0621 S   0  0  0  0  0  0  0  0  0  0  0  0
    7.1501  -14.5091   25.5809 C   0  0  0  0  0  0  0  0  0  0  0  0
    6.7337  -15.9206   25.9374 C   0  0  0  0  0  0  0  0  0  0  0  0
    6.3916  -16.7127   24.6828 C   0  0  2  0  0  0  0  0  0  0  0  0
    5.9329  -17.9930   25.0622 N   0  0  0  0  0  0  0  0  0  0  0  0
    7.4498  -16.6374   23.6749 C   0  0  0  0  0  0  0  0  0  0  0  0
    8.1064  -17.7397   23.5780 O   0  0  0  0  0  0  0  0  0  0  0  0
    7.7866  -15.5313   22.8564 N   0  0  0  0  0  0  0  0  0  0  0  0
    7.3826  -14.1567   22.8463 C   0  0  0  0  0  0  0  0  0  0  0  0
    6.9213  -14.0084   21.4078 C   0  0  0  0  0  0  0  0  0  0  0  0
    8.0062  -14.7914   20.6978 C   0  0  0  0  0  0  0  0  0  0  0  0
    8.7177  -15.6139   21.7514 C   0  0  1  0  0  0  0  0  0  0  0  0
   10.0505  -15.0645   22.1101 C   0  0  0  0  0  0  0  0  0  0  0  0
   10.1388  -13.9306   22.6349 O   0  0  0  0  0  0  0  0  0  0  0  0
   10.9962  -17.1224   27.3027 N   0  0  0  0  0  0  0  0  0  0  0  0
   11.5498  -17.9243   26.2395 C   0  0  0  0  0  0  0  0  0  0  0  0
   11.3060  -19.1388   26.2892 O   0  0  0  0  0  0  0  0  0  0  0  0
   12.3641  -17.3311   25.1492 C   0  0  0  0  0  0  0  0  0  0  0  0
   11.4381  -16.8314   24.0871 C   0  0  0  0  0  0  0  0  0  0  0  0
   12.1675  -16.1793   22.9346 C   0  0  2  0  0  0  0  0  0  0  0  0
   11.2551  -15.7774   21.8826 N   0  0  0  0  0  0  0  0  0  0  0  0
   13.2651  -16.9876   22.3942 C   0  0  0  0  0  0  0  0  0  0  0  0
   14.5664  -16.6917   22.7412 O   0  0  0  0  0  0  0  0  0  0  0  0
   13.0555  -17.9473   21.6198 O   0  0  0  0  0  0  0  0  0  0  0  0
  2  1  1  0
  3  2  1  0
  4  3  1  0
  4  5  1  0
  5  7  1  0
  5  6  1  1
  7  8  2  0
  9 13  1  0
  9  7  1  0
 10  9  1  0
 11 10  1  0
 11 12  1  0
 12 13  1  0
 14 15  2  0
 13 14  1  1
 16 17  1  0
 17 18  2  0
 19 17  1  0
 19 20  1  0
 21 20  1  1
 21 22  1  0
 21 23  1  0
 22 14  1  0
 23 25  2  0
 23 24  1  0
M  END
$$$$
