MPQ.pdb
     RDKit          3D

 25 25  0  0  1  0  0  0  0  0999 V2000
    5.7430  -11.8703   26.9864 C   0  0  0  0  0  0  0  0  0  0  0  0
    7.3276  -12.6674   26.7191 S   0  0  0  0  0  0  0  0  0  0  0  0
    7.1736  -14.4446   26.4231 C   0  0  0  0  0  0  0  0  0  0  0  0
    6.3273  -14.7282   25.1999 C   0  0  0  0  0  0  0  0  0  0  0  0
    6.4410  -16.1918   24.7957 C   0  0  2  0  0  0  0  0  0  0  0  0
    6.6796  -16.9673   25.9512 N   0  0  0  0  0  0  0  0  0  0  0  0
    7.3310  -16.3821   23.6498 C   0  0  0  0  0  0  0  0  0  0  0  0
    7.7065  -17.6065   23.5256 O   0  0  0  0  0  0  0  0  0  0  0  0
    7.7808  -15.4007   22.7325 N   0  0  0  0  0  0  0  0  0  0  0  0
    7.5787  -13.9860   22.6287 C   0  0  0  0  0  0  0  0  0  0  0  0
    7.0698  -13.8771   21.2028 C   0  0  0  0  0  0  0  0  0  0  0  0
    7.9927  -14.8614   20.5145 C   0  0  0  0  0  0  0  0  0  0  0  0
    8.6319  -15.7005   21.6009 C   0  0  1  0  0  0  0  0  0  0  0  0
   10.0467  -15.3287   21.8604 C   0  0  0  0  0  0  0  0  0  0  0  0
   10.3270  -14.1747   22.2586 O   0  0  0  0  0  0  0  0  0  0  0  0
    9.8866  -18.1719   26.0712 N   0  0  0  0  0  0  0  0  0  0  0  0
   11.3262  -18.2557   26.0960 C   0  0  0  0  0  0  0  0  0  0  0  0
   11.8227  -18.8150   27.0846 O   0  0  0  0  0  0  0  0  0  0  0  0
   12.1650  -17.7045   25.0022 C   0  0  0  0  0  0  0  0  0  0  0  0
   11.2613  -17.1830   23.9315 C   0  0  0  0  0  0  0  0  0  0  0  0
   12.0175  -16.6539   22.7342 C   0  0  2  0  0  0  0  0  0  0  0  0
   11.1196  -16.2373   21.6755 N   0  0  0  0  0  0  0  0  0  0  0  0
   13.0372  -17.5752   22.2226 C   0  0  0  0  0  0  0  0  0  0  0  0
   14.3492  -17.4322   22.6220 O   0  0  0  0  0  0  0  0  0  0  0  0
   12.7508  -18.4966   21.4264 O   0  0  0  0  0  0  0  0  0  0  0  0
  2  1  1  0
  3  2  1  0
  4  3  1  0
  4  5  1  0
  5  7  1  0
  5  6  1  1
  7  8  2  0
  9 13  1  0
  9  7  1  0
 10  9  1  0
 11 10  1  0
 11 12  1  0
 12 13  1  0
 14 15  2  0
 13 14  1  1
 16 17  1  0
 17 18  2  0
 19 17  1  0
 19 20  1  0
 21 20  1  1
 21 22  1  0
 21 23  1  0
 22 14  1  0
 23 25  2  0
 23 24  1  0
M  END
$$$$
