MPQ.pdb
     RDKit          3D

 25 25  0  0  1  0  0  0  0  0999 V2000
    7.1892  -10.8472   26.2865 C   0  0  0  0  0  0  0  0  0  0  0  0
    6.6763  -12.1017   27.4617 S   0  0  0  0  0  0  0  0  0  0  0  0
    5.9196  -13.5373   26.6640 C   0  0  0  0  0  0  0  0  0  0  0  0
    6.8747  -14.1932   25.6893 C   0  0  0  0  0  0  0  0  0  0  0  0
    6.2583  -15.4545   25.0997 C   0  0  2  0  0  0  0  0  0  0  0  0
    5.9011  -16.3236   26.1536 N   0  0  0  0  0  0  0  0  0  0  0  0
    7.0595  -16.0024   24.0046 C   0  0  0  0  0  0  0  0  0  0  0  0
    7.0637  -17.2891   24.0035 O   0  0  0  0  0  0  0  0  0  0  0  0
    7.7788  -15.2851   23.0172 N   0  0  0  0  0  0  0  0  0  0  0  0
    7.8916  -13.8923   22.7007 C   0  0  0  0  0  0  0  0  0  0  0  0
    7.5315  -13.9076   21.2261 C   0  0  0  0  0  0  0  0  0  0  0  0
    8.2748  -15.1508   20.7831 C   0  0  0  0  0  0  0  0  0  0  0  0
    8.6330  -15.9207   22.0368 C   0  0  1  0  0  0  0  0  0  0  0  0
   10.0695  -15.8022   22.3965 C   0  0  0  0  0  0  0  0  0  0  0  0
   10.5849  -14.6707   22.5482 O   0  0  0  0  0  0  0  0  0  0  0  0
   11.6709  -20.0594   26.2801 N   0  0  0  0  0  0  0  0  0  0  0  0
   10.7745  -18.9345   26.3838 C   0  0  0  0  0  0  0  0  0  0  0  0
    9.9646  -18.9676   27.3218 O   0  0  0  0  0  0  0  0  0  0  0  0
   10.8183  -17.8027   25.4241 C   0  0  0  0  0  0  0  0  0  0  0  0
   11.9777  -18.0096   24.5032 C   0  0  0  0  0  0  0  0  0  0  0  0
   12.0749  -16.9430   23.4363 C   0  0  2  0  0  0  0  0  0  0  0  0
   10.9047  -16.9333   22.5812 N   0  0  0  0  0  0  0  0  0  0  0  0
   13.3041  -17.0116   22.6396 C   0  0  0  0  0  0  0  0  0  0  0  0
   14.5222  -16.7769   23.2416 O   0  0  0  0  0  0  0  0  0  0  0  0
   13.2817  -17.2791   21.4179 O   0  0  0  0  0  0  0  0  0  0  0  0
  2  1  1  0
  3  2  1  0
  4  3  1  0
  4  5  1  0
  5  7  1  0
  5  6  1  1
  7  8  2  0
  9 13  1  0
  9  7  1  0
 10  9  1  0
 11 10  1  0
 11 12  1  0
 12 13  1  0
 14 15  2  0
 13 14  1  1
 16 17  1  0
 17 18  2  0
 19 17  1  0
 19 20  1  0
 21 20  1  1
 21 22  1  0
 21 23  1  0
 22 14  1  0
 23 25  2  0
 23 24  1  0
M  END
$$$$
