MPQ.pdb
     RDKit          3D

 25 25  0  0  1  0  0  0  0  0999 V2000
    2.3536  -18.8856   20.2378 C   0  0  0  0  0  0  0  0  0  0  0  0
    3.5390  -18.2778   21.4391 S   0  0  0  0  0  0  0  0  0  0  0  0
    4.5714  -16.9439   20.7875 C   0  0  0  0  0  0  0  0  0  0  0  0
    5.5706  -16.4659   21.8198 C   0  0  0  0  0  0  0  0  0  0  0  0
    6.4611  -15.3750   21.2407 C   0  0  2  0  0  0  0  0  0  0  0  0
    6.7267  -15.6736   19.8865 N   0  0  0  0  0  0  0  0  0  0  0  0
    7.5992  -15.0705   22.1087 C   0  0  0  0  0  0  0  0  0  0  0  0
    8.7171  -15.1055   21.4726 O   0  0  0  0  0  0  0  0  0  0  0  0
    7.5736  -14.7628   23.4913 N   0  0  0  0  0  0  0  0  0  0  0  0
    6.5314  -14.7402   24.4743 C   0  0  0  0  0  0  0  0  0  0  0  0
    6.6901  -13.3334   25.0219 C   0  0  0  0  0  0  0  0  0  0  0  0
    8.2005  -13.2417   25.0877 C   0  0  0  0  0  0  0  0  0  0  0  0
    8.7482  -14.3711   24.2407 C   0  0  1  0  0  0  0  0  0  0  0  0
    9.2850  -15.4937   25.0524 C   0  0  0  0  0  0  0  0  0  0  0  0
    8.5001  -16.3157   25.5790 O   0  0  0  0  0  0  0  0  0  0  0  0
   10.5057  -13.7070   29.9439 N   0  0  0  0  0  0  0  0  0  0  0  0
   10.8443  -15.1015   30.0875 C   0  0  0  0  0  0  0  0  0  0  0  0
   10.6273  -15.6033   31.2002 O   0  0  0  0  0  0  0  0  0  0  0  0
   11.4191  -15.8906   28.9691 C   0  0  0  0  0  0  0  0  0  0  0  0
   10.8747  -15.3539   27.6843 C   0  0  0  0  0  0  0  0  0  0  0  0
   11.2395  -16.2086   26.4920 C   0  0  2  0  0  0  0  0  0  0  0  0
   10.6740  -15.6845   25.2648 N   0  0  0  0  0  0  0  0  0  0  0  0
   10.9083  -17.6276   26.6562 C   0  0  0  0  0  0  0  0  0  0  0  0
    9.7137  -18.1114   26.1660 O   0  0  0  0  0  0  0  0  0  0  0  0
   11.6839  -18.4214   27.2334 O   0  0  0  0  0  0  0  0  0  0  0  0
  2  1  1  0
  3  2  1  0
  4  3  1  0
  4  5  1  0
  5  7  1  0
  5  6  1  6
  7  8  2  0
  9 13  1  0
  9  7  1  0
 10  9  1  0
 11 10  1  0
 11 12  1  0
 12 13  1  0
 14 15  2  0
 13 14  1  1
 16 17  1  0
 17 18  2  0
 19 17  1  0
 19 20  1  0
 21 20  1  1
 21 22  1  0
 21 23  1  0
 22 14  1  0
 23 25  2  0
 23 24  1  0
M  END
$$$$
