MPQ.pdb
     RDKit          3D

 25 25  0  0  1  0  0  0  0  0999 V2000
    5.4953  -17.6956   25.6002 C   0  0  0  0  0  0  0  0  0  0  0  0
    6.1056  -18.4159   24.0750 S   0  0  0  0  0  0  0  0  0  0  0  0
    6.7664  -17.1783   22.9342 C   0  0  0  0  0  0  0  0  0  0  0  0
    6.0153  -15.8684   23.0469 C   0  0  0  0  0  0  0  0  0  0  0  0
    6.9149  -14.6993   22.6696 C   0  0  2  0  0  0  0  0  0  0  0  0
    7.3859  -14.8921   21.3527 N   0  0  0  0  0  0  0  0  0  0  0  0
    7.8995  -14.4002   23.7101 C   0  0  0  0  0  0  0  0  0  0  0  0
    9.1031  -14.4081   23.2553 O   0  0  0  0  0  0  0  0  0  0  0  0
    7.6547  -14.1230   25.0776 N   0  0  0  0  0  0  0  0  0  0  0  0
    6.4873  -14.2070   25.9041 C   0  0  0  0  0  0  0  0  0  0  0  0
    6.4468  -12.8029   26.4794 C   0  0  0  0  0  0  0  0  0  0  0  0
    7.9197  -12.5864   26.7581 C   0  0  0  0  0  0  0  0  0  0  0  0
    8.6751  -13.6492   25.9881 C   0  0  1  0  0  0  0  0  0  0  0  0
    9.1873  -14.7386   26.8587 C   0  0  0  0  0  0  0  0  0  0  0  0
    8.3916  -15.5696   27.3539 O   0  0  0  0  0  0  0  0  0  0  0  0
   13.7592  -15.1119   23.5954 N   0  0  0  0  0  0  0  0  0  0  0  0
   13.4945  -15.3361   24.9953 C   0  0  0  0  0  0  0  0  0  0  0  0
   14.1938  -14.6935   25.7920 O   0  0  0  0  0  0  0  0  0  0  0  0
   12.4463  -16.2810   25.4561 C   0  0  0  0  0  0  0  0  0  0  0  0
   12.5079  -16.3635   26.9475 C   0  0  0  0  0  0  0  0  0  0  0  0
   11.1654  -16.1307   27.6022 C   0  0  2  0  0  0  0  0  0  0  0  0
   10.5643  -14.8872   27.1631 N   0  0  0  0  0  0  0  0  0  0  0  0
   11.1985  -16.2071   29.0662 C   0  0  0  0  0  0  0  0  0  0  0  0
   10.7478  -15.1415   29.8162 O   0  0  0  0  0  0  0  0  0  0  0  0
   11.6277  -17.2197   29.6622 O   0  0  0  0  0  0  0  0  0  0  0  0
  2  1  1  0
  3  2  1  0
  4  3  1  0
  4  5  1  0
  5  7  1  0
  5  6  1  6
  7  8  2  0
  9 13  1  0
  9  7  1  0
 10  9  1  0
 11 10  1  0
 11 12  1  0
 12 13  1  0
 14 15  2  0
 13 14  1  1
 16 17  1  0
 17 18  2  0
 19 17  1  0
 19 20  1  0
 21 20  1  1
 21 22  1  0
 21 23  1  0
 22 14  1  0
 23 25  2  0
 23 24  1  0
M  END
$$$$
