HDY.pdb
     RDKit          3D

 31 32  0  0  1  0  0  0  0  0999 V2000
   25.2955  -20.2461  -19.7629 N   0  0  0  0  0  0  0  0  0  0  0  0
   25.7528  -19.6101  -18.5414 C   0  0  1  0  0  0  0  0  0  0  0  0
   24.9024  -18.4597  -18.1556 C   0  0  0  0  0  0  0  0  0  0  0  0
   25.0058  -17.3542  -19.1288 C   0  0  0  0  0  0  0  0  0  0  0  0
   25.8110  -17.3255  -20.2623 C   0  0  0  0  0  0  0  0  0  0  0  0
   25.6433  -16.1615  -20.9043 N   0  0  0  0  0  0  0  0  0  0  0  0
   24.7581  -15.4550  -20.2116 C   0  0  0  0  0  0  0  0  0  0  0  0
   24.3684  -16.1762  -19.1322 N   0  0  0  0  0  0  0  0  0  0  0  0
   26.0543  -20.5933  -17.4965 C   0  0  0  0  0  0  0  0  0  0  0  0
   25.1376  -21.4134  -17.1890 O   0  0  0  0  0  0  0  0  0  0  0  0
   27.2702  -20.6998  -16.8070 N   0  0  0  0  0  0  0  0  0  0  0  0
   27.4752  -21.6067  -15.7242 C   0  0  1  0  0  0  0  0  0  0  0  0
   28.7895  -22.3044  -15.6900 C   0  0  0  0  0  0  0  0  0  0  0  0
   29.0793  -22.9745  -16.9740 C   0  0  0  0  0  0  0  0  0  0  0  0
   28.4545  -24.0314  -17.2356 O   0  0  0  0  0  0  0  0  0  0  0  0
   27.2603  -20.8941  -14.4076 C   0  0  0  0  0  0  0  0  0  0  0  0
   28.1295  -20.0732  -13.9888 O   0  0  0  0  0  0  0  0  0  0  0  0
   29.9889  -22.5134  -17.8988 O   0  0  0  0  0  0  0  0  0  0  0  0
   26.3920  -15.4767  -16.3698 O   0  0  0  0  0  0  0  0  0  0  0  0
   25.9707  -16.4400  -15.4525 C   0  0  0  0  0  0  0  0  0  0  0  0
   24.8563  -17.2124  -15.6253 C   0  0  0  0  0  0  0  0  0  0  0  0
   24.4909  -18.1488  -14.6821 C   0  0  0  0  0  0  0  0  0  0  0  0
   25.2118  -18.3613  -13.5275 C   0  0  0  0  0  0  0  0  0  0  0  0
   24.8630  -19.3458  -12.4837 C   0  0  0  0  0  0  0  0  0  0  0  0
   25.8537  -20.4648  -12.3489 C   0  0  2  0  0  0  0  0  0  0  0  0
   26.1030  -21.1196  -13.6202 N   0  0  0  0  0  0  0  0  0  0  0  0
   25.5087  -21.4554  -11.3206 C   0  0  0  0  0  0  0  0  0  0  0  0
   25.3165  -21.1360   -9.9833 O   0  0  0  0  0  0  0  0  0  0  0  0
   26.3473  -17.5635  -13.3670 C   0  0  0  0  0  0  0  0  0  0  0  0
   26.7153  -16.6261  -14.3090 C   0  0  0  0  0  0  0  0  0  0  0  0
   25.3729  -22.6620  -11.6320 O   0  0  0  0  0  0  0  0  0  0  0  0
  2  3  1  0
  2  1  1  6
  3  4  1  0
  4  5  2  0
  5  6  1  0
  7  6  1  0
  8  4  1  0
  8  7  2  0
  9 10  2  0
  9  2  1  0
 11  9  1  0
 12 11  1  0
 13 14  1  0
 12 13  1  1
 14 15  2  0
 16 17  2  0
 16 12  1  0
 18 14  1  0
 20 19  1  0
 21 20  2  0
 22 21  1  0
 23 29  1  0
 23 22  2  0
 24 23  1  0
 25 24  1  6
 25 26  1  0
 26 16  1  0
 27 25  1  0
 28 27  1  0
 29 30  2  0
 30 20  1  0
 31 27  2  0
M  END
$$$$
