HDY.pdb
     RDKit          3D

 31 32  0  0  1  0  0  0  0  0999 V2000
   20.9817  -19.6302  -16.5880 N   0  0  0  0  0  0  0  0  0  0  0  0
   22.0155  -18.9715  -15.8115 C   0  0  1  0  0  0  0  0  0  0  0  0
   21.4727  -18.3094  -14.6021 C   0  0  0  0  0  0  0  0  0  0  0  0
   20.4537  -17.2976  -14.9449 C   0  0  0  0  0  0  0  0  0  0  0  0
   20.6778  -15.9428  -15.1654 C   0  0  0  0  0  0  0  0  0  0  0  0
   19.5184  -15.3357  -15.4529 N   0  0  0  0  0  0  0  0  0  0  0  0
   18.5703  -16.2644  -15.4207 C   0  0  0  0  0  0  0  0  0  0  0  0
   19.1345  -17.4576  -15.1124 N   0  0  0  0  0  0  0  0  0  0  0  0
   23.1888  -19.8314  -15.6281 C   0  0  0  0  0  0  0  0  0  0  0  0
   23.0276  -20.8995  -14.9645 O   0  0  0  0  0  0  0  0  0  0  0  0
   24.4740  -19.5690  -16.1223 N   0  0  0  0  0  0  0  0  0  0  0  0
   25.6062  -20.3840  -15.8208 C   0  0  1  0  0  0  0  0  0  0  0  0
   26.7299  -20.3362  -16.7957 C   0  0  0  0  0  0  0  0  0  0  0  0
   26.3362  -20.9015  -18.1023 C   0  0  0  0  0  0  0  0  0  0  0  0
   25.6043  -21.9215  -18.1010 O   0  0  0  0  0  0  0  0  0  0  0  0
   26.1327  -20.0456  -14.4440 C   0  0  0  0  0  0  0  0  0  0  0  0
   26.5168  -18.8652  -14.1914 O   0  0  0  0  0  0  0  0  0  0  0  0
   26.7206  -20.3811  -19.3174 O   0  0  0  0  0  0  0  0  0  0  0  0
   20.6046  -20.1031  -10.0932 O   0  0  0  0  0  0  0  0  0  0  0  0
   21.9635  -19.9736  -10.3823 C   0  0  0  0  0  0  0  0  0  0  0  0
   22.9557  -20.1998   -9.4698 C   0  0  0  0  0  0  0  0  0  0  0  0
   24.2822  -20.0553   -9.8159 C   0  0  0  0  0  0  0  0  0  0  0  0
   24.6840  -19.6806  -11.0793 C   0  0  0  0  0  0  0  0  0  0  0  0
   26.0883  -19.5064  -11.5013 C   0  0  0  0  0  0  0  0  0  0  0  0
   26.7064  -20.7448  -12.0811 C   0  0  2  0  0  0  0  0  0  0  0  0
   26.2096  -21.0201  -13.4169 N   0  0  0  0  0  0  0  0  0  0  0  0
   26.5808  -21.9364  -11.2315 C   0  0  0  0  0  0  0  0  0  0  0  0
   27.1670  -22.0486   -9.9780 O   0  0  0  0  0  0  0  0  0  0  0  0
   23.6574  -19.4535  -11.9991 C   0  0  0  0  0  0  0  0  0  0  0  0
   22.3296  -19.5975  -11.6556 C   0  0  0  0  0  0  0  0  0  0  0  0
   25.9165  -22.9228  -11.6279 O   0  0  0  0  0  0  0  0  0  0  0  0
  2  3  1  0
  2  1  1  1
  3  4  1  0
  4  5  2  0
  5  6  1  0
  7  6  1  0
  8  4  1  0
  8  7  2  0
  9 10  2  0
  9  2  1  0
 11  9  1  0
 12 11  1  0
 13 14  1  0
 12 13  1  6
 14 15  2  0
 16 17  2  0
 16 12  1  0
 18 14  1  0
 20 19  1  0
 21 20  2  0
 22 21  1  0
 23 29  1  0
 23 22  2  0
 24 23  1  0
 25 24  1  1
 25 26  1  0
 26 16  1  0
 27 25  1  0
 28 27  1  0
 29 30  2  0
 30 20  1  0
 31 27  2  0
M  END
$$$$
