HDY.pdb
     RDKit          3D

 31 32  0  0  1  0  0  0  0  0999 V2000
   19.6507  -11.8241  -19.0008 N   0  0  0  0  0  0  0  0  0  0  0  0
   21.0234  -11.3542  -19.0167 C   0  0  1  0  0  0  0  0  0  0  0  0
   21.8062  -11.9460  -20.1269 C   0  0  0  0  0  0  0  0  0  0  0  0
   21.7447  -13.4210  -20.1121 C   0  0  0  0  0  0  0  0  0  0  0  0
   21.1962  -14.2138  -19.1098 C   0  0  0  0  0  0  0  0  0  0  0  0
   21.3205  -15.5065  -19.4396 N   0  0  0  0  0  0  0  0  0  0  0  0
   21.9301  -15.5542  -20.6180 C   0  0  0  0  0  0  0  0  0  0  0  0
   22.1895  -14.2892  -21.0299 N   0  0  0  0  0  0  0  0  0  0  0  0
   21.1021   -9.8997  -18.8499 C   0  0  0  0  0  0  0  0  0  0  0  0
   22.2586   -9.3822  -18.8047 O   0  0  0  0  0  0  0  0  0  0  0  0
   20.0054   -9.0344  -18.7329 N   0  0  0  0  0  0  0  0  0  0  0  0
   20.1402   -7.6323  -18.5032 C   0  0  1  0  0  0  0  0  0  0  0  0
   19.2000   -6.7502  -19.2471 C   0  0  0  0  0  0  0  0  0  0  0  0
   19.4407   -5.3250  -18.9425 C   0  0  0  0  0  0  0  0  0  0  0  0
   18.6939   -4.7741  -18.0970 O   0  0  0  0  0  0  0  0  0  0  0  0
   20.0258   -7.3392  -17.0238 C   0  0  0  0  0  0  0  0  0  0  0  0
   19.4286   -8.1597  -16.2656 O   0  0  0  0  0  0  0  0  0  0  0  0
   20.4297   -4.5658  -19.5261 O   0  0  0  0  0  0  0  0  0  0  0  0
   20.2866   -6.0274   -8.5951 O   0  0  0  0  0  0  0  0  0  0  0  0
   20.5032   -6.2154   -9.9607 C   0  0  0  0  0  0  0  0  0  0  0  0
   21.5176   -5.6176  -10.6548 C   0  0  0  0  0  0  0  0  0  0  0  0
   21.6803   -5.8430  -12.0050 C   0  0  0  0  0  0  0  0  0  0  0  0
   20.8466   -6.6691  -12.7264 C   0  0  0  0  0  0  0  0  0  0  0  0
   20.9724   -6.9410  -14.1723 C   0  0  0  0  0  0  0  0  0  0  0  0
   20.4739   -5.8271  -15.0455 C   0  0  2  0  0  0  0  0  0  0  0  0
   20.5730   -6.1617  -16.4545 N   0  0  0  0  0  0  0  0  0  0  0  0
   21.1027   -4.5261  -14.7817 C   0  0  0  0  0  0  0  0  0  0  0  0
   21.8209   -3.8154  -15.7337 O   0  0  0  0  0  0  0  0  0  0  0  0
   19.8155   -7.2717  -12.0016 C   0  0  0  0  0  0  0  0  0  0  0  0
   19.6505   -7.0481  -10.6508 C   0  0  0  0  0  0  0  0  0  0  0  0
   21.0056   -4.0005  -13.6478 O   0  0  0  0  0  0  0  0  0  0  0  0
  2  3  1  0
  2  1  1  6
  3  4  1  0
  4  5  2  0
  5  6  1  0
  7  6  1  0
  8  4  1  0
  8  7  2  0
  9 10  2  0
  9  2  1  0
 11  9  1  0
 12 11  1  0
 13 14  1  0
 12 13  1  6
 14 15  2  0
 16 17  2  0
 16 12  1  0
 18 14  1  0
 20 19  1  0
 21 20  2  0
 22 21  1  0
 23 29  1  0
 23 22  2  0
 24 23  1  0
 25 24  1  1
 25 26  1  0
 26 16  1  0
 27 25  1  0
 28 27  1  0
 29 30  2  0
 30 20  1  0
 31 27  2  0
M  END
$$$$
