HDY.pdb
     RDKit          3D

 31 32  0  0  1  0  0  0  0  0999 V2000
   19.0773  -16.2834  -16.8290 N   0  0  0  0  0  0  0  0  0  0  0  0
   19.5262  -16.5980  -15.4855 C   0  0  1  0  0  0  0  0  0  0  0  0
   18.5118  -16.2571  -14.4608 C   0  0  0  0  0  0  0  0  0  0  0  0
   18.1470  -14.8273  -14.5087 C   0  0  0  0  0  0  0  0  0  0  0  0
   17.0209  -14.2831  -15.1167 C   0  0  0  0  0  0  0  0  0  0  0  0
   17.0223  -12.9526  -14.9583 N   0  0  0  0  0  0  0  0  0  0  0  0
   18.1136  -12.6403  -14.2697 C   0  0  0  0  0  0  0  0  0  0  0  0
   18.7995  -13.7765  -13.9947 N   0  0  0  0  0  0  0  0  0  0  0  0
   20.1226  -17.9353  -15.4108 C   0  0  0  0  0  0  0  0  0  0  0  0
   19.4861  -18.8861  -15.9570 O   0  0  0  0  0  0  0  0  0  0  0  0
   21.3357  -18.2505  -14.7830 N   0  0  0  0  0  0  0  0  0  0  0  0
   21.8745  -19.5715  -14.7474 C   0  0  1  0  0  0  0  0  0  0  0  0
   23.3544  -19.6820  -14.8615 C   0  0  0  0  0  0  0  0  0  0  0  0
   23.7849  -21.0913  -14.9628 C   0  0  0  0  0  0  0  0  0  0  0  0
   24.0299  -21.7056  -13.8958 O   0  0  0  0  0  0  0  0  0  0  0  0
   21.4224  -20.2787  -13.4892 C   0  0  0  0  0  0  0  0  0  0  0  0
   21.8895  -19.9227  -12.3667 O   0  0  0  0  0  0  0  0  0  0  0  0
   23.9335  -21.7709  -16.1508 O   0  0  0  0  0  0  0  0  0  0  0  0
   17.5804  -24.3314   -6.8731 O   0  0  0  0  0  0  0  0  0  0  0  0
   18.0439  -23.5914   -7.9615 C   0  0  0  0  0  0  0  0  0  0  0  0
   17.2505  -23.2019   -9.0041 C   0  0  0  0  0  0  0  0  0  0  0  0
   17.7673  -22.4709  -10.0523 C   0  0  0  0  0  0  0  0  0  0  0  0
   19.0910  -22.0941  -10.1142 C   0  0  0  0  0  0  0  0  0  0  0  0
   19.6967  -21.3168  -11.2140 C   0  0  0  0  0  0  0  0  0  0  0  0
   20.1381  -22.1542  -12.3783 C   0  0  2  0  0  0  0  0  0  0  0  0
   20.4816  -21.3386  -13.5289 N   0  0  0  0  0  0  0  0  0  0  0  0
   19.1862  -23.2056  -12.7606 C   0  0  0  0  0  0  0  0  0  0  0  0
   18.5316  -23.2381  -13.9844 O   0  0  0  0  0  0  0  0  0  0  0  0
   19.8874  -22.5004   -9.0409 C   0  0  0  0  0  0  0  0  0  0  0  0
   19.3730  -23.2317   -7.9909 C   0  0  0  0  0  0  0  0  0  0  0  0
   18.9278  -24.1382  -11.9638 O   0  0  0  0  0  0  0  0  0  0  0  0
  2  3  1  0
  2  1  1  6
  3  4  1  0
  4  5  2  0
  5  6  1  0
  7  6  1  0
  8  4  1  0
  8  7  2  0
  9 10  2  0
  9  2  1  0
 11  9  1  0
 12 11  1  0
 13 14  1  0
 12 13  1  1
 14 15  2  0
 16 17  2  0
 16 12  1  0
 18 14  1  0
 20 19  1  0
 21 20  2  0
 22 21  1  0
 23 29  1  0
 23 22  2  0
 24 23  1  0
 25 24  1  1
 25 26  1  0
 26 16  1  0
 27 25  1  0
 28 27  1  0
 29 30  2  0
 30 20  1  0
 31 27  2  0
M  END
$$$$
