SYE.pdb
     RDKit          3D

 28 28  0  0  1  0  0  0  0  0999 V2000
   25.9581  -33.9429   -5.6428 O   0  0  0  0  0  0  0  0  0  0  0  0
   26.9489  -34.6211   -4.9214 C   0  0  0  0  0  0  0  0  0  0  0  0
   28.1217  -34.9333   -5.8372 C   0  0  2  0  0  0  0  0  0  0  0  0
   27.8193  -36.0807   -6.6381 N   0  0  0  0  0  0  0  0  0  0  0  0
   29.3003  -35.1478   -4.9539 C   0  0  0  0  0  0  0  0  0  0  0  0
   29.5169  -36.3083   -4.5193 O   0  0  0  0  0  0  0  0  0  0  0  0
   36.6416  -33.7365   -0.2452 O   0  0  0  0  0  0  0  0  0  0  0  0
   35.5407  -33.5825   -1.0787 C   0  0  0  0  0  0  0  0  0  0  0  0
   35.5149  -34.2557   -2.2811 C   0  0  0  0  0  0  0  0  0  0  0  0
   34.4284  -34.1333   -3.1556 C   0  0  0  0  0  0  0  0  0  0  0  0
   33.3579  -33.3386   -2.8392 C   0  0  0  0  0  0  0  0  0  0  0  0
   32.2004  -33.1814   -3.7399 C   0  0  0  0  0  0  0  0  0  0  0  0
   31.2790  -34.3680   -3.6332 C   0  0  2  0  0  0  0  0  0  0  0  0
   30.1919  -34.1126   -4.5764 N   0  0  0  0  0  0  0  0  0  0  0  0
   30.7430  -34.4668   -2.2776 C   0  0  0  0  0  0  0  0  0  0  0  0
   29.7051  -33.8812   -1.8768 O   0  0  0  0  0  0  0  0  0  0  0  0
   33.3971  -32.6683   -1.6279 C   0  0  0  0  0  0  0  0  0  0  0  0
   34.4662  -32.7861   -0.7628 C   0  0  0  0  0  0  0  0  0  0  0  0
   31.4257  -35.2744   -1.3322 N   0  0  0  0  0  0  0  0  0  0  0  0
   30.9436  -35.3466    0.0310 C   0  0  1  0  0  0  0  0  0  0  0  0
   29.8680  -36.3967    0.0428 C   0  0  0  0  0  0  0  0  0  0  0  0
   29.3943  -36.7725    1.4024 C   0  0  0  0  0  0  0  0  0  0  0  0
   28.1529  -36.0328    1.7230 C   0  0  0  0  0  0  0  0  0  0  0  0
   27.4489  -35.5639    0.8019 O   0  0  0  0  0  0  0  0  0  0  0  0
   32.0925  -35.6394    0.9081 C   0  0  0  0  0  0  0  0  0  0  0  0
   32.2858  -34.9034    1.9032 O   0  0  0  0  0  0  0  0  0  0  0  0
   27.7202  -35.8286    3.0346 O   0  0  0  0  0  0  0  0  0  0  0  0
   32.9926  -36.6779    0.7230 O   0  0  0  0  0  0  0  0  0  0  0  0
  2  1  1  0
  3  4  1  1
  3  2  1  0
  5  3  1  0
  6  5  2  0
  8  7  1  0
  9  8  2  0
 10  9  1  0
 11 17  1  0
 11 10  2  0
 12 11  1  0
 13 12  1  1
 13 15  1  0
 13 14  1  0
 14  5  1  0
 15 16  2  0
 17 18  2  0
 18  8  1  0
 19 20  1  0
 19 15  1  0
 20 25  1  0
 20 21  1  6
 22 21  1  0
 23 24  2  0
 23 22  1  0
 25 26  2  0
 25 28  1  0
 27 23  1  0
M  END
$$$$
