SYE.pdb
     RDKit          3D

 28 28  0  0  1  0  0  0  0  0999 V2000
   27.8582  -19.6783  -19.4357 O   0  0  0  0  0  0  0  0  0  0  0  0
   27.1714  -20.3870  -18.4416 C   0  0  0  0  0  0  0  0  0  0  0  0
   28.1704  -21.0483  -17.5055 C   0  0  2  0  0  0  0  0  0  0  0  0
   28.6828  -22.2416  -18.1080 N   0  0  0  0  0  0  0  0  0  0  0  0
   27.4429  -21.3168  -16.2349 C   0  0  0  0  0  0  0  0  0  0  0  0
   26.8055  -22.3962  -16.1290 O   0  0  0  0  0  0  0  0  0  0  0  0
   24.5995  -20.8069   -7.9134 O   0  0  0  0  0  0  0  0  0  0  0  0
   25.2569  -20.5821   -9.1166 C   0  0  0  0  0  0  0  0  0  0  0  0
   24.7453  -19.6486   -9.9921 C   0  0  0  0  0  0  0  0  0  0  0  0
   25.3709  -19.3860  -11.2167 C   0  0  0  0  0  0  0  0  0  0  0  0
   26.5123  -20.0519  -11.5795 C   0  0  0  0  0  0  0  0  0  0  0  0
   27.1931  -19.8051  -12.8646 C   0  0  0  0  0  0  0  0  0  0  0  0
   26.6568  -20.7195  -13.9344 C   0  0  2  0  0  0  0  0  0  0  0  0
   27.4307  -20.4197  -15.1376 N   0  0  0  0  0  0  0  0  0  0  0  0
   25.2434  -20.4371  -14.1738 C   0  0  0  0  0  0  0  0  0  0  0  0
   24.8136  -19.4513  -14.8250 O   0  0  0  0  0  0  0  0  0  0  0  0
   27.0153  -20.9868  -10.6903 C   0  0  0  0  0  0  0  0  0  0  0  0
   26.4018  -21.2488   -9.4819 C   0  0  0  0  0  0  0  0  0  0  0  0
   24.2720  -21.3242  -13.6432 N   0  0  0  0  0  0  0  0  0  0  0  0
   22.8650  -21.0592  -13.8577 C   0  0  1  0  0  0  0  0  0  0  0  0
   22.2454  -22.3690  -14.2581 C   0  0  0  0  0  0  0  0  0  0  0  0
   20.7747  -22.3091  -14.4765 C   0  0  0  0  0  0  0  0  0  0  0  0
   20.2744  -23.6401  -14.8878 C   0  0  0  0  0  0  0  0  0  0  0  0
   19.2137  -24.0876  -14.3994 O   0  0  0  0  0  0  0  0  0  0  0  0
   22.3147  -20.4767  -12.6196 C   0  0  0  0  0  0  0  0  0  0  0  0
   21.6622  -19.4105  -12.7008 O   0  0  0  0  0  0  0  0  0  0  0  0
   20.9453  -24.4384  -15.8161 O   0  0  0  0  0  0  0  0  0  0  0  0
   22.4598  -21.0176  -11.3509 O   0  0  0  0  0  0  0  0  0  0  0  0
  2  1  1  0
  3  4  1  6
  3  2  1  0
  5  3  1  0
  6  5  2  0
  8  7  1  0
  9  8  2  0
 10  9  1  0
 11 17  1  0
 11 10  2  0
 12 11  1  0
 13 12  1  1
 13 15  1  0
 13 14  1  0
 14  5  1  0
 15 16  2  0
 17 18  2  0
 18  8  1  0
 19 20  1  0
 19 15  1  0
 20 25  1  0
 20 21  1  1
 22 21  1  0
 23 24  2  0
 23 22  1  0
 25 26  2  0
 25 28  1  0
 27 23  1  0
M  END
$$$$
