SYE.pdb
     RDKit          3D

 28 28  0  0  1  0  0  0  0  0999 V2000
   31.3625  -11.1020  -20.2969 O   0  0  0  0  0  0  0  0  0  0  0  0
   31.3579   -9.8156  -19.7425 C   0  0  0  0  0  0  0  0  0  0  0  0
   30.7891   -9.8705  -18.3336 C   0  0  2  0  0  0  0  0  0  0  0  0
   29.4243  -10.3002  -18.3781 N   0  0  0  0  0  0  0  0  0  0  0  0
   30.9394   -8.5031  -17.7652 C   0  0  0  0  0  0  0  0  0  0  0  0
   29.9410   -7.7379  -17.7799 O   0  0  0  0  0  0  0  0  0  0  0  0
   34.2066   -1.7146  -13.1417 O   0  0  0  0  0  0  0  0  0  0  0  0
   34.0273   -2.9441  -13.7635 C   0  0  0  0  0  0  0  0  0  0  0  0
   32.8782   -3.6603  -13.5067 C   0  0  0  0  0  0  0  0  0  0  0  0
   32.6511   -4.9039  -14.1085 C   0  0  0  0  0  0  0  0  0  0  0  0
   33.5679   -5.4446  -14.9715 C   0  0  0  0  0  0  0  0  0  0  0  0
   33.3640   -6.7551  -15.6173 C   0  0  0  0  0  0  0  0  0  0  0  0
   32.2075   -6.6988  -16.5804 C   0  0  2  0  0  0  0  0  0  0  0  0
   32.1489   -8.0176  -17.2080 N   0  0  0  0  0  0  0  0  0  0  0  0
   32.4508   -5.6786  -17.5977 C   0  0  0  0  0  0  0  0  0  0  0  0
   33.1544   -5.8502  -18.6254 O   0  0  0  0  0  0  0  0  0  0  0  0
   34.7178   -4.7141  -15.2204 C   0  0  0  0  0  0  0  0  0  0  0  0
   34.9456   -3.4877  -14.6294 C   0  0  0  0  0  0  0  0  0  0  0  0
   31.8617   -4.3988  -17.4337 N   0  0  0  0  0  0  0  0  0  0  0  0
   32.0502   -3.3863  -18.4512 C   0  0  1  0  0  0  0  0  0  0  0  0
   30.8117   -3.4086  -19.3028 C   0  0  0  0  0  0  0  0  0  0  0  0
   30.7510   -2.3273  -20.3233 C   0  0  0  0  0  0  0  0  0  0  0  0
   29.5734   -2.5285  -21.1975 C   0  0  0  0  0  0  0  0  0  0  0  0
   29.5208   -1.9684  -22.3143 O   0  0  0  0  0  0  0  0  0  0  0  0
   32.3038   -2.1000  -17.7759 C   0  0  0  0  0  0  0  0  0  0  0  0
   31.7629   -1.8928  -16.6652 O   0  0  0  0  0  0  0  0  0  0  0  0
   28.4938   -3.3321  -20.8264 O   0  0  0  0  0  0  0  0  0  0  0  0
   33.1040   -1.0825  -18.2733 O   0  0  0  0  0  0  0  0  0  0  0  0
  2  1  1  0
  3  4  1  6
  3  2  1  0
  5  3  1  0
  6  5  2  0
  8  7  1  0
  9  8  2  0
 10  9  1  0
 11 17  1  0
 11 10  2  0
 12 11  1  0
 13 12  1  1
 13 15  1  0
 13 14  1  0
 14  5  1  0
 15 16  2  0
 17 18  2  0
 18  8  1  0
 19 20  1  0
 19 15  1  0
 20 25  1  0
 20 21  1  1
 22 21  1  0
 23 24  2  0
 23 22  1  0
 25 26  2  0
 25 28  1  0
 27 23  1  0
M  END
$$$$
