SYE.pdb
     RDKit          3D

 28 28  0  0  1  0  0  0  0  0999 V2000
   23.8573  -22.0659  -12.2064 O   0  0  0  0  0  0  0  0  0  0  0  0
   25.1997  -22.3610  -11.9365 C   0  0  0  0  0  0  0  0  0  0  0  0
   25.9158  -21.1006  -11.4780 C   0  0  2  0  0  0  0  0  0  0  0  0
   25.3389  -20.6332  -10.2540 N   0  0  0  0  0  0  0  0  0  0  0  0
   25.7833  -20.1146  -12.5852 C   0  0  0  0  0  0  0  0  0  0  0  0
   24.8611  -19.2617  -12.5173 O   0  0  0  0  0  0  0  0  0  0  0  0
   29.3813  -23.6092  -18.1500 O   0  0  0  0  0  0  0  0  0  0  0  0
   29.0135  -22.4711  -17.4430 C   0  0  0  0  0  0  0  0  0  0  0  0
   28.4517  -21.4139  -18.1258 C   0  0  0  0  0  0  0  0  0  0  0  0
   28.0645  -20.2455  -17.4586 C   0  0  0  0  0  0  0  0  0  0  0  0
   28.2342  -20.1206  -16.1047 C   0  0  0  0  0  0  0  0  0  0  0  0
   27.8442  -18.9015  -15.3714 C   0  0  0  0  0  0  0  0  0  0  0  0
   26.4828  -19.0682  -14.7492 C   0  0  2  0  0  0  0  0  0  0  0  0
   26.6420  -20.0863  -13.7125 N   0  0  0  0  0  0  0  0  0  0  0  0
   25.5260  -19.5305  -15.7520 C   0  0  0  0  0  0  0  0  0  0  0  0
   25.1960  -20.7317  -15.9222 O   0  0  0  0  0  0  0  0  0  0  0  0
   28.7998  -21.1905  -15.4313 C   0  0  0  0  0  0  0  0  0  0  0  0
   29.1828  -22.3442  -16.0851 C   0  0  0  0  0  0  0  0  0  0  0  0
   24.9153  -18.5740  -16.6030 N   0  0  0  0  0  0  0  0  0  0  0  0
   23.6098  -18.8450  -17.1668 C   0  0  1  0  0  0  0  0  0  0  0  0
   22.6718  -19.0014  -16.0025 C   0  0  0  0  0  0  0  0  0  0  0  0
   21.2462  -19.1883  -16.3857 C   0  0  0  0  0  0  0  0  0  0  0  0
   20.4071  -19.2733  -15.1692 C   0  0  0  0  0  0  0  0  0  0  0  0
   19.6610  -18.3196  -14.8563 O   0  0  0  0  0  0  0  0  0  0  0  0
   23.2679  -17.7403  -18.0821 C   0  0  0  0  0  0  0  0  0  0  0  0
   23.7545  -16.6079  -17.8580 O   0  0  0  0  0  0  0  0  0  0  0  0
   20.4086  -20.3928  -14.3351 O   0  0  0  0  0  0  0  0  0  0  0  0
   22.4400  -17.8494  -19.1892 O   0  0  0  0  0  0  0  0  0  0  0  0
  2  1  1  0
  3  4  1  1
  3  2  1  0
  5  3  1  0
  6  5  2  0
  8  7  1  0
  9  8  2  0
 10  9  1  0
 11 17  1  0
 11 10  2  0
 12 11  1  0
 13 12  1  6
 13 15  1  0
 13 14  1  0
 14  5  1  0
 15 16  2  0
 17 18  2  0
 18  8  1  0
 19 20  1  0
 19 15  1  0
 20 25  1  0
 20 21  1  1
 22 21  1  0
 23 24  2  0
 23 22  1  0
 25 26  2  0
 25 28  1  0
 27 23  1  0
M  END
$$$$
