IVH.pdb
     RDKit          3D

 26 26  0  0  1  0  0  0  0  0999 V2000
   19.2019  -36.3767   -9.6810 C   0  0  0  0  0  0  0  0  0  0  0  0
   20.0902  -35.2451  -10.1235 C   0  0  0  0  0  0  0  0  0  0  0  0
   21.4412  -35.3520   -9.5259 C   0  0  2  0  0  0  0  0  0  0  0  0
   21.3130  -35.5694   -8.0339 C   0  0  0  0  0  0  0  0  0  0  0  0
   22.4004  -34.2443   -9.8132 C   0  0  2  0  0  0  0  0  0  0  0  0
   22.6773  -34.3571  -11.2682 N   0  0  0  0  0  0  0  0  0  0  0  0
   23.7139  -34.3896   -9.1057 C   0  0  0  0  0  0  0  0  0  0  0  0
   24.5803  -35.1945   -9.5364 O   0  0  0  0  0  0  0  0  0  0  0  0
   26.4550  -32.2717   -8.8945 C   0  0  0  0  0  0  0  0  0  0  0  0
   26.0361  -32.4886   -7.4868 C   0  0  2  0  0  0  0  0  0  0  0  0
   27.2577  -32.3545   -6.5966 C   0  0  0  0  0  0  0  0  0  0  0  0
   25.3360  -33.8081   -7.2744 C   0  0  2  0  0  0  0  0  0  0  0  0
   24.0343  -33.6447   -7.9481 N   0  0  0  0  0  0  0  0  0  0  0  0
   25.0977  -34.1308   -5.8464 C   0  0  0  0  0  0  0  0  0  0  0  0
   24.3077  -33.3953   -5.1669 O   0  0  0  0  0  0  0  0  0  0  0  0
   25.6697  -35.2018   -5.1345 N   0  0  0  0  0  0  0  0  0  0  0  0
   25.3622  -35.4595   -3.7394 C   0  0  1  0  0  0  0  0  0  0  0  0
   25.9224  -36.7851   -3.2775 C   0  0  0  0  0  0  0  0  0  0  0  0
   24.9189  -37.8506   -3.2451 C   0  0  0  0  0  0  0  0  0  0  0  0
   23.5797  -37.7395   -3.5501 C   0  0  0  0  0  0  0  0  0  0  0  0
   22.9769  -38.9404   -3.4032 N   0  0  0  0  0  0  0  0  0  0  0  0
   23.9444  -39.7814   -3.0101 C   0  0  0  0  0  0  0  0  0  0  0  0
   25.1179  -39.1263   -2.9138 N   0  0  0  0  0  0  0  0  0  0  0  0
   25.8545  -34.3270   -2.9289 C   0  0  0  0  0  0  0  0  0  0  0  0
   25.0373  -33.7848   -1.9481 O   0  0  0  0  0  0  0  0  0  0  0  0
   26.9935  -33.8192   -3.0824 O   0  0  0  0  0  0  0  0  0  0  0  0
  2  1  1  0
  3  5  1  0
  3  2  1  0
  3  4  1  1
  5  6  1  6
  7  5  1  0
  7  8  2  0
 10  9  1  6
 10 12  1  0
 11 10  1  0
 12 13  1  6
 13  7  1  0
 14 12  1  0
 15 14  2  0
 16 14  1  0
 17 16  1  0
 17 24  1  0
 17 18  1  1
 19 18  1  0
 20 19  2  0
 21 22  1  0
 21 20  1  0
 22 23  2  0
 23 19  1  0
 24 25  1  0
 26 24  2  0
M  END
$$$$
