IVH.pdb
     RDKit          3D

 26 26  0  0  1  0  0  0  0  0999 V2000
   19.6479  -27.5180    1.0139 C   0  0  0  0  0  0  0  0  0  0  0  0
   20.2403  -26.8616    2.2319 C   0  0  0  0  0  0  0  0  0  0  0  0
   19.3369  -25.8242    2.7811 C   0  0  2  0  0  0  0  0  0  0  0  0
   19.0487  -24.7939    1.7111 C   0  0  0  0  0  0  0  0  0  0  0  0
   19.7591  -25.1584    4.0492 C   0  0  2  0  0  0  0  0  0  0  0  0
   20.1245  -26.2769    4.9555 N   0  0  0  0  0  0  0  0  0  0  0  0
   18.6583  -24.3936    4.7203 C   0  0  0  0  0  0  0  0  0  0  0  0
   18.1280  -23.4085    4.1438 O   0  0  0  0  0  0  0  0  0  0  0  0
   15.3271  -25.2984    5.4544 C   0  0  0  0  0  0  0  0  0  0  0  0
   15.9525  -24.9621    6.7582 C   0  0  2  0  0  0  0  0  0  0  0  0
   14.8691  -24.4599    7.6947 C   0  0  0  0  0  0  0  0  0  0  0  0
   17.0830  -23.9708    6.6342 C   0  0  2  0  0  0  0  0  0  0  0  0
   18.1741  -24.7366    6.0030 N   0  0  0  0  0  0  0  0  0  0  0  0
   17.5590  -23.4468    7.9376 C   0  0  0  0  0  0  0  0  0  0  0  0
   18.1520  -24.2360    8.7452 O   0  0  0  0  0  0  0  0  0  0  0  0
   17.4230  -22.1228    8.3955 N   0  0  0  0  0  0  0  0  0  0  0  0
   18.0003  -21.6711    9.6485 C   0  0  1  0  0  0  0  0  0  0  0  0
   19.4946  -21.8937    9.6898 C   0  0  0  0  0  0  0  0  0  0  0  0
   20.2368  -20.9547    8.8468 C   0  0  0  0  0  0  0  0  0  0  0  0
   19.7192  -19.9083    8.1147 C   0  0  0  0  0  0  0  0  0  0  0  0
   20.7167  -19.2686    7.4645 N   0  0  0  0  0  0  0  0  0  0  0  0
   21.8390  -19.9219    7.7984 C   0  0  0  0  0  0  0  0  0  0  0  0
   21.5524  -20.9403    8.6328 N   0  0  0  0  0  0  0  0  0  0  0  0
   17.6362  -20.2543    9.8540 C   0  0  0  0  0  0  0  0  0  0  0  0
   18.0919  -19.5904   10.9833 O   0  0  0  0  0  0  0  0  0  0  0  0
   16.9234  -19.6065    9.0472 O   0  0  0  0  0  0  0  0  0  0  0  0
  2  1  1  0
  3  5  1  0
  3  2  1  0
  3  4  1  6
  5  6  1  1
  7  5  1  0
  7  8  2  0
 10  9  1  6
 10 12  1  0
 11 10  1  0
 12 13  1  1
 13  7  1  0
 14 12  1  0
 15 14  2  0
 16 14  1  0
 17 16  1  0
 17 24  1  0
 17 18  1  6
 19 18  1  0
 20 19  2  0
 21 22  1  0
 21 20  1  0
 22 23  2  0
 23 19  1  0
 24 25  1  0
 26 24  2  0
M  END
$$$$
