IVH.pdb
     RDKit          3D

 26 26  0  0  1  0  0  0  0  0999 V2000
   27.9701  -20.2406   -7.6100 C   0  0  0  0  0  0  0  0  0  0  0  0
   27.3818  -21.1639   -8.6428 C   0  0  0  0  0  0  0  0  0  0  0  0
   26.4169  -20.4555   -9.5151 C   0  0  2  0  0  0  0  0  0  0  0  0
   25.2864  -19.9088   -8.6709 C   0  0  0  0  0  0  0  0  0  0  0  0
   25.8787  -21.2103  -10.6858 C   0  0  2  0  0  0  0  0  0  0  0  0
   27.0505  -21.9438  -11.2288 N   0  0  0  0  0  0  0  0  0  0  0  0
   25.3675  -20.3281  -11.7846 C   0  0  0  0  0  0  0  0  0  0  0  0
   24.3497  -19.6111  -11.6002 O   0  0  0  0  0  0  0  0  0  0  0  0
   27.8535  -18.7690  -14.4419 C   0  0  0  0  0  0  0  0  0  0  0  0
   26.6032  -19.2429  -15.0871 C   0  0  2  0  0  0  0  0  0  0  0  0
   26.2567  -18.2921  -16.2180 C   0  0  0  0  0  0  0  0  0  0  0  0
   25.4572  -19.3938  -14.1174 C   0  0  2  0  0  0  0  0  0  0  0  0
   25.9918  -20.2607  -13.0507 N   0  0  0  0  0  0  0  0  0  0  0  0
   24.2617  -20.0440  -14.7074 C   0  0  0  0  0  0  0  0  0  0  0  0
   24.0414  -21.2765  -14.4642 O   0  0  0  0  0  0  0  0  0  0  0  0
   23.3082  -19.4239  -15.5363 N   0  0  0  0  0  0  0  0  0  0  0  0
   21.8871  -19.4515  -15.2412 C   0  0  1  0  0  0  0  0  0  0  0  0
   21.5856  -18.8659  -13.8808 C   0  0  0  0  0  0  0  0  0  0  0  0
   21.1879  -19.8758  -12.8983 C   0  0  0  0  0  0  0  0  0  0  0  0
   21.0883  -21.2355  -13.0988 C   0  0  0  0  0  0  0  0  0  0  0  0
   20.6916  -21.8377  -11.9557 N   0  0  0  0  0  0  0  0  0  0  0  0
   20.5494  -20.8494  -11.0606 C   0  0  0  0  0  0  0  0  0  0  0  0
   20.8484  -19.6639  -11.6269 N   0  0  0  0  0  0  0  0  0  0  0  0
   21.1645  -18.7565  -16.3260 C   0  0  0  0  0  0  0  0  0  0  0  0
   21.5374  -17.4674  -16.6766 O   0  0  0  0  0  0  0  0  0  0  0  0
   20.2136  -19.2790  -16.9597 O   0  0  0  0  0  0  0  0  0  0  0  0
  2  1  1  0
  3  5  1  0
  3  2  1  0
  3  4  1  1
  5  6  1  6
  7  5  1  0
  7  8  2  0
 10  9  1  1
 10 12  1  0
 11 10  1  0
 12 13  1  1
 13  7  1  0
 14 12  1  0
 15 14  2  0
 16 14  1  0
 17 16  1  0
 17 24  1  0
 17 18  1  1
 19 18  1  0
 20 19  2  0
 21 22  1  0
 21 20  1  0
 22 23  2  0
 23 19  1  0
 24 25  1  0
 26 24  2  0
M  END
$$$$
