IVH.pdb
     RDKit          3D

 26 26  0  0  1  0  0  0  0  0999 V2000
   18.4022  -17.5597  -11.6630 C   0  0  0  0  0  0  0  0  0  0  0  0
   19.2343  -18.0562  -12.8147 C   0  0  0  0  0  0  0  0  0  0  0  0
   20.2677  -19.0158  -12.3617 C   0  0  2  0  0  0  0  0  0  0  0  0
   21.0128  -18.4296  -11.1824 C   0  0  0  0  0  0  0  0  0  0  0  0
   21.2268  -19.5168  -13.3907 C   0  0  2  0  0  0  0  0  0  0  0  0
   20.3909  -20.3132  -14.3251 N   0  0  0  0  0  0  0  0  0  0  0  0
   22.2689  -20.4424  -12.8391 C   0  0  0  0  0  0  0  0  0  0  0  0
   21.9332  -21.5431  -12.3292 O   0  0  0  0  0  0  0  0  0  0  0  0
   24.7412  -22.1549  -14.6311 C   0  0  0  0  0  0  0  0  0  0  0  0
   25.4904  -21.4092  -13.5887 C   0  0  2  0  0  0  0  0  0  0  0  0
   26.7259  -22.2099  -13.2205 C   0  0  0  0  0  0  0  0  0  0  0  0
   24.6544  -21.0881  -12.3745 C   0  0  2  0  0  0  0  0  0  0  0  0
   23.6470  -20.1299  -12.8666 N   0  0  0  0  0  0  0  0  0  0  0  0
   25.4220  -20.4525  -11.2760 C   0  0  0  0  0  0  0  0  0  0  0  0
   24.9369  -19.4281  -10.6912 O   0  0  0  0  0  0  0  0  0  0  0  0
   26.6739  -20.8746  -10.7907 N   0  0  0  0  0  0  0  0  0  0  0  0
   27.3101  -20.2564   -9.6416 C   0  0  1  0  0  0  0  0  0  0  0  0
   26.4208  -20.2948   -8.4202 C   0  0  0  0  0  0  0  0  0  0  0  0
   27.1052  -19.8639   -7.1999 C   0  0  0  0  0  0  0  0  0  0  0  0
   28.2586  -19.1146   -7.1152 C   0  0  0  0  0  0  0  0  0  0  0  0
   28.5821  -18.9196   -5.8174 N   0  0  0  0  0  0  0  0  0  0  0  0
   27.6298  -19.5475   -5.1124 C   0  0  0  0  0  0  0  0  0  0  0  0
   26.7369  -20.1185   -5.9445 N   0  0  0  0  0  0  0  0  0  0  0  0
   28.6125  -20.9141   -9.4107 C   0  0  0  0  0  0  0  0  0  0  0  0
   29.6060  -20.2353   -8.7208 O   0  0  0  0  0  0  0  0  0  0  0  0
   28.8739  -22.0756   -9.8124 O   0  0  0  0  0  0  0  0  0  0  0  0
  2  1  1  0
  3  5  1  0
  3  2  1  0
  3  4  1  1
  5  6  1  6
  7  5  1  0
  7  8  2  0
 10  9  1  6
 10 12  1  0
 11 10  1  0
 12 13  1  6
 13  7  1  0
 14 12  1  0
 15 14  2  0
 16 14  1  0
 17 16  1  0
 17 24  1  0
 17 18  1  1
 19 18  1  0
 20 19  2  0
 21 22  1  0
 21 20  1  0
 22 23  2  0
 23 19  1  0
 24 25  1  0
 26 24  2  0
M  END
$$$$
