IVH.pdb
     RDKit          3D

 26 26  0  0  1  0  0  0  0  0999 V2000
   19.3866  -30.9031   -3.8603 C   0  0  0  0  0  0  0  0  0  0  0  0
   18.7583  -29.6512   -3.3098 C   0  0  0  0  0  0  0  0  0  0  0  0
   19.4131  -29.2252   -2.0514 C   0  0  2  0  0  0  0  0  0  0  0  0
   19.4157  -30.3793   -1.0727 C   0  0  0  0  0  0  0  0  0  0  0  0
   18.8914  -27.9871   -1.3997 C   0  0  2  0  0  0  0  0  0  0  0  0
   19.1447  -26.9085   -2.3889 N   0  0  0  0  0  0  0  0  0  0  0  0
   19.6258  -27.6133   -0.1475 C   0  0  0  0  0  0  0  0  0  0  0  0
   20.7227  -26.9999   -0.2152 O   0  0  0  0  0  0  0  0  0  0  0  0
   18.6898  -25.3114    2.4273 C   0  0  0  0  0  0  0  0  0  0  0  0
   18.8929  -26.6238    3.0910 C   0  0  2  0  0  0  0  0  0  0  0  0
   19.3393  -26.3748    4.5199 C   0  0  0  0  0  0  0  0  0  0  0  0
   19.8608  -27.5162    2.3541 C   0  0  2  0  0  0  0  0  0  0  0  0
   19.1308  -27.9239    1.1392 N   0  0  0  0  0  0  0  0  0  0  0  0
   20.2429  -28.7322    3.1127 C   0  0  0  0  0  0  0  0  0  0  0  0
   19.3506  -29.6034    3.3801 O   0  0  0  0  0  0  0  0  0  0  0  0
   21.5323  -29.0402    3.5855 N   0  0  0  0  0  0  0  0  0  0  0  0
   21.8462  -30.3102    4.2144 C   0  0  1  0  0  0  0  0  0  0  0  0
   23.3183  -30.6376    4.1128 C   0  0  0  0  0  0  0  0  0  0  0  0
   23.7476  -30.9243    2.7429 C   0  0  0  0  0  0  0  0  0  0  0  0
   22.9415  -31.0928    1.6381 C   0  0  0  0  0  0  0  0  0  0  0  0
   23.7039  -31.3436    0.5505 N   0  0  0  0  0  0  0  0  0  0  0  0
   24.9708  -31.3283    0.9897 C   0  0  0  0  0  0  0  0  0  0  0  0
   25.0002  -31.0754    2.3128 N   0  0  0  0  0  0  0  0  0  0  0  0
   21.3724  -30.2760    5.6131 C   0  0  0  0  0  0  0  0  0  0  0  0
   20.9738  -31.4542    6.2267 O   0  0  0  0  0  0  0  0  0  0  0  0
   21.3097  -29.2187    6.2891 O   0  0  0  0  0  0  0  0  0  0  0  0
  2  1  1  0
  3  5  1  0
  3  2  1  0
  3  4  1  1
  5  6  1  6
  7  5  1  0
  7  8  2  0
 10  9  1  6
 10 12  1  0
 11 10  1  0
 12 13  1  6
 13  7  1  0
 14 12  1  0
 15 14  2  0
 16 14  1  0
 17 16  1  0
 17 24  1  0
 17 18  1  1
 19 18  1  0
 20 19  2  0
 21 22  1  0
 21 20  1  0
 22 23  2  0
 23 19  1  0
 24 25  1  0
 26 24  2  0
M  END
$$$$
