IVH.pdb
     RDKit          3D

 26 26  0  0  1  0  0  0  0  0999 V2000
   18.4233  -25.6602  -10.6659 C   0  0  0  0  0  0  0  0  0  0  0  0
   18.5187  -24.8217   -9.4196 C   0  0  0  0  0  0  0  0  0  0  0  0
   17.8721  -25.4902   -8.2669 C   0  0  2  0  0  0  0  0  0  0  0  0
   16.4561  -25.8723   -8.6392 C   0  0  0  0  0  0  0  0  0  0  0  0
   17.8928  -24.7646   -6.9620 C   0  0  2  0  0  0  0  0  0  0  0  0
   19.3352  -24.6058   -6.6450 N   0  0  0  0  0  0  0  0  0  0  0  0
   17.2802  -25.5398   -5.8347 C   0  0  0  0  0  0  0  0  0  0  0  0
   16.0575  -25.8369   -5.8606 O   0  0  0  0  0  0  0  0  0  0  0  0
   19.0526  -28.5186   -3.7826 C   0  0  0  0  0  0  0  0  0  0  0  0
   18.5105  -27.4296   -2.9316 C   0  0  2  0  0  0  0  0  0  0  0  0
   18.0785  -28.0272   -1.6052 C   0  0  0  0  0  0  0  0  0  0  0  0
   17.3870  -26.6676   -3.5898 C   0  0  2  0  0  0  0  0  0  0  0  0
   18.0310  -25.9654   -4.7155 N   0  0  0  0  0  0  0  0  0  0  0  0
   16.7500  -25.6643   -2.7023 C   0  0  0  0  0  0  0  0  0  0  0  0
   16.9522  -24.4241   -2.9212 O   0  0  0  0  0  0  0  0  0  0  0  0
   15.9144  -25.9438   -1.6048 N   0  0  0  0  0  0  0  0  0  0  0  0
   15.1005  -24.9239   -0.9686 C   0  0  1  0  0  0  0  0  0  0  0  0
   14.2816  -24.1507   -1.9765 C   0  0  0  0  0  0  0  0  0  0  0  0
   13.3484  -23.2095   -1.3547 C   0  0  0  0  0  0  0  0  0  0  0  0
   13.2381  -22.9135   -0.0135 C   0  0  0  0  0  0  0  0  0  0  0  0
   12.2623  -21.9970    0.1730 N   0  0  0  0  0  0  0  0  0  0  0  0
   11.7787  -21.7345   -1.0499 C   0  0  0  0  0  0  0  0  0  0  0  0
   12.4325  -22.4651   -1.9741 N   0  0  0  0  0  0  0  0  0  0  0  0
   14.2623  -25.5640    0.0657 C   0  0  0  0  0  0  0  0  0  0  0  0
   13.8081  -24.8100    1.1376 O   0  0  0  0  0  0  0  0  0  0  0  0
   13.9326  -26.7758    0.0265 O   0  0  0  0  0  0  0  0  0  0  0  0
  2  1  1  0
  3  5  1  0
  3  2  1  0
  3  4  1  6
  5  6  1  1
  7  5  1  0
  7  8  2  0
 10  9  1  6
 10 12  1  0
 11 10  1  0
 12 13  1  6
 13  7  1  0
 14 12  1  0
 15 14  2  0
 16 14  1  0
 17 16  1  0
 17 24  1  0
 17 18  1  6
 19 18  1  0
 20 19  2  0
 21 22  1  0
 21 20  1  0
 22 23  2  0
 23 19  1  0
 24 25  1  0
 26 24  2  0
M  END
$$$$
