IVH.pdb
     RDKit          3D

 26 26  0  0  1  0  0  0  0  0999 V2000
   27.1819  -22.6382  -10.1921 C   0  0  0  0  0  0  0  0  0  0  0  0
   26.0069  -21.6983  -10.2297 C   0  0  0  0  0  0  0  0  0  0  0  0
   25.6364  -21.3504  -11.6209 C   0  0  2  0  0  0  0  0  0  0  0  0
   26.8718  -20.9022  -12.3709 C   0  0  0  0  0  0  0  0  0  0  0  0
   24.5277  -20.3668  -11.8026 C   0  0  2  0  0  0  0  0  0  0  0  0
   23.3685  -20.9760  -11.1018 N   0  0  0  0  0  0  0  0  0  0  0  0
   24.1231  -20.1767  -13.2334 C   0  0  0  0  0  0  0  0  0  0  0  0
   24.9315  -19.6796  -14.0601 O   0  0  0  0  0  0  0  0  0  0  0  0
   21.5556  -22.6473  -15.1869 C   0  0  0  0  0  0  0  0  0  0  0  0
   21.2563  -21.1997  -15.3239 C   0  0  2  0  0  0  0  0  0  0  0  0
   20.6208  -20.9676  -16.6823 C   0  0  0  0  0  0  0  0  0  0  0  0
   22.4672  -20.3231  -15.1201 C   0  0  2  0  0  0  0  0  0  0  0  0
   22.8434  -20.5402  -13.7107 N   0  0  0  0  0  0  0  0  0  0  0  0
   22.1964  -18.8792  -15.3253 C   0  0  0  0  0  0  0  0  0  0  0  0
   21.3707  -18.2865  -14.5547 O   0  0  0  0  0  0  0  0  0  0  0  0
   22.7750  -18.0622  -16.3145 N   0  0  0  0  0  0  0  0  0  0  0  0
   22.6121  -16.6198  -16.3238 C   0  0  1  0  0  0  0  0  0  0  0  0
   23.8846  -15.9093  -15.9233 C   0  0  0  0  0  0  0  0  0  0  0  0
   23.7906  -14.4536  -16.0472 C   0  0  0  0  0  0  0  0  0  0  0  0
   23.5944  -13.5447  -15.0302 C   0  0  0  0  0  0  0  0  0  0  0  0
   23.5638  -12.2920  -15.5371 N   0  0  0  0  0  0  0  0  0  0  0  0
   23.7407  -12.4356  -16.8585 C   0  0  0  0  0  0  0  0  0  0  0  0
   23.8779  -13.7395  -17.1693 N   0  0  0  0  0  0  0  0  0  0  0  0
   22.1322  -16.2060  -17.6581 C   0  0  0  0  0  0  0  0  0  0  0  0
   22.5314  -16.9206  -18.7778 O   0  0  0  0  0  0  0  0  0  0  0  0
   21.3684  -15.2244  -17.8370 O   0  0  0  0  0  0  0  0  0  0  0  0
  2  1  1  0
  3  5  1  0
  3  2  1  0
  3  4  1  1
  5  6  1  1
  7  5  1  0
  7  8  2  0
 10  9  1  6
 10 12  1  0
 11 10  1  0
 12 13  1  1
 13  7  1  0
 14 12  1  0
 15 14  2  0
 16 14  1  0
 17 16  1  0
 17 24  1  0
 17 18  1  6
 19 18  1  0
 20 19  2  0
 21 22  1  0
 21 20  1  0
 22 23  2  0
 23 19  1  0
 24 25  1  0
 26 24  2  0
M  END
$$$$
