IVH.pdb
     RDKit          3D

 26 26  0  0  1  0  0  0  0  0999 V2000
   26.1829  -20.5640  -15.0940 C   0  0  0  0  0  0  0  0  0  0  0  0
   26.2101  -22.0421  -14.8113 C   0  0  0  0  0  0  0  0  0  0  0  0
   24.9367  -22.6910  -15.2000 C   0  0  2  0  0  0  0  0  0  0  0  0
   23.7797  -21.9262  -14.5948 C   0  0  0  0  0  0  0  0  0  0  0  0
   24.8045  -24.1512  -14.9168 C   0  0  2  0  0  0  0  0  0  0  0  0
   25.9777  -24.7697  -15.5855 N   0  0  0  0  0  0  0  0  0  0  0  0
   23.5803  -24.7708  -15.5205 C   0  0  0  0  0  0  0  0  0  0  0  0
   23.2336  -24.4762  -16.6939 O   0  0  0  0  0  0  0  0  0  0  0  0
   22.9824  -28.1937  -16.2292 C   0  0  0  0  0  0  0  0  0  0  0  0
   21.8282  -27.7748  -15.3945 C   0  0  2  0  0  0  0  0  0  0  0  0
   20.6071  -28.5607  -15.8353 C   0  0  0  0  0  0  0  0  0  0  0  0
   21.5766  -26.2878  -15.4360 C   0  0  2  0  0  0  0  0  0  0  0  0
   22.7768  -25.6959  -14.8161 N   0  0  0  0  0  0  0  0  0  0  0  0
   20.3825  -25.8658  -14.6639 C   0  0  0  0  0  0  0  0  0  0  0  0
   19.2217  -26.1307  -15.1212 O   0  0  0  0  0  0  0  0  0  0  0  0
   20.3929  -25.1803  -13.4347 N   0  0  0  0  0  0  0  0  0  0  0  0
   19.1724  -24.7921  -12.7514 C   0  0  1  0  0  0  0  0  0  0  0  0
   19.2017  -25.1757  -11.2898 C   0  0  0  0  0  0  0  0  0  0  0  0
   19.3340  -26.6184  -11.0792 C   0  0  0  0  0  0  0  0  0  0  0  0
   20.4737  -27.3038  -10.7183 C   0  0  0  0  0  0  0  0  0  0  0  0
   20.2009  -28.6241  -10.6211 N   0  0  0  0  0  0  0  0  0  0  0  0
   18.8996  -28.7443  -10.9215 C   0  0  0  0  0  0  0  0  0  0  0  0
   18.3737  -27.5351  -11.1985 N   0  0  0  0  0  0  0  0  0  0  0  0
   18.9592  -23.3438  -12.9492 C   0  0  0  0  0  0  0  0  0  0  0  0
   17.8112  -22.7491  -12.4471 O   0  0  0  0  0  0  0  0  0  0  0  0
   19.7758  -22.6084  -13.5584 O   0  0  0  0  0  0  0  0  0  0  0  0
  2  1  1  0
  3  5  1  0
  3  2  1  0
  3  4  1  1
  5  6  1  6
  7  5  1  0
  7  8  2  0
 10  9  1  6
 10 12  1  0
 11 10  1  0
 12 13  1  1
 13  7  1  0
 14 12  1  0
 15 14  2  0
 16 14  1  0
 17 16  1  0
 17 24  1  0
 17 18  1  1
 19 18  1  0
 20 19  2  0
 21 22  1  0
 21 20  1  0
 22 23  2  0
 23 19  1  0
 24 25  1  0
 26 24  2  0
M  END
$$$$
