IVH.pdb
     RDKit          3D

 26 26  0  0  1  0  0  0  0  0999 V2000
   19.0107  -28.4278  -10.8684 C   0  0  0  0  0  0  0  0  0  0  0  0
   18.4899  -27.0321  -10.6540 C   0  0  0  0  0  0  0  0  0  0  0  0
   18.4841  -26.6713   -9.2175 C   0  0  2  0  0  0  0  0  0  0  0  0
   17.7506  -27.7393   -8.4358 C   0  0  0  0  0  0  0  0  0  0  0  0
   17.9711  -25.3153   -8.8600 C   0  0  2  0  0  0  0  0  0  0  0  0
   18.9800  -24.3758   -9.4129 N   0  0  0  0  0  0  0  0  0  0  0  0
   17.9071  -25.0684   -7.3828 C   0  0  0  0  0  0  0  0  0  0  0  0
   18.9265  -24.6689   -6.7621 O   0  0  0  0  0  0  0  0  0  0  0  0
   15.2027  -22.9363   -5.8309 C   0  0  0  0  0  0  0  0  0  0  0  0
   15.3004  -24.2132   -5.0798 C   0  0  2  0  0  0  0  0  0  0  0  0
   14.9529  -23.9434   -3.6275 C   0  0  0  0  0  0  0  0  0  0  0  0
   16.6483  -24.8774   -5.2144 C   0  0  2  0  0  0  0  0  0  0  0  0
   16.7245  -25.2669   -6.6348 N   0  0  0  0  0  0  0  0  0  0  0  0
   16.7979  -26.0925   -4.3770 C   0  0  0  0  0  0  0  0  0  0  0  0
   16.0257  -27.0867   -4.5816 O   0  0  0  0  0  0  0  0  0  0  0  0
   17.7361  -26.2736   -3.3436 N   0  0  0  0  0  0  0  0  0  0  0  0
   17.8206  -27.5041   -2.5781 C   0  0  1  0  0  0  0  0  0  0  0  0
   19.1851  -27.6831   -1.9534 C   0  0  0  0  0  0  0  0  0  0  0  0
   19.3050  -28.9241   -1.1859 C   0  0  0  0  0  0  0  0  0  0  0  0
   19.3274  -30.2090   -1.6832 C   0  0  0  0  0  0  0  0  0  0  0  0
   19.4496  -31.0903   -0.6656 N   0  0  0  0  0  0  0  0  0  0  0  0
   19.5017  -30.3461    0.4487 C   0  0  0  0  0  0  0  0  0  0  0  0
   19.4146  -29.0380    0.1376 N   0  0  0  0  0  0  0  0  0  0  0  0
   16.7365  -27.5131   -1.5748 C   0  0  0  0  0  0  0  0  0  0  0  0
   16.1571  -28.7188   -1.2082 O   0  0  0  0  0  0  0  0  0  0  0  0
   16.3029  -26.4694   -1.0258 O   0  0  0  0  0  0  0  0  0  0  0  0
  2  1  1  0
  3  5  1  0
  3  2  1  0
  3  4  1  1
  5  6  1  6
  7  5  1  0
  7  8  2  0
 10  9  1  6
 10 12  1  0
 11 10  1  0
 12 13  1  6
 13  7  1  0
 14 12  1  0
 15 14  2  0
 16 14  1  0
 17 16  1  0
 17 24  1  0
 17 18  1  1
 19 18  1  0
 20 19  2  0
 21 22  1  0
 21 20  1  0
 22 23  2  0
 23 19  1  0
 24 25  1  0
 26 24  2  0
M  END
$$$$
