FVL.pdb
     RDKit          3D

 27 27  0  0  1  0  0  0  0  0999 V2000
   23.9266  -19.9702  -16.4113 N   0  0  0  0  0  0  0  0  0  0  0  0
   24.1271  -19.4553  -15.0833 C   0  0  1  0  0  0  0  0  0  0  0  0
   22.8105  -19.5935  -14.3443 C   0  0  0  0  0  0  0  0  0  0  0  0
   21.7496  -18.7741  -14.9687 C   0  0  0  0  0  0  0  0  0  0  0  0
   21.7832  -17.4047  -14.9286 C   0  0  0  0  0  0  0  0  0  0  0  0
   20.7853  -16.6425  -15.5153 C   0  0  0  0  0  0  0  0  0  0  0  0
   19.7188  -17.2216  -16.1627 C   0  0  0  0  0  0  0  0  0  0  0  0
   19.6882  -18.6012  -16.2011 C   0  0  0  0  0  0  0  0  0  0  0  0
   20.6673  -19.3656  -15.6257 C   0  0  0  0  0  0  0  0  0  0  0  0
   25.1733  -20.2720  -14.4173 C   0  0  0  0  0  0  0  0  0  0  0  0
   25.1887  -21.5331  -14.6174 O   0  0  0  0  0  0  0  0  0  0  0  0
   29.5026  -20.5631  -12.2050 C   0  0  0  0  0  0  0  0  0  0  0  0
   28.4416  -19.8330  -12.9718 C   0  0  1  0  0  0  0  0  0  0  0  0
   28.8616  -19.4528  -14.3490 C   0  0  0  0  0  0  0  0  0  0  0  0
   27.1381  -20.6357  -12.9330 C   0  0  2  0  0  0  0  0  0  0  0  0
   26.1570  -19.7425  -13.5730 N   0  0  0  0  0  0  0  0  0  0  0  0
   26.7216  -20.9041  -11.5423 C   0  0  0  0  0  0  0  0  0  0  0  0
   27.6147  -21.1748  -10.6746 O   0  0  0  0  0  0  0  0  0  0  0  0
   27.7039  -19.2009   -7.4496 C   0  0  0  0  0  0  0  0  0  0  0  0
   27.1047  -20.2391   -8.3600 C   0  0  1  0  0  0  0  0  0  0  0  0
   27.3301  -21.6300   -7.7838 C   0  0  0  0  0  0  0  0  0  0  0  0
   25.7473  -20.0027   -8.8507 C   0  0  0  0  0  0  0  0  0  0  0  0
   25.0224  -20.9839   -9.6644 C   0  0  2  0  0  0  0  0  0  0  0  0
   25.3937  -20.8902  -11.0603 N   0  0  0  0  0  0  0  0  0  0  0  0
   23.5669  -20.9519   -9.5885 C   0  0  0  0  0  0  0  0  0  0  0  0
   22.8766  -20.6306  -10.5843 O   0  0  0  0  0  0  0  0  0  0  0  0
   22.8638  -21.2664   -8.4400 O   0  0  0  0  0  0  0  0  0  0  0  0
  2  1  1  6
  3  2  1  0
  4  3  1  0
  5  4  2  0
  6  5  1  0
  7  6  2  0
  7  8  1  0
  8  9  2  0
  9  4  1  0
 10 11  2  0
 10  2  1  0
 13 12  1  6
 14 13  1  0
 15 13  1  0
 15 16  1  1
 16 10  1  0
 17 15  1  0
 18 17  2  0
 20 19  1  1
 20 21  1  0
 23 22  1  1
 22 20  1  0
 23 24  1  0
 24 17  1  0
 25 23  1  0
 25 27  1  0
 26 25  2  0
M  END
$$$$
