FVL.pdb
     RDKit          3D

 27 27  0  0  1  0  0  0  0  0999 V2000
   26.5427   -3.1785    7.4178 N   0  0  0  0  0  0  0  0  0  0  0  0
   25.5121   -3.9274    8.0856 C   0  0  1  0  0  0  0  0  0  0  0  0
   24.1838   -3.3068    7.6992 C   0  0  0  0  0  0  0  0  0  0  0  0
   23.8755   -2.1239    8.5314 C   0  0  0  0  0  0  0  0  0  0  0  0
   23.7434   -0.8750    7.9828 C   0  0  0  0  0  0  0  0  0  0  0  0
   23.4548    0.2296    8.7685 C   0  0  0  0  0  0  0  0  0  0  0  0
   23.2880    0.1255   10.1299 C   0  0  0  0  0  0  0  0  0  0  0  0
   23.4217   -1.1339   10.6790 C   0  0  0  0  0  0  0  0  0  0  0  0
   23.7066   -2.2332    9.9142 C   0  0  0  0  0  0  0  0  0  0  0  0
   25.5741   -5.3337    7.6128 C   0  0  0  0  0  0  0  0  0  0  0  0
   26.0658   -5.5732    6.4590 O   0  0  0  0  0  0  0  0  0  0  0  0
   26.7525   -7.9237    9.9050 C   0  0  0  0  0  0  0  0  0  0  0  0
   26.7299   -8.1609    8.4251 C   0  0  1  0  0  0  0  0  0  0  0  0
   27.1853   -9.5245    8.0368 C   0  0  0  0  0  0  0  0  0  0  0  0
   25.3494   -7.7994    7.8699 C   0  0  2  0  0  0  0  0  0  0  0  0
   25.1224   -6.4287    8.3597 N   0  0  0  0  0  0  0  0  0  0  0  0
   24.3079   -8.6927    8.4145 C   0  0  0  0  0  0  0  0  0  0  0  0
   23.9177   -8.5213    9.6154 O   0  0  0  0  0  0  0  0  0  0  0  0
   20.0766  -11.4933    5.4705 C   0  0  0  0  0  0  0  0  0  0  0  0
   20.7541  -10.6901    6.5482 C   0  0  1  0  0  0  0  0  0  0  0  0
   19.7143  -10.1041    7.4930 C   0  0  0  0  0  0  0  0  0  0  0  0
   21.9041  -11.2963    7.2186 C   0  0  0  0  0  0  0  0  0  0  0  0
   22.6536  -10.6068    8.2736 C   0  0  2  0  0  0  0  0  0  0  0  0
   23.6798   -9.7498    7.7188 N   0  0  0  0  0  0  0  0  0  0  0  0
   23.2767  -11.4452    9.2905 C   0  0  0  0  0  0  0  0  0  0  0  0
   24.4210  -11.9262    9.1166 O   0  0  0  0  0  0  0  0  0  0  0  0
   22.6629  -11.7602   10.4891 O   0  0  0  0  0  0  0  0  0  0  0  0
  2  1  1  6
  3  2  1  0
  4  3  1  0
  5  4  2  0
  6  5  1  0
  7  6  2  0
  7  8  1  0
  8  9  2  0
  9  4  1  0
 10 11  2  0
 10  2  1  0
 13 12  1  1
 14 13  1  0
 15 13  1  0
 15 16  1  1
 16 10  1  0
 17 15  1  0
 18 17  2  0
 20 19  1  1
 20 21  1  0
 23 22  1  6
 22 20  1  0
 23 24  1  0
 24 17  1  0
 25 23  1  0
 25 27  1  0
 26 25  2  0
M  END
$$$$
