FVL.pdb
     RDKit          3D

 27 27  0  0  1  0  0  0  0  0999 V2000
   25.9952  -32.9906  -10.2201 N   0  0  0  0  0  0  0  0  0  0  0  0
   25.9233  -34.0337   -9.2323 C   0  0  1  0  0  0  0  0  0  0  0  0
   26.6489  -35.2388   -9.7980 C   0  0  0  0  0  0  0  0  0  0  0  0
   25.8088  -35.9702  -10.7707 C   0  0  0  0  0  0  0  0  0  0  0  0
   24.7615  -36.7563  -10.3665 C   0  0  0  0  0  0  0  0  0  0  0  0
   23.9784  -37.4396  -11.2834 C   0  0  0  0  0  0  0  0  0  0  0  0
   24.2139  -37.3616  -12.6363 C   0  0  0  0  0  0  0  0  0  0  0  0
   25.2696  -36.5689  -13.0399 C   0  0  0  0  0  0  0  0  0  0  0  0
   26.0508  -35.8888  -12.1446 C   0  0  0  0  0  0  0  0  0  0  0  0
   26.6051  -33.5604   -8.0009 C   0  0  0  0  0  0  0  0  0  0  0  0
   27.4405  -32.5991   -8.0917 O   0  0  0  0  0  0  0  0  0  0  0  0
   26.4879  -32.9141   -3.2224 C   0  0  0  0  0  0  0  0  0  0  0  0
   25.9208  -33.3490   -4.5400 C   0  0  1  0  0  0  0  0  0  0  0  0
   24.8204  -32.4731   -5.0293 C   0  0  0  0  0  0  0  0  0  0  0  0
   27.0557  -33.5236   -5.5531 C   0  0  2  0  0  0  0  0  0  0  0  0
   26.3885  -34.1069   -6.7299 N   0  0  0  0  0  0  0  0  0  0  0  0
   28.0748  -34.4662   -5.0508 C   0  0  0  0  0  0  0  0  0  0  0  0
   27.7515  -35.6867   -4.8787 O   0  0  0  0  0  0  0  0  0  0  0  0
   33.5106  -36.3290   -5.2005 C   0  0  0  0  0  0  0  0  0  0  0  0
   32.9492  -35.3939   -4.1631 C   0  0  1  0  0  0  0  0  0  0  0  0
   34.0700  -34.5737   -3.5398 C   0  0  0  0  0  0  0  0  0  0  0  0
   31.7642  -34.6173   -4.5263 C   0  0  0  0  0  0  0  0  0  0  0  0
   30.4015  -35.0932   -4.2675 C   0  0  2  0  0  0  0  0  0  0  0  0
   29.4130  -34.1436   -4.7326 N   0  0  0  0  0  0  0  0  0  0  0  0
   30.0764  -35.4331   -2.8876 C   0  0  0  0  0  0  0  0  0  0  0  0
   30.1752  -36.6122   -2.4739 O   0  0  0  0  0  0  0  0  0  0  0  0
   29.6468  -34.5002   -1.9616 O   0  0  0  0  0  0  0  0  0  0  0  0
  2  1  1  6
  3  2  1  0
  4  3  1  0
  5  4  2  0
  6  5  1  0
  7  6  2  0
  7  8  1  0
  8  9  2  0
  9  4  1  0
 10 11  2  0
 10  2  1  0
 13 12  1  1
 14 13  1  0
 15 13  1  0
 15 16  1  6
 16 10  1  0
 17 15  1  0
 18 17  2  0
 20 19  1  6
 20 21  1  0
 23 22  1  1
 22 20  1  0
 23 24  1  0
 24 17  1  0
 25 23  1  0
 25 27  1  0
 26 25  2  0
M  END
$$$$
