FVL.pdb
     RDKit          3D

 27 27  0  0  1  0  0  0  0  0999 V2000
   21.8015  -18.4007  -17.8711 N   0  0  0  0  0  0  0  0  0  0  0  0
   22.3621  -17.8200  -16.6806 C   0  0  1  0  0  0  0  0  0  0  0  0
   21.4059  -18.1182  -15.5423 C   0  0  0  0  0  0  0  0  0  0  0  0
   20.1154  -17.4187  -15.7208 C   0  0  0  0  0  0  0  0  0  0  0  0
   18.9712  -18.0967  -16.0514 C   0  0  0  0  0  0  0  0  0  0  0  0
   17.7648  -17.4349  -16.2178 C   0  0  0  0  0  0  0  0  0  0  0  0
   17.6591  -16.0726  -16.0599 C   0  0  0  0  0  0  0  0  0  0  0  0
   18.8136  -15.3930  -15.7269 C   0  0  0  0  0  0  0  0  0  0  0  0
   20.0114  -16.0345  -15.5596 C   0  0  0  0  0  0  0  0  0  0  0  0
   23.6771  -18.4596  -16.4221 C   0  0  0  0  0  0  0  0  0  0  0  0
   23.7700  -19.7302  -16.5074 O   0  0  0  0  0  0  0  0  0  0  0  0
   28.5360  -17.9941  -16.0354 C   0  0  0  0  0  0  0  0  0  0  0  0
   27.1700  -17.4427  -16.3131 C   0  0  1  0  0  0  0  0  0  0  0  0
   27.0024  -16.9507  -17.7086 C   0  0  0  0  0  0  0  0  0  0  0  0
   26.1104  -18.4671  -15.8977 C   0  0  2  0  0  0  0  0  0  0  0  0
   24.8371  -17.7507  -16.0863 N   0  0  0  0  0  0  0  0  0  0  0  0
   26.2583  -18.8367  -14.4761 C   0  0  0  0  0  0  0  0  0  0  0  0
   26.2716  -17.9124  -13.5990 O   0  0  0  0  0  0  0  0  0  0  0  0
   23.7662  -20.5343   -9.8664 C   0  0  0  0  0  0  0  0  0  0  0  0
   24.9306  -19.9938  -10.6524 C   0  0  1  0  0  0  0  0  0  0  0  0
   26.1180  -19.7585   -9.7294 C   0  0  0  0  0  0  0  0  0  0  0  0
   25.2666  -20.6655  -11.9075 C   0  0  0  0  0  0  0  0  0  0  0  0
   26.5595  -20.4849  -12.5753 C   0  0  2  0  0  0  0  0  0  0  0  0
   26.3899  -20.1504  -13.9734 N   0  0  0  0  0  0  0  0  0  0  0  0
   27.5001  -21.5957  -12.4951 C   0  0  0  0  0  0  0  0  0  0  0  0
   27.7667  -22.2887  -13.5050 O   0  0  0  0  0  0  0  0  0  0  0  0
   28.1481  -21.9534  -11.3268 O   0  0  0  0  0  0  0  0  0  0  0  0
  2  1  1  6
  3  2  1  0
  4  3  1  0
  5  4  2  0
  6  5  1  0
  7  6  2  0
  7  8  1  0
  8  9  2  0
  9  4  1  0
 10 11  2  0
 10  2  1  0
 13 12  1  6
 14 13  1  0
 15 13  1  0
 15 16  1  1
 16 10  1  0
 17 15  1  0
 18 17  2  0
 20 19  1  1
 20 21  1  0
 23 22  1  6
 22 20  1  0
 23 24  1  0
 24 17  1  0
 25 23  1  0
 25 27  1  0
 26 25  2  0
M  END
$$$$
