FVL.pdb
     RDKit          3D

 27 27  0  0  1  0  0  0  0  0999 V2000
   23.7329  -22.1059  -13.5224 N   0  0  0  0  0  0  0  0  0  0  0  0
   24.0762  -20.8855  -12.8429 C   0  0  1  0  0  0  0  0  0  0  0  0
   22.8055  -20.3495  -12.2129 C   0  0  0  0  0  0  0  0  0  0  0  0
   22.0330  -19.5254  -13.1673 C   0  0  0  0  0  0  0  0  0  0  0  0
   22.6443  -18.6114  -13.9852 C   0  0  0  0  0  0  0  0  0  0  0  0
   21.9143  -17.8418  -14.8772 C   0  0  0  0  0  0  0  0  0  0  0  0
   20.5479  -17.9581  -14.9834 C   0  0  0  0  0  0  0  0  0  0  0  0
   19.9354  -18.8797  -14.1581 C   0  0  0  0  0  0  0  0  0  0  0  0
   20.6448  -19.6461  -13.2728 C   0  0  0  0  0  0  0  0  0  0  0  0
   25.0735  -21.2010  -11.7888 C   0  0  0  0  0  0  0  0  0  0  0  0
   24.9405  -22.2805  -11.1200 O   0  0  0  0  0  0  0  0  0  0  0  0
   29.6309  -20.8721  -10.2710 C   0  0  0  0  0  0  0  0  0  0  0  0
   28.4982  -20.6701  -11.2318 C   0  0  1  0  0  0  0  0  0  0  0  0
   28.6012  -21.5138  -12.4546 C   0  0  0  0  0  0  0  0  0  0  0  0
   27.1662  -20.8289  -10.4934 C   0  0  2  0  0  0  0  0  0  0  0  0
   26.1647  -20.3809  -11.4765 N   0  0  0  0  0  0  0  0  0  0  0  0
   27.1109  -19.9547   -9.3051 C   0  0  0  0  0  0  0  0  0  0  0  0
   26.8125  -18.7256   -9.4596 O   0  0  0  0  0  0  0  0  0  0  0  0
   26.8909  -22.1784   -4.1188 C   0  0  0  0  0  0  0  0  0  0  0  0
   26.7073  -21.4340   -5.4141 C   0  0  1  0  0  0  0  0  0  0  0  0
   25.2286  -21.3619   -5.7685 C   0  0  0  0  0  0  0  0  0  0  0  0
   27.4277  -20.1712   -5.5739 C   0  0  0  0  0  0  0  0  0  0  0  0
   27.4773  -19.4492   -6.8493 C   0  0  2  0  0  0  0  0  0  0  0  0
   27.3620  -20.3540   -7.9733 N   0  0  0  0  0  0  0  0  0  0  0  0
   28.6412  -18.6019   -7.0786 C   0  0  0  0  0  0  0  0  0  0  0  0
   28.7226  -17.4642   -6.5587 O   0  0  0  0  0  0  0  0  0  0  0  0
   29.7108  -18.9856   -7.8668 O   0  0  0  0  0  0  0  0  0  0  0  0
  2  1  1  1
  3  2  1  0
  4  3  1  0
  5  4  2  0
  6  5  1  0
  7  6  2  0
  7  8  1  0
  8  9  2  0
  9  4  1  0
 10 11  2  0
 10  2  1  0
 13 12  1  1
 14 13  1  0
 15 13  1  0
 15 16  1  6
 16 10  1  0
 17 15  1  0
 18 17  2  0
 20 19  1  1
 20 21  1  0
 23 22  1  1
 22 20  1  0
 23 24  1  0
 24 17  1  0
 25 23  1  0
 25 27  1  0
 26 25  2  0
M  END
$$$$
