FVL.pdb
     RDKit          3D

 27 27  0  0  1  0  0  0  0  0999 V2000
   23.6543  -20.5813  -16.0303 N   0  0  0  0  0  0  0  0  0  0  0  0
   23.7582  -20.0650  -14.6919 C   0  0  1  0  0  0  0  0  0  0  0  0
   22.4612  -20.3973  -13.9803 C   0  0  0  0  0  0  0  0  0  0  0  0
   21.3050  -19.7374  -14.6241 C   0  0  0  0  0  0  0  0  0  0  0  0
   21.3124  -18.3979  -14.9133 C   0  0  0  0  0  0  0  0  0  0  0  0
   20.2252  -17.7854  -15.5163 C   0  0  0  0  0  0  0  0  0  0  0  0
   19.0922  -18.4896  -15.8517 C   0  0  0  0  0  0  0  0  0  0  0  0
   19.0883  -19.8387  -15.5591 C   0  0  0  0  0  0  0  0  0  0  0  0
   20.1555  -20.4558  -14.9637 C   0  0  0  0  0  0  0  0  0  0  0  0
   24.8965  -20.7387  -14.0170 C   0  0  0  0  0  0  0  0  0  0  0  0
   25.5520  -21.6278  -14.6577 O   0  0  0  0  0  0  0  0  0  0  0  0
   27.6526  -19.1324  -12.9489 C   0  0  0  0  0  0  0  0  0  0  0  0
   27.6465  -20.6312  -12.9688 C   0  0  1  0  0  0  0  0  0  0  0  0
   28.9540  -21.2340  -12.5887 C   0  0  0  0  0  0  0  0  0  0  0  0
   26.4719  -21.1493  -12.1341 C   0  0  2  0  0  0  0  0  0  0  0  0
   25.3033  -20.4589  -12.7066 N   0  0  0  0  0  0  0  0  0  0  0  0
   26.6198  -20.7674  -10.7157 C   0  0  0  0  0  0  0  0  0  0  0  0
   26.5326  -19.5364  -10.3984 O   0  0  0  0  0  0  0  0  0  0  0  0
   27.8680  -20.6004   -5.2453 C   0  0  0  0  0  0  0  0  0  0  0  0
   27.3815  -19.7629   -6.3974 C   0  0  1  0  0  0  0  0  0  0  0  0
   27.9053  -18.3397   -6.2648 C   0  0  0  0  0  0  0  0  0  0  0  0
   27.5049  -20.3278   -7.7409 C   0  0  0  0  0  0  0  0  0  0  0  0
   26.5890  -21.3532   -8.2507 C   0  0  2  0  0  0  0  0  0  0  0  0
   26.8545  -21.6544   -9.6415 N   0  0  0  0  0  0  0  0  0  0  0  0
   25.1626  -21.0826   -8.1191 C   0  0  0  0  0  0  0  0  0  0  0  0
   24.5894  -21.1725   -7.0080 O   0  0  0  0  0  0  0  0  0  0  0  0
   24.3621  -20.7167   -9.1859 O   0  0  0  0  0  0  0  0  0  0  0  0
  2  1  1  6
  3  2  1  0
  4  3  1  0
  5  4  2  0
  6  5  1  0
  7  6  2  0
  7  8  1  0
  8  9  2  0
  9  4  1  0
 10 11  2  0
 10  2  1  0
 13 12  1  1
 14 13  1  0
 15 13  1  0
 15 16  1  6
 16 10  1  0
 17 15  1  0
 18 17  2  0
 20 19  1  1
 20 21  1  0
 23 22  1  6
 22 20  1  0
 23 24  1  0
 24 17  1  0
 25 23  1  0
 25 27  1  0
 26 25  2  0
M  END
$$$$
