FVL.pdb
     RDKit          3D

 27 27  0  0  1  0  0  0  0  0999 V2000
   23.2931  -19.8644  -17.5229 N   0  0  0  0  0  0  0  0  0  0  0  0
   23.6326  -19.3445  -16.2255 C   0  0  1  0  0  0  0  0  0  0  0  0
   22.4633  -19.6350  -15.3051 C   0  0  0  0  0  0  0  0  0  0  0  0
   21.2659  -18.8560  -15.6873 C   0  0  0  0  0  0  0  0  0  0  0  0
   20.1759  -19.4525  -16.2653 C   0  0  0  0  0  0  0  0  0  0  0  0
   19.0568  -18.7166  -16.6217 C   0  0  0  0  0  0  0  0  0  0  0  0
   18.9873  -17.3587  -16.4131 C   0  0  0  0  0  0  0  0  0  0  0  0
   20.0871  -16.7612  -15.8306 C   0  0  0  0  0  0  0  0  0  0  0  0
   21.1985  -17.4766  -15.4739 C   0  0  0  0  0  0  0  0  0  0  0  0
   24.8480  -20.0478  -15.7426 C   0  0  0  0  0  0  0  0  0  0  0  0
   25.0550  -21.2491  -16.1227 O   0  0  0  0  0  0  0  0  0  0  0  0
   29.0689  -19.9187  -13.2135 C   0  0  0  0  0  0  0  0  0  0  0  0
   27.9555  -19.2427  -13.9553 C   0  0  1  0  0  0  0  0  0  0  0  0
   28.4257  -18.3954  -15.0859 C   0  0  0  0  0  0  0  0  0  0  0  0
   26.9100  -20.2826  -14.3680 C   0  0  2  0  0  0  0  0  0  0  0  0
   25.7945  -19.4718  -14.8861 N   0  0  0  0  0  0  0  0  0  0  0  0
   26.4485  -21.0624  -13.2026 C   0  0  0  0  0  0  0  0  0  0  0  0
   27.1690  -22.0264  -12.7838 O   0  0  0  0  0  0  0  0  0  0  0  0
   25.1398  -19.5090   -8.8936 C   0  0  0  0  0  0  0  0  0  0  0  0
   26.2487  -20.2636   -9.5767 C   0  0  1  0  0  0  0  0  0  0  0  0
   27.4511  -20.3752   -8.6498 C   0  0  0  0  0  0  0  0  0  0  0  0
   25.8963  -21.5082  -10.2594 C   0  0  0  0  0  0  0  0  0  0  0  0
   24.8602  -21.5718  -11.2951 C   0  0  2  0  0  0  0  0  0  0  0  0
   25.2538  -20.8418  -12.4816 N   0  0  0  0  0  0  0  0  0  0  0  0
   23.5266  -21.1201  -10.9174 C   0  0  0  0  0  0  0  0  0  0  0  0
   22.9229  -21.6343   -9.9467 O   0  0  0  0  0  0  0  0  0  0  0  0
   22.8514  -20.1167  -11.5881 O   0  0  0  0  0  0  0  0  0  0  0  0
  2  1  1  6
  3  2  1  0
  4  3  1  0
  5  4  2  0
  6  5  1  0
  7  6  2  0
  7  8  1  0
  8  9  2  0
  9  4  1  0
 10 11  2  0
 10  2  1  0
 13 12  1  6
 14 13  1  0
 15 13  1  0
 15 16  1  1
 16 10  1  0
 17 15  1  0
 18 17  2  0
 20 19  1  1
 20 21  1  0
 23 22  1  1
 22 20  1  0
 23 24  1  0
 24 17  1  0
 25 23  1  0
 25 27  1  0
 26 25  2  0
M  END
$$$$
