FVL.pdb
     RDKit          3D

 27 27  0  0  1  0  0  0  0  0999 V2000
   28.2119  -23.2934  -15.9008 N   0  0  0  0  0  0  0  0  0  0  0  0
   27.2304  -22.2502  -16.0321 C   0  0  1  0  0  0  0  0  0  0  0  0
   26.5378  -22.4502  -17.3659 C   0  0  0  0  0  0  0  0  0  0  0  0
   25.4912  -21.4303  -17.5919 C   0  0  0  0  0  0  0  0  0  0  0  0
   24.1683  -21.6933  -17.3494 C   0  0  0  0  0  0  0  0  0  0  0  0
   23.1922  -20.7330  -17.5639 C   0  0  0  0  0  0  0  0  0  0  0  0
   23.5034  -19.4761  -18.0280 C   0  0  0  0  0  0  0  0  0  0  0  0
   24.8369  -19.2147  -18.2710 C   0  0  0  0  0  0  0  0  0  0  0  0
   25.8108  -20.1542  -18.0635 C   0  0  0  0  0  0  0  0  0  0  0  0
   26.2511  -22.3864  -14.9241 C   0  0  0  0  0  0  0  0  0  0  0  0
   25.7675  -23.5404  -14.6696 O   0  0  0  0  0  0  0  0  0  0  0  0
   24.4424  -20.6950  -10.7526 C   0  0  0  0  0  0  0  0  0  0  0  0
   25.4516  -20.7758  -11.8579 C   0  0  1  0  0  0  0  0  0  0  0  0
   26.7757  -21.2929  -11.4144 C   0  0  0  0  0  0  0  0  0  0  0  0
   24.8587  -21.5529  -13.0366 C   0  0  2  0  0  0  0  0  0  0  0  0
   25.8177  -21.3177  -14.1298 N   0  0  0  0  0  0  0  0  0  0  0  0
   23.5390  -21.0124  -13.4183 C   0  0  0  0  0  0  0  0  0  0  0  0
   23.4523  -19.7887  -13.7629 O   0  0  0  0  0  0  0  0  0  0  0  0
   19.4319  -23.6708  -16.1693 C   0  0  0  0  0  0  0  0  0  0  0  0
   20.3537  -22.5970  -15.6567 C   0  0  1  0  0  0  0  0  0  0  0  0
   20.5371  -21.5186  -16.7154 C   0  0  0  0  0  0  0  0  0  0  0  0
   20.1071  -22.0833  -14.3096 C   0  0  0  0  0  0  0  0  0  0  0  0
   21.0189  -21.1466  -13.6452 C   0  0  2  0  0  0  0  0  0  0  0  0
   22.3255  -21.7355  -13.4421 N   0  0  0  0  0  0  0  0  0  0  0  0
   20.5774  -20.5943  -12.3703 C   0  0  0  0  0  0  0  0  0  0  0  0
   19.7884  -19.6212  -12.3282 O   0  0  0  0  0  0  0  0  0  0  0  0
   20.9889  -21.0939  -11.1482 O   0  0  0  0  0  0  0  0  0  0  0  0
  2  1  1  1
  3  2  1  0
  4  3  1  0
  5  4  2  0
  6  5  1  0
  7  6  2  0
  7  8  1  0
  8  9  2  0
  9  4  1  0
 10 11  2  0
 10  2  1  0
 13 12  1  1
 14 13  1  0
 15 13  1  0
 15 16  1  6
 16 10  1  0
 17 15  1  0
 18 17  2  0
 20 19  1  6
 20 21  1  0
 23 22  1  1
 22 20  1  0
 23 24  1  0
 24 17  1  0
 25 23  1  0
 25 27  1  0
 26 25  2  0
M  END
$$$$
