NNF.pdb
     RDKit          3D

 28 28  0  0  1  0  0  0  0  0999 V2000
   16.2520  -20.0853    2.1331 N   0  0  0  0  0  0  0  0  0  0  0  0
   15.9198  -18.8388    2.7007 C   0  0  0  0  0  0  0  0  0  0  0  0
   14.6991  -18.5189    2.7445 O   0  0  0  0  0  0  0  0  0  0  0  0
   16.9591  -17.9284    3.2307 C   0  0  0  0  0  0  0  0  0  0  0  0
   16.4276  -16.9178    4.2184 C   0  0  2  0  0  0  0  0  0  0  0  0
   15.3598  -16.1078    3.7244 N   0  0  0  0  0  0  0  0  0  0  0  0
   17.5239  -16.1394    4.8463 C   0  0  0  0  0  0  0  0  0  0  0  0
   18.7052  -16.4938    4.5991 O   0  0  0  0  0  0  0  0  0  0  0  0
   19.2601  -11.9928    4.9803 N   0  0  0  0  0  0  0  0  0  0  0  0
   18.3416  -11.7786    6.0398 C   0  0  0  0  0  0  0  0  0  0  0  0
   18.0259  -10.5944    6.3115 O   0  0  0  0  0  0  0  0  0  0  0  0
   17.8054  -12.9521    6.7658 C   0  0  0  0  0  0  0  0  0  0  0  0
   18.3893  -14.2408    6.2772 C   0  0  2  0  0  0  0  0  0  0  0  0
   17.3284  -15.0376    5.6958 N   0  0  0  0  0  0  0  0  0  0  0  0
   19.0262  -15.0229    7.3689 C   0  0  0  0  0  0  0  0  0  0  0  0
   18.3288  -15.7643    8.1229 O   0  0  0  0  0  0  0  0  0  0  0  0
   20.4191  -14.9802    7.6170 N   0  0  0  0  0  0  0  0  0  0  0  0
   21.0979  -15.8043    8.6065 C   0  0  1  0  0  0  0  0  0  0  0  0
   22.1419  -16.6776    7.9611 C   0  0  0  0  0  0  0  0  0  0  0  0
   22.8690  -17.4663    8.9513 C   0  0  0  0  0  0  0  0  0  0  0  0
   22.4597  -18.7831    9.1534 C   0  0  0  0  0  0  0  0  0  0  0  0
   23.1386  -19.5505   10.0753 C   0  0  0  0  0  0  0  0  0  0  0  0
   24.2029  -19.0573   10.7980 C   0  0  0  0  0  0  0  0  0  0  0  0
   24.6142  -17.7619   10.6070 C   0  0  0  0  0  0  0  0  0  0  0  0
   23.9366  -16.9904    9.6845 C   0  0  0  0  0  0  0  0  0  0  0  0
   21.5631  -15.0259    9.7535 C   0  0  0  0  0  0  0  0  0  0  0  0
   21.6436  -15.4486   11.0533 O   0  0  0  0  0  0  0  0  0  0  0  0
   21.9335  -13.8246    9.5244 O   0  0  0  0  0  0  0  0  0  0  0  0
  2  1  1  0
  2  3  2  0
  4  2  1  0
  5  7  1  0
  5  4  1  0
  5  6  1  6
  7  8  2  0
  9 10  1  0
 10 12  1  0
 10 11  2  0
 13 12  1  1
 13 14  1  0
 13 15  1  0
 14  7  1  0
 15 17  1  0
 15 16  2  0
 17 18  1  0
 18 26  1  0
 18 19  1  6
 20 19  1  0
 20 25  2  0
 21 20  1  0
 22 21  2  0
 22 23  1  0
 23 24  2  0
 24 25  1  0
 26 28  2  0
 26 27  1  0
M  END
$$$$
