NNF.pdb
     RDKit          3D

 28 28  0  0  1  0  0  0  0  0999 V2000
   21.6763  -29.0601  -11.0006 N   0  0  0  0  0  0  0  0  0  0  0  0
   21.3602  -27.8217  -11.5944 C   0  0  0  0  0  0  0  0  0  0  0  0
   22.1745  -27.3473  -12.4348 O   0  0  0  0  0  0  0  0  0  0  0  0
   20.1182  -27.0938  -11.2516 C   0  0  0  0  0  0  0  0  0  0  0  0
   19.4053  -27.6547  -10.0446 C   0  0  2  0  0  0  0  0  0  0  0  0
   18.9490  -28.9998  -10.1950 N   0  0  0  0  0  0  0  0  0  0  0  0
   18.3622  -26.7245   -9.5457 C   0  0  0  0  0  0  0  0  0  0  0  0
   17.2076  -26.8286  -10.0336 O   0  0  0  0  0  0  0  0  0  0  0  0
   17.6733  -26.5549   -6.0748 N   0  0  0  0  0  0  0  0  0  0  0  0
   18.0453  -25.2245   -5.7528 C   0  0  0  0  0  0  0  0  0  0  0  0
   18.3753  -24.9788   -4.5668 O   0  0  0  0  0  0  0  0  0  0  0  0
   18.0263  -24.2010   -6.8223 C   0  0  0  0  0  0  0  0  0  0  0  0
   17.5987  -24.7628   -8.1421 C   0  0  2  0  0  0  0  0  0  0  0  0
   18.5805  -25.7391   -8.5684 N   0  0  0  0  0  0  0  0  0  0  0  0
   17.4835  -23.7165   -9.1914 C   0  0  0  0  0  0  0  0  0  0  0  0
   18.5003  -23.0566   -9.5588 O   0  0  0  0  0  0  0  0  0  0  0  0
   16.2540  -23.4100   -9.8224 N   0  0  0  0  0  0  0  0  0  0  0  0
   16.1017  -22.4148  -10.8737 C   0  0  1  0  0  0  0  0  0  0  0  0
   15.9542  -23.0688  -12.2227 C   0  0  0  0  0  0  0  0  0  0  0  0
   17.2390  -23.5329  -12.7377 C   0  0  0  0  0  0  0  0  0  0  0  0
   18.0381  -22.6068  -13.4058 C   0  0  0  0  0  0  0  0  0  0  0  0
   19.2604  -23.0192  -13.8910 C   0  0  0  0  0  0  0  0  0  0  0  0
   19.7126  -24.3115  -13.7358 C   0  0  0  0  0  0  0  0  0  0  0  0
   18.9337  -25.2315  -13.0797 C   0  0  0  0  0  0  0  0  0  0  0  0
   17.7088  -24.8220  -12.5925 C   0  0  0  0  0  0  0  0  0  0  0  0
   15.0807  -21.4186  -10.5524 C   0  0  0  0  0  0  0  0  0  0  0  0
   14.8927  -20.2093  -11.1664 O   0  0  0  0  0  0  0  0  0  0  0  0
   14.2780  -21.7010   -9.5991 O   0  0  0  0  0  0  0  0  0  0  0  0
  2  1  1  0
  2  3  2  0
  4  2  1  0
  5  7  1  0
  5  4  1  0
  5  6  1  6
  7  8  2  0
  9 10  1  0
 10 12  1  0
 10 11  2  0
 13 12  1  1
 13 14  1  0
 13 15  1  0
 14  7  1  0
 15 17  1  0
 15 16  2  0
 17 18  1  0
 18 26  1  0
 18 19  1  6
 20 19  1  0
 20 25  2  0
 21 20  1  0
 22 21  2  0
 22 23  1  0
 23 24  2  0
 24 25  1  0
 26 28  2  0
 26 27  1  0
M  END
$$$$
