NNF.pdb
     RDKit          3D

 28 28  0  0  1  0  0  0  0  0999 V2000
   20.6346  -15.3270  -16.8902 N   0  0  0  0  0  0  0  0  0  0  0  0
   21.6235  -14.5118  -17.4765 C   0  0  0  0  0  0  0  0  0  0  0  0
   21.8624  -14.6691  -18.7063 O   0  0  0  0  0  0  0  0  0  0  0  0
   22.3627  -13.5024  -16.6861 C   0  0  0  0  0  0  0  0  0  0  0  0
   23.8560  -13.5414  -16.9054 C   0  0  2  0  0  0  0  0  0  0  0  0
   24.4208  -14.8533  -16.9215 N   0  0  0  0  0  0  0  0  0  0  0  0
   24.5647  -12.5992  -16.0043 C   0  0  0  0  0  0  0  0  0  0  0  0
   25.4412  -13.0746  -15.2375 O   0  0  0  0  0  0  0  0  0  0  0  0
   27.4959  -11.5413  -14.6917 N   0  0  0  0  0  0  0  0  0  0  0  0
   27.5918  -11.1343  -16.0471 C   0  0  0  0  0  0  0  0  0  0  0  0
   28.6429  -11.4188  -16.6716 O   0  0  0  0  0  0  0  0  0  0  0  0
   26.4572  -10.4008  -16.6524 C   0  0  0  0  0  0  0  0  0  0  0  0
   25.3258  -10.2067  -15.6919 C   0  0  2  0  0  0  0  0  0  0  0  0
   24.3205  -11.2166  -15.9522 N   0  0  0  0  0  0  0  0  0  0  0  0
   24.6968   -8.8664  -15.8225 C   0  0  0  0  0  0  0  0  0  0  0  0
   25.3756   -7.8139  -15.6327 O   0  0  0  0  0  0  0  0  0  0  0  0
   23.3321   -8.7008  -16.1598 N   0  0  0  0  0  0  0  0  0  0  0  0
   22.6579   -7.4123  -16.2258 C   0  0  1  0  0  0  0  0  0  0  0  0
   21.9046   -7.2599  -17.5213 C   0  0  0  0  0  0  0  0  0  0  0  0
   20.8397   -8.2510  -17.6430 C   0  0  0  0  0  0  0  0  0  0  0  0
   19.5638   -7.8814  -17.2213 C   0  0  0  0  0  0  0  0  0  0  0  0
   18.5401   -8.7969  -17.3371 C   0  0  0  0  0  0  0  0  0  0  0  0
   18.7397  -10.0583  -17.8541 C   0  0  0  0  0  0  0  0  0  0  0  0
   19.9921  -10.4328  -18.2722 C   0  0  0  0  0  0  0  0  0  0  0  0
   21.0199   -9.5184  -18.1577 C   0  0  0  0  0  0  0  0  0  0  0  0
   21.8814   -7.1289  -15.0196 C   0  0  0  0  0  0  0  0  0  0  0  0
   21.6512   -7.9813  -13.9732 O   0  0  0  0  0  0  0  0  0  0  0  0
   21.3602   -5.9657  -14.9283 O   0  0  0  0  0  0  0  0  0  0  0  0
  2  1  1  0
  2  3  2  0
  4  2  1  0
  5  7  1  0
  5  4  1  0
  5  6  1  1
  7  8  2  0
  9 10  1  0
 10 12  1  0
 10 11  2  0
 13 12  1  6
 13 14  1  0
 13 15  1  0
 14  7  1  0
 15 17  1  0
 15 16  2  0
 17 18  1  0
 18 26  1  0
 18 19  1  6
 20 19  1  0
 20 25  2  0
 21 20  1  0
 22 21  2  0
 22 23  1  0
 23 24  2  0
 24 25  1  0
 26 28  2  0
 26 27  1  0
M  END
$$$$
