NNF.pdb
     RDKit          3D

 28 28  0  0  1  0  0  0  0  0999 V2000
    7.6529  -26.0087   -0.6682 N   0  0  0  0  0  0  0  0  0  0  0  0
    8.7490  -25.3597   -1.2712 C   0  0  0  0  0  0  0  0  0  0  0  0
    8.5143  -24.3332   -1.9680 O   0  0  0  0  0  0  0  0  0  0  0  0
   10.1324  -25.8565   -1.0996 C   0  0  0  0  0  0  0  0  0  0  0  0
   10.7593  -26.3476   -2.3824 C   0  0  2  0  0  0  0  0  0  0  0  0
   10.1419  -27.5088   -2.9398 N   0  0  0  0  0  0  0  0  0  0  0  0
   12.2342  -26.4573   -2.2620 C   0  0  0  0  0  0  0  0  0  0  0  0
   12.6911  -27.3178   -1.4663 O   0  0  0  0  0  0  0  0  0  0  0  0
   17.3968  -24.4647   -5.0309 N   0  0  0  0  0  0  0  0  0  0  0  0
   16.6815  -25.0852   -3.9748 C   0  0  0  0  0  0  0  0  0  0  0  0
   17.3318  -25.7758   -3.1528 O   0  0  0  0  0  0  0  0  0  0  0  0
   15.2163  -24.8887   -3.8953 C   0  0  0  0  0  0  0  0  0  0  0  0
   14.5881  -25.7123   -2.8149 C   0  0  2  0  0  0  0  0  0  0  0  0
   13.1492  -25.6652   -2.9756 N   0  0  0  0  0  0  0  0  0  0  0  0
   14.9300  -25.2177   -1.4556 C   0  0  0  0  0  0  0  0  0  0  0  0
   14.7156  -24.0111   -1.1354 O   0  0  0  0  0  0  0  0  0  0  0  0
   15.5020  -26.0546   -0.4677 N   0  0  0  0  0  0  0  0  0  0  0  0
   15.7083  -25.6588    0.9179 C   0  0  1  0  0  0  0  0  0  0  0  0
   14.4406  -25.1117    1.5204 C   0  0  0  0  0  0  0  0  0  0  0  0
   14.6504  -23.7901    2.1039 C   0  0  0  0  0  0  0  0  0  0  0  0
   14.5567  -22.6885    1.2552 C   0  0  0  0  0  0  0  0  0  0  0  0
   14.7398  -21.4298    1.7859 C   0  0  0  0  0  0  0  0  0  0  0  0
   15.0107  -21.2299    3.1220 C   0  0  0  0  0  0  0  0  0  0  0  0
   15.1053  -22.3076    3.9665 C   0  0  0  0  0  0  0  0  0  0  0  0
   14.9225  -23.5698    3.4385 C   0  0  0  0  0  0  0  0  0  0  0  0
   16.3676  -26.7024    1.7018 C   0  0  0  0  0  0  0  0  0  0  0  0
   16.7185  -26.6370    3.0236 O   0  0  0  0  0  0  0  0  0  0  0  0
   16.6486  -27.7907    1.0940 O   0  0  0  0  0  0  0  0  0  0  0  0
  2  1  1  0
  2  3  2  0
  4  2  1  0
  5  7  1  0
  5  4  1  0
  5  6  1  1
  7  8  2  0
  9 10  1  0
 10 12  1  0
 10 11  2  0
 13 12  1  6
 13 14  1  0
 13 15  1  0
 14  7  1  0
 15 17  1  0
 15 16  2  0
 17 18  1  0
 18 26  1  0
 18 19  1  1
 20 19  1  0
 20 25  2  0
 21 20  1  0
 22 21  2  0
 22 23  1  0
 23 24  2  0
 24 25  1  0
 26 28  2  0
 26 27  1  0
M  END
$$$$
