NNF.pdb
     RDKit          3D

 28 28  0  0  1  0  0  0  0  0999 V2000
   18.1052   -9.6709  -18.3357 N   0  0  0  0  0  0  0  0  0  0  0  0
   18.2982   -8.3134  -18.0094 C   0  0  0  0  0  0  0  0  0  0  0  0
   19.4087   -7.7897  -18.3039 O   0  0  0  0  0  0  0  0  0  0  0  0
   17.2410   -7.5198  -17.3442 C   0  0  0  0  0  0  0  0  0  0  0  0
   17.7486   -6.6871  -16.1916 C   0  0  2  0  0  0  0  0  0  0  0  0
   18.3804   -7.4340  -15.1508 N   0  0  0  0  0  0  0  0  0  0  0  0
   16.7133   -5.7431  -15.7027 C   0  0  0  0  0  0  0  0  0  0  0  0
   16.0746   -5.0831  -16.5621 O   0  0  0  0  0  0  0  0  0  0  0  0
   13.3292   -3.1328  -12.8550 N   0  0  0  0  0  0  0  0  0  0  0  0
   13.0798   -4.5212  -13.0036 C   0  0  0  0  0  0  0  0  0  0  0  0
   11.9438   -4.9500  -12.6852 O   0  0  0  0  0  0  0  0  0  0  0  0
   14.1621   -5.3877  -13.5226 C   0  0  0  0  0  0  0  0  0  0  0  0
   15.4000   -4.6157  -13.8573 C   0  0  2  0  0  0  0  0  0  0  0  0
   16.4021   -5.5396  -14.3478 N   0  0  0  0  0  0  0  0  0  0  0  0
   15.9535   -3.8965  -12.6801 C   0  0  0  0  0  0  0  0  0  0  0  0
   16.6368   -4.5133  -11.8101 O   0  0  0  0  0  0  0  0  0  0  0  0
   15.7491   -2.5109  -12.4753 N   0  0  0  0  0  0  0  0  0  0  0  0
   16.2788   -1.7663  -11.3422 C   0  0  1  0  0  0  0  0  0  0  0  0
   17.7648   -1.9716  -11.2048 C   0  0  0  0  0  0  0  0  0  0  0  0
   18.3311   -1.1173  -10.1653 C   0  0  0  0  0  0  0  0  0  0  0  0
   18.8538    0.1140  -10.5567 C   0  0  0  0  0  0  0  0  0  0  0  0
   19.3836    0.9424   -9.5910 C   0  0  0  0  0  0  0  0  0  0  0  0
   19.4113    0.5915   -8.2589 C   0  0  0  0  0  0  0  0  0  0  0  0
   18.8995   -0.6187   -7.8626 C   0  0  0  0  0  0  0  0  0  0  0  0
   18.3681   -1.4510   -8.8270 C   0  0  0  0  0  0  0  0  0  0  0  0
   15.8428   -0.3705  -11.3415 C   0  0  0  0  0  0  0  0  0  0  0  0
   15.5293    0.3903  -10.2472 O   0  0  0  0  0  0  0  0  0  0  0  0
   15.7414    0.2035  -12.4787 O   0  0  0  0  0  0  0  0  0  0  0  0
  2  1  1  0
  2  3  2  0
  4  2  1  0
  5  7  1  0
  5  4  1  0
  5  6  1  1
  7  8  2  0
  9 10  1  0
 10 12  1  0
 10 11  2  0
 13 12  1  1
 13 14  1  0
 13 15  1  0
 14  7  1  0
 15 17  1  0
 15 16  2  0
 17 18  1  0
 18 26  1  0
 18 19  1  6
 20 19  1  0
 20 25  2  0
 21 20  1  0
 22 21  2  0
 22 23  1  0
 23 24  2  0
 24 25  1  0
 26 28  2  0
 26 27  1  0
M  END
$$$$
