NNF.pdb
     RDKit          3D

 28 28  0  0  1  0  0  0  0  0999 V2000
   29.2684  -22.6003  -17.0303 N   0  0  0  0  0  0  0  0  0  0  0  0
   29.1039  -21.2023  -17.0992 C   0  0  0  0  0  0  0  0  0  0  0  0
   29.9413  -20.5441  -17.7773 O   0  0  0  0  0  0  0  0  0  0  0  0
   27.9903  -20.5191  -16.4041 C   0  0  0  0  0  0  0  0  0  0  0  0
   27.1270  -21.4516  -15.5888 C   0  0  2  0  0  0  0  0  0  0  0  0
   26.1526  -22.1730  -16.3441 N   0  0  0  0  0  0  0  0  0  0  0  0
   26.5701  -20.7735  -14.3921 C   0  0  0  0  0  0  0  0  0  0  0  0
   26.5224  -19.5167  -14.4044 O   0  0  0  0  0  0  0  0  0  0  0  0
   23.4546  -19.8544  -10.4282 N   0  0  0  0  0  0  0  0  0  0  0  0
   22.9497  -20.7948  -11.3623 C   0  0  0  0  0  0  0  0  0  0  0  0
   21.7324  -21.0936  -11.2936 O   0  0  0  0  0  0  0  0  0  0  0  0
   23.8755  -21.3720  -12.3631 C   0  0  0  0  0  0  0  0  0  0  0  0
   25.2686  -20.8426  -12.2236 C   0  0  2  0  0  0  0  0  0  0  0  0
   26.0954  -21.4418  -13.2511 N   0  0  0  0  0  0  0  0  0  0  0  0
   25.8613  -21.1533  -10.8965 C   0  0  0  0  0  0  0  0  0  0  0  0
   26.2155  -22.3350  -10.6089 O   0  0  0  0  0  0  0  0  0  0  0  0
   26.0571  -20.1626   -9.9047 N   0  0  0  0  0  0  0  0  0  0  0  0
   26.5381  -20.4386   -8.5588 C   0  0  1  0  0  0  0  0  0  0  0  0
   27.7162  -19.5654   -8.2140 C   0  0  0  0  0  0  0  0  0  0  0  0
   28.1213  -19.7355   -6.8218 C   0  0  0  0  0  0  0  0  0  0  0  0
   29.0891  -20.6996   -6.5452 C   0  0  0  0  0  0  0  0  0  0  0  0
   29.4955  -20.8702   -5.2394 C   0  0  0  0  0  0  0  0  0  0  0  0
   28.9767  -20.1206   -4.2063 C   0  0  0  0  0  0  0  0  0  0  0  0
   28.0231  -19.1687   -4.4674 C   0  0  0  0  0  0  0  0  0  0  0  0
   27.6136  -18.9951   -5.7741 C   0  0  0  0  0  0  0  0  0  0  0  0
   25.4586  -20.4417   -7.5724 C   0  0  0  0  0  0  0  0  0  0  0  0
   24.3727  -19.6083   -7.5424 O   0  0  0  0  0  0  0  0  0  0  0  0
   25.5322  -21.3105   -6.6383 O   0  0  0  0  0  0  0  0  0  0  0  0
  2  1  1  0
  2  3  2  0
  4  2  1  0
  5  7  1  0
  5  4  1  0
  5  6  1  6
  7  8  2  0
  9 10  1  0
 10 12  1  0
 10 11  2  0
 13 12  1  1
 13 14  1  0
 13 15  1  0
 14  7  1  0
 15 17  1  0
 15 16  2  0
 17 18  1  0
 18 26  1  0
 18 19  1  1
 20 19  1  0
 20 25  2  0
 21 20  1  0
 22 21  2  0
 22 23  1  0
 23 24  2  0
 24 25  1  0
 26 28  2  0
 26 27  1  0
M  END
$$$$
