NNF.pdb
     RDKit          3D

 28 28  0  0  1  0  0  0  0  0999 V2000
   30.0304  -20.2008  -19.3422 N   0  0  0  0  0  0  0  0  0  0  0  0
   28.7419  -19.6361  -19.4271 C   0  0  0  0  0  0  0  0  0  0  0  0
   28.1990  -19.5776  -20.5655 O   0  0  0  0  0  0  0  0  0  0  0  0
   28.0401  -19.1263  -18.2281 C   0  0  0  0  0  0  0  0  0  0  0  0
   26.9537  -20.0483  -17.7287 C   0  0  2  0  0  0  0  0  0  0  0  0
   25.9994  -20.4342  -18.7189 N   0  0  0  0  0  0  0  0  0  0  0  0
   26.3403  -19.5409  -16.4764 C   0  0  0  0  0  0  0  0  0  0  0  0
   25.8722  -18.3735  -16.4887 O   0  0  0  0  0  0  0  0  0  0  0  0
   22.4722  -18.7533  -13.3749 N   0  0  0  0  0  0  0  0  0  0  0  0
   22.8654  -20.0662  -13.7404 C   0  0  0  0  0  0  0  0  0  0  0  0
   22.3005  -21.0287  -13.1658 O   0  0  0  0  0  0  0  0  0  0  0  0
   23.9131  -20.2344  -14.7727 C   0  0  0  0  0  0  0  0  0  0  0  0
   25.2910  -20.0272  -14.2261 C   0  0  2  0  0  0  0  0  0  0  0  0
   26.2497  -20.2769  -15.2831 N   0  0  0  0  0  0  0  0  0  0  0  0
   25.5910  -20.9363  -13.0891 C   0  0  0  0  0  0  0  0  0  0  0  0
   25.6509  -22.1894  -13.2637 O   0  0  0  0  0  0  0  0  0  0  0  0
   25.8211  -20.4568  -11.7774 N   0  0  0  0  0  0  0  0  0  0  0  0
   25.9988  -21.3138  -10.6142 C   0  0  1  0  0  0  0  0  0  0  0  0
   27.3999  -21.2080  -10.0713 C   0  0  0  0  0  0  0  0  0  0  0  0
   27.4652  -20.3050   -8.9261 C   0  0  0  0  0  0  0  0  0  0  0  0
   28.2814  -20.6755   -7.8588 C   0  0  0  0  0  0  0  0  0  0  0  0
   28.3676  -19.8333   -6.7713 C   0  0  0  0  0  0  0  0  0  0  0  0
   27.6753  -18.6437   -6.7087 C   0  0  0  0  0  0  0  0  0  0  0  0
   26.8686  -18.2692   -7.7540 C   0  0  0  0  0  0  0  0  0  0  0  0
   26.7798  -19.1103   -8.8449 C   0  0  0  0  0  0  0  0  0  0  0  0
   24.9356  -21.1371   -9.6260 C   0  0  0  0  0  0  0  0  0  0  0  0
   23.9376  -20.2002   -9.6536 O   0  0  0  0  0  0  0  0  0  0  0  0
   24.9340  -21.9377   -8.6300 O   0  0  0  0  0  0  0  0  0  0  0  0
  2  1  1  0
  2  3  2  0
  4  2  1  0
  5  7  1  0
  5  4  1  0
  5  6  1  6
  7  8  2  0
  9 10  1  0
 10 12  1  0
 10 11  2  0
 13 12  1  6
 13 14  1  0
 13 15  1  0
 14  7  1  0
 15 17  1  0
 15 16  2  0
 17 18  1  0
 18 26  1  0
 18 19  1  1
 20 19  1  0
 20 25  2  0
 21 20  1  0
 22 21  2  0
 22 23  1  0
 23 24  2  0
 24 25  1  0
 26 28  2  0
 26 27  1  0
M  END
$$$$
