NNF.pdb
     RDKit          3D

 28 28  0  0  1  0  0  0  0  0999 V2000
   19.4667  -15.4211  -16.6101 N   0  0  0  0  0  0  0  0  0  0  0  0
   20.7375  -15.4021  -17.2194 C   0  0  0  0  0  0  0  0  0  0  0  0
   21.3774  -16.4890  -17.2796 O   0  0  0  0  0  0  0  0  0  0  0  0
   21.3114  -14.1556  -17.7733 C   0  0  0  0  0  0  0  0  0  0  0  0
   20.3898  -12.9652  -17.6577 C   0  0  2  0  0  0  0  0  0  0  0  0
   19.1972  -13.0581  -18.4382 N   0  0  0  0  0  0  0  0  0  0  0  0
   21.1228  -11.6879  -17.8402 C   0  0  0  0  0  0  0  0  0  0  0  0
   22.1610  -11.5089  -17.1529 O   0  0  0  0  0  0  0  0  0  0  0  0
   22.4636  -10.1892  -21.3571 N   0  0  0  0  0  0  0  0  0  0  0  0
   21.4131   -9.2368  -21.3946 C   0  0  0  0  0  0  0  0  0  0  0  0
   20.9942   -8.8701  -22.5197 O   0  0  0  0  0  0  0  0  0  0  0  0
   20.8676   -8.7274  -20.1161 C   0  0  0  0  0  0  0  0  0  0  0  0
   21.4502   -9.4272  -18.9281 C   0  0  2  0  0  0  0  0  0  0  0  0
   20.7332  -10.6698  -18.7265 N   0  0  0  0  0  0  0  0  0  0  0  0
   21.3494   -8.6147  -17.6876 C   0  0  0  0  0  0  0  0  0  0  0  0
   20.2193   -8.3451  -17.1831 O   0  0  0  0  0  0  0  0  0  0  0  0
   22.4904   -8.1104  -17.0187 N   0  0  0  0  0  0  0  0  0  0  0  0
   22.4370   -7.3016  -15.8096 C   0  0  1  0  0  0  0  0  0  0  0  0
   22.9756   -8.0604  -14.6250 C   0  0  0  0  0  0  0  0  0  0  0  0
   24.1259   -8.8814  -14.9912 C   0  0  0  0  0  0  0  0  0  0  0  0
   25.0948   -8.3048  -15.8105 C   0  0  0  0  0  0  0  0  0  0  0  0
   26.1953   -9.0571  -16.1602 C   0  0  0  0  0  0  0  0  0  0  0  0
   26.3647  -10.3538  -15.7264 C   0  0  0  0  0  0  0  0  0  0  0  0
   25.4167  -10.9315  -14.9195 C   0  0  0  0  0  0  0  0  0  0  0  0
   24.3130  -10.1810  -14.5673 C   0  0  0  0  0  0  0  0  0  0  0  0
   23.0090   -5.9702  -16.0057 C   0  0  0  0  0  0  0  0  0  0  0  0
   22.9912   -4.9306  -15.1149 O   0  0  0  0  0  0  0  0  0  0  0  0
   23.5862   -5.7486  -17.1240 O   0  0  0  0  0  0  0  0  0  0  0  0
  2  1  1  0
  2  3  2  0
  4  2  1  0
  5  7  1  0
  5  4  1  0
  5  6  1  6
  7  8  2  0
  9 10  1  0
 10 12  1  0
 10 11  2  0
 13 12  1  6
 13 14  1  0
 13 15  1  0
 14  7  1  0
 15 17  1  0
 15 16  2  0
 17 18  1  0
 18 26  1  0
 18 19  1  1
 20 19  1  0
 20 25  2  0
 21 20  1  0
 22 21  2  0
 22 23  1  0
 23 24  2  0
 24 25  1  0
 26 28  2  0
 26 27  1  0
M  END
$$$$
