NNF.pdb
     RDKit          3D

 28 28  0  0  1  0  0  0  0  0999 V2000
   15.6454  -20.1209  -13.1390 N   0  0  0  0  0  0  0  0  0  0  0  0
   16.8221  -20.2744  -13.8995 C   0  0  0  0  0  0  0  0  0  0  0  0
   16.6983  -20.5380  -15.1280 O   0  0  0  0  0  0  0  0  0  0  0  0
   18.1623  -20.1332  -13.2880 C   0  0  0  0  0  0  0  0  0  0  0  0
   19.0299  -21.3583  -13.4495 C   0  0  2  0  0  0  0  0  0  0  0  0
   18.4888  -22.5500  -12.8775 N   0  0  0  0  0  0  0  0  0  0  0  0
   20.4333  -21.0897  -13.0492 C   0  0  0  0  0  0  0  0  0  0  0  0
   20.8126  -21.5218  -11.9305 O   0  0  0  0  0  0  0  0  0  0  0  0
   25.2110  -21.7049  -11.7995 N   0  0  0  0  0  0  0  0  0  0  0  0
   24.7943  -21.6649  -13.1548 C   0  0  0  0  0  0  0  0  0  0  0  0
   25.6832  -21.6281  -14.0404 O   0  0  0  0  0  0  0  0  0  0  0  0
   23.3446  -21.6687  -13.4546 C   0  0  0  0  0  0  0  0  0  0  0  0
   22.7789  -20.2865  -13.5537 C   0  0  2  0  0  0  0  0  0  0  0  0
   21.3614  -20.3866  -13.8354 N   0  0  0  0  0  0  0  0  0  0  0  0
   23.4213  -19.4884  -14.6305 C   0  0  0  0  0  0  0  0  0  0  0  0
   23.1639  -19.7230  -15.8484 O   0  0  0  0  0  0  0  0  0  0  0  0
   24.3366  -18.4445  -14.3550 N   0  0  0  0  0  0  0  0  0  0  0  0
   24.9441  -17.6010  -15.3742 C   0  0  1  0  0  0  0  0  0  0  0  0
   25.4372  -16.3060  -14.7835 C   0  0  0  0  0  0  0  0  0  0  0  0
   26.0395  -15.4476  -15.7991 C   0  0  0  0  0  0  0  0  0  0  0  0
   25.1987  -14.5727  -16.4848 C   0  0  0  0  0  0  0  0  0  0  0  0
   25.7468  -13.7445  -17.4403 C   0  0  0  0  0  0  0  0  0  0  0  0
   27.0926  -13.7558  -17.7356 C   0  0  0  0  0  0  0  0  0  0  0  0
   27.9295  -14.6135  -17.0666 C   0  0  0  0  0  0  0  0  0  0  0  0
   27.3841  -15.4445  -16.1089 C   0  0  0  0  0  0  0  0  0  0  0  0
   25.9222  -18.3254  -16.1846 C   0  0  0  0  0  0  0  0  0  0  0  0
   26.1008  -18.2251  -17.5384 O   0  0  0  0  0  0  0  0  0  0  0  0
   26.6925  -19.1388  -15.5701 O   0  0  0  0  0  0  0  0  0  0  0  0
  2  1  1  0
  2  3  2  0
  4  2  1  0
  5  7  1  0
  5  4  1  0
  5  6  1  1
  7  8  2  0
  9 10  1  0
 10 12  1  0
 10 11  2  0
 13 12  1  6
 13 14  1  0
 13 15  1  0
 14  7  1  0
 15 17  1  0
 15 16  2  0
 17 18  1  0
 18 26  1  0
 18 19  1  1
 20 19  1  0
 20 25  2  0
 21 20  1  0
 22 21  2  0
 22 23  1  0
 23 24  2  0
 24 25  1  0
 26 28  2  0
 26 27  1  0
M  END
$$$$
