NNF.pdb
     RDKit          3D

 28 28  0  0  1  0  0  0  0  0999 V2000
   28.3083  -16.4933  -18.0295 N   0  0  0  0  0  0  0  0  0  0  0  0
   27.7358  -16.2812  -16.7592 C   0  0  0  0  0  0  0  0  0  0  0  0
   28.3866  -15.5871  -15.9291 O   0  0  0  0  0  0  0  0  0  0  0  0
   26.4168  -16.8482  -16.4005 C   0  0  0  0  0  0  0  0  0  0  0  0
   25.8206  -17.7169  -17.4820 C   0  0  2  0  0  0  0  0  0  0  0  0
   25.7981  -17.1201  -18.7795 N   0  0  0  0  0  0  0  0  0  0  0  0
   24.5153  -18.2873  -17.0662 C   0  0  0  0  0  0  0  0  0  0  0  0
   23.5785  -17.4830  -16.8258 O   0  0  0  0  0  0  0  0  0  0  0  0
   21.8940  -19.6124  -18.9326 N   0  0  0  0  0  0  0  0  0  0  0  0
   22.1063  -20.9926  -18.6834 C   0  0  0  0  0  0  0  0  0  0  0  0
   21.7920  -21.8064  -19.5860 O   0  0  0  0  0  0  0  0  0  0  0  0
   22.6833  -21.4010  -17.3826 C   0  0  0  0  0  0  0  0  0  0  0  0
   22.9951  -20.2300  -16.5040 C   0  0  2  0  0  0  0  0  0  0  0  0
   24.2597  -19.6614  -16.9237 N   0  0  0  0  0  0  0  0  0  0  0  0
   23.0982  -20.6100  -15.0708 C   0  0  0  0  0  0  0  0  0  0  0  0
   24.2282  -20.8235  -14.5397 O   0  0  0  0  0  0  0  0  0  0  0  0
   21.9598  -20.7499  -14.2414 N   0  0  0  0  0  0  0  0  0  0  0  0
   22.0192  -20.9949  -12.8077 C   0  0  1  0  0  0  0  0  0  0  0  0
   22.8050  -19.9184  -12.1055 C   0  0  0  0  0  0  0  0  0  0  0  0
   23.0888  -20.2785  -10.7194 C   0  0  0  0  0  0  0  0  0  0  0  0
   24.4161  -20.5317  -10.3781 C   0  0  0  0  0  0  0  0  0  0  0  0
   24.7096  -20.8624   -9.0727 C   0  0  0  0  0  0  0  0  0  0  0  0
   23.7359  -20.9494   -8.1018 C   0  0  0  0  0  0  0  0  0  0  0  0
   22.4257  -20.7023   -8.4271 C   0  0  0  0  0  0  0  0  0  0  0  0
   22.1280  -20.3708   -9.7335 C   0  0  0  0  0  0  0  0  0  0  0  0
   20.7025  -21.2744  -12.2365 C   0  0  0  0  0  0  0  0  0  0  0  0
   20.4030  -22.2151  -11.2877 O   0  0  0  0  0  0  0  0  0  0  0  0
   19.7258  -20.5706  -12.6648 O   0  0  0  0  0  0  0  0  0  0  0  0
  2  1  1  0
  2  3  2  0
  4  2  1  0
  5  7  1  0
  5  4  1  0
  5  6  1  6
  7  8  2  0
  9 10  1  0
 10 12  1  0
 10 11  2  0
 13 12  1  6
 13 14  1  0
 13 15  1  0
 14  7  1  0
 15 17  1  0
 15 16  2  0
 17 18  1  0
 18 26  1  0
 18 19  1  1
 20 19  1  0
 20 25  2  0
 21 20  1  0
 22 21  2  0
 22 23  1  0
 23 24  2  0
 24 25  1  0
 26 28  2  0
 26 27  1  0
M  END
$$$$
