GAS.pdb
     RDKit          3D

 16 15  0  0  1  0  0  0  0  0999 V2000
   17.6237  -11.7850  -15.6616 N   0  0  0  0  0  0  0  0  0  0  0  0
   17.1068  -10.7420  -14.8231 C   0  0  0  0  0  0  0  0  0  0  0  0
   17.6352   -9.4014  -15.1788 C   0  0  0  0  0  0  0  0  0  0  0  0
   18.7841   -9.3706  -15.7034 O   0  0  0  0  0  0  0  0  0  0  0  0
   16.5391   -5.7932  -15.2520 C   0  0  0  0  0  0  0  0  0  0  0  0
   17.5238   -6.9419  -15.3264 C   0  0  2  0  0  0  0  0  0  0  0  0
   16.9306   -8.1951  -14.9628 N   0  0  0  0  0  0  0  0  0  0  0  0
   18.6382   -6.6111  -14.4026 C   0  0  0  0  0  0  0  0  0  0  0  0
   18.6664   -7.0600  -13.2379 O   0  0  0  0  0  0  0  0  0  0  0  0
   23.0337   -6.2991  -13.4418 O   0  0  0  0  0  0  0  0  0  0  0  0
   21.9602   -6.6026  -14.2835 C   0  0  0  0  0  0  0  0  0  0  0  0
   20.9059   -5.5540  -14.0756 C   0  0  2  0  0  0  0  0  0  0  0  0
   19.7064   -5.7725  -14.8193 N   0  0  0  0  0  0  0  0  0  0  0  0
   21.4832   -4.2012  -14.3355 C   0  0  0  0  0  0  0  0  0  0  0  0
   22.1275   -3.4799  -13.3426 O   0  0  0  0  0  0  0  0  0  0  0  0
   21.3955   -3.6834  -15.4727 O   0  0  0  0  0  0  0  0  0  0  0  0
  1  2  1  0
  2  3  1  0
  3  4  2  0
  6  5  1  1
  7  6  1  0
  7  3  1  0
  8  9  2  0
  8  6  1  0
 10 11  1  0
 12 11  1  6
 12 14  1  0
 12 13  1  0
 13  8  1  0
 14 15  1  0
 16 14  2  0
M  END
$$$$
