GAS.pdb
     RDKit          3D

 16 15  0  0  1  0  0  0  0  0999 V2000
   12.5075  -10.9434   -9.1160 N   0  0  0  0  0  0  0  0  0  0  0  0
   13.8420  -10.5717   -8.7431 C   0  0  0  0  0  0  0  0  0  0  0  0
   14.2195   -9.2196   -9.2248 C   0  0  0  0  0  0  0  0  0  0  0  0
   13.7740   -8.8813  -10.3576 O   0  0  0  0  0  0  0  0  0  0  0  0
   15.8359   -6.0532   -8.0343 C   0  0  0  0  0  0  0  0  0  0  0  0
   15.4254   -7.0731   -9.0764 C   0  0  2  0  0  0  0  0  0  0  0  0
   15.0307   -8.3218   -8.4937 N   0  0  0  0  0  0  0  0  0  0  0  0
   16.5954   -7.2674   -9.9697 C   0  0  0  0  0  0  0  0  0  0  0  0
   17.6205   -7.8587   -9.5719 O   0  0  0  0  0  0  0  0  0  0  0  0
   18.2537   -8.0743  -14.2692 O   0  0  0  0  0  0  0  0  0  0  0  0
   17.1396   -7.8325  -13.4610 C   0  0  0  0  0  0  0  0  0  0  0  0
   17.6007   -7.0390  -12.2728 C   0  0  2  0  0  0  0  0  0  0  0  0
   16.5812   -6.7845  -11.3057 N   0  0  0  0  0  0  0  0  0  0  0  0
   18.2580   -5.7792  -12.7330 C   0  0  0  0  0  0  0  0  0  0  0  0
   19.6208   -5.7143  -12.9768 O   0  0  0  0  0  0  0  0  0  0  0  0
   17.5809   -4.7403  -12.9105 O   0  0  0  0  0  0  0  0  0  0  0  0
  1  2  1  0
  2  3  1  0
  3  4  2  0
  6  5  1  1
  7  6  1  0
  7  3  1  0
  8  9  2  0
  8  6  1  0
 10 11  1  0
 12 11  1  6
 12 14  1  0
 12 13  1  0
 13  8  1  0
 14 15  1  0
 16 14  2  0
M  END
$$$$
