GAS.pdb
     RDKit          3D

 16 15  0  0  1  0  0  0  0  0999 V2000
   17.4571  -11.5638  -12.9478 N   0  0  0  0  0  0  0  0  0  0  0  0
   17.3852  -11.2764  -11.5442 C   0  0  0  0  0  0  0  0  0  0  0  0
   16.5733  -10.0708  -11.2436 C   0  0  0  0  0  0  0  0  0  0  0  0
   16.2429   -9.3547  -12.2306 O   0  0  0  0  0  0  0  0  0  0  0  0
   14.3755   -8.7865   -8.5402 C   0  0  0  0  0  0  0  0  0  0  0  0
   15.2606   -8.6053   -9.7561 C   0  0  2  0  0  0  0  0  0  0  0  0
   16.1664   -9.7007   -9.9413 N   0  0  0  0  0  0  0  0  0  0  0  0
   16.0135   -7.3417   -9.5532 C   0  0  0  0  0  0  0  0  0  0  0  0
   17.0508   -7.3123   -8.8590 O   0  0  0  0  0  0  0  0  0  0  0  0
   15.2325   -4.1678  -12.0389 O   0  0  0  0  0  0  0  0  0  0  0  0
   16.4705   -4.2048  -11.3916 C   0  0  0  0  0  0  0  0  0  0  0  0
   16.2737   -4.8852  -10.0678 C   0  0  2  0  0  0  0  0  0  0  0  0
   15.5735   -6.1275  -10.1450 N   0  0  0  0  0  0  0  0  0  0  0  0
   15.6276   -3.9410   -9.1075 C   0  0  0  0  0  0  0  0  0  0  0  0
   16.2374   -2.7556   -8.7279 O   0  0  0  0  0  0  0  0  0  0  0  0
   14.5050   -4.2052   -8.6186 O   0  0  0  0  0  0  0  0  0  0  0  0
  1  2  1  0
  2  3  1  0
  3  4  2  0
  6  5  1  1
  7  6  1  0
  7  3  1  0
  8  9  2  0
  8  6  1  0
 10 11  1  0
 12 11  1  6
 12 14  1  0
 12 13  1  0
 13  8  1  0
 14 15  1  0
 16 14  2  0
M  END
$$$$
