GAS.pdb
     RDKit          3D

 16 15  0  0  1  0  0  0  0  0999 V2000
   18.0461  -11.6131  -17.0547 N   0  0  0  0  0  0  0  0  0  0  0  0
   19.0016  -10.6492  -17.5195 C   0  0  0  0  0  0  0  0  0  0  0  0
   19.6692   -9.9197  -16.4128 C   0  0  0  0  0  0  0  0  0  0  0  0
   18.9167   -9.2739  -15.6300 O   0  0  0  0  0  0  0  0  0  0  0  0
   23.0402   -9.5407  -14.7985 C   0  0  0  0  0  0  0  0  0  0  0  0
   21.6358   -9.1072  -15.1653 C   0  0  2  0  0  0  0  0  0  0  0  0
   21.0673   -9.9163  -16.2030 N   0  0  0  0  0  0  0  0  0  0  0  0
   21.7257   -7.6919  -15.6052 C   0  0  0  0  0  0  0  0  0  0  0  0
   22.0008   -7.3992  -16.7873 O   0  0  0  0  0  0  0  0  0  0  0  0
   19.4313   -4.8149  -14.0497 O   0  0  0  0  0  0  0  0  0  0  0  0
   20.1480   -4.6465  -15.2375 C   0  0  0  0  0  0  0  0  0  0  0  0
   21.5113   -5.2428  -15.0370 C   0  0  2  0  0  0  0  0  0  0  0  0
   21.5005   -6.6283  -14.6908 N   0  0  0  0  0  0  0  0  0  0  0  0
   22.2766   -4.4277  -14.0466 C   0  0  0  0  0  0  0  0  0  0  0  0
   22.6292   -3.1118  -14.3018 O   0  0  0  0  0  0  0  0  0  0  0  0
   22.6203   -4.9241  -12.9491 O   0  0  0  0  0  0  0  0  0  0  0  0
  1  2  1  0
  2  3  1  0
  3  4  2  0
  6  5  1  6
  7  6  1  0
  7  3  1  0
  8  9  2  0
  8  6  1  0
 10 11  1  0
 12 11  1  1
 12 14  1  0
 12 13  1  0
 13  8  1  0
 14 15  1  0
 16 14  2  0
M  END
$$$$
