GAS.pdb
     RDKit          3D

 16 15  0  0  1  0  0  0  0  0999 V2000
   18.1822  -12.4403  -15.8337 N   0  0  0  0  0  0  0  0  0  0  0  0
   17.9687  -11.3316  -14.9486 C   0  0  0  0  0  0  0  0  0  0  0  0
   18.5269  -10.0601  -15.4727 C   0  0  0  0  0  0  0  0  0  0  0  0
   19.6057  -10.1457  -16.1247 O   0  0  0  0  0  0  0  0  0  0  0  0
   17.6069   -6.4393  -15.8704 C   0  0  0  0  0  0  0  0  0  0  0  0
   18.5605   -7.6124  -15.7750 C   0  0  2  0  0  0  0  0  0  0  0  0
   17.9226   -8.7967  -15.2798 N   0  0  0  0  0  0  0  0  0  0  0  0
   19.6586   -7.1988  -14.8651 C   0  0  0  0  0  0  0  0  0  0  0  0
   19.5733   -7.3684  -13.6312 O   0  0  0  0  0  0  0  0  0  0  0  0
   23.0837   -5.2671  -16.4027 O   0  0  0  0  0  0  0  0  0  0  0  0
   23.2671   -6.1897  -15.3692 C   0  0  0  0  0  0  0  0  0  0  0  0
   21.9859   -6.2634  -14.5899 C   0  0  2  0  0  0  0  0  0  0  0  0
   20.8402   -6.5969  -15.3746 N   0  0  0  0  0  0  0  0  0  0  0  0
   21.7873   -4.9951  -13.8263 C   0  0  0  0  0  0  0  0  0  0  0  0
   22.5446   -4.6920  -12.7058 O   0  0  0  0  0  0  0  0  0  0  0  0
   20.9196   -4.1675  -14.1885 O   0  0  0  0  0  0  0  0  0  0  0  0
  1  2  1  0
  2  3  1  0
  3  4  2  0
  6  5  1  1
  7  6  1  0
  7  3  1  0
  8  9  2  0
  8  6  1  0
 10 11  1  0
 12 11  1  6
 12 14  1  0
 12 13  1  0
 13  8  1  0
 14 15  1  0
 16 14  2  0
M  END
$$$$
