GAS.pdb
     RDKit          3D

 16 15  0  0  1  0  0  0  0  0999 V2000
   24.4151  -19.1077  -16.8155 N   0  0  0  0  0  0  0  0  0  0  0  0
   23.1646  -18.4251  -16.6466 C   0  0  0  0  0  0  0  0  0  0  0  0
   22.4490  -18.8306  -15.4111 C   0  0  0  0  0  0  0  0  0  0  0  0
   22.7349  -19.9688  -14.9433 O   0  0  0  0  0  0  0  0  0  0  0  0
   20.1369  -17.4109  -12.8072 C   0  0  0  0  0  0  0  0  0  0  0  0
   20.8118  -18.5158  -13.5934 C   0  0  2  0  0  0  0  0  0  0  0  0
   21.4913  -18.0235  -14.7555 N   0  0  0  0  0  0  0  0  0  0  0  0
   19.7475  -19.4743  -13.9852 C   0  0  0  0  0  0  0  0  0  0  0  0
   19.1211  -19.3411  -15.0569 O   0  0  0  0  0  0  0  0  0  0  0  0
   19.0340  -22.8391  -11.5870 O   0  0  0  0  0  0  0  0  0  0  0  0
   18.8153  -22.9528  -12.9625 C   0  0  0  0  0  0  0  0  0  0  0  0
   18.4654  -21.5889  -13.4837 C   0  0  2  0  0  0  0  0  0  0  0  0
   19.4114  -20.5726  -13.1493 N   0  0  0  0  0  0  0  0  0  0  0  0
   17.0823  -21.2250  -13.0534 C   0  0  0  0  0  0  0  0  0  0  0  0
   15.9805  -21.9800  -13.4239 O   0  0  0  0  0  0  0  0  0  0  0  0
   16.8869  -20.2152  -12.3384 O   0  0  0  0  0  0  0  0  0  0  0  0
  1  2  1  0
  2  3  1  0
  3  4  2  0
  6  5  1  6
  7  6  1  0
  7  3  1  0
  8  9  2  0
  8  6  1  0
 10 11  1  0
 12 11  1  1
 12 14  1  0
 12 13  1  0
 13  8  1  0
 14 15  1  0
 16 14  2  0
M  END
$$$$
