GAS.pdb
     RDKit          3D

 16 15  0  0  1  0  0  0  0  0999 V2000
   14.3761   -9.8201   -9.9147 N   0  0  0  0  0  0  0  0  0  0  0  0
   14.5311   -8.6563  -10.7391 C   0  0  0  0  0  0  0  0  0  0  0  0
   15.4061   -8.8946  -11.9140 C   0  0  0  0  0  0  0  0  0  0  0  0
   16.0593   -9.9760  -11.9188 O   0  0  0  0  0  0  0  0  0  0  0  0
   15.9893   -7.5483  -15.3614 C   0  0  0  0  0  0  0  0  0  0  0  0
   16.3585   -8.3312  -14.1183 C   0  0  2  0  0  0  0  0  0  0  0  0
   15.5363   -7.9921  -12.9942 N   0  0  0  0  0  0  0  0  0  0  0  0
   17.7822   -8.0260  -13.8271 C   0  0  0  0  0  0  0  0  0  0  0  0
   18.0982   -7.1156  -13.0333 O   0  0  0  0  0  0  0  0  0  0  0  0
   22.4363   -9.1866  -14.5939 O   0  0  0  0  0  0  0  0  0  0  0  0
   21.1235   -9.4664  -14.9826 C   0  0  0  0  0  0  0  0  0  0  0  0
   20.2203   -8.5026  -14.2686 C   0  0  2  0  0  0  0  0  0  0  0  0
   18.8273   -8.7633  -14.4451 N   0  0  0  0  0  0  0  0  0  0  0  0
   20.5770   -7.1028  -14.6484 C   0  0  0  0  0  0  0  0  0  0  0  0
   21.3929   -6.3159  -13.8508 O   0  0  0  0  0  0  0  0  0  0  0  0
   20.1396   -6.6043  -15.7110 O   0  0  0  0  0  0  0  0  0  0  0  0
  1  2  1  0
  2  3  1  0
  3  4  2  0
  6  5  1  6
  7  6  1  0
  7  3  1  0
  8  9  2  0
  8  6  1  0
 10 11  1  0
 12 11  1  6
 12 14  1  0
 12 13  1  0
 13  8  1  0
 14 15  1  0
 16 14  2  0
M  END
$$$$
