EEY.pdb
     RDKit          3D

 31 31  0  0  1  0  0  0  0  0999 V2000
   27.4864  -20.7792  -15.5854 N   0  0  0  0  0  0  0  0  0  0  0  0
   26.1447  -21.2172  -15.5562 C   0  0  1  0  0  0  0  0  0  0  0  0
   25.7803  -22.3144  -14.6155 C   0  0  0  0  0  0  0  0  0  0  0  0
   25.6143  -23.6739  -15.1660 C   0  0  0  0  0  0  0  0  0  0  0  0
   24.2309  -24.0168  -15.5129 C   0  0  0  0  0  0  0  0  0  0  0  0
   23.7037  -23.8833  -16.6340 O   0  0  0  0  0  0  0  0  0  0  0  0
   25.1600  -20.1015  -15.2926 C   0  0  0  0  0  0  0  0  0  0  0  0
   25.2505  -19.4159  -14.2417 O   0  0  0  0  0  0  0  0  0  0  0  0
   23.4350  -24.5438  -14.4787 O   0  0  0  0  0  0  0  0  0  0  0  0
   24.1101  -19.7747  -16.1864 N   0  0  0  0  0  0  0  0  0  0  0  0
   23.1813  -18.6759  -15.9172 C   0  0  1  0  0  0  0  0  0  0  0  0
   22.9070  -17.8699  -17.1485 C   0  0  0  0  0  0  0  0  0  0  0  0
   23.8342  -16.7067  -17.3332 C   0  0  0  0  0  0  0  0  0  0  0  0
   23.3534  -15.9177  -18.4974 C   0  0  0  0  0  0  0  0  0  0  0  0
   22.3208  -16.2438  -19.1520 O   0  0  0  0  0  0  0  0  0  0  0  0
   21.9850  -19.2225  -15.2681 C   0  0  0  0  0  0  0  0  0  0  0  0
   21.8176  -20.4587  -15.0912 O   0  0  0  0  0  0  0  0  0  0  0  0
   24.0159  -14.7766  -18.9290 O   0  0  0  0  0  0  0  0  0  0  0  0
   17.6220  -23.3080   -9.8648 O   0  0  0  0  0  0  0  0  0  0  0  0
   18.3294  -22.3253  -10.5534 C   0  0  0  0  0  0  0  0  0  0  0  0
   18.0355  -20.9926  -10.3425 C   0  0  0  0  0  0  0  0  0  0  0  0
   18.7369  -20.0218  -11.0251 C   0  0  0  0  0  0  0  0  0  0  0  0
   19.7382  -20.3149  -11.9270 C   0  0  0  0  0  0  0  0  0  0  0  0
   20.4974  -19.3115  -12.6732 C   0  0  0  0  0  0  0  0  0  0  0  0
   19.8668  -18.8828  -13.9685 C   0  0  2  0  0  0  0  0  0  0  0  0
   20.9430  -18.3722  -14.8013 N   0  0  0  0  0  0  0  0  0  0  0  0
   18.8695  -17.8279  -13.7738 C   0  0  0  0  0  0  0  0  0  0  0  0
   19.1480  -16.5012  -14.1468 O   0  0  0  0  0  0  0  0  0  0  0  0
   20.0192  -21.6492  -12.1262 C   0  0  0  0  0  0  0  0  0  0  0  0
   19.3248  -22.6381  -11.4492 C   0  0  0  0  0  0  0  0  0  0  0  0
   17.7542  -18.1218  -13.2658 O   0  0  0  0  0  0  0  0  0  0  0  0
  2  1  1  1
  2  3  1  0
  3  4  1  0
  4  5  1  0
  5  9  1  0
  6  5  2  0
  7  2  1  0
  8  7  2  0
 10  7  1  0
 11 10  1  0
 11 12  1  6
 13 12  1  0
 14 13  1  0
 14 15  2  0
 16 11  1  0
 16 26  1  0
 17 16  2  0
 18 14  1  0
 20 19  1  0
 21 20  2  0
 22 21  1  0
 23 29  1  0
 23 22  2  0
 24 23  1  0
 25 24  1  1
 25 26  1  0
 25 27  1  0
 27 28  1  0
 29 30  2  0
 30 20  1  0
 31 27  2  0
M  END
$$$$
