EEY.pdb
     RDKit          3D

 31 31  0  0  1  0  0  0  0  0999 V2000
   32.5541  -27.7329  -20.3915 N   0  0  0  0  0  0  0  0  0  0  0  0
   32.2463  -29.0763  -20.6970 C   0  0  1  0  0  0  0  0  0  0  0  0
   33.0362  -30.1509  -20.0315 C   0  0  0  0  0  0  0  0  0  0  0  0
   34.4905  -30.1982  -20.2799 C   0  0  0  0  0  0  0  0  0  0  0  0
   35.3116  -29.9578  -19.0885 C   0  0  0  0  0  0  0  0  0  0  0  0
   36.5525  -29.8473  -19.0658 O   0  0  0  0  0  0  0  0  0  0  0  0
   30.7944  -29.4228  -20.4607 C   0  0  0  0  0  0  0  0  0  0  0  0
   30.1643  -28.8862  -19.5133 O   0  0  0  0  0  0  0  0  0  0  0  0
   34.6261  -29.8428  -17.8646 O   0  0  0  0  0  0  0  0  0  0  0  0
   30.0820  -30.3444  -21.2677 N   0  0  0  0  0  0  0  0  0  0  0  0
   28.6402  -30.5473  -21.1184 C   0  0  1  0  0  0  0  0  0  0  0  0
   28.0248  -31.0846  -22.3729 C   0  0  0  0  0  0  0  0  0  0  0  0
   28.0655  -32.5793  -22.4785 C   0  0  0  0  0  0  0  0  0  0  0  0
   27.4307  -32.9651  -23.7658 C   0  0  0  0  0  0  0  0  0  0  0  0
   26.2810  -33.4909  -23.8190 O   0  0  0  0  0  0  0  0  0  0  0  0
   28.4038  -31.3665  -19.9249 C   0  0  0  0  0  0  0  0  0  0  0  0
   29.2373  -32.2172  -19.5136 O   0  0  0  0  0  0  0  0  0  0  0  0
   28.0697  -32.7677  -24.9824 O   0  0  0  0  0  0  0  0  0  0  0  0
   25.7265  -33.4566  -11.8186 O   0  0  0  0  0  0  0  0  0  0  0  0
   26.0329  -32.8721  -13.0453 C   0  0  0  0  0  0  0  0  0  0  0  0
   25.0175  -32.4044  -13.8559 C   0  0  0  0  0  0  0  0  0  0  0  0
   25.3232  -31.8264  -15.0694 C   0  0  0  0  0  0  0  0  0  0  0  0
   26.6160  -31.6863  -15.5287 C   0  0  0  0  0  0  0  0  0  0  0  0
   26.9758  -31.0849  -16.8127 C   0  0  0  0  0  0  0  0  0  0  0  0
   26.9782  -32.0392  -17.9740 C   0  0  2  0  0  0  0  0  0  0  0  0
   27.2068  -31.2381  -19.1649 N   0  0  0  0  0  0  0  0  0  0  0  0
   25.7026  -32.7462  -18.1094 C   0  0  0  0  0  0  0  0  0  0  0  0
   25.4496  -33.9152  -17.3702 O   0  0  0  0  0  0  0  0  0  0  0  0
   27.6176  -32.1581  -14.7082 C   0  0  0  0  0  0  0  0  0  0  0  0
   27.3292  -32.7417  -13.4857 C   0  0  0  0  0  0  0  0  0  0  0  0
   24.8300  -32.2953  -18.8990 O   0  0  0  0  0  0  0  0  0  0  0  0
  2  1  1  1
  2  3  1  0
  3  4  1  0
  4  5  1  0
  5  9  1  0
  6  5  2  0
  7  2  1  0
  8  7  2  0
 10  7  1  0
 11 10  1  0
 11 12  1  6
 13 12  1  0
 14 13  1  0
 14 15  2  0
 16 11  1  0
 16 26  1  0
 17 16  2  0
 18 14  1  0
 20 19  1  0
 21 20  2  0
 22 21  1  0
 23 29  1  0
 23 22  2  0
 24 23  1  0
 25 24  1  1
 25 26  1  0
 25 27  1  0
 27 28  1  0
 29 30  2  0
 30 20  1  0
 31 27  2  0
M  END
$$$$
