EEY.pdb
     RDKit          3D

 31 31  0  0  1  0  0  0  0  0999 V2000
   17.9832   -9.7465  -19.3764 N   0  0  0  0  0  0  0  0  0  0  0  0
   17.4037   -8.6576  -18.6900 C   0  0  1  0  0  0  0  0  0  0  0  0
   16.6929   -8.9283  -17.4081 C   0  0  0  0  0  0  0  0  0  0  0  0
   16.0895  -10.2619  -17.2174 C   0  0  0  0  0  0  0  0  0  0  0  0
   16.3661  -10.8649  -15.9092 C   0  0  0  0  0  0  0  0  0  0  0  0
   17.0423  -10.3528  -14.9963 O   0  0  0  0  0  0  0  0  0  0  0  0
   18.3879   -7.5501  -18.3920 C   0  0  0  0  0  0  0  0  0  0  0  0
   19.6243   -7.7647  -18.4807 O   0  0  0  0  0  0  0  0  0  0  0  0
   15.8130  -12.1374  -15.6732 O   0  0  0  0  0  0  0  0  0  0  0  0
   17.9863   -6.2470  -18.0065 N   0  0  0  0  0  0  0  0  0  0  0  0
   18.9539   -5.1647  -17.8199 C   0  0  1  0  0  0  0  0  0  0  0  0
   18.4972   -3.8966  -18.4712 C   0  0  0  0  0  0  0  0  0  0  0  0
   18.9107   -3.7665  -19.9060 C   0  0  0  0  0  0  0  0  0  0  0  0
   18.4366   -2.4479  -20.4018 C   0  0  0  0  0  0  0  0  0  0  0  0
   19.2021   -1.4436  -20.4821 O   0  0  0  0  0  0  0  0  0  0  0  0
   19.2490   -5.0423  -16.3884 C   0  0  0  0  0  0  0  0  0  0  0  0
   18.3431   -4.9608  -15.5165 O   0  0  0  0  0  0  0  0  0  0  0  0
   17.1229   -2.2493  -20.8045 O   0  0  0  0  0  0  0  0  0  0  0  0
   23.4364  -10.7783  -15.8067 O   0  0  0  0  0  0  0  0  0  0  0  0
   22.7020   -9.6855  -15.3520 C   0  0  0  0  0  0  0  0  0  0  0  0
   23.1961   -8.9053  -14.3254 C   0  0  0  0  0  0  0  0  0  0  0  0
   22.4675   -7.8243  -13.8771 C   0  0  0  0  0  0  0  0  0  0  0  0
   21.2451   -7.4714  -14.4093 C   0  0  0  0  0  0  0  0  0  0  0  0
   20.4426   -6.3364  -13.9538 C   0  0  0  0  0  0  0  0  0  0  0  0
   20.8837   -5.0019  -14.4865 C   0  0  2  0  0  0  0  0  0  0  0  0
   20.5894   -5.0090  -15.9098 N   0  0  0  0  0  0  0  0  0  0  0  0
   22.3185   -4.7785  -14.2947 C   0  0  0  0  0  0  0  0  0  0  0  0
   22.8567   -4.6484  -13.0023 O   0  0  0  0  0  0  0  0  0  0  0  0
   20.7660   -8.2601  -15.4328 C   0  0  0  0  0  0  0  0  0  0  0  0
   21.4843   -9.3499  -15.8960 C   0  0  0  0  0  0  0  0  0  0  0  0
   23.0697   -4.7029  -15.3037 O   0  0  0  0  0  0  0  0  0  0  0  0
  2  1  1  1
  2  3  1  0
  3  4  1  0
  4  5  1  0
  5  9  1  0
  6  5  2  0
  7  2  1  0
  8  7  2  0
 10  7  1  0
 11 10  1  0
 11 12  1  1
 13 12  1  0
 14 13  1  0
 14 15  2  0
 16 11  1  0
 16 26  1  0
 17 16  2  0
 18 14  1  0
 20 19  1  0
 21 20  2  0
 22 21  1  0
 23 29  1  0
 23 22  2  0
 24 23  1  0
 25 24  1  6
 25 26  1  0
 25 27  1  0
 27 28  1  0
 29 30  2  0
 30 20  1  0
 31 27  2  0
M  END
$$$$
