EEY.pdb
     RDKit          3D

 31 31  0  0  1  0  0  0  0  0999 V2000
   17.7677  -12.2001  -15.1403 N   0  0  0  0  0  0  0  0  0  0  0  0
   18.9674  -12.1052  -15.8781 C   0  0  1  0  0  0  0  0  0  0  0  0
   19.0469  -12.8075  -17.1905 C   0  0  0  0  0  0  0  0  0  0  0  0
   17.7944  -13.3190  -17.7808 C   0  0  0  0  0  0  0  0  0  0  0  0
   17.9728  -14.0113  -19.0616 C   0  0  0  0  0  0  0  0  0  0  0  0
   19.0582  -14.2088  -19.6409 O   0  0  0  0  0  0  0  0  0  0  0  0
   19.3906  -10.6792  -16.1453 C   0  0  0  0  0  0  0  0  0  0  0  0
   20.4578  -10.4446  -16.7687 O   0  0  0  0  0  0  0  0  0  0  0  0
   16.8062  -14.4924  -19.6848 O   0  0  0  0  0  0  0  0  0  0  0  0
   18.6331   -9.5594  -15.7209 N   0  0  0  0  0  0  0  0  0  0  0  0
   19.0413   -8.1886  -16.0322 C   0  0  1  0  0  0  0  0  0  0  0  0
   17.8838   -7.3581  -16.4917 C   0  0  0  0  0  0  0  0  0  0  0  0
   18.2385   -5.9326  -16.7902 C   0  0  0  0  0  0  0  0  0  0  0  0
   16.9769   -5.1490  -16.8486 C   0  0  0  0  0  0  0  0  0  0  0  0
   15.8485   -5.6702  -16.6111 O   0  0  0  0  0  0  0  0  0  0  0  0
   19.7633   -7.6418  -14.8785 C   0  0  0  0  0  0  0  0  0  0  0  0
   19.5640   -8.0479  -13.7025 O   0  0  0  0  0  0  0  0  0  0  0  0
   16.9714   -3.7980  -17.1683 O   0  0  0  0  0  0  0  0  0  0  0  0
   25.8527   -9.9152  -16.7221 O   0  0  0  0  0  0  0  0  0  0  0  0
   24.9570   -9.2589  -15.8811 C   0  0  0  0  0  0  0  0  0  0  0  0
   24.6616   -7.9275  -16.0974 C   0  0  0  0  0  0  0  0  0  0  0  0
   23.7748   -7.2801  -15.2638 C   0  0  0  0  0  0  0  0  0  0  0  0
   23.1528   -7.9029  -14.2021 C   0  0  0  0  0  0  0  0  0  0  0  0
   22.2129   -7.2454  -13.2941 C   0  0  0  0  0  0  0  0  0  0  0  0
   21.4672   -6.0866  -13.8942 C   0  0  2  0  0  0  0  0  0  0  0  0
   20.7355   -6.6135  -15.0340 N   0  0  0  0  0  0  0  0  0  0  0  0
   22.3696   -5.0275  -14.3517 C   0  0  0  0  0  0  0  0  0  0  0  0
   22.4234   -4.6697  -15.7104 O   0  0  0  0  0  0  0  0  0  0  0  0
   23.4583   -9.2313  -13.9998 C   0  0  0  0  0  0  0  0  0  0  0  0
   24.3469   -9.8979  -14.8272 C   0  0  0  0  0  0  0  0  0  0  0  0
   23.1014   -4.4375  -13.5124 O   0  0  0  0  0  0  0  0  0  0  0  0
  2  1  1  6
  2  3  1  0
  3  4  1  0
  4  5  1  0
  5  9  1  0
  6  5  2  0
  7  2  1  0
  8  7  2  0
 10  7  1  0
 11 10  1  0
 11 12  1  1
 13 12  1  0
 14 13  1  0
 14 15  2  0
 16 11  1  0
 16 26  1  0
 17 16  2  0
 18 14  1  0
 20 19  1  0
 21 20  2  0
 22 21  1  0
 23 29  1  0
 23 22  2  0
 24 23  1  0
 25 24  1  6
 25 26  1  0
 25 27  1  0
 27 28  1  0
 29 30  2  0
 30 20  1  0
 31 27  2  0
M  END
$$$$
