ERE.pdb
     RDKit          3D

 30 29  0  0  1  0  0  0  0  0999 V2000
   17.7359  -17.4341   14.8825 N   0  0  0  0  0  0  0  0  0  0  0  0
   17.0940  -18.5506   15.5804 C   0  0  1  0  0  0  0  0  0  0  0  0
   17.9848  -19.7634   15.5557 C   0  0  0  0  0  0  0  0  0  0  0  0
   19.3282  -19.5784   16.1708 C   0  0  0  0  0  0  0  0  0  0  0  0
   20.1370  -20.8504   16.0577 C   0  0  0  0  0  0  0  0  0  0  0  0
   19.5994  -21.8601   15.5144 O   0  0  0  0  0  0  0  0  0  0  0  0
   16.7675  -18.1366   16.9859 C   0  0  0  0  0  0  0  0  0  0  0  0
   17.4955  -17.3301   17.6018 O   0  0  0  0  0  0  0  0  0  0  0  0
   21.4336  -20.8935   16.5423 O   0  0  0  0  0  0  0  0  0  0  0  0
   12.3609  -21.2987   16.4446 N   0  0  0  0  0  0  0  0  0  0  0  0
   11.0036  -21.0723   16.8477 C   0  0  0  0  0  0  0  0  0  0  0  0
   10.0750  -21.8242   16.3834 N   0  0  0  0  0  0  0  0  0  0  0  0
   10.6833  -20.0322   17.7478 N   0  0  0  0  0  0  0  0  0  0  0  0
   11.5829  -19.5787   18.7785 C   0  0  0  0  0  0  0  0  0  0  0  0
   12.9680  -19.2486   18.2250 C   0  0  0  0  0  0  0  0  0  0  0  0
   13.8021  -18.7047   19.3358 C   0  0  0  0  0  0  0  0  0  0  0  0
   15.1968  -18.3599   18.9732 C   0  0  2  0  0  0  0  0  0  0  0  0
   15.6229  -18.6501   17.6525 N   0  0  0  0  0  0  0  0  0  0  0  0
   16.1589  -18.7277   20.0538 C   0  0  0  0  0  0  0  0  0  0  0  0
   16.9716  -19.6360   19.7956 O   0  0  0  0  0  0  0  0  0  0  0  0
    9.0924  -21.7416   16.7493 N   0  0  0  0  0  0  0  0  0  0  0  0
   16.1804  -18.1065   21.3229 C   0  0  1  0  0  0  0  0  0  0  0  0
   17.3106  -17.7201   22.0842 C   0  0  0  0  0  0  0  0  0  0  0  0
   18.5106  -17.1876   21.4181 C   0  0  0  0  0  0  0  0  0  0  0  0
   19.7261  -16.9389   22.2237 C   0  0  0  0  0  0  0  0  0  0  0  0
   20.8520  -16.3163   21.5147 O   0  0  0  0  0  0  0  0  0  0  0  0
   21.0671  -15.1022   21.6111 C   0  0  0  0  0  0  0  0  0  0  0  0
   16.9686  -16.9253   23.3311 O   0  0  0  0  0  0  0  0  0  0  0  0
   17.7581  -16.7038   24.2642 O   0  0  0  0  0  0  0  0  0  0  0  0
   21.7241  -17.0562   20.7067 O   0  0  0  0  0  0  0  0  0  0  0  0
  2  1  1  1
  2  3  1  0
  3  4  1  0
  4  5  1  0
  5  9  1  0
  5  6  2  0
  7  2  1  0
  7  8  2  0
 10 11  1  0
 11 12  2  0
 13 11  1  0
 13 14  1  0
 14 15  1  0
 17 16  1  1
 16 15  1  0
 17 18  1  0
 18  7  1  0
 19 17  1  0
 20 19  2  0
 21 19  1  0
 22 27  1  0
 22 21  1  0
 23 24  1  0
 22 23  1  6
 24 25  1  0
 25 29  1  0
 25 26  2  0
 27 30  1  0
 28 27  2  0
M  END
$$$$
