ERE.pdb
     RDKit          3D

 30 29  0  0  1  0  0  0  0  0999 V2000
   10.5313  -20.7649   17.6530 N   0  0  0  0  0  0  0  0  0  0  0  0
    9.8239  -20.6576   18.9311 C   0  0  1  0  0  0  0  0  0  0  0  0
   10.0910  -21.8717   19.7794 C   0  0  0  0  0  0  0  0  0  0  0  0
   11.5258  -22.1367   20.0768 C   0  0  0  0  0  0  0  0  0  0  0  0
   11.6697  -23.4129   20.8739 C   0  0  0  0  0  0  0  0  0  0  0  0
   10.6191  -23.9911   21.2808 O   0  0  0  0  0  0  0  0  0  0  0  0
   10.2448  -19.3964   19.6279 C   0  0  0  0  0  0  0  0  0  0  0  0
   11.4241  -18.9906   19.5613 O   0  0  0  0  0  0  0  0  0  0  0  0
   12.9281  -23.9240   21.1442 O   0  0  0  0  0  0  0  0  0  0  0  0
    7.4024  -12.3798   18.4385 N   0  0  0  0  0  0  0  0  0  0  0  0
    7.6691  -12.6338   19.8243 C   0  0  0  0  0  0  0  0  0  0  0  0
    8.2371  -11.7288   20.5324 N   0  0  0  0  0  0  0  0  0  0  0  0
    7.3128  -13.8675   20.4123 N   0  0  0  0  0  0  0  0  0  0  0  0
    7.6351  -14.2124   21.7741 C   0  0  0  0  0  0  0  0  0  0  0  0
    8.8347  -15.1547   21.8575 C   0  0  0  0  0  0  0  0  0  0  0  0
    8.4950  -16.4152   21.1355 C   0  0  0  0  0  0  0  0  0  0  0  0
    9.5686  -17.4358   21.0993 C   0  0  2  0  0  0  0  0  0  0  0  0
    9.3144  -18.6312   20.3808 N   0  0  0  0  0  0  0  0  0  0  0  0
   10.2113  -17.6136   22.4349 C   0  0  0  0  0  0  0  0  0  0  0  0
    9.6201  -18.3493   23.2481 O   0  0  0  0  0  0  0  0  0  0  0  0
    8.5199  -11.9311   21.5251 N   0  0  0  0  0  0  0  0  0  0  0  0
   11.4270  -16.9945   22.8035 C   0  0  2  0  0  0  0  0  0  0  0  0
   12.1192  -17.0993   24.0347 C   0  0  0  0  0  0  0  0  0  0  0  0
   13.5509  -16.7655   24.1149 C   0  0  0  0  0  0  0  0  0  0  0  0
   14.4131  -17.0225   22.9407 C   0  0  0  0  0  0  0  0  0  0  0  0
   15.8078  -16.5758   23.0562 O   0  0  0  0  0  0  0  0  0  0  0  0
   16.6979  -17.0971   22.3739 C   0  0  0  0  0  0  0  0  0  0  0  0
   11.3520  -16.5427   25.2201 O   0  0  0  0  0  0  0  0  0  0  0  0
   10.2722  -15.9341   25.1376 O   0  0  0  0  0  0  0  0  0  0  0  0
   16.1921  -15.5526   23.9316 O   0  0  0  0  0  0  0  0  0  0  0  0
  2  1  1  6
  2  3  1  0
  3  4  1  0
  4  5  1  0
  5  9  1  0
  5  6  2  0
  7  2  1  0
  7  8  2  0
 10 11  1  0
 11 12  2  0
 13 11  1  0
 13 14  1  0
 14 15  1  0
 17 16  1  1
 16 15  1  0
 17 18  1  0
 18  7  1  0
 19 17  1  0
 20 19  2  0
 21 19  1  0
 22 27  1  0
 22 21  1  0
 23 24  1  0
 22 23  1  6
 24 25  1  0
 25 29  1  0
 25 26  2  0
 27 30  1  0
 28 27  2  0
M  END
$$$$
