ERE.pdb
     RDKit          3D

 30 29  0  0  1  0  0  0  0  0999 V2000
   10.7537  -19.7746   17.1599 N   0  0  0  0  0  0  0  0  0  0  0  0
   12.0248  -19.5067   17.8368 C   0  0  1  0  0  0  0  0  0  0  0  0
   13.0560  -19.0387   16.8455 C   0  0  0  0  0  0  0  0  0  0  0  0
   12.7732  -17.7239   16.2063 C   0  0  0  0  0  0  0  0  0  0  0  0
   13.8207  -17.4116   15.1623 C   0  0  0  0  0  0  0  0  0  0  0  0
   14.7966  -18.2077   15.0307 O   0  0  0  0  0  0  0  0  0  0  0  0
   11.8059  -18.4932   18.9224 C   0  0  0  0  0  0  0  0  0  0  0  0
   12.7643  -18.0559   19.5932 O   0  0  0  0  0  0  0  0  0  0  0  0
   13.7008  -16.2774   14.3768 O   0  0  0  0  0  0  0  0  0  0  0  0
    8.5453  -10.6353   20.7982 N   0  0  0  0  0  0  0  0  0  0  0  0
    8.5398  -12.0063   20.3782 C   0  0  0  0  0  0  0  0  0  0  0  0
    9.3663  -12.3924   19.4777 N   0  0  0  0  0  0  0  0  0  0  0  0
    7.6350  -12.9302   20.9461 N   0  0  0  0  0  0  0  0  0  0  0  0
    7.5268  -14.2981   20.5053 C   0  0  0  0  0  0  0  0  0  0  0  0
    8.7081  -15.1459   20.9737 C   0  0  0  0  0  0  0  0  0  0  0  0
    8.9835  -16.1838   19.9381 C   0  0  0  0  0  0  0  0  0  0  0  0
   10.1463  -17.0607   20.2107 C   0  0  2  0  0  0  0  0  0  0  0  0
   10.5046  -18.0048   19.2156 N   0  0  0  0  0  0  0  0  0  0  0  0
   10.1366  -17.5766   21.6115 C   0  0  0  0  0  0  0  0  0  0  0  0
    9.2632  -18.4194   21.8925 O   0  0  0  0  0  0  0  0  0  0  0  0
    9.3330  -13.3789   19.1144 N   0  0  0  0  0  0  0  0  0  0  0  0
   11.0505  -17.1555   22.6036 C   0  0  2  0  0  0  0  0  0  0  0  0
   11.1424  -17.5963   23.9465 C   0  0  0  0  0  0  0  0  0  0  0  0
   12.3605  -18.2687   24.4279 C   0  0  0  0  0  0  0  0  0  0  0  0
   13.4786  -18.4872   23.4844 C   0  0  0  0  0  0  0  0  0  0  0  0
   14.8230  -18.1996   24.0018 O   0  0  0  0  0  0  0  0  0  0  0  0
   14.9760  -17.6967   25.1214 C   0  0  0  0  0  0  0  0  0  0  0  0
   10.6255  -16.5914   24.9596 O   0  0  0  0  0  0  0  0  0  0  0  0
   10.2809  -15.4295   24.6869 O   0  0  0  0  0  0  0  0  0  0  0  0
   15.9802  -18.4767   23.2637 O   0  0  0  0  0  0  0  0  0  0  0  0
  2  1  1  6
  2  3  1  0
  3  4  1  0
  4  5  1  0
  5  9  1  0
  5  6  2  0
  7  2  1  0
  7  8  2  0
 10 11  1  0
 11 12  2  0
 13 11  1  0
 13 14  1  0
 14 15  1  0
 17 16  1  6
 16 15  1  0
 17 18  1  0
 18  7  1  0
 19 17  1  0
 20 19  2  0
 21 19  1  0
 22 27  1  0
 22 21  1  0
 23 24  1  0
 22 23  1  6
 24 25  1  0
 25 29  1  0
 25 26  2  0
 27 30  1  0
 28 27  2  0
M  END
$$$$
