ERE.pdb
     RDKit          3D

 30 29  0  0  1  0  0  0  0  0999 V2000
   11.4721  -16.1194   18.7443 N   0  0  0  0  0  0  0  0  0  0  0  0
   12.4580  -16.0824   19.8269 C   0  0  1  0  0  0  0  0  0  0  0  0
   13.5417  -15.0865   19.5127 C   0  0  0  0  0  0  0  0  0  0  0  0
   14.0400  -15.1101   18.1096 C   0  0  0  0  0  0  0  0  0  0  0  0
   15.1335  -14.0834   17.9236 C   0  0  0  0  0  0  0  0  0  0  0  0
   14.8746  -13.0423   17.2508 O   0  0  0  0  0  0  0  0  0  0  0  0
   11.7664  -15.7535   21.1181 C   0  0  0  0  0  0  0  0  0  0  0  0
   12.4018  -15.7103   22.1924 O   0  0  0  0  0  0  0  0  0  0  0  0
   16.3834  -14.2920   18.4822 O   0  0  0  0  0  0  0  0  0  0  0  0
    8.9907  -12.0723   18.3282 N   0  0  0  0  0  0  0  0  0  0  0  0
    8.5860  -13.4234   18.0701 C   0  0  0  0  0  0  0  0  0  0  0  0
    9.0198  -14.0215   17.0226 N   0  0  0  0  0  0  0  0  0  0  0  0
    7.7170  -14.0971   18.9565 N   0  0  0  0  0  0  0  0  0  0  0  0
    7.2176  -13.5039   20.1714 C   0  0  0  0  0  0  0  0  0  0  0  0
    8.3083  -13.3666   21.2322 C   0  0  0  0  0  0  0  0  0  0  0  0
    8.2703  -14.5748   22.1064 C   0  0  0  0  0  0  0  0  0  0  0  0
    9.5696  -15.2602   22.3000 C   0  0  2  0  0  0  0  0  0  0  0  0
   10.3723  -15.4825   21.1528 N   0  0  0  0  0  0  0  0  0  0  0  0
    9.4532  -16.4172   23.2363 C   0  0  0  0  0  0  0  0  0  0  0  0
    8.6715  -17.3293   22.9059 O   0  0  0  0  0  0  0  0  0  0  0  0
    8.6978  -14.9969   16.7966 N   0  0  0  0  0  0  0  0  0  0  0  0
   10.1713  -16.5133   24.4496 C   0  0  1  0  0  0  0  0  0  0  0  0
   10.1886  -17.5912   25.3682 C   0  0  0  0  0  0  0  0  0  0  0  0
   10.9640  -18.8077   25.0744 C   0  0  0  0  0  0  0  0  0  0  0  0
   12.4374  -18.7130   24.9819 C   0  0  0  0  0  0  0  0  0  0  0  0
   13.1159  -19.8458   24.3383 O   0  0  0  0  0  0  0  0  0  0  0  0
   13.1137  -20.9659   24.8628 C   0  0  0  0  0  0  0  0  0  0  0  0
   10.3542  -17.1628   26.8147 O   0  0  0  0  0  0  0  0  0  0  0  0
   10.6214  -16.0063   27.1810 O   0  0  0  0  0  0  0  0  0  0  0  0
   13.7888  -19.7149   23.1172 O   0  0  0  0  0  0  0  0  0  0  0  0
  2  1  1  6
  2  3  1  0
  3  4  1  0
  4  5  1  0
  5  9  1  0
  5  6  2  0
  7  2  1  0
  7  8  2  0
 10 11  1  0
 11 12  2  0
 13 11  1  0
 13 14  1  0
 14 15  1  0
 17 16  1  6
 16 15  1  0
 17 18  1  0
 18  7  1  0
 19 17  1  0
 20 19  2  0
 21 19  1  0
 22 27  1  0
 22 21  1  0
 23 24  1  0
 22 23  1  1
 24 25  1  0
 25 29  1  0
 25 26  2  0
 27 30  1  0
 28 27  2  0
M  END
$$$$
