ERE.pdb
     RDKit          3D

 30 29  0  0  1  0  0  0  0  0999 V2000
    7.6977  -19.3834   19.3095 N   0  0  0  0  0  0  0  0  0  0  0  0
    8.8524  -18.8225   18.6041 C   0  0  1  0  0  0  0  0  0  0  0  0
    8.4339  -18.2840   17.2626 C   0  0  0  0  0  0  0  0  0  0  0  0
    9.5353  -17.7291   16.4281 C   0  0  0  0  0  0  0  0  0  0  0  0
    9.0093  -17.3136   15.0733 C   0  0  0  0  0  0  0  0  0  0  0  0
    7.8508  -17.6957   14.7335 O   0  0  0  0  0  0  0  0  0  0  0  0
    9.4832  -17.7564   19.4521 C   0  0  0  0  0  0  0  0  0  0  0  0
   10.5658  -17.2300   19.1192 O   0  0  0  0  0  0  0  0  0  0  0  0
    9.7890  -16.5336   14.2357 O   0  0  0  0  0  0  0  0  0  0  0  0
    6.4812  -12.2647   18.7305 N   0  0  0  0  0  0  0  0  0  0  0  0
    7.6230  -13.1320   18.7408 C   0  0  0  0  0  0  0  0  0  0  0  0
    7.8463  -13.8911   17.7324 N   0  0  0  0  0  0  0  0  0  0  0  0
    8.4993  -13.1564   19.8482 N   0  0  0  0  0  0  0  0  0  0  0  0
    8.0499  -13.3559   21.2030 C   0  0  0  0  0  0  0  0  0  0  0  0
    7.4807  -14.7574   21.4170 C   0  0  0  0  0  0  0  0  0  0  0  0
    8.4151  -15.5162   22.2981 C   0  0  0  0  0  0  0  0  0  0  0  0
    9.3825  -16.3909   21.5949 C   0  0  2  0  0  0  0  0  0  0  0  0
    8.8666  -17.3179   20.6544 N   0  0  0  0  0  0  0  0  0  0  0  0
   10.4219  -16.9279   22.5221 C   0  0  0  0  0  0  0  0  0  0  0  0
   10.1122  -17.9333   23.1895 O   0  0  0  0  0  0  0  0  0  0  0  0
    8.7092  -14.4916   17.7007 N   0  0  0  0  0  0  0  0  0  0  0  0
   11.7048  -16.3544   22.6711 C   0  0  1  0  0  0  0  0  0  0  0  0
   12.7676  -16.8000   23.4946 C   0  0  0  0  0  0  0  0  0  0  0  0
   14.0892  -16.1559   23.4184 C   0  0  0  0  0  0  0  0  0  0  0  0
   15.2364  -16.7915   24.1026 C   0  0  0  0  0  0  0  0  0  0  0  0
   16.5571  -16.2172   23.8133 O   0  0  0  0  0  0  0  0  0  0  0  0
   16.9254  -16.0327   22.6472 C   0  0  0  0  0  0  0  0  0  0  0  0
   12.3609  -17.0647   24.9326 O   0  0  0  0  0  0  0  0  0  0  0  0
   11.6571  -16.3038   25.6174 O   0  0  0  0  0  0  0  0  0  0  0  0
   17.4508  -15.8557   24.8290 O   0  0  0  0  0  0  0  0  0  0  0  0
  2  1  1  1
  2  3  1  0
  3  4  1  0
  4  5  1  0
  5  9  1  0
  5  6  2  0
  7  2  1  0
  7  8  2  0
 10 11  1  0
 11 12  2  0
 13 11  1  0
 13 14  1  0
 14 15  1  0
 17 16  1  1
 16 15  1  0
 17 18  1  0
 18  7  1  0
 19 17  1  0
 20 19  2  0
 21 19  1  0
 22 27  1  0
 22 21  1  0
 23 24  1  0
 22 23  1  6
 24 25  1  0
 25 29  1  0
 25 26  2  0
 27 30  1  0
 28 27  2  0
M  END
$$$$
