ERE.pdb
     RDKit          3D

 30 29  0  0  1  0  0  0  0  0999 V2000
    8.9881  -17.6782   17.1616 N   0  0  0  0  0  0  0  0  0  0  0  0
    8.2261  -17.9297   18.3870 C   0  0  1  0  0  0  0  0  0  0  0  0
    8.1351  -19.4086   18.6511 C   0  0  0  0  0  0  0  0  0  0  0  0
    9.4376  -20.0979   18.8646 C   0  0  0  0  0  0  0  0  0  0  0  0
    9.2228  -21.5841   19.0375 C   0  0  0  0  0  0  0  0  0  0  0  0
    8.0392  -22.0317   18.9890 O   0  0  0  0  0  0  0  0  0  0  0  0
    8.8724  -17.2054   19.5320 C   0  0  0  0  0  0  0  0  0  0  0  0
   10.1141  -17.0883   19.5970 O   0  0  0  0  0  0  0  0  0  0  0  0
   10.3058  -22.4223   19.2434 O   0  0  0  0  0  0  0  0  0  0  0  0
    5.0663  -12.4068   26.1944 N   0  0  0  0  0  0  0  0  0  0  0  0
    6.4848  -12.2514   26.3354 C   0  0  0  0  0  0  0  0  0  0  0  0
    6.9451  -11.4433   27.2175 N   0  0  0  0  0  0  0  0  0  0  0  0
    7.3743  -12.9781   25.5137 N   0  0  0  0  0  0  0  0  0  0  0  0
    6.9325  -13.9142   24.5108 C   0  0  0  0  0  0  0  0  0  0  0  0
    8.1013  -14.5036   23.7231 C   0  0  0  0  0  0  0  0  0  0  0  0
    7.5504  -15.3368   22.6151 C   0  0  0  0  0  0  0  0  0  0  0  0
    8.5592  -15.9614   21.7276 C   0  0  2  0  0  0  0  0  0  0  0  0
    8.0902  -16.6339   20.5710 N   0  0  0  0  0  0  0  0  0  0  0  0
    9.6142  -16.6780   22.5036 C   0  0  0  0  0  0  0  0  0  0  0  0
    9.3385  -17.8284   22.8945 O   0  0  0  0  0  0  0  0  0  0  0  0
    7.9827  -11.3070   27.3225 N   0  0  0  0  0  0  0  0  0  0  0  0
   10.8752  -16.1171   22.8069 C   0  0  2  0  0  0  0  0  0  0  0  0
   11.9721  -16.7382   23.4528 C   0  0  0  0  0  0  0  0  0  0  0  0
   13.2998  -16.1023   23.4427 C   0  0  0  0  0  0  0  0  0  0  0  0
   14.4219  -16.7760   24.1321 C   0  0  0  0  0  0  0  0  0  0  0  0
   15.7131  -16.0764   24.0953 O   0  0  0  0  0  0  0  0  0  0  0  0
   15.8296  -14.9932   23.5097 C   0  0  0  0  0  0  0  0  0  0  0  0
   11.6385  -17.3060   24.8202 O   0  0  0  0  0  0  0  0  0  0  0  0
   10.9078  -16.7481   25.6556 O   0  0  0  0  0  0  0  0  0  0  0  0
   16.8586  -16.5940   24.7124 O   0  0  0  0  0  0  0  0  0  0  0  0
  2  1  1  6
  2  3  1  0
  3  4  1  0
  4  5  1  0
  5  9  1  0
  5  6  2  0
  7  2  1  0
  7  8  2  0
 10 11  1  0
 11 12  2  0
 13 11  1  0
 13 14  1  0
 14 15  1  0
 17 16  1  1
 16 15  1  0
 17 18  1  0
 18  7  1  0
 19 17  1  0
 20 19  2  0
 21 19  1  0
 22 27  1  0
 22 21  1  0
 23 24  1  0
 22 23  1  6
 24 25  1  0
 25 29  1  0
 25 26  2  0
 27 30  1  0
 28 27  2  0
M  END
$$$$
