ERE.pdb
     RDKit          3D

 30 29  0  0  1  0  0  0  0  0999 V2000
   10.9197  -17.0196   16.7624 N   0  0  0  0  0  0  0  0  0  0  0  0
   11.0642  -18.0602   17.7831 C   0  0  1  0  0  0  0  0  0  0  0  0
   12.3022  -18.8763   17.5254 C   0  0  0  0  0  0  0  0  0  0  0  0
   12.5667  -19.9597   18.5122 C   0  0  0  0  0  0  0  0  0  0  0  0
   13.8438  -20.6884   18.1620 C   0  0  0  0  0  0  0  0  0  0  0  0
   14.6405  -20.9921   19.0981 O   0  0  0  0  0  0  0  0  0  0  0  0
   11.0988  -17.4226   19.1417 C   0  0  0  0  0  0  0  0  0  0  0  0
   12.0579  -16.7007   19.4864 O   0  0  0  0  0  0  0  0  0  0  0  0
   14.1206  -21.0086   16.8433 O   0  0  0  0  0  0  0  0  0  0  0  0
    7.3334  -13.2483   18.1507 N   0  0  0  0  0  0  0  0  0  0  0  0
    7.5509  -13.0514   19.5543 C   0  0  0  0  0  0  0  0  0  0  0  0
    8.2252  -12.0359   19.9507 N   0  0  0  0  0  0  0  0  0  0  0  0
    7.0305  -13.9634   20.4988 N   0  0  0  0  0  0  0  0  0  0  0  0
    7.8630  -14.7636   21.3613 C   0  0  0  0  0  0  0  0  0  0  0  0
    7.5898  -16.2576   21.1959 C   0  0  0  0  0  0  0  0  0  0  0  0
    8.5995  -17.0125   21.9933 C   0  0  0  0  0  0  0  0  0  0  0  0
    9.9484  -17.1046   21.3871 C   0  0  2  0  0  0  0  0  0  0  0  0
   10.0428  -17.6225   20.0707 N   0  0  0  0  0  0  0  0  0  0  0  0
   10.9585  -17.6243   22.3557 C   0  0  0  0  0  0  0  0  0  0  0  0
   11.1360  -18.8573   22.3730 O   0  0  0  0  0  0  0  0  0  0  0  0
    8.5013  -11.9438   20.9614 N   0  0  0  0  0  0  0  0  0  0  0  0
   11.6968  -16.7965   23.2312 C   0  0  2  0  0  0  0  0  0  0  0  0
   12.8664  -17.1238   23.9599 C   0  0  0  0  0  0  0  0  0  0  0  0
   14.1621  -16.5270   23.5959 C   0  0  0  0  0  0  0  0  0  0  0  0
   15.3740  -16.9387   24.3375 C   0  0  0  0  0  0  0  0  0  0  0  0
   16.6217  -16.2627   23.9577 O   0  0  0  0  0  0  0  0  0  0  0  0
   17.7101  -16.6463   24.4027 C   0  0  0  0  0  0  0  0  0  0  0  0
   12.6673  -17.1439   25.4643 O   0  0  0  0  0  0  0  0  0  0  0  0
   11.7449  -16.5638   26.0608 O   0  0  0  0  0  0  0  0  0  0  0  0
   16.6396  -15.1671   23.0858 O   0  0  0  0  0  0  0  0  0  0  0  0
  2  1  1  6
  2  3  1  0
  3  4  1  0
  4  5  1  0
  5  9  1  0
  5  6  2  0
  7  2  1  0
  7  8  2  0
 10 11  1  0
 11 12  2  0
 13 11  1  0
 13 14  1  0
 14 15  1  0
 17 16  1  1
 16 15  1  0
 17 18  1  0
 18  7  1  0
 19 17  1  0
 20 19  2  0
 21 19  1  0
 22 27  1  0
 22 21  1  0
 23 24  1  0
 22 23  1  6
 24 25  1  0
 25 29  1  0
 25 26  2  0
 27 30  1  0
 28 27  2  0
M  END
$$$$
