ERE.pdb
     RDKit          3D

 30 29  0  0  1  0  0  0  0  0999 V2000
   14.9001  -16.3009   17.2069 N   0  0  0  0  0  0  0  0  0  0  0  0
   15.5317  -15.6708   18.3687 C   0  0  1  0  0  0  0  0  0  0  0  0
   16.1812  -14.3730   17.9702 C   0  0  0  0  0  0  0  0  0  0  0  0
   17.0899  -14.4516   16.7931 C   0  0  0  0  0  0  0  0  0  0  0  0
   17.5068  -13.0653   16.3583 C   0  0  0  0  0  0  0  0  0  0  0  0
   17.8171  -12.8822   15.1443 O   0  0  0  0  0  0  0  0  0  0  0  0
   14.5032  -15.4640   19.4425 C   0  0  0  0  0  0  0  0  0  0  0  0
   14.7838  -14.8386   20.4865 O   0  0  0  0  0  0  0  0  0  0  0  0
   17.5433  -12.0311   17.2786 O   0  0  0  0  0  0  0  0  0  0  0  0
    6.5003  -12.8459   19.0609 N   0  0  0  0  0  0  0  0  0  0  0  0
    7.8734  -12.4909   19.2724 C   0  0  0  0  0  0  0  0  0  0  0  0
    8.2992  -11.3522   18.8660 N   0  0  0  0  0  0  0  0  0  0  0  0
    8.7562  -13.3819   19.9215 N   0  0  0  0  0  0  0  0  0  0  0  0
    8.5025  -14.7959   20.0375 C   0  0  0  0  0  0  0  0  0  0  0  0
    9.6680  -15.5350   20.6926 C   0  0  0  0  0  0  0  0  0  0  0  0
   10.7478  -15.7062   19.6776 C   0  0  0  0  0  0  0  0  0  0  0  0
   12.1162  -15.8588   20.2250 C   0  0  2  0  0  0  0  0  0  0  0  0
   13.1846  -15.9731   19.3002 N   0  0  0  0  0  0  0  0  0  0  0  0
   12.1528  -16.8160   21.3701 C   0  0  0  0  0  0  0  0  0  0  0  0
   12.0743  -18.0276   21.0906 O   0  0  0  0  0  0  0  0  0  0  0  0
    9.3317  -11.1570   18.8202 N   0  0  0  0  0  0  0  0  0  0  0  0
   12.2657  -16.4129   22.7197 C   0  0  2  0  0  0  0  0  0  0  0  0
   12.2731  -17.2317   23.8754 C   0  0  0  0  0  0  0  0  0  0  0  0
   13.4677  -17.2981   24.7334 C   0  0  0  0  0  0  0  0  0  0  0  0
   14.1440  -18.6005   24.9199 C   0  0  0  0  0  0  0  0  0  0  0  0
   15.6019  -18.5497   25.0927 O   0  0  0  0  0  0  0  0  0  0  0  0
   16.1050  -18.5309   26.2224 C   0  0  0  0  0  0  0  0  0  0  0  0
   11.0018  -17.1425   24.6995 O   0  0  0  0  0  0  0  0  0  0  0  0
   10.0972  -16.3120   24.5119 O   0  0  0  0  0  0  0  0  0  0  0  0
   16.4806  -18.5205   24.0028 O   0  0  0  0  0  0  0  0  0  0  0  0
  2  1  1  6
  2  3  1  0
  3  4  1  0
  4  5  1  0
  5  9  1  0
  5  6  2  0
  7  2  1  0
  7  8  2  0
 10 11  1  0
 11 12  2  0
 13 11  1  0
 13 14  1  0
 14 15  1  0
 17 16  1  6
 16 15  1  0
 17 18  1  0
 18  7  1  0
 19 17  1  0
 20 19  2  0
 21 19  1  0
 22 27  1  0
 22 21  1  0
 23 24  1  0
 22 23  1  6
 24 25  1  0
 25 29  1  0
 25 26  2  0
 27 30  1  0
 28 27  2  0
M  END
$$$$
