ERE.pdb
     RDKit          3D

 30 29  0  0  1  0  0  0  0  0999 V2000
   10.5725  -18.5677   16.2655 N   0  0  0  0  0  0  0  0  0  0  0  0
   10.5951  -19.1143   17.6243 C   0  0  1  0  0  0  0  0  0  0  0  0
   11.8780  -19.8634   17.8648 C   0  0  0  0  0  0  0  0  0  0  0  0
   11.9230  -21.2433   17.3069 C   0  0  0  0  0  0  0  0  0  0  0  0
   13.0221  -22.0418   17.9696 C   0  0  0  0  0  0  0  0  0  0  0  0
   13.7409  -21.4700   18.8413 O   0  0  0  0  0  0  0  0  0  0  0  0
   10.4166  -17.9980   18.6121 C   0  0  0  0  0  0  0  0  0  0  0  0
   11.1913  -17.0184   18.6187 O   0  0  0  0  0  0  0  0  0  0  0  0
   13.2248  -23.3664   17.6198 O   0  0  0  0  0  0  0  0  0  0  0  0
    7.7912  -11.2175   20.7793 N   0  0  0  0  0  0  0  0  0  0  0  0
    8.2446  -12.4012   20.1091 C   0  0  0  0  0  0  0  0  0  0  0  0
    9.1065  -12.2998   19.1657 N   0  0  0  0  0  0  0  0  0  0  0  0
    7.7511  -13.6720   20.4783 N   0  0  0  0  0  0  0  0  0  0  0  0
    8.2492  -14.4107   21.6113 C   0  0  0  0  0  0  0  0  0  0  0  0
    7.4403  -15.6813   21.8669 C   0  0  0  0  0  0  0  0  0  0  0  0
    7.6844  -16.6298   20.7417 C   0  0  0  0  0  0  0  0  0  0  0  0
    9.0905  -17.0648   20.5709 C   0  0  2  0  0  0  0  0  0  0  0  0
    9.3631  -18.0257   19.5647 N   0  0  0  0  0  0  0  0  0  0  0  0
    9.7623  -17.3006   21.8830 C   0  0  0  0  0  0  0  0  0  0  0  0
    9.3054  -18.2193   22.5896 O   0  0  0  0  0  0  0  0  0  0  0  0
    9.4641  -13.1606   18.6786 N   0  0  0  0  0  0  0  0  0  0  0  0
   10.8619  -16.5417   22.3432 C   0  0  2  0  0  0  0  0  0  0  0  0
   11.7969  -16.8855   23.3501 C   0  0  0  0  0  0  0  0  0  0  0  0
   13.2033  -16.4658   23.2349 C   0  0  0  0  0  0  0  0  0  0  0  0
   14.1691  -16.9069   24.2649 C   0  0  0  0  0  0  0  0  0  0  0  0
   15.5556  -16.4578   24.0816 O   0  0  0  0  0  0  0  0  0  0  0  0
   15.8026  -15.3159   23.6756 C   0  0  0  0  0  0  0  0  0  0  0  0
   11.2751  -16.6976   24.7628 O   0  0  0  0  0  0  0  0  0  0  0  0
   10.2745  -16.0243   25.0608 O   0  0  0  0  0  0  0  0  0  0  0  0
   16.6497  -17.2883   24.3536 O   0  0  0  0  0  0  0  0  0  0  0  0
  2  1  1  6
  2  3  1  0
  3  4  1  0
  4  5  1  0
  5  9  1  0
  5  6  2  0
  7  2  1  0
  7  8  2  0
 10 11  1  0
 11 12  2  0
 13 11  1  0
 13 14  1  0
 14 15  1  0
 17 16  1  1
 16 15  1  0
 17 18  1  0
 18  7  1  0
 19 17  1  0
 20 19  2  0
 21 19  1  0
 22 27  1  0
 22 21  1  0
 23 24  1  0
 22 23  1  6
 24 25  1  0
 25 29  1  0
 25 26  2  0
 27 30  1  0
 28 27  2  0
M  END
$$$$
