ERE.pdb
     RDKit          3D

 30 29  0  0  1  0  0  0  0  0999 V2000
    6.1074  -18.8119   23.4646 N   0  0  0  0  0  0  0  0  0  0  0  0
    7.1671  -19.6612   22.9156 C   0  0  1  0  0  0  0  0  0  0  0  0
    6.7073  -20.3100   21.6379 C   0  0  0  0  0  0  0  0  0  0  0  0
    5.9950  -19.4109   20.6884 C   0  0  0  0  0  0  0  0  0  0  0  0
    6.2511  -19.8437   19.2631 C   0  0  0  0  0  0  0  0  0  0  0  0
    7.0404  -20.8129   19.0601 O   0  0  0  0  0  0  0  0  0  0  0  0
    8.4032  -18.8370   22.7000 C   0  0  0  0  0  0  0  0  0  0  0  0
    9.4455  -19.3525   22.2445 O   0  0  0  0  0  0  0  0  0  0  0  0
    5.6293  -19.1849   18.2155 O   0  0  0  0  0  0  0  0  0  0  0  0
    7.5073  -12.2702   19.2628 N   0  0  0  0  0  0  0  0  0  0  0  0
    7.7257  -13.4075   18.4172 C   0  0  0  0  0  0  0  0  0  0  0  0
    7.6869  -13.2623   17.1442 N   0  0  0  0  0  0  0  0  0  0  0  0
    7.9818  -14.6802   18.9733 N   0  0  0  0  0  0  0  0  0  0  0  0
    8.8729  -14.8875   20.0869 C   0  0  0  0  0  0  0  0  0  0  0  0
    8.1270  -14.9146   21.4199 C   0  0  0  0  0  0  0  0  0  0  0  0
    9.1213  -15.1232   22.5123 C   0  0  0  0  0  0  0  0  0  0  0  0
    9.4798  -16.5349   22.7842 C   0  0  2  0  0  0  0  0  0  0  0  0
    8.4205  -17.4502   23.0075 N   0  0  0  0  0  0  0  0  0  0  0  0
   10.6320  -16.6437   23.7272 C   0  0  0  0  0  0  0  0  0  0  0  0
   11.6698  -16.0277   23.4178 O   0  0  0  0  0  0  0  0  0  0  0  0
    7.8558  -14.0848   16.5107 N   0  0  0  0  0  0  0  0  0  0  0  0
   10.5940  -17.3997   24.9204 C   0  0  1  0  0  0  0  0  0  0  0  0
   11.4272  -17.2727   26.0588 C   0  0  0  0  0  0  0  0  0  0  0  0
   11.4381  -16.0237   26.8381 C   0  0  0  0  0  0  0  0  0  0  0  0
   10.1665  -15.5199   27.4014 C   0  0  0  0  0  0  0  0  0  0  0  0
   10.2577  -14.2869   28.1948 O   0  0  0  0  0  0  0  0  0  0  0  0
   11.2950  -13.6134   28.2006 C   0  0  0  0  0  0  0  0  0  0  0  0
   11.4217  -18.4916   26.9630 O   0  0  0  0  0  0  0  0  0  0  0  0
   10.6216  -19.4369   26.8666 O   0  0  0  0  0  0  0  0  0  0  0  0
    9.1903  -13.8206   28.9720 O   0  0  0  0  0  0  0  0  0  0  0  0
  2  1  1  6
  2  3  1  0
  3  4  1  0
  4  5  1  0
  5  9  1  0
  5  6  2  0
  7  2  1  0
  7  8  2  0
 10 11  1  0
 11 12  2  0
 13 11  1  0
 13 14  1  0
 14 15  1  0
 17 16  1  1
 16 15  1  0
 17 18  1  0
 18  7  1  0
 19 17  1  0
 20 19  2  0
 21 19  1  0
 22 27  1  0
 22 21  1  0
 23 24  1  0
 22 23  1  6
 24 25  1  0
 25 29  1  0
 25 26  2  0
 27 30  1  0
 28 27  2  0
M  END
$$$$
