GWW.pdb
     RDKit          3D

 33 36  0  0  1  0  0  0  0  0999 V2000
   20.4046  -19.7300  -11.7707 N   0  0  0  0  0  0  0  0  0  0  0  0
   21.3905  -20.6704  -12.2029 C   0  0  0  0  0  0  0  0  0  0  0  0
   22.7786  -20.2153  -11.9286 C   0  0  0  0  0  0  0  0  0  0  0  0
   22.9987  -19.0768  -11.4430 O   0  0  0  0  0  0  0  0  0  0  0  0
   23.9146  -21.0278  -12.1954 N   0  0  0  0  0  0  0  0  0  0  0  0
   25.2651  -20.6617  -11.8615 C   0  0  1  0  0  0  0  0  0  0  0  0
   25.9058  -21.4765  -10.7830 C   0  0  0  0  0  0  0  0  0  0  0  0
   25.8828  -20.9034   -9.4436 C   0  0  0  0  0  0  0  0  0  0  0  0
   24.7537  -20.4417   -8.7942 C   0  0  0  0  0  0  0  0  0  0  0  0
   25.0952  -20.0027   -7.5576 N   0  0  0  0  0  0  0  0  0  0  0  0
   26.4367  -20.1858   -7.4260 C   0  0  0  0  0  0  0  0  0  0  0  0
   27.2871  -19.9065   -6.3786 C   0  0  0  0  0  0  0  0  0  0  0  0
   28.6431  -20.1734   -6.4654 C   0  0  0  0  0  0  0  0  0  0  0  0
   29.1657  -20.7299   -7.6189 C   0  0  0  0  0  0  0  0  0  0  0  0
   28.2921  -20.9970   -8.6458 C   0  0  0  0  0  0  0  0  0  0  0  0
   26.9432  -20.7431   -8.5854 C   0  0  0  0  0  0  0  0  0  0  0  0
   26.0848  -20.8657  -13.1111 C   0  0  0  0  0  0  0  0  0  0  0  0
   25.6420  -21.7224  -13.8967 O   0  0  0  0  0  0  0  0  0  0  0  0
   27.2628  -20.1589  -13.3943 N   0  0  0  0  0  0  0  0  0  0  0  0
   28.2583  -20.5789  -14.3439 C   0  0  1  0  0  0  0  0  0  0  0  0
   29.6803  -20.1615  -13.9878 C   0  0  0  0  0  0  0  0  0  0  0  0
   30.6079  -21.1772  -14.5317 C   0  0  0  0  0  0  0  0  0  0  0  0
   30.8007  -21.6193  -15.8205 C   0  0  0  0  0  0  0  0  0  0  0  0
   31.7617  -22.5564  -15.8269 N   0  0  0  0  0  0  0  0  0  0  0  0
   32.2103  -22.7465  -14.5793 C   0  0  0  0  0  0  0  0  0  0  0  0
   33.1849  -23.5917  -14.0663 C   0  0  0  0  0  0  0  0  0  0  0  0
   33.4859  -23.6169  -12.7253 C   0  0  0  0  0  0  0  0  0  0  0  0
   32.7982  -22.7791  -11.8775 C   0  0  0  0  0  0  0  0  0  0  0  0
   31.8162  -21.9277  -12.3955 C   0  0  0  0  0  0  0  0  0  0  0  0
   31.5140  -21.9026  -13.7398 C   0  0  0  0  0  0  0  0  0  0  0  0
   28.2319  -22.0238  -14.5783 C   0  0  0  0  0  0  0  0  0  0  0  0
   28.0104  -22.8203  -13.6173 O   0  0  0  0  0  0  0  0  0  0  0  0
   28.4378  -22.6122  -15.8153 O   0  0  0  0  0  0  0  0  0  0  0  0
  1  2  1  0
  2  3  1  0
  3  4  2  0
  5  3  1  0
  5  6  1  0
  6  7  1  1
  8  9  2  0
  8  7  1  0
 10  9  1  0
 11 16  2  0
 11 10  1  0
 12 11  1  0
 13 14  1  0
 13 12  2  0
 14 15  2  0
 15 16  1  0
 16  8  1  0
 17 18  2  0
 17  6  1  0
 19 17  1  0
 20 19  1  0
 20 21  1  1
 22 30  1  0
 22 21  1  0
 23 22  2  0
 24 23  1  0
 24 25  1  0
 25 26  1  0
 25 30  2  0
 26 27  2  0
 27 28  1  0
 29 28  2  0
 30 29  1  0
 31 20  1  0
 32 31  2  0
 33 31  1  0
M  END
$$$$
