GWW.pdb
     RDKit          3D

 33 36  0  0  1  0  0  0  0  0999 V2000
   27.8979  -17.1500  -15.1890 N   0  0  0  0  0  0  0  0  0  0  0  0
   27.5023  -17.5206  -13.8664 C   0  0  0  0  0  0  0  0  0  0  0  0
   27.3137  -18.9868  -13.7123 C   0  0  0  0  0  0  0  0  0  0  0  0
   27.4044  -19.7553  -14.7032 O   0  0  0  0  0  0  0  0  0  0  0  0
   27.0252  -19.5913  -12.4580 N   0  0  0  0  0  0  0  0  0  0  0  0
   26.8789  -21.0085  -12.2596 C   0  0  1  0  0  0  0  0  0  0  0  0
   27.4880  -21.5499  -11.0053 C   0  0  0  0  0  0  0  0  0  0  0  0
   26.9933  -20.9884   -9.7551 C   0  0  0  0  0  0  0  0  0  0  0  0
   25.6852  -20.6147   -9.5124 C   0  0  0  0  0  0  0  0  0  0  0  0
   25.5772  -20.1596   -8.2397 N   0  0  0  0  0  0  0  0  0  0  0  0
   26.8140  -20.2449   -7.6797 C   0  0  0  0  0  0  0  0  0  0  0  0
   27.2587  -19.9107   -6.4193 C   0  0  0  0  0  0  0  0  0  0  0  0
   28.5857  -20.0770   -6.0597 C   0  0  0  0  0  0  0  0  0  0  0  0
   29.4907  -20.5866   -6.9732 C   0  0  0  0  0  0  0  0  0  0  0  0
   29.0165  -20.9105   -8.2220 C   0  0  0  0  0  0  0  0  0  0  0  0
   27.7058  -20.7563   -8.6040 C   0  0  0  0  0  0  0  0  0  0  0  0
   25.3970  -21.2782  -12.1797 C   0  0  0  0  0  0  0  0  0  0  0  0
   24.7985  -20.6647  -11.2784 O   0  0  0  0  0  0  0  0  0  0  0  0
   24.7162  -22.1506  -13.0418 N   0  0  0  0  0  0  0  0  0  0  0  0
   23.6215  -21.7675  -13.8927 C   0  0  1  0  0  0  0  0  0  0  0  0
   23.4316  -20.2616  -14.0307 C   0  0  0  0  0  0  0  0  0  0  0  0
   22.1361  -20.0208  -14.7027 C   0  0  0  0  0  0  0  0  0  0  0  0
   20.8524  -20.0261  -14.2071 C   0  0  0  0  0  0  0  0  0  0  0  0
   19.9941  -19.7472  -15.2009 N   0  0  0  0  0  0  0  0  0  0  0  0
   20.6734  -19.5573  -16.3393 C   0  0  0  0  0  0  0  0  0  0  0  0
   20.2531  -19.2482  -17.6259 C   0  0  0  0  0  0  0  0  0  0  0  0
   21.1456  -19.0951  -18.6600 C   0  0  0  0  0  0  0  0  0  0  0  0
   22.4882  -19.2541  -18.4037 C   0  0  0  0  0  0  0  0  0  0  0  0
   22.9108  -19.5656  -17.1067 C   0  0  0  0  0  0  0  0  0  0  0  0
   22.0162  -19.7194  -16.0699 C   0  0  0  0  0  0  0  0  0  0  0  0
   23.7193  -22.3585  -15.2285 C   0  0  0  0  0  0  0  0  0  0  0  0
   22.7436  -23.0100  -15.7089 O   0  0  0  0  0  0  0  0  0  0  0  0
   24.8370  -22.2581  -16.0406 O   0  0  0  0  0  0  0  0  0  0  0  0
  1  2  1  0
  2  3  1  0
  3  4  2  0
  5  3  1  0
  5  6  1  0
  6  7  1  1
  8  9  2  0
  8  7  1  0
 10  9  1  0
 11 16  2  0
 11 10  1  0
 12 11  1  0
 13 14  1  0
 13 12  2  0
 14 15  2  0
 15 16  1  0
 16  8  1  0
 17 18  2  0
 17  6  1  0
 19 17  1  0
 20 19  1  0
 20 21  1  6
 22 30  1  0
 22 21  1  0
 23 22  2  0
 24 23  1  0
 24 25  1  0
 25 26  1  0
 25 30  2  0
 26 27  2  0
 27 28  1  0
 29 28  2  0
 30 29  1  0
 31 20  1  0
 32 31  2  0
 33 31  1  0
M  END
$$$$
