GWW.pdb
     RDKit          3D

 33 36  0  0  1  0  0  0  0  0999 V2000
   28.8746  -20.1820  -18.6641 N   0  0  0  0  0  0  0  0  0  0  0  0
   28.7181  -21.1186  -17.5957 C   0  0  0  0  0  0  0  0  0  0  0  0
   28.3510  -20.4686  -16.3104 C   0  0  0  0  0  0  0  0  0  0  0  0
   29.2356  -19.9965  -15.5520 O   0  0  0  0  0  0  0  0  0  0  0  0
   27.0030  -20.3466  -15.8748 N   0  0  0  0  0  0  0  0  0  0  0  0
   26.5981  -19.6340  -14.6927 C   0  0  1  0  0  0  0  0  0  0  0  0
   25.5554  -18.5816  -14.9001 C   0  0  0  0  0  0  0  0  0  0  0  0
   26.0303  -17.2912  -15.3821 C   0  0  0  0  0  0  0  0  0  0  0  0
   27.0827  -16.5772  -14.8413 C   0  0  0  0  0  0  0  0  0  0  0  0
   27.2653  -15.4381  -15.5536 N   0  0  0  0  0  0  0  0  0  0  0  0
   26.3303  -15.4317  -16.5417 C   0  0  0  0  0  0  0  0  0  0  0  0
   26.0724  -14.5114  -17.5340 C   0  0  0  0  0  0  0  0  0  0  0  0
   25.0479  -14.7074  -18.4449 C   0  0  0  0  0  0  0  0  0  0  0  0
   24.2622  -15.8431  -18.3677 C   0  0  0  0  0  0  0  0  0  0  0  0
   24.5443  -16.7422  -17.3671 C   0  0  0  0  0  0  0  0  0  0  0  0
   25.5547  -16.5726  -16.4516 C   0  0  0  0  0  0  0  0  0  0  0  0
   26.0070  -20.6588  -13.7570 C   0  0  0  0  0  0  0  0  0  0  0  0
   25.1621  -21.4139  -14.2698 O   0  0  0  0  0  0  0  0  0  0  0  0
   26.3621  -20.7761  -12.4051 N   0  0  0  0  0  0  0  0  0  0  0  0
   25.8381  -21.7701  -11.5070 C   0  0  1  0  0  0  0  0  0  0  0  0
   26.7414  -22.0807  -10.3194 C   0  0  0  0  0  0  0  0  0  0  0  0
   26.7060  -20.9233   -9.3991 C   0  0  0  0  0  0  0  0  0  0  0  0
   25.7493  -19.9516   -9.2141 C   0  0  0  0  0  0  0  0  0  0  0  0
   26.1599  -19.1039   -8.2576 N   0  0  0  0  0  0  0  0  0  0  0  0
   27.3605  -19.4873   -7.8046 C   0  0  0  0  0  0  0  0  0  0  0  0
   28.1950  -18.9535   -6.8319 C   0  0  0  0  0  0  0  0  0  0  0  0
   29.4060  -19.5271   -6.5252 C   0  0  0  0  0  0  0  0  0  0  0  0
   29.7923  -20.6594   -7.2051 C   0  0  0  0  0  0  0  0  0  0  0  0
   28.9506  -21.1966   -8.1852 C   0  0  0  0  0  0  0  0  0  0  0  0
   27.7367  -20.6215   -8.4931 C   0  0  0  0  0  0  0  0  0  0  0  0
   24.5035  -21.4276  -11.0121 C   0  0  0  0  0  0  0  0  0  0  0  0
   24.1110  -20.2222  -11.0229 O   0  0  0  0  0  0  0  0  0  0  0  0
   23.6007  -22.3524  -10.5137 O   0  0  0  0  0  0  0  0  0  0  0  0
  1  2  1  0
  2  3  1  0
  3  4  2  0
  5  3  1  0
  5  6  1  0
  6  7  1  6
  8  9  2  0
  8  7  1  0
 10  9  1  0
 11 16  2  0
 11 10  1  0
 12 11  1  0
 13 14  1  0
 13 12  2  0
 14 15  2  0
 15 16  1  0
 16  8  1  0
 17 18  2  0
 17  6  1  0
 19 17  1  0
 20 19  1  0
 20 21  1  1
 22 30  1  0
 22 21  1  0
 23 22  2  0
 24 23  1  0
 24 25  1  0
 25 26  1  0
 25 30  2  0
 26 27  2  0
 27 28  1  0
 29 28  2  0
 30 29  1  0
 31 20  1  0
 32 31  2  0
 33 31  1  0
M  END
$$$$
