GWW.pdb
     RDKit          3D

 33 36  0  0  1  0  0  0  0  0999 V2000
   29.7763  -23.9165  -17.8796 N   0  0  0  0  0  0  0  0  0  0  0  0
   29.2140  -22.6173  -17.6823 C   0  0  0  0  0  0  0  0  0  0  0  0
   28.3968  -22.5263  -16.4441 C   0  0  0  0  0  0  0  0  0  0  0  0
   27.9420  -23.5620  -15.8954 O   0  0  0  0  0  0  0  0  0  0  0  0
   28.0894  -21.2851  -15.8223 N   0  0  0  0  0  0  0  0  0  0  0  0
   27.3753  -21.1597  -14.5800 C   0  0  1  0  0  0  0  0  0  0  0  0
   27.8193  -20.0412  -13.6914 C   0  0  0  0  0  0  0  0  0  0  0  0
   27.2151  -19.9931  -12.3665 C   0  0  0  0  0  0  0  0  0  0  0  0
   25.9767  -19.4533  -12.0750 C   0  0  0  0  0  0  0  0  0  0  0  0
   25.7220  -19.6033  -10.7518 N   0  0  0  0  0  0  0  0  0  0  0  0
   26.7968  -20.2356  -10.2081 C   0  0  0  0  0  0  0  0  0  0  0  0
   27.0555  -20.6221   -8.9113 C   0  0  0  0  0  0  0  0  0  0  0  0
   28.2393  -21.2571   -8.5750 C   0  0  0  0  0  0  0  0  0  0  0  0
   29.1871  -21.5134   -9.5492 C   0  0  0  0  0  0  0  0  0  0  0  0
   28.8998  -21.1159  -10.8332 C   0  0  0  0  0  0  0  0  0  0  0  0
   27.7335  -20.4854  -11.1937 C   0  0  0  0  0  0  0  0  0  0  0  0
   25.9356  -20.8891  -14.9398 C   0  0  0  0  0  0  0  0  0  0  0  0
   25.7699  -20.1342  -15.9143 O   0  0  0  0  0  0  0  0  0  0  0  0
   24.8440  -21.4323  -14.2465 N   0  0  0  0  0  0  0  0  0  0  0  0
   23.5180  -21.5660  -14.7881 C   0  0  1  0  0  0  0  0  0  0  0  0
   22.5667  -22.3841  -13.9228 C   0  0  0  0  0  0  0  0  0  0  0  0
   22.2157  -21.5763  -12.7345 C   0  0  0  0  0  0  0  0  0  0  0  0
   22.5202  -20.2737  -12.4117 C   0  0  0  0  0  0  0  0  0  0  0  0
   21.9757  -19.9746  -11.2218 N   0  0  0  0  0  0  0  0  0  0  0  0
   21.3195  -21.0419  -10.7485 C   0  0  0  0  0  0  0  0  0  0  0  0
   20.5993  -21.2399   -9.5782 C   0  0  0  0  0  0  0  0  0  0  0  0
   19.9960  -22.4425   -9.2963 C   0  0  0  0  0  0  0  0  0  0  0  0
   20.1143  -23.4704  -10.2035 C   0  0  0  0  0  0  0  0  0  0  0  0
   20.8403  -23.2697  -11.3826 C   0  0  0  0  0  0  0  0  0  0  0  0
   21.4455  -22.0643  -11.6653 C   0  0  0  0  0  0  0  0  0  0  0  0
   22.9006  -20.2710  -15.0794 C   0  0  0  0  0  0  0  0  0  0  0  0
   21.7823  -20.2188  -15.6741 O   0  0  0  0  0  0  0  0  0  0  0  0
   23.4636  -19.0508  -14.7434 O   0  0  0  0  0  0  0  0  0  0  0  0
  1  2  1  0
  2  3  1  0
  3  4  2  0
  5  3  1  0
  5  6  1  0
  6  7  1  1
  8  9  2  0
  8  7  1  0
 10  9  1  0
 11 16  2  0
 11 10  1  0
 12 11  1  0
 13 14  1  0
 13 12  2  0
 14 15  2  0
 15 16  1  0
 16  8  1  0
 17 18  2  0
 17  6  1  0
 19 17  1  0
 20 19  1  0
 20 21  1  1
 22 30  1  0
 22 21  1  0
 23 22  2  0
 24 23  1  0
 24 25  1  0
 25 26  1  0
 25 30  2  0
 26 27  2  0
 27 28  1  0
 29 28  2  0
 30 29  1  0
 31 20  1  0
 32 31  2  0
 33 31  1  0
M  END
$$$$
