GWW.pdb
     RDKit          3D

 33 36  0  0  1  0  0  0  0  0999 V2000
   28.5798  -22.3128  -14.8254 N   0  0  0  0  0  0  0  0  0  0  0  0
   28.2481  -21.0822  -14.1783 C   0  0  0  0  0  0  0  0  0  0  0  0
   27.4864  -21.2824  -12.9178 C   0  0  0  0  0  0  0  0  0  0  0  0
   26.3403  -21.7988  -12.9332 O   0  0  0  0  0  0  0  0  0  0  0  0
   28.0024  -20.9076  -11.6469 N   0  0  0  0  0  0  0  0  0  0  0  0
   27.2560  -20.9804  -10.4194 C   0  0  1  0  0  0  0  0  0  0  0  0
   27.9971  -20.5630   -9.1888 C   0  0  0  0  0  0  0  0  0  0  0  0
   27.2412  -20.5859   -7.9434 C   0  0  0  0  0  0  0  0  0  0  0  0
   25.9435  -21.0412   -7.8077 C   0  0  0  0  0  0  0  0  0  0  0  0
   25.5666  -20.9421   -6.5090 N   0  0  0  0  0  0  0  0  0  0  0  0
   26.6231  -20.4248   -5.8258 C   0  0  0  0  0  0  0  0  0  0  0  0
   26.7715  -20.1181   -4.4908 C   0  0  0  0  0  0  0  0  0  0  0  0
   27.9531  -19.5840   -4.0050 C   0  0  0  0  0  0  0  0  0  0  0  0
   29.0106  -19.3491   -4.8650 C   0  0  0  0  0  0  0  0  0  0  0  0
   28.8319  -19.6655   -6.1905 C   0  0  0  0  0  0  0  0  0  0  0  0
   27.6710  -20.1970   -6.6982 C   0  0  0  0  0  0  0  0  0  0  0  0
   26.0902  -20.0355  -10.5711 C   0  0  0  0  0  0  0  0  0  0  0  0
   26.3984  -18.8518  -10.7969 O   0  0  0  0  0  0  0  0  0  0  0  0
   24.7482  -20.4311  -10.4699 N   0  0  0  0  0  0  0  0  0  0  0  0
   23.7203  -20.0791  -11.4125 C   0  0  1  0  0  0  0  0  0  0  0  0
   24.0469  -20.4340  -12.8583 C   0  0  0  0  0  0  0  0  0  0  0  0
   22.9937  -19.8585  -13.7227 C   0  0  0  0  0  0  0  0  0  0  0  0
   22.5654  -18.5594  -13.8732 C   0  0  0  0  0  0  0  0  0  0  0  0
   21.5789  -18.5220  -14.7829 N   0  0  0  0  0  0  0  0  0  0  0  0
   21.3429  -19.7591  -15.2386 C   0  0  0  0  0  0  0  0  0  0  0  0
   20.4382  -20.2424  -16.1742 C   0  0  0  0  0  0  0  0  0  0  0  0
   20.3729  -21.5780  -16.4927 C   0  0  0  0  0  0  0  0  0  0  0  0
   21.2304  -22.4507  -15.8628 C   0  0  0  0  0  0  0  0  0  0  0  0
   22.1417  -21.9626  -14.9200 C   0  0  0  0  0  0  0  0  0  0  0  0
   22.2071  -20.6237  -14.6003 C   0  0  0  0  0  0  0  0  0  0  0  0
   22.4210  -20.6564  -11.0635 C   0  0  0  0  0  0  0  0  0  0  0  0
   21.4372  -19.8997  -10.8056 O   0  0  0  0  0  0  0  0  0  0  0  0
   22.1721  -22.0171  -10.9900 O   0  0  0  0  0  0  0  0  0  0  0  0
  1  2  1  0
  2  3  1  0
  3  4  2  0
  5  3  1  0
  5  6  1  0
  6  7  1  1
  8  9  2  0
  8  7  1  0
 10  9  1  0
 11 16  2  0
 11 10  1  0
 12 11  1  0
 13 14  1  0
 13 12  2  0
 14 15  2  0
 15 16  1  0
 16  8  1  0
 17 18  2  0
 17  6  1  0
 19 17  1  0
 20 19  1  0
 20 21  1  6
 22 30  1  0
 22 21  1  0
 23 22  2  0
 24 23  1  0
 24 25  1  0
 25 26  1  0
 25 30  2  0
 26 27  2  0
 27 28  1  0
 29 28  2  0
 30 29  1  0
 31 20  1  0
 32 31  2  0
 33 31  1  0
M  END
$$$$
