GWW.pdb
     RDKit          3D

 33 36  0  0  1  0  0  0  0  0999 V2000
   29.6510  -23.1828  -16.5438 N   0  0  0  0  0  0  0  0  0  0  0  0
   28.4291  -22.4459  -16.6276 C   0  0  0  0  0  0  0  0  0  0  0  0
   28.1755  -21.6139  -15.4224 C   0  0  0  0  0  0  0  0  0  0  0  0
   29.1203  -21.0318  -14.8315 O   0  0  0  0  0  0  0  0  0  0  0  0
   26.8735  -21.4331  -14.8802 N   0  0  0  0  0  0  0  0  0  0  0  0
   26.5486  -20.4658  -13.8663 C   0  0  1  0  0  0  0  0  0  0  0  0
   25.4804  -19.4841  -14.2309 C   0  0  0  0  0  0  0  0  0  0  0  0
   25.7144  -18.6954  -15.4335 C   0  0  0  0  0  0  0  0  0  0  0  0
   24.9902  -18.7973  -16.6061 C   0  0  0  0  0  0  0  0  0  0  0  0
   25.4614  -17.8974  -17.5042 N   0  0  0  0  0  0  0  0  0  0  0  0
   26.4812  -17.2289  -16.9011 C   0  0  0  0  0  0  0  0  0  0  0  0
   27.3006  -16.2235  -17.3657 C   0  0  0  0  0  0  0  0  0  0  0  0
   28.2965  -15.6844  -16.5687 C   0  0  0  0  0  0  0  0  0  0  0  0
   28.4824  -16.1553  -15.2815 C   0  0  0  0  0  0  0  0  0  0  0  0
   27.6493  -17.1585  -14.8471 C   0  0  0  0  0  0  0  0  0  0  0  0
   26.6535  -17.7099  -15.6165 C   0  0  0  0  0  0  0  0  0  0  0  0
   26.0413  -21.2452  -12.6787 C   0  0  0  0  0  0  0  0  0  0  0  0
   25.2139  -22.1341  -12.9474 O   0  0  0  0  0  0  0  0  0  0  0  0
   26.4517  -21.0086  -11.3585 N   0  0  0  0  0  0  0  0  0  0  0  0
   25.9791  -21.7398  -10.2134 C   0  0  1  0  0  0  0  0  0  0  0  0
   27.0111  -21.9030   -9.1038 C   0  0  0  0  0  0  0  0  0  0  0  0
   27.0790  -20.6332   -8.3482 C   0  0  0  0  0  0  0  0  0  0  0  0
   26.4971  -19.4104   -8.5922 C   0  0  0  0  0  0  0  0  0  0  0  0
   26.8459  -18.5532   -7.6197 N   0  0  0  0  0  0  0  0  0  0  0  0
   27.6416  -19.1743   -6.7394 C   0  0  0  0  0  0  0  0  0  0  0  0
   28.2565  -18.7311   -5.5763 C   0  0  0  0  0  0  0  0  0  0  0  0
   29.0434  -19.5612   -4.8140 C   0  0  0  0  0  0  0  0  0  0  0  0
   29.2203  -20.8634   -5.2223 C   0  0  0  0  0  0  0  0  0  0  0  0
   28.6001  -21.3091   -6.3946 C   0  0  0  0  0  0  0  0  0  0  0  0
   27.8114  -20.4769   -7.1592 C   0  0  0  0  0  0  0  0  0  0  0  0
   24.7592  -21.1621   -9.6465 C   0  0  0  0  0  0  0  0  0  0  0  0
   24.1545  -21.7535   -8.7022 O   0  0  0  0  0  0  0  0  0  0  0  0
   24.1915  -19.9742  -10.0771 O   0  0  0  0  0  0  0  0  0  0  0  0
  1  2  1  0
  2  3  1  0
  3  4  2  0
  5  3  1  0
  5  6  1  0
  6  7  1  6
  8  9  2  0
  8  7  1  0
 10  9  1  0
 11 16  2  0
 11 10  1  0
 12 11  1  0
 13 14  1  0
 13 12  2  0
 14 15  2  0
 15 16  1  0
 16  8  1  0
 17 18  2  0
 17  6  1  0
 19 17  1  0
 20 19  1  0
 20 21  1  1
 22 30  1  0
 22 21  1  0
 23 22  2  0
 24 23  1  0
 24 25  1  0
 25 26  1  0
 25 30  2  0
 26 27  2  0
 27 28  1  0
 29 28  2  0
 30 29  1  0
 31 20  1  0
 32 31  2  0
 33 31  1  0
M  END
$$$$
