GWW.pdb
     RDKit          3D

 33 36  0  0  1  0  0  0  0  0999 V2000
   30.3641  -20.8285  -12.2170 N   0  0  0  0  0  0  0  0  0  0  0  0
   29.2995  -19.9734  -11.7945 C   0  0  0  0  0  0  0  0  0  0  0  0
   28.1471  -20.7248  -11.2319 C   0  0  0  0  0  0  0  0  0  0  0  0
   27.9881  -21.9455  -11.4871 O   0  0  0  0  0  0  0  0  0  0  0  0
   27.1776  -20.1158  -10.3887 N   0  0  0  0  0  0  0  0  0  0  0  0
   26.0579  -20.8113   -9.8127 C   0  0  1  0  0  0  0  0  0  0  0  0
   25.6280  -20.3334   -8.4620 C   0  0  0  0  0  0  0  0  0  0  0  0
   26.6272  -19.6092   -7.6873 C   0  0  0  0  0  0  0  0  0  0  0  0
   26.9243  -18.2668   -7.8276 C   0  0  0  0  0  0  0  0  0  0  0  0
   27.8810  -17.9228   -6.9304 N   0  0  0  0  0  0  0  0  0  0  0  0
   28.1883  -19.0450   -6.2255 C   0  0  0  0  0  0  0  0  0  0  0  0
   29.0925  -19.2511   -5.2067 C   0  0  0  0  0  0  0  0  0  0  0  0
   29.2487  -20.4998   -4.6285 C   0  0  0  0  0  0  0  0  0  0  0  0
   28.4897  -21.5672   -5.0731 C   0  0  0  0  0  0  0  0  0  0  0  0
   27.5967  -21.3297   -6.0905 C   0  0  0  0  0  0  0  0  0  0  0  0
   27.4214  -20.1014   -6.6806 C   0  0  0  0  0  0  0  0  0  0  0  0
   24.8933  -20.5938  -10.7462 C   0  0  0  0  0  0  0  0  0  0  0  0
   24.6458  -19.4038  -11.0102 O   0  0  0  0  0  0  0  0  0  0  0  0
   24.1270  -21.6345  -11.2915 N   0  0  0  0  0  0  0  0  0  0  0  0
   23.0156  -21.4476  -12.1854 C   0  0  1  0  0  0  0  0  0  0  0  0
   23.0389  -22.3512  -13.4125 C   0  0  0  0  0  0  0  0  0  0  0  0
   24.1872  -21.9530  -14.2555 C   0  0  0  0  0  0  0  0  0  0  0  0
   25.4451  -22.4978  -14.3757 C   0  0  0  0  0  0  0  0  0  0  0  0
   26.1480  -21.7921  -15.2755 N   0  0  0  0  0  0  0  0  0  0  0  0
   25.3909  -20.7964  -15.7542 C   0  0  0  0  0  0  0  0  0  0  0  0
   25.6513  -19.8058  -16.6914 C   0  0  0  0  0  0  0  0  0  0  0  0
   24.7041  -18.8712  -17.0365 C   0  0  0  0  0  0  0  0  0  0  0  0
   23.4691  -18.9272  -16.4322 C   0  0  0  0  0  0  0  0  0  0  0  0
   23.2077  -19.9260  -15.4879 C   0  0  0  0  0  0  0  0  0  0  0  0
   24.1572  -20.8628  -15.1415 C   0  0  0  0  0  0  0  0  0  0  0  0
   21.7250  -21.5962  -11.5104 C   0  0  0  0  0  0  0  0  0  0  0  0
   21.6757  -22.0303  -10.3204 O   0  0  0  0  0  0  0  0  0  0  0  0
   20.5061  -21.2878  -12.0919 O   0  0  0  0  0  0  0  0  0  0  0  0
  1  2  1  0
  2  3  1  0
  3  4  2  0
  5  3  1  0
  5  6  1  0
  6  7  1  1
  8  9  2  0
  8  7  1  0
 10  9  1  0
 11 16  2  0
 11 10  1  0
 12 11  1  0
 13 14  1  0
 13 12  2  0
 14 15  2  0
 15 16  1  0
 16  8  1  0
 17 18  2  0
 17  6  1  0
 19 17  1  0
 20 19  1  0
 20 21  1  6
 22 30  1  0
 22 21  1  0
 23 22  2  0
 24 23  1  0
 24 25  1  0
 25 26  1  0
 25 30  2  0
 26 27  2  0
 27 28  1  0
 29 28  2  0
 30 29  1  0
 31 20  1  0
 32 31  2  0
 33 31  1  0
M  END
$$$$
