GWW.pdb
     RDKit          3D

 33 36  0  0  1  0  0  0  0  0999 V2000
   30.6040  -20.8356  -12.1940 N   0  0  0  0  0  0  0  0  0  0  0  0
   29.7764  -20.0127  -11.3688 C   0  0  0  0  0  0  0  0  0  0  0  0
   28.5925  -20.7373  -10.8374 C   0  0  0  0  0  0  0  0  0  0  0  0
   28.4006  -21.9483  -11.1154 O   0  0  0  0  0  0  0  0  0  0  0  0
   27.6281  -20.1124  -10.0000 N   0  0  0  0  0  0  0  0  0  0  0  0
   26.4528  -20.7690   -9.4931 C   0  0  1  0  0  0  0  0  0  0  0  0
   25.9216  -20.2328   -8.2016 C   0  0  0  0  0  0  0  0  0  0  0  0
   26.9047  -19.6699   -7.2854 C   0  0  0  0  0  0  0  0  0  0  0  0
   27.3808  -18.3731   -7.3265 C   0  0  0  0  0  0  0  0  0  0  0  0
   28.2603  -18.1856   -6.3118 N   0  0  0  0  0  0  0  0  0  0  0  0
   28.3405  -19.3609   -5.6315 C   0  0  0  0  0  0  0  0  0  0  0  0
   29.0855  -19.7159   -4.5283 C   0  0  0  0  0  0  0  0  0  0  0  0
   29.0160  -20.9928   -3.9969 C   0  0  0  0  0  0  0  0  0  0  0  0
   28.1880  -21.9379   -4.5750 C   0  0  0  0  0  0  0  0  0  0  0  0
   27.4576  -21.5534   -5.6740 C   0  0  0  0  0  0  0  0  0  0  0  0
   27.5072  -20.2937   -6.2204 C   0  0  0  0  0  0  0  0  0  0  0  0
   25.3730  -20.5714  -10.5275 C   0  0  0  0  0  0  0  0  0  0  0  0
   24.8623  -19.4375  -10.5448 O   0  0  0  0  0  0  0  0  0  0  0  0
   24.9534  -21.5719  -11.4166 N   0  0  0  0  0  0  0  0  0  0  0  0
   24.1675  -21.3364  -12.5982 C   0  0  1  0  0  0  0  0  0  0  0  0
   24.9830  -21.2159  -13.8801 C   0  0  0  0  0  0  0  0  0  0  0  0
   25.2635  -19.7826  -14.1141 C   0  0  0  0  0  0  0  0  0  0  0  0
   24.5445  -18.6594  -13.7749 C   0  0  0  0  0  0  0  0  0  0  0  0
   25.2039  -17.5688  -14.1966 N   0  0  0  0  0  0  0  0  0  0  0  0
   26.3385  -17.9385  -14.8046 C   0  0  0  0  0  0  0  0  0  0  0  0
   27.3508  -17.1990  -15.4010 C   0  0  0  0  0  0  0  0  0  0  0  0
   28.4455  -17.8028  -15.9725 C   0  0  0  0  0  0  0  0  0  0  0  0
   28.5314  -19.1760  -15.9477 C   0  0  0  0  0  0  0  0  0  0  0  0
   27.5106  -19.9203  -15.3464 C   0  0  0  0  0  0  0  0  0  0  0  0
   26.4128  -19.3152  -14.7737 C   0  0  0  0  0  0  0  0  0  0  0  0
   23.1288  -22.3503  -12.7894 C   0  0  0  0  0  0  0  0  0  0  0  0
   23.4339  -23.5807  -12.7927 O   0  0  0  0  0  0  0  0  0  0  0  0
   21.7870  -22.0601  -12.9740 O   0  0  0  0  0  0  0  0  0  0  0  0
  1  2  1  0
  2  3  1  0
  3  4  2  0
  5  3  1  0
  5  6  1  0
  6  7  1  1
  8  9  2  0
  8  7  1  0
 10  9  1  0
 11 16  2  0
 11 10  1  0
 12 11  1  0
 13 14  1  0
 13 12  2  0
 14 15  2  0
 15 16  1  0
 16  8  1  0
 17 18  2  0
 17  6  1  0
 19 17  1  0
 20 19  1  0
 20 21  1  6
 22 30  1  0
 22 21  1  0
 23 22  2  0
 24 23  1  0
 24 25  1  0
 25 26  1  0
 25 30  2  0
 26 27  2  0
 27 28  1  0
 29 28  2  0
 30 29  1  0
 31 20  1  0
 32 31  2  0
 33 31  1  0
M  END
$$$$
