GWW.pdb
     RDKit          3D

 33 36  0  0  1  0  0  0  0  0999 V2000
   16.7164  -24.2228   -2.7542 N   0  0  0  0  0  0  0  0  0  0  0  0
   15.6635  -24.2936   -1.7901 C   0  0  0  0  0  0  0  0  0  0  0  0
   15.0630  -22.9663   -1.4958 C   0  0  0  0  0  0  0  0  0  0  0  0
   15.5569  -21.9152   -1.9773 O   0  0  0  0  0  0  0  0  0  0  0  0
   13.9168  -22.8140   -0.6682 N   0  0  0  0  0  0  0  0  0  0  0  0
   13.1685  -21.5919   -0.5427 C   0  0  1  0  0  0  0  0  0  0  0  0
   11.8997  -21.5291   -1.3325 C   0  0  0  0  0  0  0  0  0  0  0  0
   12.0249  -21.0966   -2.7182 C   0  0  0  0  0  0  0  0  0  0  0  0
   12.9120  -21.6208   -3.6391 C   0  0  0  0  0  0  0  0  0  0  0  0
   12.7365  -21.0030   -4.8332 N   0  0  0  0  0  0  0  0  0  0  0  0
   11.7416  -20.0903   -4.6674 C   0  0  0  0  0  0  0  0  0  0  0  0
   11.1779  -19.1989   -5.5539 C   0  0  0  0  0  0  0  0  0  0  0  0
   10.1631  -18.3422   -5.1614 C   0  0  0  0  0  0  0  0  0  0  0  0
    9.6985  -18.3720   -3.8589 C   0  0  0  0  0  0  0  0  0  0  0  0
   10.2807  -19.2720   -2.9987 C   0  0  0  0  0  0  0  0  0  0  0  0
   11.2877  -20.1331   -3.3622 C   0  0  0  0  0  0  0  0  0  0  0  0
   12.7865  -21.4720    0.9116 C   0  0  0  0  0  0  0  0  0  0  0  0
   12.5566  -22.5510    1.4858 O   0  0  0  0  0  0  0  0  0  0  0  0
   12.6883  -20.2499    1.5931 N   0  0  0  0  0  0  0  0  0  0  0  0
   12.3246  -20.1150    2.9783 C   0  0  1  0  0  0  0  0  0  0  0  0
   13.4178  -19.5212    3.8588 C   0  0  0  0  0  0  0  0  0  0  0  0
   14.6003  -19.2586    3.0101 C   0  0  0  0  0  0  0  0  0  0  0  0
   14.9544  -18.1457    2.2822 C   0  0  0  0  0  0  0  0  0  0  0  0
   16.1268  -18.3734    1.6693 N   0  0  0  0  0  0  0  0  0  0  0  0
   16.5584  -19.6048    1.9713 C   0  0  0  0  0  0  0  0  0  0  0  0
   17.6986  -20.3023    1.5964 C   0  0  0  0  0  0  0  0  0  0  0  0
   17.9410  -21.5812    2.0384 C   0  0  0  0  0  0  0  0  0  0  0  0
   17.0240  -22.1768    2.8739 C   0  0  0  0  0  0  0  0  0  0  0  0
   15.8751  -21.4729    3.2511 C   0  0  0  0  0  0  0  0  0  0  0  0
   15.6319  -20.1910    2.8078 C   0  0  0  0  0  0  0  0  0  0  0  0
   11.0954  -19.3408    3.1600 C   0  0  0  0  0  0  0  0  0  0  0  0
   10.5615  -19.2545    4.3066 O   0  0  0  0  0  0  0  0  0  0  0  0
   10.4444  -18.6689    2.1384 O   0  0  0  0  0  0  0  0  0  0  0  0
  1  2  1  0
  2  3  1  0
  3  4  2  0
  5  3  1  0
  5  6  1  0
  6  7  1  6
  8  9  2  0
  8  7  1  0
 10  9  1  0
 11 16  2  0
 11 10  1  0
 12 11  1  0
 13 14  1  0
 13 12  2  0
 14 15  2  0
 15 16  1  0
 16  8  1  0
 17 18  2  0
 17  6  1  0
 19 17  1  0
 20 19  1  0
 20 21  1  1
 22 30  1  0
 22 21  1  0
 23 22  2  0
 24 23  1  0
 24 25  1  0
 25 26  1  0
 25 30  2  0
 26 27  2  0
 27 28  1  0
 29 28  2  0
 30 29  1  0
 31 20  1  0
 32 31  2  0
 33 31  1  0
M  END
$$$$
