GWW.pdb
     RDKit          3D

 33 36  0  0  1  0  0  0  0  0999 V2000
   26.4632  -24.1008  -16.5104 N   0  0  0  0  0  0  0  0  0  0  0  0
   25.7170  -23.1438  -15.7551 C   0  0  0  0  0  0  0  0  0  0  0  0
   26.3316  -22.8480  -14.4345 C   0  0  0  0  0  0  0  0  0  0  0  0
   27.1647  -23.6370  -13.9208 O   0  0  0  0  0  0  0  0  0  0  0  0
   26.0171  -21.6770  -13.6917 N   0  0  0  0  0  0  0  0  0  0  0  0
   26.6906  -21.2824  -12.4835 C   0  0  1  0  0  0  0  0  0  0  0  0
   27.3871  -19.9596  -12.5364 C   0  0  0  0  0  0  0  0  0  0  0  0
   28.6562  -19.9286  -13.2513 C   0  0  0  0  0  0  0  0  0  0  0  0
   29.1096  -18.8763  -14.0240 C   0  0  0  0  0  0  0  0  0  0  0  0
   30.3366  -19.1769  -14.5162 N   0  0  0  0  0  0  0  0  0  0  0  0
   30.6578  -20.4163  -14.0564 C   0  0  0  0  0  0  0  0  0  0  0  0
   31.7785  -21.1915  -14.2592 C   0  0  0  0  0  0  0  0  0  0  0  0
   31.8933  -22.4487  -13.6899 C   0  0  0  0  0  0  0  0  0  0  0  0
   30.8715  -22.9465  -12.9018 C   0  0  0  0  0  0  0  0  0  0  0  0
   29.7668  -22.1495  -12.7183 C   0  0  0  0  0  0  0  0  0  0  0  0
   29.6280  -20.8990  -13.2704 C   0  0  0  0  0  0  0  0  0  0  0  0
   25.6291  -21.1770  -11.4171 C   0  0  0  0  0  0  0  0  0  0  0  0
   24.4727  -21.0040  -11.8413 O   0  0  0  0  0  0  0  0  0  0  0  0
   25.8944  -21.2627  -10.0424 N   0  0  0  0  0  0  0  0  0  0  0  0
   24.8906  -21.2166   -9.0131 C   0  0  1  0  0  0  0  0  0  0  0  0
   25.4422  -21.3011   -7.5948 C   0  0  0  0  0  0  0  0  0  0  0  0
   26.2871  -20.1104   -7.3580 C   0  0  0  0  0  0  0  0  0  0  0  0
   26.3177  -18.8899   -7.9927 C   0  0  0  0  0  0  0  0  0  0  0  0
   27.2565  -18.1185   -7.4220 N   0  0  0  0  0  0  0  0  0  0  0  0
   27.8473  -18.7939   -6.4277 C   0  0  0  0  0  0  0  0  0  0  0  0
   28.8604  -18.4423   -5.5459 C   0  0  0  0  0  0  0  0  0  0  0  0
   29.3158  -19.3132   -4.5848 C   0  0  0  0  0  0  0  0  0  0  0  0
   28.7466  -20.5633   -4.5023 C   0  0  0  0  0  0  0  0  0  0  0  0
   27.7257  -20.9167   -5.3915 C   0  0  0  0  0  0  0  0  0  0  0  0
   27.2693  -20.0438   -6.3552 C   0  0  0  0  0  0  0  0  0  0  0  0
   24.0348  -20.0336   -9.1202 C   0  0  0  0  0  0  0  0  0  0  0  0
   24.4334  -19.0162   -9.7630 O   0  0  0  0  0  0  0  0  0  0  0  0
   22.7750  -19.9343   -8.5529 O   0  0  0  0  0  0  0  0  0  0  0  0
  1  2  1  0
  2  3  1  0
  3  4  2  0
  5  3  1  0
  5  6  1  0
  6  7  1  6
  8  9  2  0
  8  7  1  0
 10  9  1  0
 11 16  2  0
 11 10  1  0
 12 11  1  0
 13 14  1  0
 13 12  2  0
 14 15  2  0
 15 16  1  0
 16  8  1  0
 17 18  2  0
 17  6  1  0
 19 17  1  0
 20 19  1  0
 20 21  1  1
 22 30  1  0
 22 21  1  0
 23 22  2  0
 24 23  1  0
 24 25  1  0
 25 26  1  0
 25 30  2  0
 26 27  2  0
 27 28  1  0
 29 28  2  0
 30 29  1  0
 31 20  1  0
 32 31  2  0
 33 31  1  0
M  END
$$$$
