TMI.pdb
     RDKit          3D

 24 23  0  0  1  0  0  0  0  0999 V2000
   28.7412  -18.0400  -15.2715 C   0  0  0  0  0  0  0  0  0  0  0  0
   27.5998  -18.8569  -14.7426 C   0  0  1  0  0  0  0  0  0  0  0  0
   26.6923  -19.0713  -15.7943 O   0  0  0  0  0  0  0  0  0  0  0  0
   28.1059  -20.1899  -14.2187 C   0  0  2  0  0  0  0  0  0  0  0  0
   28.5720  -20.9573  -15.3360 N   0  0  0  0  0  0  0  0  0  0  0  0
   26.9733  -20.8767  -13.5496 C   0  0  0  0  0  0  0  0  0  0  0  0
   26.3450  -21.8357  -14.0384 O   0  0  0  0  0  0  0  0  0  0  0  0
   25.5958  -19.8758   -7.1190 C   0  0  0  0  0  0  0  0  0  0  0  0
   26.9977  -20.7858   -7.8012 S   0  0  0  0  0  0  0  0  0  0  0  0
   26.5423  -21.5985   -9.3564 C   0  0  0  0  0  0  0  0  0  0  0  0
   25.5039  -20.7295  -10.0599 C   0  0  0  0  0  0  0  0  0  0  0  0
   25.4596  -21.0127  -11.5334 C   0  0  2  0  0  0  0  0  0  0  0  0
   26.5586  -20.4305  -12.2668 N   0  0  0  0  0  0  0  0  0  0  0  0
   24.1970  -20.5181  -12.1405 C   0  0  0  0  0  0  0  0  0  0  0  0
   23.9994  -19.2992  -12.3803 O   0  0  0  0  0  0  0  0  0  0  0  0
   22.6251  -21.6914  -16.8084 C   0  0  0  0  0  0  0  0  0  0  0  0
   22.7725  -21.0982  -15.4518 C   0  0  0  0  0  0  0  0  0  0  0  0
   21.7239  -21.5230  -14.4701 C   0  0  2  0  0  0  0  0  0  0  0  0
   20.3692  -21.1228  -15.0147 C   0  0  0  0  0  0  0  0  0  0  0  0
   21.9030  -20.9590  -13.0996 C   0  0  2  0  0  0  0  0  0  0  0  0
   23.1349  -21.4126  -12.4851 N   0  0  0  0  0  0  0  0  0  0  0  0
   20.7632  -21.4036  -12.2548 C   0  0  0  0  0  0  0  0  0  0  0  0
   19.6917  -20.5536  -12.0392 O   0  0  0  0  0  0  0  0  0  0  0  0
   20.7158  -22.5411  -11.7087 O   0  0  0  0  0  0  0  0  0  0  0  0
  2  1  1  6
  2  4  1  0
  3  2  1  0
  4  5  1  6
  6 13  1  0
  6  4  1  0
  7  6  2  0
  8  9  1  0
  9 10  1  0
 11 10  1  0
 12 11  1  1
 12 13  1  0
 14 15  2  0
 14 12  1  0
 16 17  1  0
 17 18  1  0
 18 20  1  0
 18 19  1  6
 20 21  1  1
 20 22  1  0
 21 14  1  0
 22 23  1  0
 24 22  2  0
M  END
$$$$
