TMI.pdb
     RDKit          3D

 24 23  0  0  1  0  0  0  0  0999 V2000
   29.2317  -19.2708  -13.3845 C   0  0  0  0  0  0  0  0  0  0  0  0
   28.3825  -18.6494  -14.4534 C   0  0  1  0  0  0  0  0  0  0  0  0
   29.0519  -18.7928  -15.6810 O   0  0  0  0  0  0  0  0  0  0  0  0
   27.0314  -19.3406  -14.5194 C   0  0  2  0  0  0  0  0  0  0  0  0
   26.3185  -18.8140  -15.6460 N   0  0  0  0  0  0  0  0  0  0  0  0
   26.3063  -19.0462  -13.2586 C   0  0  0  0  0  0  0  0  0  0  0  0
   25.6542  -18.0049  -13.0493 O   0  0  0  0  0  0  0  0  0  0  0  0
   21.8773  -22.4554  -11.9193 C   0  0  0  0  0  0  0  0  0  0  0  0
   21.6477  -21.3455  -10.5143 S   0  0  0  0  0  0  0  0  0  0  0  0
   23.1838  -20.4605  -10.1354 C   0  0  0  0  0  0  0  0  0  0  0  0
   24.0958  -20.5485  -11.3555 C   0  0  0  0  0  0  0  0  0  0  0  0
   25.4511  -19.9697  -11.0698 C   0  0  2  0  0  0  0  0  0  0  0  0
   26.3424  -19.9981  -12.2053 N   0  0  0  0  0  0  0  0  0  0  0  0
   26.1187  -20.6847   -9.9516 C   0  0  0  0  0  0  0  0  0  0  0  0
   26.5019  -21.8786  -10.0513 O   0  0  0  0  0  0  0  0  0  0  0  0
   29.3714  -19.5776   -4.7952 C   0  0  0  0  0  0  0  0  0  0  0  0
   28.4977  -20.4771   -5.5961 C   0  0  0  0  0  0  0  0  0  0  0  0
   27.8260  -19.8165   -6.7607 C   0  0  2  0  0  0  0  0  0  0  0  0
   26.9911  -18.6656   -6.2408 C   0  0  0  0  0  0  0  0  0  0  0  0
   26.9727  -20.7308   -7.5755 C   0  0  2  0  0  0  0  0  0  0  0  0
   26.3603  -20.0438   -8.6954 N   0  0  0  0  0  0  0  0  0  0  0  0
   25.8938  -21.2684   -6.7052 C   0  0  0  0  0  0  0  0  0  0  0  0
   24.5733  -20.9397   -6.9606 O   0  0  0  0  0  0  0  0  0  0  0  0
   26.1192  -22.0271   -5.7214 O   0  0  0  0  0  0  0  0  0  0  0  0
  2  1  1  1
  2  4  1  0
  3  2  1  0
  4  5  1  6
  6 13  1  0
  6  4  1  0
  7  6  2  0
  8  9  1  0
  9 10  1  0
 11 10  1  0
 12 11  1  6
 12 13  1  0
 14 15  2  0
 14 12  1  0
 16 17  1  0
 17 18  1  0
 18 20  1  0
 18 19  1  1
 20 21  1  6
 20 22  1  0
 21 14  1  0
 22 23  1  0
 24 22  2  0
M  END
$$$$
