TMI.pdb
     RDKit          3D

 24 23  0  0  1  0  0  0  0  0999 V2000
   28.5420  -18.5990  -16.6648 C   0  0  0  0  0  0  0  0  0  0  0  0
   27.5353  -19.2746  -15.7816 C   0  0  1  0  0  0  0  0  0  0  0  0
   26.3912  -19.5456  -16.5517 O   0  0  0  0  0  0  0  0  0  0  0  0
   28.1049  -20.5708  -15.2312 C   0  0  2  0  0  0  0  0  0  0  0  0
   28.2607  -21.4859  -16.3234 N   0  0  0  0  0  0  0  0  0  0  0  0
   27.1431  -21.1051  -14.2354 C   0  0  0  0  0  0  0  0  0  0  0  0
   26.3026  -21.9933  -14.4762 O   0  0  0  0  0  0  0  0  0  0  0  0
   24.8616  -20.6491   -6.5964 C   0  0  0  0  0  0  0  0  0  0  0  0
   25.9384  -20.0671   -7.9233 S   0  0  0  0  0  0  0  0  0  0  0  0
   25.5340  -20.8890   -9.4876 C   0  0  0  0  0  0  0  0  0  0  0  0
   26.5835  -20.4877  -10.5201 C   0  0  0  0  0  0  0  0  0  0  0  0
   26.2057  -20.9547  -11.8958 C   0  0  2  0  0  0  0  0  0  0  0  0
   27.1616  -20.5867  -12.9134 N   0  0  0  0  0  0  0  0  0  0  0  0
   24.8813  -20.4188  -12.3031 C   0  0  0  0  0  0  0  0  0  0  0  0
   24.7135  -19.2138  -12.6225 O   0  0  0  0  0  0  0  0  0  0  0  0
   21.2829  -19.6090  -16.0678 C   0  0  0  0  0  0  0  0  0  0  0  0
   21.0904  -20.6355  -15.0080 C   0  0  0  0  0  0  0  0  0  0  0  0
   22.3575  -21.1135  -14.3677 C   0  0  2  0  0  0  0  0  0  0  0  0
   22.4689  -22.6075  -14.5857 C   0  0  0  0  0  0  0  0  0  0  0  0
   22.4611  -20.8075  -12.9104 C   0  0  2  0  0  0  0  0  0  0  0  0
   23.7216  -21.2553  -12.3522 N   0  0  0  0  0  0  0  0  0  0  0  0
   21.3568  -21.5073  -12.2024 C   0  0  0  0  0  0  0  0  0  0  0  0
   20.1420  -20.8692  -12.0178 O   0  0  0  0  0  0  0  0  0  0  0  0
   21.4668  -22.6803  -11.7484 O   0  0  0  0  0  0  0  0  0  0  0  0
  2  1  1  6
  2  4  1  0
  3  2  1  0
  4  5  1  6
  6 13  1  0
  6  4  1  0
  7  6  2  0
  8  9  1  0
  9 10  1  0
 11 10  1  0
 12 11  1  1
 12 13  1  0
 14 15  2  0
 14 12  1  0
 16 17  1  0
 17 18  1  0
 18 20  1  0
 18 19  1  1
 20 21  1  1
 20 22  1  0
 21 14  1  0
 22 23  1  0
 24 22  2  0
M  END
$$$$
