TMI.pdb
     RDKit          3D

 24 23  0  0  1  0  0  0  0  0999 V2000
   21.5959  -11.1314  -23.5714 C   0  0  0  0  0  0  0  0  0  0  0  0
   21.7162  -10.5822  -22.1808 C   0  0  1  0  0  0  0  0  0  0  0  0
   20.6652   -9.6710  -21.9790 O   0  0  0  0  0  0  0  0  0  0  0  0
   21.6270  -11.7057  -21.1623 C   0  0  2  0  0  0  0  0  0  0  0  0
   20.3667  -12.3653  -21.3390 N   0  0  0  0  0  0  0  0  0  0  0  0
   21.7157  -11.1029  -19.8093 C   0  0  0  0  0  0  0  0  0  0  0  0
   20.7365  -10.8946  -19.0669 O   0  0  0  0  0  0  0  0  0  0  0  0
   26.5911  -11.3002  -14.1494 C   0  0  0  0  0  0  0  0  0  0  0  0
   26.4861  -10.1540  -15.5401 S   0  0  0  0  0  0  0  0  0  0  0  0
   24.7615   -9.9044  -16.0397 C   0  0  0  0  0  0  0  0  0  0  0  0
   24.5900  -10.4625  -17.4495 C   0  0  0  0  0  0  0  0  0  0  0  0
   23.2033  -10.2193  -17.9705 C   0  0  2  0  0  0  0  0  0  0  0  0
   22.9894  -10.7300  -19.3039 N   0  0  0  0  0  0  0  0  0  0  0  0
   22.8777   -8.7697  -17.9827 C   0  0  0  0  0  0  0  0  0  0  0  0
   23.2048   -8.0158  -18.9350 O   0  0  0  0  0  0  0  0  0  0  0  0
   18.8016   -4.9726  -18.6392 C   0  0  0  0  0  0  0  0  0  0  0  0
   19.9401   -5.2050  -17.7099 C   0  0  0  0  0  0  0  0  0  0  0  0
   20.5300   -6.5801  -17.7808 C   0  0  2  0  0  0  0  0  0  0  0  0
   19.4657   -7.5780  -17.3768 C   0  0  0  0  0  0  0  0  0  0  0  0
   21.7459   -6.7697  -16.9359 C   0  0  2  0  0  0  0  0  0  0  0  0
   22.1698   -8.1554  -16.9018 N   0  0  0  0  0  0  0  0  0  0  0  0
   21.4272   -6.3400  -15.5487 C   0  0  0  0  0  0  0  0  0  0  0  0
   21.4046   -4.9923  -15.2320 O   0  0  0  0  0  0  0  0  0  0  0  0
   21.1695   -7.1550  -14.6194 O   0  0  0  0  0  0  0  0  0  0  0  0
  2  1  1  6
  2  4  1  0
  3  2  1  0
  4  5  1  1
  6 13  1  0
  6  4  1  0
  7  6  2  0
  8  9  1  0
  9 10  1  0
 11 10  1  0
 12 11  1  6
 12 13  1  0
 14 15  2  0
 14 12  1  0
 16 17  1  0
 17 18  1  0
 18 20  1  0
 18 19  1  1
 20 21  1  1
 20 22  1  0
 21 14  1  0
 22 23  1  0
 24 22  2  0
M  END
$$$$
