TMI.pdb
     RDKit          3D

 24 23  0  0  1  0  0  0  0  0999 V2000
   18.4932  -11.1043  -20.1427 C   0  0  0  0  0  0  0  0  0  0  0  0
   18.2547  -12.5798  -20.0173 C   0  0  1  0  0  0  0  0  0  0  0  0
   17.6133  -13.0193  -21.1882 O   0  0  0  0  0  0  0  0  0  0  0  0
   19.5741  -13.3130  -19.8463 C   0  0  2  0  0  0  0  0  0  0  0  0
   19.2985  -14.7191  -19.8097 N   0  0  0  0  0  0  0  0  0  0  0  0
   20.1817  -12.8664  -18.5682 C   0  0  0  0  0  0  0  0  0  0  0  0
   19.8067  -13.2449  -17.4415 O   0  0  0  0  0  0  0  0  0  0  0  0
   26.5161  -10.4557  -14.6803 C   0  0  0  0  0  0  0  0  0  0  0  0
   25.6989  -11.3594  -16.0123 S   0  0  0  0  0  0  0  0  0  0  0  0
   23.9516  -10.8913  -16.1302 C   0  0  0  0  0  0  0  0  0  0  0  0
   23.3434  -11.6232  -17.3231 C   0  0  0  0  0  0  0  0  0  0  0  0
   21.8666  -11.3738  -17.4244 C   0  0  2  0  0  0  0  0  0  0  0  0
   21.2636  -11.9472  -18.6044 N   0  0  0  0  0  0  0  0  0  0  0  0
   21.5632   -9.9194  -17.4216 C   0  0  0  0  0  0  0  0  0  0  0  0
   21.8831   -9.1646  -18.3757 O   0  0  0  0  0  0  0  0  0  0  0  0
   16.9538   -8.4486  -16.7709 C   0  0  0  0  0  0  0  0  0  0  0  0
   18.2943   -7.9464  -17.1770 C   0  0  0  0  0  0  0  0  0  0  0  0
   19.1904   -7.5734  -16.0362 C   0  0  2  0  0  0  0  0  0  0  0  0
   19.0151   -6.0964  -15.7540 C   0  0  0  0  0  0  0  0  0  0  0  0
   20.6341   -7.8748  -16.2669 C   0  0  2  0  0  0  0  0  0  0  0  0
   20.8863   -9.3011  -16.3232 N   0  0  0  0  0  0  0  0  0  0  0  0
   21.4205   -7.3010  -15.1432 C   0  0  0  0  0  0  0  0  0  0  0  0
   21.7738   -8.1006  -14.0694 O   0  0  0  0  0  0  0  0  0  0  0  0
   21.7938   -6.0952  -15.1116 O   0  0  0  0  0  0  0  0  0  0  0  0
  2  1  1  6
  2  4  1  0
  3  2  1  0
  4  5  1  1
  6 13  1  0
  6  4  1  0
  7  6  2  0
  8  9  1  0
  9 10  1  0
 11 10  1  0
 12 11  1  6
 12 13  1  0
 14 15  2  0
 14 12  1  0
 16 17  1  0
 17 18  1  0
 18 20  1  0
 18 19  1  6
 20 21  1  1
 20 22  1  0
 21 14  1  0
 22 23  1  0
 24 22  2  0
M  END
$$$$
