TMI.pdb
     RDKit          3D

 24 23  0  0  1  0  0  0  0  0999 V2000
   23.0700   -8.4856  -20.8179 C   0  0  0  0  0  0  0  0  0  0  0  0
   22.3795   -9.8037  -21.0065 C   0  0  1  0  0  0  0  0  0  0  0  0
   22.8914  -10.4018  -22.1709 O   0  0  0  0  0  0  0  0  0  0  0  0
   22.6319  -10.7053  -19.8103 C   0  0  2  0  0  0  0  0  0  0  0  0
   22.1436  -12.0143  -20.1307 N   0  0  0  0  0  0  0  0  0  0  0  0
   21.8955  -10.1424  -18.6514 C   0  0  0  0  0  0  0  0  0  0  0  0
   20.6554  -10.1645  -18.5285 O   0  0  0  0  0  0  0  0  0  0  0  0
   22.3801  -11.5266  -12.6668 C   0  0  0  0  0  0  0  0  0  0  0  0
   22.3537   -9.7357  -12.4410 S   0  0  0  0  0  0  0  0  0  0  0  0
   21.7756   -8.9057  -13.9454 C   0  0  0  0  0  0  0  0  0  0  0  0
   22.4200   -9.5942  -15.1450 C   0  0  0  0  0  0  0  0  0  0  0  0
   22.0163   -8.9401  -16.4345 C   0  0  2  0  0  0  0  0  0  0  0  0
   22.6295   -9.5329  -17.5996 N   0  0  0  0  0  0  0  0  0  0  0  0
   22.3507   -7.4925  -16.4334 C   0  0  0  0  0  0  0  0  0  0  0  0
   23.4984   -7.0679  -16.7247 O   0  0  0  0  0  0  0  0  0  0  0  0
   20.5087   -2.2448  -18.4678 C   0  0  0  0  0  0  0  0  0  0  0  0
   21.1114   -2.9127  -17.2826 C   0  0  0  0  0  0  0  0  0  0  0  0
   20.9147   -4.3970  -17.2383 C   0  0  2  0  0  0  0  0  0  0  0  0
   19.4333   -4.6789  -17.1048 C   0  0  0  0  0  0  0  0  0  0  0  0
   21.6592   -5.0815  -16.1404 C   0  0  2  0  0  0  0  0  0  0  0  0
   21.3743   -6.5020  -16.0977 N   0  0  0  0  0  0  0  0  0  0  0  0
   21.2473   -4.4789  -14.8452 C   0  0  0  0  0  0  0  0  0  0  0  0
   21.7828   -3.2656  -14.4475 O   0  0  0  0  0  0  0  0  0  0  0  0
   20.4159   -5.0249  -14.0674 O   0  0  0  0  0  0  0  0  0  0  0  0
  2  1  1  1
  2  4  1  0
  3  2  1  0
  4  5  1  6
  6 13  1  0
  6  4  1  0
  7  6  2  0
  8  9  1  0
  9 10  1  0
 11 10  1  0
 12 11  1  1
 12 13  1  0
 14 15  2  0
 14 12  1  0
 16 17  1  0
 17 18  1  0
 18 20  1  0
 18 19  1  1
 20 21  1  1
 20 22  1  0
 21 14  1  0
 22 23  1  0
 24 22  2  0
M  END
$$$$
