TMI.pdb
     RDKit          3D

 24 23  0  0  1  0  0  0  0  0999 V2000
   28.6122  -18.0890  -15.9918 C   0  0  0  0  0  0  0  0  0  0  0  0
   27.5502  -18.8645  -15.2702 C   0  0  1  0  0  0  0  0  0  0  0  0
   26.4322  -18.9647  -16.1160 O   0  0  0  0  0  0  0  0  0  0  0  0
   28.0586  -20.2528  -14.9214 C   0  0  2  0  0  0  0  0  0  0  0  0
   28.2151  -20.9874  -16.1422 N   0  0  0  0  0  0  0  0  0  0  0  0
   27.0501  -20.9015  -14.0472 C   0  0  0  0  0  0  0  0  0  0  0  0
   26.2039  -21.7267  -14.4425 O   0  0  0  0  0  0  0  0  0  0  0  0
   26.6052  -19.2030   -7.6791 C   0  0  0  0  0  0  0  0  0  0  0  0
   25.5624  -20.6762   -7.7079 S   0  0  0  0  0  0  0  0  0  0  0  0
   25.1354  -21.1293   -9.4105 C   0  0  0  0  0  0  0  0  0  0  0  0
   26.2852  -20.7022  -10.3181 C   0  0  0  0  0  0  0  0  0  0  0  0
   25.9936  -21.0162  -11.7568 C   0  0  2  0  0  0  0  0  0  0  0  0
   27.0270  -20.5774  -12.6647 N   0  0  0  0  0  0  0  0  0  0  0  0
   24.7142  -20.4011  -12.1951 C   0  0  0  0  0  0  0  0  0  0  0  0
   24.5951  -19.1638  -12.3882 O   0  0  0  0  0  0  0  0  0  0  0  0
   22.9317  -20.7355  -16.7142 C   0  0  0  0  0  0  0  0  0  0  0  0
   23.1245  -20.3885  -15.2802 C   0  0  0  0  0  0  0  0  0  0  0  0
   22.0859  -20.9514  -14.3591 C   0  0  2  0  0  0  0  0  0  0  0  0
   20.7305  -20.4387  -14.7969 C   0  0  0  0  0  0  0  0  0  0  0  0
   22.3055  -20.6296  -12.9181 C   0  0  2  0  0  0  0  0  0  0  0  0
   23.5447  -21.1937  -12.4209 N   0  0  0  0  0  0  0  0  0  0  0  0
   21.1794  -21.1987  -12.1316 C   0  0  0  0  0  0  0  0  0  0  0  0
   20.1610  -20.3723  -11.6877 O   0  0  0  0  0  0  0  0  0  0  0  0
   21.0971  -22.4240  -11.8379 O   0  0  0  0  0  0  0  0  0  0  0  0
  2  1  1  6
  2  4  1  0
  3  2  1  0
  4  5  1  6
  6 13  1  0
  6  4  1  0
  7  6  2  0
  8  9  1  0
  9 10  1  0
 11 10  1  0
 12 11  1  1
 12 13  1  0
 14 15  2  0
 14 12  1  0
 16 17  1  0
 17 18  1  0
 18 20  1  0
 18 19  1  6
 20 21  1  1
 20 22  1  0
 21 14  1  0
 22 23  1  0
 24 22  2  0
M  END
$$$$
