TMI.pdb
     RDKit          3D

 24 23  0  0  1  0  0  0  0  0999 V2000
   28.5179  -18.5137  -15.3627 C   0  0  0  0  0  0  0  0  0  0  0  0
   27.3833  -19.2474  -14.7114 C   0  0  1  0  0  0  0  0  0  0  0  0
   26.4258  -19.5359  -15.6992 O   0  0  0  0  0  0  0  0  0  0  0  0
   27.8826  -20.5382  -14.0851 C   0  0  2  0  0  0  0  0  0  0  0  0
   28.2400  -21.4356  -15.1441 N   0  0  0  0  0  0  0  0  0  0  0  0
   26.7804  -21.1055  -13.2694 C   0  0  0  0  0  0  0  0  0  0  0  0
   26.0343  -22.0315  -13.6427 O   0  0  0  0  0  0  0  0  0  0  0  0
   28.0137  -20.5367   -6.4024 C   0  0  0  0  0  0  0  0  0  0  0  0
   26.5890  -20.0171   -7.3816 S   0  0  0  0  0  0  0  0  0  0  0  0
   26.5507  -20.8846   -8.9729 C   0  0  0  0  0  0  0  0  0  0  0  0
   25.4076  -20.3061   -9.8018 C   0  0  0  0  0  0  0  0  0  0  0  0
   25.3766  -20.8977  -11.1811 C   0  0  2  0  0  0  0  0  0  0  0  0
   26.5393  -20.5756  -11.9741 N   0  0  0  0  0  0  0  0  0  0  0  0
   24.1764  -20.4499  -11.9337 C   0  0  0  0  0  0  0  0  0  0  0  0
   24.1084  -19.3178  -12.4778 O   0  0  0  0  0  0  0  0  0  0  0  0
   20.5495  -21.6840  -16.3430 C   0  0  0  0  0  0  0  0  0  0  0  0
   20.5576  -21.1704  -14.9465 C   0  0  0  0  0  0  0  0  0  0  0  0
   21.7986  -21.4935  -14.1723 C   0  0  2  0  0  0  0  0  0  0  0  0
   21.9144  -22.9989  -14.0616 C   0  0  0  0  0  0  0  0  0  0  0  0
   21.8484  -20.8824  -12.8113 C   0  0  2  0  0  0  0  0  0  0  0  0
   23.0291  -21.2926  -12.0774 N   0  0  0  0  0  0  0  0  0  0  0  0
   20.6465  -21.3210  -12.0539 C   0  0  0  0  0  0  0  0  0  0  0  0
   19.4609  -20.6160  -12.1729 O   0  0  0  0  0  0  0  0  0  0  0  0
   20.6458  -22.3254  -11.2887 O   0  0  0  0  0  0  0  0  0  0  0  0
  2  1  1  6
  2  4  1  0
  3  2  1  0
  4  5  1  6
  6 13  1  0
  6  4  1  0
  7  6  2  0
  8  9  1  0
  9 10  1  0
 11 10  1  0
 12 11  1  1
 12 13  1  0
 14 15  2  0
 14 12  1  0
 16 17  1  0
 17 18  1  0
 18 20  1  0
 18 19  1  1
 20 21  1  1
 20 22  1  0
 21 14  1  0
 22 23  1  0
 24 22  2  0
M  END
$$$$
