TMI.pdb
     RDKit          3D

 24 23  0  0  1  0  0  0  0  0999 V2000
   28.6090  -18.3161  -16.0775 C   0  0  0  0  0  0  0  0  0  0  0  0
   27.5644  -19.0650  -15.3043 C   0  0  1  0  0  0  0  0  0  0  0  0
   26.4540  -19.2576  -16.1443 O   0  0  0  0  0  0  0  0  0  0  0  0
   28.1081  -20.4095  -14.8523 C   0  0  2  0  0  0  0  0  0  0  0  0
   28.2938  -21.2264  -16.0154 N   0  0  0  0  0  0  0  0  0  0  0  0
   27.1113  -21.0208  -13.9386 C   0  0  0  0  0  0  0  0  0  0  0  0
   26.3017  -21.9073  -14.2733 O   0  0  0  0  0  0  0  0  0  0  0  0
   27.2792  -20.0740   -7.4044 C   0  0  0  0  0  0  0  0  0  0  0  0
   25.5148  -20.3595   -7.6579 S   0  0  0  0  0  0  0  0  0  0  0  0
   25.2057  -21.0607   -9.3008 C   0  0  0  0  0  0  0  0  0  0  0  0
   26.2676  -20.5214  -10.2547 C   0  0  0  0  0  0  0  0  0  0  0  0
   26.0124  -20.9642  -11.6662 C   0  0  2  0  0  0  0  0  0  0  0  0
   27.0561  -20.5839  -12.5885 N   0  0  0  0  0  0  0  0  0  0  0  0
   24.7310  -20.4161  -12.1807 C   0  0  0  0  0  0  0  0  0  0  0  0
   24.5915  -19.2023  -12.4799 O   0  0  0  0  0  0  0  0  0  0  0  0
   23.0077  -21.3880  -16.6727 C   0  0  0  0  0  0  0  0  0  0  0  0
   23.1880  -20.8467  -15.2985 C   0  0  0  0  0  0  0  0  0  0  0  0
   22.1323  -21.2654  -14.3217 C   0  0  2  0  0  0  0  0  0  0  0  0
   20.7895  -20.7944  -14.8383 C   0  0  0  0  0  0  0  0  0  0  0  0
   22.3451  -20.7578  -12.9342 C   0  0  2  0  0  0  0  0  0  0  0  0
   23.5827  -21.2500  -12.3623 N   0  0  0  0  0  0  0  0  0  0  0  0
   21.2162  -21.2212  -12.0849 C   0  0  0  0  0  0  0  0  0  0  0  0
   20.2308  -20.3280  -11.6997 O   0  0  0  0  0  0  0  0  0  0  0  0
   21.1023  -22.4133  -11.6846 O   0  0  0  0  0  0  0  0  0  0  0  0
  2  1  1  6
  2  4  1  0
  3  2  1  0
  4  5  1  6
  6 13  1  0
  6  4  1  0
  7  6  2  0
  8  9  1  0
  9 10  1  0
 11 10  1  0
 12 11  1  1
 12 13  1  0
 14 15  2  0
 14 12  1  0
 16 17  1  0
 17 18  1  0
 18 20  1  0
 18 19  1  6
 20 21  1  1
 20 22  1  0
 21 14  1  0
 22 23  1  0
 24 22  2  0
M  END
$$$$
