SWY.pdb
     RDKit          3D

 33 35  0  0  1  0  0  0  0  0999 V2000
   28.2505  -26.0266  -17.8028 O   0  0  0  0  0  0  0  0  0  0  0  0
   29.4322  -25.4122  -17.4237 C   0  0  0  0  0  0  0  0  0  0  0  0
   29.7197  -24.3348  -18.4705 C   0  0  2  0  0  0  0  0  0  0  0  0
   31.0195  -23.7919  -18.1358 N   0  0  0  0  0  0  0  0  0  0  0  0
   28.7028  -23.2849  -18.3101 C   0  0  0  0  0  0  0  0  0  0  0  0
   28.8500  -22.4147  -17.4130 O   0  0  0  0  0  0  0  0  0  0  0  0
   27.5400  -23.2252  -19.1544 N   0  0  0  0  0  0  0  0  0  0  0  0
   26.5657  -22.2081  -18.9622 C   0  0  1  0  0  0  0  0  0  0  0  0
   26.4097  -21.2606  -20.1463 C   0  0  0  0  0  0  0  0  0  0  0  0
   25.5440  -20.1007  -19.8479 C   0  0  0  0  0  0  0  0  0  0  0  0
   25.6100  -19.3013  -18.7247 C   0  0  0  0  0  0  0  0  0  0  0  0
   24.6868  -18.3317  -18.8038 N   0  0  0  0  0  0  0  0  0  0  0  0
   24.0166  -18.4836  -19.9615 C   0  0  0  0  0  0  0  0  0  0  0  0
   22.9828  -17.7934  -20.5491 C   0  0  0  0  0  0  0  0  0  0  0  0
   22.4539  -18.1594  -21.7670 C   0  0  0  0  0  0  0  0  0  0  0  0
   22.9536  -19.2492  -22.4481 C   0  0  0  0  0  0  0  0  0  0  0  0
   23.9952  -19.9357  -21.8454 C   0  0  0  0  0  0  0  0  0  0  0  0
   24.5350  -19.5804  -20.6269 C   0  0  0  0  0  0  0  0  0  0  0  0
   25.2112  -22.7471  -18.6762 C   0  0  0  0  0  0  0  0  0  0  0  0
   24.8069  -23.6993  -19.3851 O   0  0  0  0  0  0  0  0  0  0  0  0
   25.5236  -28.4822  -16.4950 O   0  0  0  0  0  0  0  0  0  0  0  0
   24.9259  -27.2283  -16.3985 C   0  0  0  0  0  0  0  0  0  0  0  0
   23.5984  -27.1361  -16.7744 C   0  0  0  0  0  0  0  0  0  0  0  0
   22.9633  -25.9172  -16.6968 C   0  0  0  0  0  0  0  0  0  0  0  0
   23.6536  -24.7905  -16.2434 C   0  0  0  0  0  0  0  0  0  0  0  0
   23.0102  -23.4645  -16.1618 C   0  0  0  0  0  0  0  0  0  0  0  0
   23.0044  -22.6940  -17.4581 C   0  0  2  0  0  0  0  0  0  0  0  0
   24.3861  -22.2283  -17.6517 N   0  0  0  0  0  0  0  0  0  0  0  0
   22.0724  -21.5648  -17.3411 C   0  0  0  0  0  0  0  0  0  0  0  0
   20.7165  -21.8069  -17.2822 O   0  0  0  0  0  0  0  0  0  0  0  0
   24.9782  -24.9130  -15.8752 C   0  0  0  0  0  0  0  0  0  0  0  0
   25.6294  -26.1321  -15.9483 C   0  0  0  0  0  0  0  0  0  0  0  0
   22.5000  -20.3976  -17.2953 O   0  0  0  0  0  0  0  0  0  0  0  0
  2  1  1  0
  3  2  1  0
  3  4  1  1
  5  6  2  0
  5  3  1  0
  7  5  1  0
  8  9  1  6
  8  7  1  0
 10  9  1  0
 10 18  1  0
 11 12  1  0
 11 10  2  0
 12 13  1  0
 13 18  2  0
 13 14  1  0
 14 15  2  0
 15 16  1  0
 17 16  2  0
 18 17  1  0
 19  8  1  0
 20 19  2  0
 22 21  1  0
 22 23  2  0
 24 23  1  0
 25 24  2  0
 26 25  1  0
 27 26  1  1
 27 28  1  0
 28 19  1  0
 29 27  1  0
 29 30  1  0
 31 32  2  0
 31 25  1  0
 32 22  1  0
 33 29  2  0
M  END
$$$$
