SWY.pdb
     RDKit          3D

 33 35  0  0  1  0  0  0  0  0999 V2000
   26.7362  -18.9444  -15.7835 O   0  0  0  0  0  0  0  0  0  0  0  0
   27.7525  -18.7492  -14.8633 C   0  0  0  0  0  0  0  0  0  0  0  0
   28.2446  -20.1385  -14.4549 C   0  0  2  0  0  0  0  0  0  0  0  0
   28.5326  -20.8374  -15.6897 N   0  0  0  0  0  0  0  0  0  0  0  0
   27.1335  -20.8129  -13.7671 C   0  0  0  0  0  0  0  0  0  0  0  0
   26.6011  -21.8225  -14.2971 O   0  0  0  0  0  0  0  0  0  0  0  0
   26.6372  -20.3481  -12.4997 N   0  0  0  0  0  0  0  0  0  0  0  0
   25.5788  -21.0375  -11.8477 C   0  0  1  0  0  0  0  0  0  0  0  0
   25.4854  -20.7661  -10.3504 C   0  0  0  0  0  0  0  0  0  0  0  0
   26.7536  -21.0227   -9.6364 C   0  0  0  0  0  0  0  0  0  0  0  0
   27.8549  -21.6833  -10.1420 C   0  0  0  0  0  0  0  0  0  0  0  0
   28.8302  -21.7081   -9.2219 N   0  0  0  0  0  0  0  0  0  0  0  0
   28.3848  -21.0743   -8.1208 C   0  0  0  0  0  0  0  0  0  0  0  0
   28.9468  -20.8088   -6.8944 C   0  0  0  0  0  0  0  0  0  0  0  0
   28.2674  -20.1313   -5.9063 C   0  0  0  0  0  0  0  0  0  0  0  0
   26.9787  -19.6896   -6.1196 C   0  0  0  0  0  0  0  0  0  0  0  0
   26.4242  -19.9631   -7.3594 C   0  0  0  0  0  0  0  0  0  0  0  0
   27.0928  -20.6398   -8.3582 C   0  0  0  0  0  0  0  0  0  0  0  0
   24.2426  -20.7211  -12.4146 C   0  0  0  0  0  0  0  0  0  0  0  0
   23.8928  -19.5169  -12.4317 O   0  0  0  0  0  0  0  0  0  0  0  0
   19.5118  -23.9619   -8.2561 O   0  0  0  0  0  0  0  0  0  0  0  0
   19.9542  -23.1664   -9.3098 C   0  0  0  0  0  0  0  0  0  0  0  0
   20.4120  -21.9011   -8.9907 C   0  0  0  0  0  0  0  0  0  0  0  0
   20.8600  -21.0770   -9.9983 C   0  0  0  0  0  0  0  0  0  0  0  0
   20.8512  -21.5162  -11.3244 C   0  0  0  0  0  0  0  0  0  0  0  0
   21.3088  -20.6549  -12.4323 C   0  0  0  0  0  0  0  0  0  0  0  0
   22.0708  -21.3810  -13.5121 C   0  0  2  0  0  0  0  0  0  0  0  0
   23.3761  -21.7163  -12.9228 N   0  0  0  0  0  0  0  0  0  0  0  0
   22.2218  -20.4936  -14.6728 C   0  0  0  0  0  0  0  0  0  0  0  0
   21.0980  -20.0084  -15.3071 O   0  0  0  0  0  0  0  0  0  0  0  0
   20.3883  -22.7843  -11.6125 C   0  0  0  0  0  0  0  0  0  0  0  0
   19.9347  -23.6235  -10.6097 C   0  0  0  0  0  0  0  0  0  0  0  0
   23.3535  -20.1801  -15.0827 O   0  0  0  0  0  0  0  0  0  0  0  0
  2  1  1  0
  3  2  1  0
  3  4  1  6
  5  6  2  0
  5  3  1  0
  7  5  1  0
  8  9  1  1
  8  7  1  0
 10  9  1  0
 10 18  1  0
 11 12  1  0
 11 10  2  0
 12 13  1  0
 13 18  2  0
 13 14  1  0
 14 15  2  0
 15 16  1  0
 17 16  2  0
 18 17  1  0
 19  8  1  0
 20 19  2  0
 22 21  1  0
 22 23  2  0
 24 23  1  0
 25 24  2  0
 26 25  1  0
 27 26  1  1
 27 28  1  0
 28 19  1  0
 29 27  1  0
 29 30  1  0
 31 32  2  0
 31 25  1  0
 32 22  1  0
 33 29  2  0
M  END
$$$$
