SWY.pdb
     RDKit          3D

 33 35  0  0  1  0  0  0  0  0999 V2000
   26.9208  -19.6368  -15.6168 O   0  0  0  0  0  0  0  0  0  0  0  0
   28.0343  -19.2862  -14.8719 C   0  0  0  0  0  0  0  0  0  0  0  0
   28.4938  -20.5539  -14.1501 C   0  0  2  0  0  0  0  0  0  0  0  0
   28.7590  -21.5284  -15.1875 N   0  0  0  0  0  0  0  0  0  0  0  0
   27.3694  -21.0213  -13.3257 C   0  0  0  0  0  0  0  0  0  0  0  0
   26.6078  -21.9183  -13.7718 O   0  0  0  0  0  0  0  0  0  0  0  0
   27.1158  -20.4791  -12.0179 N   0  0  0  0  0  0  0  0  0  0  0  0
   25.9607  -20.8738  -11.2897 C   0  0  1  0  0  0  0  0  0  0  0  0
   25.9551  -20.4213   -9.8338 C   0  0  0  0  0  0  0  0  0  0  0  0
   27.2568  -20.6184   -9.1625 C   0  0  0  0  0  0  0  0  0  0  0  0
   28.3359  -21.3170   -9.6648 C   0  0  0  0  0  0  0  0  0  0  0  0
   29.3538  -21.2666   -8.7931 N   0  0  0  0  0  0  0  0  0  0  0  0
   28.9581  -20.5459   -7.7270 C   0  0  0  0  0  0  0  0  0  0  0  0
   29.5764  -20.1816   -6.5542 C   0  0  0  0  0  0  0  0  0  0  0  0
   28.9414  -19.4266   -5.5930 C   0  0  0  0  0  0  0  0  0  0  0  0
   27.6422  -19.0045   -5.7798 C   0  0  0  0  0  0  0  0  0  0  0  0
   27.0308  -19.3779   -6.9657 C   0  0  0  0  0  0  0  0  0  0  0  0
   27.6544  -20.1330   -7.9371 C   0  0  0  0  0  0  0  0  0  0  0  0
   24.6966  -20.3729  -11.8885 C   0  0  0  0  0  0  0  0  0  0  0  0
   24.7473  -19.2946  -12.5265 O   0  0  0  0  0  0  0  0  0  0  0  0
   23.6406  -26.1745  -15.2992 O   0  0  0  0  0  0  0  0  0  0  0  0
   23.3385  -24.8574  -14.9634 C   0  0  0  0  0  0  0  0  0  0  0  0
   24.3972  -23.9708  -14.8894 C   0  0  0  0  0  0  0  0  0  0  0  0
   24.1490  -22.6572  -14.5608 C   0  0  0  0  0  0  0  0  0  0  0  0
   22.8439  -22.2288  -14.3066 C   0  0  0  0  0  0  0  0  0  0  0  0
   22.5418  -20.8322  -13.9361 C   0  0  0  0  0  0  0  0  0  0  0  0
   22.2563  -20.6243  -12.4701 C   0  0  2  0  0  0  0  0  0  0  0  0
   23.4686  -21.0623  -11.7614 N   0  0  0  0  0  0  0  0  0  0  0  0
   21.0928  -21.4352  -12.0879 C   0  0  0  0  0  0  0  0  0  0  0  0
   21.2489  -22.4614  -11.1806 O   0  0  0  0  0  0  0  0  0  0  0  0
   21.8073  -23.1366  -14.3879 C   0  0  0  0  0  0  0  0  0  0  0  0
   22.0421  -24.4603  -14.7169 C   0  0  0  0  0  0  0  0  0  0  0  0
   19.9736  -21.2003  -12.5771 O   0  0  0  0  0  0  0  0  0  0  0  0
  2  1  1  0
  3  2  1  0
  3  4  1  6
  5  6  2  0
  5  3  1  0
  7  5  1  0
  8  9  1  1
  8  7  1  0
 10  9  1  0
 10 18  1  0
 11 12  1  0
 11 10  2  0
 12 13  1  0
 13 18  2  0
 13 14  1  0
 14 15  2  0
 15 16  1  0
 17 16  2  0
 18 17  1  0
 19  8  1  0
 20 19  2  0
 22 21  1  0
 22 23  2  0
 24 23  1  0
 25 24  2  0
 26 25  1  0
 27 26  1  6
 27 28  1  0
 28 19  1  0
 29 27  1  0
 29 30  1  0
 31 32  2  0
 31 25  1  0
 32 22  1  0
 33 29  2  0
M  END
$$$$
