SWY.pdb
     RDKit          3D

 33 35  0  0  1  0  0  0  0  0999 V2000
   27.1803  -33.1134  -17.8822 O   0  0  0  0  0  0  0  0  0  0  0  0
   26.3993  -31.9927  -17.6549 C   0  0  0  0  0  0  0  0  0  0  0  0
   27.3632  -30.8311  -17.4083 C   0  0  2  0  0  0  0  0  0  0  0  0
   27.9346  -31.0598  -16.0979 N   0  0  0  0  0  0  0  0  0  0  0  0
   26.5642  -29.5970  -17.3773 C   0  0  0  0  0  0  0  0  0  0  0  0
   26.1561  -29.1534  -16.2726 O   0  0  0  0  0  0  0  0  0  0  0  0
   26.2356  -28.8803  -18.5801 N   0  0  0  0  0  0  0  0  0  0  0  0
   25.4404  -27.7037  -18.5191 C   0  0  1  0  0  0  0  0  0  0  0  0
   25.6188  -26.7666  -19.7084 C   0  0  0  0  0  0  0  0  0  0  0  0
   24.8943  -25.4883  -19.5504 C   0  0  0  0  0  0  0  0  0  0  0  0
   25.1968  -24.4851  -18.6520 C   0  0  0  0  0  0  0  0  0  0  0  0
   24.3414  -23.4641  -18.8081 N   0  0  0  0  0  0  0  0  0  0  0  0
   23.4827  -23.7829  -19.7948 C   0  0  0  0  0  0  0  0  0  0  0  0
   22.4165  -23.1276  -20.3641 C   0  0  0  0  0  0  0  0  0  0  0  0
   21.6726  -23.6815  -21.3823 C   0  0  0  0  0  0  0  0  0  0  0  0
   21.9791  -24.9335  -21.8720 C   0  0  0  0  0  0  0  0  0  0  0  0
   23.0558  -25.5829  -21.2901 C   0  0  0  0  0  0  0  0  0  0  0  0
   23.8098  -25.0404  -20.2705 C   0  0  0  0  0  0  0  0  0  0  0  0
   23.9855  -27.9895  -18.4260 C   0  0  0  0  0  0  0  0  0  0  0  0
   23.5061  -28.8162  -19.2379 O   0  0  0  0  0  0  0  0  0  0  0  0
   21.6705  -33.9278  -17.5226 O   0  0  0  0  0  0  0  0  0  0  0  0
   21.6196  -32.5719  -17.2099 C   0  0  0  0  0  0  0  0  0  0  0  0
   20.4951  -31.8768  -17.6156 C   0  0  0  0  0  0  0  0  0  0  0  0
   20.3985  -30.5336  -17.3297 C   0  0  0  0  0  0  0  0  0  0  0  0
   21.4244  -29.8846  -16.6385 C   0  0  0  0  0  0  0  0  0  0  0  0
   21.3627  -28.4428  -16.3284 C   0  0  0  0  0  0  0  0  0  0  0  0
   21.6868  -27.5407  -17.4925 C   0  0  2  0  0  0  0  0  0  0  0  0
   23.1476  -27.3697  -17.4702 N   0  0  0  0  0  0  0  0  0  0  0  0
   20.9967  -26.2568  -17.3115 C   0  0  0  0  0  0  0  0  0  0  0  0
   19.6190  -26.2167  -17.3391 O   0  0  0  0  0  0  0  0  0  0  0  0
   22.5349  -30.6044  -16.2463 C   0  0  0  0  0  0  0  0  0  0  0  0
   22.6456  -31.9552  -16.5271 C   0  0  0  0  0  0  0  0  0  0  0  0
   21.6476  -25.2117  -17.1344 O   0  0  0  0  0  0  0  0  0  0  0  0
  2  1  1  0
  3  2  1  0
  3  4  1  1
  5  6  2  0
  5  3  1  0
  7  5  1  0
  8  9  1  6
  8  7  1  0
 10  9  1  0
 10 18  1  0
 11 12  1  0
 11 10  2  0
 12 13  1  0
 13 18  2  0
 13 14  1  0
 14 15  2  0
 15 16  1  0
 17 16  2  0
 18 17  1  0
 19  8  1  0
 20 19  2  0
 22 21  1  0
 22 23  2  0
 24 23  1  0
 25 24  2  0
 26 25  1  0
 27 26  1  1
 27 28  1  0
 28 19  1  0
 29 27  1  0
 29 30  1  0
 31 32  2  0
 31 25  1  0
 32 22  1  0
 33 29  2  0
M  END
$$$$
