SWY.pdb
     RDKit          3D

 33 35  0  0  1  0  0  0  0  0999 V2000
   24.2683  -23.2578  -16.5923 O   0  0  0  0  0  0  0  0  0  0  0  0
   25.6440  -23.3867  -16.5004 C   0  0  0  0  0  0  0  0  0  0  0  0
   25.9213  -24.2350  -15.2584 C   0  0  2  0  0  0  0  0  0  0  0  0
   25.2282  -25.4884  -15.4698 N   0  0  0  0  0  0  0  0  0  0  0  0
   25.3213  -23.5401  -14.1097 C   0  0  0  0  0  0  0  0  0  0  0  0
   24.5323  -24.1643  -13.3538 O   0  0  0  0  0  0  0  0  0  0  0  0
   25.6135  -22.1608  -13.8254 N   0  0  0  0  0  0  0  0  0  0  0  0
   25.0456  -21.5276  -12.6865 C   0  0  1  0  0  0  0  0  0  0  0  0
   25.8469  -20.3386  -12.1683 C   0  0  0  0  0  0  0  0  0  0  0  0
   27.0683  -20.7389  -11.4389 C   0  0  0  0  0  0  0  0  0  0  0  0
   28.1795  -21.3507  -11.9830 C   0  0  0  0  0  0  0  0  0  0  0  0
   29.1028  -21.5436  -11.0297 N   0  0  0  0  0  0  0  0  0  0  0  0
   28.6136  -21.0679   -9.8691 C   0  0  0  0  0  0  0  0  0  0  0  0
   29.1147  -21.0067   -8.5902 C   0  0  0  0  0  0  0  0  0  0  0  0
   28.3991  -20.4636   -7.5462 C   0  0  0  0  0  0  0  0  0  0  0  0
   27.1347  -19.9546   -7.7543 C   0  0  0  0  0  0  0  0  0  0  0  0
   26.6416  -20.0220   -9.0473 C   0  0  0  0  0  0  0  0  0  0  0  0
   27.3470  -20.5624  -10.1023 C   0  0  0  0  0  0  0  0  0  0  0  0
   23.6661  -21.0304  -12.9251 C   0  0  0  0  0  0  0  0  0  0  0  0
   23.2873  -20.9271  -14.1161 O   0  0  0  0  0  0  0  0  0  0  0  0
   19.0620  -24.8726   -8.4977 O   0  0  0  0  0  0  0  0  0  0  0  0
   19.5039  -23.6663   -9.0347 C   0  0  0  0  0  0  0  0  0  0  0  0
   19.0036  -23.3112  -10.2740 C   0  0  0  0  0  0  0  0  0  0  0  0
   19.4108  -22.1274  -10.8466 C   0  0  0  0  0  0  0  0  0  0  0  0
   20.3172  -21.2980  -10.1817 C   0  0  0  0  0  0  0  0  0  0  0  0
   20.7884  -20.0296  -10.7716 C   0  0  0  0  0  0  0  0  0  0  0  0
   21.4329  -20.1744  -12.1271 C   0  0  2  0  0  0  0  0  0  0  0  0
   22.7906  -20.6794  -11.8716 N   0  0  0  0  0  0  0  0  0  0  0  0
   21.4673  -18.8616  -12.7850 C   0  0  0  0  0  0  0  0  0  0  0  0
   20.3036  -18.3280  -13.2967 O   0  0  0  0  0  0  0  0  0  0  0  0
   20.7997  -21.6789   -8.9459 C   0  0  0  0  0  0  0  0  0  0  0  0
   20.3992  -22.8664   -8.3583 C   0  0  0  0  0  0  0  0  0  0  0  0
   22.5365  -18.2334  -12.8814 O   0  0  0  0  0  0  0  0  0  0  0  0
  2  1  1  0
  3  2  1  0
  3  4  1  6
  5  6  2  0
  5  3  1  0
  7  5  1  0
  8  9  1  6
  8  7  1  0
 10  9  1  0
 10 18  1  0
 11 12  1  0
 11 10  2  0
 12 13  1  0
 13 18  2  0
 13 14  1  0
 14 15  2  0
 15 16  1  0
 17 16  2  0
 18 17  1  0
 19  8  1  0
 20 19  2  0
 22 21  1  0
 22 23  2  0
 24 23  1  0
 25 24  2  0
 26 25  1  0
 27 26  1  1
 27 28  1  0
 28 19  1  0
 29 27  1  0
 29 30  1  0
 31 32  2  0
 31 25  1  0
 32 22  1  0
 33 29  2  0
M  END
$$$$
