SWY.pdb
     RDKit          3D

 33 35  0  0  1  0  0  0  0  0999 V2000
   25.6996  -26.5331  -19.4135 O   0  0  0  0  0  0  0  0  0  0  0  0
   25.4492  -26.5241  -18.0516 C   0  0  0  0  0  0  0  0  0  0  0  0
   26.6358  -25.8180  -17.3939 C   0  0  2  0  0  0  0  0  0  0  0  0
   27.4886  -26.8688  -16.8794 N   0  0  0  0  0  0  0  0  0  0  0  0
   26.1092  -25.0305  -16.2693 C   0  0  0  0  0  0  0  0  0  0  0  0
   25.9697  -25.5773  -15.1444 O   0  0  0  0  0  0  0  0  0  0  0  0
   25.7481  -23.6466  -16.4207 N   0  0  0  0  0  0  0  0  0  0  0  0
   25.2849  -22.9000  -15.3033 C   0  0  1  0  0  0  0  0  0  0  0  0
   25.8101  -21.4699  -15.2462 C   0  0  0  0  0  0  0  0  0  0  0  0
   27.1824  -21.3795  -14.7052 C   0  0  0  0  0  0  0  0  0  0  0  0
   28.3441  -21.2701  -15.4423 C   0  0  0  0  0  0  0  0  0  0  0  0
   29.3981  -21.1875  -14.6172 N   0  0  0  0  0  0  0  0  0  0  0  0
   28.9450  -21.2415  -13.3506 C   0  0  0  0  0  0  0  0  0  0  0  0
   29.5673  -21.2055  -12.1251 C   0  0  0  0  0  0  0  0  0  0  0  0
   28.8658  -21.2858  -10.9426 C   0  0  0  0  0  0  0  0  0  0  0  0
   27.4924  -21.4068  -10.9503 C   0  0  0  0  0  0  0  0  0  0  0  0
   26.8775  -21.4415  -12.1914 C   0  0  0  0  0  0  0  0  0  0  0  0
   27.5670  -21.3615  -13.3834 C   0  0  0  0  0  0  0  0  0  0  0  0
   23.8036  -22.8046  -15.2415 C   0  0  0  0  0  0  0  0  0  0  0  0
   23.2006  -22.4901  -16.2950 O   0  0  0  0  0  0  0  0  0  0  0  0
   15.5903  -23.3434  -11.8975 O   0  0  0  0  0  0  0  0  0  0  0  0
   16.9611  -23.4283  -12.1269 C   0  0  0  0  0  0  0  0  0  0  0  0
   17.3619  -23.9414  -13.3470 C   0  0  0  0  0  0  0  0  0  0  0  0
   18.7070  -24.0452  -13.6206 C   0  0  0  0  0  0  0  0  0  0  0  0
   19.6519  -23.6365  -12.6764 C   0  0  0  0  0  0  0  0  0  0  0  0
   21.1021  -23.7476  -12.9285 C   0  0  0  0  0  0  0  0  0  0  0  0
   21.6298  -22.7873  -13.9645 C   0  0  2  0  0  0  0  0  0  0  0  0
   23.0736  -23.0528  -14.0561 N   0  0  0  0  0  0  0  0  0  0  0  0
   21.3675  -21.4116  -13.5216 C   0  0  0  0  0  0  0  0  0  0  0  0
   22.3727  -20.6913  -12.9123 O   0  0  0  0  0  0  0  0  0  0  0  0
   19.2220  -23.1284  -11.4672 C   0  0  0  0  0  0  0  0  0  0  0  0
   17.8729  -23.0184  -11.1784 C   0  0  0  0  0  0  0  0  0  0  0  0
   20.2480  -20.8974  -13.6936 O   0  0  0  0  0  0  0  0  0  0  0  0
  2  1  1  0
  3  2  1  0
  3  4  1  1
  5  6  2  0
  5  3  1  0
  7  5  1  0
  8  9  1  6
  8  7  1  0
 10  9  1  0
 10 18  1  0
 11 12  1  0
 11 10  2  0
 12 13  1  0
 13 18  2  0
 13 14  1  0
 14 15  2  0
 15 16  1  0
 17 16  2  0
 18 17  1  0
 19  8  1  0
 20 19  2  0
 22 21  1  0
 22 23  2  0
 24 23  1  0
 25 24  2  0
 26 25  1  0
 27 26  1  1
 27 28  1  0
 28 19  1  0
 29 27  1  0
 29 30  1  0
 31 32  2  0
 31 25  1  0
 32 22  1  0
 33 29  2  0
M  END
$$$$
