SWY.pdb
     RDKit          3D

 33 35  0  0  1  0  0  0  0  0999 V2000
   19.1717  -10.8472  -20.5956 O   0  0  0  0  0  0  0  0  0  0  0  0
   19.5551   -9.9448  -19.6177 C   0  0  0  0  0  0  0  0  0  0  0  0
   21.0799  -10.0209  -19.5267 C   0  0  2  0  0  0  0  0  0  0  0  0
   21.3805  -11.3213  -18.9658 N   0  0  0  0  0  0  0  0  0  0  0  0
   21.5158   -8.9778  -18.5863 C   0  0  0  0  0  0  0  0  0  0  0  0
   21.9243   -9.3089  -17.4430 O   0  0  0  0  0  0  0  0  0  0  0  0
   21.4881   -7.5839  -18.9395 N   0  0  0  0  0  0  0  0  0  0  0  0
   21.8297   -6.5938  -17.9785 C   0  0  1  0  0  0  0  0  0  0  0  0
   22.0261   -5.1988  -18.5614 C   0  0  0  0  0  0  0  0  0  0  0  0
   22.4590   -4.2075  -17.5545 C   0  0  0  0  0  0  0  0  0  0  0  0
   23.5100   -4.3483  -16.6709 C   0  0  0  0  0  0  0  0  0  0  0  0
   23.6245   -3.2409  -15.9231 N   0  0  0  0  0  0  0  0  0  0  0  0
   22.6645   -2.3768  -16.3028 C   0  0  0  0  0  0  0  0  0  0  0  0
   22.3144   -1.1145  -15.8850 C   0  0  0  0  0  0  0  0  0  0  0  0
   21.2617   -0.4223  -16.4416 C   0  0  0  0  0  0  0  0  0  0  0  0
   20.5121   -0.9834  -17.4537 C   0  0  0  0  0  0  0  0  0  0  0  0
   20.8753   -2.2554  -17.8655 C   0  0  0  0  0  0  0  0  0  0  0  0
   21.9271   -2.9599  -17.3180 C   0  0  0  0  0  0  0  0  0  0  0  0
   20.8181   -6.4577  -16.8991 C   0  0  0  0  0  0  0  0  0  0  0  0
   19.6097   -6.5179  -17.2290 O   0  0  0  0  0  0  0  0  0  0  0  0
   17.1392   -7.4901   -9.0086 O   0  0  0  0  0  0  0  0  0  0  0  0
   18.0094   -7.4018  -10.0921 C   0  0  0  0  0  0  0  0  0  0  0  0
   18.8669   -6.3173  -10.1206 C   0  0  0  0  0  0  0  0  0  0  0  0
   19.7462   -6.1861  -11.1717 C   0  0  0  0  0  0  0  0  0  0  0  0
   19.7695   -7.1378  -12.1940 C   0  0  0  0  0  0  0  0  0  0  0  0
   20.6872   -7.0216  -13.3443 C   0  0  0  0  0  0  0  0  0  0  0  0
   20.1582   -6.1841  -14.4812 C   0  0  2  0  0  0  0  0  0  0  0  0
   21.1722   -6.2670  -15.5435 N   0  0  0  0  0  0  0  0  0  0  0  0
   19.9832   -4.8013  -14.0177 C   0  0  0  0  0  0  0  0  0  0  0  0
   18.7267   -4.2341  -14.0330 O   0  0  0  0  0  0  0  0  0  0  0  0
   18.9016   -8.2097  -12.1386 C   0  0  0  0  0  0  0  0  0  0  0  0
   18.0121   -8.3542  -11.0881 C   0  0  0  0  0  0  0  0  0  0  0  0
   20.9591   -4.1443  -13.6138 O   0  0  0  0  0  0  0  0  0  0  0  0
  2  1  1  0
  3  2  1  0
  3  4  1  1
  5  6  2  0
  5  3  1  0
  7  5  1  0
  8  9  1  6
  8  7  1  0
 10  9  1  0
 10 18  1  0
 11 12  1  0
 11 10  2  0
 12 13  1  0
 13 18  2  0
 13 14  1  0
 14 15  2  0
 15 16  1  0
 17 16  2  0
 18 17  1  0
 19  8  1  0
 20 19  2  0
 22 21  1  0
 22 23  2  0
 24 23  1  0
 25 24  2  0
 26 25  1  0
 27 26  1  1
 27 28  1  0
 28 19  1  0
 29 27  1  0
 29 30  1  0
 31 32  2  0
 31 25  1  0
 32 22  1  0
 33 29  2  0
M  END
$$$$
