SWY.pdb
     RDKit          3D

 33 35  0  0  1  0  0  0  0  0999 V2000
   27.7670  -24.2225  -18.0510 O   0  0  0  0  0  0  0  0  0  0  0  0
   28.9325  -23.5440  -18.3654 C   0  0  0  0  0  0  0  0  0  0  0  0
   29.6469  -23.2664  -17.0419 C   0  0  2  0  0  0  0  0  0  0  0  0
   29.5664  -24.4954  -16.2809 N   0  0  0  0  0  0  0  0  0  0  0  0
   28.8876  -22.2174  -16.3452 C   0  0  0  0  0  0  0  0  0  0  0  0
   28.3409  -22.4800  -15.2425 O   0  0  0  0  0  0  0  0  0  0  0  0
   28.7527  -20.8940  -16.8920 N   0  0  0  0  0  0  0  0  0  0  0  0
   27.9908  -19.9091  -16.2064 C   0  0  1  0  0  0  0  0  0  0  0  0
   28.1230  -18.5039  -16.7827 C   0  0  0  0  0  0  0  0  0  0  0  0
   27.2554  -17.5177  -16.1054 C   0  0  0  0  0  0  0  0  0  0  0  0
   27.4901  -16.9321  -14.8778 C   0  0  0  0  0  0  0  0  0  0  0  0
   26.5037  -16.0700  -14.5911 N   0  0  0  0  0  0  0  0  0  0  0  0
   25.6259  -16.0819  -15.6119 C   0  0  0  0  0  0  0  0  0  0  0  0
   24.4484  -15.4129  -15.8496 C   0  0  0  0  0  0  0  0  0  0  0  0
   23.7118  -15.6078  -16.9969 C   0  0  0  0  0  0  0  0  0  0  0  0
   24.1395  -16.4959  -17.9610 C   0  0  0  0  0  0  0  0  0  0  0  0
   25.3274  -17.1632  -17.7095 C   0  0  0  0  0  0  0  0  0  0  0  0
   26.0756  -16.9776  -16.5657 C   0  0  0  0  0  0  0  0  0  0  0  0
   26.5372  -20.2146  -16.1776 C   0  0  0  0  0  0  0  0  0  0  0  0
   26.0897  -20.9783  -17.0659 O   0  0  0  0  0  0  0  0  0  0  0  0
   25.7175  -20.6701   -8.6978 O   0  0  0  0  0  0  0  0  0  0  0  0
   25.4200  -20.8854  -10.0410 C   0  0  0  0  0  0  0  0  0  0  0  0
   26.4797  -21.1848  -10.8775 C   0  0  0  0  0  0  0  0  0  0  0  0
   26.2361  -21.4059  -12.2143 C   0  0  0  0  0  0  0  0  0  0  0  0
   24.9345  -21.3284  -12.7156 C   0  0  0  0  0  0  0  0  0  0  0  0
   24.6375  -21.5437  -14.1454 C   0  0  0  0  0  0  0  0  0  0  0  0
   24.3532  -20.2813  -14.9196 C   0  0  2  0  0  0  0  0  0  0  0  0
   25.6663  -19.6806  -15.1998 N   0  0  0  0  0  0  0  0  0  0  0  0
   23.5237  -19.3905  -14.0975 C   0  0  0  0  0  0  0  0  0  0  0  0
   22.1674  -19.6195  -14.0048 O   0  0  0  0  0  0  0  0  0  0  0  0
   23.8969  -21.0275  -11.8567 C   0  0  0  0  0  0  0  0  0  0  0  0
   24.1271  -20.8025  -10.5105 C   0  0  0  0  0  0  0  0  0  0  0  0
   24.0380  -18.4358  -13.4881 O   0  0  0  0  0  0  0  0  0  0  0  0
  2  1  1  0
  3  2  1  0
  3  4  1  1
  5  6  2  0
  5  3  1  0
  7  5  1  0
  8  9  1  6
  8  7  1  0
 10  9  1  0
 10 18  1  0
 11 12  1  0
 11 10  2  0
 12 13  1  0
 13 18  2  0
 13 14  1  0
 14 15  2  0
 15 16  1  0
 17 16  2  0
 18 17  1  0
 19  8  1  0
 20 19  2  0
 22 21  1  0
 22 23  2  0
 24 23  1  0
 25 24  2  0
 26 25  1  0
 27 26  1  1
 27 28  1  0
 28 19  1  0
 29 27  1  0
 29 30  1  0
 31 32  2  0
 31 25  1  0
 32 22  1  0
 33 29  2  0
M  END
$$$$
