CAL.pdb
     RDKit          3D

 20 19  0  0  1  0  0  0  0  0999 V2000
    6.3915  -19.4432   21.2691 N   0  0  0  0  0  0  0  0  0  0  0  0
    6.2352  -18.3570   22.2290 C   0  0  1  0  0  0  0  0  0  0  0  0
    6.4268  -18.9856   23.6146 C   0  0  0  0  0  0  0  0  0  0  0  0
    6.1002  -17.8059   24.9225 S   0  0  0  0  0  0  0  0  0  0  0  0
    7.3000  -17.3559   21.9633 C   0  0  0  0  0  0  0  0  0  0  0  0
    8.5175  -17.6985   21.8005 O   0  0  0  0  0  0  0  0  0  0  0  0
    7.5061  -13.6449   21.2162 C   0  0  0  0  0  0  0  0  0  0  0  0
    8.0580  -14.9635   21.7649 C   0  0  2  0  0  0  0  0  0  0  0  0
    7.0353  -15.9622   21.8734 N   0  0  0  0  0  0  0  0  0  0  0  0
    8.6717  -14.7358   23.1163 C   0  0  0  0  0  0  0  0  0  0  0  0
    9.7669  -14.1056   23.2287 O   0  0  0  0  0  0  0  0  0  0  0  0
    5.6189  -12.6779   26.5336 C   0  0  0  0  0  0  0  0  0  0  0  0
    6.9176  -13.0255   25.8240 C   0  0  1  0  0  0  0  0  0  0  0  0
    7.8849  -11.8389   25.9250 C   0  0  0  0  0  0  0  0  0  0  0  0
    7.5067  -14.2446   26.4527 C   0  0  0  0  0  0  0  0  0  0  0  0
    8.6040  -14.8140   25.6249 C   0  0  2  0  0  0  0  0  0  0  0  0
    8.0659  -15.2052   24.2946 N   0  0  0  0  0  0  0  0  0  0  0  0
    9.2621  -15.9780   26.2340 C   0  0  0  0  0  0  0  0  0  0  0  0
    9.9765  -15.8591   27.4315 O   0  0  0  0  0  0  0  0  0  0  0  0
    9.2069  -17.1000   25.7100 O   0  0  0  0  0  0  0  0  0  0  0  0
  2  1  1  6
  3  2  1  0
  4  3  1  0
  5  6  2  0
  5  2  1  0
  8  7  1  1
  8  9  1  0
  9  5  1  0
 10  8  1  0
 11 10  2  0
 13 12  1  1
 13 14  1  0
 15 13  1  0
 16 15  1  1
 16 17  1  0
 17 10  1  0
 18 16  1  0
 19 18  1  0
 20 18  2  0
M  END
$$$$
