CAL.pdb
     RDKit          3D

 20 19  0  0  1  0  0  0  0  0999 V2000
    7.8485  -16.0727   18.9540 N   0  0  0  0  0  0  0  0  0  0  0  0
    7.7564  -15.5381   20.3074 C   0  0  1  0  0  0  0  0  0  0  0  0
    6.3726  -15.9433   20.8294 C   0  0  0  0  0  0  0  0  0  0  0  0
    6.1496  -15.4643   22.5412 S   0  0  0  0  0  0  0  0  0  0  0  0
    8.8234  -16.1730   21.1229 C   0  0  0  0  0  0  0  0  0  0  0  0
    9.0910  -17.4161   21.0272 O   0  0  0  0  0  0  0  0  0  0  0  0
   11.9731  -15.3640   22.7142 C   0  0  0  0  0  0  0  0  0  0  0  0
   10.6111  -16.0408   22.8904 C   0  0  2  0  0  0  0  0  0  0  0  0
    9.6102  -15.4439   22.0555 N   0  0  0  0  0  0  0  0  0  0  0  0
   10.1778  -15.9475   24.3251 C   0  0  0  0  0  0  0  0  0  0  0  0
   10.9705  -16.2744   25.2601 O   0  0  0  0  0  0  0  0  0  0  0  0
    5.9382  -12.6908   25.6941 C   0  0  0  0  0  0  0  0  0  0  0  0
    7.3179  -13.3284   25.7254 C   0  0  1  0  0  0  0  0  0  0  0  0
    8.2425  -12.4947   26.6220 C   0  0  0  0  0  0  0  0  0  0  0  0
    7.1991  -14.7250   26.2394 C   0  0  0  0  0  0  0  0  0  0  0  0
    8.4822  -15.4676   26.1135 C   0  0  2  0  0  0  0  0  0  0  0  0
    8.8946  -15.5007   24.6848 N   0  0  0  0  0  0  0  0  0  0  0  0
    8.4219  -16.8440   26.6242 C   0  0  0  0  0  0  0  0  0  0  0  0
    8.2069  -17.9254   25.7622 O   0  0  0  0  0  0  0  0  0  0  0  0
    8.5588  -17.0930   27.8307 O   0  0  0  0  0  0  0  0  0  0  0  0
  2  1  1  6
  3  2  1  0
  4  3  1  0
  5  6  2  0
  5  2  1  0
  8  7  1  1
  8  9  1  0
  9  5  1  0
 10  8  1  0
 11 10  2  0
 13 12  1  1
 13 14  1  0
 15 13  1  0
 16 15  1  6
 16 17  1  0
 17 10  1  0
 18 16  1  0
 19 18  1  0
 20 18  2  0
M  END
$$$$
