CAL.pdb
     RDKit          3D

 20 19  0  0  1  0  0  0  0  0999 V2000
    6.4084  -19.8208   21.6926 N   0  0  0  0  0  0  0  0  0  0  0  0
    6.3029  -18.5954   22.4757 C   0  0  1  0  0  0  0  0  0  0  0  0
    6.0529  -19.0377   23.9225 C   0  0  0  0  0  0  0  0  0  0  0  0
    5.6308  -17.6479   24.9711 S   0  0  0  0  0  0  0  0  0  0  0  0
    7.5972  -17.8739   22.3714 C   0  0  0  0  0  0  0  0  0  0  0  0
    8.7140  -18.4828   22.4626 O   0  0  0  0  0  0  0  0  0  0  0  0
    8.8077  -14.4921   21.2525 C   0  0  0  0  0  0  0  0  0  0  0  0
    8.9090  -15.7382   22.1363 C   0  0  2  0  0  0  0  0  0  0  0  0
    7.6765  -16.4698   22.1648 N   0  0  0  0  0  0  0  0  0  0  0  0
    9.2804  -15.3411   23.5360 C   0  0  0  0  0  0  0  0  0  0  0  0
   10.4287  -14.8638   23.7871 O   0  0  0  0  0  0  0  0  0  0  0  0
    5.9598  -12.6088   26.4201 C   0  0  0  0  0  0  0  0  0  0  0  0
    7.2951  -13.1194   25.9031 C   0  0  1  0  0  0  0  0  0  0  0  0
    8.3637  -12.0363   26.1000 C   0  0  0  0  0  0  0  0  0  0  0  0
    7.6606  -14.3649   26.6405 C   0  0  0  0  0  0  0  0  0  0  0  0
    8.7872  -15.0814   25.9840 C   0  0  2  0  0  0  0  0  0  0  0  0
    8.3835  -15.4803   24.6092 N   0  0  0  0  0  0  0  0  0  0  0  0
    9.2353  -16.2749   26.7145 C   0  0  0  0  0  0  0  0  0  0  0  0
    9.1622  -17.5464   26.1345 O   0  0  0  0  0  0  0  0  0  0  0  0
    9.6914  -16.1964   27.8644 O   0  0  0  0  0  0  0  0  0  0  0  0
  2  1  1  6
  3  2  1  0
  4  3  1  0
  5  6  2  0
  5  2  1  0
  8  7  1  6
  8  9  1  0
  9  5  1  0
 10  8  1  0
 11 10  2  0
 13 12  1  1
 13 14  1  0
 15 13  1  0
 16 15  1  1
 16 17  1  0
 17 10  1  0
 18 16  1  0
 19 18  1  0
 20 18  2  0
M  END
$$$$
