CAL.pdb
     RDKit          3D

 20 19  0  0  1  0  0  0  0  0999 V2000
    6.0081  -19.5657   21.6985 N   0  0  0  0  0  0  0  0  0  0  0  0
    6.0527  -18.4396   22.6236 C   0  0  1  0  0  0  0  0  0  0  0  0
    6.4168  -19.0295   23.9914 C   0  0  0  0  0  0  0  0  0  0  0  0
    6.3585  -17.7864   25.2800 S   0  0  0  0  0  0  0  0  0  0  0  0
    7.1154  -17.5105   22.1612 C   0  0  0  0  0  0  0  0  0  0  0  0
    8.2926  -17.9191   21.8903 O   0  0  0  0  0  0  0  0  0  0  0  0
    7.4035  -13.9037   21.0613 C   0  0  0  0  0  0  0  0  0  0  0  0
    7.9386  -15.1698   21.7359 C   0  0  2  0  0  0  0  0  0  0  0  0
    6.8931  -16.1168   21.9915 N   0  0  0  0  0  0  0  0  0  0  0  0
    8.6091  -14.8123   23.0310 C   0  0  0  0  0  0  0  0  0  0  0  0
    9.7175  -14.1952   23.0339 O   0  0  0  0  0  0  0  0  0  0  0  0
    5.7869  -12.5006   26.5945 C   0  0  0  0  0  0  0  0  0  0  0  0
    7.0002  -12.9067   25.7735 C   0  0  1  0  0  0  0  0  0  0  0  0
    7.9687  -11.7206   25.6778 C   0  0  0  0  0  0  0  0  0  0  0  0
    7.6594  -14.0783   26.4227 C   0  0  0  0  0  0  0  0  0  0  0  0
    8.6867  -14.6906   25.5376 C   0  0  2  0  0  0  0  0  0  0  0  0
    8.0435  -15.1422   24.2748 N   0  0  0  0  0  0  0  0  0  0  0  0
    9.3912  -15.8271   26.1467 C   0  0  0  0  0  0  0  0  0  0  0  0
   10.1950  -15.6555   27.2793 O   0  0  0  0  0  0  0  0  0  0  0  0
    9.2978  -16.9716   25.6799 O   0  0  0  0  0  0  0  0  0  0  0  0
  2  1  1  6
  3  2  1  0
  4  3  1  0
  5  6  2  0
  5  2  1  0
  8  7  1  1
  8  9  1  0
  9  5  1  0
 10  8  1  0
 11 10  2  0
 13 12  1  1
 13 14  1  0
 15 13  1  0
 16 15  1  1
 16 17  1  0
 17 10  1  0
 18 16  1  0
 19 18  1  0
 20 18  2  0
M  END
$$$$
