CAL.pdb
     RDKit          3D

 20 19  0  0  1  0  0  0  0  0999 V2000
    7.5885  -14.6124   18.0281 N   0  0  0  0  0  0  0  0  0  0  0  0
    8.4332  -14.1828   19.1361 C   0  0  1  0  0  0  0  0  0  0  0  0
    8.1285  -12.6951   19.3488 C   0  0  0  0  0  0  0  0  0  0  0  0
    9.0703  -12.0198   20.7149 S   0  0  0  0  0  0  0  0  0  0  0  0
    8.0458  -14.9672   20.3366 C   0  0  0  0  0  0  0  0  0  0  0  0
    6.8243  -15.1416   20.6586 O   0  0  0  0  0  0  0  0  0  0  0  0
    9.3287  -17.7259   22.3253 C   0  0  0  0  0  0  0  0  0  0  0  0
    8.6546  -16.3514   22.3493 C   0  0  2  0  0  0  0  0  0  0  0  0
    9.0018  -15.5702   21.1984 N   0  0  0  0  0  0  0  0  0  0  0  0
    9.0569  -15.6083   23.5906 C   0  0  0  0  0  0  0  0  0  0  0  0
   10.1980  -15.0601   23.6720 O   0  0  0  0  0  0  0  0  0  0  0  0
    5.6950  -12.5013   26.3905 C   0  0  0  0  0  0  0  0  0  0  0  0
    6.9481  -13.0589   25.7350 C   0  0  1  0  0  0  0  0  0  0  0  0
    7.9701  -11.9295   25.5502 C   0  0  0  0  0  0  0  0  0  0  0  0
    7.5072  -14.1443   26.5941 C   0  0  0  0  0  0  0  0  0  0  0  0
    8.6597  -14.8225   25.9418 C   0  0  2  0  0  0  0  0  0  0  0  0
    8.1974  -15.4920   24.6967 N   0  0  0  0  0  0  0  0  0  0  0  0
    9.3245  -15.8145   26.7979 C   0  0  0  0  0  0  0  0  0  0  0  0
    9.2955  -17.1773   26.4808 O   0  0  0  0  0  0  0  0  0  0  0  0
    9.9309  -15.4794   27.8257 O   0  0  0  0  0  0  0  0  0  0  0  0
  2  1  1  6
  3  2  1  0
  4  3  1  0
  5  6  2  0
  5  2  1  0
  8  7  1  6
  8  9  1  0
  9  5  1  0
 10  8  1  0
 11 10  2  0
 13 12  1  1
 13 14  1  0
 15 13  1  0
 16 15  1  1
 16 17  1  0
 17 10  1  0
 18 16  1  0
 19 18  1  0
 20 18  2  0
M  END
$$$$
