CAL.pdb
     RDKit          3D

 20 19  0  0  1  0  0  0  0  0999 V2000
    8.6599  -14.8495   17.5335 N   0  0  0  0  0  0  0  0  0  0  0  0
    8.9479  -14.2735   18.8417 C   0  0  1  0  0  0  0  0  0  0  0  0
    8.2974  -12.8849   18.8454 C   0  0  0  0  0  0  0  0  0  0  0  0
    8.4883  -12.0738   20.4312 S   0  0  0  0  0  0  0  0  0  0  0  0
    8.3207  -15.1416   19.8711 C   0  0  0  0  0  0  0  0  0  0  0  0
    7.4406  -16.0133   19.5680 O   0  0  0  0  0  0  0  0  0  0  0  0
    8.9102  -17.4247   21.8536 C   0  0  0  0  0  0  0  0  0  0  0  0
    8.3113  -16.0625   22.2140 C   0  0  2  0  0  0  0  0  0  0  0  0
    8.6567  -15.0594   21.2498 N   0  0  0  0  0  0  0  0  0  0  0  0
    8.7980  -15.6343   23.5685 C   0  0  0  0  0  0  0  0  0  0  0  0
   10.0392  -15.5011   23.7946 O   0  0  0  0  0  0  0  0  0  0  0  0
    5.6151  -12.3582   26.4980 C   0  0  0  0  0  0  0  0  0  0  0  0
    6.8161  -12.9743   25.7988 C   0  0  1  0  0  0  0  0  0  0  0  0
    7.8998  -11.9043   25.6129 C   0  0  0  0  0  0  0  0  0  0  0  0
    7.3289  -14.1112   26.6193 C   0  0  0  0  0  0  0  0  0  0  0  0
    8.4193  -14.8444   25.9214 C   0  0  2  0  0  0  0  0  0  0  0  0
    7.9106  -15.3676   24.6253 N   0  0  0  0  0  0  0  0  0  0  0  0
    8.9756  -15.9593   26.7002 C   0  0  0  0  0  0  0  0  0  0  0  0
    9.9405  -15.7385   27.6895 O   0  0  0  0  0  0  0  0  0  0  0  0
    8.6107  -17.1282   26.5080 O   0  0  0  0  0  0  0  0  0  0  0  0
  2  1  1  6
  3  2  1  0
  4  3  1  0
  5  6  2  0
  5  2  1  0
  8  7  1  6
  8  9  1  0
  9  5  1  0
 10  8  1  0
 11 10  2  0
 13 12  1  1
 13 14  1  0
 15 13  1  0
 16 15  1  1
 16 17  1  0
 17 10  1  0
 18 16  1  0
 19 18  1  0
 20 18  2  0
M  END
$$$$
