CAL.pdb
     RDKit          3D

 20 19  0  0  1  0  0  0  0  0999 V2000
    7.8462  -15.1806   18.0324 N   0  0  0  0  0  0  0  0  0  0  0  0
    8.4920  -14.5474   19.1761 C   0  0  1  0  0  0  0  0  0  0  0  0
    8.0026  -13.0942   19.1877 C   0  0  0  0  0  0  0  0  0  0  0  0
    8.6042  -12.2094   20.6245 S   0  0  0  0  0  0  0  0  0  0  0  0
    8.0433  -15.2544   20.4031 C   0  0  0  0  0  0  0  0  0  0  0  0
    6.8229  -15.5776   20.5829 O   0  0  0  0  0  0  0  0  0  0  0  0
    9.0801  -17.7427   22.6630 C   0  0  0  0  0  0  0  0  0  0  0  0
    8.5327  -16.3131   22.6340 C   0  0  2  0  0  0  0  0  0  0  0  0
    8.9360  -15.6146   21.4489 N   0  0  0  0  0  0  0  0  0  0  0  0
    9.0139  -15.5589   23.8401 C   0  0  0  0  0  0  0  0  0  0  0  0
   10.1907  -15.0865   23.8773 O   0  0  0  0  0  0  0  0  0  0  0  0
    5.6537  -12.3485   26.5411 C   0  0  0  0  0  0  0  0  0  0  0  0
    6.8757  -12.9348   25.8525 C   0  0  1  0  0  0  0  0  0  0  0  0
    7.8221  -11.7987   25.4432 C   0  0  0  0  0  0  0  0  0  0  0  0
    7.5557  -13.8807   26.7861 C   0  0  0  0  0  0  0  0  0  0  0  0
    8.6939  -14.5781   26.1290 C   0  0  2  0  0  0  0  0  0  0  0  0
    8.1915  -15.3489   24.9604 N   0  0  0  0  0  0  0  0  0  0  0  0
    9.4253  -15.4878   27.0213 C   0  0  0  0  0  0  0  0  0  0  0  0
    9.2913  -16.8760   26.9051 O   0  0  0  0  0  0  0  0  0  0  0  0
   10.1826  -15.0584   27.9037 O   0  0  0  0  0  0  0  0  0  0  0  0
  2  1  1  6
  3  2  1  0
  4  3  1  0
  5  6  2  0
  5  2  1  0
  8  7  1  6
  8  9  1  0
  9  5  1  0
 10  8  1  0
 11 10  2  0
 13 12  1  1
 13 14  1  0
 15 13  1  0
 16 15  1  1
 16 17  1  0
 17 10  1  0
 18 16  1  0
 19 18  1  0
 20 18  2  0
M  END
$$$$
