NTV.pdb
     RDKit          3D

 23 22  0  0  1  0  0  0  0  0999 V2000
   15.0657  -12.9439  -12.8618 N   0  0  0  0  0  0  0  0  0  0  0  0
   14.3931  -12.5459  -11.6766 C   0  0  0  0  0  0  0  0  0  0  0  0
   13.3934  -13.1788  -11.2590 O   0  0  0  0  0  0  0  0  0  0  0  0
   14.8775  -11.3540  -10.9071 C   0  0  0  0  0  0  0  0  0  0  0  0
   16.1111  -10.7863  -11.5728 C   0  0  2  0  0  0  0  0  0  0  0  0
   17.1924  -11.7584  -11.4847 N   0  0  0  0  0  0  0  0  0  0  0  0
   16.4690   -9.5449  -10.8476 C   0  0  0  0  0  0  0  0  0  0  0  0
   17.0312   -9.6867   -9.7203 O   0  0  0  0  0  0  0  0  0  0  0  0
   18.8491   -7.0630  -11.8057 C   0  0  0  0  0  0  0  0  0  0  0  0
   17.5970   -6.3025  -11.5041 C   0  0  1  0  0  0  0  0  0  0  0  0
   16.9321   -5.8626  -12.6362 O   0  0  0  0  0  0  0  0  0  0  0  0
   16.6643   -7.1061  -10.6113 C   0  0  2  0  0  0  0  0  0  0  0  0
   16.2142   -8.2402  -11.3518 N   0  0  0  0  0  0  0  0  0  0  0  0
   15.5648   -6.2701  -10.0815 C   0  0  0  0  0  0  0  0  0  0  0  0
   14.4977   -6.2176  -10.7143 O   0  0  0  0  0  0  0  0  0  0  0  0
   13.9900   -6.2013   -6.4651 C   0  0  0  0  0  0  0  0  0  0  0  0
   14.3353   -4.8067   -6.8924 C   0  0  2  0  0  0  0  0  0  0  0  0
   13.3114   -3.7865   -6.4126 C   0  0  0  0  0  0  0  0  0  0  0  0
   14.6334   -4.6802   -8.3479 C   0  0  2  0  0  0  0  0  0  0  0  0
   15.6298   -5.5124   -8.8929 N   0  0  0  0  0  0  0  0  0  0  0  0
   15.0199   -3.2566   -8.6003 C   0  0  0  0  0  0  0  0  0  0  0  0
   14.0760   -2.2569   -8.7777 O   0  0  0  0  0  0  0  0  0  0  0  0
   16.2306   -2.9017   -8.6631 O   0  0  0  0  0  0  0  0  0  0  0  0
  2  1  1  0
  3  2  2  0
  4  2  1  0
  4  5  1  0
  5  6  1  1
  7  5  1  0
  7  8  2  0
 10  9  1  6
 10 12  1  0
 11 10  1  0
 12 14  1  0
 12 13  1  6
 13  7  1  0
 14 20  1  0
 15 14  2  0
 17 16  1  6
 17 18  1  0
 19 17  1  0
 19 20  1  1
 21 22  1  0
 21 19  1  0
 23 21  2  0
M  END
$$$$
