NTV.pdb
     RDKit          3D

 23 22  0  0  1  0  0  0  0  0999 V2000
   23.8626  -22.1603   -8.5807 N   0  0  0  0  0  0  0  0  0  0  0  0
   23.7324  -20.7733   -8.8539 C   0  0  0  0  0  0  0  0  0  0  0  0
   23.0690  -20.0261   -8.0950 O   0  0  0  0  0  0  0  0  0  0  0  0
   24.3935  -20.1849  -10.0639 C   0  0  0  0  0  0  0  0  0  0  0  0
   25.1381  -21.2672  -10.8130 C   0  0  2  0  0  0  0  0  0  0  0  0
   26.3935  -21.5457  -10.1286 N   0  0  0  0  0  0  0  0  0  0  0  0
   25.3946  -20.7575  -12.1803 C   0  0  0  0  0  0  0  0  0  0  0  0
   26.5011  -20.1685  -12.3695 O   0  0  0  0  0  0  0  0  0  0  0  0
   25.5274  -22.7004  -15.2915 C   0  0  0  0  0  0  0  0  0  0  0  0
   24.6066  -21.5497  -15.5471 C   0  0  1  0  0  0  0  0  0  0  0  0
   23.2695  -21.9083  -15.5754 O   0  0  0  0  0  0  0  0  0  0  0  0
   24.8401  -20.4239  -14.5516 C   0  0  2  0  0  0  0  0  0  0  0  0
   24.4757  -20.8989  -13.2559 N   0  0  0  0  0  0  0  0  0  0  0  0
   24.1302  -19.1890  -14.9511 C   0  0  0  0  0  0  0  0  0  0  0  0
   23.0880  -18.8798  -14.3509 O   0  0  0  0  0  0  0  0  0  0  0  0
   25.7157  -16.1663  -17.8782 C   0  0  0  0  0  0  0  0  0  0  0  0
   24.8339  -15.9511  -16.6855 C   0  0  2  0  0  0  0  0  0  0  0  0
   25.6157  -15.4730  -15.4691 C   0  0  0  0  0  0  0  0  0  0  0  0
   23.9451  -17.1083  -16.3783 C   0  0  2  0  0  0  0  0  0  0  0  0
   24.5477  -18.3162  -15.9782 N   0  0  0  0  0  0  0  0  0  0  0  0
   23.1240  -17.3749  -17.6008 C   0  0  0  0  0  0  0  0  0  0  0  0
   22.1163  -16.5170  -18.0135 O   0  0  0  0  0  0  0  0  0  0  0  0
   23.3146  -18.3998  -18.3144 O   0  0  0  0  0  0  0  0  0  0  0  0
  2  1  1  0
  3  2  2  0
  4  2  1  0
  4  5  1  0
  5  6  1  1
  7  5  1  0
  7  8  2  0
 10  9  1  1
 10 12  1  0
 11 10  1  0
 12 14  1  0
 12 13  1  1
 13  7  1  0
 14 20  1  0
 15 14  2  0
 17 16  1  6
 17 18  1  0
 19 17  1  0
 19 20  1  6
 21 22  1  0
 21 19  1  0
 23 21  2  0
M  END
$$$$
