NTV.pdb
     RDKit          3D

 23 22  0  0  1  0  0  0  0  0999 V2000
   14.2191  -14.5947  -15.2865 N   0  0  0  0  0  0  0  0  0  0  0  0
   15.4368  -14.5692  -14.5572 C   0  0  0  0  0  0  0  0  0  0  0  0
   15.5362  -15.1469  -13.4478 O   0  0  0  0  0  0  0  0  0  0  0  0
   16.6255  -13.8443  -15.1131 C   0  0  0  0  0  0  0  0  0  0  0  0
   16.2314  -13.1186  -16.3800 C   0  0  2  0  0  0  0  0  0  0  0  0
   16.1798  -14.0714  -17.4807 N   0  0  0  0  0  0  0  0  0  0  0  0
   17.2645  -12.0874  -16.6343 C   0  0  0  0  0  0  0  0  0  0  0  0
   18.2899  -12.4572  -17.2816 O   0  0  0  0  0  0  0  0  0  0  0  0
   16.8036   -8.8596  -18.4284 C   0  0  0  0  0  0  0  0  0  0  0  0
   17.4701   -8.5656  -17.1221 C   0  0  1  0  0  0  0  0  0  0  0  0
   16.6186   -8.0145  -16.1796 O   0  0  0  0  0  0  0  0  0  0  0  0
   18.1617   -9.8001  -16.5649 C   0  0  2  0  0  0  0  0  0  0  0  0
   17.1537  -10.7401  -16.1940 N   0  0  0  0  0  0  0  0  0  0  0  0
   19.0844   -9.4547  -15.4613 C   0  0  0  0  0  0  0  0  0  0  0  0
   18.6693   -9.5248  -14.2931 O   0  0  0  0  0  0  0  0  0  0  0  0
   23.4601   -9.1394  -15.8751 C   0  0  0  0  0  0  0  0  0  0  0  0
   22.6734   -9.3317  -14.6138 C   0  0  2  0  0  0  0  0  0  0  0  0
   22.5927  -10.7957  -14.2021 C   0  0  0  0  0  0  0  0  0  0  0  0
   21.3396   -8.6653  -14.6297 C   0  0  2  0  0  0  0  0  0  0  0  0
   20.4238   -9.0440  -15.6298 N   0  0  0  0  0  0  0  0  0  0  0  0
   21.5798   -7.1926  -14.7454 C   0  0  0  0  0  0  0  0  0  0  0  0
   21.1798   -6.4655  -15.8558 O   0  0  0  0  0  0  0  0  0  0  0  0
   22.1614   -6.5441  -13.8306 O   0  0  0  0  0  0  0  0  0  0  0  0
  2  1  1  0
  3  2  2  0
  4  2  1  0
  4  5  1  0
  5  6  1  6
  7  5  1  0
  7  8  2  0
 10  9  1  6
 10 12  1  0
 11 10  1  0
 12 14  1  0
 12 13  1  1
 13  7  1  0
 14 20  1  0
 15 14  2  0
 17 16  1  6
 17 18  1  0
 19 17  1  0
 19 20  1  6
 21 22  1  0
 21 19  1  0
 23 21  2  0
M  END
$$$$
