NTV.pdb
     RDKit          3D

 23 22  0  0  1  0  0  0  0  0999 V2000
   24.1005  -16.9017  -14.4737 N   0  0  0  0  0  0  0  0  0  0  0  0
   24.6350  -16.1050  -15.5200 C   0  0  0  0  0  0  0  0  0  0  0  0
   25.8459  -16.1866  -15.8385 O   0  0  0  0  0  0  0  0  0  0  0  0
   23.7472  -15.1502  -16.2601 C   0  0  0  0  0  0  0  0  0  0  0  0
   22.3550  -15.1902  -15.6710 C   0  0  2  0  0  0  0  0  0  0  0  0
   21.6500  -16.3553  -16.1881 N   0  0  0  0  0  0  0  0  0  0  0  0
   21.6684  -13.9434  -16.0826 C   0  0  0  0  0  0  0  0  0  0  0  0
   21.6502  -13.6874  -17.3240 O   0  0  0  0  0  0  0  0  0  0  0  0
   18.2024  -13.0141  -16.0182 C   0  0  0  0  0  0  0  0  0  0  0  0
   18.9309  -11.9545  -15.2541 C   0  0  1  0  0  0  0  0  0  0  0  0
   18.8148  -12.0859  -13.8807 O   0  0  0  0  0  0  0  0  0  0  0  0
   20.3933  -11.8838  -15.6655 C   0  0  2  0  0  0  0  0  0  0  0  0
   21.0481  -13.0500  -15.1669 N   0  0  0  0  0  0  0  0  0  0  0  0
   21.0210  -10.6184  -15.2260 C   0  0  0  0  0  0  0  0  0  0  0  0
   21.7909  -10.6417  -14.2520 O   0  0  0  0  0  0  0  0  0  0  0  0
   21.0127   -6.8199  -17.5832 C   0  0  0  0  0  0  0  0  0  0  0  0
   22.0031   -7.3083  -16.5697 C   0  0  2  0  0  0  0  0  0  0  0  0
   23.2035   -7.9865  -17.2168 C   0  0  0  0  0  0  0  0  0  0  0  0
   21.3962   -8.1297  -15.4832 C   0  0  2  0  0  0  0  0  0  0  0  0
   20.8131   -9.3622  -15.8342 N   0  0  0  0  0  0  0  0  0  0  0  0
   20.3519   -7.2874  -14.8199 C   0  0  0  0  0  0  0  0  0  0  0  0
   20.6721   -6.1439  -14.1048 O   0  0  0  0  0  0  0  0  0  0  0  0
   19.1256   -7.5838  -14.8832 O   0  0  0  0  0  0  0  0  0  0  0  0
  2  1  1  0
  3  2  2  0
  4  2  1  0
  4  5  1  0
  5  6  1  6
  7  5  1  0
  7  8  2  0
 10  9  1  6
 10 12  1  0
 11 10  1  0
 12 14  1  0
 12 13  1  1
 13  7  1  0
 14 20  1  0
 15 14  2  0
 17 16  1  6
 17 18  1  0
 19 17  1  0
 19 20  1  6
 21 22  1  0
 21 19  1  0
 23 21  2  0
M  END
$$$$
