NTV.pdb
     RDKit          3D

 23 22  0  0  1  0  0  0  0  0999 V2000
   29.2075  -33.7333   -4.3576 N   0  0  0  0  0  0  0  0  0  0  0  0
   27.9905  -33.4448   -3.6860 C   0  0  0  0  0  0  0  0  0  0  0  0
   27.0647  -32.8273   -4.2658 O   0  0  0  0  0  0  0  0  0  0  0  0
   27.8003  -33.8804   -2.2642 C   0  0  0  0  0  0  0  0  0  0  0  0
   28.9873  -34.7070   -1.8228 C   0  0  2  0  0  0  0  0  0  0  0  0
   28.9242  -36.0143   -2.4624 N   0  0  0  0  0  0  0  0  0  0  0  0
   28.9024  -34.8452   -0.3501 C   0  0  0  0  0  0  0  0  0  0  0  0
   27.9497  -35.5495    0.1011 O   0  0  0  0  0  0  0  0  0  0  0  0
   31.3123  -36.5132    1.7463 C   0  0  0  0  0  0  0  0  0  0  0  0
   31.1120  -35.1523    2.3337 C   0  0  1  0  0  0  0  0  0  0  0  0
   32.1333  -34.2664    2.0349 O   0  0  0  0  0  0  0  0  0  0  0  0
   29.7637  -34.5721    1.9357 C   0  0  2  0  0  0  0  0  0  0  0  0
   29.8201  -34.2370    0.5495 N   0  0  0  0  0  0  0  0  0  0  0  0
   29.3827  -33.4369    2.8046 C   0  0  0  0  0  0  0  0  0  0  0  0
   29.5349  -32.2813    2.3765 O   0  0  0  0  0  0  0  0  0  0  0  0
   27.1272  -33.9413    6.5397 C   0  0  0  0  0  0  0  0  0  0  0  0
   27.2274  -32.6650    5.7603 C   0  0  2  0  0  0  0  0  0  0  0  0
   25.9945  -32.4153    4.9017 C   0  0  0  0  0  0  0  0  0  0  0  0
   28.4987  -32.5270    4.9934 C   0  0  2  0  0  0  0  0  0  0  0  0
   28.8501  -33.5614    4.1053 N   0  0  0  0  0  0  0  0  0  0  0  0
   29.6038  -32.3673    5.9900 C   0  0  0  0  0  0  0  0  0  0  0  0
   29.7199  -31.2394    6.7875 O   0  0  0  0  0  0  0  0  0  0  0  0
   30.4843  -33.2591    6.1488 O   0  0  0  0  0  0  0  0  0  0  0  0
  2  1  1  0
  3  2  2  0
  4  2  1  0
  4  5  1  0
  5  6  1  6
  7  5  1  0
  7  8  2  0
 10  9  1  6
 10 12  1  0
 11 10  1  0
 12 14  1  0
 12 13  1  6
 13  7  1  0
 14 20  1  0
 15 14  2  0
 17 16  1  6
 17 18  1  0
 19 17  1  0
 19 20  1  1
 21 22  1  0
 21 19  1  0
 23 21  2  0
M  END
$$$$
