MLE.pdb
     RDKit          3D

 26 25  0  0  1  0  0  0  0  0999 V2000
   25.8512  -17.2947  -17.4175 C   0  0  0  0  0  0  0  0  0  0  0  0
   27.6431  -17.0615  -17.2008 S   0  0  0  0  0  0  0  0  0  0  0  0
   28.3485  -18.3230  -16.1208 C   0  0  0  0  0  0  0  0  0  0  0  0
   27.2096  -19.0526  -15.4404 C   0  0  0  0  0  0  0  0  0  0  0  0
   27.7258  -20.1711  -14.5524 C   0  0  2  0  0  0  0  0  0  0  0  0
   28.3433  -21.2087  -15.3984 N   0  0  0  0  0  0  0  0  0  0  0  0
   26.6481  -20.8113  -13.7893 C   0  0  0  0  0  0  0  0  0  0  0  0
   26.0437  -21.7983  -14.2698 O   0  0  0  0  0  0  0  0  0  0  0  0
   26.1426  -20.0033   -8.1670 C   0  0  0  0  0  0  0  0  0  0  0  0
   26.1955  -20.6269   -9.5345 C   0  0  1  0  0  0  0  0  0  0  0  0
   26.2271  -22.1526   -9.3224 C   0  0  0  0  0  0  0  0  0  0  0  0
   25.0302  -20.3652  -10.4099 C   0  0  0  0  0  0  0  0  0  0  0  0
   25.0739  -20.8925  -11.8037 C   0  0  2  0  0  0  0  0  0  0  0  0
   26.2222  -20.3811  -12.4992 N   0  0  0  0  0  0  0  0  0  0  0  0
   23.7968  -20.4355  -12.4595 C   0  0  0  0  0  0  0  0  0  0  0  0
   23.7309  -19.2293  -12.7710 O   0  0  0  0  0  0  0  0  0  0  0  0
   22.7099  -21.2873  -12.7270 N   0  0  0  0  0  0  0  0  0  0  0  0
   21.5666  -20.8796  -13.5744 C   0  0  1  0  0  0  0  0  0  0  0  0
   21.6898  -21.4912  -14.9248 C   0  0  0  0  0  0  0  0  0  0  0  0
   20.5602  -21.1090  -15.8282 C   0  0  0  0  0  0  0  0  0  0  0  0
   20.1688  -22.1848  -16.7700 C   0  0  0  0  0  0  0  0  0  0  0  0
   21.0770  -22.9155  -17.2639 O   0  0  0  0  0  0  0  0  0  0  0  0
   20.3228  -21.2773  -12.8930 C   0  0  0  0  0  0  0  0  0  0  0  0
   19.3004  -20.5802  -12.9842 O   0  0  0  0  0  0  0  0  0  0  0  0
   18.8752  -22.4423  -17.1460 O   0  0  0  0  0  0  0  0  0  0  0  0
   20.2788  -22.4360  -12.1407 O   0  0  0  0  0  0  0  0  0  0  0  0
  2  1  1  0
  3  4  1  0
  3  2  1  0
  4  5  1  0
  5  6  1  6
  7  5  1  0
  7  8  2  0
 10  9  1  1
 11 10  1  0
 12 10  1  0
 13 12  1  1
 13 14  1  0
 14  7  1  0
 15 13  1  0
 16 15  2  0
 17 15  1  0
 18 17  1  0
 18 23  1  0
 18 19  1  6
 20 21  1  0
 20 19  1  0
 21 22  2  0
 21 25  1  0
 23 26  1  0
 24 23  2  0
M  END
$$$$
