MLE.pdb
     RDKit          3D

 26 25  0  0  1  0  0  0  0  0999 V2000
   26.4976  -15.7249  -14.9573 C   0  0  0  0  0  0  0  0  0  0  0  0
   27.9138  -16.8399  -15.2086 S   0  0  0  0  0  0  0  0  0  0  0  0
   27.5647  -18.0776  -16.4742 C   0  0  0  0  0  0  0  0  0  0  0  0
   26.6083  -19.0949  -15.8887 C   0  0  0  0  0  0  0  0  0  0  0  0
   27.2923  -19.9510  -14.8374 C   0  0  2  0  0  0  0  0  0  0  0  0
   28.1757  -20.9212  -15.5096 N   0  0  0  0  0  0  0  0  0  0  0  0
   26.3289  -20.7160  -14.0372 C   0  0  0  0  0  0  0  0  0  0  0  0
   25.9042  -21.8179  -14.4565 O   0  0  0  0  0  0  0  0  0  0  0  0
   26.0649  -20.2799   -8.4621 C   0  0  0  0  0  0  0  0  0  0  0  0
   26.0697  -20.6908   -9.9089 C   0  0  1  0  0  0  0  0  0  0  0  0
   26.4075  -22.1937   -9.9392 C   0  0  0  0  0  0  0  0  0  0  0  0
   24.7808  -20.5524  -10.6245 C   0  0  0  0  0  0  0  0  0  0  0  0
   24.7435  -20.9185  -12.0692 C   0  0  2  0  0  0  0  0  0  0  0  0
   25.8224  -20.2862  -12.7764 N   0  0  0  0  0  0  0  0  0  0  0  0
   23.4090  -20.4437  -12.5824 C   0  0  0  0  0  0  0  0  0  0  0  0
   23.1377  -19.2399  -12.3994 O   0  0  0  0  0  0  0  0  0  0  0  0
   22.4854  -21.2767  -13.2395 N   0  0  0  0  0  0  0  0  0  0  0  0
   21.2224  -20.7663  -13.8189 C   0  0  1  0  0  0  0  0  0  0  0  0
   21.1315  -21.1437  -15.2549 C   0  0  0  0  0  0  0  0  0  0  0  0
   21.4273  -22.5924  -15.4827 C   0  0  0  0  0  0  0  0  0  0  0  0
   21.2265  -23.0212  -16.8874 C   0  0  0  0  0  0  0  0  0  0  0  0
   20.8231  -22.1654  -17.7286 O   0  0  0  0  0  0  0  0  0  0  0  0
   20.1021  -21.3044  -13.0284 C   0  0  0  0  0  0  0  0  0  0  0  0
   20.2947  -22.1842  -12.1749 O   0  0  0  0  0  0  0  0  0  0  0  0
   21.4497  -24.2966  -17.3399 O   0  0  0  0  0  0  0  0  0  0  0  0
   18.8176  -20.8346  -13.2283 O   0  0  0  0  0  0  0  0  0  0  0  0
  2  1  1  0
  3  4  1  0
  3  2  1  0
  4  5  1  0
  5  6  1  6
  7  5  1  0
  7  8  2  0
 10  9  1  1
 11 10  1  0
 12 10  1  0
 13 12  1  1
 13 14  1  0
 14  7  1  0
 15 13  1  0
 16 15  2  0
 17 15  1  0
 18 17  1  0
 18 23  1  0
 18 19  1  6
 20 21  1  0
 20 19  1  0
 21 22  2  0
 21 25  1  0
 23 26  1  0
 24 23  2  0
M  END
$$$$
