MLE.pdb
     RDKit          3D

 26 25  0  0  1  0  0  0  0  0999 V2000
   18.9594  -17.2736  -17.8253 C   0  0  0  0  0  0  0  0  0  0  0  0
   20.3495  -17.9696  -18.7714 S   0  0  0  0  0  0  0  0  0  0  0  0
   21.7102  -16.7928  -18.9101 C   0  0  0  0  0  0  0  0  0  0  0  0
   21.4144  -15.6196  -17.9999 C   0  0  0  0  0  0  0  0  0  0  0  0
   21.8254  -14.3071  -18.6436 C   0  0  2  0  0  0  0  0  0  0  0  0
   22.9911  -14.5446  -19.5146 N   0  0  0  0  0  0  0  0  0  0  0  0
   22.2193  -13.3039  -17.6476 C   0  0  0  0  0  0  0  0  0  0  0  0
   21.3826  -12.8934  -16.8098 O   0  0  0  0  0  0  0  0  0  0  0  0
   25.8655  -10.5381  -14.4126 C   0  0  0  0  0  0  0  0  0  0  0  0
   25.9393  -10.3570  -15.9037 C   0  0  1  0  0  0  0  0  0  0  0  0
   27.4352  -10.2849  -16.2655 C   0  0  0  0  0  0  0  0  0  0  0  0
   25.3802  -11.4606  -16.7175 C   0  0  0  0  0  0  0  0  0  0  0  0
   23.9152  -11.7212  -16.6247 C   0  0  2  0  0  0  0  0  0  0  0  0
   23.5258  -12.7417  -17.5577 N   0  0  0  0  0  0  0  0  0  0  0  0
   23.2408  -10.4120  -16.9427 C   0  0  0  0  0  0  0  0  0  0  0  0
   23.4756   -9.9225  -18.0659 O   0  0  0  0  0  0  0  0  0  0  0  0
   22.3835   -9.7405  -16.0525 N   0  0  0  0  0  0  0  0  0  0  0  0
   21.7521   -8.4421  -16.3795 C   0  0  1  0  0  0  0  0  0  0  0  0
   20.3437   -8.6541  -16.8087 C   0  0  0  0  0  0  0  0  0  0  0  0
   19.4861   -9.1874  -15.7049 C   0  0  0  0  0  0  0  0  0  0  0  0
   18.0482   -9.2589  -16.0578 C   0  0  0  0  0  0  0  0  0  0  0  0
   17.6956   -8.9254  -17.2271 O   0  0  0  0  0  0  0  0  0  0  0  0
   21.8496   -7.5710  -15.1957 C   0  0  0  0  0  0  0  0  0  0  0  0
   21.5608   -6.3666  -15.2706 O   0  0  0  0  0  0  0  0  0  0  0  0
   17.0649   -9.6652  -15.1923 O   0  0  0  0  0  0  0  0  0  0  0  0
   22.2657   -8.0861  -13.9824 O   0  0  0  0  0  0  0  0  0  0  0  0
  2  1  1  0
  3  4  1  0
  3  2  1  0
  4  5  1  0
  5  6  1  6
  7  5  1  0
  7  8  2  0
 10  9  1  1
 11 10  1  0
 12 10  1  0
 13 12  1  6
 13 14  1  0
 14  7  1  0
 15 13  1  0
 16 15  2  0
 17 15  1  0
 18 17  1  0
 18 23  1  0
 18 19  1  1
 20 21  1  0
 20 19  1  0
 21 22  2  0
 21 25  1  0
 23 26  1  0
 24 23  2  0
M  END
$$$$
