MLE.pdb
     RDKit          3D

 26 25  0  0  1  0  0  0  0  0999 V2000
   14.8197  -22.2844    6.1610 C   0  0  0  0  0  0  0  0  0  0  0  0
   13.3727  -21.3588    5.5598 S   0  0  0  0  0  0  0  0  0  0  0  0
   13.7897  -20.3300    4.1375 C   0  0  0  0  0  0  0  0  0  0  0  0
   15.0480  -19.5553    4.4678 C   0  0  0  0  0  0  0  0  0  0  0  0
   15.5115  -18.7280    3.2818 C   0  0  2  0  0  0  0  0  0  0  0  0
   15.8511  -19.6336    2.1690 N   0  0  0  0  0  0  0  0  0  0  0  0
   16.7131  -17.9445    3.5919 C   0  0  0  0  0  0  0  0  0  0  0  0
   17.8337  -18.3329    3.1872 O   0  0  0  0  0  0  0  0  0  0  0  0
   18.1659  -12.0568    4.8894 C   0  0  0  0  0  0  0  0  0  0  0  0
   18.5333  -13.5074    5.0399 C   0  0  1  0  0  0  0  0  0  0  0  0
   18.8189  -13.7368    6.5365 C   0  0  0  0  0  0  0  0  0  0  0  0
   17.4797  -14.4823    4.6762 C   0  0  0  0  0  0  0  0  0  0  0  0
   17.8579  -15.9227    4.6063 C   0  0  2  0  0  0  0  0  0  0  0  0
   16.7018  -16.7341    4.3441 N   0  0  0  0  0  0  0  0  0  0  0  0
   18.4610  -16.2578    5.9456 C   0  0  0  0  0  0  0  0  0  0  0  0
   19.5363  -15.6927    6.2298 O   0  0  0  0  0  0  0  0  0  0  0  0
   17.8787  -17.1536    6.8605 N   0  0  0  0  0  0  0  0  0  0  0  0
   18.4742  -17.4406    8.1851 C   0  0  1  0  0  0  0  0  0  0  0  0
   18.5628  -16.1899    8.9856 C   0  0  0  0  0  0  0  0  0  0  0  0
   19.1034  -16.4305   10.3597 C   0  0  0  0  0  0  0  0  0  0  0  0
   19.2971  -15.1869   11.1429 C   0  0  0  0  0  0  0  0  0  0  0  0
   18.7642  -14.1185   10.7219 O   0  0  0  0  0  0  0  0  0  0  0  0
   17.6534  -18.4695    8.8464 C   0  0  0  0  0  0  0  0  0  0  0  0
   16.6376  -18.9201    8.2943 O   0  0  0  0  0  0  0  0  0  0  0  0
   20.0237  -15.1166   12.3040 O   0  0  0  0  0  0  0  0  0  0  0  0
   18.0056  -18.9475   10.0946 O   0  0  0  0  0  0  0  0  0  0  0  0
  2  1  1  0
  3  4  1  0
  3  2  1  0
  4  5  1  0
  5  6  1  6
  7  5  1  0
  7  8  2  0
 10  9  1  1
 11 10  1  0
 12 10  1  0
 13 12  1  1
 13 14  1  0
 14  7  1  0
 15 13  1  0
 16 15  2  0
 17 15  1  0
 18 17  1  0
 18 23  1  0
 18 19  1  1
 20 21  1  0
 20 19  1  0
 21 22  2  0
 21 25  1  0
 23 26  1  0
 24 23  2  0
M  END
$$$$
