MLE.pdb
     RDKit          3D

 26 25  0  0  1  0  0  0  0  0999 V2000
   17.1262  -10.5620  -22.4117 C   0  0  0  0  0  0  0  0  0  0  0  0
   17.9203  -10.6679  -20.7775 S   0  0  0  0  0  0  0  0  0  0  0  0
   19.6071  -10.0291  -20.8192 C   0  0  0  0  0  0  0  0  0  0  0  0
   20.2078  -10.1917  -19.4389 C   0  0  0  0  0  0  0  0  0  0  0  0
   21.3012  -11.2454  -19.4358 C   0  0  2  0  0  0  0  0  0  0  0  0
   20.6910  -12.5701  -19.6520 N   0  0  0  0  0  0  0  0  0  0  0  0
   22.0154  -11.2953  -18.1548 C   0  0  0  0  0  0  0  0  0  0  0  0
   21.5221  -11.9226  -17.1886 O   0  0  0  0  0  0  0  0  0  0  0  0
   26.5596  -11.8004  -15.1033 C   0  0  0  0  0  0  0  0  0  0  0  0
   26.2803  -10.4285  -15.6524 C   0  0  1  0  0  0  0  0  0  0  0  0
   27.6355   -9.8491  -16.1015 C   0  0  0  0  0  0  0  0  0  0  0  0
   25.4038  -10.3754  -16.8448 C   0  0  0  0  0  0  0  0  0  0  0  0
   23.9493  -10.6398  -16.6522 C   0  0  2  0  0  0  0  0  0  0  0  0
   23.2703  -10.6628  -17.9180 N   0  0  0  0  0  0  0  0  0  0  0  0
   23.4365   -9.5204  -15.7839 C   0  0  0  0  0  0  0  0  0  0  0  0
   23.7849   -9.5397  -14.5862 O   0  0  0  0  0  0  0  0  0  0  0  0
   22.6071   -8.4864  -16.2544 N   0  0  0  0  0  0  0  0  0  0  0  0
   22.1461   -7.3772  -15.3891 C   0  0  1  0  0  0  0  0  0  0  0  0
   22.4595   -6.0700  -16.0261 C   0  0  0  0  0  0  0  0  0  0  0  0
   21.9941   -4.9099  -15.2040 C   0  0  0  0  0  0  0  0  0  0  0  0
   22.2442   -3.5962  -15.8436 C   0  0  0  0  0  0  0  0  0  0  0  0
   22.9706   -3.5572  -16.8798 O   0  0  0  0  0  0  0  0  0  0  0  0
   20.7031   -7.5492  -15.1488 C   0  0  0  0  0  0  0  0  0  0  0  0
   20.0049   -8.2090  -15.9342 O   0  0  0  0  0  0  0  0  0  0  0  0
   21.7369   -2.4087  -15.3816 O   0  0  0  0  0  0  0  0  0  0  0  0
   20.1066   -6.9758  -14.0416 O   0  0  0  0  0  0  0  0  0  0  0  0
  2  1  1  0
  3  4  1  0
  3  2  1  0
  4  5  1  0
  5  6  1  1
  7  5  1  0
  7  8  2  0
 10  9  1  6
 11 10  1  0
 12 10  1  0
 13 12  1  6
 13 14  1  0
 14  7  1  0
 15 13  1  0
 16 15  2  0
 17 15  1  0
 18 17  1  0
 18 23  1  0
 18 19  1  6
 20 21  1  0
 20 19  1  0
 21 22  2  0
 21 25  1  0
 23 26  1  0
 24 23  2  0
M  END
$$$$
