MLE.pdb
     RDKit          3D

 26 25  0  0  1  0  0  0  0  0999 V2000
   29.6971  -20.4443   -6.0685 C   0  0  0  0  0  0  0  0  0  0  0  0
   28.1886  -19.5093   -5.6655 S   0  0  0  0  0  0  0  0  0  0  0  0
   26.7640  -20.1227   -6.5873 C   0  0  0  0  0  0  0  0  0  0  0  0
   26.8902  -19.6510   -8.0205 C   0  0  0  0  0  0  0  0  0  0  0  0
   25.7385  -20.1589   -8.8698 C   0  0  2  0  0  0  0  0  0  0  0  0
   25.8258  -21.6274   -8.9672 N   0  0  0  0  0  0  0  0  0  0  0  0
   25.7837  -19.6252  -10.2362 C   0  0  0  0  0  0  0  0  0  0  0  0
   25.6623  -18.3931  -10.4298 O   0  0  0  0  0  0  0  0  0  0  0  0
   28.9897  -22.0016  -14.0457 C   0  0  0  0  0  0  0  0  0  0  0  0
   28.2299  -20.9745  -13.2521 C   0  0  1  0  0  0  0  0  0  0  0  0
   28.9083  -19.6180  -13.5229 C   0  0  0  0  0  0  0  0  0  0  0  0
   26.8072  -20.7951  -13.6212 C   0  0  0  0  0  0  0  0  0  0  0  0
   25.9645  -19.9306  -12.7465 C   0  0  2  0  0  0  0  0  0  0  0  0
   25.9613  -20.4294  -11.3993 N   0  0  0  0  0  0  0  0  0  0  0  0
   24.5799  -19.9662  -13.3394 C   0  0  0  0  0  0  0  0  0  0  0  0
   24.4991  -19.8202  -14.5757 O   0  0  0  0  0  0  0  0  0  0  0  0
   23.4111  -20.1524  -12.5793 N   0  0  0  0  0  0  0  0  0  0  0  0
   22.1718  -20.7273  -13.1495 C   0  0  1  0  0  0  0  0  0  0  0  0
   22.4500  -22.0724  -13.7207 C   0  0  0  0  0  0  0  0  0  0  0  0
   21.2118  -22.7445  -14.2238 C   0  0  0  0  0  0  0  0  0  0  0  0
   21.2358  -23.0089  -15.6823 C   0  0  0  0  0  0  0  0  0  0  0  0
   22.2487  -23.5869  -16.1750 O   0  0  0  0  0  0  0  0  0  0  0  0
   21.1530  -20.7721  -12.0868 C   0  0  0  0  0  0  0  0  0  0  0  0
   21.4768  -20.9846  -10.9080 O   0  0  0  0  0  0  0  0  0  0  0  0
   20.2239  -22.6641  -16.5414 O   0  0  0  0  0  0  0  0  0  0  0  0
   19.8186  -20.5773  -12.3904 O   0  0  0  0  0  0  0  0  0  0  0  0
  2  1  1  0
  3  4  1  0
  3  2  1  0
  4  5  1  0
  5  6  1  6
  7  5  1  0
  7  8  2  0
 10  9  1  6
 11 10  1  0
 12 10  1  0
 13 12  1  6
 13 14  1  0
 14  7  1  0
 15 13  1  0
 16 15  2  0
 17 15  1  0
 18 17  1  0
 18 23  1  0
 18 19  1  1
 20 21  1  0
 20 19  1  0
 21 22  2  0
 21 25  1  0
 23 26  1  0
 24 23  2  0
M  END
$$$$
