MLE.pdb
     RDKit          3D

 26 25  0  0  1  0  0  0  0  0999 V2000
   24.2083  -15.4070  -23.2690 C   0  0  0  0  0  0  0  0  0  0  0  0
   22.7383  -14.9583  -22.2945 S   0  0  0  0  0  0  0  0  0  0  0  0
   23.1388  -13.7591  -21.0072 C   0  0  0  0  0  0  0  0  0  0  0  0
   21.8735  -13.4581  -20.2321 C   0  0  0  0  0  0  0  0  0  0  0  0
   22.1240  -12.4201  -19.1524 C   0  0  2  0  0  0  0  0  0  0  0  0
   22.7237  -13.0830  -17.9800 N   0  0  0  0  0  0  0  0  0  0  0  0
   20.8821  -11.7782  -18.7058 C   0  0  0  0  0  0  0  0  0  0  0  0
   20.2159  -11.0819  -19.5068 O   0  0  0  0  0  0  0  0  0  0  0  0
   16.1205  -11.5652  -15.8692 C   0  0  0  0  0  0  0  0  0  0  0  0
   17.3980  -11.4193  -15.0892 C   0  0  1  0  0  0  0  0  0  0  0  0
   17.2127  -12.2196  -13.7858 C   0  0  0  0  0  0  0  0  0  0  0  0
   18.6138  -11.9694  -15.7310 C   0  0  0  0  0  0  0  0  0  0  0  0
   19.1518  -11.2600  -16.9268 C   0  0  2  0  0  0  0  0  0  0  0  0
   20.3585  -11.8905  -17.3851 N   0  0  0  0  0  0  0  0  0  0  0  0
   19.4159   -9.8443  -16.4842 C   0  0  0  0  0  0  0  0  0  0  0  0
   20.3984   -9.6684  -15.7358 O   0  0  0  0  0  0  0  0  0  0  0  0
   18.6247   -8.7469  -16.8692 N   0  0  0  0  0  0  0  0  0  0  0  0
   18.8895   -7.3684  -16.3989 C   0  0  1  0  0  0  0  0  0  0  0  0
   18.3264   -6.3845  -17.3619 C   0  0  0  0  0  0  0  0  0  0  0  0
   18.5368   -4.9708  -16.9201 C   0  0  0  0  0  0  0  0  0  0  0  0
   17.9564   -3.9707  -17.8477 C   0  0  0  0  0  0  0  0  0  0  0  0
   17.3808   -4.3827  -18.8973 O   0  0  0  0  0  0  0  0  0  0  0  0
   18.3135   -7.2226  -15.0511 C   0  0  0  0  0  0  0  0  0  0  0  0
   17.3656   -7.9359  -14.6873 O   0  0  0  0  0  0  0  0  0  0  0  0
   18.0035   -2.6155  -17.6425 O   0  0  0  0  0  0  0  0  0  0  0  0
   18.8234   -6.2861  -14.1716 O   0  0  0  0  0  0  0  0  0  0  0  0
  2  1  1  0
  3  4  1  0
  3  2  1  0
  4  5  1  0
  5  6  1  1
  7  5  1  0
  7  8  2  0
 10  9  1  6
 11 10  1  0
 12 10  1  0
 13 12  1  1
 13 14  1  0
 14  7  1  0
 15 13  1  0
 16 15  2  0
 17 15  1  0
 18 17  1  0
 18 23  1  0
 18 19  1  6
 20 21  1  0
 20 19  1  0
 21 22  2  0
 21 25  1  0
 23 26  1  0
 24 23  2  0
M  END
$$$$
