MLE.pdb
     RDKit          3D

 26 25  0  0  1  0  0  0  0  0999 V2000
   27.6140  -24.8749  -15.9211 C   0  0  0  0  0  0  0  0  0  0  0  0
   28.5227  -23.8114  -17.0852 S   0  0  0  0  0  0  0  0  0  0  0  0
   28.6837  -22.1282  -16.4559 C   0  0  0  0  0  0  0  0  0  0  0  0
   27.9504  -22.0462  -15.1338 C   0  0  0  0  0  0  0  0  0  0  0  0
   26.7600  -21.1076  -15.2226 C   0  0  2  0  0  0  0  0  0  0  0  0
   27.1985  -19.7430  -14.8772 N   0  0  0  0  0  0  0  0  0  0  0  0
   25.6951  -21.4771  -14.2828 C   0  0  0  0  0  0  0  0  0  0  0  0
   25.0643  -22.5480  -14.4432 O   0  0  0  0  0  0  0  0  0  0  0  0
   26.0513  -19.7008   -9.0610 C   0  0  0  0  0  0  0  0  0  0  0  0
   25.8219  -20.4954  -10.3171 C   0  0  1  0  0  0  0  0  0  0  0  0
   25.9648  -21.9803   -9.9316 C   0  0  0  0  0  0  0  0  0  0  0  0
   24.4796  -20.3647  -10.9287 C   0  0  0  0  0  0  0  0  0  0  0  0
   24.2509  -21.0133  -12.2514 C   0  0  2  0  0  0  0  0  0  0  0  0
   25.3107  -20.6833  -13.1634 N   0  0  0  0  0  0  0  0  0  0  0  0
   22.9284  -20.4884  -12.7468 C   0  0  0  0  0  0  0  0  0  0  0  0
   22.8604  -19.2612  -12.9601 O   0  0  0  0  0  0  0  0  0  0  0  0
   21.8025  -21.3009  -12.9721 N   0  0  0  0  0  0  0  0  0  0  0  0
   20.5108  -20.7591  -13.4514 C   0  0  1  0  0  0  0  0  0  0  0  0
   20.0126  -21.5677  -14.5962 C   0  0  0  0  0  0  0  0  0  0  0  0
   20.9675  -21.5732  -15.7478 C   0  0  0  0  0  0  0  0  0  0  0  0
   20.5697  -22.4943  -16.8390 C   0  0  0  0  0  0  0  0  0  0  0  0
   19.5510  -23.2268  -16.6702 O   0  0  0  0  0  0  0  0  0  0  0  0
   19.5665  -20.7509  -12.3210 C   0  0  0  0  0  0  0  0  0  0  0  0
   19.8453  -21.3291  -11.2591 O   0  0  0  0  0  0  0  0  0  0  0  0
   21.2397  -22.6074  -18.0304 O   0  0  0  0  0  0  0  0  0  0  0  0
   18.3537  -20.0967  -12.4294 O   0  0  0  0  0  0  0  0  0  0  0  0
  2  1  1  0
  3  4  1  0
  3  2  1  0
  4  5  1  0
  5  6  1  1
  7  5  1  0
  7  8  2  0
 10  9  1  1
 11 10  1  0
 12 10  1  0
 13 12  1  1
 13 14  1  0
 14  7  1  0
 15 13  1  0
 16 15  2  0
 17 15  1  0
 18 17  1  0
 18 23  1  0
 18 19  1  6
 20 21  1  0
 20 19  1  0
 21 22  2  0
 21 25  1  0
 23 26  1  0
 24 23  2  0
M  END
$$$$
