MLE.pdb
     RDKit          3D

 26 25  0  0  1  0  0  0  0  0999 V2000
   22.2184  -13.9987  -21.9351 C   0  0  0  0  0  0  0  0  0  0  0  0
   23.3036  -13.2886  -23.2119 S   0  0  0  0  0  0  0  0  0  0  0  0
   23.8522  -11.6287  -22.7653 C   0  0  0  0  0  0  0  0  0  0  0  0
   23.4953  -11.3881  -21.3137 C   0  0  0  0  0  0  0  0  0  0  0  0
   23.8674   -9.9805  -20.8821 C   0  0  2  0  0  0  0  0  0  0  0  0
   25.3296   -9.8194  -20.9817 N   0  0  0  0  0  0  0  0  0  0  0  0
   23.4906   -9.7130  -19.4892 C   0  0  0  0  0  0  0  0  0  0  0  0
   22.2892   -9.7904  -19.1413 O   0  0  0  0  0  0  0  0  0  0  0  0
   27.1790  -11.0889  -15.6122 C   0  0  0  0  0  0  0  0  0  0  0  0
   25.8960  -10.8758  -16.3675 C   0  0  1  0  0  0  0  0  0  0  0  0
   24.8734  -11.8728  -15.7896 C   0  0  0  0  0  0  0  0  0  0  0  0
   25.2781   -9.5374  -16.2276 C   0  0  0  0  0  0  0  0  0  0  0  0
   24.0916   -9.2261  -17.0749 C   0  0  2  0  0  0  0  0  0  0  0  0
   24.4189   -9.3597  -18.4673 N   0  0  0  0  0  0  0  0  0  0  0  0
   23.7070   -7.8076  -16.7436 C   0  0  0  0  0  0  0  0  0  0  0  0
   24.5727   -6.9330  -16.9485 O   0  0  0  0  0  0  0  0  0  0  0  0
   22.4503   -7.4406  -16.2293 N   0  0  0  0  0  0  0  0  0  0  0  0
   22.0676   -6.0310  -15.9883 C   0  0  1  0  0  0  0  0  0  0  0  0
   20.6476   -5.8153  -16.3754 C   0  0  0  0  0  0  0  0  0  0  0  0
   20.1811   -4.4253  -16.0779 C   0  0  0  0  0  0  0  0  0  0  0  0
   18.7543   -4.1987  -16.4096 C   0  0  0  0  0  0  0  0  0  0  0  0
   18.2514   -3.0619  -16.1700 O   0  0  0  0  0  0  0  0  0  0  0  0
   22.3120   -5.7233  -14.5688 C   0  0  0  0  0  0  0  0  0  0  0  0
   22.1411   -6.5877  -13.6952 O   0  0  0  0  0  0  0  0  0  0  0  0
   17.9348   -5.1490  -16.9632 O   0  0  0  0  0  0  0  0  0  0  0  0
   22.7362   -4.4632  -14.1907 O   0  0  0  0  0  0  0  0  0  0  0  0
  2  1  1  0
  3  4  1  0
  3  2  1  0
  4  5  1  0
  5  6  1  1
  7  5  1  0
  7  8  2  0
 10  9  1  1
 11 10  1  0
 12 10  1  0
 13 12  1  1
 13 14  1  0
 14  7  1  0
 15 13  1  0
 16 15  2  0
 17 15  1  0
 18 17  1  0
 18 23  1  0
 18 19  1  1
 20 21  1  0
 20 19  1  0
 21 22  2  0
 21 25  1  0
 23 26  1  0
 24 23  2  0
M  END
$$$$
