MLE.pdb
     RDKit          3D

 26 25  0  0  1  0  0  0  0  0999 V2000
    7.9113  -12.3712   -9.9753 C   0  0  0  0  0  0  0  0  0  0  0  0
    9.6495  -11.9009   -9.7117 S   0  0  0  0  0  0  0  0  0  0  0  0
   10.2134  -10.7261  -10.9596 C   0  0  0  0  0  0  0  0  0  0  0  0
   11.6582  -10.3818  -10.6653 C   0  0  0  0  0  0  0  0  0  0  0  0
   12.2068   -9.3968  -11.6825 C   0  0  2  0  0  0  0  0  0  0  0  0
   12.3514  -10.0794  -12.9813 N   0  0  0  0  0  0  0  0  0  0  0  0
   13.5314   -8.8920  -11.3025 C   0  0  0  0  0  0  0  0  0  0  0  0
   13.6811   -8.2878  -10.2149 O   0  0  0  0  0  0  0  0  0  0  0  0
   17.9041  -11.7453  -13.0671 C   0  0  0  0  0  0  0  0  0  0  0  0
   16.9653  -10.9317  -12.2194 C   0  0  1  0  0  0  0  0  0  0  0  0
   17.3427  -11.2104  -10.7519 C   0  0  0  0  0  0  0  0  0  0  0  0
   17.0517   -9.4629  -12.3863 C   0  0  0  0  0  0  0  0  0  0  0  0
   16.0185   -8.6238  -11.7149 C   0  0  2  0  0  0  0  0  0  0  0  0
   14.7003   -9.0419  -12.1039 N   0  0  0  0  0  0  0  0  0  0  0  0
   16.2874   -7.2073  -12.1521 C   0  0  0  0  0  0  0  0  0  0  0  0
   17.3567   -6.6970  -11.7617 O   0  0  0  0  0  0  0  0  0  0  0  0
   15.4092   -6.4604  -12.9580 N   0  0  0  0  0  0  0  0  0  0  0  0
   15.6769   -5.0554  -13.3398 C   0  0  1  0  0  0  0  0  0  0  0  0
   16.3209   -5.0054  -14.6798 C   0  0  0  0  0  0  0  0  0  0  0  0
   15.4413   -5.5599  -15.7554 C   0  0  0  0  0  0  0  0  0  0  0  0
   16.0451   -5.4861  -17.1072 C   0  0  0  0  0  0  0  0  0  0  0  0
   15.3684   -5.8983  -18.0946 O   0  0  0  0  0  0  0  0  0  0  0  0
   14.4026   -4.3175  -13.3052 C   0  0  0  0  0  0  0  0  0  0  0  0
   13.3257   -4.9198  -13.1747 O   0  0  0  0  0  0  0  0  0  0  0  0
   17.3010   -4.9970  -17.3610 O   0  0  0  0  0  0  0  0  0  0  0  0
   14.3904   -2.9399  -13.4182 O   0  0  0  0  0  0  0  0  0  0  0  0
  2  1  1  0
  3  4  1  0
  3  2  1  0
  4  5  1  0
  5  6  1  6
  7  5  1  0
  7  8  2  0
 10  9  1  6
 11 10  1  0
 12 10  1  0
 13 12  1  6
 13 14  1  0
 14  7  1  0
 15 13  1  0
 16 15  2  0
 17 15  1  0
 18 17  1  0
 18 23  1  0
 18 19  1  6
 20 21  1  0
 20 19  1  0
 21 22  2  0
 21 25  1  0
 23 26  1  0
 24 23  2  0
M  END
$$$$
