NHY.pdb
     RDKit          3D

 31 32  0  0  1  0  0  0  0  0999 V2000
    9.2288  -20.5261   18.4677 N   0  0  0  0  0  0  0  0  0  0  0  0
   10.1279  -19.5682   17.9601 C   0  0  0  0  0  0  0  0  0  0  0  0
   10.8825  -19.7881   16.9691 O   0  0  0  0  0  0  0  0  0  0  0  0
   10.2257  -18.2331   18.5849 C   0  0  0  0  0  0  0  0  0  0  0  0
    9.9501  -18.3347   20.0724 C   0  0  2  0  0  0  0  0  0  0  0  0
    8.7019  -18.9415   20.3891 N   0  0  0  0  0  0  0  0  0  0  0  0
   10.1610  -17.0101   20.7032 C   0  0  0  0  0  0  0  0  0  0  0  0
   11.2988  -16.4569   20.5878 O   0  0  0  0  0  0  0  0  0  0  0  0
    9.1923  -16.3082   21.4278 N   0  0  0  0  0  0  0  0  0  0  0  0
    9.4679  -14.9209   21.9659 C   0  0  1  0  0  0  0  0  0  0  0  0
    8.2886  -14.1262   21.5527 C   0  0  0  0  0  0  0  0  0  0  0  0
    7.9133  -14.0556   20.1570 C   0  0  0  0  0  0  0  0  0  0  0  0
    8.3127  -12.9381   19.3899 C   0  0  0  0  0  0  0  0  0  0  0  0
    7.8767  -13.0634   18.1540 N   0  0  0  0  0  0  0  0  0  0  0  0
    7.2059  -14.2279   18.0925 C   0  0  0  0  0  0  0  0  0  0  0  0
    7.2415  -14.7988   19.2944 N   0  0  0  0  0  0  0  0  0  0  0  0
    9.4763  -15.0668   23.4563 C   0  0  0  0  0  0  0  0  0  0  0  0
    9.7515  -14.0315   24.1599 O   0  0  0  0  0  0  0  0  0  0  0  0
    5.9145  -10.9421   26.7350 O   0  0  0  0  0  0  0  0  0  0  0  0
    6.4282  -12.2313   26.6291 C   0  0  0  0  0  0  0  0  0  0  0  0
    7.7395  -12.5357   26.9157 C   0  0  0  0  0  0  0  0  0  0  0  0
    8.2369  -13.8278   26.8051 C   0  0  0  0  0  0  0  0  0  0  0  0
    7.4138  -14.8707   26.3952 C   0  0  0  0  0  0  0  0  0  0  0  0
    7.9755  -16.2183   26.2828 C   0  0  0  0  0  0  0  0  0  0  0  0
    9.3387  -16.2727   25.6235 C   0  0  2  0  0  0  0  0  0  0  0  0
    9.2012  -16.2449   24.1690 N   0  0  0  0  0  0  0  0  0  0  0  0
   10.0820  -17.4789   26.0421 C   0  0  0  0  0  0  0  0  0  0  0  0
   10.3766  -17.7438   27.2182 O   0  0  0  0  0  0  0  0  0  0  0  0
    6.1013  -14.5537   26.1105 C   0  0  0  0  0  0  0  0  0  0  0  0
    5.6145  -13.2678   26.2229 C   0  0  0  0  0  0  0  0  0  0  0  0
   10.4922  -18.3983   25.0697 O   0  0  0  0  0  0  0  0  0  0  0  0
  2  3  2  0
  2  1  1  0
  4  2  1  0
  5  4  1  0
  5  6  1  6
  7  5  1  0
  8  7  2  0
  9  7  1  0
 10  9  1  0
 10 11  1  1
 12 11  1  0
 12 13  2  0
 14 13  1  0
 15 14  1  0
 16 15  2  0
 16 12  1  0
 17 10  1  0
 17 18  2  0
 20 21  2  0
 20 19  1  0
 22 21  1  0
 23 22  2  0
 24 23  1  0
 25 24  1  1
 25 26  1  0
 26 17  1  0
 27 25  1  0
 28 27  2  0
 29 23  1  0
 29 30  2  0
 30 20  1  0
 31 27  1  0
M  END
$$$$
