NHY.pdb
     RDKit          3D

 31 32  0  0  1  0  0  0  0  0999 V2000
   10.0537  -18.6734   14.9845 N   0  0  0  0  0  0  0  0  0  0  0  0
   11.0656  -18.5117   15.9507 C   0  0  0  0  0  0  0  0  0  0  0  0
   12.1061  -19.2300   15.9859 O   0  0  0  0  0  0  0  0  0  0  0  0
   10.9452  -17.4672   16.9885 C   0  0  0  0  0  0  0  0  0  0  0  0
   11.0250  -18.0937   18.3670 C   0  0  2  0  0  0  0  0  0  0  0  0
   10.0387  -19.0917   18.6066 N   0  0  0  0  0  0  0  0  0  0  0  0
   11.0703  -17.0236   19.3914 C   0  0  0  0  0  0  0  0  0  0  0  0
   12.0752  -16.2465   19.4139 O   0  0  0  0  0  0  0  0  0  0  0  0
   10.0795  -16.7963   20.3521 N   0  0  0  0  0  0  0  0  0  0  0  0
   10.2014  -15.6673   21.3525 C   0  0  1  0  0  0  0  0  0  0  0  0
    8.8012  -15.2891   21.6511 C   0  0  0  0  0  0  0  0  0  0  0  0
    8.0060  -14.6034   20.6553 C   0  0  0  0  0  0  0  0  0  0  0  0
    8.5843  -13.5457   19.9179 C   0  0  0  0  0  0  0  0  0  0  0  0
    7.7048  -13.0579   19.0684 N   0  0  0  0  0  0  0  0  0  0  0  0
    6.5718  -13.7651   19.2297 C   0  0  0  0  0  0  0  0  0  0  0  0
    6.7755  -14.6769   20.1777 N   0  0  0  0  0  0  0  0  0  0  0  0
   10.8253  -16.2791   22.5686 C   0  0  0  0  0  0  0  0  0  0  0  0
   10.4569  -17.4601   22.9034 O   0  0  0  0  0  0  0  0  0  0  0  0
   10.2451  -15.2836   31.1024 O   0  0  0  0  0  0  0  0  0  0  0  0
   10.3416  -15.2169   29.7155 C   0  0  0  0  0  0  0  0  0  0  0  0
   10.6534  -14.0554   29.0462 C   0  0  0  0  0  0  0  0  0  0  0  0
   10.7460  -14.0054   27.6613 C   0  0  0  0  0  0  0  0  0  0  0  0
   10.5233  -15.1442   26.8952 C   0  0  0  0  0  0  0  0  0  0  0  0
   10.6221  -15.0512   25.4372 C   0  0  0  0  0  0  0  0  0  0  0  0
   11.7512  -15.8630   24.8356 C   0  0  2  0  0  0  0  0  0  0  0  0
   11.7947  -15.6773   23.3869 N   0  0  0  0  0  0  0  0  0  0  0  0
   11.6053  -17.2966   25.1614 C   0  0  0  0  0  0  0  0  0  0  0  0
   10.7177  -18.0304   24.6989 O   0  0  0  0  0  0  0  0  0  0  0  0
   10.2113  -16.3026   27.5770 C   0  0  0  0  0  0  0  0  0  0  0  0
   10.1213  -16.3444   28.9529 C   0  0  0  0  0  0  0  0  0  0  0  0
   12.5131  -17.8903   26.0460 O   0  0  0  0  0  0  0  0  0  0  0  0
  2  3  2  0
  2  1  1  0
  4  2  1  0
  5  4  1  0
  5  6  1  1
  7  5  1  0
  8  7  2  0
  9  7  1  0
 10  9  1  0
 10 11  1  1
 12 11  1  0
 12 13  2  0
 14 13  1  0
 15 14  1  0
 16 15  2  0
 16 12  1  0
 17 10  1  0
 17 18  2  0
 20 21  2  0
 20 19  1  0
 22 21  1  0
 23 22  2  0
 24 23  1  0
 25 24  1  6
 25 26  1  0
 26 17  1  0
 27 25  1  0
 28 27  2  0
 29 23  1  0
 29 30  2  0
 30 20  1  0
 31 27  1  0
M  END
$$$$
