NHY.pdb
     RDKit          3D

 31 32  0  0  1  0  0  0  0  0999 V2000
    7.7294  -15.7058   13.5703 N   0  0  0  0  0  0  0  0  0  0  0  0
    8.6209  -16.6761   14.0678 C   0  0  0  0  0  0  0  0  0  0  0  0
    9.6469  -17.0586   13.4348 O   0  0  0  0  0  0  0  0  0  0  0  0
    8.3831  -17.3008   15.3853 C   0  0  0  0  0  0  0  0  0  0  0  0
    9.4484  -16.8582   16.3693 C   0  0  2  0  0  0  0  0  0  0  0  0
   10.7686  -17.2475   16.0063 N   0  0  0  0  0  0  0  0  0  0  0  0
    9.0498  -17.2600   17.7392 C   0  0  0  0  0  0  0  0  0  0  0  0
    7.8752  -16.9821   18.1358 O   0  0  0  0  0  0  0  0  0  0  0  0
    9.8762  -17.9314   18.6460 N   0  0  0  0  0  0  0  0  0  0  0  0
    9.3626  -18.3665   20.0014 C   0  0  1  0  0  0  0  0  0  0  0  0
   10.0757  -19.6354   20.2739 C   0  0  0  0  0  0  0  0  0  0  0  0
    9.5423  -20.8880   19.7833 C   0  0  0  0  0  0  0  0  0  0  0  0
    8.1479  -21.1116   19.8327 C   0  0  0  0  0  0  0  0  0  0  0  0
    7.8666  -22.3003   19.3417 N   0  0  0  0  0  0  0  0  0  0  0  0
    9.0345  -22.8575   18.9741 C   0  0  0  0  0  0  0  0  0  0  0  0
   10.0151  -21.9996   19.2464 N   0  0  0  0  0  0  0  0  0  0  0  0
    9.8286  -17.3143   20.9597 C   0  0  0  0  0  0  0  0  0  0  0  0
   11.0308  -16.8858   20.8436 O   0  0  0  0  0  0  0  0  0  0  0  0
    7.9594  -12.1925   17.7947 O   0  0  0  0  0  0  0  0  0  0  0  0
    8.1807  -12.7508   19.0504 C   0  0  0  0  0  0  0  0  0  0  0  0
    9.3943  -12.6748   19.6951 C   0  0  0  0  0  0  0  0  0  0  0  0
    9.5991  -13.2373   20.9484 C   0  0  0  0  0  0  0  0  0  0  0  0
    8.5693  -13.9051   21.6016 C   0  0  0  0  0  0  0  0  0  0  0  0
    8.8249  -14.4921   22.9185 C   0  0  0  0  0  0  0  0  0  0  0  0
    9.6603  -15.7558   22.8865 C   0  0  2  0  0  0  0  0  0  0  0  0
    9.0619  -16.7380   21.9852 N   0  0  0  0  0  0  0  0  0  0  0  0
    9.8062  -16.3291   24.2404 C   0  0  0  0  0  0  0  0  0  0  0  0
    9.2818  -17.3921   24.6081 O   0  0  0  0  0  0  0  0  0  0  0  0
    7.3573  -13.9751   20.9457 C   0  0  0  0  0  0  0  0  0  0  0  0
    7.1615  -13.4138   19.7008 C   0  0  0  0  0  0  0  0  0  0  0  0
   10.5800  -15.6498   25.1884 O   0  0  0  0  0  0  0  0  0  0  0  0
  2  3  2  0
  2  1  1  0
  4  2  1  0
  5  4  1  0
  5  6  1  6
  7  5  1  0
  8  7  2  0
  9  7  1  0
 10  9  1  0
 10 11  1  1
 12 11  1  0
 12 13  2  0
 14 13  1  0
 15 14  1  0
 16 15  2  0
 16 12  1  0
 17 10  1  0
 17 18  2  0
 20 21  2  0
 20 19  1  0
 22 21  1  0
 23 22  2  0
 24 23  1  0
 25 24  1  1
 25 26  1  0
 26 17  1  0
 27 25  1  0
 28 27  2  0
 29 23  1  0
 29 30  2  0
 30 20  1  0
 31 27  1  0
M  END
$$$$
