NHY.pdb
     RDKit          3D

 31 32  0  0  1  0  0  0  0  0999 V2000
    8.6324  -17.4289   13.5201 N   0  0  0  0  0  0  0  0  0  0  0  0
    9.4170  -16.5764   14.3209 C   0  0  0  0  0  0  0  0  0  0  0  0
   10.0487  -15.5835   13.8574 O   0  0  0  0  0  0  0  0  0  0  0  0
    9.5344  -16.8177   15.7737 C   0  0  0  0  0  0  0  0  0  0  0  0
    8.7138  -18.0308   16.1662 C   0  0  2  0  0  0  0  0  0  0  0  0
    7.3566  -17.9732   15.7406 N   0  0  0  0  0  0  0  0  0  0  0  0
    8.8874  -18.2942   17.6144 C   0  0  0  0  0  0  0  0  0  0  0  0
    7.9783  -17.9105   18.4146 O   0  0  0  0  0  0  0  0  0  0  0  0
    9.9902  -18.9416   18.1810 N   0  0  0  0  0  0  0  0  0  0  0  0
   10.0690  -19.1981   19.6703 C   0  0  1  0  0  0  0  0  0  0  0  0
   10.9265  -20.3994   19.7908 C   0  0  0  0  0  0  0  0  0  0  0  0
   10.3324  -21.7188   19.7892 C   0  0  0  0  0  0  0  0  0  0  0  0
    8.9323  -21.8459   19.6457 C   0  0  0  0  0  0  0  0  0  0  0  0
    8.5927  -23.1176   19.6675 N   0  0  0  0  0  0  0  0  0  0  0  0
    9.7282  -23.8226   19.8206 C   0  0  0  0  0  0  0  0  0  0  0  0
   10.7477  -22.9698   19.8906 N   0  0  0  0  0  0  0  0  0  0  0  0
   10.7845  -18.0127   20.2408 C   0  0  0  0  0  0  0  0  0  0  0  0
   11.3023  -17.1727   19.4230 O   0  0  0  0  0  0  0  0  0  0  0  0
    7.4284  -11.6826   19.0346 O   0  0  0  0  0  0  0  0  0  0  0  0
    7.7810  -12.8374   19.7271 C   0  0  0  0  0  0  0  0  0  0  0  0
    7.4991  -13.0200   21.0618 C   0  0  0  0  0  0  0  0  0  0  0  0
    7.8577  -14.1786   21.7387 C   0  0  0  0  0  0  0  0  0  0  0  0
    8.5230  -15.2064   21.0797 C   0  0  0  0  0  0  0  0  0  0  0  0
    8.8919  -16.4097   21.8281 C   0  0  0  0  0  0  0  0  0  0  0  0
   10.3651  -16.5046   22.1694 C   0  0  2  0  0  0  0  0  0  0  0  0
   10.9398  -17.7243   21.6061 N   0  0  0  0  0  0  0  0  0  0  0  0
   10.5735  -16.4713   23.6316 C   0  0  0  0  0  0  0  0  0  0  0  0
   10.4766  -17.4619   24.3729 O   0  0  0  0  0  0  0  0  0  0  0  0
    8.8004  -15.0122   19.7420 C   0  0  0  0  0  0  0  0  0  0  0  0
    8.4408  -13.8585   19.0765 C   0  0  0  0  0  0  0  0  0  0  0  0
   10.9022  -15.2572   24.2458 O   0  0  0  0  0  0  0  0  0  0  0  0
  2  3  2  0
  2  1  1  0
  4  2  1  0
  5  4  1  0
  5  6  1  1
  7  5  1  0
  8  7  2  0
  9  7  1  0
 10  9  1  0
 10 11  1  6
 12 11  1  0
 12 13  2  0
 14 13  1  0
 15 14  1  0
 16 15  2  0
 16 12  1  0
 17 10  1  0
 17 18  2  0
 20 21  2  0
 20 19  1  0
 22 21  1  0
 23 22  2  0
 24 23  1  0
 25 24  1  1
 25 26  1  0
 26 17  1  0
 27 25  1  0
 28 27  2  0
 29 23  1  0
 29 30  2  0
 30 20  1  0
 31 27  1  0
M  END
$$$$
