NHY.pdb
     RDKit          3D

 31 32  0  0  1  0  0  0  0  0999 V2000
    8.4793  -12.2299   18.8218 N   0  0  0  0  0  0  0  0  0  0  0  0
    8.1228  -13.2720   17.9439 C   0  0  0  0  0  0  0  0  0  0  0  0
    7.0429  -13.2796   17.2855 O   0  0  0  0  0  0  0  0  0  0  0  0
    9.0232  -14.4279   17.7548 C   0  0  0  0  0  0  0  0  0  0  0  0
    9.9655  -14.5506   18.9363 C   0  0  2  0  0  0  0  0  0  0  0  0
   11.1517  -15.2859   18.6560 N   0  0  0  0  0  0  0  0  0  0  0  0
    9.2127  -15.0357   20.1173 C   0  0  0  0  0  0  0  0  0  0  0  0
    8.3120  -14.2888   20.6120 O   0  0  0  0  0  0  0  0  0  0  0  0
    9.4176  -16.2702   20.7420 N   0  0  0  0  0  0  0  0  0  0  0  0
    8.5406  -16.7238   21.8889 C   0  0  1  0  0  0  0  0  0  0  0  0
    8.4476  -18.1922   21.7211 C   0  0  0  0  0  0  0  0  0  0  0  0
    7.4941  -18.7580   20.7911 C   0  0  0  0  0  0  0  0  0  0  0  0
    6.8686  -17.9152   19.8449 C   0  0  0  0  0  0  0  0  0  0  0  0
    6.0432  -18.6164   19.0962 N   0  0  0  0  0  0  0  0  0  0  0  0
    6.1120  -19.8894   19.5256 C   0  0  0  0  0  0  0  0  0  0  0  0
    6.9801  -19.9482   20.5329 N   0  0  0  0  0  0  0  0  0  0  0  0
    9.3160  -16.4097   23.1309 C   0  0  0  0  0  0  0  0  0  0  0  0
   10.5888  -16.5559   23.0977 O   0  0  0  0  0  0  0  0  0  0  0  0
    4.5109  -12.0196   26.4717 O   0  0  0  0  0  0  0  0  0  0  0  0
    5.7702  -12.5994   26.3469 C   0  0  0  0  0  0  0  0  0  0  0  0
    6.0329  -13.8964   26.7250 C   0  0  0  0  0  0  0  0  0  0  0  0
    7.2953  -14.4606   26.5939 C   0  0  0  0  0  0  0  0  0  0  0  0
    8.3498  -13.7220   26.0688 C   0  0  0  0  0  0  0  0  0  0  0  0
    9.6685  -14.3479   25.9531 C   0  0  0  0  0  0  0  0  0  0  0  0
    9.6342  -15.7987   25.5173 C   0  0  2  0  0  0  0  0  0  0  0  0
    8.7759  -15.9571   24.3453 N   0  0  0  0  0  0  0  0  0  0  0  0
    9.1651  -16.6705   26.6140 C   0  0  0  0  0  0  0  0  0  0  0  0
    8.1051  -17.3155   26.5877 O   0  0  0  0  0  0  0  0  0  0  0  0
    8.0747  -12.4229   25.6934 C   0  0  0  0  0  0  0  0  0  0  0  0
    6.8180  -11.8696   25.8266 C   0  0  0  0  0  0  0  0  0  0  0  0
    9.9472  -16.7948   27.7680 O   0  0  0  0  0  0  0  0  0  0  0  0
  2  3  2  0
  2  1  1  0
  4  2  1  0
  5  4  1  0
  5  6  1  6
  7  5  1  0
  8  7  2  0
  9  7  1  0
 10  9  1  0
 10 11  1  6
 12 11  1  0
 12 13  2  0
 14 13  1  0
 15 14  1  0
 16 15  2  0
 16 12  1  0
 17 10  1  0
 17 18  2  0
 20 21  2  0
 20 19  1  0
 22 21  1  0
 23 22  2  0
 24 23  1  0
 25 24  1  1
 25 26  1  0
 26 17  1  0
 27 25  1  0
 28 27  2  0
 29 23  1  0
 29 30  2  0
 30 20  1  0
 31 27  1  0
M  END
$$$$
