NHY.pdb
     RDKit          3D

 31 32  0  0  1  0  0  0  0  0999 V2000
    7.6190  -12.7361   16.7303 N   0  0  0  0  0  0  0  0  0  0  0  0
    7.7720  -14.1105   16.9972 C   0  0  0  0  0  0  0  0  0  0  0  0
    8.0556  -14.9589   16.1030 O   0  0  0  0  0  0  0  0  0  0  0  0
    7.6017  -14.6264   18.3710 C   0  0  0  0  0  0  0  0  0  0  0  0
    8.8356  -14.3198   19.1972 C   0  0  2  0  0  0  0  0  0  0  0  0
   10.0231  -14.1651   18.4276 N   0  0  0  0  0  0  0  0  0  0  0  0
    8.9474  -15.3055   20.2984 C   0  0  0  0  0  0  0  0  0  0  0  0
    7.9230  -15.5351   21.0141 O   0  0  0  0  0  0  0  0  0  0  0  0
   10.1091  -16.0150   20.6192 N   0  0  0  0  0  0  0  0  0  0  0  0
   10.1319  -17.0069   21.7620 C   0  0  1  0  0  0  0  0  0  0  0  0
   11.2765  -17.8947   21.4544 C   0  0  0  0  0  0  0  0  0  0  0  0
   11.0864  -19.0625   20.6214 C   0  0  0  0  0  0  0  0  0  0  0  0
    9.9585  -19.8868   20.8343 C   0  0  0  0  0  0  0  0  0  0  0  0
    9.9670  -20.8881   19.9795 N   0  0  0  0  0  0  0  0  0  0  0  0
   11.0653  -20.7413   19.2167 C   0  0  0  0  0  0  0  0  0  0  0  0
   11.7139  -19.6502   19.6171 N   0  0  0  0  0  0  0  0  0  0  0  0
   10.4394  -16.1983   22.9843 C   0  0  0  0  0  0  0  0  0  0  0  0
   10.8511  -14.9956   22.8213 O   0  0  0  0  0  0  0  0  0  0  0  0
    6.1851  -11.1988   28.1815 O   0  0  0  0  0  0  0  0  0  0  0  0
    6.7394  -12.1712   27.3543 C   0  0  0  0  0  0  0  0  0  0  0  0
    8.0961  -12.2979   27.1603 C   0  0  0  0  0  0  0  0  0  0  0  0
    8.6338  -13.2740   26.3313 C   0  0  0  0  0  0  0  0  0  0  0  0
    7.8063  -14.1679   25.6609 C   0  0  0  0  0  0  0  0  0  0  0  0
    8.4088  -15.1785   24.7893 C   0  0  0  0  0  0  0  0  0  0  0  0
    9.7023  -15.7656   25.3166 C   0  0  2  0  0  0  0  0  0  0  0  0
   10.3123  -16.6348   24.3128 N   0  0  0  0  0  0  0  0  0  0  0  0
    9.4723  -16.5159   26.5683 C   0  0  0  0  0  0  0  0  0  0  0  0
    8.8486  -17.5868   26.6353 O   0  0  0  0  0  0  0  0  0  0  0  0
    6.4481  -14.0313   25.8629 C   0  0  0  0  0  0  0  0  0  0  0  0
    5.9215  -13.0591   26.6880 C   0  0  0  0  0  0  0  0  0  0  0  0
    9.9796  -16.0085   27.7701 O   0  0  0  0  0  0  0  0  0  0  0  0
  2  3  2  0
  2  1  1  0
  4  2  1  0
  5  4  1  0
  5  6  1  6
  7  5  1  0
  8  7  2  0
  9  7  1  0
 10  9  1  0
 10 11  1  6
 12 11  1  0
 12 13  2  0
 14 13  1  0
 15 14  1  0
 16 15  2  0
 16 12  1  0
 17 10  1  0
 17 18  2  0
 20 21  2  0
 20 19  1  0
 22 21  1  0
 23 22  2  0
 24 23  1  0
 25 24  1  6
 25 26  1  0
 26 17  1  0
 27 25  1  0
 28 27  2  0
 29 23  1  0
 29 30  2  0
 30 20  1  0
 31 27  1  0
M  END
$$$$
