YAN.pdb
     RDKit          3D

 26 26  0  0  1  0  0  0  0  0999 V2000
    6.1121  -10.5212   28.0705 O   0  0  0  0  0  0  0  0  0  0  0  0
    6.6096  -11.5610   27.2956 C   0  0  0  0  0  0  0  0  0  0  0  0
    6.0455  -11.8980   26.0721 C   0  0  0  0  0  0  0  0  0  0  0  0
    6.5373  -12.9286   25.3018 C   0  0  0  0  0  0  0  0  0  0  0  0
    7.6193  -13.6711   25.7220 C   0  0  0  0  0  0  0  0  0  0  0  0
    8.1993  -14.8008   24.9323 C   0  0  0  0  0  0  0  0  0  0  0  0
    7.0476  -15.3836   24.1461 C   0  0  2  0  0  0  0  0  0  0  0  0
    6.5311  -16.5334   24.8529 N   0  0  0  0  0  0  0  0  0  0  0  0
    7.4035  -15.7425   22.7567 C   0  0  0  0  0  0  0  0  0  0  0  0
    7.4986  -16.9602   22.4500 O   0  0  0  0  0  0  0  0  0  0  0  0
    8.1731  -13.3211   26.9493 C   0  0  0  0  0  0  0  0  0  0  0  0
    7.6876  -12.2963   27.7200 C   0  0  0  0  0  0  0  0  0  0  0  0
    7.9266  -13.7475   19.6144 C   0  0  0  0  0  0  0  0  0  0  0  0
    7.9812  -15.0597   20.3849 C   0  0  2  0  0  0  0  0  0  0  0  0
    7.6440  -14.7810   21.7449 N   0  0  0  0  0  0  0  0  0  0  0  0
    9.3974  -15.5696   20.2808 C   0  0  0  0  0  0  0  0  0  0  0  0
    9.8420  -16.0177   19.1934 O   0  0  0  0  0  0  0  0  0  0  0  0
   13.0207  -15.5768   18.9783 N   0  0  0  0  0  0  0  0  0  0  0  0
   13.0767  -14.6501   20.0456 C   0  0  0  0  0  0  0  0  0  0  0  0
   13.5672  -13.5016   19.8846 O   0  0  0  0  0  0  0  0  0  0  0  0
   12.5600  -15.0187   21.3630 C   0  0  0  0  0  0  0  0  0  0  0  0
   11.5651  -16.1723   21.3290 C   0  0  2  0  0  0  0  0  0  0  0  0
   10.2615  -15.5592   21.3966 N   0  0  0  0  0  0  0  0  0  0  0  0
   11.7836  -17.1365   22.4261 C   0  0  0  0  0  0  0  0  0  0  0  0
   12.9315  -17.8953   22.5037 O   0  0  0  0  0  0  0  0  0  0  0  0
   10.9082  -17.2722   23.3102 O   0  0  0  0  0  0  0  0  0  0  0  0
  2  1  1  0
  3  2  2  0
  4  3  1  0
  5  4  2  0
  5 11  1  0
  6  5  1  0
  7  6  1  0
  7  9  1  0
  7  8  1  1
  9 10  2  0
 11 12  2  0
 12  2  1  0
 14 13  1  6
 15 14  1  0
 15  9  1  0
 16 14  1  0
 16 17  2  0
 18 19  1  0
 19 20  2  0
 19 21  1  0
 22 21  1  1
 22 23  1  0
 22 24  1  0
 23 16  1  0
 24 26  2  0
 24 25  1  0
M  END
$$$$
