YAN.pdb
     RDKit          3D

 26 26  0  0  1  0  0  0  0  0999 V2000
    8.3823  -14.6560   15.3319 O   0  0  0  0  0  0  0  0  0  0  0  0
    8.2735  -14.3264   16.6768 C   0  0  0  0  0  0  0  0  0  0  0  0
    8.8983  -15.0731   17.6671 C   0  0  0  0  0  0  0  0  0  0  0  0
    8.7919  -14.7479   19.0015 C   0  0  0  0  0  0  0  0  0  0  0  0
    8.0534  -13.6576   19.4068 C   0  0  0  0  0  0  0  0  0  0  0  0
    7.8997  -13.2533   20.8381 C   0  0  0  0  0  0  0  0  0  0  0  0
    8.2428  -14.4816   21.6491 C   0  0  2  0  0  0  0  0  0  0  0  0
    7.2458  -15.4988   21.4050 N   0  0  0  0  0  0  0  0  0  0  0  0
    8.3719  -14.2151   23.0976 C   0  0  0  0  0  0  0  0  0  0  0  0
    9.2721  -13.4277   23.4918 O   0  0  0  0  0  0  0  0  0  0  0  0
    7.4339  -12.9201   18.4029 C   0  0  0  0  0  0  0  0  0  0  0  0
    7.5364  -13.2390   17.0734 C   0  0  0  0  0  0  0  0  0  0  0  0
    6.1999  -14.3997   26.0109 C   0  0  0  0  0  0  0  0  0  0  0  0
    7.6137  -14.6062   25.4846 C   0  0  2  0  0  0  0  0  0  0  0  0
    7.5289  -14.8030   24.0722 N   0  0  0  0  0  0  0  0  0  0  0  0
    8.1572  -15.8396   26.1627 C   0  0  0  0  0  0  0  0  0  0  0  0
    8.2814  -15.8850   27.4131 O   0  0  0  0  0  0  0  0  0  0  0  0
    6.0459  -19.2218   24.7512 N   0  0  0  0  0  0  0  0  0  0  0  0
    6.9717  -19.2957   25.8182 C   0  0  0  0  0  0  0  0  0  0  0  0
    6.5829  -19.3343   27.0151 O   0  0  0  0  0  0  0  0  0  0  0  0
    8.4071  -19.3286   25.5408 C   0  0  0  0  0  0  0  0  0  0  0  0
    9.1584  -18.1084   26.0589 C   0  0  2  0  0  0  0  0  0  0  0  0
    8.5414  -16.9742   25.4166 N   0  0  0  0  0  0  0  0  0  0  0  0
   10.6079  -18.1818   25.7853 C   0  0  0  0  0  0  0  0  0  0  0  0
   11.2480  -17.2308   25.0203 O   0  0  0  0  0  0  0  0  0  0  0  0
   11.2765  -19.1286   26.2571 O   0  0  0  0  0  0  0  0  0  0  0  0
  2  1  1  0
  3  2  2  0
  4  3  1  0
  5  4  2  0
  5 11  1  0
  6  5  1  0
  7  6  1  0
  7  9  1  0
  7  8  1  1
  9 10  2  0
 11 12  2  0
 12  2  1  0
 14 13  1  1
 15 14  1  0
 15  9  1  0
 16 14  1  0
 16 17  2  0
 18 19  1  0
 19 20  2  0
 19 21  1  0
 22 21  1  6
 22 23  1  0
 22 24  1  0
 23 16  1  0
 24 26  2  0
 24 25  1  0
M  END
$$$$
