YAN.pdb
     RDKit          3D

 26 26  0  0  1  0  0  0  0  0999 V2000
   10.4403  -14.3622   30.5243 O   0  0  0  0  0  0  0  0  0  0  0  0
   10.1778  -14.6314   29.1872 C   0  0  0  0  0  0  0  0  0  0  0  0
    9.4580  -13.7511   28.3900 C   0  0  0  0  0  0  0  0  0  0  0  0
    9.1966  -14.0160   27.0637 C   0  0  0  0  0  0  0  0  0  0  0  0
    9.6451  -15.1773   26.4730 C   0  0  0  0  0  0  0  0  0  0  0  0
    9.3943  -15.5220   25.0397 C   0  0  0  0  0  0  0  0  0  0  0  0
    7.9675  -16.0168   24.9817 C   0  0  2  0  0  0  0  0  0  0  0  0
    7.8547  -17.2182   25.7769 N   0  0  0  0  0  0  0  0  0  0  0  0
    7.4810  -16.2548   23.6060 C   0  0  0  0  0  0  0  0  0  0  0  0
    7.5523  -17.4185   23.1301 O   0  0  0  0  0  0  0  0  0  0  0  0
   10.3645  -16.0485   27.2847 C   0  0  0  0  0  0  0  0  0  0  0  0
   10.6275  -15.7900   28.6052 C   0  0  0  0  0  0  0  0  0  0  0  0
    5.4880  -14.2047   21.1975 C   0  0  0  0  0  0  0  0  0  0  0  0
    6.3682  -15.4122   21.4901 C   0  0  2  0  0  0  0  0  0  0  0  0
    6.9341  -15.2346   22.7897 N   0  0  0  0  0  0  0  0  0  0  0  0
    7.4484  -15.4317   20.4368 C   0  0  0  0  0  0  0  0  0  0  0  0
    7.1749  -15.6993   19.2391 O   0  0  0  0  0  0  0  0  0  0  0  0
    8.2093  -12.0773   18.9796 N   0  0  0  0  0  0  0  0  0  0  0  0
    8.9864  -13.1663   18.5201 C   0  0  0  0  0  0  0  0  0  0  0  0
    8.7852  -13.6765   17.3867 O   0  0  0  0  0  0  0  0  0  0  0  0
   10.0444  -13.7187   19.3652 C   0  0  0  0  0  0  0  0  0  0  0  0
    9.8204  -15.1753   19.7522 C   0  0  2  0  0  0  0  0  0  0  0  0
    8.7925  -15.1518   20.7634 N   0  0  0  0  0  0  0  0  0  0  0  0
   11.0563  -15.8271   20.2306 C   0  0  0  0  0  0  0  0  0  0  0  0
   12.1353  -16.0303   19.3976 O   0  0  0  0  0  0  0  0  0  0  0  0
   11.1314  -16.2062   21.4209 O   0  0  0  0  0  0  0  0  0  0  0  0
  2  1  1  0
  3  2  2  0
  4  3  1  0
  5  4  2  0
  5 11  1  0
  6  5  1  0
  7  6  1  0
  7  9  1  0
  7  8  1  1
  9 10  2  0
 11 12  2  0
 12  2  1  0
 14 13  1  6
 15 14  1  0
 15  9  1  0
 16 14  1  0
 16 17  2  0
 18 19  1  0
 19 20  2  0
 19 21  1  0
 22 21  1  1
 22 23  1  0
 22 24  1  0
 23 16  1  0
 24 26  2  0
 24 25  1  0
M  END
$$$$
