YAN.pdb
     RDKit          3D

 26 26  0  0  1  0  0  0  0  0999 V2000
    5.5300  -10.5612   27.8518 O   0  0  0  0  0  0  0  0  0  0  0  0
    6.1876  -11.6581   27.3100 C   0  0  0  0  0  0  0  0  0  0  0  0
    5.8189  -12.9605   27.6205 C   0  0  0  0  0  0  0  0  0  0  0  0
    6.4695  -14.0498   27.0842 C   0  0  0  0  0  0  0  0  0  0  0  0
    7.5219  -13.8850   26.2102 C   0  0  0  0  0  0  0  0  0  0  0  0
    8.2676  -15.0257   25.5951 C   0  0  0  0  0  0  0  0  0  0  0  0
    7.2599  -15.7599   24.7409 C   0  0  2  0  0  0  0  0  0  0  0  0
    6.7266  -16.8713   25.4949 N   0  0  0  0  0  0  0  0  0  0  0  0
    7.8079  -16.2223   23.4480 C   0  0  0  0  0  0  0  0  0  0  0  0
    8.3252  -17.3687   23.3835 O   0  0  0  0  0  0  0  0  0  0  0  0
    7.8790  -12.5745   25.9092 C   0  0  0  0  0  0  0  0  0  0  0  0
    7.2349  -11.4866   26.4400 C   0  0  0  0  0  0  0  0  0  0  0  0
    7.9216  -14.7319   19.9955 C   0  0  0  0  0  0  0  0  0  0  0  0
    8.2857  -15.8257   20.9904 C   0  0  2  0  0  0  0  0  0  0  0  0
    7.7805  -15.4377   22.2691 N   0  0  0  0  0  0  0  0  0  0  0  0
    9.7919  -15.9102   21.0158 C   0  0  0  0  0  0  0  0  0  0  0  0
   10.4976  -14.9424   20.6334 O   0  0  0  0  0  0  0  0  0  0  0  0
   13.8889  -15.8469   24.4757 N   0  0  0  0  0  0  0  0  0  0  0  0
   13.5497  -15.8935   23.1032 C   0  0  0  0  0  0  0  0  0  0  0  0
   14.4384  -15.8562   22.2120 O   0  0  0  0  0  0  0  0  0  0  0  0
   12.1476  -15.9868   22.6985 C   0  0  0  0  0  0  0  0  0  0  0  0
   11.8779  -17.0828   21.6750 C   0  0  2  0  0  0  0  0  0  0  0  0
   10.4508  -17.0737   21.4674 N   0  0  0  0  0  0  0  0  0  0  0  0
   12.3663  -18.4030   22.1220 C   0  0  0  0  0  0  0  0  0  0  0  0
   13.4452  -19.0156   21.5220 O   0  0  0  0  0  0  0  0  0  0  0  0
   11.7901  -18.9844   23.0687 O   0  0  0  0  0  0  0  0  0  0  0  0
  2  1  1  0
  3  2  2  0
  4  3  1  0
  5  4  2  0
  5 11  1  0
  6  5  1  0
  7  6  1  0
  7  9  1  0
  7  8  1  1
  9 10  2  0
 11 12  2  0
 12  2  1  0
 14 13  1  6
 15 14  1  0
 15  9  1  0
 16 14  1  0
 16 17  2  0
 18 19  1  0
 19 20  2  0
 19 21  1  0
 22 21  1  1
 22 23  1  0
 22 24  1  0
 23 16  1  0
 24 26  2  0
 24 25  1  0
M  END
$$$$
