YAN.pdb
     RDKit          3D

 26 26  0  0  1  0  0  0  0  0999 V2000
    6.8850  -12.8978   16.0268 O   0  0  0  0  0  0  0  0  0  0  0  0
    7.4155  -13.2977   17.2466 C   0  0  0  0  0  0  0  0  0  0  0  0
    6.9626  -12.7731   18.4500 C   0  0  0  0  0  0  0  0  0  0  0  0
    7.4871  -13.1684   19.6609 C   0  0  0  0  0  0  0  0  0  0  0  0
    8.4918  -14.1094   19.7227 C   0  0  0  0  0  0  0  0  0  0  0  0
    9.1018  -14.5794   21.0045 C   0  0  0  0  0  0  0  0  0  0  0  0
    8.5659  -15.9753   21.2246 C   0  0  2  0  0  0  0  0  0  0  0  0
    7.3751  -15.8979   22.0396 N   0  0  0  0  0  0  0  0  0  0  0  0
    9.5516  -16.8973   21.8282 C   0  0  0  0  0  0  0  0  0  0  0  0
    9.6761  -16.9167   23.0812 O   0  0  0  0  0  0  0  0  0  0  0  0
    8.9344  -14.6252   18.5088 C   0  0  0  0  0  0  0  0  0  0  0  0
    8.4159  -14.2354   17.3009 C   0  0  0  0  0  0  0  0  0  0  0  0
   11.6252  -19.7076   20.4803 C   0  0  0  0  0  0  0  0  0  0  0  0
   11.3066  -18.7101   21.5858 C   0  0  2  0  0  0  0  0  0  0  0  0
   10.3686  -17.7670   21.0651 N   0  0  0  0  0  0  0  0  0  0  0  0
   12.6032  -18.0282   21.9468 C   0  0  0  0  0  0  0  0  0  0  0  0
   13.5583  -18.6807   22.4398 O   0  0  0  0  0  0  0  0  0  0  0  0
   12.7659  -14.3154   19.1659 N   0  0  0  0  0  0  0  0  0  0  0  0
   13.8733  -14.8909   19.8316 C   0  0  0  0  0  0  0  0  0  0  0  0
   14.7280  -15.5704   19.2044 O   0  0  0  0  0  0  0  0  0  0  0  0
   14.0407  -14.7017   21.2720 C   0  0  0  0  0  0  0  0  0  0  0  0
   14.0331  -16.0028   22.0649 C   0  0  2  0  0  0  0  0  0  0  0  0
   12.7817  -16.6432   21.7430 N   0  0  0  0  0  0  0  0  0  0  0  0
   14.1855  -15.7781   23.5167 C   0  0  0  0  0  0  0  0  0  0  0  0
   13.2274  -16.1924   24.4166 O   0  0  0  0  0  0  0  0  0  0  0  0
   15.2077  -15.1978   23.9460 O   0  0  0  0  0  0  0  0  0  0  0  0
  2  1  1  0
  3  2  2  0
  4  3  1  0
  5  4  2  0
  5 11  1  0
  6  5  1  0
  7  6  1  0
  7  9  1  0
  7  8  1  1
  9 10  2  0
 11 12  2  0
 12  2  1  0
 14 13  1  6
 15 14  1  0
 15  9  1  0
 16 14  1  0
 16 17  2  0
 18 19  1  0
 19 20  2  0
 19 21  1  0
 22 21  1  6
 22 23  1  0
 22 24  1  0
 23 16  1  0
 24 26  2  0
 24 25  1  0
M  END
$$$$
