YAN.pdb
     RDKit          3D

 26 26  0  0  1  0  0  0  0  0999 V2000
    7.2309  -12.7060   16.8786 O   0  0  0  0  0  0  0  0  0  0  0  0
    7.4629  -13.6217   17.8968 C   0  0  0  0  0  0  0  0  0  0  0  0
    7.1023  -13.3616   19.2124 C   0  0  0  0  0  0  0  0  0  0  0  0
    7.3311  -14.2684   20.2238 C   0  0  0  0  0  0  0  0  0  0  0  0
    7.9331  -15.4803   19.9639 C   0  0  0  0  0  0  0  0  0  0  0  0
    8.2084  -16.5055   21.0171 C   0  0  0  0  0  0  0  0  0  0  0  0
    7.5058  -17.7623   20.5579 C   0  0  2  0  0  0  0  0  0  0  0  0
    6.0805  -17.5905   20.7236 N   0  0  0  0  0  0  0  0  0  0  0  0
    7.9677  -18.9835   21.2516 C   0  0  0  0  0  0  0  0  0  0  0  0
    7.8766  -19.0397   22.5063 O   0  0  0  0  0  0  0  0  0  0  0  0
    8.2882  -15.7257   18.6414 C   0  0  0  0  0  0  0  0  0  0  0  0
    8.0628  -14.8269   17.6309 C   0  0  0  0  0  0  0  0  0  0  0  0
    8.8284  -22.4480   20.2850 C   0  0  0  0  0  0  0  0  0  0  0  0
    9.0997  -21.2505   21.1856 C   0  0  2  0  0  0  0  0  0  0  0  0
    8.5106  -20.1021   20.5733 N   0  0  0  0  0  0  0  0  0  0  0  0
   10.5983  -21.0986   21.2718 C   0  0  0  0  0  0  0  0  0  0  0  0
   11.3149  -22.0282   21.7226 O   0  0  0  0  0  0  0  0  0  0  0  0
   12.0838  -18.6915   17.4771 N   0  0  0  0  0  0  0  0  0  0  0  0
   12.7199  -19.4857   18.4599 C   0  0  0  0  0  0  0  0  0  0  0  0
   12.9937  -20.6951   18.2414 O   0  0  0  0  0  0  0  0  0  0  0  0
   13.0709  -18.9052   19.7553 C   0  0  0  0  0  0  0  0  0  0  0  0
   12.6701  -19.7718   20.9428 C   0  0  2  0  0  0  0  0  0  0  0  0
   11.2379  -19.9129   20.8511 N   0  0  0  0  0  0  0  0  0  0  0  0
   13.0898  -19.1879   22.2328 C   0  0  0  0  0  0  0  0  0  0  0  0
   12.1704  -18.7899   23.1793 O   0  0  0  0  0  0  0  0  0  0  0  0
   14.3091  -19.0487   22.4781 O   0  0  0  0  0  0  0  0  0  0  0  0
  2  1  1  0
  3  2  2  0
  4  3  1  0
  5  4  2  0
  5 11  1  0
  6  5  1  0
  7  6  1  0
  7  9  1  0
  7  8  1  1
  9 10  2  0
 11 12  2  0
 12  2  1  0
 14 13  1  6
 15 14  1  0
 15  9  1  0
 16 14  1  0
 16 17  2  0
 18 19  1  0
 19 20  2  0
 19 21  1  0
 22 21  1  6
 22 23  1  0
 22 24  1  0
 23 16  1  0
 24 26  2  0
 24 25  1  0
M  END
$$$$
