YAN.pdb
     RDKit          3D

 26 26  0  0  1  0  0  0  0  0999 V2000
    8.3318  -12.5824   17.4393 O   0  0  0  0  0  0  0  0  0  0  0  0
    8.0284  -12.9969   18.7298 C   0  0  0  0  0  0  0  0  0  0  0  0
    7.0766  -13.9766   18.9801 C   0  0  0  0  0  0  0  0  0  0  0  0
    6.7742  -14.3893   20.2591 C   0  0  0  0  0  0  0  0  0  0  0  0
    7.4124  -13.8387   21.3490 C   0  0  0  0  0  0  0  0  0  0  0  0
    7.1290  -14.2435   22.7603 C   0  0  0  0  0  0  0  0  0  0  0  0
    8.2286  -15.2093   23.1373 C   0  0  2  0  0  0  0  0  0  0  0  0
    8.3419  -16.2168   22.1075 N   0  0  0  0  0  0  0  0  0  0  0  0
    8.0339  -15.8373   24.4616 C   0  0  0  0  0  0  0  0  0  0  0  0
    7.9277  -15.0967   25.4745 O   0  0  0  0  0  0  0  0  0  0  0  0
    8.3631  -12.8587   21.0817 C   0  0  0  0  0  0  0  0  0  0  0  0
    8.6680  -12.4443   19.8108 C   0  0  0  0  0  0  0  0  0  0  0  0
    6.7701  -19.0015   25.7317 C   0  0  0  0  0  0  0  0  0  0  0  0
    7.8175  -17.9099   25.9048 C   0  0  2  0  0  0  0  0  0  0  0  0
    7.9591  -17.2389   24.6516 N   0  0  0  0  0  0  0  0  0  0  0  0
    9.1048  -18.5960   26.2902 C   0  0  0  0  0  0  0  0  0  0  0  0
    9.1894  -19.2527   27.3591 O   0  0  0  0  0  0  0  0  0  0  0  0
   10.5422  -21.3389   23.7666 N   0  0  0  0  0  0  0  0  0  0  0  0
   11.2085  -20.1163   23.5174 C   0  0  0  0  0  0  0  0  0  0  0  0
   11.0200  -19.4792   22.4478 O   0  0  0  0  0  0  0  0  0  0  0  0
   12.1342  -19.5716   24.5097 C   0  0  0  0  0  0  0  0  0  0  0  0
   11.4679  -19.1993   25.8285 C   0  0  2  0  0  0  0  0  0  0  0  0
   10.2480  -18.5209   25.4659 N   0  0  0  0  0  0  0  0  0  0  0  0
   12.3364  -18.3634   26.6817 C   0  0  0  0  0  0  0  0  0  0  0  0
   12.3779  -16.9924   26.5475 O   0  0  0  0  0  0  0  0  0  0  0  0
   13.0548  -18.9080   27.5498 O   0  0  0  0  0  0  0  0  0  0  0  0
  2  1  1  0
  3  2  2  0
  4  3  1  0
  5  4  2  0
  5 11  1  0
  6  5  1  0
  7  6  1  0
  7  9  1  0
  7  8  1  6
  9 10  2  0
 11 12  2  0
 12  2  1  0
 14 13  1  6
 15 14  1  0
 15  9  1  0
 16 14  1  0
 16 17  2  0
 18 19  1  0
 19 20  2  0
 19 21  1  0
 22 21  1  6
 22 23  1  0
 22 24  1  0
 23 16  1  0
 24 26  2  0
 24 25  1  0
M  END
$$$$
