YAN.pdb
     RDKit          3D

 26 26  0  0  1  0  0  0  0  0999 V2000
    7.8324  -13.3657   15.8051 O   0  0  0  0  0  0  0  0  0  0  0  0
    7.5322  -13.5535   17.1482 C   0  0  0  0  0  0  0  0  0  0  0  0
    6.8926  -14.6992   17.6029 C   0  0  0  0  0  0  0  0  0  0  0  0
    6.5940  -14.8876   18.9344 C   0  0  0  0  0  0  0  0  0  0  0  0
    6.9228  -13.9352   19.8743 C   0  0  0  0  0  0  0  0  0  0  0  0
    6.6260  -14.0808   21.3326 C   0  0  0  0  0  0  0  0  0  0  0  0
    7.8246  -14.7851   21.9254 C   0  0  2  0  0  0  0  0  0  0  0  0
    7.9860  -16.0654   21.2748 N   0  0  0  0  0  0  0  0  0  0  0  0
    7.7447  -14.9524   23.3923 C   0  0  0  0  0  0  0  0  0  0  0  0
    6.7845  -14.4232   24.0118 O   0  0  0  0  0  0  0  0  0  0  0  0
    7.5630  -12.7935   19.4030 C   0  0  0  0  0  0  0  0  0  0  0  0
    7.8626  -12.6008   18.0790 C   0  0  0  0  0  0  0  0  0  0  0  0
    7.2835  -16.7116   25.7631 C   0  0  0  0  0  0  0  0  0  0  0  0
    8.6096  -15.9995   25.5326 C   0  0  2  0  0  0  0  0  0  0  0  0
    8.6986  -15.6829   24.1424 N   0  0  0  0  0  0  0  0  0  0  0  0
    9.6992  -16.9643   25.9301 C   0  0  0  0  0  0  0  0  0  0  0  0
    9.9359  -17.2048   27.1414 O   0  0  0  0  0  0  0  0  0  0  0  0
   10.8419  -19.8901   26.1813 N   0  0  0  0  0  0  0  0  0  0  0  0
   11.8124  -20.0865   25.1712 C   0  0  0  0  0  0  0  0  0  0  0  0
   12.2001  -21.2427   24.8577 O   0  0  0  0  0  0  0  0  0  0  0  0
   12.3833  -18.9365   24.4712 C   0  0  0  0  0  0  0  0  0  0  0  0
   11.9228  -17.5934   25.0241 C   0  0  2  0  0  0  0  0  0  0  0  0
   10.4825  -17.6227   24.9581 N   0  0  0  0  0  0  0  0  0  0  0  0
   12.4906  -16.4527   24.2773 C   0  0  0  0  0  0  0  0  0  0  0  0
   12.6441  -16.4897   22.9081 O   0  0  0  0  0  0  0  0  0  0  0  0
   12.8426  -15.4245   24.8977 O   0  0  0  0  0  0  0  0  0  0  0  0
  2  1  1  0
  3  2  2  0
  4  3  1  0
  5  4  2  0
  5 11  1  0
  6  5  1  0
  7  6  1  0
  7  9  1  0
  7  8  1  6
  9 10  2  0
 11 12  2  0
 12  2  1  0
 14 13  1  6
 15 14  1  0
 15  9  1  0
 16 14  1  0
 16 17  2  0
 18 19  1  0
 19 20  2  0
 19 21  1  0
 22 21  1  6
 22 23  1  0
 22 24  1  0
 23 16  1  0
 24 26  2  0
 24 25  1  0
M  END
$$$$
