CPA.pdb
     RDKit          3D

 19 19  0  0  1  0  0  0  0  0999 V2000
    6.4992  -18.0948   17.4174 N   0  0  0  0  0  0  0  0  0  0  0  0
    6.3561  -16.9740   18.3109 C   0  0  1  0  0  0  0  0  0  0  0  0
    5.3534  -17.3639   19.4085 C   0  0  0  0  0  0  0  0  0  0  0  0
    6.1470  -18.5042   20.5654 S   0  0  0  0  0  0  0  0  0  0  0  0
    7.6269  -16.5187   18.9196 C   0  0  0  0  0  0  0  0  0  0  0  0
    8.6365  -17.2737   18.7775 O   0  0  0  0  0  0  0  0  0  0  0  0
    7.8047  -15.3138   19.6440 N   0  0  0  0  0  0  0  0  0  0  0  0
    6.7156  -14.4065   19.9995 C   0  0  0  0  0  0  0  0  0  0  0  0
    7.3278  -13.0839   20.3178 C   0  0  0  0  0  0  0  0  0  0  0  0
    8.7945  -13.3176   20.4643 C   0  0  0  0  0  0  0  0  0  0  0  0
    9.0586  -14.7845   20.1433 C   0  0  1  0  0  0  0  0  0  0  0  0
    9.4515  -15.5166   21.3632 C   0  0  0  0  0  0  0  0  0  0  0  0
    8.5764  -15.8064   22.2076 O   0  0  0  0  0  0  0  0  0  0  0  0
   11.9484  -17.9435   22.3318 C   0  0  0  0  0  0  0  0  0  0  0  0
   11.0506  -16.8070   22.7696 C   0  0  2  0  0  0  0  0  0  0  0  0
   10.7816  -15.9178   21.6406 N   0  0  0  0  0  0  0  0  0  0  0  0
   11.7802  -16.0465   23.8471 C   0  0  0  0  0  0  0  0  0  0  0  0
   12.2072  -14.8833   23.6413 O   0  0  0  0  0  0  0  0  0  0  0  0
   12.0116  -16.5902   25.1035 O   0  0  0  0  0  0  0  0  0  0  0  0
  2  1  1  6
  3  4  1  0
  3  2  1  0
  5  2  1  0
  5  6  2  0
  7  5  1  0
  8  7  1  0
  9 10  1  0
  9  8  1  0
 10 11  1  0
 11  7  1  0
 11 12  1  1
 13 12  2  0
 15 14  1  6
 15 16  1  0
 15 17  1  0
 16 12  1  0
 17 18  2  0
 17 19  1  0
M  END
$$$$
