CPA.pdb
     RDKit          3D

 19 19  0  0  1  0  0  0  0  0999 V2000
    5.6957  -18.6052   19.2206 N   0  0  0  0  0  0  0  0  0  0  0  0
    5.6908  -17.4525   20.0844 C   0  0  1  0  0  0  0  0  0  0  0  0
    4.9856  -17.8405   21.3936 C   0  0  0  0  0  0  0  0  0  0  0  0
    3.2007  -17.9081   21.1139 S   0  0  0  0  0  0  0  0  0  0  0  0
    7.0365  -16.9059   20.3726 C   0  0  0  0  0  0  0  0  0  0  0  0
    8.0033  -17.7272   20.3746 O   0  0  0  0  0  0  0  0  0  0  0  0
    7.3292  -15.5462   20.6447 N   0  0  0  0  0  0  0  0  0  0  0  0
    6.3279  -14.4818   20.6554 C   0  0  0  0  0  0  0  0  0  0  0  0
    7.0562  -13.1880   20.5112 C   0  0  0  0  0  0  0  0  0  0  0  0
    8.5000  -13.4833   20.7474 C   0  0  0  0  0  0  0  0  0  0  0  0
    8.6321  -14.9887   20.9495 C   0  0  1  0  0  0  0  0  0  0  0  0
    8.9824  -15.2920   22.3509 C   0  0  0  0  0  0  0  0  0  0  0  0
    8.0728  -15.3507   23.2066 O   0  0  0  0  0  0  0  0  0  0  0  0
   10.0665  -17.5732   24.0924 C   0  0  0  0  0  0  0  0  0  0  0  0
   10.5395  -16.1360   24.1010 C   0  0  2  0  0  0  0  0  0  0  0  0
   10.3080  -15.5246   22.7932 N   0  0  0  0  0  0  0  0  0  0  0  0
   12.0176  -16.1503   24.3957 C   0  0  0  0  0  0  0  0  0  0  0  0
   12.4459  -16.4416   25.5401 O   0  0  0  0  0  0  0  0  0  0  0  0
   12.9641  -15.8456   23.4268 O   0  0  0  0  0  0  0  0  0  0  0  0
  2  1  1  6
  3  4  1  0
  3  2  1  0
  5  2  1  0
  5  6  2  0
  7  5  1  0
  8  7  1  0
  9 10  1  0
  9  8  1  0
 10 11  1  0
 11  7  1  0
 11 12  1  1
 13 12  2  0
 15 14  1  6
 15 16  1  0
 15 17  1  0
 16 12  1  0
 17 18  2  0
 17 19  1  0
M  END
$$$$
