CPA.pdb
     RDKit          3D

 19 19  0  0  1  0  0  0  0  0999 V2000
    7.2691  -17.5837   16.8243 N   0  0  0  0  0  0  0  0  0  0  0  0
    6.8909  -16.9292   18.0504 C   0  0  1  0  0  0  0  0  0  0  0  0
    6.1831  -17.9608   18.9431 C   0  0  0  0  0  0  0  0  0  0  0  0
    5.8368  -17.2190   20.5550 S   0  0  0  0  0  0  0  0  0  0  0  0
    8.0214  -16.3126   18.7815 C   0  0  0  0  0  0  0  0  0  0  0  0
    9.0974  -16.9813   18.8482 O   0  0  0  0  0  0  0  0  0  0  0  0
    7.9978  -15.0422   19.4091 N   0  0  0  0  0  0  0  0  0  0  0  0
    6.8279  -14.1668   19.4367 C   0  0  0  0  0  0  0  0  0  0  0  0
    7.3122  -12.7912   19.7506 C   0  0  0  0  0  0  0  0  0  0  0  0
    8.7193  -12.9334   20.2274 C   0  0  0  0  0  0  0  0  0  0  0  0
    9.0953  -14.4064   20.1111 C   0  0  1  0  0  0  0  0  0  0  0  0
    9.2386  -15.0093   21.4507 C   0  0  0  0  0  0  0  0  0  0  0  0
    8.2137  -15.3718   22.0678 O   0  0  0  0  0  0  0  0  0  0  0  0
   10.2475  -17.5248   22.8027 C   0  0  0  0  0  0  0  0  0  0  0  0
   10.5819  -16.1133   23.2330 C   0  0  2  0  0  0  0  0  0  0  0  0
   10.4872  -15.2057   22.0907 N   0  0  0  0  0  0  0  0  0  0  0  0
   11.9971  -16.1241   23.7517 C   0  0  0  0  0  0  0  0  0  0  0  0
   12.9276  -15.5849   23.1028 O   0  0  0  0  0  0  0  0  0  0  0  0
   12.3342  -16.7239   24.9576 O   0  0  0  0  0  0  0  0  0  0  0  0
  2  1  1  6
  3  4  1  0
  3  2  1  0
  5  2  1  0
  5  6  2  0
  7  5  1  0
  8  7  1  0
  9 10  1  0
  9  8  1  0
 10 11  1  0
 11  7  1  0
 11 12  1  1
 13 12  2  0
 15 14  1  6
 15 16  1  0
 15 17  1  0
 16 12  1  0
 17 18  2  0
 17 19  1  0
M  END
$$$$
