CPA.pdb
     RDKit          3D

 19 19  0  0  1  0  0  0  0  0999 V2000
    7.4252  -14.5927   21.2498 N   0  0  0  0  0  0  0  0  0  0  0  0
    6.9681  -14.8977   22.5813 C   0  0  1  0  0  0  0  0  0  0  0  0
    6.7935  -16.4209   22.6886 C   0  0  0  0  0  0  0  0  0  0  0  0
    6.4625  -16.8649   24.4095 S   0  0  0  0  0  0  0  0  0  0  0  0
    7.8632  -14.4102   23.6555 C   0  0  0  0  0  0  0  0  0  0  0  0
    9.1116  -14.4806   23.4411 O   0  0  0  0  0  0  0  0  0  0  0  0
    7.4393  -13.8739   24.8969 N   0  0  0  0  0  0  0  0  0  0  0  0
    6.0406  -13.7746   25.3085 C   0  0  0  0  0  0  0  0  0  0  0  0
    5.9735  -12.7692   26.4085 C   0  0  0  0  0  0  0  0  0  0  0  0
    7.3780  -12.5308   26.8538 C   0  0  0  0  0  0  0  0  0  0  0  0
    8.2910  -13.3450   25.9440 C   0  0  1  0  0  0  0  0  0  0  0  0
    8.9027  -14.4606   26.6922 C   0  0  0  0  0  0  0  0  0  0  0  0
    8.2807  -15.5405   26.7913 O   0  0  0  0  0  0  0  0  0  0  0  0
   12.2735  -15.4139   27.9959 C   0  0  0  0  0  0  0  0  0  0  0  0
   10.7734  -15.5828   27.8927 C   0  0  2  0  0  0  0  0  0  0  0  0
   10.1726  -14.3814   27.3153 N   0  0  0  0  0  0  0  0  0  0  0  0
   10.2463  -15.7879   29.2899 C   0  0  0  0  0  0  0  0  0  0  0  0
    9.5438  -14.9108   29.8510 O   0  0  0  0  0  0  0  0  0  0  0  0
   10.5100  -16.9430   30.0135 O   0  0  0  0  0  0  0  0  0  0  0  0
  2  1  1  6
  3  4  1  0
  3  2  1  0
  5  2  1  0
  5  6  2  0
  7  5  1  0
  8  7  1  0
  9 10  1  0
  9  8  1  0
 10 11  1  0
 11  7  1  0
 11 12  1  1
 13 12  2  0
 15 14  1  1
 15 16  1  0
 15 17  1  0
 16 12  1  0
 17 18  2  0
 17 19  1  0
M  END
$$$$
