CPA.pdb
     RDKit          3D

 19 19  0  0  1  0  0  0  0  0999 V2000
    8.2594  -14.5916   21.2908 N   0  0  0  0  0  0  0  0  0  0  0  0
    7.4591  -14.3306   22.4598 C   0  0  1  0  0  0  0  0  0  0  0  0
    6.4642  -15.4903   22.6252 C   0  0  0  0  0  0  0  0  0  0  0  0
    7.3279  -16.9270   23.3022 S   0  0  0  0  0  0  0  0  0  0  0  0
    8.2434  -14.1503   23.7028 C   0  0  0  0  0  0  0  0  0  0  0  0
    9.4755  -14.4485   23.6547 O   0  0  0  0  0  0  0  0  0  0  0  0
    7.7306  -13.6738   24.9350 N   0  0  0  0  0  0  0  0  0  0  0  0
    6.3306  -13.3157   25.1530 C   0  0  0  0  0  0  0  0  0  0  0  0
    6.2798  -12.4472   26.3648 C   0  0  0  0  0  0  0  0  0  0  0  0
    7.6073  -12.5732   27.0351 C   0  0  0  0  0  0  0  0  0  0  0  0
    8.4805  -13.4630   26.1576 C   0  0  1  0  0  0  0  0  0  0  0  0
    8.7217  -14.7609   26.8178 C   0  0  0  0  0  0  0  0  0  0  0  0
    7.8028  -15.6080   26.8489 O   0  0  0  0  0  0  0  0  0  0  0  0
   11.4159  -17.0594   27.4807 C   0  0  0  0  0  0  0  0  0  0  0  0
   10.1269  -16.4507   27.9882 C   0  0  2  0  0  0  0  0  0  0  0  0
    9.9510  -15.1115   27.4285 N   0  0  0  0  0  0  0  0  0  0  0  0
   10.2325  -16.3595   29.4890 C   0  0  0  0  0  0  0  0  0  0  0  0
   10.3839  -17.3905   30.1903 O   0  0  0  0  0  0  0  0  0  0  0  0
   10.1680  -15.1450   30.1587 O   0  0  0  0  0  0  0  0  0  0  0  0
  2  1  1  6
  3  4  1  0
  3  2  1  0
  5  2  1  0
  5  6  2  0
  7  5  1  0
  8  7  1  0
  9 10  1  0
  9  8  1  0
 10 11  1  0
 11  7  1  0
 11 12  1  1
 13 12  2  0
 15 14  1  6
 15 16  1  0
 15 17  1  0
 16 12  1  0
 17 18  2  0
 17 19  1  0
M  END
$$$$
