CPA.pdb
     RDKit          3D

 19 19  0  0  1  0  0  0  0  0999 V2000
    7.5801  -14.4869   21.2839 N   0  0  0  0  0  0  0  0  0  0  0  0
    7.0805  -14.7623   22.6066 C   0  0  1  0  0  0  0  0  0  0  0  0
    6.7327  -16.2574   22.6835 C   0  0  0  0  0  0  0  0  0  0  0  0
    6.3976  -16.7055   24.4026 S   0  0  0  0  0  0  0  0  0  0  0  0
    8.0166  -14.3999   23.6952 C   0  0  0  0  0  0  0  0  0  0  0  0
    9.2485  -14.6276   23.4951 O   0  0  0  0  0  0  0  0  0  0  0  0
    7.6487  -13.8220   24.9358 N   0  0  0  0  0  0  0  0  0  0  0  0
    6.2703  -13.5299   25.3236 C   0  0  0  0  0  0  0  0  0  0  0  0
    6.3246  -12.5368   26.4353 C   0  0  0  0  0  0  0  0  0  0  0  0
    7.7397  -12.5042   26.9086 C   0  0  0  0  0  0  0  0  0  0  0  0
    8.5461  -13.4299   26.0046 C   0  0  1  0  0  0  0  0  0  0  0  0
    8.9793  -14.6286   26.7490 C   0  0  0  0  0  0  0  0  0  0  0  0
    8.1453  -15.5269   26.9946 O   0  0  0  0  0  0  0  0  0  0  0  0
   12.1148  -16.4248   27.5438 C   0  0  0  0  0  0  0  0  0  0  0  0
   10.6696  -16.0924   27.8445 C   0  0  2  0  0  0  0  0  0  0  0  0
   10.3042  -14.8270   27.2098 N   0  0  0  0  0  0  0  0  0  0  0  0
   10.5396  -15.9617   29.3404 C   0  0  0  0  0  0  0  0  0  0  0  0
   10.7792  -16.9347   30.0977 O   0  0  0  0  0  0  0  0  0  0  0  0
   10.1531  -14.7727   29.9443 O   0  0  0  0  0  0  0  0  0  0  0  0
  2  1  1  6
  3  4  1  0
  3  2  1  0
  5  2  1  0
  5  6  2  0
  7  5  1  0
  8  7  1  0
  9 10  1  0
  9  8  1  0
 10 11  1  0
 11  7  1  0
 11 12  1  1
 13 12  2  0
 15 14  1  1
 15 16  1  0
 15 17  1  0
 16 12  1  0
 17 18  2  0
 17 19  1  0
M  END
$$$$
