CPA.pdb
     RDKit          3D

 19 19  0  0  1  0  0  0  0  0999 V2000
    8.4364  -17.7480   17.2633 N   0  0  0  0  0  0  0  0  0  0  0  0
    7.7842  -17.3544   18.4859 C   0  0  1  0  0  0  0  0  0  0  0  0
    7.0625  -18.5844   19.0589 C   0  0  0  0  0  0  0  0  0  0  0  0
    5.8879  -19.2118   17.8361 S   0  0  0  0  0  0  0  0  0  0  0  0
    8.6962  -16.7795   19.5009 C   0  0  0  0  0  0  0  0  0  0  0  0
    9.9277  -17.0662   19.3970 O   0  0  0  0  0  0  0  0  0  0  0  0
    8.3058  -15.9392   20.5732 N   0  0  0  0  0  0  0  0  0  0  0  0
    6.9184  -15.5957   20.8780 C   0  0  0  0  0  0  0  0  0  0  0  0
    6.9429  -14.3719   21.7307 C   0  0  0  0  0  0  0  0  0  0  0  0
    8.3529  -14.2002   22.1890 C   0  0  0  0  0  0  0  0  0  0  0  0
    9.1857  -15.2917   21.5262 C   0  0  1  0  0  0  0  0  0  0  0  0
    9.6367  -16.2766   22.5287 C   0  0  0  0  0  0  0  0  0  0  0  0
    8.8396  -17.1576   22.9179 O   0  0  0  0  0  0  0  0  0  0  0  0
   12.8690  -17.6674   23.6406 C   0  0  0  0  0  0  0  0  0  0  0  0
   11.3892  -17.4411   23.8602 C   0  0  2  0  0  0  0  0  0  0  0  0
   10.9390  -16.2852   23.0863 N   0  0  0  0  0  0  0  0  0  0  0  0
   11.1880  -17.1727   25.3296 C   0  0  0  0  0  0  0  0  0  0  0  0
   11.5468  -18.0098   26.1947 O   0  0  0  0  0  0  0  0  0  0  0  0
   10.6032  -16.0008   25.7903 O   0  0  0  0  0  0  0  0  0  0  0  0
  2  1  1  6
  3  4  1  0
  3  2  1  0
  5  2  1  0
  5  6  2  0
  7  5  1  0
  8  7  1  0
  9 10  1  0
  9  8  1  0
 10 11  1  0
 11  7  1  0
 11 12  1  1
 13 12  2  0
 15 14  1  1
 15 16  1  0
 15 17  1  0
 16 12  1  0
 17 18  2  0
 17 19  1  0
M  END
$$$$
