WVR.pdb
     RDKit          3D

 33 34  0  0  1  0  0  0  0  0999 V2000
    5.8119  -17.2646   24.7575 N   0  0  0  0  0  0  0  0  0  0  0  0
    6.5532  -16.0811   24.2958 C   0  0  1  0  0  0  0  0  0  0  0  0
    7.6685  -15.9050   25.3340 C   0  0  0  0  0  0  0  0  0  0  0  0
    7.1862  -14.9068   26.3135 C   0  0  0  0  0  0  0  0  0  0  0  0
    6.4208  -15.1570   27.4422 C   0  0  0  0  0  0  0  0  0  0  0  0
    6.1743  -14.0038   28.0842 N   0  0  0  0  0  0  0  0  0  0  0  0
    6.7483  -12.9892   27.4247 C   0  0  0  0  0  0  0  0  0  0  0  0
    6.8182  -11.6302   27.6249 C   0  0  0  0  0  0  0  0  0  0  0  0
    7.5112  -10.8333   26.7333 C   0  0  0  0  0  0  0  0  0  0  0  0
    8.1519  -11.3553   25.6235 C   0  0  0  0  0  0  0  0  0  0  0  0
    8.0740  -12.7326   25.4316 C   0  0  0  0  0  0  0  0  0  0  0  0
    7.3869  -13.5412   26.3113 C   0  0  0  0  0  0  0  0  0  0  0  0
    7.1188  -16.3160   22.9512 C   0  0  0  0  0  0  0  0  0  0  0  0
    7.1588  -17.4993   22.5286 O   0  0  0  0  0  0  0  0  0  0  0  0
    8.8832  -13.0990   20.5840 C   0  0  0  0  0  0  0  0  0  0  0  0
    8.0782  -14.2272   20.0332 C   0  0  2  0  0  0  0  0  0  0  0  0
    6.6427  -13.8416   19.7570 C   0  0  0  0  0  0  0  0  0  0  0  0
    8.2046  -15.5051   20.8146 C   0  0  2  0  0  0  0  0  0  0  0  0
    7.6049  -15.2566   22.1488 N   0  0  0  0  0  0  0  0  0  0  0  0
    9.5576  -16.0019   21.0234 C   0  0  0  0  0  0  0  0  0  0  0  0
   10.2527  -15.4408   21.9542 O   0  0  0  0  0  0  0  0  0  0  0  0
   13.9109  -22.6471   18.3363 N   0  0  0  0  0  0  0  0  0  0  0  0
   12.8742  -21.7262   18.6300 C   0  0  0  0  0  0  0  0  0  0  0  0
   12.7679  -20.5707   18.0221 N   0  0  0  0  0  0  0  0  0  0  0  0
   11.8709  -21.9948   19.6123 N   0  0  0  0  0  0  0  0  0  0  0  0
   10.7994  -21.0768   19.8164 C   0  0  0  0  0  0  0  0  0  0  0  0
   11.1649  -19.8829   20.6503 C   0  0  0  0  0  0  0  0  0  0  0  0
   11.8515  -18.7937   19.8795 C   0  0  0  0  0  0  0  0  0  0  0  0
   11.5115  -17.4806   20.5942 C   0  0  2  0  0  0  0  0  0  0  0  0
   10.1514  -17.0593   20.2710 N   0  0  0  0  0  0  0  0  0  0  0  0
   12.4751  -16.4130   20.2604 C   0  0  0  0  0  0  0  0  0  0  0  0
   13.5547  -16.1861   21.1187 O   0  0  0  0  0  0  0  0  0  0  0  0
   12.3550  -15.7143   19.2447 O   0  0  0  0  0  0  0  0  0  0  0  0
  2  1  1  1
  2 13  1  0
  2  3  1  0
  4  3  1  0
  4  5  2  0
  6  5  1  0
  7  6  1  0
  8  7  2  0
  9  8  1  0
 10  9  2  0
 10 11  1  0
 11 12  2  0
 12  7  1  0
 12  4  1  0
 13 14  2  0
 16 15  1  1
 17 16  1  0
 18 16  1  0
 18 19  1  1
 19 13  1  0
 20 18  1  0
 21 20  2  0
 22 23  1  0
 23 25  1  0
 23 24  2  0
 25 26  1  0
 27 26  1  0
 27 28  1  0
 29 28  1  6
 29 30  1  0
 30 20  1  0
 31 29  1  0
 31 32  1  0
 33 31  2  0
M  END
$$$$
