WVR.pdb
     RDKit          3D

 33 34  0  0  1  0  0  0  0  0999 V2000
    9.2193  -15.1530   24.3415 N   0  0  0  0  0  0  0  0  0  0  0  0
    8.2101  -16.1329   23.9119 C   0  0  1  0  0  0  0  0  0  0  0  0
    6.9547  -15.7566   24.7087 C   0  0  0  0  0  0  0  0  0  0  0  0
    7.4110  -14.9825   25.8838 C   0  0  0  0  0  0  0  0  0  0  0  0
    8.1897  -15.4497   26.9315 C   0  0  0  0  0  0  0  0  0  0  0  0
    8.3970  -14.4602   27.8151 N   0  0  0  0  0  0  0  0  0  0  0  0
    7.7840  -13.3457   27.3955 C   0  0  0  0  0  0  0  0  0  0  0  0
    7.6671  -12.0683   27.8921 C   0  0  0  0  0  0  0  0  0  0  0  0
    6.9433  -11.1182   27.1966 C   0  0  0  0  0  0  0  0  0  0  0  0
    6.3174  -11.4030   25.9958 C   0  0  0  0  0  0  0  0  0  0  0  0
    6.4430  -12.6997   25.5034 C   0  0  0  0  0  0  0  0  0  0  0  0
    7.1612  -13.6588   26.1846 C   0  0  0  0  0  0  0  0  0  0  0  0
    7.9644  -16.0205   22.4593 C   0  0  0  0  0  0  0  0  0  0  0  0
    7.1185  -16.7948   21.9443 O   0  0  0  0  0  0  0  0  0  0  0  0
    7.1725  -12.8972   20.6174 C   0  0  0  0  0  0  0  0  0  0  0  0
    8.2471  -13.5703   19.8322 C   0  0  2  0  0  0  0  0  0  0  0  0
    8.1172  -13.3381   18.3440 C   0  0  0  0  0  0  0  0  0  0  0  0
    8.4467  -15.0172   20.1871 C   0  0  2  0  0  0  0  0  0  0  0  0
    8.6488  -15.0778   21.6558 N   0  0  0  0  0  0  0  0  0  0  0  0
    9.5770  -15.6855   19.5572 C   0  0  0  0  0  0  0  0  0  0  0  0
   10.7569  -15.2769   19.8817 O   0  0  0  0  0  0  0  0  0  0  0  0
    7.0110  -22.1441   19.1246 N   0  0  0  0  0  0  0  0  0  0  0  0
    7.8070  -21.6625   20.1939 C   0  0  0  0  0  0  0  0  0  0  0  0
    7.6867  -22.1137   21.4179 N   0  0  0  0  0  0  0  0  0  0  0  0
    8.7979  -20.6485   20.0107 N   0  0  0  0  0  0  0  0  0  0  0  0
    9.7548  -20.7588   18.9596 C   0  0  0  0  0  0  0  0  0  0  0  0
   10.6752  -19.5785   18.8415 C   0  0  0  0  0  0  0  0  0  0  0  0
   10.4543  -18.7604   17.6029 C   0  0  0  0  0  0  0  0  0  0  0  0
   10.6691  -17.2977   18.0091 C   0  0  2  0  0  0  0  0  0  0  0  0
    9.4585  -16.7523   18.6165 N   0  0  0  0  0  0  0  0  0  0  0  0
   11.0886  -16.4693   16.8614 C   0  0  0  0  0  0  0  0  0  0  0  0
   12.4385  -16.1307   16.7315 O   0  0  0  0  0  0  0  0  0  0  0  0
   10.2814  -16.0664   16.0126 O   0  0  0  0  0  0  0  0  0  0  0  0
  2  1  1  1
  2 13  1  0
  2  3  1  0
  4  3  1  0
  4  5  2  0
  6  5  1  0
  7  6  1  0
  8  7  2  0
  9  8  1  0
 10  9  2  0
 10 11  1  0
 11 12  2  0
 12  7  1  0
 12  4  1  0
 13 14  2  0
 16 15  1  1
 17 16  1  0
 18 16  1  0
 18 19  1  1
 19 13  1  0
 20 18  1  0
 21 20  2  0
 22 23  1  0
 23 25  1  0
 23 24  2  0
 25 26  1  0
 27 26  1  0
 27 28  1  0
 29 28  1  6
 29 30  1  0
 30 20  1  0
 31 29  1  0
 31 32  1  0
 33 31  2  0
M  END
$$$$
