WVR.pdb
     RDKit          3D

 33 34  0  0  1  0  0  0  0  0999 V2000
    6.2353  -18.2383   24.5327 N   0  0  0  0  0  0  0  0  0  0  0  0
    6.6897  -16.8637   24.2731 C   0  0  1  0  0  0  0  0  0  0  0  0
    7.2932  -16.4069   25.6071 C   0  0  0  0  0  0  0  0  0  0  0  0
    6.6572  -15.1142   25.9429 C   0  0  0  0  0  0  0  0  0  0  0  0
    5.3025  -14.8798   26.1224 C   0  0  0  0  0  0  0  0  0  0  0  0
    5.1040  -13.5840   26.4128 N   0  0  0  0  0  0  0  0  0  0  0  0
    6.2791  -12.9418   26.4341 C   0  0  0  0  0  0  0  0  0  0  0  0
    6.6592  -11.6412   26.6706 C   0  0  0  0  0  0  0  0  0  0  0  0
    7.9946  -11.2889   26.6166 C   0  0  0  0  0  0  0  0  0  0  0  0
    8.9875  -12.2086   26.3285 C   0  0  0  0  0  0  0  0  0  0  0  0
    8.5902  -13.5221   26.0910 C   0  0  0  0  0  0  0  0  0  0  0  0
    7.2628  -13.8898   26.1410 C   0  0  0  0  0  0  0  0  0  0  0  0
    7.7079  -16.8482   23.2025 C   0  0  0  0  0  0  0  0  0  0  0  0
    8.3058  -17.9234   22.9440 O   0  0  0  0  0  0  0  0  0  0  0  0
    8.4760  -13.2423   20.9435 C   0  0  0  0  0  0  0  0  0  0  0  0
    8.3088  -14.6010   20.3515 C   0  0  2  0  0  0  0  0  0  0  0  0
    6.9112  -14.8435   19.8287 C   0  0  0  0  0  0  0  0  0  0  0  0
    8.8110  -15.7142   21.2279 C   0  0  2  0  0  0  0  0  0  0  0  0
    8.0148  -15.6712   22.4793 N   0  0  0  0  0  0  0  0  0  0  0  0
   10.2186  -15.6588   21.5973 C   0  0  0  0  0  0  0  0  0  0  0  0
   11.0768  -15.9971   20.6953 O   0  0  0  0  0  0  0  0  0  0  0  0
   11.1870  -18.9641   29.0195 N   0  0  0  0  0  0  0  0  0  0  0  0
   11.9816  -17.8793   28.5712 C   0  0  0  0  0  0  0  0  0  0  0  0
   12.6025  -17.0746   29.3976 N   0  0  0  0  0  0  0  0  0  0  0  0
   12.1603  -17.5871   27.1832 N   0  0  0  0  0  0  0  0  0  0  0  0
   11.7720  -18.5356   26.1922 C   0  0  0  0  0  0  0  0  0  0  0  0
   12.1241  -18.1354   24.7886 C   0  0  0  0  0  0  0  0  0  0  0  0
   11.0390  -17.3729   24.0865 C   0  0  0  0  0  0  0  0  0  0  0  0
   11.6883  -16.0885   23.5579 C   0  0  2  0  0  0  0  0  0  0  0  0
   10.6986  -15.2564   22.8797 N   0  0  0  0  0  0  0  0  0  0  0  0
   12.8205  -16.3811   22.6567 C   0  0  0  0  0  0  0  0  0  0  0  0
   12.5630  -16.9935   21.4269 O   0  0  0  0  0  0  0  0  0  0  0  0
   13.9888  -16.1007   22.9578 O   0  0  0  0  0  0  0  0  0  0  0  0
  2  1  1  1
  2 13  1  0
  2  3  1  0
  4  3  1  0
  4  5  2  0
  6  5  1  0
  7  6  1  0
  8  7  2  0
  9  8  1  0
 10  9  2  0
 10 11  1  0
 11 12  2  0
 12  7  1  0
 12  4  1  0
 13 14  2  0
 16 15  1  1
 17 16  1  0
 18 16  1  0
 18 19  1  1
 19 13  1  0
 20 18  1  0
 21 20  2  0
 22 23  1  0
 23 25  1  0
 23 24  2  0
 25 26  1  0
 27 26  1  0
 27 28  1  0
 29 28  1  6
 29 30  1  0
 30 20  1  0
 31 29  1  0
 31 32  1  0
 33 31  2  0
M  END
$$$$
