WVR.pdb
     RDKit          3D

 33 34  0  0  1  0  0  0  0  0999 V2000
    9.7866  -15.3894   22.0048 N   0  0  0  0  0  0  0  0  0  0  0  0
    8.9872  -14.8814   23.1301 C   0  0  1  0  0  0  0  0  0  0  0  0
    7.6602  -15.6435   23.0254 C   0  0  0  0  0  0  0  0  0  0  0  0
    7.0508  -15.2639   21.7320 C   0  0  0  0  0  0  0  0  0  0  0  0
    6.0478  -15.9439   21.0581 C   0  0  0  0  0  0  0  0  0  0  0  0
    5.7562  -15.3007   19.9161 N   0  0  0  0  0  0  0  0  0  0  0  0
    6.5293  -14.2130   19.8015 C   0  0  0  0  0  0  0  0  0  0  0  0
    6.6534  -13.2171   18.8608 C   0  0  0  0  0  0  0  0  0  0  0  0
    7.5746  -12.2029   19.0430 C   0  0  0  0  0  0  0  0  0  0  0  0
    8.3954  -12.1450   20.1555 C   0  0  0  0  0  0  0  0  0  0  0  0
    8.2603  -13.1588   21.1008 C   0  0  0  0  0  0  0  0  0  0  0  0
    7.3467  -14.1773   20.9341 C   0  0  0  0  0  0  0  0  0  0  0  0
    9.6590  -15.1689   24.4142 C   0  0  0  0  0  0  0  0  0  0  0  0
   10.6747  -15.9094   24.3937 O   0  0  0  0  0  0  0  0  0  0  0  0
    8.0181  -14.0254   28.3401 C   0  0  0  0  0  0  0  0  0  0  0  0
    9.4304  -13.8508   27.8936 C   0  0  2  0  0  0  0  0  0  0  0  0
    9.7298  -12.4409   27.4376 C   0  0  0  0  0  0  0  0  0  0  0  0
    9.8954  -14.8962   26.9186 C   0  0  2  0  0  0  0  0  0  0  0  0
    9.1899  -14.6375   25.6391 N   0  0  0  0  0  0  0  0  0  0  0  0
    9.6437  -16.2816   27.2900 C   0  0  0  0  0  0  0  0  0  0  0  0
    8.4114  -16.6416   27.4173 O   0  0  0  0  0  0  0  0  0  0  0  0
   13.7230  -21.1922   22.8843 N   0  0  0  0  0  0  0  0  0  0  0  0
   12.5927  -20.3990   22.5643 C   0  0  0  0  0  0  0  0  0  0  0  0
   12.1139  -20.3167   21.3478 N   0  0  0  0  0  0  0  0  0  0  0  0
   11.8959  -19.6317   23.5489 N   0  0  0  0  0  0  0  0  0  0  0  0
   11.7515  -20.1271   24.8779 C   0  0  0  0  0  0  0  0  0  0  0  0
   11.0458  -19.1855   25.8104 C   0  0  0  0  0  0  0  0  0  0  0  0
   10.9775  -19.6749   27.2274 C   0  0  0  0  0  0  0  0  0  0  0  0
   10.2917  -18.5655   28.0334 C   0  0  2  0  0  0  0  0  0  0  0  0
   10.6654  -17.2520   27.5168 N   0  0  0  0  0  0  0  0  0  0  0  0
   10.6072  -18.6626   29.4723 C   0  0  0  0  0  0  0  0  0  0  0  0
   10.2252  -19.8116   30.1706 O   0  0  0  0  0  0  0  0  0  0  0  0
   11.1989  -17.7581   30.0772 O   0  0  0  0  0  0  0  0  0  0  0  0
  2  1  1  6
  2 13  1  0
  2  3  1  0
  4  3  1  0
  4  5  2  0
  6  5  1  0
  7  6  1  0
  8  7  2  0
  9  8  1  0
 10  9  2  0
 10 11  1  0
 11 12  2  0
 12  7  1  0
 12  4  1  0
 13 14  2  0
 16 15  1  6
 17 16  1  0
 18 16  1  0
 18 19  1  6
 19 13  1  0
 20 18  1  0
 21 20  2  0
 22 23  1  0
 23 25  1  0
 23 24  2  0
 25 26  1  0
 27 26  1  0
 27 28  1  0
 29 28  1  6
 29 30  1  0
 30 20  1  0
 31 29  1  0
 31 32  1  0
 33 31  2  0
M  END
$$$$
