WVR.pdb
     RDKit          3D

 33 34  0  0  1  0  0  0  0  0999 V2000
    7.4311  -18.7987   20.1624 N   0  0  0  0  0  0  0  0  0  0  0  0
    7.6653  -17.4409   20.6769 C   0  0  1  0  0  0  0  0  0  0  0  0
    6.6526  -16.5707   19.9220 C   0  0  0  0  0  0  0  0  0  0  0  0
    7.2075  -15.1998   19.8905 C   0  0  0  0  0  0  0  0  0  0  0  0
    7.8935  -14.6082   18.8408 C   0  0  0  0  0  0  0  0  0  0  0  0
    8.2456  -13.3578   19.1805 N   0  0  0  0  0  0  0  0  0  0  0  0
    7.8191  -13.0910   20.4217 C   0  0  0  0  0  0  0  0  0  0  0  0
    7.8986  -11.9961   21.2505 C   0  0  0  0  0  0  0  0  0  0  0  0
    7.3381  -12.0407   22.5131 C   0  0  0  0  0  0  0  0  0  0  0  0
    6.6861  -13.1643   22.9899 C   0  0  0  0  0  0  0  0  0  0  0  0
    6.6122  -14.2664   22.1415 C   0  0  0  0  0  0  0  0  0  0  0  0
    7.1659  -14.2381   20.8796 C   0  0  0  0  0  0  0  0  0  0  0  0
    7.4206  -17.3893   22.1331 C   0  0  0  0  0  0  0  0  0  0  0  0
    6.2316  -17.2786   22.5261 O   0  0  0  0  0  0  0  0  0  0  0  0
    6.8991  -18.7191   26.2514 C   0  0  0  0  0  0  0  0  0  0  0  0
    7.3506  -18.6408   24.8321 C   0  0  2  0  0  0  0  0  0  0  0  0
    7.9359  -19.9419   24.3317 C   0  0  0  0  0  0  0  0  0  0  0  0
    8.2192  -17.4510   24.5332 C   0  0  2  0  0  0  0  0  0  0  0  0
    8.4770  -17.4608   23.0720 N   0  0  0  0  0  0  0  0  0  0  0  0
    9.5083  -17.4078   25.2094 C   0  0  0  0  0  0  0  0  0  0  0  0
   10.4868  -18.0357   24.6503 O   0  0  0  0  0  0  0  0  0  0  0  0
    7.2319  -13.4507   28.8048 N   0  0  0  0  0  0  0  0  0  0  0  0
    7.7793  -13.1022   27.5446 C   0  0  0  0  0  0  0  0  0  0  0  0
    7.0313  -12.7760   26.5198 N   0  0  0  0  0  0  0  0  0  0  0  0
    9.1883  -13.0833   27.3039 N   0  0  0  0  0  0  0  0  0  0  0  0
   10.0982  -13.4886   28.3239 C   0  0  0  0  0  0  0  0  0  0  0  0
   10.2873  -14.9747   28.4222 C   0  0  0  0  0  0  0  0  0  0  0  0
   11.4824  -15.4838   27.6709 C   0  0  0  0  0  0  0  0  0  0  0  0
   11.0665  -16.8270   27.0596 C   0  0  2  0  0  0  0  0  0  0  0  0
    9.7505  -16.7199   26.4362 N   0  0  0  0  0  0  0  0  0  0  0  0
   11.0747  -17.9089   28.0642 C   0  0  0  0  0  0  0  0  0  0  0  0
    9.8729  -18.5526   28.3721 O   0  0  0  0  0  0  0  0  0  0  0  0
   12.1128  -18.2618   28.6405 O   0  0  0  0  0  0  0  0  0  0  0  0
  2  1  1  6
  2 13  1  0
  2  3  1  0
  4  3  1  0
  4  5  2  0
  6  5  1  0
  7  6  1  0
  8  7  2  0
  9  8  1  0
 10  9  2  0
 10 11  1  0
 11 12  2  0
 12  7  1  0
 12  4  1  0
 13 14  2  0
 16 15  1  1
 17 16  1  0
 18 16  1  0
 18 19  1  6
 19 13  1  0
 20 18  1  0
 21 20  2  0
 22 23  1  0
 23 25  1  0
 23 24  2  0
 25 26  1  0
 27 26  1  0
 27 28  1  0
 29 28  1  1
 29 30  1  0
 30 20  1  0
 31 29  1  0
 31 32  1  0
 33 31  2  0
M  END
$$$$
