WVR.pdb
     RDKit          3D

 33 34  0  0  1  0  0  0  0  0999 V2000
    6.1814  -17.6400   23.7279 N   0  0  0  0  0  0  0  0  0  0  0  0
    6.7799  -16.2997   23.6332 C   0  0  1  0  0  0  0  0  0  0  0  0
    7.6678  -16.1935   24.8794 C   0  0  0  0  0  0  0  0  0  0  0  0
    6.9228  -15.3814   25.8664 C   0  0  0  0  0  0  0  0  0  0  0  0
    6.0400  -15.8506   26.8271 C   0  0  0  0  0  0  0  0  0  0  0  0
    5.5555  -14.8185   27.5362 N   0  0  0  0  0  0  0  0  0  0  0  0
    6.0832  -13.6737   27.0838 C   0  0  0  0  0  0  0  0  0  0  0  0
    5.9467  -12.3496   27.4305 C   0  0  0  0  0  0  0  0  0  0  0  0
    6.6532  -11.3780   26.7470 C   0  0  0  0  0  0  0  0  0  0  0  0
    7.5109  -11.6869   25.7059 C   0  0  0  0  0  0  0  0  0  0  0  0
    7.6407  -13.0308   25.3643 C   0  0  0  0  0  0  0  0  0  0  0  0
    6.9433  -14.0118   26.0358 C   0  0  0  0  0  0  0  0  0  0  0  0
    7.5862  -16.1783   22.4011 C   0  0  0  0  0  0  0  0  0  0  0  0
    7.9811  -17.2369   21.8500 O   0  0  0  0  0  0  0  0  0  0  0  0
    7.1216  -12.9458   19.8628 C   0  0  0  0  0  0  0  0  0  0  0  0
    8.5272  -13.3807   20.1067 C   0  0  2  0  0  0  0  0  0  0  0  0
    9.4522  -13.0403   18.9604 C   0  0  0  0  0  0  0  0  0  0  0  0
    8.6538  -14.8078   20.5615 C   0  0  2  0  0  0  0  0  0  0  0  0
    7.9141  -14.9199   21.8429 N   0  0  0  0  0  0  0  0  0  0  0  0
   10.0076  -15.2944   20.7883 C   0  0  0  0  0  0  0  0  0  0  0  0
   10.5856  -14.9350   21.8843 O   0  0  0  0  0  0  0  0  0  0  0  0
   14.6169  -15.3693   16.3296 N   0  0  0  0  0  0  0  0  0  0  0  0
   13.8988  -15.9965   15.2808 C   0  0  0  0  0  0  0  0  0  0  0  0
   13.8976  -15.5336   14.0553 N   0  0  0  0  0  0  0  0  0  0  0  0
   13.1237  -17.1797   15.4882 N   0  0  0  0  0  0  0  0  0  0  0  0
   13.0976  -17.8079   16.7678 C   0  0  0  0  0  0  0  0  0  0  0  0
   12.5626  -16.9374   17.8678 C   0  0  0  0  0  0  0  0  0  0  0  0
   12.5980  -17.5832   19.2220 C   0  0  0  0  0  0  0  0  0  0  0  0
   12.0883  -16.5311   20.2140 C   0  0  2  0  0  0  0  0  0  0  0  0
   10.7223  -16.1353   19.8833 N   0  0  0  0  0  0  0  0  0  0  0  0
   12.9717  -15.3489   20.2566 C   0  0  0  0  0  0  0  0  0  0  0  0
   14.1876  -15.4397   20.9400 O   0  0  0  0  0  0  0  0  0  0  0  0
   12.6676  -14.2819   19.7059 O   0  0  0  0  0  0  0  0  0  0  0  0
  2  1  1  6
  2 13  1  0
  2  3  1  0
  4  3  1  0
  4  5  2  0
  6  5  1  0
  7  6  1  0
  8  7  2  0
  9  8  1  0
 10  9  2  0
 10 11  1  0
 11 12  2  0
 12  7  1  0
 12  4  1  0
 13 14  2  0
 16 15  1  6
 17 16  1  0
 18 16  1  0
 18 19  1  1
 19 13  1  0
 20 18  1  0
 21 20  2  0
 22 23  1  0
 23 25  1  0
 23 24  2  0
 25 26  1  0
 27 26  1  0
 27 28  1  0
 29 28  1  6
 29 30  1  0
 30 20  1  0
 31 29  1  0
 31 32  1  0
 33 31  2  0
M  END
$$$$
