WVR.pdb
     RDKit          3D

 33 34  0  0  1  0  0  0  0  0999 V2000
    5.8400  -17.8566   24.1489 N   0  0  0  0  0  0  0  0  0  0  0  0
    6.3766  -16.5150   23.8744 C   0  0  1  0  0  0  0  0  0  0  0  0
    7.2441  -16.1971   25.0989 C   0  0  0  0  0  0  0  0  0  0  0  0
    6.6145  -15.0450   25.7805 C   0  0  0  0  0  0  0  0  0  0  0  0
    5.3287  -14.9897   26.2964 C   0  0  0  0  0  0  0  0  0  0  0  0
    5.1116  -13.7798   26.8366 N   0  0  0  0  0  0  0  0  0  0  0  0
    6.2077  -13.0223   26.7007 C   0  0  0  0  0  0  0  0  0  0  0  0
    6.5376  -11.7362   27.0600 C   0  0  0  0  0  0  0  0  0  0  0  0
    7.7919  -11.2351   26.7672 C   0  0  0  0  0  0  0  0  0  0  0  0
    8.7513  -11.9882   26.1136 C   0  0  0  0  0  0  0  0  0  0  0  0
    8.4055  -13.2887   25.7550 C   0  0  0  0  0  0  0  0  0  0  0  0
    7.1590  -13.8035   26.0396 C   0  0  0  0  0  0  0  0  0  0  0  0
    7.1907  -16.5250   22.6415 C   0  0  0  0  0  0  0  0  0  0  0  0
    7.7080  -17.6146   22.2872 O   0  0  0  0  0  0  0  0  0  0  0  0
    8.7969  -13.8686   18.7053 C   0  0  0  0  0  0  0  0  0  0  0  0
    8.0668  -14.0141   19.9977 C   0  0  2  0  0  0  0  0  0  0  0  0
    8.3893  -12.9104   20.9793 C   0  0  0  0  0  0  0  0  0  0  0  0
    8.1644  -15.3868   20.6023 C   0  0  2  0  0  0  0  0  0  0  0  0
    7.3937  -15.3562   21.8698 N   0  0  0  0  0  0  0  0  0  0  0  0
    9.5062  -15.8609   20.9119 C   0  0  0  0  0  0  0  0  0  0  0  0
   10.0095  -15.5027   22.0445 O   0  0  0  0  0  0  0  0  0  0  0  0
   10.3293  -17.7242   15.5165 N   0  0  0  0  0  0  0  0  0  0  0  0
   11.6618  -17.5775   15.0561 C   0  0  0  0  0  0  0  0  0  0  0  0
   11.9489  -17.0459   13.8937 N   0  0  0  0  0  0  0  0  0  0  0  0
   12.7870  -18.0009   15.8295 N   0  0  0  0  0  0  0  0  0  0  0  0
   12.5970  -18.5885   17.1146 C   0  0  0  0  0  0  0  0  0  0  0  0
   12.2150  -17.6091   18.1864 C   0  0  0  0  0  0  0  0  0  0  0  0
   12.1578  -18.2082   19.5612 C   0  0  0  0  0  0  0  0  0  0  0  0
   11.6130  -17.1131   20.4857 C   0  0  2  0  0  0  0  0  0  0  0  0
   10.2860  -16.6883   20.0492 N   0  0  0  0  0  0  0  0  0  0  0  0
   12.5271  -15.9560   20.5576 C   0  0  0  0  0  0  0  0  0  0  0  0
   13.5224  -15.9426   21.5389 O   0  0  0  0  0  0  0  0  0  0  0  0
   12.4381  -14.9993   19.7759 O   0  0  0  0  0  0  0  0  0  0  0  0
  2  1  1  1
  2 13  1  0
  2  3  1  0
  4  3  1  0
  4  5  2  0
  6  5  1  0
  7  6  1  0
  8  7  2  0
  9  8  1  0
 10  9  2  0
 10 11  1  0
 11 12  2  0
 12  7  1  0
 12  4  1  0
 13 14  2  0
 16 15  1  6
 17 16  1  0
 18 16  1  0
 18 19  1  1
 19 13  1  0
 20 18  1  0
 21 20  2  0
 22 23  1  0
 23 25  1  0
 23 24  2  0
 25 26  1  0
 27 26  1  0
 27 28  1  0
 29 28  1  6
 29 30  1  0
 30 20  1  0
 31 29  1  0
 31 32  1  0
 33 31  2  0
M  END
$$$$
