WVR.pdb
     RDKit          3D

 33 34  0  0  1  0  0  0  0  0999 V2000
    6.3406  -17.7643   24.5141 N   0  0  0  0  0  0  0  0  0  0  0  0
    6.7334  -16.3890   24.1711 C   0  0  1  0  0  0  0  0  0  0  0  0
    7.5472  -15.9153   25.3818 C   0  0  0  0  0  0  0  0  0  0  0  0
    6.7053  -14.9381   26.1062 C   0  0  0  0  0  0  0  0  0  0  0  0
    5.5308  -15.2057   26.7929 C   0  0  0  0  0  0  0  0  0  0  0  0
    5.0472  -14.0687   27.3183 N   0  0  0  0  0  0  0  0  0  0  0  0
    5.8571  -13.0483   27.0076 C   0  0  0  0  0  0  0  0  0  0  0  0
    5.8495  -11.6992   27.2759 C   0  0  0  0  0  0  0  0  0  0  0  0
    6.8634  -10.8916   26.7962 C   0  0  0  0  0  0  0  0  0  0  0  0
    7.9090  -11.3930   26.0411 C   0  0  0  0  0  0  0  0  0  0  0  0
    7.9057  -12.7603   25.7761 C   0  0  0  0  0  0  0  0  0  0  0  0
    6.9020  -13.5793   26.2470 C   0  0  0  0  0  0  0  0  0  0  0  0
    7.5584  -16.3764   22.9454 C   0  0  0  0  0  0  0  0  0  0  0  0
    8.1324  -17.4439   22.6119 O   0  0  0  0  0  0  0  0  0  0  0  0
    6.7485  -13.6433   19.9172 C   0  0  0  0  0  0  0  0  0  0  0  0
    8.1885  -13.9139   20.1959 C   0  0  2  0  0  0  0  0  0  0  0  0
    9.0712  -13.6836   18.9903 C   0  0  0  0  0  0  0  0  0  0  0  0
    8.4420  -15.2346   20.8675 C   0  0  2  0  0  0  0  0  0  0  0  0
    7.7101  -15.2103   22.1580 N   0  0  0  0  0  0  0  0  0  0  0  0
    9.8333  -15.5554   21.1542 C   0  0  0  0  0  0  0  0  0  0  0  0
   10.4620  -14.7733   21.9650 O   0  0  0  0  0  0  0  0  0  0  0  0
   13.9683  -22.0668   23.7099 N   0  0  0  0  0  0  0  0  0  0  0  0
   12.7639  -22.4036   23.0429 C   0  0  0  0  0  0  0  0  0  0  0  0
   12.3782  -23.6439   22.8728 N   0  0  0  0  0  0  0  0  0  0  0  0
   11.8851  -21.4112   22.5077 N   0  0  0  0  0  0  0  0  0  0  0  0
   12.3172  -20.5649   21.4448 C   0  0  0  0  0  0  0  0  0  0  0  0
   12.0479  -19.1058   21.6741 C   0  0  0  0  0  0  0  0  0  0  0  0
   12.4322  -18.2304   20.5174 C   0  0  0  0  0  0  0  0  0  0  0  0
   11.9595  -16.8158   20.8725 C   0  0  2  0  0  0  0  0  0  0  0  0
   10.5325  -16.6696   20.6003 N   0  0  0  0  0  0  0  0  0  0  0  0
   12.7307  -15.7856   20.1488 C   0  0  0  0  0  0  0  0  0  0  0  0
   13.7800  -15.1403   20.8093 O   0  0  0  0  0  0  0  0  0  0  0  0
   12.4757  -15.4774   18.9766 O   0  0  0  0  0  0  0  0  0  0  0  0
  2  1  1  1
  2 13  1  0
  2  3  1  0
  4  3  1  0
  4  5  2  0
  6  5  1  0
  7  6  1  0
  8  7  2  0
  9  8  1  0
 10  9  2  0
 10 11  1  0
 11 12  2  0
 12  7  1  0
 12  4  1  0
 13 14  2  0
 16 15  1  6
 17 16  1  0
 18 16  1  0
 18 19  1  1
 19 13  1  0
 20 18  1  0
 21 20  2  0
 22 23  1  0
 23 25  1  0
 23 24  2  0
 25 26  1  0
 27 26  1  0
 27 28  1  0
 29 28  1  6
 29 30  1  0
 30 20  1  0
 31 29  1  0
 31 32  1  0
 33 31  2  0
M  END
$$$$
