WVR.pdb
     RDKit          3D

 33 34  0  0  1  0  0  0  0  0999 V2000
    5.7251  -17.6178   24.3853 N   0  0  0  0  0  0  0  0  0  0  0  0
    6.3451  -16.3261   24.0530 C   0  0  1  0  0  0  0  0  0  0  0  0
    7.1917  -15.9850   25.2858 C   0  0  0  0  0  0  0  0  0  0  0  0
    6.5235  -14.8516   25.9621 C   0  0  0  0  0  0  0  0  0  0  0  0
    5.2462  -14.8457   26.5014 C   0  0  0  0  0  0  0  0  0  0  0  0
    4.9849  -13.6384   27.0277 N   0  0  0  0  0  0  0  0  0  0  0  0
    6.0432  -12.8350   26.8598 C   0  0  0  0  0  0  0  0  0  0  0  0
    6.3215  -11.5300   27.1938 C   0  0  0  0  0  0  0  0  0  0  0  0
    7.5465  -10.9780   26.8699 C   0  0  0  0  0  0  0  0  0  0  0  0
    8.5267  -11.6977   26.2095 C   0  0  0  0  0  0  0  0  0  0  0  0
    8.2332  -13.0178   25.8767 C   0  0  0  0  0  0  0  0  0  0  0  0
    7.0164  -13.5832   26.1924 C   0  0  0  0  0  0  0  0  0  0  0  0
    7.1943  -16.4531   22.8507 C   0  0  0  0  0  0  0  0  0  0  0  0
    7.5296  -17.6089   22.4870 O   0  0  0  0  0  0  0  0  0  0  0  0
    9.0266  -13.0368   20.7330 C   0  0  0  0  0  0  0  0  0  0  0  0
    8.2606  -14.1585   20.1170 C   0  0  2  0  0  0  0  0  0  0  0  0
    6.8261  -13.7902   19.8137 C   0  0  0  0  0  0  0  0  0  0  0  0
    8.3906  -15.4626   20.8532 C   0  0  2  0  0  0  0  0  0  0  0  0
    7.6270  -15.3225   22.1177 N   0  0  0  0  0  0  0  0  0  0  0  0
    9.7438  -15.8765   21.1973 C   0  0  0  0  0  0  0  0  0  0  0  0
   10.3332  -15.2299   22.1455 O   0  0  0  0  0  0  0  0  0  0  0  0
   13.9698  -21.6328   19.6859 N   0  0  0  0  0  0  0  0  0  0  0  0
   12.6470  -22.1403   19.7278 C   0  0  0  0  0  0  0  0  0  0  0  0
   12.3240  -23.3026   19.2172 N   0  0  0  0  0  0  0  0  0  0  0  0
   11.5713  -21.4171   20.3307 N   0  0  0  0  0  0  0  0  0  0  0  0
   11.6838  -20.9444   21.6710 C   0  0  0  0  0  0  0  0  0  0  0  0
   11.5414  -19.4564   21.8108 C   0  0  0  0  0  0  0  0  0  0  0  0
   12.1814  -18.6800   20.6974 C   0  0  0  0  0  0  0  0  0  0  0  0
   11.8297  -17.2078   20.9417 C   0  0  2  0  0  0  0  0  0  0  0  0
   10.4463  -16.9416   20.5578 N   0  0  0  0  0  0  0  0  0  0  0  0
   12.7476  -16.3016   20.2233 C   0  0  0  0  0  0  0  0  0  0  0  0
   13.8410  -15.7659   20.9099 O   0  0  0  0  0  0  0  0  0  0  0  0
   12.5776  -16.0030   19.0333 O   0  0  0  0  0  0  0  0  0  0  0  0
  2  1  1  1
  2 13  1  0
  2  3  1  0
  4  3  1  0
  4  5  2  0
  6  5  1  0
  7  6  1  0
  8  7  2  0
  9  8  1  0
 10  9  2  0
 10 11  1  0
 11 12  2  0
 12  7  1  0
 12  4  1  0
 13 14  2  0
 16 15  1  1
 17 16  1  0
 18 16  1  0
 18 19  1  1
 19 13  1  0
 20 18  1  0
 21 20  2  0
 22 23  1  0
 23 25  1  0
 23 24  2  0
 25 26  1  0
 27 26  1  0
 27 28  1  0
 29 28  1  6
 29 30  1  0
 30 20  1  0
 31 29  1  0
 31 32  1  0
 33 31  2  0
M  END
$$$$
