WVR.pdb
     RDKit          3D

 33 34  0  0  1  0  0  0  0  0999 V2000
    8.9960  -16.7171   25.4703 N   0  0  0  0  0  0  0  0  0  0  0  0
    8.8720  -17.0036   24.0330 C   0  0  1  0  0  0  0  0  0  0  0  0
    8.3629  -15.6892   23.4282 C   0  0  0  0  0  0  0  0  0  0  0  0
    7.4034  -15.1165   24.3977 C   0  0  0  0  0  0  0  0  0  0  0  0
    6.3306  -15.7696   24.9851 C   0  0  0  0  0  0  0  0  0  0  0  0
    5.6854  -14.9267   25.8074 N   0  0  0  0  0  0  0  0  0  0  0  0
    6.2891  -13.7312   25.7915 C   0  0  0  0  0  0  0  0  0  0  0  0
    6.0619  -12.5316   26.4250 C   0  0  0  0  0  0  0  0  0  0  0  0
    6.8942  -11.4541   26.1872 C   0  0  0  0  0  0  0  0  0  0  0  0
    7.9699  -11.5319   25.3202 C   0  0  0  0  0  0  0  0  0  0  0  0
    8.1896  -12.7517   24.6850 C   0  0  0  0  0  0  0  0  0  0  0  0
    7.3690  -13.8358   24.9110 C   0  0  0  0  0  0  0  0  0  0  0  0
   10.1846  -17.3711   23.4629 C   0  0  0  0  0  0  0  0  0  0  0  0
   11.1707  -16.6420   23.7392 O   0  0  0  0  0  0  0  0  0  0  0  0
   11.1278  -21.2397   22.5015 C   0  0  0  0  0  0  0  0  0  0  0  0
   11.5497  -20.2353   21.4830 C   0  0  2  0  0  0  0  0  0  0  0  0
   12.7716  -20.6684   20.7052 C   0  0  0  0  0  0  0  0  0  0  0  0
   11.6575  -18.8340   22.0163 C   0  0  2  0  0  0  0  0  0  0  0  0
   10.3477  -18.5038   22.6303 N   0  0  0  0  0  0  0  0  0  0  0  0
   11.9638  -17.7954   21.0425 C   0  0  0  0  0  0  0  0  0  0  0  0
   11.2592  -17.7763   19.9620 O   0  0  0  0  0  0  0  0  0  0  0  0
    7.4758  -12.3966   20.7689 N   0  0  0  0  0  0  0  0  0  0  0  0
    7.9789  -12.8140   19.5113 C   0  0  0  0  0  0  0  0  0  0  0  0
    7.5761  -12.2847   18.3827 N   0  0  0  0  0  0  0  0  0  0  0  0
    8.9623  -13.8442   19.3869 N   0  0  0  0  0  0  0  0  0  0  0  0
   10.2850  -13.6396   19.8779 C   0  0  0  0  0  0  0  0  0  0  0  0
   11.1909  -14.8254   19.7129 C   0  0  0  0  0  0  0  0  0  0  0  0
   12.5863  -14.5956   20.2150 C   0  0  0  0  0  0  0  0  0  0  0  0
   13.3160  -15.9380   20.0884 C   0  0  2  0  0  0  0  0  0  0  0  0
   12.9822  -16.8098   21.2111 N   0  0  0  0  0  0  0  0  0  0  0  0
   14.7781  -15.7569   19.9931 C   0  0  0  0  0  0  0  0  0  0  0  0
   15.3068  -15.1190   18.8673 O   0  0  0  0  0  0  0  0  0  0  0  0
   15.5478  -16.1526   20.8792 O   0  0  0  0  0  0  0  0  0  0  0  0
  2  1  1  1
  2 13  1  0
  2  3  1  0
  4  3  1  0
  4  5  2  0
  6  5  1  0
  7  6  1  0
  8  7  2  0
  9  8  1  0
 10  9  2  0
 10 11  1  0
 11 12  2  0
 12  7  1  0
 12  4  1  0
 13 14  2  0
 16 15  1  1
 17 16  1  0
 18 16  1  0
 18 19  1  6
 19 13  1  0
 20 18  1  0
 21 20  2  0
 22 23  1  0
 23 25  1  0
 23 24  2  0
 25 26  1  0
 27 26  1  0
 27 28  1  0
 29 28  1  1
 29 30  1  0
 30 20  1  0
 31 29  1  0
 31 32  1  0
 33 31  2  0
M  END
$$$$
