NYG.pdb
     RDKit          3D

 25 25  0  0  1  0  0  0  0  0999 V2000
   25.2253  -16.8755  -19.8679 N   0  0  0  0  0  0  0  0  0  0  0  0
   26.0214  -18.0356  -19.7682 C   0  0  0  0  0  0  0  0  0  0  0  0
   27.1998  -18.0375  -20.1742 O   0  0  0  0  0  0  0  0  0  0  0  0
   25.4532  -19.2610  -19.1767 C   0  0  0  0  0  0  0  0  0  0  0  0
   26.5838  -20.0797  -18.5802 C   0  0  2  0  0  0  0  0  0  0  0  0
   26.8505  -21.1597  -19.5159 N   0  0  0  0  0  0  0  0  0  0  0  0
   26.2356  -20.6118  -17.2532 C   0  0  0  0  0  0  0  0  0  0  0  0
   25.6984  -21.7476  -17.1694 O   0  0  0  0  0  0  0  0  0  0  0  0
   25.1230  -21.1512   -8.4221 O   0  0  0  0  0  0  0  0  0  0  0  0
   25.5452  -20.8441   -9.7107 C   0  0  0  0  0  0  0  0  0  0  0  0
   26.0864  -21.7882  -10.5584 C   0  0  0  0  0  0  0  0  0  0  0  0
   26.5065  -21.4992  -11.8309 C   0  0  0  0  0  0  0  0  0  0  0  0
   26.3998  -20.2126  -12.3255 C   0  0  0  0  0  0  0  0  0  0  0  0
   26.8588  -19.9001  -13.6944 C   0  0  0  0  0  0  0  0  0  0  0  0
   25.9285  -20.3988  -14.7727 C   0  0  2  0  0  0  0  0  0  0  0  0
   26.4744  -19.9070  -16.0465 N   0  0  0  0  0  0  0  0  0  0  0  0
   24.5686  -19.8469  -14.5969 C   0  0  0  0  0  0  0  0  0  0  0  0
   24.3777  -18.5999  -14.6925 O   0  0  0  0  0  0  0  0  0  0  0  0
   25.8550  -19.2460  -11.4813 C   0  0  0  0  0  0  0  0  0  0  0  0
   25.4376  -19.5597  -10.2010 C   0  0  0  0  0  0  0  0  0  0  0  0
   23.4484  -20.6477  -14.3231 N   0  0  0  0  0  0  0  0  0  0  0  0
   22.1850  -20.0488  -13.9580 C   0  0  0  0  0  0  0  0  0  0  0  0
   21.5124  -20.7807  -12.8756 C   0  0  0  0  0  0  0  0  0  0  0  0
   22.0162  -21.8485  -12.4493 O   0  0  0  0  0  0  0  0  0  0  0  0
   20.3369  -20.3123  -12.3217 O   0  0  0  0  0  0  0  0  0  0  0  0
  1  2  1  0
  2  4  1  0
  2  3  2  0
  4  5  1  0
  5  7  1  0
  5  6  1  6
  7  8  2  0
  9 10  1  0
 10 20  2  0
 10 11  1  0
 11 12  2  0
 12 13  1  0
 13 14  1  0
 15 14  1  1
 15 17  1  0
 16 15  1  0
 16  7  1  0
 17 18  2  0
 17 21  1  0
 19 13  2  0
 20 19  1  0
 21 22  1  0
 22 23  1  0
 23 24  2  0
 23 25  1  0
M  END
$$$$
