NYG.pdb
     RDKit          3D

 25 25  0  0  1  0  0  0  0  0999 V2000
   25.8045  -12.6976  -16.6494 N   0  0  0  0  0  0  0  0  0  0  0  0
   24.6245  -12.9818  -17.3680 C   0  0  0  0  0  0  0  0  0  0  0  0
   24.5113  -14.0408  -18.0155 O   0  0  0  0  0  0  0  0  0  0  0  0
   23.5113  -12.0150  -17.3534 C   0  0  0  0  0  0  0  0  0  0  0  0
   23.9432  -10.7917  -16.5650 C   0  0  2  0  0  0  0  0  0  0  0  0
   24.2879  -11.2591  -15.2324 N   0  0  0  0  0  0  0  0  0  0  0  0
   22.8812   -9.7749  -16.5039 C   0  0  0  0  0  0  0  0  0  0  0  0
   22.4316   -9.2923  -17.5766 O   0  0  0  0  0  0  0  0  0  0  0  0
   17.4368  -12.9808  -17.6584 O   0  0  0  0  0  0  0  0  0  0  0  0
   18.0814  -12.0031  -16.9088 C   0  0  0  0  0  0  0  0  0  0  0  0
   18.9299  -12.3084  -15.8650 C   0  0  0  0  0  0  0  0  0  0  0  0
   19.5719  -11.3548  -15.1181 C   0  0  0  0  0  0  0  0  0  0  0  0
   19.3866  -10.0124  -15.3922 C   0  0  0  0  0  0  0  0  0  0  0  0
   20.0733   -8.9850  -14.5829 C   0  0  0  0  0  0  0  0  0  0  0  0
   21.2280   -8.3255  -15.2961 C   0  0  2  0  0  0  0  0  0  0  0  0
   22.3279   -9.3015  -15.2875 N   0  0  0  0  0  0  0  0  0  0  0  0
   21.6692   -7.1100  -14.5800 C   0  0  0  0  0  0  0  0  0  0  0  0
   22.5607   -7.1941  -13.6862 O   0  0  0  0  0  0  0  0  0  0  0  0
   18.5318   -9.6865  -16.4443 C   0  0  0  0  0  0  0  0  0  0  0  0
   17.8944  -10.6650  -17.1847 C   0  0  0  0  0  0  0  0  0  0  0  0
   21.1422   -5.8353  -14.8416 N   0  0  0  0  0  0  0  0  0  0  0  0
   21.6091   -4.6797  -14.1103 C   0  0  0  0  0  0  0  0  0  0  0  0
   22.5013   -3.8332  -14.9148 C   0  0  0  0  0  0  0  0  0  0  0  0
   23.7030   -4.1669  -15.0572 O   0  0  0  0  0  0  0  0  0  0  0  0
   22.0382   -2.6787  -15.5154 O   0  0  0  0  0  0  0  0  0  0  0  0
  1  2  1  0
  2  4  1  0
  2  3  2  0
  4  5  1  0
  5  7  1  0
  5  6  1  1
  7  8  2  0
  9 10  1  0
 10 20  2  0
 10 11  1  0
 11 12  2  0
 12 13  1  0
 13 14  1  0
 15 14  1  1
 15 17  1  0
 16 15  1  0
 16  7  1  0
 17 18  2  0
 17 21  1  0
 19 13  2  0
 20 19  1  0
 21 22  1  0
 22 23  1  0
 23 24  2  0
 23 25  1  0
M  END
$$$$
