NYG.pdb
     RDKit          3D

 25 25  0  0  1  0  0  0  0  0999 V2000
   12.0090   -9.8381   -6.6584 N   0  0  0  0  0  0  0  0  0  0  0  0
   12.7361   -8.6746   -6.9858 C   0  0  0  0  0  0  0  0  0  0  0  0
   12.3958   -7.5626   -6.5376 O   0  0  0  0  0  0  0  0  0  0  0  0
   13.9126   -8.7747   -7.8689 C   0  0  0  0  0  0  0  0  0  0  0  0
   13.7672   -7.7572   -8.9860 C   0  0  2  0  0  0  0  0  0  0  0  0
   12.6436   -8.1932   -9.7987 N   0  0  0  0  0  0  0  0  0  0  0  0
   14.9905   -7.6543   -9.7975 C   0  0  0  0  0  0  0  0  0  0  0  0
   15.2490   -8.5586  -10.6347 O   0  0  0  0  0  0  0  0  0  0  0  0
   12.4296   -5.9335  -15.2551 O   0  0  0  0  0  0  0  0  0  0  0  0
   13.4448   -5.7355  -14.3259 C   0  0  0  0  0  0  0  0  0  0  0  0
   14.7595   -6.0649  -14.5827 C   0  0  0  0  0  0  0  0  0  0  0  0
   15.7701   -5.8749  -13.6761 C   0  0  0  0  0  0  0  0  0  0  0  0
   15.5001   -5.3301  -12.4344 C   0  0  0  0  0  0  0  0  0  0  0  0
   16.5882   -5.1318  -11.4552 C   0  0  0  0  0  0  0  0  0  0  0  0
   16.9569   -6.3845  -10.6992 C   0  0  2  0  0  0  0  0  0  0  0  0
   15.9072   -6.5784   -9.6879 N   0  0  0  0  0  0  0  0  0  0  0  0
   18.2543   -6.2249  -10.0089 C   0  0  0  0  0  0  0  0  0  0  0  0
   18.2815   -5.9134   -8.7830 O   0  0  0  0  0  0  0  0  0  0  0  0
   14.1760   -4.9917  -12.1586 C   0  0  0  0  0  0  0  0  0  0  0  0
   13.1722   -5.1920  -13.0883 C   0  0  0  0  0  0  0  0  0  0  0  0
   19.4892   -6.4038  -10.6523 N   0  0  0  0  0  0  0  0  0  0  0  0
   20.7287   -6.1547   -9.9523 C   0  0  0  0  0  0  0  0  0  0  0  0
   21.9055   -6.3864  -10.8013 C   0  0  0  0  0  0  0  0  0  0  0  0
   22.1591   -7.5504  -11.1971 O   0  0  0  0  0  0  0  0  0  0  0  0
   22.7349   -5.3449  -11.1695 O   0  0  0  0  0  0  0  0  0  0  0  0
  1  2  1  0
  2  4  1  0
  2  3  2  0
  4  5  1  0
  5  7  1  0
  5  6  1  6
  7  8  2  0
  9 10  1  0
 10 20  2  0
 10 11  1  0
 11 12  2  0
 12 13  1  0
 13 14  1  0
 15 14  1  1
 15 17  1  0
 16 15  1  0
 16  7  1  0
 17 18  2  0
 17 21  1  0
 19 13  2  0
 20 19  1  0
 21 22  1  0
 22 23  1  0
 23 24  2  0
 23 25  1  0
M  END
$$$$
