NYG.pdb
     RDKit          3D

 25 25  0  0  1  0  0  0  0  0999 V2000
   27.4308  -24.9244  -17.6049 N   0  0  0  0  0  0  0  0  0  0  0  0
   26.1618  -25.3917  -18.0059 C   0  0  0  0  0  0  0  0  0  0  0  0
   26.0482  -26.2006  -18.9472 O   0  0  0  0  0  0  0  0  0  0  0  0
   24.9551  -24.9179  -17.3034 C   0  0  0  0  0  0  0  0  0  0  0  0
   25.3845  -24.0367  -16.1443 C   0  0  2  0  0  0  0  0  0  0  0  0
   25.6439  -24.9253  -15.0234 N   0  0  0  0  0  0  0  0  0  0  0  0
   24.3542  -23.0449  -15.7975 C   0  0  0  0  0  0  0  0  0  0  0  0
   23.1937  -23.4407  -15.5105 O   0  0  0  0  0  0  0  0  0  0  0  0
   25.1002  -21.6195   -9.0500 O   0  0  0  0  0  0  0  0  0  0  0  0
   24.9124  -21.1597  -10.3487 C   0  0  0  0  0  0  0  0  0  0  0  0
   23.6879  -20.7245  -10.8113 C   0  0  0  0  0  0  0  0  0  0  0  0
   23.4887  -20.2685  -12.0887 C   0  0  0  0  0  0  0  0  0  0  0  0
   24.5394  -20.2272  -12.9864 C   0  0  0  0  0  0  0  0  0  0  0  0
   24.3229  -19.7422  -14.3648 C   0  0  0  0  0  0  0  0  0  0  0  0
   23.5843  -20.7231  -15.2419 C   0  0  2  0  0  0  0  0  0  0  0  0
   24.5985  -21.6487  -15.7681 N   0  0  0  0  0  0  0  0  0  0  0  0
   22.9373  -20.0350  -16.3790 C   0  0  0  0  0  0  0  0  0  0  0  0
   23.6479  -19.4784  -17.2654 O   0  0  0  0  0  0  0  0  0  0  0  0
   25.7841  -20.6638  -12.5348 C   0  0  0  0  0  0  0  0  0  0  0  0
   25.9624  -21.1197  -11.2417 C   0  0  0  0  0  0  0  0  0  0  0  0
   21.5440  -19.9622  -16.5355 N   0  0  0  0  0  0  0  0  0  0  0  0
   20.9619  -19.2013  -17.6174 C   0  0  0  0  0  0  0  0  0  0  0  0
   20.2866  -17.9849  -17.1441 C   0  0  0  0  0  0  0  0  0  0  0  0
   20.9756  -17.0057  -16.7672 O   0  0  0  0  0  0  0  0  0  0  0  0
   18.9081  -17.9033  -17.1081 O   0  0  0  0  0  0  0  0  0  0  0  0
  1  2  1  0
  2  4  1  0
  2  3  2  0
  4  5  1  0
  5  7  1  0
  5  6  1  1
  7  8  2  0
  9 10  1  0
 10 20  2  0
 10 11  1  0
 11 12  2  0
 12 13  1  0
 13 14  1  0
 15 14  1  1
 15 17  1  0
 16 15  1  0
 16  7  1  0
 17 18  2  0
 17 21  1  0
 19 13  2  0
 20 19  1  0
 21 22  1  0
 22 23  1  0
 23 24  2  0
 23 25  1  0
M  END
$$$$
