NYG.pdb
     RDKit          3D

 25 25  0  0  1  0  0  0  0  0999 V2000
   29.7561  -15.7450  -19.1128 N   0  0  0  0  0  0  0  0  0  0  0  0
   29.0444  -14.7763  -19.8510 C   0  0  0  0  0  0  0  0  0  0  0  0
   29.6275  -14.0504  -20.6795 O   0  0  0  0  0  0  0  0  0  0  0  0
   27.5934  -14.6204  -19.6403 C   0  0  0  0  0  0  0  0  0  0  0  0
   27.1736  -15.5114  -18.4851 C   0  0  2  0  0  0  0  0  0  0  0  0
   27.2631  -16.8805  -18.9652 N   0  0  0  0  0  0  0  0  0  0  0  0
   25.8095  -15.2069  -18.0246 C   0  0  0  0  0  0  0  0  0  0  0  0
   24.8288  -15.6026  -18.7082 O   0  0  0  0  0  0  0  0  0  0  0  0
   22.5341  -20.1571  -14.6744 O   0  0  0  0  0  0  0  0  0  0  0  0
   22.8919  -18.8162  -14.7589 C   0  0  0  0  0  0  0  0  0  0  0  0
   22.0091  -17.8375  -15.1659 C   0  0  0  0  0  0  0  0  0  0  0  0
   22.3484  -16.5122  -15.2536 C   0  0  0  0  0  0  0  0  0  0  0  0
   23.6259  -16.0961  -14.9276 C   0  0  0  0  0  0  0  0  0  0  0  0
   23.9931  -14.6688  -15.0287 C   0  0  0  0  0  0  0  0  0  0  0  0
   24.1476  -14.1833  -16.4490 C   0  0  2  0  0  0  0  0  0  0  0  0
   25.5339  -14.4828  -16.8374 N   0  0  0  0  0  0  0  0  0  0  0  0
   23.9375  -12.7228  -16.5362 C   0  0  0  0  0  0  0  0  0  0  0  0
   24.8518  -11.9315  -16.1638 O   0  0  0  0  0  0  0  0  0  0  0  0
   24.5308  -17.0729  -14.5144 C   0  0  0  0  0  0  0  0  0  0  0  0
   24.1670  -18.4044  -14.4331 C   0  0  0  0  0  0  0  0  0  0  0  0
   22.7513  -12.1490  -17.0208 N   0  0  0  0  0  0  0  0  0  0  0  0
   22.5902  -10.7136  -17.0640 C   0  0  0  0  0  0  0  0  0  0  0  0
   23.0938  -10.1329  -18.3166 C   0  0  0  0  0  0  0  0  0  0  0  0
   23.5920  -10.8870  -19.1877 O   0  0  0  0  0  0  0  0  0  0  0  0
   23.0270   -8.7729  -18.5491 O   0  0  0  0  0  0  0  0  0  0  0  0
  1  2  1  0
  2  4  1  0
  2  3  2  0
  4  5  1  0
  5  7  1  0
  5  6  1  6
  7  8  2  0
  9 10  1  0
 10 20  2  0
 10 11  1  0
 11 12  2  0
 12 13  1  0
 13 14  1  0
 15 14  1  1
 15 17  1  0
 16 15  1  0
 16  7  1  0
 17 18  2  0
 17 21  1  0
 19 13  2  0
 20 19  1  0
 21 22  1  0
 22 23  1  0
 23 24  2  0
 23 25  1  0
M  END
$$$$
