NYG.pdb
     RDKit          3D

 25 25  0  0  1  0  0  0  0  0999 V2000
   35.9162  -21.7743    6.5457 N   0  0  0  0  0  0  0  0  0  0  0  0
   35.6090  -23.1378    6.3559 C   0  0  0  0  0  0  0  0  0  0  0  0
   34.9649  -23.7721    7.2139 O   0  0  0  0  0  0  0  0  0  0  0  0
   36.0551  -23.8214    5.1279 C   0  0  0  0  0  0  0  0  0  0  0  0
   37.2738  -24.6640    5.4586 C   0  0  2  0  0  0  0  0  0  0  0  0
   38.3986  -23.7474    5.5466 N   0  0  0  0  0  0  0  0  0  0  0  0
   37.5197  -25.6971    4.4400 C   0  0  0  0  0  0  0  0  0  0  0  0
   37.9781  -25.3554    3.3180 O   0  0  0  0  0  0  0  0  0  0  0  0
   36.8630  -31.8466    8.8169 O   0  0  0  0  0  0  0  0  0  0  0  0
   37.3226  -31.1325    7.7160 C   0  0  0  0  0  0  0  0  0  0  0  0
   38.0484  -29.9660    7.8393 C   0  0  0  0  0  0  0  0  0  0  0  0
   38.5078  -29.2523    6.7627 C   0  0  0  0  0  0  0  0  0  0  0  0
   38.2525  -29.6889    5.4760 C   0  0  0  0  0  0  0  0  0  0  0  0
   38.7417  -28.9159    4.3162 C   0  0  0  0  0  0  0  0  0  0  0  0
   37.6762  -28.0751    3.6570 C   0  0  2  0  0  0  0  0  0  0  0  0
   37.2659  -27.0753    4.6542 N   0  0  0  0  0  0  0  0  0  0  0  0
   36.4998  -28.8951    3.2984 C   0  0  0  0  0  0  0  0  0  0  0  0
   35.5498  -29.0285    4.1232 O   0  0  0  0  0  0  0  0  0  0  0  0
   37.5197  -30.8664    5.3337 C   0  0  0  0  0  0  0  0  0  0  0  0
   37.0662  -31.5706    6.4339 C   0  0  0  0  0  0  0  0  0  0  0  0
   36.3732  -29.5510    2.0635 N   0  0  0  0  0  0  0  0  0  0  0  0
   35.1557  -30.2499    1.7208 C   0  0  0  0  0  0  0  0  0  0  0  0
   35.3792  -31.6858    1.5019 C   0  0  0  0  0  0  0  0  0  0  0  0
   36.5380  -32.1533    1.6210 O   0  0  0  0  0  0  0  0  0  0  0  0
   34.3353  -32.5267    1.1681 O   0  0  0  0  0  0  0  0  0  0  0  0
  1  2  1  0
  2  4  1  0
  2  3  2  0
  4  5  1  0
  5  7  1  0
  5  6  1  6
  7  8  2  0
  9 10  1  0
 10 20  2  0
 10 11  1  0
 11 12  2  0
 12 13  1  0
 13 14  1  0
 15 14  1  1
 15 17  1  0
 16 15  1  0
 16  7  1  0
 17 18  2  0
 17 21  1  0
 19 13  2  0
 20 19  1  0
 21 22  1  0
 22 23  1  0
 23 24  2  0
 23 25  1  0
M  END
$$$$
