LAM.pdb
     RDKit          3D

 22 21  0  0  1  0  0  0  0  0999 V2000
   30.0865  -21.6745  -14.3273 C   0  0  0  0  0  0  0  0  0  0  0  0
   29.7536  -20.6374  -13.2949 C   0  0  2  0  0  0  0  0  0  0  0  0
   30.2110  -21.0175  -11.9146 C   0  0  0  0  0  0  0  0  0  0  0  0
   28.2853  -20.3260  -13.3567 C   0  0  0  0  0  0  0  0  0  0  0  0
   28.0099  -19.6784  -14.7124 C   0  0  2  0  0  0  0  0  0  0  0  0
   28.9065  -18.5503  -14.9039 N   0  0  0  0  0  0  0  0  0  0  0  0
   26.5865  -19.2590  -14.7583 C   0  0  0  0  0  0  0  0  0  0  0  0
   26.1809  -18.4492  -13.9038 O   0  0  0  0  0  0  0  0  0  0  0  0
   23.7487  -19.7081  -17.1638 C   0  0  0  0  0  0  0  0  0  0  0  0
   24.3742  -19.4082  -15.8155 C   0  0  2  0  0  0  0  0  0  0  0  0
   25.7669  -19.8026  -15.7715 N   0  0  0  0  0  0  0  0  0  0  0  0
   23.6409  -20.2384  -14.8169 C   0  0  0  0  0  0  0  0  0  0  0  0
   24.0582  -21.3839  -14.5194 O   0  0  0  0  0  0  0  0  0  0  0  0
   23.9218  -20.2632   -8.5846 C   0  0  0  0  0  0  0  0  0  0  0  0
   22.2899  -19.7309   -9.0729 S   0  0  0  0  0  0  0  0  0  0  0  0
   21.6770  -20.4240  -10.5766 C   0  0  0  0  0  0  0  0  0  0  0  0
   22.2434  -19.9569  -11.8395 C   0  0  0  0  0  0  0  0  0  0  0  0
   21.8154  -20.4232  -13.1572 C   0  0  2  0  0  0  0  0  0  0  0  0
   22.4789  -19.7051  -14.2237 N   0  0  0  0  0  0  0  0  0  0  0  0
   20.3929  -20.4865  -13.4753 C   0  0  0  0  0  0  0  0  0  0  0  0
   19.8235  -19.5957  -14.1857 O   0  0  0  0  0  0  0  0  0  0  0  0
   19.5985  -21.5219  -13.0169 O   0  0  0  0  0  0  0  0  0  0  0  0
  2  3  1  1
  2  1  1  0
  4  5  1  0
  4  2  1  0
  5  6  1  1
  7 11  1  0
  7  5  1  0
  8  7  2  0
 10  9  1  6
 10 12  1  0
 10 11  1  0
 12 19  1  0
 13 12  2  0
 14 15  1  0
 16 15  1  0
 17 16  1  0
 18 20  1  0
 18 17  1  1
 19 18  1  0
 20 22  1  0
 21 20  2  0
M  END
$$$$
