LAM.pdb
     RDKit          3D

 22 21  0  0  1  0  0  0  0  0999 V2000
   26.5317  -22.6875  -16.2157 C   0  0  0  0  0  0  0  0  0  0  0  0
   27.7377  -21.8965  -15.8008 C   0  0  2  0  0  0  0  0  0  0  0  0
   29.0100  -22.6945  -15.8598 C   0  0  0  0  0  0  0  0  0  0  0  0
   27.4939  -21.2883  -14.4490 C   0  0  0  0  0  0  0  0  0  0  0  0
   26.2417  -20.4199  -14.5553 C   0  0  2  0  0  0  0  0  0  0  0  0
   26.5041  -19.2934  -15.4356 N   0  0  0  0  0  0  0  0  0  0  0  0
   25.8578  -19.9711  -13.1932 C   0  0  0  0  0  0  0  0  0  0  0  0
   26.5427  -19.0859  -12.6474 O   0  0  0  0  0  0  0  0  0  0  0  0
   22.8231  -20.3718  -11.0615 C   0  0  0  0  0  0  0  0  0  0  0  0
   24.2889  -20.0697  -11.3056 C   0  0  2  0  0  0  0  0  0  0  0  0
   24.7333  -20.5739  -12.5883 N   0  0  0  0  0  0  0  0  0  0  0  0
   25.0505  -20.7967  -10.2493 C   0  0  0  0  0  0  0  0  0  0  0  0
   25.4392  -21.9733  -10.4476 O   0  0  0  0  0  0  0  0  0  0  0  0
   29.1616  -17.9297   -6.2243 C   0  0  0  0  0  0  0  0  0  0  0  0
   28.7070  -19.3426   -5.2334 S   0  0  0  0  0  0  0  0  0  0  0  0
   27.5235  -20.4352   -5.9561 C   0  0  0  0  0  0  0  0  0  0  0  0
   26.8863  -20.0398   -7.2097 C   0  0  0  0  0  0  0  0  0  0  0  0
   25.9074  -20.8530   -7.9290 C   0  0  2  0  0  0  0  0  0  0  0  0
   25.3179  -20.1315   -9.0359 N   0  0  0  0  0  0  0  0  0  0  0  0
   24.8300  -21.5068   -7.1940 C   0  0  0  0  0  0  0  0  0  0  0  0
   23.6166  -21.1381   -7.3122 O   0  0  0  0  0  0  0  0  0  0  0  0
   25.0819  -22.5602   -6.3335 O   0  0  0  0  0  0  0  0  0  0  0  0
  2  3  1  1
  2  1  1  0
  4  5  1  0
  4  2  1  0
  5  6  1  6
  7 11  1  0
  7  5  1  0
  8  7  2  0
 10  9  1  1
 10 12  1  0
 10 11  1  0
 12 19  1  0
 13 12  2  0
 14 15  1  0
 16 15  1  0
 17 16  1  0
 18 20  1  0
 18 17  1  1
 19 18  1  0
 20 22  1  0
 21 20  2  0
M  END
$$$$
