LAM.pdb
     RDKit          3D

 22 21  0  0  1  0  0  0  0  0999 V2000
   26.6563  -15.2245  -22.5184 C   0  0  0  0  0  0  0  0  0  0  0  0
   25.3863  -15.0440  -21.7394 C   0  0  2  0  0  0  0  0  0  0  0  0
   24.1600  -15.0544  -22.6083 C   0  0  0  0  0  0  0  0  0  0  0  0
   25.4913  -13.8060  -20.8950 C   0  0  0  0  0  0  0  0  0  0  0  0
   26.6952  -13.9810  -19.9712 C   0  0  2  0  0  0  0  0  0  0  0  0
   26.5052  -15.1600  -19.1424 N   0  0  0  0  0  0  0  0  0  0  0  0
   26.8457  -12.7538  -19.1492 C   0  0  0  0  0  0  0  0  0  0  0  0
   26.8371  -11.6507  -19.7268 O   0  0  0  0  0  0  0  0  0  0  0  0
   27.0433  -12.0112  -15.4679 C   0  0  0  0  0  0  0  0  0  0  0  0
   27.1809  -11.7149  -16.9487 C   0  0  2  0  0  0  0  0  0  0  0  0
   26.9907  -12.9042  -17.7528 N   0  0  0  0  0  0  0  0  0  0  0  0
   28.5831  -11.2517  -17.1572 C   0  0  0  0  0  0  0  0  0  0  0  0
   29.4918  -12.0807  -17.4060 O   0  0  0  0  0  0  0  0  0  0  0  0
   35.4003  -11.1303  -18.0932 C   0  0  0  0  0  0  0  0  0  0  0  0
   33.7160  -11.4859  -17.6223 S   0  0  0  0  0  0  0  0  0  0  0  0
   32.6041  -10.1152  -17.6645 C   0  0  0  0  0  0  0  0  0  0  0  0
   31.2038  -10.3444  -17.3171 C   0  0  0  0  0  0  0  0  0  0  0  0
   30.1394   -9.3575  -17.4907 C   0  0  2  0  0  0  0  0  0  0  0  0
   28.8549   -9.8716  -17.0676 N   0  0  0  0  0  0  0  0  0  0  0  0
   29.9593   -8.7077  -18.7845 C   0  0  0  0  0  0  0  0  0  0  0  0
   29.6048   -9.3596  -19.8196 O   0  0  0  0  0  0  0  0  0  0  0  0
   30.1667   -7.3492  -18.9423 O   0  0  0  0  0  0  0  0  0  0  0  0
  2  3  1  6
  2  1  1  0
  4  5  1  0
  4  2  1  0
  5  6  1  1
  7 11  1  0
  7  5  1  0
  8  7  2  0
 10  9  1  1
 10 12  1  0
 10 11  1  0
 12 19  1  0
 13 12  2  0
 14 15  1  0
 16 15  1  0
 17 16  1  0
 18 20  1  0
 18 17  1  6
 19 18  1  0
 20 22  1  0
 21 20  2  0
M  END
$$$$
