LAM.pdb
     RDKit          3D

 22 21  0  0  1  0  0  0  0  0999 V2000
   22.4975  -22.3859  -11.7264 C   0  0  0  0  0  0  0  0  0  0  0  0
   22.4689  -21.1286  -10.9074 C   0  0  2  0  0  0  0  0  0  0  0  0
   21.1210  -20.4638  -10.9022 C   0  0  0  0  0  0  0  0  0  0  0  0
   23.5686  -20.2121  -11.3629 C   0  0  0  0  0  0  0  0  0  0  0  0
   24.8601  -21.0271  -11.3993 C   0  0  2  0  0  0  0  0  0  0  0  0
   25.3961  -21.1500  -10.0538 N   0  0  0  0  0  0  0  0  0  0  0  0
   25.8203  -20.3553  -12.3109 C   0  0  0  0  0  0  0  0  0  0  0  0
   26.3846  -19.3183  -11.9150 O   0  0  0  0  0  0  0  0  0  0  0  0
   27.4317  -21.2010  -15.5856 C   0  0  0  0  0  0  0  0  0  0  0  0
   26.9636  -20.2708  -14.4834 C   0  0  2  0  0  0  0  0  0  0  0  0
   26.0425  -20.9303  -13.5812 N   0  0  0  0  0  0  0  0  0  0  0  0
   26.2211  -19.1642  -15.1529 C   0  0  0  0  0  0  0  0  0  0  0  0
   24.9792  -19.2442  -15.3150 O   0  0  0  0  0  0  0  0  0  0  0  0
   29.1346  -12.9252  -16.6943 C   0  0  0  0  0  0  0  0  0  0  0  0
   27.5261  -12.9350  -15.9213 S   0  0  0  0  0  0  0  0  0  0  0  0
   26.5069  -14.3278  -16.2930 C   0  0  0  0  0  0  0  0  0  0  0  0
   26.9067  -15.6378  -15.7852 C   0  0  0  0  0  0  0  0  0  0  0  0
   26.2478  -16.8944  -16.1370 C   0  0  2  0  0  0  0  0  0  0  0  0
   26.9464  -18.0388  -15.5934 N   0  0  0  0  0  0  0  0  0  0  0  0
   25.9342  -17.1808  -17.5328 C   0  0  0  0  0  0  0  0  0  0  0  0
   26.7093  -17.8767  -18.2659 O   0  0  0  0  0  0  0  0  0  0  0  0
   24.7760  -16.7067  -18.1220 O   0  0  0  0  0  0  0  0  0  0  0  0
  2  3  1  6
  2  1  1  0
  4  5  1  0
  4  2  1  0
  5  6  1  1
  7 11  1  0
  7  5  1  0
  8  7  2  0
 10  9  1  6
 10 12  1  0
 10 11  1  0
 12 19  1  0
 13 12  2  0
 14 15  1  0
 16 15  1  0
 17 16  1  0
 18 20  1  0
 18 17  1  6
 19 18  1  0
 20 22  1  0
 21 20  2  0
M  END
$$$$
