LAM.pdb
     RDKit          3D

 22 21  0  0  1  0  0  0  0  0999 V2000
   18.0701  -21.0148  -13.0091 C   0  0  0  0  0  0  0  0  0  0  0  0
   18.9853  -22.1528  -12.6633 C   0  0  2  0  0  0  0  0  0  0  0  0
   18.2658  -23.4669  -12.5432 C   0  0  0  0  0  0  0  0  0  0  0  0
   19.7707  -21.8041  -11.4311 C   0  0  0  0  0  0  0  0  0  0  0  0
   20.6466  -20.5995  -11.7706 C   0  0  2  0  0  0  0  0  0  0  0  0
   19.8999  -19.6754  -12.6081 N   0  0  0  0  0  0  0  0  0  0  0  0
   21.8753  -21.0820  -12.4501 C   0  0  0  0  0  0  0  0  0  0  0  0
   22.4260  -22.1108  -12.0156 O   0  0  0  0  0  0  0  0  0  0  0  0
   23.8049  -20.0684  -15.5154 C   0  0  0  0  0  0  0  0  0  0  0  0
   23.5722  -20.7897  -14.2020 C   0  0  2  0  0  0  0  0  0  0  0  0
   22.3545  -20.3462  -13.5558 N   0  0  0  0  0  0  0  0  0  0  0  0
   24.7116  -20.4232  -13.3124 C   0  0  0  0  0  0  0  0  0  0  0  0
   24.6519  -19.3897  -12.6029 O   0  0  0  0  0  0  0  0  0  0  0  0
   25.8151  -20.0874   -7.9010 C   0  0  0  0  0  0  0  0  0  0  0  0
   27.2905  -20.9855   -8.3497 S   0  0  0  0  0  0  0  0  0  0  0  0
   27.7780  -20.8598  -10.0418 C   0  0  0  0  0  0  0  0  0  0  0  0
   26.7651  -21.0630  -11.0746 C   0  0  0  0  0  0  0  0  0  0  0  0
   27.0030  -20.8942  -12.5070 C   0  0  2  0  0  0  0  0  0  0  0  0
   25.8444  -21.2614  -13.2918 N   0  0  0  0  0  0  0  0  0  0  0  0
   28.1754  -21.5066  -13.1227 C   0  0  0  0  0  0  0  0  0  0  0  0
   29.3429  -21.3618  -12.6345 O   0  0  0  0  0  0  0  0  0  0  0  0
   28.0680  -22.2744  -14.2683 O   0  0  0  0  0  0  0  0  0  0  0  0
  2  3  1  1
  2  1  1  0
  4  5  1  0
  4  2  1  0
  5  6  1  6
  7 11  1  0
  7  5  1  0
  8  7  2  0
 10  9  1  6
 10 12  1  0
 10 11  1  0
 12 19  1  0
 13 12  2  0
 14 15  1  0
 16 15  1  0
 17 16  1  0
 18 20  1  0
 18 17  1  1
 19 18  1  0
 20 22  1  0
 21 20  2  0
M  END
$$$$
