RKP.pdb
     RDKit          3D

 28 28  0  0  1  0  0  0  0  0999 V2000
    6.8966  -13.4387   16.3248 N   0  0  0  0  0  0  0  0  0  0  0  0
    8.2949  -13.6885   16.4674 C   0  0  0  0  0  0  0  0  0  0  0  0
    8.9420  -14.4647   15.6812 N   0  0  0  0  0  0  0  0  0  0  0  0
    8.9742  -13.0434   17.5256 N   0  0  0  0  0  0  0  0  0  0  0  0
    8.8079  -13.5129   18.9015 C   0  0  0  0  0  0  0  0  0  0  0  0
    7.3291  -13.5585   19.1540 C   0  0  0  0  0  0  0  0  0  0  0  0
    7.0421  -14.1809   20.4858 C   0  0  0  0  0  0  0  0  0  0  0  0
    8.1707  -15.0178   21.0245 C   0  0  2  0  0  0  0  0  0  0  0  0
    8.2850  -16.2874   20.3798 N   0  0  0  0  0  0  0  0  0  0  0  0
    7.9304  -15.1642   22.4986 C   0  0  0  0  0  0  0  0  0  0  0  0
    7.6278  -14.2022   23.2412 O   0  0  0  0  0  0  0  0  0  0  0  0
    9.9648  -14.6061   15.7486 N   0  0  0  0  0  0  0  0  0  0  0  0
    8.0394  -16.4550   23.1551 C   0  0  2  0  0  0  0  0  0  0  0  0
    7.8382  -16.6055   24.5452 C   0  0  0  0  0  0  0  0  0  0  0  0
    7.6102  -18.0644   24.9497 C   0  0  0  0  0  0  0  0  0  0  0  0
    7.4950  -18.1986   26.4441 C   0  0  0  0  0  0  0  0  0  0  0  0
    7.3504  -19.6313   26.8844 C   0  0  0  0  0  0  0  0  0  0  0  0
    7.0957  -19.7328   28.3864 N   0  0  0  0  0  0  0  0  0  0  0  0
    6.8903  -21.1544   28.7082 C   0  0  0  0  0  0  0  0  0  0  0  0
    8.8893  -16.0278   25.3742 O   0  0  0  0  0  0  0  0  0  0  0  0
   10.1307  -16.3580   25.1061 N   0  0  0  0  0  0  0  0  0  0  0  0
    8.7777  -15.1441   26.4511 C   0  0  0  0  0  0  0  0  0  0  0  0
    7.4884  -14.6555   27.0263 C   0  0  0  0  0  0  0  0  0  0  0  0
    7.8249  -13.7251   28.1315 C   0  0  0  0  0  0  0  0  0  0  0  0
    9.1859  -13.2262   27.7509 C   0  0  1  0  0  0  0  0  0  0  0  0
    9.8175  -14.5268   27.2225 C   0  0  0  0  0  0  0  0  0  0  0  0
   10.0576  -15.3845   28.4307 O   0  0  0  0  0  0  0  0  0  0  0  0
   10.9830  -15.0925   29.2229 O   0  0  0  0  0  0  0  0  0  0  0  0
  2  1  1  0
  3  2  2  0
  4  2  1  0
  5  4  1  0
  6  5  1  0
  7  6  1  0
  8  7  1  0
  8  9  1  6
 10 11  2  0
 10  8  1  0
 12 10  1  0
 13 12  1  0
 13 14  1  6
 14 15  1  0
 16 15  1  0
 17 16  1  0
 18 17  1  0
 19 20  2  0
 19 13  1  0
 21 19  1  0
 22 21  1  0
 23 22  1  0
 24 23  1  0
 24 25  1  0
 25 26  1  1
 25 21  1  0
 26 28  1  0
 27 26  2  0
M  END
$$$$
