RKP.pdb
     RDKit          3D

 28 28  0  0  1  0  0  0  0  0999 V2000
    8.9952  -15.2391   16.9628 N   0  0  0  0  0  0  0  0  0  0  0  0
    8.6778  -13.9344   16.4779 C   0  0  0  0  0  0  0  0  0  0  0  0
    8.5522  -13.6722   15.2310 N   0  0  0  0  0  0  0  0  0  0  0  0
    8.4992  -12.9042   17.4288 N   0  0  0  0  0  0  0  0  0  0  0  0
    8.7705  -13.1546   18.8448 C   0  0  0  0  0  0  0  0  0  0  0  0
    7.4856  -13.6562   19.4364 C   0  0  0  0  0  0  0  0  0  0  0  0
    7.6941  -14.0903   20.8547 C   0  0  0  0  0  0  0  0  0  0  0  0
    7.4032  -15.5467   21.0964 C   0  0  2  0  0  0  0  0  0  0  0  0
    6.2617  -16.0177   20.3783 N   0  0  0  0  0  0  0  0  0  0  0  0
    7.2318  -15.7098   22.5785 C   0  0  0  0  0  0  0  0  0  0  0  0
    6.5332  -14.9385   23.2752 O   0  0  0  0  0  0  0  0  0  0  0  0
    8.4862  -12.7068   14.8643 N   0  0  0  0  0  0  0  0  0  0  0  0
    7.8810  -16.7917   23.2973 C   0  0  2  0  0  0  0  0  0  0  0  0
    7.8183  -16.8971   24.7046 C   0  0  0  0  0  0  0  0  0  0  0  0
    7.6681  -18.3454   25.1777 C   0  0  0  0  0  0  0  0  0  0  0  0
    7.6874  -18.4273   26.6802 C   0  0  0  0  0  0  0  0  0  0  0  0
    7.6324  -19.8464   27.1805 C   0  0  0  0  0  0  0  0  0  0  0  0
    7.7780  -19.9112   28.6991 N   0  0  0  0  0  0  0  0  0  0  0  0
    7.7284  -21.3291   29.0911 C   0  0  0  0  0  0  0  0  0  0  0  0
    8.9289  -16.2666   25.4081 O   0  0  0  0  0  0  0  0  0  0  0  0
   10.1471  -16.5849   25.0379 N   0  0  0  0  0  0  0  0  0  0  0  0
    8.8985  -15.3415   26.4551 C   0  0  0  0  0  0  0  0  0  0  0  0
    7.6555  -14.8149   27.0950 C   0  0  0  0  0  0  0  0  0  0  0  0
    8.0744  -13.8478   28.1388 C   0  0  0  0  0  0  0  0  0  0  0  0
    9.4121  -13.3812   27.6500 C   0  0  1  0  0  0  0  0  0  0  0  0
    9.9937  -14.7089   27.1316 C   0  0  0  0  0  0  0  0  0  0  0  0
   10.3048  -15.5233   28.3535 O   0  0  0  0  0  0  0  0  0  0  0  0
    9.5157  -16.4280   28.7114 O   0  0  0  0  0  0  0  0  0  0  0  0
  2  1  1  0
  3  2  2  0
  4  2  1  0
  5  4  1  0
  6  5  1  0
  7  6  1  0
  8  7  1  0
  8  9  1  6
 10 11  2  0
 10  8  1  0
 12 10  1  0
 13 12  1  0
 13 14  1  6
 14 15  1  0
 16 15  1  0
 17 16  1  0
 18 17  1  0
 19 20  2  0
 19 13  1  0
 21 19  1  0
 22 21  1  0
 23 22  1  0
 24 23  1  0
 24 25  1  0
 25 26  1  1
 25 21  1  0
 26 28  1  0
 27 26  2  0
M  END
$$$$
