RKP.pdb
     RDKit          3D

 28 28  0  0  1  0  0  0  0  0999 V2000
   13.0159  -14.3238   17.9379 N   0  0  0  0  0  0  0  0  0  0  0  0
   13.4946  -14.2817   19.2822 C   0  0  0  0  0  0  0  0  0  0  0  0
   14.6928  -13.9416   19.5789 N   0  0  0  0  0  0  0  0  0  0  0  0
   12.5938  -14.6332   20.3129 N   0  0  0  0  0  0  0  0  0  0  0  0
   11.1551  -14.6780   20.0494 C   0  0  0  0  0  0  0  0  0  0  0  0
   10.5686  -13.4658   20.7122 C   0  0  0  0  0  0  0  0  0  0  0  0
    9.4635  -12.8938   19.8786 C   0  0  0  0  0  0  0  0  0  0  0  0
    8.2547  -13.7837   19.7736 C   0  0  2  0  0  0  0  0  0  0  0  0
    7.1995  -13.2082   19.0017 N   0  0  0  0  0  0  0  0  0  0  0  0
    7.8164  -14.0794   21.1782 C   0  0  0  0  0  0  0  0  0  0  0  0
    7.3835  -13.2011   21.9589 O   0  0  0  0  0  0  0  0  0  0  0  0
   15.0446  -13.9166   20.5517 N   0  0  0  0  0  0  0  0  0  0  0  0
    7.8733  -15.4267   21.7172 C   0  0  2  0  0  0  0  0  0  0  0  0
    7.5066  -15.7139   23.0509 C   0  0  0  0  0  0  0  0  0  0  0  0
    7.3814  -17.2170   23.3134 C   0  0  0  0  0  0  0  0  0  0  0  0
    7.1214  -17.4908   24.7701 C   0  0  0  0  0  0  0  0  0  0  0  0
    6.9915  -18.9615   25.0656 C   0  0  0  0  0  0  0  0  0  0  0  0
    6.5711  -19.2073   26.5128 N   0  0  0  0  0  0  0  0  0  0  0  0
    6.4958  -20.6635   26.7135 C   0  0  0  0  0  0  0  0  0  0  0  0
    8.3721  -15.1129   24.0586 O   0  0  0  0  0  0  0  0  0  0  0  0
    9.6674  -15.2809   23.9313 N   0  0  0  0  0  0  0  0  0  0  0  0
    8.0253  -14.3574   25.1819 C   0  0  0  0  0  0  0  0  0  0  0  0
    6.6433  -13.8918   25.5060 C   0  0  0  0  0  0  0  0  0  0  0  0
    6.7266  -13.1099   26.7638 C   0  0  0  0  0  0  0  0  0  0  0  0
    8.1432  -12.6208   26.7646 C   0  0  1  0  0  0  0  0  0  0  0  0
    8.8667  -13.8734   26.2380 C   0  0  0  0  0  0  0  0  0  0  0  0
    8.8157  -14.8746   27.3551 O   0  0  0  0  0  0  0  0  0  0  0  0
    7.9517  -15.7814   27.3343 O   0  0  0  0  0  0  0  0  0  0  0  0
  2  1  1  0
  3  2  2  0
  4  2  1  0
  5  4  1  0
  6  5  1  0
  7  6  1  0
  8  7  1  0
  8  9  1  6
 10 11  2  0
 10  8  1  0
 12 10  1  0
 13 12  1  0
 13 14  1  6
 14 15  1  0
 16 15  1  0
 17 16  1  0
 18 17  1  0
 19 20  2  0
 19 13  1  0
 21 19  1  0
 22 21  1  0
 23 22  1  0
 24 23  1  0
 24 25  1  0
 25 26  1  1
 25 21  1  0
 26 28  1  0
 27 26  2  0
M  END
$$$$
