RKP.pdb
     RDKit          3D

 28 28  0  0  1  0  0  0  0  0999 V2000
    9.0844  -11.8772   17.8812 N   0  0  0  0  0  0  0  0  0  0  0  0
    8.7847  -13.2707   17.9622 C   0  0  0  0  0  0  0  0  0  0  0  0
    9.3942  -14.1507   17.2598 N   0  0  0  0  0  0  0  0  0  0  0  0
    7.7710  -13.6748   18.8602 N   0  0  0  0  0  0  0  0  0  0  0  0
    7.9632  -13.5248   20.3031 C   0  0  0  0  0  0  0  0  0  0  0  0
    6.6972  -14.0082   20.9481 C   0  0  0  0  0  0  0  0  0  0  0  0
    6.2799  -15.3239   20.3665 C   0  0  0  0  0  0  0  0  0  0  0  0
    7.0028  -16.5068   20.9518 C   0  0  2  0  0  0  0  0  0  0  0  0
    6.5373  -17.7573   20.4419 N   0  0  0  0  0  0  0  0  0  0  0  0
    6.8352  -16.4182   22.4406 C   0  0  0  0  0  0  0  0  0  0  0  0
    5.8276  -15.9134   22.9866 O   0  0  0  0  0  0  0  0  0  0  0  0
    9.2309  -15.1667   17.3679 N   0  0  0  0  0  0  0  0  0  0  0  0
    7.8537  -16.9225   23.3446 C   0  0  2  0  0  0  0  0  0  0  0  0
    7.7107  -16.8469   24.7480 C   0  0  0  0  0  0  0  0  0  0  0  0
    8.0574  -18.1657   25.4441 C   0  0  0  0  0  0  0  0  0  0  0  0
    7.9503  -18.0314   26.9391 C   0  0  0  0  0  0  0  0  0  0  0  0
    8.3917  -19.2761   27.6624 C   0  0  0  0  0  0  0  0  0  0  0  0
    8.3616  -19.0846   29.1769 N   0  0  0  0  0  0  0  0  0  0  0  0
    8.9032  -20.3075   29.7914 C   0  0  0  0  0  0  0  0  0  0  0  0
    8.4494  -15.7562   25.3730 O   0  0  0  0  0  0  0  0  0  0  0  0
    9.7462  -15.7054   25.1786 N   0  0  0  0  0  0  0  0  0  0  0  0
    7.9748  -14.7170   26.1778 C   0  0  0  0  0  0  0  0  0  0  0  0
    6.5418  -14.5039   26.5424 C   0  0  0  0  0  0  0  0  0  0  0  0
    6.4794  -13.2844   27.3847 C   0  0  0  0  0  0  0  0  0  0  0  0
    7.6919  -12.5150   26.9560 C   0  0  1  0  0  0  0  0  0  0  0  0
    8.7090  -13.6617   26.8139 C   0  0  0  0  0  0  0  0  0  0  0  0
    9.0225  -14.1054   28.2132 O   0  0  0  0  0  0  0  0  0  0  0  0
    8.4619  -15.1239   28.6796 O   0  0  0  0  0  0  0  0  0  0  0  0
  2  1  1  0
  3  2  2  0
  4  2  1  0
  5  4  1  0
  6  5  1  0
  7  6  1  0
  8  7  1  0
  8  9  1  6
 10 11  2  0
 10  8  1  0
 12 10  1  0
 13 12  1  0
 13 14  1  6
 14 15  1  0
 16 15  1  0
 17 16  1  0
 18 17  1  0
 19 20  2  0
 19 13  1  0
 21 19  1  0
 22 21  1  0
 23 22  1  0
 24 23  1  0
 24 25  1  0
 25 26  1  1
 25 21  1  0
 26 28  1  0
 27 26  2  0
M  END
$$$$
