RKP.pdb
     RDKit          3D

 28 28  0  0  1  0  0  0  0  0999 V2000
    8.6192  -12.3119   19.2271 N   0  0  0  0  0  0  0  0  0  0  0  0
    8.4752  -13.1831   18.1052 C   0  0  0  0  0  0  0  0  0  0  0  0
    8.1614  -12.7607   16.9381 N   0  0  0  0  0  0  0  0  0  0  0  0
    8.6921  -14.5642   18.3123 N   0  0  0  0  0  0  0  0  0  0  0  0
    7.5811  -15.4334   18.7016 C   0  0  0  0  0  0  0  0  0  0  0  0
    7.5244  -15.3969   20.2009 C   0  0  0  0  0  0  0  0  0  0  0  0
    8.2184  -16.5901   20.7825 C   0  0  0  0  0  0  0  0  0  0  0  0
    7.2922  -17.5688   21.4521 C   0  0  2  0  0  0  0  0  0  0  0  0
    6.1234  -17.8527   20.6813 N   0  0  0  0  0  0  0  0  0  0  0  0
    6.9454  -16.9846   22.7903 C   0  0  0  0  0  0  0  0  0  0  0  0
    6.0476  -16.1262   22.9500 O   0  0  0  0  0  0  0  0  0  0  0  0
    8.0357  -13.3919   16.1278 N   0  0  0  0  0  0  0  0  0  0  0  0
    7.6475  -17.3914   23.9946 C   0  0  1  0  0  0  0  0  0  0  0  0
    7.3285  -16.8558   25.2623 C   0  0  0  0  0  0  0  0  0  0  0  0
    7.5155  -17.8724   26.3918 C   0  0  0  0  0  0  0  0  0  0  0  0
    6.8739  -19.1887   26.0450 C   0  0  0  0  0  0  0  0  0  0  0  0
    7.0873  -20.2317   27.1099 C   0  0  0  0  0  0  0  0  0  0  0  0
    6.5143  -21.5840   26.6924 N   0  0  0  0  0  0  0  0  0  0  0  0
    6.8692  -22.5594   27.7361 C   0  0  0  0  0  0  0  0  0  0  0  0
    8.0342  -15.6236   25.5929 O   0  0  0  0  0  0  0  0  0  0  0  0
    9.2618  -15.4842   25.1504 N   0  0  0  0  0  0  0  0  0  0  0  0
    7.5917  -14.5259   26.3360 C   0  0  0  0  0  0  0  0  0  0  0  0
    6.2252  -14.3857   26.9233 C   0  0  0  0  0  0  0  0  0  0  0  0
    6.1734  -13.0702   27.6067 C   0  0  0  0  0  0  0  0  0  0  0  0
    7.2074  -12.2686   26.8758 C   0  0  1  0  0  0  0  0  0  0  0  0
    8.3040  -13.3339   26.6952 C   0  0  0  0  0  0  0  0  0  0  0  0
    8.8926  -13.5494   28.0591 O   0  0  0  0  0  0  0  0  0  0  0  0
    9.6351  -12.6727   28.5582 O   0  0  0  0  0  0  0  0  0  0  0  0
  2  1  1  0
  3  2  2  0
  4  2  1  0
  5  4  1  0
  6  5  1  0
  7  6  1  0
  8  7  1  0
  8  9  1  6
 10 11  2  0
 10  8  1  0
 12 10  1  0
 13 12  1  0
 13 14  1  1
 14 15  1  0
 16 15  1  0
 17 16  1  0
 18 17  1  0
 19 20  2  0
 19 13  1  0
 21 19  1  0
 22 21  1  0
 23 22  1  0
 24 23  1  0
 24 25  1  0
 25 26  1  1
 25 21  1  0
 26 28  1  0
 27 26  2  0
M  END
$$$$
