RKP.pdb
     RDKit          3D

 28 28  0  0  1  0  0  0  0  0999 V2000
    7.1223  -15.1022   15.8378 N   0  0  0  0  0  0  0  0  0  0  0  0
    8.2221  -14.3278   15.3593 C   0  0  0  0  0  0  0  0  0  0  0  0
    8.2169  -13.7532   14.2152 N   0  0  0  0  0  0  0  0  0  0  0  0
    9.3531  -14.2028   16.1975 N   0  0  0  0  0  0  0  0  0  0  0  0
    9.2078  -13.6797   17.5564 C   0  0  0  0  0  0  0  0  0  0  0  0
    7.9771  -14.3236   18.1251 C   0  0  0  0  0  0  0  0  0  0  0  0
    7.7719  -13.9006   19.5473 C   0  0  0  0  0  0  0  0  0  0  0  0
    8.7164  -14.5525   20.5204 C   0  0  2  0  0  0  0  0  0  0  0  0
    9.1146  -15.8653   20.1221 N   0  0  0  0  0  0  0  0  0  0  0  0
    8.0215  -14.5637   21.8506 C   0  0  0  0  0  0  0  0  0  0  0  0
    7.4773  -13.5506   22.3465 O   0  0  0  0  0  0  0  0  0  0  0  0
    9.0012  -13.1691   13.8769 N   0  0  0  0  0  0  0  0  0  0  0  0
    7.9430  -15.7739   22.6494 C   0  0  1  0  0  0  0  0  0  0  0  0
    7.4204  -15.7703   23.9618 C   0  0  0  0  0  0  0  0  0  0  0  0
    7.0125  -17.1684   24.4339 C   0  0  0  0  0  0  0  0  0  0  0  0
    6.0132  -17.7856   23.4933 C   0  0  0  0  0  0  0  0  0  0  0  0
    6.1820  -19.2769   23.3709 C   0  0  0  0  0  0  0  0  0  0  0  0
    5.1190  -19.8883   22.4613 N   0  0  0  0  0  0  0  0  0  0  0  0
    5.4016  -21.3287   22.3517 C   0  0  0  0  0  0  0  0  0  0  0  0
    8.2895  -15.1534   24.9568 O   0  0  0  0  0  0  0  0  0  0  0  0
    9.5703  -15.4357   24.9094 N   0  0  0  0  0  0  0  0  0  0  0  0
    7.9598  -14.2756   25.9930 C   0  0  0  0  0  0  0  0  0  0  0  0
    6.5730  -13.8366   26.3331 C   0  0  0  0  0  0  0  0  0  0  0  0
    6.6776  -12.8952   27.4746 C   0  0  0  0  0  0  0  0  0  0  0  0
    8.0643  -12.3448   27.3330 C   0  0  1  0  0  0  0  0  0  0  0  0
    8.8262  -13.6202   26.9296 C   0  0  0  0  0  0  0  0  0  0  0  0
    8.8849  -14.4694   28.1659 O   0  0  0  0  0  0  0  0  0  0  0  0
    8.0713  -15.4111   28.3089 O   0  0  0  0  0  0  0  0  0  0  0  0
  2  1  1  0
  3  2  2  0
  4  2  1  0
  5  4  1  0
  6  5  1  0
  7  6  1  0
  8  7  1  0
  8  9  1  6
 10 11  2  0
 10  8  1  0
 12 10  1  0
 13 12  1  0
 13 14  1  1
 14 15  1  0
 16 15  1  0
 17 16  1  0
 18 17  1  0
 19 20  2  0
 19 13  1  0
 21 19  1  0
 22 21  1  0
 23 22  1  0
 24 23  1  0
 24 25  1  0
 25 26  1  1
 25 21  1  0
 26 28  1  0
 27 26  2  0
M  END
$$$$
