AEV.pdb
     RDKit          3D

 22 21  0  0  1  0  0  0  0  0999 V2000
   14.7914  -11.9072  -14.9226 C   0  0  0  0  0  0  0  0  0  0  0  0
   15.8573  -10.8524  -15.1429 C   0  0  2  0  0  0  0  0  0  0  0  0
   16.8764  -11.3544  -16.0418 N   0  0  0  0  0  0  0  0  0  0  0  0
   16.4680  -10.5143  -13.8265 C   0  0  0  0  0  0  0  0  0  0  0  0
   17.2913  -11.3112  -13.3166 O   0  0  0  0  0  0  0  0  0  0  0  0
   16.1564   -9.3308  -13.1295 N   0  0  0  0  0  0  0  0  0  0  0  0
   16.8119   -8.9694  -11.8631 C   0  0  1  0  0  0  0  0  0  0  0  0
   18.2686   -8.8077  -12.2016 C   0  0  0  0  0  0  0  0  0  0  0  0
   18.5031   -7.9213  -13.4037 C   0  0  0  0  0  0  0  0  0  0  0  0
   19.9708   -7.7803  -13.6570 C   0  0  0  0  0  0  0  0  0  0  0  0
   20.8300   -8.3016  -12.9192 O   0  0  0  0  0  0  0  0  0  0  0  0
   16.1850   -7.7831  -11.2717 C   0  0  0  0  0  0  0  0  0  0  0  0
   15.8721   -6.7628  -11.8969 O   0  0  0  0  0  0  0  0  0  0  0  0
   20.3616   -7.0419  -14.7528 O   0  0  0  0  0  0  0  0  0  0  0  0
   13.2569   -8.0425   -8.5970 C   0  0  0  0  0  0  0  0  0  0  0  0
   14.3001   -7.0787   -8.1273 C   0  0  2  0  0  0  0  0  0  0  0  0
   13.6297   -5.8288   -7.6085 C   0  0  0  0  0  0  0  0  0  0  0  0
   15.2652   -6.6642   -9.2137 C   0  0  2  0  0  0  0  0  0  0  0  0
   15.9029   -7.7839   -9.8567 N   0  0  0  0  0  0  0  0  0  0  0  0
   16.2648   -5.7010   -8.6844 C   0  0  0  0  0  0  0  0  0  0  0  0
   17.3705   -6.1044   -8.2541 O   0  0  0  0  0  0  0  0  0  0  0  0
   16.0070   -4.3435   -8.6514 O   0  0  0  0  0  0  0  0  0  0  0  0
  2  1  1  1
  2  3  1  0
  4  2  1  0
  4  6  1  0
  5  4  2  0
  7  6  1  0
  7 12  1  0
  7  8  1  6
  9  8  1  0
  9 10  1  0
 10 14  1  0
 11 10  2  0
 12 19  1  0
 12 13  2  0
 16 15  1  6
 17 16  1  0
 18 16  1  0
 18 20  1  0
 18 19  1  1
 20 22  1  0
 21 20  2  0
M  END
$$$$
