AEV.pdb
     RDKit          3D

 22 21  0  0  1  0  0  0  0  0999 V2000
   18.0058  -11.3056  -18.9812 C   0  0  0  0  0  0  0  0  0  0  0  0
   18.4763  -11.1217  -17.5522 C   0  0  2  0  0  0  0  0  0  0  0  0
   17.4608  -11.5870  -16.6298 N   0  0  0  0  0  0  0  0  0  0  0  0
   18.7400   -9.6732  -17.3232 C   0  0  0  0  0  0  0  0  0  0  0  0
   19.6480   -9.1103  -17.9801 O   0  0  0  0  0  0  0  0  0  0  0  0
   18.0074   -8.9082  -16.3950 N   0  0  0  0  0  0  0  0  0  0  0  0
   18.3104   -7.4933  -16.1302 C   0  0  1  0  0  0  0  0  0  0  0  0
   16.9844   -6.8541  -15.8206 C   0  0  0  0  0  0  0  0  0  0  0  0
   17.1051   -5.3991  -15.4279 C   0  0  0  0  0  0  0  0  0  0  0  0
   15.7457   -4.8129  -15.2123 C   0  0  0  0  0  0  0  0  0  0  0  0
   15.1082   -4.2491  -16.1234 O   0  0  0  0  0  0  0  0  0  0  0  0
   19.3150   -7.3651  -15.0698 C   0  0  0  0  0  0  0  0  0  0  0  0
   19.1740   -7.7698  -13.9096 O   0  0  0  0  0  0  0  0  0  0  0  0
   15.1999   -4.9128  -13.9509 O   0  0  0  0  0  0  0  0  0  0  0  0
   23.3816   -6.7803  -16.1748 C   0  0  0  0  0  0  0  0  0  0  0  0
   22.9118   -7.2371  -14.8301 C   0  0  2  0  0  0  0  0  0  0  0  0
   22.6957   -8.7315  -14.8563 C   0  0  0  0  0  0  0  0  0  0  0  0
   21.6145   -6.5936  -14.3985 C   0  0  2  0  0  0  0  0  0  0  0  0
   20.5688   -6.7223  -15.3803 N   0  0  0  0  0  0  0  0  0  0  0  0
   21.8354   -5.1730  -14.0241 C   0  0  0  0  0  0  0  0  0  0  0  0
   22.5759   -4.8781  -13.0571 O   0  0  0  0  0  0  0  0  0  0  0  0
   21.2359   -4.1437  -14.7253 O   0  0  0  0  0  0  0  0  0  0  0  0
  2  1  1  6
  2  3  1  0
  4  2  1  0
  4  6  1  0
  5  4  2  0
  7  6  1  0
  7 12  1  0
  7  8  1  1
  9  8  1  0
  9 10  1  0
 10 14  1  0
 11 10  2  0
 12 19  1  0
 12 13  2  0
 16 15  1  6
 17 16  1  0
 18 16  1  0
 18 20  1  0
 18 19  1  6
 20 22  1  0
 21 20  2  0
M  END
$$$$
