AEV.pdb
     RDKit          3D

 22 21  0  0  1  0  0  0  0  0999 V2000
   16.7716  -11.8306  -15.4156 C   0  0  0  0  0  0  0  0  0  0  0  0
   16.1583  -10.7048  -16.2241 C   0  0  2  0  0  0  0  0  0  0  0  0
   15.7865  -11.1821  -17.5403 N   0  0  0  0  0  0  0  0  0  0  0  0
   17.1619   -9.6106  -16.3494 C   0  0  0  0  0  0  0  0  0  0  0  0
   18.2291   -9.8337  -16.9691 O   0  0  0  0  0  0  0  0  0  0  0  0
   16.9589   -8.3308  -15.7974 N   0  0  0  0  0  0  0  0  0  0  0  0
   17.9668   -7.2640  -15.8962 C   0  0  1  0  0  0  0  0  0  0  0  0
   17.1927   -5.9769  -15.8133 C   0  0  0  0  0  0  0  0  0  0  0  0
   16.5140   -5.6086  -17.1131 C   0  0  0  0  0  0  0  0  0  0  0  0
   15.7908   -4.3077  -16.9620 C   0  0  0  0  0  0  0  0  0  0  0  0
   15.8282   -3.6398  -15.9099 O   0  0  0  0  0  0  0  0  0  0  0  0
   18.9991   -7.4254  -14.8674 C   0  0  0  0  0  0  0  0  0  0  0  0
   18.7836   -7.7551  -13.6950 O   0  0  0  0  0  0  0  0  0  0  0  0
   15.0634   -3.8524  -18.0402 O   0  0  0  0  0  0  0  0  0  0  0  0
   21.8732   -9.7162  -15.1043 C   0  0  0  0  0  0  0  0  0  0  0  0
   22.4689   -8.3906  -14.7497 C   0  0  2  0  0  0  0  0  0  0  0  0
   23.4723   -8.5743  -13.6361 C   0  0  0  0  0  0  0  0  0  0  0  0
   21.4468   -7.3799  -14.2838 C   0  0  2  0  0  0  0  0  0  0  0  0
   20.3760   -7.1870  -15.2272 N   0  0  0  0  0  0  0  0  0  0  0  0
   22.1044   -6.0931  -13.9389 C   0  0  0  0  0  0  0  0  0  0  0  0
   22.8084   -5.9955  -12.9068 O   0  0  0  0  0  0  0  0  0  0  0  0
   21.9603   -4.9755  -14.7393 O   0  0  0  0  0  0  0  0  0  0  0  0
  2  1  1  1
  2  3  1  0
  4  2  1  0
  4  6  1  0
  5  4  2  0
  7  6  1  0
  7 12  1  0
  7  8  1  1
  9  8  1  0
  9 10  1  0
 10 14  1  0
 11 10  2  0
 12 19  1  0
 12 13  2  0
 16 15  1  1
 17 16  1  0
 18 16  1  0
 18 20  1  0
 18 19  1  6
 20 22  1  0
 21 20  2  0
M  END
$$$$
