AEV.pdb
     RDKit          3D

 22 21  0  0  1  0  0  0  0  0999 V2000
   29.0802  -23.1891  -16.6015 C   0  0  0  0  0  0  0  0  0  0  0  0
   28.3075  -22.1482  -17.3868 C   0  0  2  0  0  0  0  0  0  0  0  0
   29.2206  -21.3160  -18.1433 N   0  0  0  0  0  0  0  0  0  0  0  0
   27.5362  -21.3081  -16.4279 C   0  0  0  0  0  0  0  0  0  0  0  0
   28.1515  -20.4793  -15.7156 O   0  0  0  0  0  0  0  0  0  0  0  0
   26.1382  -21.4080  -16.2892 N   0  0  0  0  0  0  0  0  0  0  0  0
   25.3736  -20.5312  -15.3890 C   0  0  1  0  0  0  0  0  0  0  0  0
   24.2117  -20.0376  -16.2070 C   0  0  0  0  0  0  0  0  0  0  0  0
   23.2406  -19.1964  -15.4102 C   0  0  0  0  0  0  0  0  0  0  0  0
   22.0700  -18.8208  -16.2627 C   0  0  0  0  0  0  0  0  0  0  0  0
   22.2017  -18.3288  -17.4007 O   0  0  0  0  0  0  0  0  0  0  0  0
   25.0008  -21.2419  -14.1617 C   0  0  0  0  0  0  0  0  0  0  0  0
   24.5160  -22.3791  -14.1226 O   0  0  0  0  0  0  0  0  0  0  0  0
   20.8100  -19.0366  -15.7482 O   0  0  0  0  0  0  0  0  0  0  0  0
   25.4184  -21.5407   -9.2289 C   0  0  0  0  0  0  0  0  0  0  0  0
   25.7470  -20.8339  -10.5057 C   0  0  2  0  0  0  0  0  0  0  0  0
   25.6285  -19.3428  -10.2974 C   0  0  0  0  0  0  0  0  0  0  0  0
   24.8358  -21.2108  -11.6507 C   0  0  2  0  0  0  0  0  0  0  0  0
   25.2061  -20.5848  -12.8936 N   0  0  0  0  0  0  0  0  0  0  0  0
   23.4185  -20.9316  -11.3037 C   0  0  0  0  0  0  0  0  0  0  0  0
   22.8350  -21.6054  -10.4228 O   0  0  0  0  0  0  0  0  0  0  0  0
   22.7078  -19.9294  -11.9368 O   0  0  0  0  0  0  0  0  0  0  0  0
  2  1  1  1
  2  3  1  0
  4  2  1  0
  4  6  1  0
  5  4  2  0
  7  6  1  0
  7 12  1  0
  7  8  1  6
  9  8  1  0
  9 10  1  0
 10 14  1  0
 11 10  2  0
 12 19  1  0
 12 13  2  0
 16 15  1  1
 17 16  1  0
 18 16  1  0
 18 20  1  0
 18 19  1  6
 20 22  1  0
 21 20  2  0
M  END
$$$$
