AEV.pdb
     RDKit          3D

 22 21  0  0  1  0  0  0  0  0999 V2000
   17.8285  -11.2325  -17.1767 C   0  0  0  0  0  0  0  0  0  0  0  0
   19.1572  -10.8971  -16.5291 C   0  0  2  0  0  0  0  0  0  0  0  0
   19.6365  -12.0281  -15.7612 N   0  0  0  0  0  0  0  0  0  0  0  0
   18.9635   -9.7237  -15.6315 C   0  0  0  0  0  0  0  0  0  0  0  0
   18.2498   -9.8533  -14.6084 O   0  0  0  0  0  0  0  0  0  0  0  0
   19.5523   -8.4701  -15.8872 N   0  0  0  0  0  0  0  0  0  0  0  0
   19.3444   -7.3104  -15.0064 C   0  0  1  0  0  0  0  0  0  0  0  0
   20.7229   -6.8737  -14.5921 C   0  0  0  0  0  0  0  0  0  0  0  0
   20.7163   -5.6402  -13.7180 C   0  0  0  0  0  0  0  0  0  0  0  0
   22.1190   -5.2477  -13.3764 C   0  0  0  0  0  0  0  0  0  0  0  0
   22.7888   -4.4730  -14.0873 O   0  0  0  0  0  0  0  0  0  0  0  0
   18.5519   -6.2782  -15.6821 C   0  0  0  0  0  0  0  0  0  0  0  0
   18.7630   -5.8612  -16.8272 O   0  0  0  0  0  0  0  0  0  0  0  0
   22.6681   -5.7756  -12.2280 O   0  0  0  0  0  0  0  0  0  0  0  0
   14.5882   -5.4466  -14.3217 C   0  0  0  0  0  0  0  0  0  0  0  0
   15.1589   -5.0441  -15.6446 C   0  0  2  0  0  0  0  0  0  0  0  0
   15.0259   -6.1917  -16.6174 C   0  0  0  0  0  0  0  0  0  0  0  0
   16.6208   -4.6678  -15.5767 C   0  0  2  0  0  0  0  0  0  0  0  0
   17.4379   -5.6912  -14.9776 N   0  0  0  0  0  0  0  0  0  0  0  0
   16.7927   -3.3633  -14.8869 C   0  0  0  0  0  0  0  0  0  0  0  0
   17.3471   -3.3059  -13.7644 O   0  0  0  0  0  0  0  0  0  0  0  0
   16.3502   -2.1849  -15.4577 O   0  0  0  0  0  0  0  0  0  0  0  0
  2  1  1  1
  2  3  1  0
  4  2  1  0
  4  6  1  0
  5  4  2  0
  7  6  1  0
  7 12  1  0
  7  8  1  6
  9  8  1  0
  9 10  1  0
 10 14  1  0
 11 10  2  0
 12 19  1  0
 12 13  2  0
 16 15  1  1
 17 16  1  0
 18 16  1  0
 18 20  1  0
 18 19  1  1
 20 22  1  0
 21 20  2  0
M  END
$$$$
