AEV.pdb
     RDKit          3D

 22 21  0  0  1  0  0  0  0  0999 V2000
   20.1929  -15.2446  -19.5168 C   0  0  0  0  0  0  0  0  0  0  0  0
   19.3824  -14.1585  -18.8380 C   0  0  2  0  0  0  0  0  0  0  0  0
   18.3771  -13.6461  -19.7465 N   0  0  0  0  0  0  0  0  0  0  0  0
   20.3055  -13.0602  -18.4358 C   0  0  0  0  0  0  0  0  0  0  0  0
   21.2335  -13.3115  -17.6304 O   0  0  0  0  0  0  0  0  0  0  0  0
   20.1769  -11.7461  -18.9259 N   0  0  0  0  0  0  0  0  0  0  0  0
   21.0608  -10.6547  -18.4884 C   0  0  1  0  0  0  0  0  0  0  0  0
   21.0792   -9.6760  -19.6305 C   0  0  0  0  0  0  0  0  0  0  0  0
   22.0433  -10.0642  -20.7284 C   0  0  0  0  0  0  0  0  0  0  0  0
   22.0002   -9.0517  -21.8289 C   0  0  0  0  0  0  0  0  0  0  0  0
   21.4005   -9.2560  -22.9027 O   0  0  0  0  0  0  0  0  0  0  0  0
   20.6066  -10.0968  -17.2106 C   0  0  0  0  0  0  0  0  0  0  0  0
   19.4251  -10.0181  -16.8534 O   0  0  0  0  0  0  0  0  0  0  0  0
   22.6554   -7.8570  -21.6235 O   0  0  0  0  0  0  0  0  0  0  0  0
   21.3867   -9.4676  -12.4996 C   0  0  0  0  0  0  0  0  0  0  0  0
   21.7164   -9.9953  -13.8600 C   0  0  2  0  0  0  0  0  0  0  0  0
   23.2148  -10.1241  -13.9975 C   0  0  0  0  0  0  0  0  0  0  0  0
   21.2277   -9.1079  -14.9813 C   0  0  2  0  0  0  0  0  0  0  0  0
   21.5943   -9.5963  -16.2855 N   0  0  0  0  0  0  0  0  0  0  0  0
   21.6851   -7.7092  -14.7774 C   0  0  0  0  0  0  0  0  0  0  0  0
   22.6062   -7.2325  -15.4809 O   0  0  0  0  0  0  0  0  0  0  0  0
   21.1132   -6.8995  -13.8142 O   0  0  0  0  0  0  0  0  0  0  0  0
  2  1  1  6
  2  3  1  0
  4  2  1  0
  4  6  1  0
  5  4  2  0
  7  6  1  0
  7 12  1  0
  7  8  1  6
  9  8  1  0
  9 10  1  0
 10 14  1  0
 11 10  2  0
 12 19  1  0
 12 13  2  0
 16 15  1  1
 17 16  1  0
 18 16  1  0
 18 20  1  0
 18 19  1  6
 20 22  1  0
 21 20  2  0
M  END
$$$$
