AEV.pdb
     RDKit          3D

 22 21  0  0  1  0  0  0  0  0999 V2000
   14.5582  -13.5081  -13.4930 C   0  0  0  0  0  0  0  0  0  0  0  0
   14.0766  -12.0735  -13.5774 C   0  0  2  0  0  0  0  0  0  0  0  0
   14.1013  -11.6201  -14.9531 N   0  0  0  0  0  0  0  0  0  0  0  0
   14.9769  -11.2224  -12.7496 C   0  0  0  0  0  0  0  0  0  0  0  0
   15.0473  -11.4344  -11.5155 O   0  0  0  0  0  0  0  0  0  0  0  0
   15.7549  -10.1854  -13.3000 N   0  0  0  0  0  0  0  0  0  0  0  0
   16.6559   -9.3600  -12.4810 C   0  0  1  0  0  0  0  0  0  0  0  0
   17.7372   -8.9001  -13.4201 C   0  0  0  0  0  0  0  0  0  0  0  0
   18.7135   -7.9419  -12.7764 C   0  0  0  0  0  0  0  0  0  0  0  0
   19.7349   -7.5027  -13.7774 C   0  0  0  0  0  0  0  0  0  0  0  0
   20.6543   -6.7107  -13.4915 O   0  0  0  0  0  0  0  0  0  0  0  0
   15.9168   -8.2789  -11.8213 C   0  0  0  0  0  0  0  0  0  0  0  0
   15.1371   -7.5056  -12.3903 O   0  0  0  0  0  0  0  0  0  0  0  0
   19.6338   -8.0067  -15.0560 O   0  0  0  0  0  0  0  0  0  0  0  0
   13.6143   -8.4811   -8.8110 C   0  0  0  0  0  0  0  0  0  0  0  0
   14.6756   -7.4778   -8.4876 C   0  0  2  0  0  0  0  0  0  0  0  0
   14.0404   -6.2644   -7.8512 C   0  0  0  0  0  0  0  0  0  0  0  0
   15.4462   -7.0091   -9.7000 C   0  0  2  0  0  0  0  0  0  0  0  0
   16.0971   -8.0843  -10.4030 N   0  0  0  0  0  0  0  0  0  0  0  0
   16.4111   -5.9433   -9.3256 C   0  0  0  0  0  0  0  0  0  0  0  0
   17.6186   -6.2178   -9.1329 O   0  0  0  0  0  0  0  0  0  0  0  0
   16.0089   -4.6290   -9.1800 O   0  0  0  0  0  0  0  0  0  0  0  0
  2  1  1  6
  2  3  1  0
  4  2  1  0
  4  6  1  0
  5  4  2  0
  7  6  1  0
  7 12  1  0
  7  8  1  6
  9  8  1  0
  9 10  1  0
 10 14  1  0
 11 10  2  0
 12 19  1  0
 12 13  2  0
 16 15  1  6
 17 16  1  0
 18 16  1  0
 18 20  1  0
 18 19  1  1
 20 22  1  0
 21 20  2  0
M  END
$$$$
