KCE.pdb
     RDKit          3D

 25 24  0  0  1  0  0  0  0  0999 V2000
   19.2527  -13.4939  -16.3819 N   0  0  0  0  0  0  0  0  0  0  0  0
   19.2764  -12.1306  -16.6650 C   0  0  1  0  0  0  0  0  0  0  0  0
   18.0101  -11.5162  -17.0849 C   0  0  0  0  0  0  0  0  0  0  0  0
   17.0131  -12.1712  -17.8810 C   0  0  0  0  0  0  0  0  0  0  0  0
   15.9039  -13.0230  -17.6010 C   0  0  0  0  0  0  0  0  0  0  0  0
   14.8599  -13.5180  -18.4870 C   0  0  0  0  0  0  0  0  0  0  0  0
   13.8325  -14.3047  -17.9011 N   0  0  0  0  0  0  0  0  0  0  0  0
   19.9663  -11.3199  -15.5976 C   0  0  0  0  0  0  0  0  0  0  0  0
   19.5687  -11.4357  -14.4134 O   0  0  0  0  0  0  0  0  0  0  0  0
   21.0295  -10.4373  -15.8311 N   0  0  0  0  0  0  0  0  0  0  0  0
   21.7334   -9.6940  -14.8404 C   0  0  1  0  0  0  0  0  0  0  0  0
   23.1125  -10.1927  -14.5424 C   0  0  0  0  0  0  0  0  0  0  0  0
   23.3131  -11.9505  -14.7927 S   0  0  0  0  0  0  0  0  0  0  0  0
   21.7040   -8.2546  -15.1876 C   0  0  0  0  0  0  0  0  0  0  0  0
   21.8082   -7.8793  -16.3855 O   0  0  0  0  0  0  0  0  0  0  0  0
   21.5593   -7.2195  -14.2140 N   0  0  0  0  0  0  0  0  0  0  0  0
   21.4987   -5.8283  -14.5402 C   0  0  1  0  0  0  0  0  0  0  0  0
   20.0469   -5.4278  -14.8208 C   0  0  0  0  0  0  0  0  0  0  0  0
   19.9522   -3.9538  -15.1458 C   0  0  0  0  0  0  0  0  0  0  0  0
   18.5160   -3.6619  -15.4038 C   0  0  0  0  0  0  0  0  0  0  0  0
   17.9135   -2.6755  -14.9064 O   0  0  0  0  0  0  0  0  0  0  0  0
   22.0841   -4.9653  -13.4845 C   0  0  0  0  0  0  0  0  0  0  0  0
   22.1910   -5.4327  -12.3250 O   0  0  0  0  0  0  0  0  0  0  0  0
   17.7443   -4.4923  -16.2343 O   0  0  0  0  0  0  0  0  0  0  0  0
   22.5223   -3.6709  -13.6965 O   0  0  0  0  0  0  0  0  0  0  0  0
  2  8  1  0
  2  1  1  1
  3  2  1  0
  4  3  1  0
  5  4  1  0
  6  5  1  0
  6  7  1  0
  8  9  2  0
 10 11  1  0
 10  8  1  0
 12 13  1  0
 11 12  1  6
 14 15  2  0
 14 11  1  0
 16 14  1  0
 17 16  1  0
 17 22  1  0
 17 18  1  1
 19 20  1  0
 19 18  1  0
 20 21  2  0
 22 25  1  0
 23 22  2  0
 24 20  1  0
M  END
$$$$
