KCE.pdb
     RDKit          3D

 25 24  0  0  1  0  0  0  0  0999 V2000
   19.0185  -13.4813  -15.3017 N   0  0  0  0  0  0  0  0  0  0  0  0
   19.0472  -12.4185  -16.2011 C   0  0  1  0  0  0  0  0  0  0  0  0
   17.7537  -11.9365  -16.7029 C   0  0  0  0  0  0  0  0  0  0  0  0
   16.7745  -12.7604  -17.3503 C   0  0  0  0  0  0  0  0  0  0  0  0
   15.8894  -13.7936  -16.9223 C   0  0  0  0  0  0  0  0  0  0  0  0
   14.8637  -14.5116  -17.6656 C   0  0  0  0  0  0  0  0  0  0  0  0
   13.5977  -13.8808  -17.7965 N   0  0  0  0  0  0  0  0  0  0  0  0
   19.9292  -11.2846  -15.7440 C   0  0  0  0  0  0  0  0  0  0  0  0
   19.6233  -10.6828  -14.6868 O   0  0  0  0  0  0  0  0  0  0  0  0
   21.0773  -10.8477  -16.4185 N   0  0  0  0  0  0  0  0  0  0  0  0
   21.9389   -9.7906  -16.0067 C   0  0  1  0  0  0  0  0  0  0  0  0
   23.3711  -10.1828  -15.8218 C   0  0  0  0  0  0  0  0  0  0  0  0
   23.6270  -11.3889  -14.5285 S   0  0  0  0  0  0  0  0  0  0  0  0
   21.7713   -8.6330  -16.9151 C   0  0  0  0  0  0  0  0  0  0  0  0
   21.9557   -8.7561  -18.1550 O   0  0  0  0  0  0  0  0  0  0  0  0
   21.3990   -7.3311  -16.4602 N   0  0  0  0  0  0  0  0  0  0  0  0
   21.2898   -6.1932  -17.3196 C   0  0  1  0  0  0  0  0  0  0  0  0
   20.3177   -5.1784  -16.7095 C   0  0  0  0  0  0  0  0  0  0  0  0
   18.8961   -5.6895  -16.7824 C   0  0  0  0  0  0  0  0  0  0  0  0
   18.5436   -6.1750  -15.4205 C   0  0  0  0  0  0  0  0  0  0  0  0
   18.0032   -7.2908  -15.2055 O   0  0  0  0  0  0  0  0  0  0  0  0
   22.6012   -5.5574  -17.5993 C   0  0  0  0  0  0  0  0  0  0  0  0
   22.6293   -4.5620  -18.3627 O   0  0  0  0  0  0  0  0  0  0  0  0
   18.8026   -5.3934  -14.2816 O   0  0  0  0  0  0  0  0  0  0  0  0
   23.8022   -5.9932  -17.0701 O   0  0  0  0  0  0  0  0  0  0  0  0
  2  8  1  0
  2  1  1  1
  3  2  1  0
  4  3  1  0
  5  4  1  0
  6  5  1  0
  6  7  1  0
  8  9  2  0
 10 11  1  0
 10  8  1  0
 12 13  1  0
 11 12  1  6
 14 15  2  0
 14 11  1  0
 16 14  1  0
 17 16  1  0
 17 22  1  0
 17 18  1  1
 19 20  1  0
 19 18  1  0
 20 21  2  0
 22 25  1  0
 23 22  2  0
 24 20  1  0
M  END
$$$$
