KCE.pdb
     RDKit          3D

 25 24  0  0  1  0  0  0  0  0999 V2000
   27.3943  -19.3834  -16.4135 N   0  0  0  0  0  0  0  0  0  0  0  0
   26.0255  -19.1700  -16.2711 C   0  0  1  0  0  0  0  0  0  0  0  0
   25.2479  -18.9933  -17.5045 C   0  0  0  0  0  0  0  0  0  0  0  0
   25.5505  -18.0335  -18.5262 C   0  0  0  0  0  0  0  0  0  0  0  0
   25.2451  -16.6557  -18.7327 C   0  0  0  0  0  0  0  0  0  0  0  0
   25.5551  -15.7896  -19.8613 C   0  0  0  0  0  0  0  0  0  0  0  0
   25.2505  -14.4093  -19.7213 N   0  0  0  0  0  0  0  0  0  0  0  0
   25.3718  -20.1510  -15.3315 C   0  0  0  0  0  0  0  0  0  0  0  0
   24.4960  -20.9219  -15.7924 O   0  0  0  0  0  0  0  0  0  0  0  0
   25.6719  -20.2677  -13.9677 N   0  0  0  0  0  0  0  0  0  0  0  0
   25.0893  -21.1972  -13.0588 C   0  0  1  0  0  0  0  0  0  0  0  0
   25.9118  -21.4868  -11.8426 C   0  0  0  0  0  0  0  0  0  0  0  0
   27.6468  -21.7369  -12.1886 S   0  0  0  0  0  0  0  0  0  0  0  0
   23.7087  -20.7718  -12.7326 C   0  0  0  0  0  0  0  0  0  0  0  0
   23.5003  -19.8214  -11.9328 O   0  0  0  0  0  0  0  0  0  0  0  0
   22.5486  -21.3934  -13.2876 N   0  0  0  0  0  0  0  0  0  0  0  0
   21.2106  -21.0139  -12.9541 C   0  0  1  0  0  0  0  0  0  0  0  0
   20.8241  -19.7521  -13.7321 C   0  0  0  0  0  0  0  0  0  0  0  0
   20.1551  -20.1140  -15.0394 C   0  0  0  0  0  0  0  0  0  0  0  0
   19.7864  -18.8337  -15.7023 C   0  0  0  0  0  0  0  0  0  0  0  0
   20.0200  -17.7047  -15.1982 O   0  0  0  0  0  0  0  0  0  0  0  0
   20.2286  -22.0993  -13.1979 C   0  0  0  0  0  0  0  0  0  0  0  0
   19.0658  -21.9625  -12.7467 O   0  0  0  0  0  0  0  0  0  0  0  0
   19.1446  -18.8221  -16.9524 O   0  0  0  0  0  0  0  0  0  0  0  0
   20.5130  -23.2596  -13.8946 O   0  0  0  0  0  0  0  0  0  0  0  0
  2  8  1  0
  2  1  1  6
  3  2  1  0
  4  3  1  0
  5  4  1  0
  6  5  1  0
  6  7  1  0
  8  9  2  0
 10 11  1  0
 10  8  1  0
 12 13  1  0
 11 12  1  1
 14 15  2  0
 14 11  1  0
 16 14  1  0
 17 16  1  0
 17 22  1  0
 17 18  1  6
 19 20  1  0
 19 18  1  0
 20 21  2  0
 22 25  1  0
 23 22  2  0
 24 20  1  0
M  END
$$$$
