KCE.pdb
     RDKit          3D

 25 24  0  0  1  0  0  0  0  0999 V2000
   21.0933  -16.1322  -16.5409 N   0  0  0  0  0  0  0  0  0  0  0  0
   20.9752  -14.8930  -17.1654 C   0  0  1  0  0  0  0  0  0  0  0  0
   19.6928  -14.5957  -17.8167 C   0  0  0  0  0  0  0  0  0  0  0  0
   18.5637  -15.4798  -17.8309 C   0  0  0  0  0  0  0  0  0  0  0  0
   18.1112  -16.5177  -18.6981 C   0  0  0  0  0  0  0  0  0  0  0  0
   16.8881  -17.3065  -18.6514 C   0  0  0  0  0  0  0  0  0  0  0  0
   16.6438  -18.0530  -17.4679 N   0  0  0  0  0  0  0  0  0  0  0  0
   21.4426  -13.7509  -16.2996 C   0  0  0  0  0  0  0  0  0  0  0  0
   20.6114  -13.2075  -15.5331 O   0  0  0  0  0  0  0  0  0  0  0  0
   22.7496  -13.2454  -16.2863 N   0  0  0  0  0  0  0  0  0  0  0  0
   23.2164  -12.1522  -15.5011 C   0  0  1  0  0  0  0  0  0  0  0  0
   24.6970  -12.1200  -15.2860 C   0  0  0  0  0  0  0  0  0  0  0  0
   25.3168  -13.4972  -14.3311 S   0  0  0  0  0  0  0  0  0  0  0  0
   22.6869  -10.8842  -16.0533 C   0  0  0  0  0  0  0  0  0  0  0  0
   22.3864  -10.7892  -17.2728 O   0  0  0  0  0  0  0  0  0  0  0  0
   22.4856   -9.7120  -15.2622 N   0  0  0  0  0  0  0  0  0  0  0  0
   21.8212   -8.5389  -15.7396 C   0  0  1  0  0  0  0  0  0  0  0  0
   20.3765   -8.8824  -16.1160 C   0  0  0  0  0  0  0  0  0  0  0  0
   19.6110   -7.6337  -16.4931 C   0  0  0  0  0  0  0  0  0  0  0  0
   18.2320   -8.0659  -16.8487 C   0  0  0  0  0  0  0  0  0  0  0  0
   17.3158   -8.2132  -15.9990 O   0  0  0  0  0  0  0  0  0  0  0  0
   21.8552   -7.4225  -14.7626 C   0  0  0  0  0  0  0  0  0  0  0  0
   21.9246   -7.7020  -13.5414 O   0  0  0  0  0  0  0  0  0  0  0  0
   17.8772   -8.3370  -18.1812 O   0  0  0  0  0  0  0  0  0  0  0  0
   21.8149   -6.0852  -15.1125 O   0  0  0  0  0  0  0  0  0  0  0  0
  2  8  1  0
  2  1  1  1
  3  2  1  0
  4  3  1  0
  5  4  1  0
  6  5  1  0
  6  7  1  0
  8  9  2  0
 10 11  1  0
 10  8  1  0
 12 13  1  0
 11 12  1  6
 14 15  2  0
 14 11  1  0
 16 14  1  0
 17 16  1  0
 17 22  1  0
 17 18  1  1
 19 20  1  0
 19 18  1  0
 20 21  2  0
 22 25  1  0
 23 22  2  0
 24 20  1  0
M  END
$$$$
