PGN.pdb
     RDKit          3D

 20 20  0  0  1  0  0  0  0  0999 V2000
    7.4042  -15.4434   19.9637 N   0  0  0  0  0  0  0  0  0  0  0  0
    6.3346  -14.4911   20.0808 C   0  0  0  0  0  0  0  0  0  0  0  0
    6.8199  -13.2449   19.3216 C   0  0  0  0  0  0  0  0  0  0  0  0
    8.3109  -13.3493   19.6714 C   0  0  0  0  0  0  0  0  0  0  0  0
    8.5414  -14.8159   19.3708 C   0  0  1  0  0  0  0  0  0  0  0  0
    9.8259  -15.2759   19.8967 C   0  0  0  0  0  0  0  0  0  0  0  0
   10.8805  -14.7091   19.5348 O   0  0  0  0  0  0  0  0  0  0  0  0
    9.9006  -16.3527   20.8089 N   0  0  0  0  0  0  0  0  0  0  0  0
   11.1245  -16.7237   21.5109 C   0  0  0  0  0  0  0  0  0  0  0  0
   10.9342  -16.6152   22.9859 C   0  0  0  0  0  0  0  0  0  0  0  0
   11.9595  -16.6701   23.7143 O   0  0  0  0  0  0  0  0  0  0  0  0
    9.0177  -13.7769   24.4958 N   0  0  0  0  0  0  0  0  0  0  0  0
    7.9741  -14.5302   25.0940 C   0  0  0  0  0  0  0  0  0  0  0  0
    6.8486  -14.0143   25.3119 O   0  0  0  0  0  0  0  0  0  0  0  0
    8.2451  -15.9133   25.4458 C   0  0  0  0  0  0  0  0  0  0  0  0
    9.6055  -16.4408   25.0692 C   0  0  2  0  0  0  0  0  0  0  0  0
    9.6824  -16.4573   23.5914 N   0  0  0  0  0  0  0  0  0  0  0  0
    9.8318  -17.8283   25.5616 C   0  0  0  0  0  0  0  0  0  0  0  0
   10.1461  -17.9928   26.7615 O   0  0  0  0  0  0  0  0  0  0  0  0
    9.7089  -18.9252   24.7570 O   0  0  0  0  0  0  0  0  0  0  0  0
  1  2  1  0
  2  3  1  0
  4  3  1  0
  5  1  1  0
  5  4  1  0
  5  6  1  1
  7  6  2  0
  8  6  1  0
  9  8  1  0
 10  9  1  0
 10 17  1  0
 11 10  2  0
 13 12  1  0
 14 13  2  0
 15 13  1  0
 16 17  1  0
 16 15  1  6
 18 16  1  0
 19 18  2  0
 20 18  1  0
M  END
$$$$
