PGN.pdb
     RDKit          3D

 20 20  0  0  1  0  0  0  0  0999 V2000
    8.9637  -14.2283   18.1636 N   0  0  0  0  0  0  0  0  0  0  0  0
    7.8926  -13.5928   17.4470 C   0  0  0  0  0  0  0  0  0  0  0  0
    7.1881  -12.7012   18.4831 C   0  0  0  0  0  0  0  0  0  0  0  0
    7.3743  -13.6087   19.7071 C   0  0  0  0  0  0  0  0  0  0  0  0
    8.8445  -13.9409   19.5570 C   0  0  1  0  0  0  0  0  0  0  0  0
    9.2380  -15.0420   20.4351 C   0  0  0  0  0  0  0  0  0  0  0  0
    9.0486  -14.9473   21.6678 O   0  0  0  0  0  0  0  0  0  0  0  0
    9.8309  -16.2157   19.9173 N   0  0  0  0  0  0  0  0  0  0  0  0
   10.1285  -17.3886   20.7322 C   0  0  0  0  0  0  0  0  0  0  0  0
   11.1812  -17.0714   21.7397 C   0  0  0  0  0  0  0  0  0  0  0  0
   12.2822  -16.6306   21.3173 O   0  0  0  0  0  0  0  0  0  0  0  0
   10.2881  -15.0673   24.8368 N   0  0  0  0  0  0  0  0  0  0  0  0
   10.6544  -16.0361   25.8073 C   0  0  0  0  0  0  0  0  0  0  0  0
   10.1439  -16.0242   26.9560 O   0  0  0  0  0  0  0  0  0  0  0  0
   11.6351  -17.0404   25.4335 C   0  0  0  0  0  0  0  0  0  0  0  0
   12.1482  -16.9744   24.0182 C   0  0  2  0  0  0  0  0  0  0  0  0
   11.0041  -17.2393   23.1177 N   0  0  0  0  0  0  0  0  0  0  0  0
   13.1983  -17.9955   23.7475 C   0  0  0  0  0  0  0  0  0  0  0  0
   14.3941  -17.6938   23.9596 O   0  0  0  0  0  0  0  0  0  0  0  0
   12.9079  -19.2453   23.2793 O   0  0  0  0  0  0  0  0  0  0  0  0
  1  2  1  0
  2  3  1  0
  4  3  1  0
  5  1  1  0
  5  4  1  0
  5  6  1  1
  7  6  2  0
  8  6  1  0
  9  8  1  0
 10  9  1  0
 10 17  1  0
 11 10  2  0
 13 12  1  0
 14 13  2  0
 15 13  1  0
 16 17  1  0
 16 15  1  1
 18 16  1  0
 19 18  2  0
 20 18  1  0
M  END
$$$$
