PGN.pdb
     RDKit          3D

 20 20  0  0  1  0  0  0  0  0999 V2000
    7.5307  -13.9370   18.1776 N   0  0  0  0  0  0  0  0  0  0  0  0
    8.5883  -13.2542   17.4849 C   0  0  0  0  0  0  0  0  0  0  0  0
    9.8761  -13.9912   17.8890 C   0  0  0  0  0  0  0  0  0  0  0  0
    9.4805  -14.3364   19.3315 C   0  0  0  0  0  0  0  0  0  0  0  0
    8.0884  -14.8826   19.0905 C   0  0  1  0  0  0  0  0  0  0  0  0
    7.3438  -15.0242   20.3410 C   0  0  0  0  0  0  0  0  0  0  0  0
    6.9626  -16.1575   20.7082 O   0  0  0  0  0  0  0  0  0  0  0  0
    7.0444  -13.9022   21.1463 N   0  0  0  0  0  0  0  0  0  0  0  0
    6.2819  -13.9880   22.3871 C   0  0  0  0  0  0  0  0  0  0  0  0
    6.9959  -14.8398   23.3813 C   0  0  0  0  0  0  0  0  0  0  0  0
    6.4514  -15.0121   24.5032 O   0  0  0  0  0  0  0  0  0  0  0  0
    6.5994  -17.1961   25.4585 N   0  0  0  0  0  0  0  0  0  0  0  0
    7.3493  -18.1283   24.6949 C   0  0  0  0  0  0  0  0  0  0  0  0
    6.9803  -19.3258   24.5944 O   0  0  0  0  0  0  0  0  0  0  0  0
    8.5539  -17.6575   24.0336 C   0  0  0  0  0  0  0  0  0  0  0  0
    8.8885  -16.2001   24.2201 C   0  0  2  0  0  0  0  0  0  0  0  0
    8.2299  -15.4495   23.1279 N   0  0  0  0  0  0  0  0  0  0  0  0
   10.3533  -15.9404   24.1445 C   0  0  0  0  0  0  0  0  0  0  0  0
   11.0706  -16.2768   25.1130 O   0  0  0  0  0  0  0  0  0  0  0  0
   10.9427  -15.3521   23.0618 O   0  0  0  0  0  0  0  0  0  0  0  0
  1  2  1  0
  2  3  1  0
  4  3  1  0
  5  1  1  0
  5  4  1  0
  5  6  1  1
  7  6  2  0
  8  6  1  0
  9  8  1  0
 10  9  1  0
 10 17  1  0
 11 10  2  0
 13 12  1  0
 14 13  2  0
 15 13  1  0
 16 17  1  0
 16 15  1  6
 18 16  1  0
 19 18  2  0
 20 18  1  0
M  END
$$$$
