PGN.pdb
     RDKit          3D

 20 20  0  0  1  0  0  0  0  0999 V2000
    8.8474  -14.1465   18.1689 N   0  0  0  0  0  0  0  0  0  0  0  0
    7.7808  -13.4625   17.4913 C   0  0  0  0  0  0  0  0  0  0  0  0
    7.2963  -12.3906   18.4820 C   0  0  0  0  0  0  0  0  0  0  0  0
    7.5143  -13.1839   19.7779 C   0  0  0  0  0  0  0  0  0  0  0  0
    8.9137  -13.7057   19.5253 C   0  0  1  0  0  0  0  0  0  0  0  0
    9.2773  -14.7507   20.4813 C   0  0  0  0  0  0  0  0  0  0  0  0
    9.3007  -14.4885   21.7041 O   0  0  0  0  0  0  0  0  0  0  0  0
    9.6047  -16.0561   20.0502 N   0  0  0  0  0  0  0  0  0  0  0  0
    9.9921  -17.1268   20.9624 C   0  0  0  0  0  0  0  0  0  0  0  0
   11.4305  -17.0006   21.3351 C   0  0  0  0  0  0  0  0  0  0  0  0
   12.0169  -18.0290   21.7632 O   0  0  0  0  0  0  0  0  0  0  0  0
   14.0454  -16.1407   18.7475 N   0  0  0  0  0  0  0  0  0  0  0  0
   14.3748  -14.8721   19.2921 C   0  0  0  0  0  0  0  0  0  0  0  0
   14.7880  -13.9409   18.5555 O   0  0  0  0  0  0  0  0  0  0  0  0
   14.2197  -14.6823   20.7239 C   0  0  0  0  0  0  0  0  0  0  0  0
   13.6087  -15.8306   21.4846 C   0  0  2  0  0  0  0  0  0  0  0  0
   12.1507  -15.8050   21.2326 N   0  0  0  0  0  0  0  0  0  0  0  0
   13.8281  -15.7183   22.9536 C   0  0  0  0  0  0  0  0  0  0  0  0
   14.9987  -15.7892   23.3901 O   0  0  0  0  0  0  0  0  0  0  0  0
   12.8046  -15.5404   23.8403 O   0  0  0  0  0  0  0  0  0  0  0  0
  1  2  1  0
  2  3  1  0
  4  3  1  0
  5  1  1  0
  5  4  1  0
  5  6  1  1
  7  6  2  0
  8  6  1  0
  9  8  1  0
 10  9  1  0
 10 17  1  0
 11 10  2  0
 13 12  1  0
 14 13  2  0
 15 13  1  0
 16 17  1  0
 16 15  1  6
 18 16  1  0
 19 18  2  0
 20 18  1  0
M  END
$$$$
