PGN.pdb
     RDKit          3D

 20 20  0  0  1  0  0  0  0  0999 V2000
    8.1639  -15.1237   19.7094 N   0  0  0  0  0  0  0  0  0  0  0  0
    8.0790  -14.2625   18.5623 C   0  0  0  0  0  0  0  0  0  0  0  0
    8.0139  -12.8361   19.1335 C   0  0  0  0  0  0  0  0  0  0  0  0
    7.2039  -13.1501   20.3991 C   0  0  0  0  0  0  0  0  0  0  0  0
    7.9691  -14.3581   20.8986 C   0  0  1  0  0  0  0  0  0  0  0  0
    7.2371  -15.0585   21.9530 C   0  0  0  0  0  0  0  0  0  0  0  0
    7.0609  -14.5004   23.0584 O   0  0  0  0  0  0  0  0  0  0  0  0
    6.7228  -16.3587   21.7479 N   0  0  0  0  0  0  0  0  0  0  0  0
    6.0825  -17.1413   22.7996 C   0  0  0  0  0  0  0  0  0  0  0  0
    7.1080  -17.7632   23.6859 C   0  0  0  0  0  0  0  0  0  0  0  0
    7.5570  -18.8930   23.3591 O   0  0  0  0  0  0  0  0  0  0  0  0
    9.7390  -14.7168   24.8837 N   0  0  0  0  0  0  0  0  0  0  0  0
   10.2884  -15.9630   25.2830 C   0  0  0  0  0  0  0  0  0  0  0  0
   11.3973  -16.3524   24.8368 O   0  0  0  0  0  0  0  0  0  0  0  0
    9.5322  -16.7736   26.2218 C   0  0  0  0  0  0  0  0  0  0  0  0
    8.6519  -17.8392   25.6215 C   0  0  2  0  0  0  0  0  0  0  0  0
    7.5888  -17.1558   24.8515 N   0  0  0  0  0  0  0  0  0  0  0  0
    8.0017  -18.6881   26.6584 C   0  0  0  0  0  0  0  0  0  0  0  0
    6.7777  -18.5390   26.8713 O   0  0  0  0  0  0  0  0  0  0  0  0
    8.6871  -19.6210   27.3833 O   0  0  0  0  0  0  0  0  0  0  0  0
  1  2  1  0
  2  3  1  0
  4  3  1  0
  5  1  1  0
  5  4  1  0
  5  6  1  1
  7  6  2  0
  8  6  1  0
  9  8  1  0
 10  9  1  0
 10 17  1  0
 11 10  2  0
 13 12  1  0
 14 13  2  0
 15 13  1  0
 16 17  1  0
 16 15  1  1
 18 16  1  0
 19 18  2  0
 20 18  1  0
M  END
$$$$
