PGN.pdb
     RDKit          3D

 20 20  0  0  1  0  0  0  0  0999 V2000
    7.4976  -14.5159   19.9661 N   0  0  0  0  0  0  0  0  0  0  0  0
    7.2754  -13.1897   20.4725 C   0  0  0  0  0  0  0  0  0  0  0  0
    7.9193  -12.2506   19.4387 C   0  0  0  0  0  0  0  0  0  0  0  0
    9.0999  -13.1480   19.0418 C   0  0  0  0  0  0  0  0  0  0  0  0
    8.3669  -14.4573   18.8350 C   0  0  1  0  0  0  0  0  0  0  0  0
    9.2960  -15.5815   18.7303 C   0  0  0  0  0  0  0  0  0  0  0  0
   10.1214  -15.6156   17.7912 O   0  0  0  0  0  0  0  0  0  0  0  0
    9.2802  -16.6349   19.6722 N   0  0  0  0  0  0  0  0  0  0  0  0
   10.1509  -17.8021   19.5825 C   0  0  0  0  0  0  0  0  0  0  0  0
   11.4951  -17.4960   20.1512 C   0  0  0  0  0  0  0  0  0  0  0  0
   12.3019  -18.4517   20.2941 O   0  0  0  0  0  0  0  0  0  0  0  0
   13.4305  -13.9531   18.3868 N   0  0  0  0  0  0  0  0  0  0  0  0
   14.2204  -14.6882   19.3088 C   0  0  0  0  0  0  0  0  0  0  0  0
   15.2621  -15.2844   18.9350 O   0  0  0  0  0  0  0  0  0  0  0  0
   13.7897  -14.7303   20.6955 C   0  0  0  0  0  0  0  0  0  0  0  0
   13.2176  -16.0395   21.1746 C   0  0  2  0  0  0  0  0  0  0  0  0
   11.8966  -16.2099   20.5295 N   0  0  0  0  0  0  0  0  0  0  0  0
   13.0203  -16.0658   22.6507 C   0  0  0  0  0  0  0  0  0  0  0  0
   14.0264  -15.9793   23.3897 O   0  0  0  0  0  0  0  0  0  0  0  0
   11.7876  -16.1792   23.2278 O   0  0  0  0  0  0  0  0  0  0  0  0
  1  2  1  0
  2  3  1  0
  4  3  1  0
  5  1  1  0
  5  4  1  0
  5  6  1  1
  7  6  2  0
  8  6  1  0
  9  8  1  0
 10  9  1  0
 10 17  1  0
 11 10  2  0
 13 12  1  0
 14 13  2  0
 15 13  1  0
 16 17  1  0
 16 15  1  1
 18 16  1  0
 19 18  2  0
 20 18  1  0
M  END
$$$$
