PGN.pdb
     RDKit          3D

 20 20  0  0  1  0  0  0  0  0999 V2000
    7.3698  -14.5869   19.6453 N   0  0  0  0  0  0  0  0  0  0  0  0
    7.0221  -13.3776   18.9516 C   0  0  0  0  0  0  0  0  0  0  0  0
    8.2884  -12.5064   19.0014 C   0  0  0  0  0  0  0  0  0  0  0  0
    8.7873  -12.9344   20.3886 C   0  0  0  0  0  0  0  0  0  0  0  0
    8.6516  -14.4372   20.2560 C   0  0  1  0  0  0  0  0  0  0  0  0
    8.7838  -15.1040   21.5506 C   0  0  0  0  0  0  0  0  0  0  0  0
    9.9049  -15.1669   22.1017 O   0  0  0  0  0  0  0  0  0  0  0  0
    7.6663  -15.6818   22.1944 N   0  0  0  0  0  0  0  0  0  0  0  0
    7.7341  -16.3010   23.5137 C   0  0  0  0  0  0  0  0  0  0  0  0
    8.2888  -15.3428   24.5126 C   0  0  0  0  0  0  0  0  0  0  0  0
    9.4161  -14.8356   24.2744 O   0  0  0  0  0  0  0  0  0  0  0  0
    5.1004  -12.5605   26.7416 N   0  0  0  0  0  0  0  0  0  0  0  0
    6.5130  -12.4233   26.7436 C   0  0  0  0  0  0  0  0  0  0  0  0
    7.0709  -11.4794   26.1287 O   0  0  0  0  0  0  0  0  0  0  0  0
    7.2936  -13.4046   27.4770 C   0  0  0  0  0  0  0  0  0  0  0  0
    8.3342  -14.1532   26.6849 C   0  0  2  0  0  0  0  0  0  0  0  0
    7.6218  -14.9853   25.6899 N   0  0  0  0  0  0  0  0  0  0  0  0
    9.1577  -15.0537   27.5391 C   0  0  0  0  0  0  0  0  0  0  0  0
    9.0434  -16.2905   27.3875 O   0  0  0  0  0  0  0  0  0  0  0  0
   10.0312  -14.5835   28.4780 O   0  0  0  0  0  0  0  0  0  0  0  0
  1  2  1  0
  2  3  1  0
  4  3  1  0
  5  1  1  0
  5  4  1  0
  5  6  1  1
  7  6  2  0
  8  6  1  0
  9  8  1  0
 10  9  1  0
 10 17  1  0
 11 10  2  0
 13 12  1  0
 14 13  2  0
 15 13  1  0
 16 17  1  0
 16 15  1  1
 18 16  1  0
 19 18  2  0
 20 18  1  0
M  END
$$$$
