DWW.pdb
     RDKit          3D

 37 40  0  0  1  0  0  0  0  0999 V2000
    8.8555  -18.3765   18.7066 N   0  0  0  0  0  0  0  0  0  0  0  0
    9.4063  -18.6307   20.0304 C   0  0  1  0  0  0  0  0  0  0  0  0
   10.5789  -19.5767   19.7859 C   0  0  0  0  0  0  0  0  0  0  0  0
   10.1112  -20.8456   19.1811 C   0  0  0  0  0  0  0  0  0  0  0  0
    9.4536  -21.6849   19.8537 O   0  0  0  0  0  0  0  0  0  0  0  0
    9.8312  -17.3646   20.6200 C   0  0  0  0  0  0  0  0  0  0  0  0
   10.8805  -16.8096   20.3230 O   0  0  0  0  0  0  0  0  0  0  0  0
   10.3587  -21.1998   17.8562 O   0  0  0  0  0  0  0  0  0  0  0  0
    9.0290  -16.6658   21.6135 N   0  0  0  0  0  0  0  0  0  0  0  0
    9.3929  -15.4156   22.1636 C   0  0  1  0  0  0  0  0  0  0  0  0
    8.2579  -14.4598   22.4354 C   0  0  0  0  0  0  0  0  0  0  0  0
    7.6289  -14.7105   23.7522 C   0  0  0  0  0  0  0  0  0  0  0  0
    7.0895  -15.8868   24.2223 C   0  0  0  0  0  0  0  0  0  0  0  0
    6.6217  -15.6955   25.4526 N   0  0  0  0  0  0  0  0  0  0  0  0
    6.8391  -14.4178   25.8103 C   0  0  0  0  0  0  0  0  0  0  0  0
    6.5360  -13.7331   26.9908 C   0  0  0  0  0  0  0  0  0  0  0  0
    6.8940  -12.4051   27.0518 C   0  0  0  0  0  0  0  0  0  0  0  0
    7.5224  -11.7556   26.0131 C   0  0  0  0  0  0  0  0  0  0  0  0
    7.8203  -12.4229   24.8584 C   0  0  0  0  0  0  0  0  0  0  0  0
    7.4685  -13.7734   24.7684 C   0  0  0  0  0  0  0  0  0  0  0  0
   10.2937  -15.5366   23.3546 C   0  0  0  0  0  0  0  0  0  0  0  0
   10.7782  -14.5549   23.9702 O   0  0  0  0  0  0  0  0  0  0  0  0
   10.6579  -16.8160   23.8665 N   0  0  0  0  0  0  0  0  0  0  0  0
   11.5600  -17.0235   24.9771 C   0  0  1  0  0  0  0  0  0  0  0  0
   10.8670  -17.7915   26.0868 C   0  0  0  0  0  0  0  0  0  0  0  0
    9.8435  -16.9869   26.7655 C   0  0  0  0  0  0  0  0  0  0  0  0
    8.4790  -17.2820   26.8500 C   0  0  0  0  0  0  0  0  0  0  0  0
    7.8944  -16.3095   27.5441 N   0  0  0  0  0  0  0  0  0  0  0  0
    8.7954  -15.3658   27.9376 C   0  0  0  0  0  0  0  0  0  0  0  0
    8.6750  -14.1987   28.6526 C   0  0  0  0  0  0  0  0  0  0  0  0
    9.8028  -13.4197   28.8959 C   0  0  0  0  0  0  0  0  0  0  0  0
   11.0118  -13.8481   28.4078 C   0  0  0  0  0  0  0  0  0  0  0  0
   11.1087  -15.0255   27.6900 C   0  0  0  0  0  0  0  0  0  0  0  0
   10.0143  -15.8056   27.4405 C   0  0  0  0  0  0  0  0  0  0  0  0
   12.7906  -17.7425   24.5273 C   0  0  0  0  0  0  0  0  0  0  0  0
   13.7497  -17.8965   25.2936 O   0  0  0  0  0  0  0  0  0  0  0  0
   12.8502  -18.2408   23.2299 O   0  0  0  0  0  0  0  0  0  0  0  0
  2  1  1  6
  3  2  1  0
  4  8  1  0
  4  3  1  0
  5  4  2  0
  6  2  1  0
  7  6  2  0
  9  6  1  0
 10 11  1  1
 10  9  1  0
 12 11  1  0
 13 12  2  0
 14 15  1  0
 14 13  1  0
 15 20  2  0
 16 15  1  0
 16 17  2  0
 17 18  1  0
 18 19  2  0
 20 12  1  0
 20 19  1  0
 21 22  2  0
 21 10  1  0
 23 21  1  0
 24 23  1  0
 24 25  1  1
 25 26  1  0
 26 27  2  0
 26 34  1  0
 27 28  1  0
 28 29  1  0
 29 30  2  0
 30 31  1  0
 32 31  2  0
 33 32  1  0
 34 33  2  0
 34 29  1  0
 35 37  1  0
 35 24  1  0
 36 35  2  0
M  END
$$$$
