DWW.pdb
     RDKit          3D

 37 40  0  0  1  0  0  0  0  0999 V2000
    9.4270  -20.8913   21.1453 N   0  0  0  0  0  0  0  0  0  0  0  0
   10.7909  -20.5880   21.5556 C   0  0  1  0  0  0  0  0  0  0  0  0
   11.6642  -21.5000   20.6982 C   0  0  0  0  0  0  0  0  0  0  0  0
   11.5654  -22.9046   21.1587 C   0  0  0  0  0  0  0  0  0  0  0  0
   11.5800  -23.8620   20.3387 O   0  0  0  0  0  0  0  0  0  0  0  0
   11.0586  -19.1743   21.3085 C   0  0  0  0  0  0  0  0  0  0  0  0
   11.5306  -18.7586   20.2589 O   0  0  0  0  0  0  0  0  0  0  0  0
   11.4493  -23.2648   22.4999 O   0  0  0  0  0  0  0  0  0  0  0  0
   10.7809  -18.1487   22.3034 N   0  0  0  0  0  0  0  0  0  0  0  0
   10.2865  -16.8655   21.9766 C   0  0  1  0  0  0  0  0  0  0  0  0
    9.0659  -16.8356   21.0907 C   0  0  0  0  0  0  0  0  0  0  0  0
    8.8313  -15.4897   20.5197 C   0  0  0  0  0  0  0  0  0  0  0  0
    9.1840  -15.0265   19.2720 C   0  0  0  0  0  0  0  0  0  0  0  0
    8.7968  -13.7602   19.1472 N   0  0  0  0  0  0  0  0  0  0  0  0
    8.1938  -13.3723   20.2846 C   0  0  0  0  0  0  0  0  0  0  0  0
    7.6205  -12.1496   20.6461 C   0  0  0  0  0  0  0  0  0  0  0  0
    7.0724  -12.0654   21.9062 C   0  0  0  0  0  0  0  0  0  0  0  0
    7.0750  -13.1207   22.7906 C   0  0  0  0  0  0  0  0  0  0  0  0
    7.6342  -14.3170   22.4393 C   0  0  0  0  0  0  0  0  0  0  0  0
    8.1983  -14.4316   21.1648 C   0  0  0  0  0  0  0  0  0  0  0  0
   10.1069  -15.9818   23.1730 C   0  0  0  0  0  0  0  0  0  0  0  0
   10.1730  -14.7282   23.1353 O   0  0  0  0  0  0  0  0  0  0  0  0
    9.8423  -16.5391   24.4579 N   0  0  0  0  0  0  0  0  0  0  0  0
   10.6762  -16.3377   25.6217 C   0  0  1  0  0  0  0  0  0  0  0  0
   10.0247  -15.3562   26.5776 C   0  0  0  0  0  0  0  0  0  0  0  0
    8.5834  -15.2166   26.3352 C   0  0  0  0  0  0  0  0  0  0  0  0
    7.6804  -16.2555   26.0876 C   0  0  0  0  0  0  0  0  0  0  0  0
    6.4758  -15.7168   25.9201 N   0  0  0  0  0  0  0  0  0  0  0  0
    6.5143  -14.3600   26.0424 C   0  0  0  0  0  0  0  0  0  0  0  0
    5.5508  -13.3849   25.9485 C   0  0  0  0  0  0  0  0  0  0  0  0
    5.9032  -12.0488   26.1175 C   0  0  0  0  0  0  0  0  0  0  0  0
    7.2168  -11.7460   26.3754 C   0  0  0  0  0  0  0  0  0  0  0  0
    8.1693  -12.7438   26.4645 C   0  0  0  0  0  0  0  0  0  0  0  0
    7.8446  -14.0618   26.3026 C   0  0  0  0  0  0  0  0  0  0  0  0
   10.9471  -17.6387   26.3057 C   0  0  0  0  0  0  0  0  0  0  0  0
   11.7563  -17.7069   27.2390 O   0  0  0  0  0  0  0  0  0  0  0  0
   10.2774  -18.7816   25.8810 O   0  0  0  0  0  0  0  0  0  0  0  0
  2  1  1  6
  3  2  1  0
  4  8  1  0
  4  3  1  0
  5  4  2  0
  6  2  1  0
  7  6  2  0
  9  6  1  0
 10 11  1  1
 10  9  1  0
 12 11  1  0
 13 12  2  0
 14 15  1  0
 14 13  1  0
 15 20  2  0
 16 15  1  0
 16 17  2  0
 17 18  1  0
 18 19  2  0
 20 12  1  0
 20 19  1  0
 21 22  2  0
 21 10  1  0
 23 21  1  0
 24 23  1  0
 24 25  1  1
 25 26  1  0
 26 27  2  0
 26 34  1  0
 27 28  1  0
 28 29  1  0
 29 30  2  0
 30 31  1  0
 32 31  2  0
 33 32  1  0
 34 33  2  0
 34 29  1  0
 35 37  1  0
 35 24  1  0
 36 35  2  0
M  END
$$$$
