DWW.pdb
     RDKit          3D

 37 40  0  0  1  0  0  0  0  0999 V2000
   11.1115  -18.9897   19.1931 N   0  0  0  0  0  0  0  0  0  0  0  0
   12.0680  -18.4362   20.1413 C   0  0  1  0  0  0  0  0  0  0  0  0
   13.1459  -17.7937   19.2724 C   0  0  0  0  0  0  0  0  0  0  0  0
   13.9611  -18.8298   18.5969 C   0  0  0  0  0  0  0  0  0  0  0  0
   13.4657  -19.9450   18.2800 O   0  0  0  0  0  0  0  0  0  0  0  0
   11.3877  -17.4617   20.9891 C   0  0  0  0  0  0  0  0  0  0  0  0
   11.7607  -16.3019   21.1034 O   0  0  0  0  0  0  0  0  0  0  0  0
   15.3047  -18.6556   18.2709 O   0  0  0  0  0  0  0  0  0  0  0  0
   10.2060  -17.8041   21.7670 N   0  0  0  0  0  0  0  0  0  0  0  0
    9.5903  -16.9123   22.6745 C   0  0  1  0  0  0  0  0  0  0  0  0
    8.1019  -16.7290   22.5108 C   0  0  0  0  0  0  0  0  0  0  0  0
    7.7782  -15.8184   21.3891 C   0  0  0  0  0  0  0  0  0  0  0  0
    7.3688  -16.1537   20.1179 C   0  0  0  0  0  0  0  0  0  0  0  0
    7.1838  -15.0440   19.4084 N   0  0  0  0  0  0  0  0  0  0  0  0
    7.4607  -13.9788   20.1806 C   0  0  0  0  0  0  0  0  0  0  0  0
    7.4183  -12.6096   19.9016 C   0  0  0  0  0  0  0  0  0  0  0  0
    7.7661  -11.7534   20.9220 C   0  0  0  0  0  0  0  0  0  0  0  0
    8.1426  -12.1974   22.1698 C   0  0  0  0  0  0  0  0  0  0  0  0
    8.1843  -13.5352   22.4451 C   0  0  0  0  0  0  0  0  0  0  0  0
    7.8357  -14.4285   21.4272 C   0  0  0  0  0  0  0  0  0  0  0  0
    9.9463  -17.1880   24.1034 C   0  0  0  0  0  0  0  0  0  0  0  0
   10.0707  -18.3412   24.5853 O   0  0  0  0  0  0  0  0  0  0  0  0
   10.1697  -16.1185   25.0186 N   0  0  0  0  0  0  0  0  0  0  0  0
   10.3222  -16.2854   26.4466 C   0  0  1  0  0  0  0  0  0  0  0  0
    8.9960  -16.6598   27.0814 C   0  0  0  0  0  0  0  0  0  0  0  0
    7.9335  -15.6995   26.7582 C   0  0  0  0  0  0  0  0  0  0  0  0
    6.7151  -15.9902   26.1361 C   0  0  0  0  0  0  0  0  0  0  0  0
    6.0345  -14.8530   26.0224 N   0  0  0  0  0  0  0  0  0  0  0  0
    6.7305  -13.8009   26.5380 C   0  0  0  0  0  0  0  0  0  0  0  0
    6.4545  -12.4590   26.6440 C   0  0  0  0  0  0  0  0  0  0  0  0
    7.3883  -11.6069   27.2270 C   0  0  0  0  0  0  0  0  0  0  0  0
    8.5676  -12.1416   27.6821 C   0  0  0  0  0  0  0  0  0  0  0  0
    8.8239  -13.4948   27.5640 C   0  0  0  0  0  0  0  0  0  0  0  0
    7.9207  -14.3490   26.9956 C   0  0  0  0  0  0  0  0  0  0  0  0
   11.3604  -17.3176   26.7473 C   0  0  0  0  0  0  0  0  0  0  0  0
   11.8758  -17.9806   25.8388 O   0  0  0  0  0  0  0  0  0  0  0  0
   11.7454  -17.5292   28.0672 O   0  0  0  0  0  0  0  0  0  0  0  0
  2  1  1  6
  3  2  1  0
  4  8  1  0
  4  3  1  0
  5  4  2  0
  6  2  1  0
  7  6  2  0
  9  6  1  0
 10 11  1  1
 10  9  1  0
 12 11  1  0
 13 12  2  0
 14 15  1  0
 14 13  1  0
 15 20  2  0
 16 15  1  0
 16 17  2  0
 17 18  1  0
 18 19  2  0
 20 12  1  0
 20 19  1  0
 21 22  2  0
 21 10  1  0
 23 21  1  0
 24 23  1  0
 24 25  1  6
 25 26  1  0
 26 27  2  0
 26 34  1  0
 27 28  1  0
 28 29  1  0
 29 30  2  0
 30 31  1  0
 32 31  2  0
 33 32  1  0
 34 33  2  0
 34 29  1  0
 35 37  1  0
 35 24  1  0
 36 35  2  0
M  END
$$$$
