DWW.pdb
     RDKit          3D

 37 40  0  0  1  0  0  0  0  0999 V2000
   11.4916  -18.7236   20.0056 N   0  0  0  0  0  0  0  0  0  0  0  0
   12.3264  -17.6102   20.4344 C   0  0  1  0  0  0  0  0  0  0  0  0
   12.5037  -16.7555   19.1823 C   0  0  0  0  0  0  0  0  0  0  0  0
   13.6036  -17.2810   18.3405 C   0  0  0  0  0  0  0  0  0  0  0  0
   14.2252  -18.3302   18.6605 O   0  0  0  0  0  0  0  0  0  0  0  0
   11.6439  -16.8885   21.5042 C   0  0  0  0  0  0  0  0  0  0  0  0
   12.1180  -15.9018   22.0510 O   0  0  0  0  0  0  0  0  0  0  0  0
   14.0257  -16.6694   17.1617 O   0  0  0  0  0  0  0  0  0  0  0  0
   10.3382  -17.2960   22.0020 N   0  0  0  0  0  0  0  0  0  0  0  0
    9.6369  -16.5906   23.0063 C   0  0  1  0  0  0  0  0  0  0  0  0
    8.1890  -16.9720   23.1905 C   0  0  0  0  0  0  0  0  0  0  0  0
    7.3158  -16.3258   22.1844 C   0  0  0  0  0  0  0  0  0  0  0  0
    6.0890  -16.7537   21.7288 C   0  0  0  0  0  0  0  0  0  0  0  0
    5.6315  -15.8934   20.8234 N   0  0  0  0  0  0  0  0  0  0  0  0
    6.5275  -14.9030   20.6679 C   0  0  0  0  0  0  0  0  0  0  0  0
    6.5104  -13.7737   19.8441 C   0  0  0  0  0  0  0  0  0  0  0  0
    7.5979  -12.9325   19.9155 C   0  0  0  0  0  0  0  0  0  0  0  0
    8.6671  -13.1680   20.7504 C   0  0  0  0  0  0  0  0  0  0  0  0
    8.6857  -14.2708   21.5571 C   0  0  0  0  0  0  0  0  0  0  0  0
    7.5939  -15.1430   21.5059 C   0  0  0  0  0  0  0  0  0  0  0  0
   10.3588  -16.5623   24.3187 C   0  0  0  0  0  0  0  0  0  0  0  0
   11.5295  -16.1319   24.4662 O   0  0  0  0  0  0  0  0  0  0  0  0
    9.7312  -17.0383   25.5066 N   0  0  0  0  0  0  0  0  0  0  0  0
   10.2530  -16.8402   26.8403 C   0  0  1  0  0  0  0  0  0  0  0  0
   10.0788  -15.3953   27.2687 C   0  0  0  0  0  0  0  0  0  0  0  0
    8.7754  -14.8498   26.8699 C   0  0  0  0  0  0  0  0  0  0  0  0
    7.6327  -15.5878   26.5446 C   0  0  0  0  0  0  0  0  0  0  0  0
    6.6656  -14.7274   26.2386 N   0  0  0  0  0  0  0  0  0  0  0  0
    7.0942  -13.4377   26.3405 C   0  0  0  0  0  0  0  0  0  0  0  0
    6.4787  -12.2281   26.1260 C   0  0  0  0  0  0  0  0  0  0  0  0
    7.1946  -11.0482   26.3085 C   0  0  0  0  0  0  0  0  0  0  0  0
    8.5069  -11.1332   26.7011 C   0  0  0  0  0  0  0  0  0  0  0  0
    9.1057  -12.3614   26.9101 C   0  0  0  0  0  0  0  0  0  0  0  0
    8.4208  -13.5318   26.7373 C   0  0  0  0  0  0  0  0  0  0  0  0
    9.5840  -17.7613   27.8087 C   0  0  0  0  0  0  0  0  0  0  0  0
    9.9496  -17.8129   28.9894 O   0  0  0  0  0  0  0  0  0  0  0  0
    8.5391  -18.5672   27.3684 O   0  0  0  0  0  0  0  0  0  0  0  0
  2  1  1  6
  3  2  1  0
  4  8  1  0
  4  3  1  0
  5  4  2  0
  6  2  1  0
  7  6  2  0
  9  6  1  0
 10 11  1  1
 10  9  1  0
 12 11  1  0
 13 12  2  0
 14 15  1  0
 14 13  1  0
 15 20  2  0
 16 15  1  0
 16 17  2  0
 17 18  1  0
 18 19  2  0
 20 12  1  0
 20 19  1  0
 21 22  2  0
 21 10  1  0
 23 21  1  0
 24 23  1  0
 24 25  1  1
 25 26  1  0
 26 27  2  0
 26 34  1  0
 27 28  1  0
 28 29  1  0
 29 30  2  0
 30 31  1  0
 32 31  2  0
 33 32  1  0
 34 33  2  0
 34 29  1  0
 35 37  1  0
 35 24  1  0
 36 35  2  0
M  END
$$$$
