DWW.pdb
     RDKit          3D

 37 40  0  0  1  0  0  0  0  0999 V2000
    9.8686  -19.0038   20.6464 N   0  0  0  0  0  0  0  0  0  0  0  0
   10.9744  -18.0921   20.3887 C   0  0  1  0  0  0  0  0  0  0  0  0
   10.9210  -17.8352   18.8851 C   0  0  0  0  0  0  0  0  0  0  0  0
   11.4984  -18.9764   18.1376 C   0  0  0  0  0  0  0  0  0  0  0  0
   11.9284  -19.9982   18.7379 O   0  0  0  0  0  0  0  0  0  0  0  0
   10.7758  -16.8720   21.1653 C   0  0  0  0  0  0  0  0  0  0  0  0
   11.5029  -15.8928   21.0663 O   0  0  0  0  0  0  0  0  0  0  0  0
   11.6096  -19.0052   16.7488 O   0  0  0  0  0  0  0  0  0  0  0  0
    9.6884  -16.7327   22.1229 N   0  0  0  0  0  0  0  0  0  0  0  0
    9.3818  -15.5172   22.7759 C   0  0  1  0  0  0  0  0  0  0  0  0
    7.9523  -15.0495   22.6606 C   0  0  0  0  0  0  0  0  0  0  0  0
    7.4997  -15.0007   21.2516 C   0  0  0  0  0  0  0  0  0  0  0  0
    6.7048  -15.9069   20.5862 C   0  0  0  0  0  0  0  0  0  0  0  0
    6.5316  -15.5017   19.3312 N   0  0  0  0  0  0  0  0  0  0  0  0
    7.1936  -14.3458   19.1486 C   0  0  0  0  0  0  0  0  0  0  0  0
    7.3191  -13.5308   18.0197 C   0  0  0  0  0  0  0  0  0  0  0  0
    8.0791  -12.3908   18.1541 C   0  0  0  0  0  0  0  0  0  0  0  0
    8.6987  -12.0446   19.3339 C   0  0  0  0  0  0  0  0  0  0  0  0
    8.5770  -12.8392   20.4389 C   0  0  0  0  0  0  0  0  0  0  0  0
    7.8104  -14.0039   20.3317 C   0  0  0  0  0  0  0  0  0  0  0  0
    9.8488  -15.4798   24.1990 C   0  0  0  0  0  0  0  0  0  0  0  0
   10.2229  -14.4350   24.7872 O   0  0  0  0  0  0  0  0  0  0  0  0
    9.8926  -16.6689   24.9836 N   0  0  0  0  0  0  0  0  0  0  0  0
   10.2374  -16.7077   26.3871 C   0  0  1  0  0  0  0  0  0  0  0  0
    8.9885  -16.8537   27.2361 C   0  0  0  0  0  0  0  0  0  0  0  0
    7.9258  -15.9271   26.8267 C   0  0  0  0  0  0  0  0  0  0  0  0
    6.7020  -16.2746   26.2457 C   0  0  0  0  0  0  0  0  0  0  0  0
    6.0231  -15.1524   26.0243 N   0  0  0  0  0  0  0  0  0  0  0  0
    6.7255  -14.0563   26.4274 C   0  0  0  0  0  0  0  0  0  0  0  0
    6.4534  -12.7097   26.4012 C   0  0  0  0  0  0  0  0  0  0  0  0
    7.3936  -11.8066   26.8896 C   0  0  0  0  0  0  0  0  0  0  0  0
    8.5751  -12.2969   27.3870 C   0  0  0  0  0  0  0  0  0  0  0  0
    8.8274  -13.6559   27.4023 C   0  0  0  0  0  0  0  0  0  0  0  0
    7.9179  -14.5597   26.9285 C   0  0  0  0  0  0  0  0  0  0  0  0
   11.1951  -17.8216   26.6625 C   0  0  0  0  0  0  0  0  0  0  0  0
   11.5118  -18.6193   25.7714 O   0  0  0  0  0  0  0  0  0  0  0  0
   11.7315  -17.9560   27.9390 O   0  0  0  0  0  0  0  0  0  0  0  0
  2  1  1  1
  3  2  1  0
  4  8  1  0
  4  3  1  0
  5  4  2  0
  6  2  1  0
  7  6  2  0
  9  6  1  0
 10 11  1  1
 10  9  1  0
 12 11  1  0
 13 12  2  0
 14 15  1  0
 14 13  1  0
 15 20  2  0
 16 15  1  0
 16 17  2  0
 17 18  1  0
 18 19  2  0
 20 12  1  0
 20 19  1  0
 21 22  2  0
 21 10  1  0
 23 21  1  0
 24 23  1  0
 24 25  1  1
 25 26  1  0
 26 27  2  0
 26 34  1  0
 27 28  1  0
 28 29  1  0
 29 30  2  0
 30 31  1  0
 32 31  2  0
 33 32  1  0
 34 33  2  0
 34 29  1  0
 35 37  1  0
 35 24  1  0
 36 35  2  0
M  END
$$$$
