DWW.pdb
     RDKit          3D

 37 40  0  0  1  0  0  0  0  0999 V2000
   11.8377  -17.1811   18.5560 N   0  0  0  0  0  0  0  0  0  0  0  0
   12.0864  -17.8006   19.8502 C   0  0  1  0  0  0  0  0  0  0  0  0
   13.5981  -18.0065   19.8959 C   0  0  0  0  0  0  0  0  0  0  0  0
   14.0440  -18.8659   18.7747 C   0  0  0  0  0  0  0  0  0  0  0  0
   13.3138  -19.7947   18.3349 O   0  0  0  0  0  0  0  0  0  0  0  0
   11.6184  -16.9051   20.9039 C   0  0  0  0  0  0  0  0  0  0  0  0
   12.3265  -16.0466   21.4126 O   0  0  0  0  0  0  0  0  0  0  0  0
   15.2750  -18.7179   18.1385 O   0  0  0  0  0  0  0  0  0  0  0  0
   10.2628  -16.9711   21.4300 N   0  0  0  0  0  0  0  0  0  0  0  0
    9.9306  -16.6312   22.7612 C   0  0  1  0  0  0  0  0  0  0  0  0
    8.5138  -16.9307   23.1838 C   0  0  0  0  0  0  0  0  0  0  0  0
    7.5448  -15.9968   22.5664 C   0  0  0  0  0  0  0  0  0  0  0  0
    6.1740  -15.9915   22.6960 C   0  0  0  0  0  0  0  0  0  0  0  0
    5.6683  -14.9917   21.9793 N   0  0  0  0  0  0  0  0  0  0  0  0
    6.6732  -14.3322   21.3768 C   0  0  0  0  0  0  0  0  0  0  0  0
    6.6606  -13.2214   20.5283 C   0  0  0  0  0  0  0  0  0  0  0  0
    7.8784  -12.7740   20.0675 C   0  0  0  0  0  0  0  0  0  0  0  0
    9.0694  -13.3738   20.4101 C   0  0  0  0  0  0  0  0  0  0  0  0
    9.0843  -14.4593   21.2399 C   0  0  0  0  0  0  0  0  0  0  0  0
    7.8617  -14.9356   21.7237 C   0  0  0  0  0  0  0  0  0  0  0  0
   10.9144  -17.1514   23.7642 C   0  0  0  0  0  0  0  0  0  0  0  0
   12.1521  -17.2204   23.5622 O   0  0  0  0  0  0  0  0  0  0  0  0
   10.4799  -17.6091   25.0422 N   0  0  0  0  0  0  0  0  0  0  0  0
   11.2847  -17.5622   26.2423 C   0  0  1  0  0  0  0  0  0  0  0  0
   11.2715  -16.1660   26.8355 C   0  0  0  0  0  0  0  0  0  0  0  0
    9.9101  -15.6357   26.9805 C   0  0  0  0  0  0  0  0  0  0  0  0
    8.7383  -16.3872   27.1157 C   0  0  0  0  0  0  0  0  0  0  0  0
    7.7197  -15.5380   27.2194 N   0  0  0  0  0  0  0  0  0  0  0  0
    8.1413  -14.2433   27.1620 C   0  0  0  0  0  0  0  0  0  0  0  0
    7.4788  -13.0408   27.2176 C   0  0  0  0  0  0  0  0  0  0  0  0
    8.1976  -11.8525   27.1217 C   0  0  0  0  0  0  0  0  0  0  0  0
    9.5602  -11.9221   26.9730 C   0  0  0  0  0  0  0  0  0  0  0  0
   10.2052  -13.1434   26.9186 C   0  0  0  0  0  0  0  0  0  0  0  0
    9.5188  -14.3219   27.0115 C   0  0  0  0  0  0  0  0  0  0  0  0
   10.7994  -18.5635   27.2402 C   0  0  0  0  0  0  0  0  0  0  0  0
    9.7072  -19.1257   27.0932 O   0  0  0  0  0  0  0  0  0  0  0  0
   11.5912  -18.8603   28.3447 O   0  0  0  0  0  0  0  0  0  0  0  0
  2  1  1  6
  3  2  1  0
  4  8  1  0
  4  3  1  0
  5  4  2  0
  6  2  1  0
  7  6  2  0
  9  6  1  0
 10 11  1  1
 10  9  1  0
 12 11  1  0
 13 12  2  0
 14 15  1  0
 14 13  1  0
 15 20  2  0
 16 15  1  0
 16 17  2  0
 17 18  1  0
 18 19  2  0
 20 12  1  0
 20 19  1  0
 21 22  2  0
 21 10  1  0
 23 21  1  0
 24 23  1  0
 24 25  1  1
 25 26  1  0
 26 27  2  0
 26 34  1  0
 27 28  1  0
 28 29  1  0
 29 30  2  0
 30 31  1  0
 32 31  2  0
 33 32  1  0
 34 33  2  0
 34 29  1  0
 35 37  1  0
 35 24  1  0
 36 35  2  0
M  END
$$$$
