DWW.pdb
     RDKit          3D

 37 40  0  0  1  0  0  0  0  0999 V2000
   10.2929  -18.8526   19.8875 N   0  0  0  0  0  0  0  0  0  0  0  0
   11.4790  -18.0229   20.0463 C   0  0  1  0  0  0  0  0  0  0  0  0
   11.7118  -17.4134   18.6664 C   0  0  0  0  0  0  0  0  0  0  0  0
   12.5418  -18.3114   17.8302 C   0  0  0  0  0  0  0  0  0  0  0  0
   12.9240  -19.4334   18.2596 O   0  0  0  0  0  0  0  0  0  0  0  0
   11.2167  -17.0075   21.0619 C   0  0  0  0  0  0  0  0  0  0  0  0
   12.0349  -16.1547   21.3791 O   0  0  0  0  0  0  0  0  0  0  0  0
   12.9548  -17.9908   16.5385 O   0  0  0  0  0  0  0  0  0  0  0  0
    9.9508  -16.9373   21.7769 N   0  0  0  0  0  0  0  0  0  0  0  0
    9.6196  -15.8890   22.6655 C   0  0  1  0  0  0  0  0  0  0  0  0
    8.1483  -15.5912   22.8141 C   0  0  0  0  0  0  0  0  0  0  0  0
    7.5078  -15.3092   21.5092 C   0  0  0  0  0  0  0  0  0  0  0  0
    6.6113  -16.0940   20.8193 C   0  0  0  0  0  0  0  0  0  0  0  0
    6.2758  -15.4855   19.6852 N   0  0  0  0  0  0  0  0  0  0  0  0
    6.9294  -14.3131   19.6069 C   0  0  0  0  0  0  0  0  0  0  0  0
    6.9152  -13.3207   18.6226 C   0  0  0  0  0  0  0  0  0  0  0  0
    7.7091  -12.2166   18.8376 C   0  0  0  0  0  0  0  0  0  0  0  0
    8.4914  -12.0704   19.9611 C   0  0  0  0  0  0  0  0  0  0  0  0
    8.5065  -13.0388   20.9250 C   0  0  0  0  0  0  0  0  0  0  0  0
    7.7093  -14.1716   20.7333 C   0  0  0  0  0  0  0  0  0  0  0  0
   10.2816  -16.0203   24.0031 C   0  0  0  0  0  0  0  0  0  0  0  0
   11.2919  -15.3615   24.3534 O   0  0  0  0  0  0  0  0  0  0  0  0
    9.7800  -16.9304   24.9787 N   0  0  0  0  0  0  0  0  0  0  0  0
   10.2309  -16.9847   26.3513 C   0  0  1  0  0  0  0  0  0  0  0  0
    9.9672  -15.6635   27.0488 C   0  0  0  0  0  0  0  0  0  0  0  0
    8.6457  -15.1148   26.7205 C   0  0  0  0  0  0  0  0  0  0  0  0
    7.5017  -15.8495   26.3921 C   0  0  0  0  0  0  0  0  0  0  0  0
    6.5156  -14.9867   26.1628 N   0  0  0  0  0  0  0  0  0  0  0  0
    6.9325  -13.6988   26.3198 C   0  0  0  0  0  0  0  0  0  0  0  0
    6.2967  -12.4877   26.1895 C   0  0  0  0  0  0  0  0  0  0  0  0
    7.0046  -11.3098   26.4122 C   0  0  0  0  0  0  0  0  0  0  0  0
    8.3296  -11.3983   26.7587 C   0  0  0  0  0  0  0  0  0  0  0  0
    8.9487  -12.6280   26.8830 C   0  0  0  0  0  0  0  0  0  0  0  0
    8.2721  -13.7964   26.6695 C   0  0  0  0  0  0  0  0  0  0  0  0
    9.5647  -18.1072   27.0793 C   0  0  0  0  0  0  0  0  0  0  0  0
    9.8177  -18.3283   28.2699 O   0  0  0  0  0  0  0  0  0  0  0  0
    8.6510  -18.9084   26.4021 O   0  0  0  0  0  0  0  0  0  0  0  0
  2  1  1  6
  3  2  1  0
  4  8  1  0
  4  3  1  0
  5  4  2  0
  6  2  1  0
  7  6  2  0
  9  6  1  0
 10 11  1  1
 10  9  1  0
 12 11  1  0
 13 12  2  0
 14 15  1  0
 14 13  1  0
 15 20  2  0
 16 15  1  0
 16 17  2  0
 17 18  1  0
 18 19  2  0
 20 12  1  0
 20 19  1  0
 21 22  2  0
 21 10  1  0
 23 21  1  0
 24 23  1  0
 24 25  1  1
 25 26  1  0
 26 27  2  0
 26 34  1  0
 27 28  1  0
 28 29  1  0
 29 30  2  0
 30 31  1  0
 32 31  2  0
 33 32  1  0
 34 33  2  0
 34 29  1  0
 35 37  1  0
 35 24  1  0
 36 35  2  0
M  END
$$$$
