DWW.pdb
     RDKit          3D

 37 40  0  0  1  0  0  0  0  0999 V2000
    8.2130  -19.5080   18.1899 N   0  0  0  0  0  0  0  0  0  0  0  0
    9.2803  -19.6073   19.1756 C   0  0  1  0  0  0  0  0  0  0  0  0
   10.5549  -19.2896   18.3984 C   0  0  0  0  0  0  0  0  0  0  0  0
   10.8581  -20.3657   17.4266 C   0  0  0  0  0  0  0  0  0  0  0  0
   11.1488  -20.0997   16.2291 O   0  0  0  0  0  0  0  0  0  0  0  0
    9.0308  -18.6456   20.2452 C   0  0  0  0  0  0  0  0  0  0  0  0
    9.2765  -17.4516   20.1390 O   0  0  0  0  0  0  0  0  0  0  0  0
   10.8430  -21.7202   17.7539 O   0  0  0  0  0  0  0  0  0  0  0  0
    8.4671  -19.0428   21.5271 N   0  0  0  0  0  0  0  0  0  0  0  0
    8.1415  -18.1224   22.5493 C   0  0  1  0  0  0  0  0  0  0  0  0
    6.7900  -18.3048   23.1942 C   0  0  0  0  0  0  0  0  0  0  0  0
    6.8758  -19.1021   24.4389 C   0  0  0  0  0  0  0  0  0  0  0  0
    7.2671  -18.6794   25.6895 C   0  0  0  0  0  0  0  0  0  0  0  0
    7.2091  -19.7023   26.5377 N   0  0  0  0  0  0  0  0  0  0  0  0
    6.7871  -20.7952   25.8780 C   0  0  0  0  0  0  0  0  0  0  0  0
    6.5645  -22.1026   26.3200 C   0  0  0  0  0  0  0  0  0  0  0  0
    6.1247  -23.0116   25.3842 C   0  0  0  0  0  0  0  0  0  0  0  0
    5.9059  -22.6763   24.0669 C   0  0  0  0  0  0  0  0  0  0  0  0
    6.1221  -21.3988   23.6326 C   0  0  0  0  0  0  0  0  0  0  0  0
    6.5689  -20.4539   24.5616 C   0  0  0  0  0  0  0  0  0  0  0  0
    9.2182  -17.9847   23.5819 C   0  0  0  0  0  0  0  0  0  0  0  0
    9.6040  -18.9230   24.3223 O   0  0  0  0  0  0  0  0  0  0  0  0
    9.8816  -16.7392   23.7820 N   0  0  0  0  0  0  0  0  0  0  0  0
    9.3527  -15.6514   24.5740 C   0  0  1  0  0  0  0  0  0  0  0  0
    7.9121  -15.3685   24.1915 C   0  0  0  0  0  0  0  0  0  0  0  0
    7.2226  -14.5433   25.1911 C   0  0  0  0  0  0  0  0  0  0  0  0
    6.2795  -14.9870   26.1238 C   0  0  0  0  0  0  0  0  0  0  0  0
    5.8941  -13.9372   26.8440 N   0  0  0  0  0  0  0  0  0  0  0  0
    6.5300  -12.7989   26.4473 C   0  0  0  0  0  0  0  0  0  0  0  0
    6.4634  -11.4940   26.8723 C   0  0  0  0  0  0  0  0  0  0  0  0
    7.2480  -10.5258   26.2518 C   0  0  0  0  0  0  0  0  0  0  0  0
    8.0718  -10.9113   25.2240 C   0  0  0  0  0  0  0  0  0  0  0  0
    8.1216  -12.2301   24.8127 C   0  0  0  0  0  0  0  0  0  0  0  0
    7.3603  -13.1965   25.4086 C   0  0  0  0  0  0  0  0  0  0  0  0
    9.4596  -15.9623   26.0320 C   0  0  0  0  0  0  0  0  0  0  0  0
    9.7053  -15.0704   26.8533 O   0  0  0  0  0  0  0  0  0  0  0  0
    9.2799  -17.2731   26.4618 O   0  0  0  0  0  0  0  0  0  0  0  0
  2  1  1  6
  3  2  1  0
  4  8  1  0
  4  3  1  0
  5  4  2  0
  6  2  1  0
  7  6  2  0
  9  6  1  0
 10 11  1  1
 10  9  1  0
 12 11  1  0
 13 12  2  0
 14 15  1  0
 14 13  1  0
 15 20  2  0
 16 15  1  0
 16 17  2  0
 17 18  1  0
 18 19  2  0
 20 12  1  0
 20 19  1  0
 21 22  2  0
 21 10  1  0
 23 21  1  0
 24 23  1  0
 24 25  1  6
 25 26  1  0
 26 27  2  0
 26 34  1  0
 27 28  1  0
 28 29  1  0
 29 30  2  0
 30 31  1  0
 32 31  2  0
 33 32  1  0
 34 33  2  0
 34 29  1  0
 35 37  1  0
 35 24  1  0
 36 35  2  0
M  END
$$$$
