NSW.pdb
     RDKit          3D

 29 30  0  0  1  0  0  0  0  0999 V2000
    9.1758  -13.0983   17.3420 N   0  0  0  0  0  0  0  0  0  0  0  0
    7.8482  -13.5823   17.4503 C   0  0  0  0  0  0  0  0  0  0  0  0
    7.0399  -13.5221   16.5032 O   0  0  0  0  0  0  0  0  0  0  0  0
    7.4202  -14.1775   18.7409 C   0  0  0  0  0  0  0  0  0  0  0  0
    8.5725  -13.9791   19.7271 C   0  0  2  0  0  0  0  0  0  0  0  0
    9.8459  -14.1853   19.0681 N   0  0  0  0  0  0  0  0  0  0  0  0
    8.4097  -14.9841   20.7871 C   0  0  0  0  0  0  0  0  0  0  0  0
    7.3980  -14.9118   21.5463 O   0  0  0  0  0  0  0  0  0  0  0  0
   10.9575  -18.1151   21.1556 O   0  0  0  0  0  0  0  0  0  0  0  0
    9.6874  -18.3361   21.6515 C   0  0  0  0  0  0  0  0  0  0  0  0
    9.1171  -16.9693   22.0568 C   0  0  2  0  0  0  0  0  0  0  0  0
    9.3533  -16.0473   20.9978 N   0  0  0  0  0  0  0  0  0  0  0  0
    9.7947  -16.5978   23.3223 C   0  0  0  0  0  0  0  0  0  0  0  0
   10.8892  -15.9615   23.2759 O   0  0  0  0  0  0  0  0  0  0  0  0
    9.2645  -16.9274   24.5962 N   0  0  0  0  0  0  0  0  0  0  0  0
   10.0040  -16.6893   25.8405 C   0  0  1  0  0  0  0  0  0  0  0  0
    8.9718  -16.2870   26.8524 C   0  0  0  0  0  0  0  0  0  0  0  0
    8.7745  -14.8499   27.0461 C   0  0  0  0  0  0  0  0  0  0  0  0
    9.5430  -14.0414   27.8966 C   0  0  0  0  0  0  0  0  0  0  0  0
    9.0367  -12.8157   27.8272 N   0  0  0  0  0  0  0  0  0  0  0  0
    7.9894  -12.7786   26.9846 C   0  0  0  0  0  0  0  0  0  0  0  0
    7.1574  -11.7711   26.5658 C   0  0  0  0  0  0  0  0  0  0  0  0
    6.1419  -11.9699   25.6586 C   0  0  0  0  0  0  0  0  0  0  0  0
    5.9764  -13.2475   25.1656 C   0  0  0  0  0  0  0  0  0  0  0  0
    6.7894  -14.2820   25.5620 C   0  0  0  0  0  0  0  0  0  0  0  0
    7.8053  -14.0582   26.4775 C   0  0  0  0  0  0  0  0  0  0  0  0
   10.7911  -17.8339   26.2863 C   0  0  0  0  0  0  0  0  0  0  0  0
   11.8459  -17.7060   27.1915 O   0  0  0  0  0  0  0  0  0  0  0  0
   10.5327  -18.9796   25.8586 O   0  0  0  0  0  0  0  0  0  0  0  0
  1  2  1  0
  2  4  1  0
  3  2  2  0
  4  5  1  0
  5  6  1  6
  7  5  1  0
  8  7  2  0
  9 10  1  0
 11 10  1  6
 11 13  1  0
 11 12  1  0
 12  7  1  0
 13 14  2  0
 15 16  1  0
 15 13  1  0
 16 17  1  1
 17 18  1  0
 18 26  1  0
 19 20  1  0
 19 18  2  0
 20 21  1  0
 21 26  2  0
 21 22  1  0
 22 23  2  0
 24 23  1  0
 25 24  2  0
 26 25  1  0
 27 28  1  0
 27 16  1  0
 29 27  2  0
M  END
$$$$
