NSW.pdb
     RDKit          3D

 29 30  0  0  1  0  0  0  0  0999 V2000
    7.8478  -12.1482   16.6052 N   0  0  0  0  0  0  0  0  0  0  0  0
    7.7398  -13.5155   16.9620 C   0  0  0  0  0  0  0  0  0  0  0  0
    7.9017  -14.4330   16.1337 O   0  0  0  0  0  0  0  0  0  0  0  0
    7.4220  -13.8508   18.3726 C   0  0  0  0  0  0  0  0  0  0  0  0
    8.7412  -14.2277   19.0490 C   0  0  2  0  0  0  0  0  0  0  0  0
    9.5049  -15.1257   18.2072 N   0  0  0  0  0  0  0  0  0  0  0  0
    8.4010  -14.9147   20.3030 C   0  0  0  0  0  0  0  0  0  0  0  0
    7.8336  -14.2564   21.2248 O   0  0  0  0  0  0  0  0  0  0  0  0
    9.5619  -18.7277   20.9837 O   0  0  0  0  0  0  0  0  0  0  0  0
    8.4123  -18.3989   21.6750 C   0  0  0  0  0  0  0  0  0  0  0  0
    8.3818  -16.8687   21.7980 C   0  0  2  0  0  0  0  0  0  0  0  0
    8.6863  -16.3054   20.5262 N   0  0  0  0  0  0  0  0  0  0  0  0
    9.3688  -16.5190   22.8478 C   0  0  0  0  0  0  0  0  0  0  0  0
   10.5444  -16.1901   22.5088 O   0  0  0  0  0  0  0  0  0  0  0  0
    9.0501  -16.5367   24.2301 N   0  0  0  0  0  0  0  0  0  0  0  0
   10.0787  -16.4774   25.2744 C   0  0  1  0  0  0  0  0  0  0  0  0
    9.5785  -15.4792   26.2768 C   0  0  0  0  0  0  0  0  0  0  0  0
    8.1945  -15.0316   26.1160 C   0  0  0  0  0  0  0  0  0  0  0  0
    7.1041  -15.8731   25.8508 C   0  0  0  0  0  0  0  0  0  0  0  0
    6.0335  -15.0955   25.7379 N   0  0  0  0  0  0  0  0  0  0  0  0
    6.3611  -13.8033   25.9144 C   0  0  0  0  0  0  0  0  0  0  0  0
    5.6308  -12.6418   25.9138 C   0  0  0  0  0  0  0  0  0  0  0  0
    6.1921  -11.4067   26.1443 C   0  0  0  0  0  0  0  0  0  0  0  0
    7.5500  -11.3647   26.3834 C   0  0  0  0  0  0  0  0  0  0  0  0
    8.3144  -12.5066   26.3913 C   0  0  0  0  0  0  0  0  0  0  0  0
    7.7272  -13.7395   26.1558 C   0  0  0  0  0  0  0  0  0  0  0  0
   10.3719  -17.7687   25.8866 C   0  0  0  0  0  0  0  0  0  0  0  0
   11.4990  -17.9771   26.6831 O   0  0  0  0  0  0  0  0  0  0  0  0
    9.6035  -18.7383   25.7079 O   0  0  0  0  0  0  0  0  0  0  0  0
  1  2  1  0
  2  4  1  0
  3  2  2  0
  4  5  1  0
  5  6  1  6
  7  5  1  0
  8  7  2  0
  9 10  1  0
 11 10  1  6
 11 13  1  0
 11 12  1  0
 12  7  1  0
 13 14  2  0
 15 16  1  0
 15 13  1  0
 16 17  1  1
 17 18  1  0
 18 26  1  0
 19 20  1  0
 19 18  2  0
 20 21  1  0
 21 26  2  0
 21 22  1  0
 22 23  2  0
 24 23  1  0
 25 24  2  0
 26 25  1  0
 27 28  1  0
 27 16  1  0
 29 27  2  0
M  END
$$$$
