NSW.pdb
     RDKit          3D

 29 30  0  0  1  0  0  0  0  0999 V2000
    9.7442  -16.4931   14.9120 N   0  0  0  0  0  0  0  0  0  0  0  0
   10.7869  -16.0253   15.7501 C   0  0  0  0  0  0  0  0  0  0  0  0
   11.9863  -16.0875   15.4159 O   0  0  0  0  0  0  0  0  0  0  0  0
   10.4233  -15.4450   17.0670 C   0  0  0  0  0  0  0  0  0  0  0  0
    8.9131  -15.6237   17.2311 C   0  0  2  0  0  0  0  0  0  0  0  0
    8.1975  -14.6184   16.4724 N   0  0  0  0  0  0  0  0  0  0  0  0
    8.6124  -15.4544   18.6598 C   0  0  0  0  0  0  0  0  0  0  0  0
    8.7795  -14.3149   19.1876 O   0  0  0  0  0  0  0  0  0  0  0  0
    7.2406  -18.5228   21.0766 O   0  0  0  0  0  0  0  0  0  0  0  0
    6.6796  -17.2722   21.2467 C   0  0  0  0  0  0  0  0  0  0  0  0
    7.7351  -16.2422   20.8192 C   0  0  2  0  0  0  0  0  0  0  0  0
    8.1356  -16.5310   19.4837 N   0  0  0  0  0  0  0  0  0  0  0  0
    8.8404  -16.3516   21.8015 C   0  0  0  0  0  0  0  0  0  0  0  0
    9.9277  -16.9006   21.4529 O   0  0  0  0  0  0  0  0  0  0  0  0
    8.7320  -15.8625   23.1288 N   0  0  0  0  0  0  0  0  0  0  0  0
    9.8491  -15.9126   24.0783 C   0  0  1  0  0  0  0  0  0  0  0  0
    9.6553  -14.7377   24.9913 C   0  0  0  0  0  0  0  0  0  0  0  0
    8.2816  -14.4584   25.4113 C   0  0  0  0  0  0  0  0  0  0  0  0
    7.2826  -15.4274   25.5859 C   0  0  0  0  0  0  0  0  0  0  0  0
    6.1743  -14.7828   25.9320 N   0  0  0  0  0  0  0  0  0  0  0  0
    6.3924  -13.4574   25.9939 C   0  0  0  0  0  0  0  0  0  0  0  0
    5.5936  -12.3891   26.3155 C   0  0  0  0  0  0  0  0  0  0  0  0
    6.0523  -11.0918   26.3315 C   0  0  0  0  0  0  0  0  0  0  0  0
    7.3768  -10.8861   26.0058 C   0  0  0  0  0  0  0  0  0  0  0  0
    8.2072  -11.9307   25.6776 C   0  0  0  0  0  0  0  0  0  0  0  0
    7.7228  -13.2290   25.6675 C   0  0  0  0  0  0  0  0  0  0  0  0
    9.9409  -17.1689   24.8141 C   0  0  0  0  0  0  0  0  0  0  0  0
    8.9231  -18.1237   24.7887 O   0  0  0  0  0  0  0  0  0  0  0  0
   10.9552  -17.4240   25.4986 O   0  0  0  0  0  0  0  0  0  0  0  0
  1  2  1  0
  2  4  1  0
  3  2  2  0
  4  5  1  0
  5  6  1  6
  7  5  1  0
  8  7  2  0
  9 10  1  0
 11 10  1  1
 11 13  1  0
 11 12  1  0
 12  7  1  0
 13 14  2  0
 15 16  1  0
 15 13  1  0
 16 17  1  1
 17 18  1  0
 18 26  1  0
 19 20  1  0
 19 18  2  0
 20 21  1  0
 21 26  2  0
 21 22  1  0
 22 23  2  0
 24 23  1  0
 25 24  2  0
 26 25  1  0
 27 28  1  0
 27 16  1  0
 29 27  2  0
M  END
$$$$
