NSW.pdb
     RDKit          3D

 29 30  0  0  1  0  0  0  0  0999 V2000
    9.4097  -13.6530   16.6940 N   0  0  0  0  0  0  0  0  0  0  0  0
    8.3353  -13.1429   17.4645 C   0  0  0  0  0  0  0  0  0  0  0  0
    7.5952  -12.2295   17.0497 O   0  0  0  0  0  0  0  0  0  0  0  0
    8.0958  -13.7252   18.8087 C   0  0  0  0  0  0  0  0  0  0  0  0
    9.1721  -14.7889   19.0318 C   0  0  2  0  0  0  0  0  0  0  0  0
    9.1556  -15.7608   17.9577 N   0  0  0  0  0  0  0  0  0  0  0  0
    8.8540  -15.4640   20.2979 C   0  0  0  0  0  0  0  0  0  0  0  0
    7.7059  -15.2969   20.8069 O   0  0  0  0  0  0  0  0  0  0  0  0
   11.2174  -18.3832   21.6101 O   0  0  0  0  0  0  0  0  0  0  0  0
    9.8945  -18.4862   21.9938 C   0  0  0  0  0  0  0  0  0  0  0  0
    9.3452  -17.0569   22.1077 C   0  0  2  0  0  0  0  0  0  0  0  0
    9.7942  -16.3076   20.9833 N   0  0  0  0  0  0  0  0  0  0  0  0
    9.8374  -16.5272   23.4022 C   0  0  0  0  0  0  0  0  0  0  0  0
   10.8028  -15.7068   23.4096 O   0  0  0  0  0  0  0  0  0  0  0  0
    9.2676  -16.9032   24.6459 N   0  0  0  0  0  0  0  0  0  0  0  0
    9.8065  -16.4395   25.9291 C   0  0  1  0  0  0  0  0  0  0  0  0
    8.6191  -16.2881   26.8339 C   0  0  0  0  0  0  0  0  0  0  0  0
    7.5446  -15.4157   26.3587 C   0  0  0  0  0  0  0  0  0  0  0  0
    6.3383  -15.8602   25.7976 C   0  0  0  0  0  0  0  0  0  0  0  0
    5.6464  -14.7781   25.4601 N   0  0  0  0  0  0  0  0  0  0  0  0
    6.3276  -13.6604   25.7682 C   0  0  0  0  0  0  0  0  0  0  0  0
    6.0449  -12.3240   25.6398 C   0  0  0  0  0  0  0  0  0  0  0  0
    6.9072  -11.3351   26.0550 C   0  0  0  0  0  0  0  0  0  0  0  0
    8.1001  -11.7339   26.6212 C   0  0  0  0  0  0  0  0  0  0  0  0
    8.4186  -13.0628   26.7659 C   0  0  0  0  0  0  0  0  0  0  0  0
    7.5347  -14.0413   26.3396 C   0  0  0  0  0  0  0  0  0  0  0  0
   10.8188  -17.3232   26.4969 C   0  0  0  0  0  0  0  0  0  0  0  0
   11.5852  -16.9627   27.6064 O   0  0  0  0  0  0  0  0  0  0  0  0
   11.0269  -18.4475   25.9918 O   0  0  0  0  0  0  0  0  0  0  0  0
  1  2  1  0
  2  4  1  0
  3  2  2  0
  4  5  1  0
  5  6  1  6
  7  5  1  0
  8  7  2  0
  9 10  1  0
 11 10  1  6
 11 13  1  0
 11 12  1  0
 12  7  1  0
 13 14  2  0
 15 16  1  0
 15 13  1  0
 16 17  1  1
 17 18  1  0
 18 26  1  0
 19 20  1  0
 19 18  2  0
 20 21  1  0
 21 26  2  0
 21 22  1  0
 22 23  2  0
 24 23  1  0
 25 24  2  0
 26 25  1  0
 27 28  1  0
 27 16  1  0
 29 27  2  0
M  END
$$$$
