NSW.pdb
     RDKit          3D

 29 30  0  0  1  0  0  0  0  0999 V2000
   15.3365  -16.0859   17.3253 N   0  0  0  0  0  0  0  0  0  0  0  0
   15.6140  -15.6689   18.6510 C   0  0  0  0  0  0  0  0  0  0  0  0
   16.7114  -15.8878   19.2003 O   0  0  0  0  0  0  0  0  0  0  0  0
   14.5525  -14.9490   19.3981 C   0  0  0  0  0  0  0  0  0  0  0  0
   13.3090  -14.9395   18.5074 C   0  0  2  0  0  0  0  0  0  0  0  0
   13.4534  -13.9660   17.4445 N   0  0  0  0  0  0  0  0  0  0  0  0
   12.1727  -14.5592   19.3586 C   0  0  0  0  0  0  0  0  0  0  0  0
   12.2929  -13.5574   20.1248 O   0  0  0  0  0  0  0  0  0  0  0  0
    8.5782  -16.3735   18.9926 O   0  0  0  0  0  0  0  0  0  0  0  0
    8.5360  -15.0694   19.4454 C   0  0  0  0  0  0  0  0  0  0  0  0
    9.8626  -14.8001   20.1701 C   0  0  2  0  0  0  0  0  0  0  0  0
   10.9289  -15.2789   19.3570 N   0  0  0  0  0  0  0  0  0  0  0  0
    9.7656  -15.4901   21.4790 C   0  0  0  0  0  0  0  0  0  0  0  0
   10.5524  -16.4497   21.7339 O   0  0  0  0  0  0  0  0  0  0  0  0
    8.8198  -15.1177   22.4688 N   0  0  0  0  0  0  0  0  0  0  0  0
    8.6472  -15.8735   23.7142 C   0  0  1  0  0  0  0  0  0  0  0  0
    7.3367  -15.4167   24.2847 C   0  0  0  0  0  0  0  0  0  0  0  0
    7.3832  -14.7968   25.6095 C   0  0  0  0  0  0  0  0  0  0  0  0
    7.4652  -15.4980   26.8216 C   0  0  0  0  0  0  0  0  0  0  0  0
    7.4475  -14.5936   27.7939 N   0  0  0  0  0  0  0  0  0  0  0  0
    7.3604  -13.3506   27.2884 C   0  0  0  0  0  0  0  0  0  0  0  0
    7.3275  -12.1046   27.8620 C   0  0  0  0  0  0  0  0  0  0  0  0
    7.2559  -10.9449   27.1248 C   0  0  0  0  0  0  0  0  0  0  0  0
    7.2167  -11.0706   25.7517 C   0  0  0  0  0  0  0  0  0  0  0  0
    7.2471  -12.3013   25.1412 C   0  0  0  0  0  0  0  0  0  0  0  0
    7.3186  -13.4558   25.9042 C   0  0  0  0  0  0  0  0  0  0  0  0
    8.6925  -17.3207   23.5363 C   0  0  0  0  0  0  0  0  0  0  0  0
    9.3691  -18.1599   24.4230 O   0  0  0  0  0  0  0  0  0  0  0  0
    8.1137  -17.8532   22.5648 O   0  0  0  0  0  0  0  0  0  0  0  0
  1  2  1  0
  2  4  1  0
  3  2  2  0
  4  5  1  0
  5  6  1  6
  7  5  1  0
  8  7  2  0
  9 10  1  0
 11 10  1  6
 11 13  1  0
 11 12  1  0
 12  7  1  0
 13 14  2  0
 15 16  1  0
 15 13  1  0
 16 17  1  6
 17 18  1  0
 18 26  1  0
 19 20  1  0
 19 18  2  0
 20 21  1  0
 21 26  2  0
 21 22  1  0
 22 23  2  0
 24 23  1  0
 25 24  2  0
 26 25  1  0
 27 28  1  0
 27 16  1  0
 29 27  2  0
M  END
$$$$
