NSW.pdb
     RDKit          3D

 29 30  0  0  1  0  0  0  0  0999 V2000
    6.5274  -14.0861   15.1379 N   0  0  0  0  0  0  0  0  0  0  0  0
    7.8451  -14.1425   15.6563 C   0  0  0  0  0  0  0  0  0  0  0  0
    8.7446  -14.8131   15.1129 O   0  0  0  0  0  0  0  0  0  0  0  0
    8.1493  -13.3728   16.8884 C   0  0  0  0  0  0  0  0  0  0  0  0
    9.2353  -14.1448   17.6395 C   0  0  2  0  0  0  0  0  0  0  0  0
    9.5523  -15.3775   16.9479 N   0  0  0  0  0  0  0  0  0  0  0  0
    8.6959  -14.4628   18.9691 C   0  0  0  0  0  0  0  0  0  0  0  0
    8.2766  -13.5165   19.6997 O   0  0  0  0  0  0  0  0  0  0  0  0
    7.5089  -18.0858   20.2470 O   0  0  0  0  0  0  0  0  0  0  0  0
    7.2251  -16.9859   21.0327 C   0  0  0  0  0  0  0  0  0  0  0  0
    8.3900  -15.9996   20.8660 C   0  0  2  0  0  0  0  0  0  0  0  0
    8.6248  -15.8060   19.4751 N   0  0  0  0  0  0  0  0  0  0  0  0
    9.5435  -16.5986   21.5795 C   0  0  0  0  0  0  0  0  0  0  0  0
    9.9353  -17.7601   21.2594 O   0  0  0  0  0  0  0  0  0  0  0  0
   10.2349  -15.9199   22.6159 N   0  0  0  0  0  0  0  0  0  0  0  0
    9.6092  -15.6102   23.9060 C   0  0  1  0  0  0  0  0  0  0  0  0
    8.3167  -14.9246   23.5730 C   0  0  0  0  0  0  0  0  0  0  0  0
    7.4895  -14.5073   24.7058 C   0  0  0  0  0  0  0  0  0  0  0  0
    6.6931  -15.3659   25.4778 C   0  0  0  0  0  0  0  0  0  0  0  0
    6.0723  -14.6127   26.3782 N   0  0  0  0  0  0  0  0  0  0  0  0
    6.4170  -13.3204   26.2393 C   0  0  0  0  0  0  0  0  0  0  0  0
    6.0727  -12.1792   26.9188 C   0  0  0  0  0  0  0  0  0  0  0  0
    6.5808  -10.9400   26.6028 C   0  0  0  0  0  0  0  0  0  0  0  0
    7.4727  -10.8720   25.5528 C   0  0  0  0  0  0  0  0  0  0  0  0
    7.8408  -11.9929   24.8483 C   0  0  0  0  0  0  0  0  0  0  0  0
    7.3155  -13.2305   25.1842 C   0  0  0  0  0  0  0  0  0  0  0  0
    9.4066  -16.7771   24.7578 C   0  0  0  0  0  0  0  0  0  0  0  0
    8.8566  -17.9657   24.2750 O   0  0  0  0  0  0  0  0  0  0  0  0
    9.7281  -16.7379   25.9650 O   0  0  0  0  0  0  0  0  0  0  0  0
  1  2  1  0
  2  4  1  0
  3  2  2  0
  4  5  1  0
  5  6  1  6
  7  5  1  0
  8  7  2  0
  9 10  1  0
 11 10  1  6
 11 13  1  0
 11 12  1  0
 12  7  1  0
 13 14  2  0
 15 16  1  0
 15 13  1  0
 16 17  1  6
 17 18  1  0
 18 26  1  0
 19 20  1  0
 19 18  2  0
 20 21  1  0
 21 26  2  0
 21 22  1  0
 22 23  2  0
 24 23  1  0
 25 24  2  0
 26 25  1  0
 27 28  1  0
 27 16  1  0
 29 27  2  0
M  END
$$$$
