NSW.pdb
     RDKit          3D

 29 30  0  0  1  0  0  0  0  0999 V2000
    8.1010  -12.2221   17.2790 N   0  0  0  0  0  0  0  0  0  0  0  0
    8.0780  -13.6380   17.2239 C   0  0  0  0  0  0  0  0  0  0  0  0
    8.3269  -14.2661   16.1763 O   0  0  0  0  0  0  0  0  0  0  0  0
    7.7439  -14.3842   18.4627 C   0  0  0  0  0  0  0  0  0  0  0  0
    9.0347  -14.4995   19.2753 C   0  0  2  0  0  0  0  0  0  0  0  0
   10.0916  -15.0764   18.4700 N   0  0  0  0  0  0  0  0  0  0  0  0
    8.7514  -15.3906   20.4092 C   0  0  0  0  0  0  0  0  0  0  0  0
    7.6052  -15.3475   20.9475 O   0  0  0  0  0  0  0  0  0  0  0  0
   11.1653  -18.3830   21.2117 O   0  0  0  0  0  0  0  0  0  0  0  0
    9.9313  -18.5378   21.8124 C   0  0  0  0  0  0  0  0  0  0  0  0
    9.3598  -17.1307   22.0387 C   0  0  2  0  0  0  0  0  0  0  0  0
    9.7233  -16.3104   20.9332 N   0  0  0  0  0  0  0  0  0  0  0  0
    9.9191  -16.6605   23.3290 C   0  0  0  0  0  0  0  0  0  0  0  0
   10.9376  -15.9071   23.3255 O   0  0  0  0  0  0  0  0  0  0  0  0
    9.3566  -17.0215   24.5805 N   0  0  0  0  0  0  0  0  0  0  0  0
    9.8856  -16.5200   25.8535 C   0  0  1  0  0  0  0  0  0  0  0  0
    8.6906  -16.3348   26.7418 C   0  0  0  0  0  0  0  0  0  0  0  0
    7.6336  -15.4573   26.2377 C   0  0  0  0  0  0  0  0  0  0  0  0
    6.3911  -15.8928   25.7538 C   0  0  0  0  0  0  0  0  0  0  0  0
    5.7294  -14.8117   25.3578 N   0  0  0  0  0  0  0  0  0  0  0  0
    6.4640  -13.7030   25.5556 C   0  0  0  0  0  0  0  0  0  0  0  0
    6.2284  -12.3695   25.3343 C   0  0  0  0  0  0  0  0  0  0  0  0
    7.1429  -11.3885   25.6426 C   0  0  0  0  0  0  0  0  0  0  0  0
    8.3397  -11.7922   26.1969 C   0  0  0  0  0  0  0  0  0  0  0  0
    8.6119  -13.1183   26.4325 C   0  0  0  0  0  0  0  0  0  0  0  0
    7.6759  -14.0890   26.1132 C   0  0  0  0  0  0  0  0  0  0  0  0
   10.8882  -17.3901   26.4584 C   0  0  0  0  0  0  0  0  0  0  0  0
   11.6618  -16.9899   27.5492 O   0  0  0  0  0  0  0  0  0  0  0  0
   11.0810  -18.5384   26.0038 O   0  0  0  0  0  0  0  0  0  0  0  0
  1  2  1  0
  2  4  1  0
  3  2  2  0
  4  5  1  0
  5  6  1  6
  7  5  1  0
  8  7  2  0
  9 10  1  0
 11 10  1  6
 11 13  1  0
 11 12  1  0
 12  7  1  0
 13 14  2  0
 15 16  1  0
 15 13  1  0
 16 17  1  1
 17 18  1  0
 18 26  1  0
 19 20  1  0
 19 18  2  0
 20 21  1  0
 21 26  2  0
 21 22  1  0
 22 23  2  0
 24 23  1  0
 25 24  2  0
 26 25  1  0
 27 28  1  0
 27 16  1  0
 29 27  2  0
M  END
$$$$
