FPY.pdb
     RDKit          3D

 31 33  0  0  1  0  0  0  0  0999 V2000
   27.2587  -21.7804  -15.6222 N   0  0  0  0  0  0  0  0  0  0  0  0
   26.9098  -20.8334  -14.5687 C   0  0  1  0  0  0  0  0  0  0  0  0
   26.5447  -19.4930  -15.1883 C   0  0  0  0  0  0  0  0  0  0  0  0
   27.6839  -18.8857  -15.8944 C   0  0  0  0  0  0  0  0  0  0  0  0
   28.4888  -17.9410  -15.2994 C   0  0  0  0  0  0  0  0  0  0  0  0
   29.5515  -17.3876  -15.9901 C   0  0  0  0  0  0  0  0  0  0  0  0
   29.8250  -17.7757  -17.2961 C   0  0  0  0  0  0  0  0  0  0  0  0
   29.0246  -18.7218  -17.9018 C   0  0  0  0  0  0  0  0  0  0  0  0
   27.9717  -19.2553  -17.1862 C   0  0  0  0  0  0  0  0  0  0  0  0
   25.7943  -21.3222  -13.7485 C   0  0  0  0  0  0  0  0  0  0  0  0
   24.7997  -21.8717  -14.2829 O   0  0  0  0  0  0  0  0  0  0  0  0
   25.7583  -21.2123  -12.3008 N   0  0  0  0  0  0  0  0  0  0  0  0
   26.9208  -21.1038  -11.4422 C   0  0  0  0  0  0  0  0  0  0  0  0
   26.4292  -20.0540  -10.4346 C   0  0  0  0  0  0  0  0  0  0  0  0
   25.0523  -20.6759  -10.1343 C   0  0  0  0  0  0  0  0  0  0  0  0
   24.6039  -21.2543  -11.4553 C   0  0  1  0  0  0  0  0  0  0  0  0
   23.4256  -20.5122  -11.9732 C   0  0  0  0  0  0  0  0  0  0  0  0
   23.4775  -19.3676  -12.4298 O   0  0  0  0  0  0  0  0  0  0  0  0
   20.6222  -25.7552  -16.0158 O   0  0  0  0  0  0  0  0  0  0  0  0
   20.7341  -24.4860  -15.5125 C   0  0  0  0  0  0  0  0  0  0  0  0
   19.6089  -23.7761  -15.1892 C   0  0  0  0  0  0  0  0  0  0  0  0
   19.6936  -22.4951  -14.6804 C   0  0  0  0  0  0  0  0  0  0  0  0
   20.9005  -21.8764  -14.4759 C   0  0  0  0  0  0  0  0  0  0  0  0
   21.0217  -20.5051  -13.9340 C   0  0  0  0  0  0  0  0  0  0  0  0
   20.9444  -20.4960  -12.4047 C   0  0  2  0  0  0  0  0  0  0  0  0
   22.1573  -21.1563  -11.9433 N   0  0  0  0  0  0  0  0  0  0  0  0
   19.7989  -21.3618  -12.0240 C   0  0  0  0  0  0  0  0  0  0  0  0
   20.0034  -22.4942  -11.4957 O   0  0  0  0  0  0  0  0  0  0  0  0
   22.0441  -22.6018  -14.8060 C   0  0  0  0  0  0  0  0  0  0  0  0
   21.9576  -23.8808  -15.3138 C   0  0  0  0  0  0  0  0  0  0  0  0
   18.4738  -20.9974  -12.2166 O   0  0  0  0  0  0  0  0  0  0  0  0
  2 10  1  0
  2  1  1  6
  3  2  1  0
  4  3  1  0
  4  5  2  0
  6  5  1  0
  7  6  2  0
  8  9  2  0
  8  7  1  0
  9  4  1  0
 10 12  1  0
 11 10  2  0
 12 16  1  0
 12 13  1  0
 13 14  1  0
 15 14  1  0
 16 15  1  0
 16 17  1  6
 18 17  2  0
 20 21  2  0
 20 19  1  0
 22 21  1  0
 23 22  2  0
 24 23  1  0
 25 24  1  6
 25 27  1  0
 25 26  1  0
 26 17  1  0
 27 31  1  0
 28 27  2  0
 29 23  1  0
 29 30  2  0
 30 20  1  0
M  END
$$$$
