FPY.pdb
     RDKit          3D

 31 33  0  0  1  0  0  0  0  0999 V2000
   27.1884  -21.2451  -15.1291 N   0  0  0  0  0  0  0  0  0  0  0  0
   26.9598  -20.2926  -14.0480 C   0  0  1  0  0  0  0  0  0  0  0  0
   26.1099  -19.1381  -14.5566 C   0  0  0  0  0  0  0  0  0  0  0  0
   26.7621  -18.4222  -15.6644 C   0  0  0  0  0  0  0  0  0  0  0  0
   28.0165  -17.8705  -15.5357 C   0  0  0  0  0  0  0  0  0  0  0  0
   28.6024  -17.2022  -16.5954 C   0  0  0  0  0  0  0  0  0  0  0  0
   27.9351  -17.0764  -17.8078 C   0  0  0  0  0  0  0  0  0  0  0  0
   26.6776  -17.6257  -17.9475 C   0  0  0  0  0  0  0  0  0  0  0  0
   26.1198  -18.2865  -16.8715 C   0  0  0  0  0  0  0  0  0  0  0  0
   26.3014  -20.9257  -12.8983 C   0  0  0  0  0  0  0  0  0  0  0  0
   25.1441  -21.4009  -13.0054 O   0  0  0  0  0  0  0  0  0  0  0  0
   26.9205  -21.0485  -11.5903 N   0  0  0  0  0  0  0  0  0  0  0  0
   28.3479  -21.0641  -11.3399 C   0  0  0  0  0  0  0  0  0  0  0  0
   28.4213  -20.1944  -10.0762 C   0  0  0  0  0  0  0  0  0  0  0  0
   27.2870  -20.8728   -9.2850 C   0  0  0  0  0  0  0  0  0  0  0  0
   26.2631  -21.2386  -10.3329 C   0  0  1  0  0  0  0  0  0  0  0  0
   25.0251  -20.4377  -10.1503 C   0  0  0  0  0  0  0  0  0  0  0  0
   24.8720  -19.2951  -10.5887 O   0  0  0  0  0  0  0  0  0  0  0  0
   16.7700  -20.0702  -12.2674 O   0  0  0  0  0  0  0  0  0  0  0  0
   18.0844  -20.3207  -11.9738 C   0  0  0  0  0  0  0  0  0  0  0  0
   18.4312  -21.4673  -11.3108 C   0  0  0  0  0  0  0  0  0  0  0  0
   19.7485  -21.7441  -11.0025 C   0  0  0  0  0  0  0  0  0  0  0  0
   20.7660  -20.8897  -11.3430 C   0  0  0  0  0  0  0  0  0  0  0  0
   22.1854  -21.1591  -11.0247 C   0  0  0  0  0  0  0  0  0  0  0  0
   22.5646  -20.6171   -9.6437 C   0  0  2  0  0  0  0  0  0  0  0  0
   23.9470  -21.0194   -9.4266 N   0  0  0  0  0  0  0  0  0  0  0  0
   21.7328  -21.3434   -8.6502 C   0  0  0  0  0  0  0  0  0  0  0  0
   22.0670  -22.5020   -8.2640 O   0  0  0  0  0  0  0  0  0  0  0  0
   20.4096  -19.7232  -12.0181 C   0  0  0  0  0  0  0  0  0  0  0  0
   19.0938  -19.4486  -12.3251 C   0  0  0  0  0  0  0  0  0  0  0  0
   20.5733  -20.8163   -8.0992 O   0  0  0  0  0  0  0  0  0  0  0  0
  2 10  1  0
  2  1  1  6
  3  2  1  0
  4  3  1  0
  4  5  2  0
  6  5  1  0
  7  6  2  0
  8  9  2  0
  8  7  1  0
  9  4  1  0
 10 12  1  0
 11 10  2  0
 12 16  1  0
 12 13  1  0
 13 14  1  0
 15 14  1  0
 16 15  1  0
 16 17  1  6
 18 17  2  0
 20 21  2  0
 20 19  1  0
 22 21  1  0
 23 22  2  0
 24 23  1  0
 25 24  1  6
 25 27  1  0
 25 26  1  0
 26 17  1  0
 27 31  1  0
 28 27  2  0
 29 23  1  0
 29 30  2  0
 30 20  1  0
M  END
$$$$
