FPY.pdb
     RDKit          3D

 31 33  0  0  1  0  0  0  0  0999 V2000
   20.4229  -18.7183  -20.6062 N   0  0  0  0  0  0  0  0  0  0  0  0
   20.4536  -17.7905  -19.4809 C   0  0  1  0  0  0  0  0  0  0  0  0
   19.5626  -16.5948  -19.7814 C   0  0  0  0  0  0  0  0  0  0  0  0
   20.0092  -15.8638  -20.9778 C   0  0  0  0  0  0  0  0  0  0  0  0
   19.2207  -15.7554  -22.1007 C   0  0  0  0  0  0  0  0  0  0  0  0
   19.6695  -15.0625  -23.2103 C   0  0  0  0  0  0  0  0  0  0  0  0
   20.9236  -14.4641  -23.2106 C   0  0  0  0  0  0  0  0  0  0  0  0
   21.7219  -14.5666  -22.0904 C   0  0  0  0  0  0  0  0  0  0  0  0
   21.2456  -15.2647  -20.9990 C   0  0  0  0  0  0  0  0  0  0  0  0
   20.0177  -18.4347  -18.2355 C   0  0  0  0  0  0  0  0  0  0  0  0
   18.8580  -18.9045  -18.1299 O   0  0  0  0  0  0  0  0  0  0  0  0
   20.8692  -18.5750  -17.0674 N   0  0  0  0  0  0  0  0  0  0  0  0
   22.3050  -18.3787  -17.0520 C   0  0  0  0  0  0  0  0  0  0  0  0
   22.4722  -17.6301  -15.7213 C   0  0  0  0  0  0  0  0  0  0  0  0
   21.6072  -18.5566  -14.8460 C   0  0  0  0  0  0  0  0  0  0  0  0
   20.4791  -18.9869  -15.7530 C   0  0  1  0  0  0  0  0  0  0  0  0
   19.1891  -18.4212  -15.2805 C   0  0  0  0  0  0  0  0  0  0  0  0
   18.8408  -17.2521  -15.4626 O   0  0  0  0  0  0  0  0  0  0  0  0
   15.9883  -24.7487  -16.3780 O   0  0  0  0  0  0  0  0  0  0  0  0
   15.9932  -23.4013  -16.1307 C   0  0  0  0  0  0  0  0  0  0  0  0
   16.3998  -22.9307  -14.9109 C   0  0  0  0  0  0  0  0  0  0  0  0
   16.4142  -21.5776  -14.6354 C   0  0  0  0  0  0  0  0  0  0  0  0
   16.0245  -20.6462  -15.5638 C   0  0  0  0  0  0  0  0  0  0  0  0
   16.0280  -19.1912  -15.2965 C   0  0  0  0  0  0  0  0  0  0  0  0
   16.9768  -18.8326  -14.1493 C   0  0  2  0  0  0  0  0  0  0  0  0
   18.2970  -19.2757  -14.5746 N   0  0  0  0  0  0  0  0  0  0  0  0
   16.5847  -19.6686  -12.9858 C   0  0  0  0  0  0  0  0  0  0  0  0
   15.4896  -19.4549  -12.3872 O   0  0  0  0  0  0  0  0  0  0  0  0
   15.6111  -21.1286  -16.8047 C   0  0  0  0  0  0  0  0  0  0  0  0
   15.5974  -22.4799  -17.0779 C   0  0  0  0  0  0  0  0  0  0  0  0
   17.3678  -20.7040  -12.4954 O   0  0  0  0  0  0  0  0  0  0  0  0
  2 10  1  0
  2  1  1  6
  3  2  1  0
  4  3  1  0
  4  5  2  0
  6  5  1  0
  7  6  2  0
  8  9  2  0
  8  7  1  0
  9  4  1  0
 10 12  1  0
 11 10  2  0
 12 16  1  0
 12 13  1  0
 13 14  1  0
 15 14  1  0
 16 15  1  0
 16 17  1  1
 18 17  2  0
 20 21  2  0
 20 19  1  0
 22 21  1  0
 23 22  2  0
 24 23  1  0
 25 24  1  6
 25 27  1  0
 25 26  1  0
 26 17  1  0
 27 31  1  0
 28 27  2  0
 29 23  1  0
 29 30  2  0
 30 20  1  0
M  END
$$$$
