FPY.pdb
     RDKit          3D

 31 33  0  0  1  0  0  0  0  0999 V2000
   22.6582  -21.8152  -16.6103 N   0  0  0  0  0  0  0  0  0  0  0  0
   22.0464  -21.9281  -15.2908 C   0  0  1  0  0  0  0  0  0  0  0  0
   21.7728  -23.3915  -14.9790 C   0  0  0  0  0  0  0  0  0  0  0  0
   20.7088  -23.9452  -15.8314 C   0  0  0  0  0  0  0  0  0  0  0  0
   19.4141  -23.4817  -15.7723 C   0  0  0  0  0  0  0  0  0  0  0  0
   18.4359  -24.0237  -16.5859 C   0  0  0  0  0  0  0  0  0  0  0  0
   18.7430  -25.0451  -17.4766 C   0  0  0  0  0  0  0  0  0  0  0  0
   20.0373  -25.5170  -17.5438 C   0  0  0  0  0  0  0  0  0  0  0  0
   20.9910  -24.9555  -16.7189 C   0  0  0  0  0  0  0  0  0  0  0  0
   22.9004  -21.3486  -14.2463 C   0  0  0  0  0  0  0  0  0  0  0  0
   24.0620  -21.7850  -14.0542 O   0  0  0  0  0  0  0  0  0  0  0  0
   22.4801  -20.2586  -13.3834 N   0  0  0  0  0  0  0  0  0  0  0  0
   21.2931  -19.4499  -13.5772 C   0  0  0  0  0  0  0  0  0  0  0  0
   20.7967  -19.3275  -12.1290 C   0  0  0  0  0  0  0  0  0  0  0  0
   22.1384  -18.9456  -11.4758 C   0  0  0  0  0  0  0  0  0  0  0  0
   23.1698  -19.7400  -12.2411 C   0  0  1  0  0  0  0  0  0  0  0  0
   23.7859  -20.7699  -11.3653 C   0  0  0  0  0  0  0  0  0  0  0  0
   23.3069  -21.8906  -11.1764 O   0  0  0  0  0  0  0  0  0  0  0  0
   28.1993  -19.6625   -4.1304 O   0  0  0  0  0  0  0  0  0  0  0  0
   27.9050  -19.9576   -5.4354 C   0  0  0  0  0  0  0  0  0  0  0  0
   28.8650  -19.8194   -6.4017 C   0  0  0  0  0  0  0  0  0  0  0  0
   28.5948  -20.1098   -7.7245 C   0  0  0  0  0  0  0  0  0  0  0  0
   27.3602  -20.5474   -8.1313 C   0  0  0  0  0  0  0  0  0  0  0  0
   27.0416  -20.8646   -9.5408 C   0  0  0  0  0  0  0  0  0  0  0  0
   25.5903  -21.3266   -9.6989 C   0  0  2  0  0  0  0  0  0  0  0  0
   25.0029  -20.4494  -10.7017 N   0  0  0  0  0  0  0  0  0  0  0  0
   24.9041  -21.0465   -8.4116 C   0  0  0  0  0  0  0  0  0  0  0  0
   24.3467  -19.9265   -8.2166 O   0  0  0  0  0  0  0  0  0  0  0  0
   26.3850  -20.6871   -7.1450 C   0  0  0  0  0  0  0  0  0  0  0  0
   26.6567  -20.3968   -5.8249 C   0  0  0  0  0  0  0  0  0  0  0  0
   24.8321  -21.9643   -7.3732 O   0  0  0  0  0  0  0  0  0  0  0  0
  2 10  1  0
  2  1  1  6
  3  2  1  0
  4  3  1  0
  4  5  2  0
  6  5  1  0
  7  6  2  0
  8  9  2  0
  8  7  1  0
  9  4  1  0
 10 12  1  0
 11 10  2  0
 12 16  1  0
 12 13  1  0
 13 14  1  0
 15 14  1  0
 16 15  1  0
 16 17  1  1
 18 17  2  0
 20 21  2  0
 20 19  1  0
 22 21  1  0
 23 22  2  0
 24 23  1  0
 25 24  1  1
 25 27  1  0
 25 26  1  0
 26 17  1  0
 27 31  1  0
 28 27  2  0
 29 23  1  0
 29 30  2  0
 30 20  1  0
M  END
$$$$
