FPY.pdb
     RDKit          3D

 31 33  0  0  1  0  0  0  0  0999 V2000
   27.0410  -19.8367  -12.3188 N   0  0  0  0  0  0  0  0  0  0  0  0
   26.3075  -21.0851  -12.1415 C   0  0  1  0  0  0  0  0  0  0  0  0
   25.7804  -21.1690  -10.7171 C   0  0  0  0  0  0  0  0  0  0  0  0
   26.8430  -20.9462   -9.7240 C   0  0  0  0  0  0  0  0  0  0  0  0
   28.1240  -21.4131   -9.9120 C   0  0  0  0  0  0  0  0  0  0  0  0
   29.1008  -21.1885   -8.9590 C   0  0  0  0  0  0  0  0  0  0  0  0
   28.8059  -20.4878   -7.7958 C   0  0  0  0  0  0  0  0  0  0  0  0
   27.5253  -20.0154   -7.5974 C   0  0  0  0  0  0  0  0  0  0  0  0
   26.5727  -20.2558   -8.5671 C   0  0  0  0  0  0  0  0  0  0  0  0
   25.1935  -21.1986  -13.0913 C   0  0  0  0  0  0  0  0  0  0  0  0
   24.1706  -20.4811  -12.9666 O   0  0  0  0  0  0  0  0  0  0  0  0
   25.1908  -22.1199  -14.2140 N   0  0  0  0  0  0  0  0  0  0  0  0
   26.3734  -22.6354  -14.8743 C   0  0  0  0  0  0  0  0  0  0  0  0
   25.9595  -24.0986  -15.0904 C   0  0  0  0  0  0  0  0  0  0  0  0
   24.5562  -23.8392  -15.6703 C   0  0  0  0  0  0  0  0  0  0  0  0
   24.0518  -22.6347  -14.9120 C   0  0  1  0  0  0  0  0  0  0  0  0
   22.9069  -23.0108  -14.0432 C   0  0  0  0  0  0  0  0  0  0  0  0
   23.0250  -23.5708  -12.9507 O   0  0  0  0  0  0  0  0  0  0  0  0
   19.8046  -16.8840  -15.3266 O   0  0  0  0  0  0  0  0  0  0  0  0
   19.8997  -18.0944  -14.6922 C   0  0  0  0  0  0  0  0  0  0  0  0
   21.1170  -18.5451  -14.2566 C   0  0  0  0  0  0  0  0  0  0  0  0
   21.2409  -19.7614  -13.6145 C   0  0  0  0  0  0  0  0  0  0  0  0
   20.1581  -20.5711  -13.3838 C   0  0  0  0  0  0  0  0  0  0  0  0
   20.2608  -21.8790  -12.7001 C   0  0  0  0  0  0  0  0  0  0  0  0
   20.4116  -23.0270  -13.7022 C   0  0  2  0  0  0  0  0  0  0  0  0
   21.5915  -22.7088  -14.4937 N   0  0  0  0  0  0  0  0  0  0  0  0
   19.2396  -22.9636  -14.6127 C   0  0  0  0  0  0  0  0  0  0  0  0
   19.3736  -22.5325  -15.7956 O   0  0  0  0  0  0  0  0  0  0  0  0
   18.9202  -20.1093  -13.8284 C   0  0  0  0  0  0  0  0  0  0  0  0
   18.7985  -18.8946  -14.4692 C   0  0  0  0  0  0  0  0  0  0  0  0
   17.9636  -23.3598  -14.2378 O   0  0  0  0  0  0  0  0  0  0  0  0
  2 10  1  0
  2  1  1  1
  3  2  1  0
  4  3  1  0
  4  5  2  0
  6  5  1  0
  7  6  2  0
  8  9  2  0
  8  7  1  0
  9  4  1  0
 10 12  1  0
 11 10  2  0
 12 16  1  0
 12 13  1  0
 13 14  1  0
 15 14  1  0
 16 15  1  0
 16 17  1  1
 18 17  2  0
 20 21  2  0
 20 19  1  0
 22 21  1  0
 23 22  2  0
 24 23  1  0
 25 24  1  1
 25 27  1  0
 25 26  1  0
 26 17  1  0
 27 31  1  0
 28 27  2  0
 29 23  1  0
 29 30  2  0
 30 20  1  0
M  END
$$$$
