FPY.pdb
     RDKit          3D

 31 33  0  0  1  0  0  0  0  0999 V2000
   21.5032  -16.6285  -20.3253 N   0  0  0  0  0  0  0  0  0  0  0  0
   20.6963  -15.4953  -20.7644 C   0  0  1  0  0  0  0  0  0  0  0  0
   19.8438  -15.9071  -21.9551 C   0  0  0  0  0  0  0  0  0  0  0  0
   20.6660  -16.2674  -23.1210 C   0  0  0  0  0  0  0  0  0  0  0  0
   21.3185  -15.3168  -23.8727 C   0  0  0  0  0  0  0  0  0  0  0  0
   22.0831  -15.6872  -24.9641 C   0  0  0  0  0  0  0  0  0  0  0  0
   22.2055  -17.0247  -25.3204 C   0  0  0  0  0  0  0  0  0  0  0  0
   21.5557  -17.9854  -24.5738 C   0  0  0  0  0  0  0  0  0  0  0  0
   20.8004  -17.5840  -23.4904 C   0  0  0  0  0  0  0  0  0  0  0  0
   19.8350  -14.9934  -19.6864 C   0  0  0  0  0  0  0  0  0  0  0  0
   19.0043  -15.7503  -19.1260 O   0  0  0  0  0  0  0  0  0  0  0  0
   19.8782  -13.6258  -19.1995 N   0  0  0  0  0  0  0  0  0  0  0  0
   20.9359  -12.6742  -19.4751 C   0  0  0  0  0  0  0  0  0  0  0  0
   20.1126  -11.3996  -19.7130 C   0  0  0  0  0  0  0  0  0  0  0  0
   19.1957  -11.5055  -18.4798 C   0  0  0  0  0  0  0  0  0  0  0  0
   18.9443  -12.9862  -18.3230 C   0  0  1  0  0  0  0  0  0  0  0  0
   17.5183  -13.3019  -18.5952 C   0  0  0  0  0  0  0  0  0  0  0  0
   17.0411  -13.4164  -19.7267 O   0  0  0  0  0  0  0  0  0  0  0  0
   16.6851  -19.7482  -19.5503 O   0  0  0  0  0  0  0  0  0  0  0  0
   16.2668  -18.6195  -18.8963 C   0  0  0  0  0  0  0  0  0  0  0  0
   17.0889  -18.0114  -17.9859 C   0  0  0  0  0  0  0  0  0  0  0  0
   16.6918  -16.8729  -17.3128 C   0  0  0  0  0  0  0  0  0  0  0  0
   15.4632  -16.3003  -17.5223 C   0  0  0  0  0  0  0  0  0  0  0  0
   15.0104  -15.0823  -16.8150 C   0  0  0  0  0  0  0  0  0  0  0  0
   15.2399  -13.8247  -17.6579 C   0  0  2  0  0  0  0  0  0  0  0  0
   16.6453  -13.4847  -17.4867 N   0  0  0  0  0  0  0  0  0  0  0  0
   14.4438  -12.7356  -17.0360 C   0  0  0  0  0  0  0  0  0  0  0  0
   15.0237  -11.7947  -16.4182 O   0  0  0  0  0  0  0  0  0  0  0  0
   14.6285  -16.9218  -18.4499 C   0  0  0  0  0  0  0  0  0  0  0  0
   15.0268  -18.0584  -19.1210 C   0  0  0  0  0  0  0  0  0  0  0  0
   13.0582  -12.6808  -17.0901 O   0  0  0  0  0  0  0  0  0  0  0  0
  2 10  1  0
  2  1  1  1
  3  2  1  0
  4  3  1  0
  4  5  2  0
  6  5  1  0
  7  6  2  0
  8  9  2  0
  8  7  1  0
  9  4  1  0
 10 12  1  0
 11 10  2  0
 12 16  1  0
 12 13  1  0
 13 14  1  0
 15 14  1  0
 16 15  1  0
 16 17  1  6
 18 17  2  0
 20 21  2  0
 20 19  1  0
 22 21  1  0
 23 22  2  0
 24 23  1  0
 25 24  1  1
 25 27  1  0
 25 26  1  0
 26 17  1  0
 27 31  1  0
 28 27  2  0
 29 23  1  0
 29 30  2  0
 30 20  1  0
M  END
$$$$
