FPY.pdb
     RDKit          3D

 31 33  0  0  1  0  0  0  0  0999 V2000
   26.8562  -22.0993  -17.2593 N   0  0  0  0  0  0  0  0  0  0  0  0
   26.8129  -20.9408  -16.3738 C   0  0  1  0  0  0  0  0  0  0  0  0
   26.4391  -19.7017  -17.1731 C   0  0  0  0  0  0  0  0  0  0  0  0
   26.6466  -18.4665  -16.4007 C   0  0  0  0  0  0  0  0  0  0  0  0
   25.6666  -17.9433  -15.5881 C   0  0  0  0  0  0  0  0  0  0  0  0
   25.8917  -16.7795  -14.8756 C   0  0  0  0  0  0  0  0  0  0  0  0
   27.1106  -16.1187  -14.9677 C   0  0  0  0  0  0  0  0  0  0  0  0
   28.0995  -16.6344  -15.7791 C   0  0  0  0  0  0  0  0  0  0  0  0
   27.8443  -17.7975  -16.4774 C   0  0  0  0  0  0  0  0  0  0  0  0
   25.8555  -21.1324  -15.2772 C   0  0  0  0  0  0  0  0  0  0  0  0
   24.6265  -21.2391  -15.5119 O   0  0  0  0  0  0  0  0  0  0  0  0
   26.2452  -21.2127  -13.8804 N   0  0  0  0  0  0  0  0  0  0  0  0
   27.6092  -21.2891  -13.3969 C   0  0  0  0  0  0  0  0  0  0  0  0
   27.5296  -20.3537  -12.1814 C   0  0  0  0  0  0  0  0  0  0  0  0
   26.2424  -20.9251  -11.5573 C   0  0  0  0  0  0  0  0  0  0  0  0
   25.3818  -21.2958  -12.7415 C   0  0  1  0  0  0  0  0  0  0  0  0
   24.1821  -20.4218  -12.8046 C   0  0  0  0  0  0  0  0  0  0  0  0
   24.2192  -19.1921  -12.7162 O   0  0  0  0  0  0  0  0  0  0  0  0
   20.3812  -24.1101  -17.9313 O   0  0  0  0  0  0  0  0  0  0  0  0
   20.6691  -23.0672  -17.0910 C   0  0  0  0  0  0  0  0  0  0  0  0
   19.6554  -22.3933  -16.4641 C   0  0  0  0  0  0  0  0  0  0  0  0
   19.9179  -21.3385  -15.6124 C   0  0  0  0  0  0  0  0  0  0  0  0
   21.1978  -20.9178  -15.3552 C   0  0  0  0  0  0  0  0  0  0  0  0
   21.5089  -19.7905  -14.4490 C   0  0  0  0  0  0  0  0  0  0  0  0
   21.6764  -20.2621  -13.0019 C   0  0  2  0  0  0  0  0  0  0  0  0
   22.9100  -21.0350  -12.9779 N   0  0  0  0  0  0  0  0  0  0  0  0
   20.5613  -21.2023  -12.7211 C   0  0  0  0  0  0  0  0  0  0  0  0
   20.7919  -22.4382  -12.5701 O   0  0  0  0  0  0  0  0  0  0  0  0
   22.2276  -21.6060  -15.9949 C   0  0  0  0  0  0  0  0  0  0  0  0
   21.9635  -22.6589  -16.8449 C   0  0  0  0  0  0  0  0  0  0  0  0
   19.2377  -20.8003  -12.6099 O   0  0  0  0  0  0  0  0  0  0  0  0
  2 10  1  0
  2  1  1  6
  3  2  1  0
  4  3  1  0
  4  5  2  0
  6  5  1  0
  7  6  2  0
  8  9  2  0
  8  7  1  0
  9  4  1  0
 10 12  1  0
 11 10  2  0
 12 16  1  0
 12 13  1  0
 13 14  1  0
 15 14  1  0
 16 15  1  0
 16 17  1  6
 18 17  2  0
 20 21  2  0
 20 19  1  0
 22 21  1  0
 23 22  2  0
 24 23  1  0
 25 24  1  6
 25 27  1  0
 25 26  1  0
 26 17  1  0
 27 31  1  0
 28 27  2  0
 29 23  1  0
 29 30  2  0
 30 20  1  0
M  END
$$$$
