FPY.pdb
     RDKit          3D

 31 33  0  0  1  0  0  0  0  0999 V2000
   26.3385  -19.2424  -11.1072 N   0  0  0  0  0  0  0  0  0  0  0  0
   26.1143  -20.6833  -11.1504 C   0  0  1  0  0  0  0  0  0  0  0  0
   25.9078  -21.2098   -9.7383 C   0  0  0  0  0  0  0  0  0  0  0  0
   26.9800  -20.7769   -8.8283 C   0  0  0  0  0  0  0  0  0  0  0  0
   28.2944  -21.1301   -9.0327 C   0  0  0  0  0  0  0  0  0  0  0  0
   29.2795  -20.7084   -8.1583 C   0  0  0  0  0  0  0  0  0  0  0  0
   28.9593  -19.9212   -7.0589 C   0  0  0  0  0  0  0  0  0  0  0  0
   27.6450  -19.5615   -6.8448 C   0  0  0  0  0  0  0  0  0  0  0  0
   26.6850  -19.9981   -7.7354 C   0  0  0  0  0  0  0  0  0  0  0  0
   24.9548  -21.0264  -11.9834 C   0  0  0  0  0  0  0  0  0  0  0  0
   23.7870  -20.8173  -11.5720 O   0  0  0  0  0  0  0  0  0  0  0  0
   25.0670  -21.6140  -13.3068 N   0  0  0  0  0  0  0  0  0  0  0  0
   26.3008  -21.7650  -14.0518 C   0  0  0  0  0  0  0  0  0  0  0  0
   26.0985  -23.1650  -14.6501 C   0  0  0  0  0  0  0  0  0  0  0  0
   24.6635  -22.9670  -15.1739 C   0  0  0  0  0  0  0  0  0  0  0  0
   24.0030  -22.0866  -14.1400 C   0  0  1  0  0  0  0  0  0  0  0  0
   22.9380  -22.8358  -13.4247 C   0  0  0  0  0  0  0  0  0  0  0  0
   23.1452  -23.8305  -12.7256 O   0  0  0  0  0  0  0  0  0  0  0  0
   15.9026  -24.2986   -8.6124 O   0  0  0  0  0  0  0  0  0  0  0  0
   16.9250  -23.7743   -9.3586 C   0  0  0  0  0  0  0  0  0  0  0  0
   16.6605  -22.8314  -10.3153 C   0  0  0  0  0  0  0  0  0  0  0  0
   17.6722  -22.2869  -11.0813 C   0  0  0  0  0  0  0  0  0  0  0  0
   18.9819  -22.6619  -10.9219 C   0  0  0  0  0  0  0  0  0  0  0  0
   20.0860  -22.0972  -11.7286 C   0  0  0  0  0  0  0  0  0  0  0  0
   20.4909  -23.0397  -12.8654 C   0  0  2  0  0  0  0  0  0  0  0  0
   21.5952  -22.3825  -13.5499 N   0  0  0  0  0  0  0  0  0  0  0  0
   19.3496  -23.0879  -13.8150 C   0  0  0  0  0  0  0  0  0  0  0  0
   19.2103  -22.1845  -14.6911 O   0  0  0  0  0  0  0  0  0  0  0  0
   19.2479  -23.6221   -9.9469 C   0  0  0  0  0  0  0  0  0  0  0  0
   18.2364  -24.1645   -9.1830 C   0  0  0  0  0  0  0  0  0  0  0  0
   18.3932  -24.0935  -13.8035 O   0  0  0  0  0  0  0  0  0  0  0  0
  2 10  1  0
  2  1  1  1
  3  2  1  0
  4  3  1  0
  4  5  2  0
  6  5  1  0
  7  6  2  0
  8  9  2  0
  8  7  1  0
  9  4  1  0
 10 12  1  0
 11 10  2  0
 12 16  1  0
 12 13  1  0
 13 14  1  0
 15 14  1  0
 16 15  1  0
 16 17  1  1
 18 17  2  0
 20 21  2  0
 20 19  1  0
 22 21  1  0
 23 22  2  0
 24 23  1  0
 25 24  1  1
 25 27  1  0
 25 26  1  0
 26 17  1  0
 27 31  1  0
 28 27  2  0
 29 23  1  0
 29 30  2  0
 30 20  1  0
M  END
$$$$
