FPY.pdb
     RDKit          3D

 31 33  0  0  1  0  0  0  0  0999 V2000
   22.1348  -21.2801  -13.6255 N   0  0  0  0  0  0  0  0  0  0  0  0
   21.4807  -20.6677  -12.4743 C   0  0  1  0  0  0  0  0  0  0  0  0
   20.0947  -20.1839  -12.8728 C   0  0  0  0  0  0  0  0  0  0  0  0
   20.1427  -19.2648  -14.0209 C   0  0  0  0  0  0  0  0  0  0  0  0
   20.7645  -18.0392  -13.9462 C   0  0  0  0  0  0  0  0  0  0  0  0
   20.7915  -17.1969  -15.0428 C   0  0  0  0  0  0  0  0  0  0  0  0
   20.1916  -17.5733  -16.2384 C   0  0  0  0  0  0  0  0  0  0  0  0
   19.5658  -18.7994  -16.3240 C   0  0  0  0  0  0  0  0  0  0  0  0
   19.5559  -19.6175  -15.2122 C   0  0  0  0  0  0  0  0  0  0  0  0
   21.3755  -21.6049  -11.3489 C   0  0  0  0  0  0  0  0  0  0  0  0
   20.6762  -22.6435  -11.4442 O   0  0  0  0  0  0  0  0  0  0  0  0
   22.0531  -21.4090  -10.0793 N   0  0  0  0  0  0  0  0  0  0  0  0
   23.2298  -20.5873   -9.8786 C   0  0  0  0  0  0  0  0  0  0  0  0
   22.8802  -19.9171   -8.5416 C   0  0  0  0  0  0  0  0  0  0  0  0
   22.4339  -21.1801   -7.7810 C   0  0  0  0  0  0  0  0  0  0  0  0
   21.7405  -22.0232   -8.8245 C   0  0  1  0  0  0  0  0  0  0  0  0
   20.2887  -22.1268   -8.5266 C   0  0  0  0  0  0  0  0  0  0  0  0
   19.4299  -21.3892   -9.0160 O   0  0  0  0  0  0  0  0  0  0  0  0
   12.7853  -26.0567   -9.0360 O   0  0  0  0  0  0  0  0  0  0  0  0
   14.0981  -25.6718   -8.9639 C   0  0  0  0  0  0  0  0  0  0  0  0
   14.4601  -24.4022   -9.3266 C   0  0  0  0  0  0  0  0  0  0  0  0
   15.7761  -23.9887   -9.2636 C   0  0  0  0  0  0  0  0  0  0  0  0
   16.7772  -24.8241   -8.8377 C   0  0  0  0  0  0  0  0  0  0  0  0
   18.1952  -24.4093   -8.7612 C   0  0  0  0  0  0  0  0  0  0  0  0
   18.4620  -23.5433   -7.5268 C   0  0  2  0  0  0  0  0  0  0  0  0
   19.8568  -23.1370   -7.6225 N   0  0  0  0  0  0  0  0  0  0  0  0
   18.3413  -24.4303   -6.3414 C   0  0  0  0  0  0  0  0  0  0  0  0
   19.3138  -25.1612   -5.9903 O   0  0  0  0  0  0  0  0  0  0  0  0
   16.4053  -26.1160   -8.4690 C   0  0  0  0  0  0  0  0  0  0  0  0
   15.0907  -26.5270   -8.5325 C   0  0  0  0  0  0  0  0  0  0  0  0
   17.1924  -24.5127   -5.5675 O   0  0  0  0  0  0  0  0  0  0  0  0
  2 10  1  0
  2  1  1  6
  3  2  1  0
  4  3  1  0
  4  5  2  0
  6  5  1  0
  7  6  2  0
  8  9  2  0
  8  7  1  0
  9  4  1  0
 10 12  1  0
 11 10  2  0
 12 16  1  0
 12 13  1  0
 13 14  1  0
 15 14  1  0
 16 15  1  0
 16 17  1  1
 18 17  2  0
 20 21  2  0
 20 19  1  0
 22 21  1  0
 23 22  2  0
 24 23  1  0
 25 24  1  6
 25 27  1  0
 25 26  1  0
 26 17  1  0
 27 31  1  0
 28 27  2  0
 29 23  1  0
 29 30  2  0
 30 20  1  0
M  END
$$$$
