FPY.pdb
     RDKit          3D

 31 33  0  0  1  0  0  0  0  0999 V2000
   27.8119  -21.6130  -16.2580 N   0  0  0  0  0  0  0  0  0  0  0  0
   27.4504  -20.6929  -15.1851 C   0  0  1  0  0  0  0  0  0  0  0  0
   27.0993  -19.3352  -15.7743 C   0  0  0  0  0  0  0  0  0  0  0  0
   28.2504  -18.7149  -16.4492 C   0  0  0  0  0  0  0  0  0  0  0  0
   29.4446  -18.4987  -15.7999 C   0  0  0  0  0  0  0  0  0  0  0  0
   30.5081  -17.9121  -16.4615 C   0  0  0  0  0  0  0  0  0  0  0  0
   30.3893  -17.5311  -17.7925 C   0  0  0  0  0  0  0  0  0  0  0  0
   29.1969  -17.7433  -18.4526 C   0  0  0  0  0  0  0  0  0  0  0  0
   28.1542  -18.3309  -17.7649 C   0  0  0  0  0  0  0  0  0  0  0  0
   26.3210  -21.1990  -14.3950 C   0  0  0  0  0  0  0  0  0  0  0  0
   25.2911  -21.6412  -14.9611 O   0  0  0  0  0  0  0  0  0  0  0  0
   26.3102  -21.2276  -12.9430 N   0  0  0  0  0  0  0  0  0  0  0  0
   27.4757  -21.0718  -12.0958 C   0  0  0  0  0  0  0  0  0  0  0  0
   26.8997  -20.1795  -10.9863 C   0  0  0  0  0  0  0  0  0  0  0  0
   25.6058  -20.9735  -10.7251 C   0  0  0  0  0  0  0  0  0  0  0  0
   25.1888  -21.4734  -12.0877 C   0  0  1  0  0  0  0  0  0  0  0  0
   23.9247  -20.8203  -12.5153 C   0  0  0  0  0  0  0  0  0  0  0  0
   23.8078  -19.6089  -12.7156 O   0  0  0  0  0  0  0  0  0  0  0  0
   22.1475  -26.8884  -15.7495 O   0  0  0  0  0  0  0  0  0  0  0  0
   21.9898  -25.5534  -15.4856 C   0  0  0  0  0  0  0  0  0  0  0  0
   20.7358  -25.0351  -15.3029 C   0  0  0  0  0  0  0  0  0  0  0  0
   20.5488  -23.6933  -15.0358 C   0  0  0  0  0  0  0  0  0  0  0  0
   21.6029  -22.8208  -14.9415 C   0  0  0  0  0  0  0  0  0  0  0  0
   21.4329  -21.3787  -14.6582 C   0  0  0  0  0  0  0  0  0  0  0  0
   21.5040  -21.0886  -13.1564 C   0  0  2  0  0  0  0  0  0  0  0  0
   22.7757  -21.6371  -12.7072 N   0  0  0  0  0  0  0  0  0  0  0  0
   20.4281  -21.8834  -12.5105 C   0  0  0  0  0  0  0  0  0  0  0  0
   19.2153  -21.5484  -12.6519 O   0  0  0  0  0  0  0  0  0  0  0  0
   22.8784  -23.3516  -15.1280 C   0  0  0  0  0  0  0  0  0  0  0  0
   23.0631  -24.6917  -15.3944 C   0  0  0  0  0  0  0  0  0  0  0  0
   20.6747  -23.0079  -11.7355 O   0  0  0  0  0  0  0  0  0  0  0  0
  2 10  1  0
  2  1  1  6
  3  2  1  0
  4  3  1  0
  4  5  2  0
  6  5  1  0
  7  6  2  0
  8  9  2  0
  8  7  1  0
  9  4  1  0
 10 12  1  0
 11 10  2  0
 12 16  1  0
 12 13  1  0
 13 14  1  0
 15 14  1  0
 16 15  1  0
 16 17  1  6
 18 17  2  0
 20 21  2  0
 20 19  1  0
 22 21  1  0
 23 22  2  0
 24 23  1  0
 25 24  1  6
 25 27  1  0
 25 26  1  0
 26 17  1  0
 27 31  1  0
 28 27  2  0
 29 23  1  0
 29 30  2  0
 30 20  1  0
M  END
$$$$
