FPY.pdb
     RDKit          3D

 31 33  0  0  1  0  0  0  0  0999 V2000
   26.8412  -20.4838  -16.3979 N   0  0  0  0  0  0  0  0  0  0  0  0
   27.5464  -19.8875  -15.2686 C   0  0  1  0  0  0  0  0  0  0  0  0
   27.2160  -18.4049  -15.1863 C   0  0  0  0  0  0  0  0  0  0  0  0
   27.8431  -17.6410  -16.2765 C   0  0  0  0  0  0  0  0  0  0  0  0
   27.0969  -17.0134  -17.2479 C   0  0  0  0  0  0  0  0  0  0  0  0
   27.7161  -16.3038  -18.2608 C   0  0  0  0  0  0  0  0  0  0  0  0
   29.1016  -16.2123  -18.3151 C   0  0  0  0  0  0  0  0  0  0  0  0
   29.8589  -16.8376  -17.3465 C   0  0  0  0  0  0  0  0  0  0  0  0
   29.2114  -17.5380  -16.3488 C   0  0  0  0  0  0  0  0  0  0  0  0
   27.1973  -20.5455  -14.0033 C   0  0  0  0  0  0  0  0  0  0  0  0
   25.9980  -20.7768  -13.7118 O   0  0  0  0  0  0  0  0  0  0  0  0
   28.1825  -20.9678  -13.0233 N   0  0  0  0  0  0  0  0  0  0  0  0
   29.5771  -21.2424  -13.3059 C   0  0  0  0  0  0  0  0  0  0  0  0
   30.2436  -20.6058  -12.0773 C   0  0  0  0  0  0  0  0  0  0  0  0
   29.3303  -21.2183  -10.9986 C   0  0  0  0  0  0  0  0  0  0  0  0
   27.9624  -21.2514  -11.6375 C   0  0  1  0  0  0  0  0  0  0  0  0
   27.0446  -20.3088  -10.9472 C   0  0  0  0  0  0  0  0  0  0  0  0
   27.1311  -19.0809  -11.0246 O   0  0  0  0  0  0  0  0  0  0  0  0
   21.3961  -22.0420  -13.8378 O   0  0  0  0  0  0  0  0  0  0  0  0
   22.1230  -21.3342  -12.9173 C   0  0  0  0  0  0  0  0  0  0  0  0
   21.7121  -21.2847  -11.6122 C   0  0  0  0  0  0  0  0  0  0  0  0
   22.4261  -20.5784  -10.6644 C   0  0  0  0  0  0  0  0  0  0  0  0
   23.5733  -19.8971  -10.9824 C   0  0  0  0  0  0  0  0  0  0  0  0
   24.3576  -19.1313   -9.9889 C   0  0  0  0  0  0  0  0  0  0  0  0
   25.2767  -20.0447   -9.1731 C   0  0  2  0  0  0  0  0  0  0  0  0
   26.0001  -20.8499  -10.1469 N   0  0  0  0  0  0  0  0  0  0  0  0
   24.4005  -20.9650   -8.4037 C   0  0  0  0  0  0  0  0  0  0  0  0
   23.6047  -20.5075   -7.5316 O   0  0  0  0  0  0  0  0  0  0  0  0
   23.9890  -19.9496  -12.3120 C   0  0  0  0  0  0  0  0  0  0  0  0
   23.2748  -20.6554  -13.2569 C   0  0  0  0  0  0  0  0  0  0  0  0
   24.3975  -22.3408   -8.5852 O   0  0  0  0  0  0  0  0  0  0  0  0
  2 10  1  0
  2  1  1  6
  3  2  1  0
  4  3  1  0
  4  5  2  0
  6  5  1  0
  7  6  2  0
  8  9  2  0
  8  7  1  0
  9  4  1  0
 10 12  1  0
 11 10  2  0
 12 16  1  0
 12 13  1  0
 13 14  1  0
 15 14  1  0
 16 15  1  0
 16 17  1  1
 18 17  2  0
 20 21  2  0
 20 19  1  0
 22 21  1  0
 23 22  2  0
 24 23  1  0
 25 24  1  6
 25 27  1  0
 25 26  1  0
 26 17  1  0
 27 31  1  0
 28 27  2  0
 29 23  1  0
 29 30  2  0
 30 20  1  0
M  END
$$$$
