CGN.pdb
     RDKit          3D

 19 18  0  0  1  0  0  0  0  0999 V2000
    7.9979  -14.9592   18.0484 N   0  0  0  0  0  0  0  0  0  0  0  0
    8.1411  -14.3747   19.3447 C   0  0  1  0  0  0  0  0  0  0  0  0
    7.5169  -12.9959   19.3643 C   0  0  0  0  0  0  0  0  0  0  0  0
    8.7753  -11.8284   18.7854 S   0  0  0  0  0  0  0  0  0  0  0  0
    7.5633  -15.2250   20.4226 C   0  0  0  0  0  0  0  0  0  0  0  0
    6.3176  -15.3084   20.5656 O   0  0  0  0  0  0  0  0  0  0  0  0
    8.3801  -15.9626   21.3162 N   0  0  0  0  0  0  0  0  0  0  0  0
    7.8707  -16.7897   22.3679 C   0  0  0  0  0  0  0  0  0  0  0  0
    8.3947  -16.4013   23.7016 C   0  0  0  0  0  0  0  0  0  0  0  0
    9.5318  -15.8712   23.7522 O   0  0  0  0  0  0  0  0  0  0  0  0
    8.0397  -13.4916   25.6642 N   0  0  0  0  0  0  0  0  0  0  0  0
    6.9604  -14.2490   26.2377 C   0  0  0  0  0  0  0  0  0  0  0  0
    5.8028  -13.8248   26.0789 O   0  0  0  0  0  0  0  0  0  0  0  0
    7.2632  -15.4770   26.9782 C   0  0  0  0  0  0  0  0  0  0  0  0
    8.2533  -16.3286   26.2135 C   0  0  2  0  0  0  0  0  0  0  0  0
    7.6916  -16.5928   24.9073 N   0  0  0  0  0  0  0  0  0  0  0  0
    8.5909  -17.5348   26.9846 C   0  0  0  0  0  0  0  0  0  0  0  0
    8.2317  -18.6528   26.5605 O   0  0  0  0  0  0  0  0  0  0  0  0
    9.2919  -17.4299   28.1556 O   0  0  0  0  0  0  0  0  0  0  0  0
  2  1  1  6
  2  3  1  0
  4  3  1  0
  5  2  1  0
  6  5  2  0
  7  5  1  0
  8  7  1  0
  9 16  1  0
  9  8  1  0
 10  9  2  0
 11 12  1  0
 12 13  2  0
 12 14  1  0
 15 14  1  1
 15 17  1  0
 15 16  1  0
 17 19  1  0
 18 17  2  0
M  END
$$$$
