CGN.pdb
     RDKit          3D

 19 18  0  0  1  0  0  0  0  0999 V2000
    2.4736  -21.9365   20.3872 N   0  0  0  0  0  0  0  0  0  0  0  0
    1.5100  -21.1225   21.0590 C   0  0  1  0  0  0  0  0  0  0  0  0
    1.0537  -21.8019   22.3324 C   0  0  0  0  0  0  0  0  0  0  0  0
    1.9160  -23.3920   22.4312 S   0  0  0  0  0  0  0  0  0  0  0  0
    2.0212  -19.7543   21.3514 C   0  0  0  0  0  0  0  0  0  0  0  0
    1.3232  -18.9439   22.0111 O   0  0  0  0  0  0  0  0  0  0  0  0
    3.2940  -19.3172   20.9056 N   0  0  0  0  0  0  0  0  0  0  0  0
    3.9370  -18.1244   21.3676 C   0  0  0  0  0  0  0  0  0  0  0  0
    4.8951  -18.3855   22.4712 C   0  0  0  0  0  0  0  0  0  0  0  0
    4.8946  -17.5945   23.4464 O   0  0  0  0  0  0  0  0  0  0  0  0
    5.2675  -21.7562   25.9592 N   0  0  0  0  0  0  0  0  0  0  0  0
    5.3816  -21.2342   24.6243 C   0  0  0  0  0  0  0  0  0  0  0  0
    4.3330  -20.9782   24.0078 O   0  0  0  0  0  0  0  0  0  0  0  0
    6.7136  -21.0268   24.0492 C   0  0  0  0  0  0  0  0  0  0  0  0
    6.8360  -19.6293   23.4816 C   0  0  2  0  0  0  0  0  0  0  0  0
    5.8000  -19.4651   22.4860 N   0  0  0  0  0  0  0  0  0  0  0  0
    8.2002  -19.3994   22.9820 C   0  0  0  0  0  0  0  0  0  0  0  0
    9.1517  -19.3733   23.7900 O   0  0  0  0  0  0  0  0  0  0  0  0
    8.4218  -19.2162   21.6438 O   0  0  0  0  0  0  0  0  0  0  0  0
  2  1  1  1
  2  3  1  0
  4  3  1  0
  5  2  1  0
  6  5  2  0
  7  5  1  0
  8  7  1  0
  9 16  1  0
  9  8  1  0
 10  9  2  0
 11 12  1  0
 12 13  2  0
 12 14  1  0
 15 14  1  6
 15 17  1  0
 15 16  1  0
 17 19  1  0
 18 17  2  0
M  END
$$$$
