CGN.pdb
     RDKit          3D

 19 18  0  0  1  0  0  0  0  0999 V2000
    8.6307  -13.9171   17.8378 N   0  0  0  0  0  0  0  0  0  0  0  0
    8.6042  -13.8291   19.2640 C   0  0  1  0  0  0  0  0  0  0  0  0
    7.6483  -12.7391   19.6992 C   0  0  0  0  0  0  0  0  0  0  0  0
    7.7502  -12.6247   21.5042 S   0  0  0  0  0  0  0  0  0  0  0  0
    8.2499  -15.1233   19.9105 C   0  0  0  0  0  0  0  0  0  0  0  0
    7.7360  -16.0501   19.2350 O   0  0  0  0  0  0  0  0  0  0  0  0
    8.4736  -15.3595   21.2904 N   0  0  0  0  0  0  0  0  0  0  0  0
    9.4865  -16.2346   21.7981 C   0  0  0  0  0  0  0  0  0  0  0  0
    9.4406  -16.3606   23.2766 C   0  0  0  0  0  0  0  0  0  0  0  0
   10.3722  -16.9861   23.8401 O   0  0  0  0  0  0  0  0  0  0  0  0
    5.7533  -13.2641   25.5053 N   0  0  0  0  0  0  0  0  0  0  0  0
    7.0277  -13.9218   25.6097 C   0  0  0  0  0  0  0  0  0  0  0  0
    8.0483  -13.2559   25.3643 O   0  0  0  0  0  0  0  0  0  0  0  0
    7.0734  -15.3346   25.9967 C   0  0  0  0  0  0  0  0  0  0  0  0
    8.3566  -15.9765   25.5155 C   0  0  2  0  0  0  0  0  0  0  0  0
    8.4162  -15.8207   24.0790 N   0  0  0  0  0  0  0  0  0  0  0  0
    8.4345  -17.3704   25.9788 C   0  0  0  0  0  0  0  0  0  0  0  0
    8.8318  -17.6087   27.1382 O   0  0  0  0  0  0  0  0  0  0  0  0
    8.0744  -18.3944   25.1450 O   0  0  0  0  0  0  0  0  0  0  0  0
  2  1  1  6
  2  3  1  0
  4  3  1  0
  5  2  1  0
  6  5  2  0
  7  5  1  0
  8  7  1  0
  9 16  1  0
  9  8  1  0
 10  9  2  0
 11 12  1  0
 12 13  2  0
 12 14  1  0
 15 14  1  6
 15 17  1  0
 15 16  1  0
 17 19  1  0
 18 17  2  0
M  END
$$$$
