CGN.pdb
     RDKit          3D

 19 18  0  0  1  0  0  0  0  0999 V2000
    3.9945  -20.6694   21.9559 N   0  0  0  0  0  0  0  0  0  0  0  0
    3.4291  -19.8996   20.8927 C   0  0  1  0  0  0  0  0  0  0  0  0
    2.0377  -19.4376   21.2693 C   0  0  0  0  0  0  0  0  0  0  0  0
    2.1823  -18.5018   22.8137 S   0  0  0  0  0  0  0  0  0  0  0  0
    4.2801  -18.7378   20.5124 C   0  0  0  0  0  0  0  0  0  0  0  0
    3.9498  -17.9968   19.5527 O   0  0  0  0  0  0  0  0  0  0  0  0
    5.4770  -18.4251   21.2049 N   0  0  0  0  0  0  0  0  0  0  0  0
    6.2858  -17.2772   20.9258 C   0  0  0  0  0  0  0  0  0  0  0  0
    7.5446  -17.2635   21.7128 C   0  0  0  0  0  0  0  0  0  0  0  0
    8.4596  -16.4885   21.3402 O   0  0  0  0  0  0  0  0  0  0  0  0
    7.0230  -14.1232   23.4882 N   0  0  0  0  0  0  0  0  0  0  0  0
    7.7127  -15.1177   24.2647 C   0  0  0  0  0  0  0  0  0  0  0  0
    8.8185  -14.8166   24.7461 O   0  0  0  0  0  0  0  0  0  0  0  0
    7.0926  -16.4317   24.4563 C   0  0  0  0  0  0  0  0  0  0  0  0
    8.0830  -17.5359   24.1564 C   0  0  2  0  0  0  0  0  0  0  0  0
    7.7693  -18.0667   22.8482 N   0  0  0  0  0  0  0  0  0  0  0  0
    8.0745  -18.5356   25.2353 C   0  0  0  0  0  0  0  0  0  0  0  0
    7.2904  -19.5047   25.1656 O   0  0  0  0  0  0  0  0  0  0  0  0
    8.9188  -18.4024   26.3044 O   0  0  0  0  0  0  0  0  0  0  0  0
  2  1  1  1
  2  3  1  0
  4  3  1  0
  5  2  1  0
  6  5  2  0
  7  5  1  0
  8  7  1  0
  9 16  1  0
  9  8  1  0
 10  9  2  0
 11 12  1  0
 12 13  2  0
 12 14  1  0
 15 14  1  1
 15 17  1  0
 15 16  1  0
 17 19  1  0
 18 17  2  0
M  END
$$$$
