CGN.pdb
     RDKit          3D

 19 18  0  0  1  0  0  0  0  0999 V2000
    8.0070  -15.2084   19.0033 N   0  0  0  0  0  0  0  0  0  0  0  0
    8.2267  -14.3458   20.1214 C   0  0  1  0  0  0  0  0  0  0  0  0
    7.5839  -12.9983   19.8717 C   0  0  0  0  0  0  0  0  0  0  0  0
    8.4728  -12.2261   18.4950 S   0  0  0  0  0  0  0  0  0  0  0  0
    7.7348  -14.9302   21.4001 C   0  0  0  0  0  0  0  0  0  0  0  0
    6.5377  -15.2961   21.5112 O   0  0  0  0  0  0  0  0  0  0  0  0
    8.5815  -15.0951   22.5252 N   0  0  0  0  0  0  0  0  0  0  0  0
    8.1626  -15.6812   23.7623 C   0  0  0  0  0  0  0  0  0  0  0  0
    9.1279  -15.4365   24.8634 C   0  0  0  0  0  0  0  0  0  0  0  0
   10.3201  -15.1931   24.5535 O   0  0  0  0  0  0  0  0  0  0  0  0
    7.5850  -12.4622   27.7320 N   0  0  0  0  0  0  0  0  0  0  0  0
    8.9056  -13.0282   27.6754 C   0  0  0  0  0  0  0  0  0  0  0  0
    9.7914  -12.3818   27.0901 O   0  0  0  0  0  0  0  0  0  0  0  0
    9.1530  -14.3295   28.3025 C   0  0  0  0  0  0  0  0  0  0  0  0
    9.7412  -15.2993   27.3007 C   0  0  2  0  0  0  0  0  0  0  0  0
    8.7836  -15.4620   26.2293 N   0  0  0  0  0  0  0  0  0  0  0  0
   10.1241  -16.5528   27.9684 C   0  0  0  0  0  0  0  0  0  0  0  0
    9.5444  -17.6138   27.6572 O   0  0  0  0  0  0  0  0  0  0  0  0
   11.1065  -16.5532   28.9216 O   0  0  0  0  0  0  0  0  0  0  0  0
  2  1  1  6
  2  3  1  0
  4  3  1  0
  5  2  1  0
  6  5  2  0
  7  5  1  0
  8  7  1  0
  9 16  1  0
  9  8  1  0
 10  9  2  0
 11 12  1  0
 12 13  2  0
 12 14  1  0
 15 14  1  1
 15 17  1  0
 15 16  1  0
 17 19  1  0
 18 17  2  0
M  END
$$$$
