CGN.pdb
     RDKit          3D

 19 18  0  0  1  0  0  0  0  0999 V2000
    5.4185  -18.9060   20.7099 N   0  0  0  0  0  0  0  0  0  0  0  0
    6.2618  -19.2104   19.5969 C   0  0  1  0  0  0  0  0  0  0  0  0
    5.4218  -19.6153   18.4045 C   0  0  0  0  0  0  0  0  0  0  0  0
    4.0035  -20.5472   19.0384 S   0  0  0  0  0  0  0  0  0  0  0  0
    7.1666  -18.0825   19.2395 C   0  0  0  0  0  0  0  0  0  0  0  0
    8.1312  -18.2671   18.4554 O   0  0  0  0  0  0  0  0  0  0  0  0
    6.9807  -16.7768   19.7597 N   0  0  0  0  0  0  0  0  0  0  0  0
    7.8405  -15.6699   19.4681 C   0  0  0  0  0  0  0  0  0  0  0  0
    8.7592  -15.3521   20.5902 C   0  0  0  0  0  0  0  0  0  0  0  0
    9.6386  -14.4770   20.3970 O   0  0  0  0  0  0  0  0  0  0  0  0
    7.6557  -13.7643   23.1770 N   0  0  0  0  0  0  0  0  0  0  0  0
    7.7797  -14.6697   24.2871 C   0  0  0  0  0  0  0  0  0  0  0  0
    7.0217  -14.5068   25.2588 O   0  0  0  0  0  0  0  0  0  0  0  0
    8.7829  -15.7366   24.2307 C   0  0  0  0  0  0  0  0  0  0  0  0
    9.5839  -15.6463   22.9500 C   0  0  2  0  0  0  0  0  0  0  0  0
    8.7004  -15.9740   21.8529 N   0  0  0  0  0  0  0  0  0  0  0  0
   10.7832  -16.4933   23.0376 C   0  0  0  0  0  0  0  0  0  0  0  0
   10.7184  -17.6856   22.6727 O   0  0  0  0  0  0  0  0  0  0  0  0
   11.9576  -15.9772   23.5151 O   0  0  0  0  0  0  0  0  0  0  0  0
  2  1  1  1
  2  3  1  0
  4  3  1  0
  5  2  1  0
  6  5  2  0
  7  5  1  0
  8  7  1  0
  9 16  1  0
  9  8  1  0
 10  9  2  0
 11 12  1  0
 12 13  2  0
 12 14  1  0
 15 14  1  1
 15 17  1  0
 15 16  1  0
 17 19  1  0
 18 17  2  0
M  END
$$$$
