CGN.pdb
     RDKit          3D

 19 18  0  0  1  0  0  0  0  0999 V2000
    4.0877  -20.0456   20.5172 N   0  0  0  0  0  0  0  0  0  0  0  0
    3.3396  -18.8927   20.9093 C   0  0  1  0  0  0  0  0  0  0  0  0
    2.5253  -19.1988   22.1481 C   0  0  0  0  0  0  0  0  0  0  0  0
    3.6949  -19.5145   23.4950 S   0  0  0  0  0  0  0  0  0  0  0  0
    4.2028  -17.6997   21.1334 C   0  0  0  0  0  0  0  0  0  0  0  0
    3.6996  -16.6176   21.5273 O   0  0  0  0  0  0  0  0  0  0  0  0
    5.6033  -17.7346   20.9155 N   0  0  0  0  0  0  0  0  0  0  0  0
    6.4892  -16.6558   21.2334 C   0  0  0  0  0  0  0  0  0  0  0  0
    7.1461  -16.8294   22.5534 C   0  0  0  0  0  0  0  0  0  0  0  0
    7.9871  -15.9666   22.9068 O   0  0  0  0  0  0  0  0  0  0  0  0
    7.3671  -19.8516   27.6380 N   0  0  0  0  0  0  0  0  0  0  0  0
    7.5160  -18.5684   27.0064 C   0  0  0  0  0  0  0  0  0  0  0  0
    8.2900  -17.7484   27.5296 O   0  0  0  0  0  0  0  0  0  0  0  0
    6.7587  -18.2806   25.7851 C   0  0  0  0  0  0  0  0  0  0  0  0
    7.6846  -18.2065   24.5903 C   0  0  2  0  0  0  0  0  0  0  0  0
    6.8806  -17.9020   23.4273 N   0  0  0  0  0  0  0  0  0  0  0  0
    8.4715  -19.4441   24.4774 C   0  0  0  0  0  0  0  0  0  0  0  0
    7.8945  -20.5116   24.1835 O   0  0  0  0  0  0  0  0  0  0  0  0
    9.8230  -19.4229   24.6929 O   0  0  0  0  0  0  0  0  0  0  0  0
  2  1  1  1
  2  3  1  0
  4  3  1  0
  5  2  1  0
  6  5  2  0
  7  5  1  0
  8  7  1  0
  9 16  1  0
  9  8  1  0
 10  9  2  0
 11 12  1  0
 12 13  2  0
 12 14  1  0
 15 14  1  1
 15 17  1  0
 15 16  1  0
 17 19  1  0
 18 17  2  0
M  END
$$$$
