CGN.pdb
     RDKit          3D

 19 18  0  0  1  0  0  0  0  0999 V2000
    9.8091  -14.4735   22.6330 N   0  0  0  0  0  0  0  0  0  0  0  0
    8.5336  -14.7323   22.0426 C   0  0  1  0  0  0  0  0  0  0  0  0
    7.4914  -13.8059   22.6314 C   0  0  0  0  0  0  0  0  0  0  0  0
    6.6544  -14.7129   23.9575 S   0  0  0  0  0  0  0  0  0  0  0  0
    8.5564  -14.6163   20.5577 C   0  0  0  0  0  0  0  0  0  0  0  0
    7.7784  -15.3095   19.8553 O   0  0  0  0  0  0  0  0  0  0  0  0
    9.4410  -13.7347   19.8869 N   0  0  0  0  0  0  0  0  0  0  0  0
    9.7039  -13.7826   18.4804 C   0  0  0  0  0  0  0  0  0  0  0  0
   10.7830  -14.7422   18.1357 C   0  0  0  0  0  0  0  0  0  0  0  0
   11.0974  -14.8599   16.9258 O   0  0  0  0  0  0  0  0  0  0  0  0
   14.1060  -13.5798   19.2451 N   0  0  0  0  0  0  0  0  0  0  0  0
   14.3026  -14.8778   18.6585 C   0  0  0  0  0  0  0  0  0  0  0  0
   14.9103  -14.9414   17.5759 O   0  0  0  0  0  0  0  0  0  0  0  0
   13.7853  -16.0611   19.3512 C   0  0  0  0  0  0  0  0  0  0  0  0
   12.4749  -16.5056   18.7385 C   0  0  2  0  0  0  0  0  0  0  0  0
   11.4706  -15.5241   19.0847 N   0  0  0  0  0  0  0  0  0  0  0  0
   12.1539  -17.8776   19.1606 C   0  0  0  0  0  0  0  0  0  0  0  0
   11.0813  -18.0983   19.7603 O   0  0  0  0  0  0  0  0  0  0  0  0
   13.0244  -18.9006   18.8973 O   0  0  0  0  0  0  0  0  0  0  0  0
  2  1  1  1
  2  3  1  0
  4  3  1  0
  5  2  1  0
  6  5  2  0
  7  5  1  0
  8  7  1  0
  9 16  1  0
  9  8  1  0
 10  9  2  0
 11 12  1  0
 12 13  2  0
 12 14  1  0
 15 14  1  1
 15 17  1  0
 15 16  1  0
 17 19  1  0
 18 17  2  0
M  END
$$$$
