CGN.pdb
     RDKit          3D

 19 18  0  0  1  0  0  0  0  0999 V2000
    7.7318  -15.3044   18.7580 N   0  0  0  0  0  0  0  0  0  0  0  0
    7.9993  -14.2669   19.7038 C   0  0  1  0  0  0  0  0  0  0  0  0
    7.2255  -13.0185   19.3376 C   0  0  0  0  0  0  0  0  0  0  0  0
    7.7757  -12.5101   17.6882 S   0  0  0  0  0  0  0  0  0  0  0  0
    7.6972  -14.6769   21.1035 C   0  0  0  0  0  0  0  0  0  0  0  0
    6.8924  -15.6151   21.3299 O   0  0  0  0  0  0  0  0  0  0  0  0
    8.2944  -14.0372   22.2189 N   0  0  0  0  0  0  0  0  0  0  0  0
    8.1260  -14.4692   23.5733 C   0  0  0  0  0  0  0  0  0  0  0  0
    9.1492  -15.4631   23.9848 C   0  0  0  0  0  0  0  0  0  0  0  0
    9.1581  -15.8317   25.1850 O   0  0  0  0  0  0  0  0  0  0  0  0
    9.8291  -19.2310   20.9148 N   0  0  0  0  0  0  0  0  0  0  0  0
   10.2457  -18.8329   22.2323 C   0  0  0  0  0  0  0  0  0  0  0  0
    9.6260  -19.2983   23.2042 O   0  0  0  0  0  0  0  0  0  0  0  0
   11.3710  -17.9052   22.3763 C   0  0  0  0  0  0  0  0  0  0  0  0
   11.1281  -16.9485   23.5234 C   0  0  2  0  0  0  0  0  0  0  0  0
   10.1059  -16.0133   23.1090 N   0  0  0  0  0  0  0  0  0  0  0  0
   12.3915  -16.3216   23.9409 C   0  0  0  0  0  0  0  0  0  0  0  0
   12.7169  -15.2182   23.4556 O   0  0  0  0  0  0  0  0  0  0  0  0
   13.2009  -16.9438   24.8526 O   0  0  0  0  0  0  0  0  0  0  0  0
  2  1  1  6
  2  3  1  0
  4  3  1  0
  5  2  1  0
  6  5  2  0
  7  5  1  0
  8  7  1  0
  9 16  1  0
  9  8  1  0
 10  9  2  0
 11 12  1  0
 12 13  2  0
 12 14  1  0
 15 14  1  6
 15 17  1  0
 15 16  1  0
 17 19  1  0
 18 17  2  0
M  END
$$$$
