CGN.pdb
     RDKit          3D

 19 18  0  0  1  0  0  0  0  0999 V2000
    8.5546  -14.6618   18.2027 N   0  0  0  0  0  0  0  0  0  0  0  0
    8.1655  -14.2245   19.5066 C   0  0  1  0  0  0  0  0  0  0  0  0
    7.5848  -12.8285   19.4341 C   0  0  0  0  0  0  0  0  0  0  0  0
    8.9766  -11.6709   19.3650 S   0  0  0  0  0  0  0  0  0  0  0  0
    7.2046  -15.1567   20.1595 C   0  0  0  0  0  0  0  0  0  0  0  0
    6.1574  -15.5098   19.5611 O   0  0  0  0  0  0  0  0  0  0  0  0
    7.4273  -15.6753   21.4600 N   0  0  0  0  0  0  0  0  0  0  0  0
    6.5183  -15.5095   22.5535 C   0  0  0  0  0  0  0  0  0  0  0  0
    7.0285  -16.1075   23.8130 C   0  0  0  0  0  0  0  0  0  0  0  0
    6.3801  -15.8945   24.8669 O   0  0  0  0  0  0  0  0  0  0  0  0
    6.2543  -19.7754   25.8502 N   0  0  0  0  0  0  0  0  0  0  0  0
    7.5354  -19.2373   26.2201 C   0  0  0  0  0  0  0  0  0  0  0  0
    7.7750  -19.0837   27.4302 O   0  0  0  0  0  0  0  0  0  0  0  0
    8.4974  -18.8948   25.1688 C   0  0  0  0  0  0  0  0  0  0  0  0
    8.7370  -17.4010   25.1333 C   0  0  2  0  0  0  0  0  0  0  0  0
    8.1931  -16.8964   23.8919 N   0  0  0  0  0  0  0  0  0  0  0  0
   10.1644  -17.1085   25.3341 C   0  0  0  0  0  0  0  0  0  0  0  0
   10.8050  -16.5349   24.4289 O   0  0  0  0  0  0  0  0  0  0  0  0
   10.7823  -17.4629   26.5030 O   0  0  0  0  0  0  0  0  0  0  0  0
  2  1  1  6
  2  3  1  0
  4  3  1  0
  5  2  1  0
  6  5  2  0
  7  5  1  0
  8  7  1  0
  9 16  1  0
  9  8  1  0
 10  9  2  0
 11 12  1  0
 12 13  2  0
 12 14  1  0
 15 14  1  6
 15 17  1  0
 15 16  1  0
 17 19  1  0
 18 17  2  0
M  END
$$$$
