CGN.pdb
     RDKit          3D

 19 18  0  0  1  0  0  0  0  0999 V2000
    7.4968  -14.4178   20.7762 N   0  0  0  0  0  0  0  0  0  0  0  0
    7.8615  -13.3057   19.9560 C   0  0  1  0  0  0  0  0  0  0  0  0
    7.9580  -12.0504   20.7964 C   0  0  0  0  0  0  0  0  0  0  0  0
    7.3728  -12.4707   22.4585 S   0  0  0  0  0  0  0  0  0  0  0  0
    9.1317  -13.5355   19.2126 C   0  0  0  0  0  0  0  0  0  0  0  0
    9.5384  -12.6909   18.3757 O   0  0  0  0  0  0  0  0  0  0  0  0
    9.9207  -14.6958   19.4147 N   0  0  0  0  0  0  0  0  0  0  0  0
   11.1754  -14.9326   18.7672 C   0  0  0  0  0  0  0  0  0  0  0  0
   12.2134  -15.4324   19.7035 C   0  0  0  0  0  0  0  0  0  0  0  0
   13.2824  -15.8713   19.2124 O   0  0  0  0  0  0  0  0  0  0  0  0
   15.3357  -15.8721   21.8622 N   0  0  0  0  0  0  0  0  0  0  0  0
   14.6511  -15.4213   23.0436 C   0  0  0  0  0  0  0  0  0  0  0  0
   15.3123  -14.8146   23.9038 O   0  0  0  0  0  0  0  0  0  0  0  0
   13.2177  -15.6914   23.1860 C   0  0  0  0  0  0  0  0  0  0  0  0
   12.6903  -16.4200   21.9690 C   0  0  2  0  0  0  0  0  0  0  0  0
   12.0675  -15.4419   21.1047 N   0  0  0  0  0  0  0  0  0  0  0  0
   11.8044  -17.5207   22.3778 C   0  0  0  0  0  0  0  0  0  0  0  0
   11.8718  -17.9595   23.5447 O   0  0  0  0  0  0  0  0  0  0  0  0
   10.9158  -18.0572   21.4855 O   0  0  0  0  0  0  0  0  0  0  0  0
  2  1  1  1
  2  3  1  0
  4  3  1  0
  5  2  1  0
  6  5  2  0
  7  5  1  0
  8  7  1  0
  9 16  1  0
  9  8  1  0
 10  9  2  0
 11 12  1  0
 12 13  2  0
 12 14  1  0
 15 14  1  1
 15 17  1  0
 15 16  1  0
 17 19  1  0
 18 17  2  0
M  END
$$$$
