CGN.pdb
     RDKit          3D

 19 18  0  0  1  0  0  0  0  0999 V2000
    6.4039  -13.7688   26.7729 N   0  0  0  0  0  0  0  0  0  0  0  0
    6.2661  -12.8333   25.7013 C   0  0  1  0  0  0  0  0  0  0  0  0
    6.7747  -11.4737   26.1304 C   0  0  0  0  0  0  0  0  0  0  0  0
    5.9927  -11.0842   27.7173 S   0  0  0  0  0  0  0  0  0  0  0  0
    6.9557  -13.2807   24.4591 C   0  0  0  0  0  0  0  0  0  0  0  0
    6.7763  -12.6662   23.3776 O   0  0  0  0  0  0  0  0  0  0  0  0
    7.8276  -14.3984   24.4453 N   0  0  0  0  0  0  0  0  0  0  0  0
    8.4088  -14.9447   23.2564 C   0  0  0  0  0  0  0  0  0  0  0  0
    9.2448  -16.1408   23.5297 C   0  0  0  0  0  0  0  0  0  0  0  0
    8.7092  -17.2698   23.4073 O   0  0  0  0  0  0  0  0  0  0  0  0
   14.4180  -18.5681   23.5647 N   0  0  0  0  0  0  0  0  0  0  0  0
   13.7130  -17.9316   24.6443 C   0  0  0  0  0  0  0  0  0  0  0  0
   13.8773  -18.3807   25.7917 O   0  0  0  0  0  0  0  0  0  0  0  0
   12.8388  -16.7918   24.3535 C   0  0  0  0  0  0  0  0  0  0  0  0
   11.4046  -17.2483   24.1960 C   0  0  2  0  0  0  0  0  0  0  0  0
   10.5981  -16.0808   23.9166 N   0  0  0  0  0  0  0  0  0  0  0  0
   10.9792  -18.0110   25.3796 C   0  0  0  0  0  0  0  0  0  0  0  0
   10.4217  -17.4146   26.3242 O   0  0  0  0  0  0  0  0  0  0  0  0
   11.1938  -19.3614   25.4424 O   0  0  0  0  0  0  0  0  0  0  0  0
  2  1  1  1
  2  3  1  0
  4  3  1  0
  5  2  1  0
  6  5  2  0
  7  5  1  0
  8  7  1  0
  9 16  1  0
  9  8  1  0
 10  9  2  0
 11 12  1  0
 12 13  2  0
 12 14  1  0
 15 14  1  1
 15 17  1  0
 15 16  1  0
 17 19  1  0
 18 17  2  0
M  END
$$$$
