CGN.pdb
     RDKit          3D

 19 18  0  0  1  0  0  0  0  0999 V2000
    6.0735  -18.8336   20.7746 N   0  0  0  0  0  0  0  0  0  0  0  0
    5.9178  -17.5539   20.1577 C   0  0  1  0  0  0  0  0  0  0  0  0
    4.5798  -16.9550   20.5349 C   0  0  0  0  0  0  0  0  0  0  0  0
    3.3872  -18.3159   20.6203 S   0  0  0  0  0  0  0  0  0  0  0  0
    7.0242  -16.6165   20.4980 C   0  0  0  0  0  0  0  0  0  0  0  0
    7.1572  -15.5370   19.8684 O   0  0  0  0  0  0  0  0  0  0  0  0
    7.9567  -16.8979   21.5280 N   0  0  0  0  0  0  0  0  0  0  0  0
    9.0400  -16.0324   21.8844 C   0  0  0  0  0  0  0  0  0  0  0  0
    9.7621  -16.4944   23.0966 C   0  0  0  0  0  0  0  0  0  0  0  0
   10.7776  -15.8486   23.4549 O   0  0  0  0  0  0  0  0  0  0  0  0
    6.5563  -17.2103   25.5511 N   0  0  0  0  0  0  0  0  0  0  0  0
    7.8542  -17.0922   26.1587 C   0  0  0  0  0  0  0  0  0  0  0  0
    8.1396  -16.0194   26.7181 O   0  0  0  0  0  0  0  0  0  0  0  0
    8.7790  -18.2273   26.0956 C   0  0  0  0  0  0  0  0  0  0  0  0
    9.9302  -17.9241   25.1613 C   0  0  2  0  0  0  0  0  0  0  0  0
    9.3743  -17.6108   23.8635 N   0  0  0  0  0  0  0  0  0  0  0  0
   10.8909  -19.0379   25.1575 C   0  0  0  0  0  0  0  0  0  0  0  0
   10.4993  -20.1850   25.4570 O   0  0  0  0  0  0  0  0  0  0  0  0
   12.2009  -18.8164   24.8286 O   0  0  0  0  0  0  0  0  0  0  0  0
  2  1  1  1
  2  3  1  0
  4  3  1  0
  5  2  1  0
  6  5  2  0
  7  5  1  0
  8  7  1  0
  9 16  1  0
  9  8  1  0
 10  9  2  0
 11 12  1  0
 12 13  2  0
 12 14  1  0
 15 14  1  1
 15 17  1  0
 15 16  1  0
 17 19  1  0
 18 17  2  0
M  END
$$$$
