MRY.pdb
     RDKit          3D

 32 32  0  0  1  0  0  0  0  0999 V2000
   26.4078  -20.1484   -6.2861 C   0  0  0  0  0  0  0  0  0  0  0  0
   28.1015  -20.1444   -6.9754 S   0  0  0  0  0  0  0  0  0  0  0  0
   28.0273  -20.9328   -8.5811 C   0  0  0  0  0  0  0  0  0  0  0  0
   26.9357  -20.3702   -9.4781 C   0  0  0  0  0  0  0  0  0  0  0  0
   26.9863  -21.2019  -10.7496 C   0  0  2  0  0  0  0  0  0  0  0  0
   28.3717  -21.0980  -11.2055 N   0  0  0  0  0  0  0  0  0  0  0  0
   26.1123  -20.6901  -11.8061 C   0  0  0  0  0  0  0  0  0  0  0  0
   26.3463  -19.5494  -12.2727 O   0  0  0  0  0  0  0  0  0  0  0  0
   23.1840  -25.2325  -15.9077 N   0  0  0  0  0  0  0  0  0  0  0  0
   24.5401  -25.6371  -16.1160 C   0  0  0  0  0  0  0  0  0  0  0  0
   24.8758  -26.8952  -16.1922 N   0  0  0  0  0  0  0  0  0  0  0  0
   25.6057  -24.7182  -16.2537 N   0  0  0  0  0  0  0  0  0  0  0  0
   25.4129  -23.3060  -16.1376 C   0  0  0  0  0  0  0  0  0  0  0  0
   24.9719  -22.8588  -14.7860 C   0  0  0  0  0  0  0  0  0  0  0  0
   24.8403  -21.3731  -14.7561 C   0  0  0  0  0  0  0  0  0  0  0  0
   24.2836  -20.8242  -13.4768 C   0  0  2  0  0  0  0  0  0  0  0  0
   25.0092  -21.4046  -12.3416 N   0  0  0  0  0  0  0  0  0  0  0  0
   22.8400  -21.1000  -13.3585 C   0  0  0  0  0  0  0  0  0  0  0  0
   22.4255  -22.1856  -12.8940 O   0  0  0  0  0  0  0  0  0  0  0  0
   25.8988  -27.0939  -16.2415 O   0  0  0  0  0  0  0  0  0  0  0  0
   20.6933  -21.8890   -7.6281 C   0  0  0  0  0  0  0  0  0  0  0  0
   20.4982  -21.2863   -8.8742 C   0  0  0  0  0  0  0  0  0  0  0  0
   19.5168  -21.7756   -9.7053 C   0  0  0  0  0  0  0  0  0  0  0  0
   19.3350  -21.1758  -10.9243 C   0  0  0  0  0  0  0  0  0  0  0  0
   20.1105  -20.0999  -11.3307 C   0  0  0  0  0  0  0  0  0  0  0  0
   19.8926  -19.4616  -12.6575 C   0  0  2  0  0  0  0  0  0  0  0  0
   20.4835  -20.3856  -13.7266 N   0  0  0  0  0  0  0  0  0  0  0  0
   21.9116  -20.1085  -13.7821 C   0  0  0  0  0  0  0  0  0  0  0  0
   19.8923  -20.1018  -15.0411 O   0  0  0  0  0  0  0  0  0  0  0  0
   18.6706  -20.2603  -15.2346 C   0  0  0  0  0  0  0  0  0  0  0  0
   21.0902  -19.6133  -10.4985 C   0  0  0  0  0  0  0  0  0  0  0  0
   21.2712  -20.2171   -9.2745 O   0  0  0  0  0  0  0  0  0  0  0  0
  2  1  1  0
  3  2  1  0
  4  3  1  0
  5  4  1  0
  5  7  1  0
  5  6  1  6
  7  8  2  0
  9 10  1  0
 10 11  2  0
 10 12  1  0
 12 13  1  0
 14 13  1  0
 14 15  1  0
 16 15  1  6
 17  7  1  0
 17 16  1  0
 18 16  1  0
 18 27  1  0
 19 18  2  0
 20 21  1  0
 21 31  2  0
 22 23  2  0
 22 21  1  0
 23 24  1  0
 24 25  1  0
 24 30  2  0
 26 28  1  0
 26 27  1  0
 26 25  1  1
 28 32  1  0
 29 28  2  0
 31 30  1  0
M  END
$$$$
