MRY.pdb
     RDKit          3D

 32 32  0  0  1  0  0  0  0  0999 V2000
   29.7504  -15.4027  -16.6996 C   0  0  0  0  0  0  0  0  0  0  0  0
   30.3603  -17.0154  -17.3088 S   0  0  0  0  0  0  0  0  0  0  0  0
   28.9722  -18.1461  -17.3106 C   0  0  0  0  0  0  0  0  0  0  0  0
   28.0898  -18.0183  -16.0786 C   0  0  0  0  0  0  0  0  0  0  0  0
   27.0606  -19.1305  -16.1992 C   0  0  2  0  0  0  0  0  0  0  0  0
   26.2162  -18.7336  -17.3249 N   0  0  0  0  0  0  0  0  0  0  0  0
   26.2156  -19.2626  -15.0115 C   0  0  0  0  0  0  0  0  0  0  0  0
   25.5788  -18.2560  -14.6182 O   0  0  0  0  0  0  0  0  0  0  0  0
   19.1322  -22.1892  -12.1330 N   0  0  0  0  0  0  0  0  0  0  0  0
   19.8173  -21.8819  -13.3505 C   0  0  0  0  0  0  0  0  0  0  0  0
   19.1869  -21.4148  -14.3925 N   0  0  0  0  0  0  0  0  0  0  0  0
   21.2103  -22.0577  -13.5160 N   0  0  0  0  0  0  0  0  0  0  0  0
   22.0536  -22.5015  -12.4497 C   0  0  0  0  0  0  0  0  0  0  0  0
   23.1649  -21.5649  -12.1196 C   0  0  0  0  0  0  0  0  0  0  0  0
   24.0266  -21.3503  -13.3182 C   0  0  0  0  0  0  0  0  0  0  0  0
   25.2044  -20.4526  -13.0842 C   0  0  2  0  0  0  0  0  0  0  0  0
   26.0680  -20.4636  -14.2699 N   0  0  0  0  0  0  0  0  0  0  0  0
   25.9653  -20.8667  -11.8911 C   0  0  0  0  0  0  0  0  0  0  0  0
   26.3762  -22.0417  -11.7624 O   0  0  0  0  0  0  0  0  0  0  0  0
   19.7715  -21.2301  -15.2365 O   0  0  0  0  0  0  0  0  0  0  0  0
   29.0278  -20.7606   -3.7472 C   0  0  0  0  0  0  0  0  0  0  0  0
   28.5894  -20.3584   -5.0122 C   0  0  0  0  0  0  0  0  0  0  0  0
   27.3624  -19.7468   -5.1294 C   0  0  0  0  0  0  0  0  0  0  0  0
   26.9439  -19.3566   -6.3749 C   0  0  0  0  0  0  0  0  0  0  0  0
   27.7225  -19.5636   -7.5040 C   0  0  0  0  0  0  0  0  0  0  0  0
   27.2494  -19.1279   -8.8463 C   0  0  2  0  0  0  0  0  0  0  0  0
   26.6594  -20.3500   -9.5564 N   0  0  0  0  0  0  0  0  0  0  0  0
   26.2313  -19.9065  -10.8753 C   0  0  0  0  0  0  0  0  0  0  0  0
   25.4930  -20.8617   -8.8246 O   0  0  0  0  0  0  0  0  0  0  0  0
   24.3822  -20.3056   -8.9334 C   0  0  0  0  0  0  0  0  0  0  0  0
   28.9477  -20.1749   -7.3840 C   0  0  0  0  0  0  0  0  0  0  0  0
   29.3663  -20.5659   -6.1321 O   0  0  0  0  0  0  0  0  0  0  0  0
  2  1  1  0
  3  2  1  0
  4  3  1  0
  5  4  1  0
  5  7  1  0
  5  6  1  6
  7  8  2  0
  9 10  1  0
 10 11  2  0
 10 12  1  0
 12 13  1  0
 14 13  1  0
 14 15  1  0
 16 15  1  6
 17  7  1  0
 17 16  1  0
 18 16  1  0
 18 27  1  0
 19 18  2  0
 20 21  1  0
 21 31  2  0
 22 23  2  0
 22 21  1  0
 23 24  1  0
 24 25  1  0
 24 30  2  0
 26 28  1  0
 26 27  1  0
 26 25  1  6
 28 32  1  0
 29 28  2  0
 31 30  1  0
M  END
$$$$
