MRY.pdb
     RDKit          3D

 32 32  0  0  1  0  0  0  0  0999 V2000
   17.9200  -28.3744  -10.6577 C   0  0  0  0  0  0  0  0  0  0  0  0
   16.4324  -29.1614  -11.3731 S   0  0  0  0  0  0  0  0  0  0  0  0
   16.9818  -30.5658  -12.3379 C   0  0  0  0  0  0  0  0  0  0  0  0
   18.0788  -31.3707  -11.6588 C   0  0  0  0  0  0  0  0  0  0  0  0
   18.3925  -32.5136  -12.6108 C   0  0  2  0  0  0  0  0  0  0  0  0
   17.3198  -33.4827  -12.3928 N   0  0  0  0  0  0  0  0  0  0  0  0
   19.6707  -33.1661  -12.3237 C   0  0  0  0  0  0  0  0  0  0  0  0
   19.6857  -34.1100  -11.4976 O   0  0  0  0  0  0  0  0  0  0  0  0
   27.3505  -35.1402  -14.8485 N   0  0  0  0  0  0  0  0  0  0  0  0
   26.5981  -36.3064  -15.1947 C   0  0  0  0  0  0  0  0  0  0  0  0
   27.1659  -37.4729  -15.3304 N   0  0  0  0  0  0  0  0  0  0  0  0
   25.2014  -36.2855  -15.4131 N   0  0  0  0  0  0  0  0  0  0  0  0
   24.4230  -35.0973  -15.2483 C   0  0  0  0  0  0  0  0  0  0  0  0
   23.7515  -34.9858  -13.9224 C   0  0  0  0  0  0  0  0  0  0  0  0
   22.9155  -33.7513  -13.8742 C   0  0  0  0  0  0  0  0  0  0  0  0
   22.0927  -33.6062  -12.6293 C   0  0  2  0  0  0  0  0  0  0  0  0
   20.9036  -32.7989  -12.9231 N   0  0  0  0  0  0  0  0  0  0  0  0
   22.8734  -32.9924  -11.5393 C   0  0  0  0  0  0  0  0  0  0  0  0
   23.4662  -31.9026  -11.7035 O   0  0  0  0  0  0  0  0  0  0  0  0
   26.5446  -38.2511  -15.6413 O   0  0  0  0  0  0  0  0  0  0  0  0
   21.4101  -27.5046  -11.0769 C   0  0  0  0  0  0  0  0  0  0  0  0
   21.7226  -28.6857  -10.3976 C   0  0  0  0  0  0  0  0  0  0  0  0
   20.7584  -29.6599  -10.2755 C   0  0  0  0  0  0  0  0  0  0  0  0
   21.0772  -30.8136   -9.6076 C   0  0  0  0  0  0  0  0  0  0  0  0
   22.3355  -31.0154   -9.0599 C   0  0  0  0  0  0  0  0  0  0  0  0
   22.6606  -32.2781   -8.3421 C   0  0  2  0  0  0  0  0  0  0  0  0
   23.6812  -33.0488   -9.1849 N   0  0  0  0  0  0  0  0  0  0  0  0
   22.9471  -33.6586  -10.2842 C   0  0  0  0  0  0  0  0  0  0  0  0
   24.3149  -34.1091   -8.3898 O   0  0  0  0  0  0  0  0  0  0  0  0
   24.1814  -35.3070   -8.7093 C   0  0  0  0  0  0  0  0  0  0  0  0
   23.2966  -30.0405   -9.1832 C   0  0  0  0  0  0  0  0  0  0  0  0
   22.9744  -28.8825   -9.8545 O   0  0  0  0  0  0  0  0  0  0  0  0
  2  1  1  0
  3  2  1  0
  4  3  1  0
  5  4  1  0
  5  7  1  0
  5  6  1  1
  7  8  2  0
  9 10  1  0
 10 11  2  0
 10 12  1  0
 12 13  1  0
 14 13  1  0
 14 15  1  0
 16 15  1  6
 17  7  1  0
 17 16  1  0
 18 16  1  0
 18 27  1  0
 19 18  2  0
 20 21  1  0
 21 31  2  0
 22 23  2  0
 22 21  1  0
 23 24  1  0
 24 25  1  0
 24 30  2  0
 26 28  1  0
 26 27  1  0
 26 25  1  6
 28 32  1  0
 29 28  2  0
 31 30  1  0
M  END
$$$$
