MRY.pdb
     RDKit          3D

 32 32  0  0  1  0  0  0  0  0999 V2000
   20.4143  -15.1888  -15.8698 C   0  0  0  0  0  0  0  0  0  0  0  0
   20.7813  -14.4881  -17.5185 S   0  0  0  0  0  0  0  0  0  0  0  0
   21.4395  -15.8122  -18.5279 C   0  0  0  0  0  0  0  0  0  0  0  0
   21.4916  -17.1501  -17.8069 C   0  0  0  0  0  0  0  0  0  0  0  0
   22.1871  -18.1018  -18.7668 C   0  0  2  0  0  0  0  0  0  0  0  0
   21.2217  -18.3123  -19.8445 N   0  0  0  0  0  0  0  0  0  0  0  0
   22.4983  -19.3991  -18.1649 C   0  0  0  0  0  0  0  0  0  0  0  0
   21.5467  -20.1488  -17.8395 O   0  0  0  0  0  0  0  0  0  0  0  0
   29.0813  -21.8594  -17.7379 N   0  0  0  0  0  0  0  0  0  0  0  0
   28.3500  -23.0867  -17.6663 C   0  0  0  0  0  0  0  0  0  0  0  0
   28.6653  -24.0235  -16.8151 N   0  0  0  0  0  0  0  0  0  0  0  0
   27.2451  -23.3749  -18.4999 N   0  0  0  0  0  0  0  0  0  0  0  0
   26.7674  -22.4478  -19.4783 C   0  0  0  0  0  0  0  0  0  0  0  0
   25.4501  -21.8345  -19.1468 C   0  0  0  0  0  0  0  0  0  0  0  0
   25.2632  -21.7916  -17.6674 C   0  0  0  0  0  0  0  0  0  0  0  0
   23.9864  -21.1448  -17.2209 C   0  0  2  0  0  0  0  0  0  0  0  0
   23.8158  -19.8685  -17.9236 N   0  0  0  0  0  0  0  0  0  0  0  0
   23.9746  -20.9331  -15.7618 C   0  0  0  0  0  0  0  0  0  0  0  0
   24.1831  -19.8007  -15.2714 O   0  0  0  0  0  0  0  0  0  0  0  0
   28.0357  -24.8551  -16.7957 O   0  0  0  0  0  0  0  0  0  0  0  0
   25.6254  -20.5056   -7.6081 C   0  0  0  0  0  0  0  0  0  0  0  0
   25.4689  -20.6095   -8.9933 C   0  0  0  0  0  0  0  0  0  0  0  0
   26.0063  -21.6954   -9.6456 C   0  0  0  0  0  0  0  0  0  0  0  0
   25.8457  -21.7861  -11.0038 C   0  0  0  0  0  0  0  0  0  0  0  0
   25.1615  -20.8178  -11.7236 C   0  0  0  0  0  0  0  0  0  0  0  0
   24.9960  -20.9391  -13.1978 C   0  0  2  0  0  0  0  0  0  0  0  0
   23.8134  -21.8755  -13.4628 N   0  0  0  0  0  0  0  0  0  0  0  0
   23.7207  -22.0412  -14.9062 C   0  0  0  0  0  0  0  0  0  0  0  0
   22.5625  -21.2829  -12.9706 O   0  0  0  0  0  0  0  0  0  0  0  0
   22.2709  -21.3327  -11.7592 C   0  0  0  0  0  0  0  0  0  0  0  0
   24.6258  -19.7341  -11.0695 C   0  0  0  0  0  0  0  0  0  0  0  0
   24.7881  -19.6449   -9.7053 O   0  0  0  0  0  0  0  0  0  0  0  0
  2  1  1  0
  3  2  1  0
  4  3  1  0
  5  4  1  0
  5  7  1  0
  5  6  1  6
  7  8  2  0
  9 10  1  0
 10 11  2  0
 10 12  1  0
 12 13  1  0
 14 13  1  0
 14 15  1  0
 16 15  1  6
 17  7  1  0
 17 16  1  0
 18 16  1  0
 18 27  1  0
 19 18  2  0
 20 21  1  0
 21 31  2  0
 22 23  2  0
 22 21  1  0
 23 24  1  0
 24 25  1  0
 24 30  2  0
 26 28  1  0
 26 27  1  0
 26 25  1  1
 28 32  1  0
 29 28  2  0
 31 30  1  0
M  END
$$$$
