MRY.pdb
     RDKit          3D

 32 32  0  0  1  0  0  0  0  0999 V2000
   32.6512  -22.6301   -9.3891 C   0  0  0  0  0  0  0  0  0  0  0  0
   30.8722  -22.2267   -9.5178 S   0  0  0  0  0  0  0  0  0  0  0  0
   30.5620  -21.7081  -11.2031 C   0  0  0  0  0  0  0  0  0  0  0  0
   29.1426  -21.2108  -11.4284 C   0  0  0  0  0  0  0  0  0  0  0  0
   29.1045  -20.7313  -12.8704 C   0  0  2  0  0  0  0  0  0  0  0  0
   30.0293  -19.5995  -12.9092 N   0  0  0  0  0  0  0  0  0  0  0  0
   27.7817  -20.2620  -13.2851 C   0  0  0  0  0  0  0  0  0  0  0  0
   27.3234  -19.2234  -12.7513 O   0  0  0  0  0  0  0  0  0  0  0  0
   29.2023  -19.1909  -18.9151 N   0  0  0  0  0  0  0  0  0  0  0  0
   28.1792  -20.1676  -19.1284 C   0  0  0  0  0  0  0  0  0  0  0  0
   28.4368  -21.3200  -19.6824 N   0  0  0  0  0  0  0  0  0  0  0  0
   26.8297  -19.9626  -18.7603 N   0  0  0  0  0  0  0  0  0  0  0  0
   26.4140  -18.8313  -17.9906 C   0  0  0  0  0  0  0  0  0  0  0  0
   26.5468  -19.0128  -16.5173 C   0  0  0  0  0  0  0  0  0  0  0  0
   25.5833  -20.0469  -16.0400 C   0  0  0  0  0  0  0  0  0  0  0  0
   25.6622  -20.3391  -14.5716 C   0  0  2  0  0  0  0  0  0  0  0  0
   26.9772  -20.9092  -14.2588 N   0  0  0  0  0  0  0  0  0  0  0  0
   24.5902  -21.2595  -14.1499 C   0  0  0  0  0  0  0  0  0  0  0  0
   24.7808  -22.4954  -14.1036 O   0  0  0  0  0  0  0  0  0  0  0  0
   27.6247  -21.9647  -19.7969 O   0  0  0  0  0  0  0  0  0  0  0  0
   18.2577  -18.1176   -9.9688 C   0  0  0  0  0  0  0  0  0  0  0  0
   19.2615  -18.9788  -10.4214 C   0  0  0  0  0  0  0  0  0  0  0  0
   20.5496  -18.5058  -10.5242 C   0  0  0  0  0  0  0  0  0  0  0  0
   21.5250  -19.3601  -10.9688 C   0  0  0  0  0  0  0  0  0  0  0  0
   21.2427  -20.6739  -11.3124 C   0  0  0  0  0  0  0  0  0  0  0  0
   22.3188  -21.5850  -11.7891 C   0  0  1  0  0  0  0  0  0  0  0  0
   22.2693  -21.6108  -13.3197 N   0  0  0  0  0  0  0  0  0  0  0  0
   23.3221  -20.7229  -13.7916 C   0  0  0  0  0  0  0  0  0  0  0  0
   20.9748  -21.1140  -13.8049 O   0  0  0  0  0  0  0  0  0  0  0  0
   20.8521  -19.9340  -14.1892 C   0  0  0  0  0  0  0  0  0  0  0  0
   19.9551  -21.1436  -11.2088 C   0  0  0  0  0  0  0  0  0  0  0  0
   18.9769  -20.2841  -10.7620 O   0  0  0  0  0  0  0  0  0  0  0  0
  2  1  1  0
  3  2  1  0
  4  3  1  0
  5  4  1  0
  5  7  1  0
  5  6  1  1
  7  8  2  0
  9 10  1  0
 10 11  2  0
 10 12  1  0
 12 13  1  0
 14 13  1  0
 14 15  1  0
 16 15  1  6
 17  7  1  0
 17 16  1  0
 18 16  1  0
 18 27  1  0
 19 18  2  0
 20 21  1  0
 21 31  2  0
 22 23  2  0
 22 21  1  0
 23 24  1  0
 24 25  1  0
 24 30  2  0
 26 28  1  0
 26 27  1  0
 26 25  1  6
 28 32  1  0
 29 28  2  0
 31 30  1  0
M  END
$$$$
