MRY.pdb
     RDKit          3D

 32 32  0  0  1  0  0  0  0  0999 V2000
   30.8637  -20.8382   -7.0926 C   0  0  0  0  0  0  0  0  0  0  0  0
   31.4142  -22.3884   -7.8912 S   0  0  0  0  0  0  0  0  0  0  0  0
   31.5709  -22.0606   -9.6442 C   0  0  0  0  0  0  0  0  0  0  0  0
   30.5782  -21.0278  -10.1547 C   0  0  0  0  0  0  0  0  0  0  0  0
   29.5169  -21.8193  -10.9018 C   0  0  2  0  0  0  0  0  0  0  0  0
   30.2440  -22.4895  -11.9788 N   0  0  0  0  0  0  0  0  0  0  0  0
   28.4829  -20.9728  -11.4987 C   0  0  0  0  0  0  0  0  0  0  0  0
   27.8025  -20.2396  -10.7417 O   0  0  0  0  0  0  0  0  0  0  0  0
   26.1433  -16.6222  -18.1918 N   0  0  0  0  0  0  0  0  0  0  0  0
   27.2885  -17.4691  -18.0599 C   0  0  0  0  0  0  0  0  0  0  0  0
   28.4514  -17.1292  -18.5431 N   0  0  0  0  0  0  0  0  0  0  0  0
   27.2491  -18.7214  -17.4050 N   0  0  0  0  0  0  0  0  0  0  0  0
   26.0306  -19.2848  -16.9121 C   0  0  0  0  0  0  0  0  0  0  0  0
   25.9201  -19.2958  -15.4259 C   0  0  0  0  0  0  0  0  0  0  0  0
   27.1034  -19.9812  -14.8296 C   0  0  0  0  0  0  0  0  0  0  0  0
   27.0448  -20.1391  -13.3399 C   0  0  2  0  0  0  0  0  0  0  0  0
   28.1972  -20.9263  -12.8881 N   0  0  0  0  0  0  0  0  0  0  0  0
   25.7867  -20.7822  -12.9181 C   0  0  0  0  0  0  0  0  0  0  0  0
   25.5822  -21.9993  -13.1251 O   0  0  0  0  0  0  0  0  0  0  0  0
   29.2187  -17.8255  -18.4220 O   0  0  0  0  0  0  0  0  0  0  0  0
   18.3202  -22.1039   -8.6640 C   0  0  0  0  0  0  0  0  0  0  0  0
   19.4834  -21.5121   -9.1650 C   0  0  0  0  0  0  0  0  0  0  0  0
   19.4059  -20.7551  -10.3115 C   0  0  0  0  0  0  0  0  0  0  0  0
   20.5532  -20.1797  -10.7925 C   0  0  0  0  0  0  0  0  0  0  0  0
   21.7740  -20.3434  -10.1548 C   0  0  0  0  0  0  0  0  0  0  0  0
   23.0065  -19.7058  -10.6931 C   0  0  2  0  0  0  0  0  0  0  0  0
   23.5833  -20.6309  -11.7688 N   0  0  0  0  0  0  0  0  0  0  0  0
   24.7958  -19.9968  -12.2657 C   0  0  0  0  0  0  0  0  0  0  0  0
   22.6366  -20.7854  -12.8815 O   0  0  0  0  0  0  0  0  0  0  0  0
   22.5501  -19.9110  -13.7664 C   0  0  0  0  0  0  0  0  0  0  0  0
   21.8485  -21.1002   -9.0098 C   0  0  0  0  0  0  0  0  0  0  0  0
   20.6950  -21.6772   -8.5282 O   0  0  0  0  0  0  0  0  0  0  0  0
  2  1  1  0
  3  2  1  0
  4  3  1  0
  5  4  1  0
  5  7  1  0
  5  6  1  6
  7  8  2  0
  9 10  1  0
 10 11  2  0
 10 12  1  0
 12 13  1  0
 14 13  1  0
 14 15  1  0
 16 15  1  6
 17  7  1  0
 17 16  1  0
 18 16  1  0
 18 27  1  0
 19 18  2  0
 20 21  1  0
 21 31  2  0
 22 23  2  0
 22 21  1  0
 23 24  1  0
 24 25  1  0
 24 30  2  0
 26 28  1  0
 26 27  1  0
 26 25  1  1
 28 32  1  0
 29 28  2  0
 31 30  1  0
M  END
$$$$
