MRY.pdb
     RDKit          3D

 32 32  0  0  1  0  0  0  0  0999 V2000
   19.7425  -15.3495  -14.1946 C   0  0  0  0  0  0  0  0  0  0  0  0
   20.7882  -14.1592  -15.1076 S   0  0  0  0  0  0  0  0  0  0  0  0
   21.9093  -15.1079  -16.1315 C   0  0  0  0  0  0  0  0  0  0  0  0
   22.3885  -16.3910  -15.4708 C   0  0  0  0  0  0  0  0  0  0  0  0
   23.4734  -16.9376  -16.3846 C   0  0  2  0  0  0  0  0  0  0  0  0
   22.7798  -17.2634  -17.6298 N   0  0  0  0  0  0  0  0  0  0  0  0
   24.0974  -18.1574  -15.8700 C   0  0  0  0  0  0  0  0  0  0  0  0
   23.3619  -19.1409  -15.6145 O   0  0  0  0  0  0  0  0  0  0  0  0
   27.7801  -24.4793  -16.8016 N   0  0  0  0  0  0  0  0  0  0  0  0
   27.8650  -23.5095  -17.8496 C   0  0  0  0  0  0  0  0  0  0  0  0
   27.4226  -23.7585  -19.0511 N   0  0  0  0  0  0  0  0  0  0  0  0
   28.4264  -22.2249  -17.6668 N   0  0  0  0  0  0  0  0  0  0  0  0
   28.8360  -21.7489  -16.3820 C   0  0  0  0  0  0  0  0  0  0  0  0
   27.7095  -21.3597  -15.4872 C   0  0  0  0  0  0  0  0  0  0  0  0
   27.1083  -20.0753  -15.9502 C   0  0  0  0  0  0  0  0  0  0  0  0
   25.9818  -19.5735  -15.0976 C   0  0  2  0  0  0  0  0  0  0  0  0
   25.4903  -18.3020  -15.6395 N   0  0  0  0  0  0  0  0  0  0  0  0
   26.4050  -19.4045  -13.6953 C   0  0  0  0  0  0  0  0  0  0  0  0
   27.3448  -18.6357  -13.3922 O   0  0  0  0  0  0  0  0  0  0  0  0
   27.5319  -22.9896  -19.7477 O   0  0  0  0  0  0  0  0  0  0  0  0
   28.1039  -19.8026   -5.3712 C   0  0  0  0  0  0  0  0  0  0  0  0
   27.4347  -19.7933   -6.5984 C   0  0  0  0  0  0  0  0  0  0  0  0
   27.4913  -18.6625   -7.3803 C   0  0  0  0  0  0  0  0  0  0  0  0
   26.8315  -18.6659   -8.5817 C   0  0  0  0  0  0  0  0  0  0  0  0
   26.1175  -19.7720   -9.0186 C   0  0  0  0  0  0  0  0  0  0  0  0
   25.4117  -19.7546  -10.3288 C   0  0  2  0  0  0  0  0  0  0  0  0
   26.3634  -20.3276  -11.3833 N   0  0  0  0  0  0  0  0  0  0  0  0
   25.7269  -20.1321  -12.6778 C   0  0  0  0  0  0  0  0  0  0  0  0
   26.5709  -21.7657  -11.1674 O   0  0  0  0  0  0  0  0  0  0  0  0
   25.7310  -22.5950  -11.5698 C   0  0  0  0  0  0  0  0  0  0  0  0
   26.0625  -20.9002   -8.2353 C   0  0  0  0  0  0  0  0  0  0  0  0
   26.7260  -20.8948   -7.0291 O   0  0  0  0  0  0  0  0  0  0  0  0
  2  1  1  0
  3  2  1  0
  4  3  1  0
  5  4  1  0
  5  7  1  0
  5  6  1  6
  7  8  2  0
  9 10  1  0
 10 11  2  0
 10 12  1  0
 12 13  1  0
 14 13  1  0
 14 15  1  0
 16 15  1  6
 17  7  1  0
 17 16  1  0
 18 16  1  0
 18 27  1  0
 19 18  2  0
 20 21  1  0
 21 31  2  0
 22 23  2  0
 22 21  1  0
 23 24  1  0
 24 25  1  0
 24 30  2  0
 26 28  1  0
 26 27  1  0
 26 25  1  6
 28 32  1  0
 29 28  2  0
 31 30  1  0
M  END
$$$$
