MRY.pdb
     RDKit          3D

 32 32  0  0  1  0  0  0  0  0999 V2000
   21.1674  -13.8300  -17.7827 C   0  0  0  0  0  0  0  0  0  0  0  0
   22.4195  -12.8400  -18.6751 S   0  0  0  0  0  0  0  0  0  0  0  0
   23.9216  -13.8118  -18.7416 C   0  0  0  0  0  0  0  0  0  0  0  0
   23.7956  -15.1629  -18.0551 C   0  0  0  0  0  0  0  0  0  0  0  0
   25.1912  -15.7648  -18.0840 C   0  0  2  0  0  0  0  0  0  0  0  0
   25.3750  -16.2084  -19.4649 N   0  0  0  0  0  0  0  0  0  0  0  0
   25.3351  -16.9244  -17.2027 C   0  0  0  0  0  0  0  0  0  0  0  0
   24.7567  -17.9909  -17.5218 O   0  0  0  0  0  0  0  0  0  0  0  0
   26.5968  -21.7684  -11.2814 N   0  0  0  0  0  0  0  0  0  0  0  0
   26.3904  -22.1014  -12.6571 C   0  0  0  0  0  0  0  0  0  0  0  0
   25.5279  -23.0100  -13.0202 N   0  0  0  0  0  0  0  0  0  0  0  0
   27.0946  -21.4803  -13.7141 N   0  0  0  0  0  0  0  0  0  0  0  0
   27.8854  -20.3055  -13.5151 C   0  0  0  0  0  0  0  0  0  0  0  0
   27.1048  -19.1079  -13.0937 C   0  0  0  0  0  0  0  0  0  0  0  0
   27.1633  -18.0598  -14.1537 C   0  0  0  0  0  0  0  0  0  0  0  0
   26.0280  -18.1014  -15.1320 C   0  0  2  0  0  0  0  0  0  0  0  0
   26.0918  -16.9220  -16.0020 N   0  0  0  0  0  0  0  0  0  0  0  0
   24.7268  -18.1598  -14.4410 C   0  0  0  0  0  0  0  0  0  0  0  0
   24.3985  -17.2868  -13.6067 O   0  0  0  0  0  0  0  0  0  0  0  0
   25.4337  -23.1673  -14.0472 O   0  0  0  0  0  0  0  0  0  0  0  0
   16.9956  -18.5315  -11.2757 C   0  0  0  0  0  0  0  0  0  0  0  0
   18.1783  -18.4251  -12.0133 C   0  0  0  0  0  0  0  0  0  0  0  0
   19.3544  -18.1543  -11.3523 C   0  0  0  0  0  0  0  0  0  0  0  0
   20.5073  -18.0528  -12.0866 C   0  0  0  0  0  0  0  0  0  0  0  0
   20.5115  -18.2155  -13.4641 C   0  0  0  0  0  0  0  0  0  0  0  0
   21.7764  -18.1047  -14.2406 C   0  0  2  0  0  0  0  0  0  0  0  0
   22.5999  -19.3697  -13.9810 N   0  0  0  0  0  0  0  0  0  0  0  0
   23.8372  -19.2307  -14.7352 C   0  0  0  0  0  0  0  0  0  0  0  0
   21.8839  -20.5610  -14.4568 O   0  0  0  0  0  0  0  0  0  0  0  0
   22.0016  -20.9417  -15.6385 C   0  0  0  0  0  0  0  0  0  0  0  0
   19.3351  -18.4858  -14.1217 C   0  0  0  0  0  0  0  0  0  0  0  0
   18.1782  -18.5874  -13.3824 O   0  0  0  0  0  0  0  0  0  0  0  0
  2  1  1  0
  3  2  1  0
  4  3  1  0
  5  4  1  0
  5  7  1  0
  5  6  1  6
  7  8  2  0
  9 10  1  0
 10 11  2  0
 10 12  1  0
 12 13  1  0
 14 13  1  0
 14 15  1  0
 16 15  1  1
 17  7  1  0
 17 16  1  0
 18 16  1  0
 18 27  1  0
 19 18  2  0
 20 21  1  0
 21 31  2  0
 22 23  2  0
 22 21  1  0
 23 24  1  0
 24 25  1  0
 24 30  2  0
 26 28  1  0
 26 27  1  0
 26 25  1  1
 28 32  1  0
 29 28  2  0
 31 30  1  0
M  END
$$$$
