MRY.pdb
     RDKit          3D

 32 32  0  0  1  0  0  0  0  0999 V2000
   28.4511  -18.9359   -6.9964 C   0  0  0  0  0  0  0  0  0  0  0  0
   28.9858  -20.6833   -7.0664 S   0  0  0  0  0  0  0  0  0  0  0  0
   28.4104  -21.3567   -8.6222 C   0  0  0  0  0  0  0  0  0  0  0  0
   27.2052  -20.6216   -9.1875 C   0  0  0  0  0  0  0  0  0  0  0  0
   26.9050  -21.2958  -10.5166 C   0  0  2  0  0  0  0  0  0  0  0  0
   28.1258  -21.1249  -11.3029 N   0  0  0  0  0  0  0  0  0  0  0  0
   25.7973  -20.6707  -11.2406 C   0  0  0  0  0  0  0  0  0  0  0  0
   25.9504  -19.5024  -11.6709 O   0  0  0  0  0  0  0  0  0  0  0  0
   29.0209  -20.1890  -15.1856 N   0  0  0  0  0  0  0  0  0  0  0  0
   28.0870  -21.1156  -15.7473 C   0  0  0  0  0  0  0  0  0  0  0  0
   28.4793  -22.2082  -16.3422 N   0  0  0  0  0  0  0  0  0  0  0  0
   26.6873  -20.9220  -15.7015 N   0  0  0  0  0  0  0  0  0  0  0  0
   26.1016  -19.7150  -15.2063 C   0  0  0  0  0  0  0  0  0  0  0  0
   25.5742  -19.8177  -13.8161 C   0  0  0  0  0  0  0  0  0  0  0  0
   24.3210  -20.6267  -13.8025 C   0  0  0  0  0  0  0  0  0  0  0  0
   23.6417  -20.6979  -12.4678 C   0  0  2  0  0  0  0  0  0  0  0  0
   24.5520  -21.3042  -11.4901 N   0  0  0  0  0  0  0  0  0  0  0  0
   22.3861  -21.4669  -12.5457 C   0  0  0  0  0  0  0  0  0  0  0  0
   22.3901  -22.6823  -12.8435 O   0  0  0  0  0  0  0  0  0  0  0  0
   27.7236  -22.8555  -16.6554 O   0  0  0  0  0  0  0  0  0  0  0  0
   14.1930  -24.0272  -11.5582 C   0  0  0  0  0  0  0  0  0  0  0  0
   15.3964  -23.3215  -11.4686 C   0  0  0  0  0  0  0  0  0  0  0  0
   15.4216  -21.9966  -11.8391 C   0  0  0  0  0  0  0  0  0  0  0  0
   16.6075  -21.3154  -11.7462 C   0  0  0  0  0  0  0  0  0  0  0  0
   17.7665  -21.9274  -11.2923 C   0  0  0  0  0  0  0  0  0  0  0  0
   19.0423  -21.1669  -11.1961 C   0  0  2  0  0  0  0  0  0  0  0  0
   19.9008  -21.5329  -12.4105 N   0  0  0  0  0  0  0  0  0  0  0  0
   21.1551  -20.8063  -12.2758 C   0  0  0  0  0  0  0  0  0  0  0  0
   19.2414  -21.1170  -13.6556 O   0  0  0  0  0  0  0  0  0  0  0  0
   19.3991  -19.9633  -14.1020 C   0  0  0  0  0  0  0  0  0  0  0  0
   17.7383  -23.2511  -10.9230 C   0  0  0  0  0  0  0  0  0  0  0  0
   16.5463  -23.9334  -11.0169 O   0  0  0  0  0  0  0  0  0  0  0  0
  2  1  1  0
  3  2  1  0
  4  3  1  0
  5  4  1  0
  5  7  1  0
  5  6  1  6
  7  8  2  0
  9 10  1  0
 10 11  2  0
 10 12  1  0
 12 13  1  0
 14 13  1  0
 14 15  1  0
 16 15  1  6
 17  7  1  0
 17 16  1  0
 18 16  1  0
 18 27  1  0
 19 18  2  0
 20 21  1  0
 21 31  2  0
 22 23  2  0
 22 21  1  0
 23 24  1  0
 24 25  1  0
 24 30  2  0
 26 28  1  0
 26 27  1  0
 26 25  1  1
 28 32  1  0
 29 28  2  0
 31 30  1  0
M  END
$$$$
