MRY.pdb
     RDKit          3D

 32 32  0  0  1  0  0  0  0  0999 V2000
   22.7272  -15.7270  -19.0533 C   0  0  0  0  0  0  0  0  0  0  0  0
   22.9448  -16.7240  -17.5359 S   0  0  0  0  0  0  0  0  0  0  0  0
   23.4853  -18.3546  -18.0401 C   0  0  0  0  0  0  0  0  0  0  0  0
   23.9137  -19.2338  -16.8756 C   0  0  0  0  0  0  0  0  0  0  0  0
   24.8308  -20.2862  -17.4773 C   0  0  2  0  0  0  0  0  0  0  0  0
   23.9289  -21.2374  -18.1249 N   0  0  0  0  0  0  0  0  0  0  0  0
   25.6173  -21.0046  -16.4736 C   0  0  0  0  0  0  0  0  0  0  0  0
   25.0334  -21.8462  -15.7494 O   0  0  0  0  0  0  0  0  0  0  0  0
   31.9680  -24.6175  -18.0483 N   0  0  0  0  0  0  0  0  0  0  0  0
   31.9840  -24.5726  -16.6187 C   0  0  0  0  0  0  0  0  0  0  0  0
   33.0635  -24.8394  -15.9368 N   0  0  0  0  0  0  0  0  0  0  0  0
   30.8480  -24.2403  -15.8456 N   0  0  0  0  0  0  0  0  0  0  0  0
   29.5704  -23.9914  -16.4379 C   0  0  0  0  0  0  0  0  0  0  0  0
   29.3209  -22.5609  -16.7735 C   0  0  0  0  0  0  0  0  0  0  0  0
   29.1021  -21.7731  -15.5257 C   0  0  0  0  0  0  0  0  0  0  0  0
   27.6613  -21.5480  -15.1775 C   0  0  2  0  0  0  0  0  0  0  0  0
   27.0075  -20.8105  -16.2640 N   0  0  0  0  0  0  0  0  0  0  0  0
   27.5255  -20.8152  -13.9052 C   0  0  0  0  0  0  0  0  0  0  0  0
   27.8743  -19.6172  -13.8092 O   0  0  0  0  0  0  0  0  0  0  0  0
   32.9689  -24.8064  -14.8985 O   0  0  0  0  0  0  0  0  0  0  0  0
   20.7217  -21.1404  -12.2841 C   0  0  0  0  0  0  0  0  0  0  0  0
   22.0544  -20.7485  -12.1273 C   0  0  0  0  0  0  0  0  0  0  0  0
   22.8852  -20.7562  -13.2241 C   0  0  0  0  0  0  0  0  0  0  0  0
   24.1896  -20.3694  -13.0576 C   0  0  0  0  0  0  0  0  0  0  0  0
   24.6816  -19.9759  -11.8218 C   0  0  0  0  0  0  0  0  0  0  0  0
   26.1009  -19.5560  -11.6653 C   0  0  1  0  0  0  0  0  0  0  0  0
   26.9477  -20.8191  -11.4834 N   0  0  0  0  0  0  0  0  0  0  0  0
   26.9876  -21.4907  -12.7744 C   0  0  0  0  0  0  0  0  0  0  0  0
   26.3322  -21.7183  -10.4981 O   0  0  0  0  0  0  0  0  0  0  0  0
   26.1482  -21.3414   -9.3237 C   0  0  0  0  0  0  0  0  0  0  0  0
   23.8494  -19.9693  -10.7279 C   0  0  0  0  0  0  0  0  0  0  0  0
   22.5396  -20.3580  -10.8973 O   0  0  0  0  0  0  0  0  0  0  0  0
  2  1  1  0
  3  2  1  0
  4  3  1  0
  5  4  1  0
  5  7  1  0
  5  6  1  1
  7  8  2  0
  9 10  1  0
 10 11  2  0
 10 12  1  0
 12 13  1  0
 14 13  1  0
 14 15  1  0
 16 15  1  6
 17  7  1  0
 17 16  1  0
 18 16  1  0
 18 27  1  0
 19 18  2  0
 20 21  1  0
 21 31  2  0
 22 23  2  0
 22 21  1  0
 23 24  1  0
 24 25  1  0
 24 30  2  0
 26 28  1  0
 26 27  1  0
 26 25  1  6
 28 32  1  0
 29 28  2  0
 31 30  1  0
M  END
$$$$
