CDA.pdb
     RDKit          3D

 20 19  0  0  1  0  0  0  0  0999 V2000
    7.4642  -17.0253   22.1087 N   0  0  0  0  0  0  0  0  0  0  0  0
    8.3494  -15.9575   22.5397 C   0  0  1  0  0  0  0  0  0  0  0  0
    7.5236  -14.8895   23.2002 C   0  0  0  0  0  0  0  0  0  0  0  0
    6.5491  -14.0301   21.9371 S   0  0  0  0  0  0  0  0  0  0  0  0
    9.3830  -16.4431   23.4736 C   0  0  0  0  0  0  0  0  0  0  0  0
    9.1854  -17.4530   24.1861 O   0  0  0  0  0  0  0  0  0  0  0  0
   10.6113  -15.7400   23.5491 N   0  0  0  0  0  0  0  0  0  0  0  0
   11.7349  -16.2390   24.3129 C   0  0  1  0  0  0  0  0  0  0  0  0
   13.0629  -15.7645   23.8222 C   0  0  0  0  0  0  0  0  0  0  0  0
   13.4923  -16.4113   22.5772 C   0  0  0  0  0  0  0  0  0  0  0  0
   13.3773  -17.6718   22.4548 O   0  0  0  0  0  0  0  0  0  0  0  0
   11.5798  -15.7379   25.7256 C   0  0  0  0  0  0  0  0  0  0  0  0
   12.4331  -15.9870   26.6160 O   0  0  0  0  0  0  0  0  0  0  0  0
   14.0249  -15.7401   21.5020 O   0  0  0  0  0  0  0  0  0  0  0  0
    9.0538  -13.5197   27.4163 C   0  0  0  0  0  0  0  0  0  0  0  0
   10.2420  -14.4595   27.4485 C   0  0  2  0  0  0  0  0  0  0  0  0
   10.4520  -14.9582   26.1053 N   0  0  0  0  0  0  0  0  0  0  0  0
    9.9224  -15.5526   28.3982 C   0  0  0  0  0  0  0  0  0  0  0  0
    9.8596  -15.2566   29.6162 O   0  0  0  0  0  0  0  0  0  0  0  0
    9.6952  -16.8609   28.0021 O   0  0  0  0  0  0  0  0  0  0  0  0
  2  5  1  0
  2  1  1  1
  3  2  1  0
  4  3  1  0
  5  6  2  0
  7  8  1  0
  7  5  1  0
  8  9  1  6
  9 10  1  0
 10 14  1  0
 11 10  2  0
 12 13  2  0
 12  8  1  0
 16 15  1  6
 16 18  1  0
 16 17  1  0
 17 12  1  0
 18 20  1  0
 19 18  2  0
M  END
$$$$
