CDA.pdb
     RDKit          3D

 20 19  0  0  1  0  0  0  0  0999 V2000
    7.2267  -14.9422   19.6880 N   0  0  0  0  0  0  0  0  0  0  0  0
    8.1453  -14.3994   20.6734 C   0  0  1  0  0  0  0  0  0  0  0  0
    7.7093  -13.0022   21.0146 C   0  0  0  0  0  0  0  0  0  0  0  0
    8.1128  -11.9028   19.6317 S   0  0  0  0  0  0  0  0  0  0  0  0
    8.1912  -15.2241   21.8957 C   0  0  0  0  0  0  0  0  0  0  0  0
    7.1548  -15.7549   22.3549 O   0  0  0  0  0  0  0  0  0  0  0  0
    9.4386  -15.4050   22.5439 N   0  0  0  0  0  0  0  0  0  0  0  0
    9.5734  -16.2163   23.7349 C   0  0  1  0  0  0  0  0  0  0  0  0
   10.5684  -17.3223   23.6082 C   0  0  0  0  0  0  0  0  0  0  0  0
   10.7454  -18.0951   24.8427 C   0  0  0  0  0  0  0  0  0  0  0  0
    9.7243  -18.4333   25.5211 O   0  0  0  0  0  0  0  0  0  0  0  0
   10.0513  -15.3154   24.8443 C   0  0  0  0  0  0  0  0  0  0  0  0
   11.2245  -14.8617   24.8726 O   0  0  0  0  0  0  0  0  0  0  0  0
   11.9651  -18.4931   25.3368 O   0  0  0  0  0  0  0  0  0  0  0  0
    8.3842  -13.2959   27.4550 C   0  0  0  0  0  0  0  0  0  0  0  0
    9.5913  -14.0974   27.0116 C   0  0  2  0  0  0  0  0  0  0  0  0
    9.1840  -14.9428   25.9088 N   0  0  0  0  0  0  0  0  0  0  0  0
   10.0518  -14.8933   28.1750 C   0  0  0  0  0  0  0  0  0  0  0  0
    9.8958  -16.1374   28.1190 O   0  0  0  0  0  0  0  0  0  0  0  0
   10.6355  -14.3294   29.2981 O   0  0  0  0  0  0  0  0  0  0  0  0
  2  5  1  0
  2  1  1  6
  3  2  1  0
  4  3  1  0
  5  6  2  0
  7  8  1  0
  7  5  1  0
  8  9  1  6
  9 10  1  0
 10 14  1  0
 11 10  2  0
 12 13  2  0
 12  8  1  0
 16 15  1  1
 16 18  1  0
 16 17  1  0
 17 12  1  0
 18 20  1  0
 19 18  2  0
M  END
$$$$
