CDA.pdb
     RDKit          3D

 20 19  0  0  1  0  0  0  0  0999 V2000
    7.8673  -15.0668   17.0420 N   0  0  0  0  0  0  0  0  0  0  0  0
    8.9655  -14.6745   17.9078 C   0  0  1  0  0  0  0  0  0  0  0  0
    8.4538  -13.6730   18.9048 C   0  0  0  0  0  0  0  0  0  0  0  0
    7.9350  -12.1758   18.0256 S   0  0  0  0  0  0  0  0  0  0  0  0
    9.5507  -15.8310   18.6124 C   0  0  0  0  0  0  0  0  0  0  0  0
    8.8564  -16.8337   18.8937 O   0  0  0  0  0  0  0  0  0  0  0  0
   10.9223  -15.7847   18.9667 N   0  0  0  0  0  0  0  0  0  0  0  0
   11.5482  -16.8299   19.7482 C   0  0  1  0  0  0  0  0  0  0  0  0
   12.9140  -17.2065   19.2772 C   0  0  0  0  0  0  0  0  0  0  0  0
   13.5027  -18.3250   20.0223 C   0  0  0  0  0  0  0  0  0  0  0  0
   14.6817  -18.2163   20.4862 O   0  0  0  0  0  0  0  0  0  0  0  0
   11.6915  -16.3167   21.1577 C   0  0  0  0  0  0  0  0  0  0  0  0
   12.4938  -15.3925   21.4496 O   0  0  0  0  0  0  0  0  0  0  0  0
   12.8593  -19.5157   20.2642 O   0  0  0  0  0  0  0  0  0  0  0  0
    9.5966  -16.6164   24.2023 C   0  0  0  0  0  0  0  0  0  0  0  0
   10.9522  -16.3612   23.5751 C   0  0  2  0  0  0  0  0  0  0  0  0
   10.9170  -16.8647   22.2179 N   0  0  0  0  0  0  0  0  0  0  0  0
   11.9654  -17.0653   24.3977 C   0  0  0  0  0  0  0  0  0  0  0  0
   12.5060  -18.0822   23.8987 O   0  0  0  0  0  0  0  0  0  0  0  0
   12.3313  -16.6534   25.6691 O   0  0  0  0  0  0  0  0  0  0  0  0
  2  5  1  0
  2  1  1  6
  3  2  1  0
  4  3  1  0
  5  6  2  0
  7  8  1  0
  7  5  1  0
  8  9  1  6
  9 10  1  0
 10 14  1  0
 11 10  2  0
 12 13  2  0
 12  8  1  0
 16 15  1  1
 16 18  1  0
 16 17  1  0
 17 12  1  0
 18 20  1  0
 19 18  2  0
M  END
$$$$
