CDA.pdb
     RDKit          3D

 20 19  0  0  1  0  0  0  0  0999 V2000
    7.6371  -14.3176   16.9438 N   0  0  0  0  0  0  0  0  0  0  0  0
    8.3792  -13.8854   18.1151 C   0  0  1  0  0  0  0  0  0  0  0  0
    7.5447  -12.8879   18.8683 C   0  0  0  0  0  0  0  0  0  0  0  0
    8.3552  -12.5094   20.4443 S   0  0  0  0  0  0  0  0  0  0  0  0
    8.7257  -15.0173   18.9955 C   0  0  0  0  0  0  0  0  0  0  0  0
    7.9639  -16.0041   19.1074 O   0  0  0  0  0  0  0  0  0  0  0  0
    9.9449  -14.9657   19.7164 N   0  0  0  0  0  0  0  0  0  0  0  0
   10.3772  -16.0511   20.5708 C   0  0  1  0  0  0  0  0  0  0  0  0
   11.8031  -16.4483   20.3755 C   0  0  0  0  0  0  0  0  0  0  0  0
   12.1761  -17.6676   21.1013 C   0  0  0  0  0  0  0  0  0  0  0  0
   11.2899  -18.3010   21.7576 O   0  0  0  0  0  0  0  0  0  0  0  0
   10.2382  -15.5865   21.9975 C   0  0  0  0  0  0  0  0  0  0  0  0
   11.0549  -14.7826   22.5168 O   0  0  0  0  0  0  0  0  0  0  0  0
   13.4462  -18.1931   21.1272 O   0  0  0  0  0  0  0  0  0  0  0  0
    7.5150  -15.6318   24.5003 C   0  0  0  0  0  0  0  0  0  0  0  0
    9.0002  -15.6598   24.2008 C   0  0  2  0  0  0  0  0  0  0  0  0
    9.1680  -16.0452   22.8151 N   0  0  0  0  0  0  0  0  0  0  0  0
    9.6245  -16.6379   25.1242 C   0  0  0  0  0  0  0  0  0  0  0  0
   10.0790  -17.6943   24.6218 O   0  0  0  0  0  0  0  0  0  0  0  0
    9.7237  -16.4356   26.4914 O   0  0  0  0  0  0  0  0  0  0  0  0
  2  5  1  0
  2  1  1  6
  3  2  1  0
  4  3  1  0
  5  6  2  0
  7  8  1  0
  7  5  1  0
  8  9  1  6
  9 10  1  0
 10 14  1  0
 11 10  2  0
 12 13  2  0
 12  8  1  0
 16 15  1  1
 16 18  1  0
 16 17  1  0
 17 12  1  0
 18 20  1  0
 19 18  2  0
M  END
$$$$
