CDA.pdb
     RDKit          3D

 20 19  0  0  1  0  0  0  0  0999 V2000
    7.3602  -15.3491   18.1117 N   0  0  0  0  0  0  0  0  0  0  0  0
    8.4935  -14.8337   18.8597 C   0  0  1  0  0  0  0  0  0  0  0  0
    8.1201  -13.4946   19.4308 C   0  0  0  0  0  0  0  0  0  0  0  0
    7.8455  -12.3281   18.0714 S   0  0  0  0  0  0  0  0  0  0  0  0
    8.8980  -15.7476   19.9448 C   0  0  0  0  0  0  0  0  0  0  0  0
    8.0453  -16.3882   20.6000 O   0  0  0  0  0  0  0  0  0  0  0  0
   10.2787  -15.8872   20.2330 N   0  0  0  0  0  0  0  0  0  0  0  0
   10.7685  -16.8595   21.1868 C   0  0  1  0  0  0  0  0  0  0  0  0
   12.1989  -17.2390   20.9883 C   0  0  0  0  0  0  0  0  0  0  0  0
   12.4312  -18.0340   19.7773 C   0  0  0  0  0  0  0  0  0  0  0  0
   13.3798  -17.7159   18.9923 O   0  0  0  0  0  0  0  0  0  0  0  0
   10.6598  -16.2430   22.5575 C   0  0  0  0  0  0  0  0  0  0  0  0
   11.4295  -15.3220   22.9345 O   0  0  0  0  0  0  0  0  0  0  0  0
   11.6807  -19.1276   19.4154 O   0  0  0  0  0  0  0  0  0  0  0  0
    8.0807  -16.2498   25.2191 C   0  0  0  0  0  0  0  0  0  0  0  0
    9.5401  -16.1541   24.8226 C   0  0  2  0  0  0  0  0  0  0  0  0
    9.6733  -16.6856   23.4822 N   0  0  0  0  0  0  0  0  0  0  0  0
   10.3236  -16.9391   25.8069 C   0  0  0  0  0  0  0  0  0  0  0  0
   10.8727  -17.9909   25.3978 O   0  0  0  0  0  0  0  0  0  0  0  0
   10.4703  -16.5650   27.1331 O   0  0  0  0  0  0  0  0  0  0  0  0
  2  5  1  0
  2  1  1  1
  3  2  1  0
  4  3  1  0
  5  6  2  0
  7  8  1  0
  7  5  1  0
  8  9  1  6
  9 10  1  0
 10 14  1  0
 11 10  2  0
 12 13  2  0
 12  8  1  0
 16 15  1  1
 16 18  1  0
 16 17  1  0
 17 12  1  0
 18 20  1  0
 19 18  2  0
M  END
$$$$
