CDA.pdb
     RDKit          3D

 20 19  0  0  1  0  0  0  0  0999 V2000
    7.1009  -14.7680   19.8494 N   0  0  0  0  0  0  0  0  0  0  0  0
    8.3482  -14.7464   20.5932 C   0  0  1  0  0  0  0  0  0  0  0  0
    8.8326  -13.3259   20.6730 C   0  0  0  0  0  0  0  0  0  0  0  0
    7.6484  -12.3511   21.6382 S   0  0  0  0  0  0  0  0  0  0  0  0
    8.1886  -15.2999   21.9513 C   0  0  0  0  0  0  0  0  0  0  0  0
    7.0592  -15.3865   22.4839 O   0  0  0  0  0  0  0  0  0  0  0  0
    9.3454  -15.7343   22.6457 N   0  0  0  0  0  0  0  0  0  0  0  0
    9.2636  -16.4289   23.9129 C   0  0  1  0  0  0  0  0  0  0  0  0
   10.0020  -17.7262   23.9443 C   0  0  0  0  0  0  0  0  0  0  0  0
    9.9960  -18.3716   25.2619 C   0  0  0  0  0  0  0  0  0  0  0  0
    8.8901  -18.5647   25.8592 O   0  0  0  0  0  0  0  0  0  0  0  0
    9.8866  -15.5391   24.9574 C   0  0  0  0  0  0  0  0  0  0  0  0
   11.1156  -15.2699   24.9532 O   0  0  0  0  0  0  0  0  0  0  0  0
   11.1265  -18.7958   25.9193 O   0  0  0  0  0  0  0  0  0  0  0  0
    8.5765  -13.2765   27.6111 C   0  0  0  0  0  0  0  0  0  0  0  0
    9.6565  -14.2040   27.0921 C   0  0  2  0  0  0  0  0  0  0  0  0
    9.0989  -14.9670   25.9949 N   0  0  0  0  0  0  0  0  0  0  0  0
   10.0733  -15.0781   28.2152 C   0  0  0  0  0  0  0  0  0  0  0  0
   10.6123  -14.5257   29.2048 O   0  0  0  0  0  0  0  0  0  0  0  0
    9.8948  -16.4522   28.2149 O   0  0  0  0  0  0  0  0  0  0  0  0
  2  5  1  0
  2  1  1  1
  3  2  1  0
  4  3  1  0
  5  6  2  0
  7  8  1  0
  7  5  1  0
  8  9  1  6
  9 10  1  0
 10 14  1  0
 11 10  2  0
 12 13  2  0
 12  8  1  0
 16 15  1  1
 16 18  1  0
 16 17  1  0
 17 12  1  0
 18 20  1  0
 19 18  2  0
M  END
$$$$
