CDA.pdb
     RDKit          3D

 20 19  0  0  1  0  0  0  0  0999 V2000
    7.3744  -14.1012   19.1139 N   0  0  0  0  0  0  0  0  0  0  0  0
    8.5329  -14.2583   19.9757 C   0  0  1  0  0  0  0  0  0  0  0  0
    9.1757  -12.9127   20.1624 C   0  0  0  0  0  0  0  0  0  0  0  0
    8.0129  -11.8155   21.0157 S   0  0  0  0  0  0  0  0  0  0  0  0
    8.1698  -14.8280   21.2872 C   0  0  0  0  0  0  0  0  0  0  0  0
    6.9744  -14.8975   21.6516 O   0  0  0  0  0  0  0  0  0  0  0  0
    9.2066  -15.2979   22.1317 N   0  0  0  0  0  0  0  0  0  0  0  0
    8.9309  -16.0172   23.3570 C   0  0  1  0  0  0  0  0  0  0  0  0
    9.5224  -17.3873   23.4044 C   0  0  0  0  0  0  0  0  0  0  0  0
    9.3489  -18.0556   24.6990 C   0  0  0  0  0  0  0  0  0  0  0  0
    8.2043  -18.0592   25.2530 O   0  0  0  0  0  0  0  0  0  0  0  0
    9.5407  -15.2320   24.4894 C   0  0  0  0  0  0  0  0  0  0  0  0
   10.7827  -15.0533   24.5805 O   0  0  0  0  0  0  0  0  0  0  0  0
   10.3576  -18.6965   25.3787 O   0  0  0  0  0  0  0  0  0  0  0  0
    8.1808  -13.0361   27.1815 C   0  0  0  0  0  0  0  0  0  0  0  0
    9.2568  -13.9669   26.6600 C   0  0  2  0  0  0  0  0  0  0  0  0
    8.7250  -14.6599   25.5051 N   0  0  0  0  0  0  0  0  0  0  0  0
    9.6049  -14.9058   27.7538 C   0  0  0  0  0  0  0  0  0  0  0  0
    9.2518  -16.1026   27.6188 O   0  0  0  0  0  0  0  0  0  0  0  0
   10.2902  -14.5219   28.8953 O   0  0  0  0  0  0  0  0  0  0  0  0
  2  5  1  0
  2  1  1  6
  3  2  1  0
  4  3  1  0
  5  6  2  0
  7  8  1  0
  7  5  1  0
  8  9  1  6
  9 10  1  0
 10 14  1  0
 11 10  2  0
 12 13  2  0
 12  8  1  0
 16 15  1  1
 16 18  1  0
 16 17  1  0
 17 12  1  0
 18 20  1  0
 19 18  2  0
M  END
$$$$
