CDA.pdb
     RDKit          3D

 20 19  0  0  1  0  0  0  0  0999 V2000
    7.5976  -14.7174   18.4410 N   0  0  0  0  0  0  0  0  0  0  0  0
    8.6752  -14.3616   19.3475 C   0  0  1  0  0  0  0  0  0  0  0  0
    8.2023  -13.2469   20.2378 C   0  0  0  0  0  0  0  0  0  0  0  0
    8.1149  -11.7159   19.2721 S   0  0  0  0  0  0  0  0  0  0  0  0
    9.1068  -15.5101   20.1667 C   0  0  0  0  0  0  0  0  0  0  0  0
    8.2886  -16.3817   20.5375 O   0  0  0  0  0  0  0  0  0  0  0  0
   10.4738  -15.6083   20.5278 N   0  0  0  0  0  0  0  0  0  0  0  0
   10.9842  -16.7184   21.3039 C   0  0  1  0  0  0  0  0  0  0  0  0
   12.4096  -17.0571   21.0166 C   0  0  0  0  0  0  0  0  0  0  0  0
   12.9056  -18.2037   21.7861 C   0  0  0  0  0  0  0  0  0  0  0  0
   14.0216  -18.1169   22.3895 O   0  0  0  0  0  0  0  0  0  0  0  0
   10.9058  -16.3280   22.7573 C   0  0  0  0  0  0  0  0  0  0  0  0
   11.6358  -15.4257   23.2429 O   0  0  0  0  0  0  0  0  0  0  0  0
   12.2375  -19.3991   21.9082 O   0  0  0  0  0  0  0  0  0  0  0  0
    8.5342  -17.0868   25.5362 C   0  0  0  0  0  0  0  0  0  0  0  0
    9.9127  -16.6805   25.0556 C   0  0  2  0  0  0  0  0  0  0  0  0
    9.9948  -16.9727   23.6396 N   0  0  0  0  0  0  0  0  0  0  0  0
   10.9057  -17.4569   25.8367 C   0  0  0  0  0  0  0  0  0  0  0  0
   11.5419  -18.3526   25.2300 O   0  0  0  0  0  0  0  0  0  0  0  0
   11.1538  -17.2369   27.1821 O   0  0  0  0  0  0  0  0  0  0  0  0
  2  5  1  0
  2  1  1  6
  3  2  1  0
  4  3  1  0
  5  6  2  0
  7  8  1  0
  7  5  1  0
  8  9  1  6
  9 10  1  0
 10 14  1  0
 11 10  2  0
 12 13  2  0
 12  8  1  0
 16 15  1  1
 16 18  1  0
 16 17  1  0
 17 12  1  0
 18 20  1  0
 19 18  2  0
M  END
$$$$
