CDA.pdb
     RDKit          3D

 20 19  0  0  1  0  0  0  0  0999 V2000
    6.6029  -15.6483   21.7394 N   0  0  0  0  0  0  0  0  0  0  0  0
    7.9328  -15.1239   21.9962 C   0  0  1  0  0  0  0  0  0  0  0  0
    7.8166  -13.6583   22.3081 C   0  0  0  0  0  0  0  0  0  0  0  0
    6.8209  -13.4503   23.8078 S   0  0  0  0  0  0  0  0  0  0  0  0
    8.5941  -15.8245   23.1134 C   0  0  0  0  0  0  0  0  0  0  0  0
    7.9373  -16.2338   24.0972 O   0  0  0  0  0  0  0  0  0  0  0  0
    9.9956  -16.0265   23.0512 N   0  0  0  0  0  0  0  0  0  0  0  0
   10.7290  -16.6516   24.1310 C   0  0  1  0  0  0  0  0  0  0  0  0
   12.0939  -17.1203   23.7481 C   0  0  0  0  0  0  0  0  0  0  0  0
   12.0841  -18.2329   22.7917 C   0  0  0  0  0  0  0  0  0  0  0  0
   11.5205  -19.3274   23.1107 O   0  0  0  0  0  0  0  0  0  0  0  0
   10.9030  -15.6205   25.2161 C   0  0  0  0  0  0  0  0  0  0  0  0
   11.8131  -14.7531   25.1683 O   0  0  0  0  0  0  0  0  0  0  0  0
   12.6537  -18.1819   21.5415 O   0  0  0  0  0  0  0  0  0  0  0  0
    9.1256  -13.8398   27.7020 C   0  0  0  0  0  0  0  0  0  0  0  0
   10.2889  -14.7945   27.5255 C   0  0  2  0  0  0  0  0  0  0  0  0
   10.0356  -15.5917   26.3435 N   0  0  0  0  0  0  0  0  0  0  0  0
   10.3704  -15.6312   28.7471 C   0  0  0  0  0  0  0  0  0  0  0  0
   10.6373  -15.0491   29.8265 O   0  0  0  0  0  0  0  0  0  0  0  0
   10.1678  -17.0020   28.7439 O   0  0  0  0  0  0  0  0  0  0  0  0
  2  5  1  0
  2  1  1  1
  3  2  1  0
  4  3  1  0
  5  6  2  0
  7  8  1  0
  7  5  1  0
  8  9  1  6
  9 10  1  0
 10 14  1  0
 11 10  2  0
 12 13  2  0
 12  8  1  0
 16 15  1  1
 16 18  1  0
 16 17  1  0
 17 12  1  0
 18 20  1  0
 19 18  2  0
M  END
$$$$
