CDA.pdb
     RDKit          3D

 20 19  0  0  1  0  0  0  0  0999 V2000
    7.7247  -14.6637   16.5983 N   0  0  0  0  0  0  0  0  0  0  0  0
    8.5312  -14.1211   17.6775 C   0  0  1  0  0  0  0  0  0  0  0  0
    7.8218  -12.9263   18.2501 C   0  0  0  0  0  0  0  0  0  0  0  0
    8.7923  -12.2689   19.6320 S   0  0  0  0  0  0  0  0  0  0  0  0
    8.7733  -15.1176   18.7380 C   0  0  0  0  0  0  0  0  0  0  0  0
    7.8450  -15.8367   19.1714 O   0  0  0  0  0  0  0  0  0  0  0  0
   10.0848  -15.2459   19.2598 N   0  0  0  0  0  0  0  0  0  0  0  0
   10.4165  -16.2310   20.2671 C   0  0  1  0  0  0  0  0  0  0  0  0
   11.7959  -16.7885   20.1418 C   0  0  0  0  0  0  0  0  0  0  0  0
   11.9385  -17.7586   19.0504 C   0  0  0  0  0  0  0  0  0  0  0  0
   11.0320  -18.6312   18.8663 O   0  0  0  0  0  0  0  0  0  0  0  0
   10.3337  -15.5510   21.6093 C   0  0  0  0  0  0  0  0  0  0  0  0
   11.1391  -14.6448   21.9455 O   0  0  0  0  0  0  0  0  0  0  0  0
   13.0076  -17.7982   18.1869 O   0  0  0  0  0  0  0  0  0  0  0  0
    7.8249  -15.2034   24.2748 C   0  0  0  0  0  0  0  0  0  0  0  0
    9.2814  -15.3938   23.9029 C   0  0  2  0  0  0  0  0  0  0  0  0
    9.3320  -15.9137   22.5523 N   0  0  0  0  0  0  0  0  0  0  0  0
    9.8727  -16.3398   24.8798 C   0  0  0  0  0  0  0  0  0  0  0  0
   10.1177  -17.5033   24.4781 O   0  0  0  0  0  0  0  0  0  0  0  0
   10.1596  -15.9969   26.1914 O   0  0  0  0  0  0  0  0  0  0  0  0
  2  5  1  0
  2  1  1  6
  3  2  1  0
  4  3  1  0
  5  6  2  0
  7  8  1  0
  7  5  1  0
  8  9  1  6
  9 10  1  0
 10 14  1  0
 11 10  2  0
 12 13  2  0
 12  8  1  0
 16 15  1  1
 16 18  1  0
 16 17  1  0
 17 12  1  0
 18 20  1  0
 19 18  2  0
M  END
$$$$
