CDA.pdb
     RDKit          3D

 20 19  0  0  1  0  0  0  0  0999 V2000
    7.5054  -15.3226   17.4061 N   0  0  0  0  0  0  0  0  0  0  0  0
    8.4388  -14.7718   18.3730 C   0  0  1  0  0  0  0  0  0  0  0  0
    7.9922  -13.3820   18.7304 C   0  0  0  0  0  0  0  0  0  0  0  0
    8.3053  -12.2811   17.3254 S   0  0  0  0  0  0  0  0  0  0  0  0
    8.5232  -15.6010   19.5903 C   0  0  0  0  0  0  0  0  0  0  0  0
    7.4973  -16.1065   20.0988 O   0  0  0  0  0  0  0  0  0  0  0  0
    9.7957  -15.8156   20.1764 N   0  0  0  0  0  0  0  0  0  0  0  0
    9.9716  -16.6565   21.3412 C   0  0  1  0  0  0  0  0  0  0  0  0
   11.2515  -17.4254   21.3488 C   0  0  0  0  0  0  0  0  0  0  0  0
   11.4112  -18.2851   22.5270 C   0  0  0  0  0  0  0  0  0  0  0  0
   10.3933  -18.8657   23.0207 O   0  0  0  0  0  0  0  0  0  0  0  0
    9.9879  -15.7571   22.5501 C   0  0  0  0  0  0  0  0  0  0  0  0
   10.9419  -14.9694   22.7791 O   0  0  0  0  0  0  0  0  0  0  0  0
   12.6112  -18.5177   23.1564 O   0  0  0  0  0  0  0  0  0  0  0  0
    7.4950  -14.4264   24.8728 C   0  0  0  0  0  0  0  0  0  0  0  0
    8.8986  -14.9673   24.6908 C   0  0  2  0  0  0  0  0  0  0  0  0
    8.9146  -15.7676   23.4840 N   0  0  0  0  0  0  0  0  0  0  0  0
    9.2264  -15.7740   25.8911 C   0  0  0  0  0  0  0  0  0  0  0  0
    9.2786  -15.1730   26.9916 O   0  0  0  0  0  0  0  0  0  0  0  0
    9.4723  -17.1370   25.8464 O   0  0  0  0  0  0  0  0  0  0  0  0
  2  5  1  0
  2  1  1  6
  3  2  1  0
  4  3  1  0
  5  6  2  0
  7  8  1  0
  7  5  1  0
  8  9  1  6
  9 10  1  0
 10 14  1  0
 11 10  2  0
 12 13  2  0
 12  8  1  0
 16 15  1  1
 16 18  1  0
 16 17  1  0
 17 12  1  0
 18 20  1  0
 19 18  2  0
M  END
$$$$
