GFP.pdb
     RDKit          3D

 23 24  0  0  1  0  0  0  0  0999 V2000
   27.2740  -15.3297  -19.1310 N   0  0  0  0  0  0  0  0  0  0  0  0
   26.2247  -15.6902  -18.1956 C   0  0  0  0  0  0  0  0  0  0  0  0
   26.7424  -16.8229  -17.3689 C   0  0  0  0  0  0  0  0  0  0  0  0
   27.8452  -17.4062  -17.6481 O   0  0  0  0  0  0  0  0  0  0  0  0
   26.0589  -17.3193  -16.2391 N   0  0  0  0  0  0  0  0  0  0  0  0
   26.5397  -18.4049  -15.3974 C   0  0  1  0  0  0  0  0  0  0  0  0
   26.2862  -18.0783  -13.9504 C   0  0  0  0  0  0  0  0  0  0  0  0
   26.6028  -19.1593  -13.0147 C   0  0  0  0  0  0  0  0  0  0  0  0
   27.8855  -19.5579  -12.6833 C   0  0  0  0  0  0  0  0  0  0  0  0
   28.0778  -20.5787  -11.8034 C   0  0  0  0  0  0  0  0  0  0  0  0
   27.0265  -21.2718  -11.1939 C   0  0  0  0  0  0  0  0  0  0  0  0
   25.7534  -20.8645  -11.5328 C   0  0  0  0  0  0  0  0  0  0  0  0
   25.5563  -19.8341  -12.4210 C   0  0  0  0  0  0  0  0  0  0  0  0
   26.0122  -19.7043  -15.8443 C   0  0  0  0  0  0  0  0  0  0  0  0
   24.7846  -19.7969  -16.0866 O   0  0  0  0  0  0  0  0  0  0  0  0
   26.8075  -20.8839  -16.0276 N   0  0  0  0  0  0  0  0  0  0  0  0
   28.2523  -20.9614  -15.8031 C   0  0  0  0  0  0  0  0  0  0  0  0
   28.6779  -22.1705  -16.6362 C   0  0  0  0  0  0  0  0  0  0  0  0
   27.5056  -23.1002  -16.3163 C   0  0  0  0  0  0  0  0  0  0  0  0
   26.3406  -22.1754  -16.4728 C   0  0  1  0  0  0  0  0  0  0  0  0
   25.2206  -22.6671  -15.6064 C   0  0  0  0  0  0  0  0  0  0  0  0
   25.1247  -22.3217  -14.2779 O   0  0  0  0  0  0  0  0  0  0  0  0
   24.3486  -23.4119  -16.1038 O   0  0  0  0  0  0  0  0  0  0  0  0
  1  2  1  0
  2  3  1  0
  3  4  2  0
  5  6  1  0
  5  3  1  0
  6 14  1  0
  6  7  1  1
  8  9  2  0
  8  7  1  0
 10  9  1  0
 11 10  2  0
 12 11  1  0
 12 13  2  0
 13  8  1  0
 14 15  2  0
 14 16  1  0
 16 20  1  0
 16 17  1  0
 17 18  1  0
 19 18  1  0
 20 19  1  0
 21 22  1  0
 20 21  1  1
 23 21  2  0
M  END
$$$$
