GFP.pdb
     RDKit          3D

 23 24  0  0  1  0  0  0  0  0999 V2000
   24.1704  -19.0184  -13.3091 N   0  0  0  0  0  0  0  0  0  0  0  0
   23.9674  -19.8249  -12.1199 C   0  0  0  0  0  0  0  0  0  0  0  0
   25.1686  -19.6367  -11.2504 C   0  0  0  0  0  0  0  0  0  0  0  0
   26.2496  -19.1263  -11.7033 O   0  0  0  0  0  0  0  0  0  0  0  0
   25.1915  -20.0044   -9.8886 N   0  0  0  0  0  0  0  0  0  0  0  0
   26.3890  -20.0257   -9.0617 C   0  0  1  0  0  0  0  0  0  0  0  0
   26.0111  -19.8688   -7.6136 C   0  0  0  0  0  0  0  0  0  0  0  0
   27.1450  -19.7434   -6.6955 C   0  0  0  0  0  0  0  0  0  0  0  0
   27.6556  -20.7802   -5.9350 C   0  0  0  0  0  0  0  0  0  0  0  0
   28.7132  -20.5628   -5.1057 C   0  0  0  0  0  0  0  0  0  0  0  0
   29.3357  -19.3173   -4.9701 C   0  0  0  0  0  0  0  0  0  0  0  0
   28.8170  -18.2928   -5.7336 C   0  0  0  0  0  0  0  0  0  0  0  0
   27.7493  -18.5095   -6.5717 C   0  0  0  0  0  0  0  0  0  0  0  0
   27.2283  -21.1966   -9.3632 C   0  0  0  0  0  0  0  0  0  0  0  0
   26.7019  -22.3346   -9.3151 O   0  0  0  0  0  0  0  0  0  0  0  0
   28.6177  -21.1312   -9.7140 N   0  0  0  0  0  0  0  0  0  0  0  0
   29.4035  -19.8981   -9.7906 C   0  0  0  0  0  0  0  0  0  0  0  0
   30.5713  -20.2759  -10.7020 C   0  0  0  0  0  0  0  0  0  0  0  0
   30.8514  -21.6773  -10.1556 C   0  0  0  0  0  0  0  0  0  0  0  0
   29.4698  -22.2428  -10.0636 C   0  0  1  0  0  0  0  0  0  0  0  0
   29.4522  -23.2886   -8.9899 C   0  0  0  0  0  0  0  0  0  0  0  0
   29.9596  -24.5509   -9.1972 O   0  0  0  0  0  0  0  0  0  0  0  0
   28.9632  -23.0073   -7.8745 O   0  0  0  0  0  0  0  0  0  0  0  0
  1  2  1  0
  2  3  1  0
  3  4  2  0
  5  6  1  0
  5  3  1  0
  6 14  1  0
  6  7  1  1
  8  9  2  0
  8  7  1  0
 10  9  1  0
 11 10  2  0
 12 11  1  0
 12 13  2  0
 13  8  1  0
 14 15  2  0
 14 16  1  0
 16 20  1  0
 16 17  1  0
 17 18  1  0
 19 18  1  0
 20 19  1  0
 21 22  1  0
 20 21  1  1
 23 21  2  0
M  END
$$$$
