GFP.pdb
     RDKit          3D

 23 24  0  0  1  0  0  0  0  0999 V2000
   28.4933  -18.8040  -18.9564 N   0  0  0  0  0  0  0  0  0  0  0  0
   27.5888  -18.1127  -18.0566 C   0  0  0  0  0  0  0  0  0  0  0  0
   27.3405  -19.0231  -16.8972 C   0  0  0  0  0  0  0  0  0  0  0  0
   27.5956  -20.2741  -16.9618 O   0  0  0  0  0  0  0  0  0  0  0  0
   26.8147  -18.5704  -15.6690 N   0  0  0  0  0  0  0  0  0  0  0  0
   26.4894  -19.4348  -14.5442 C   0  0  1  0  0  0  0  0  0  0  0  0
   26.9872  -18.8165  -13.2657 C   0  0  0  0  0  0  0  0  0  0  0  0
   26.6848  -19.5848  -12.0563 C   0  0  0  0  0  0  0  0  0  0  0  0
   25.6008  -19.3496  -11.2295 C   0  0  0  0  0  0  0  0  0  0  0  0
   25.4062  -20.1181  -10.1227 C   0  0  0  0  0  0  0  0  0  0  0  0
   26.2608  -21.1639   -9.7575 C   0  0  0  0  0  0  0  0  0  0  0  0
   27.3371  -21.3875  -10.5900 C   0  0  0  0  0  0  0  0  0  0  0  0
   27.5360  -20.6131  -11.7082 C   0  0  0  0  0  0  0  0  0  0  0  0
   25.0642  -19.8024  -14.5447 C   0  0  0  0  0  0  0  0  0  0  0  0
   24.2129  -18.8851  -14.6342 O   0  0  0  0  0  0  0  0  0  0  0  0
   24.5723  -21.1467  -14.4521 N   0  0  0  0  0  0  0  0  0  0  0  0
   25.4138  -22.3445  -14.4176 C   0  0  0  0  0  0  0  0  0  0  0  0
   24.4692  -23.4566  -14.8737 C   0  0  0  0  0  0  0  0  0  0  0  0
   23.2130  -23.0233  -14.1153 C   0  0  0  0  0  0  0  0  0  0  0  0
   23.1885  -21.5541  -14.3942 C   0  0  1  0  0  0  0  0  0  0  0  0
   22.4750  -20.8662  -13.2698 C   0  0  0  0  0  0  0  0  0  0  0  0
   21.1018  -20.7941  -13.2172 O   0  0  0  0  0  0  0  0  0  0  0  0
   23.1451  -20.3430  -12.3535 O   0  0  0  0  0  0  0  0  0  0  0  0
  1  2  1  0
  2  3  1  0
  3  4  2  0
  5  6  1  0
  5  3  1  0
  6 14  1  0
  6  7  1  1
  8  9  2  0
  8  7  1  0
 10  9  1  0
 11 10  2  0
 12 11  1  0
 12 13  2  0
 13  8  1  0
 14 15  2  0
 14 16  1  0
 16 20  1  0
 16 17  1  0
 17 18  1  0
 19 18  1  0
 20 19  1  0
 21 22  1  0
 20 21  1  1
 23 21  2  0
M  END
$$$$
