GFP.pdb
     RDKit          3D

 23 24  0  0  1  0  0  0  0  0999 V2000
   28.1758  -25.8191  -16.8475 N   0  0  0  0  0  0  0  0  0  0  0  0
   26.9565  -25.0620  -17.0612 C   0  0  0  0  0  0  0  0  0  0  0  0
   27.0884  -23.7886  -16.2894 C   0  0  0  0  0  0  0  0  0  0  0  0
   28.1390  -23.5224  -15.6115 O   0  0  0  0  0  0  0  0  0  0  0  0
   26.0762  -22.8065  -16.2565 N   0  0  0  0  0  0  0  0  0  0  0  0
   26.1671  -21.5551  -15.5189 C   0  0  1  0  0  0  0  0  0  0  0  0
   26.0163  -20.3942  -16.4646 C   0  0  0  0  0  0  0  0  0  0  0  0
   26.1449  -19.0759  -15.8402 C   0  0  0  0  0  0  0  0  0  0  0  0
   27.3417  -18.4028  -15.6709 C   0  0  0  0  0  0  0  0  0  0  0  0
   27.3590  -17.1794  -15.0739 C   0  0  0  0  0  0  0  0  0  0  0  0
   26.2060  -16.5400  -14.6060 C   0  0  0  0  0  0  0  0  0  0  0  0
   25.0201  -17.2216  -14.7810 C   0  0  0  0  0  0  0  0  0  0  0  0
   24.9998  -18.4570  -15.3835 C   0  0  0  0  0  0  0  0  0  0  0  0
   25.2507  -21.5435  -14.3672 C   0  0  0  0  0  0  0  0  0  0  0  0
   24.0627  -21.9042  -14.5481 O   0  0  0  0  0  0  0  0  0  0  0  0
   25.6210  -21.1483  -13.0389 N   0  0  0  0  0  0  0  0  0  0  0  0
   26.9616  -20.7173  -12.6379 C   0  0  0  0  0  0  0  0  0  0  0  0
   26.9751  -20.9543  -11.1276 C   0  0  0  0  0  0  0  0  0  0  0  0
   25.5634  -20.4633  -10.8005 C   0  0  0  0  0  0  0  0  0  0  0  0
   24.7620  -21.1206  -11.8789 C   0  0  1  0  0  0  0  0  0  0  0  0
   23.5398  -20.2926  -12.1380 C   0  0  0  0  0  0  0  0  0  0  0  0
   23.4322  -19.4834  -13.2457 O   0  0  0  0  0  0  0  0  0  0  0  0
   22.5909  -20.3376  -11.3255 O   0  0  0  0  0  0  0  0  0  0  0  0
  1  2  1  0
  2  3  1  0
  3  4  2  0
  5  6  1  0
  5  3  1  0
  6 14  1  0
  6  7  1  6
  8  9  2  0
  8  7  1  0
 10  9  1  0
 11 10  2  0
 12 11  1  0
 12 13  2  0
 13  8  1  0
 14 15  2  0
 14 16  1  0
 16 20  1  0
 16 17  1  0
 17 18  1  0
 19 18  1  0
 20 19  1  0
 21 22  1  0
 20 21  1  6
 23 21  2  0
M  END
$$$$
