GFP.pdb
     RDKit          3D

 23 24  0  0  1  0  0  0  0  0999 V2000
   20.5377  -19.0745  -13.1846 N   0  0  0  0  0  0  0  0  0  0  0  0
   21.2429  -20.3409  -13.1151 C   0  0  0  0  0  0  0  0  0  0  0  0
   22.7035  -20.0285  -13.0552 C   0  0  0  0  0  0  0  0  0  0  0  0
   23.1608  -18.8929  -13.4233 O   0  0  0  0  0  0  0  0  0  0  0  0
   23.6644  -20.9528  -12.5945 N   0  0  0  0  0  0  0  0  0  0  0  0
   25.1021  -20.7280  -12.6219 C   0  0  1  0  0  0  0  0  0  0  0  0
   25.7692  -21.5672  -11.5658 C   0  0  0  0  0  0  0  0  0  0  0  0
   25.8208  -20.9521  -10.2379 C   0  0  0  0  0  0  0  0  0  0  0  0
   25.6118  -21.6317   -9.0511 C   0  0  0  0  0  0  0  0  0  0  0  0
   25.6775  -20.9691   -7.8636 C   0  0  0  0  0  0  0  0  0  0  0  0
   25.9519  -19.6008   -7.7651 C   0  0  0  0  0  0  0  0  0  0  0  0
   26.1582  -18.9356   -8.9553 C   0  0  0  0  0  0  0  0  0  0  0  0
   26.0924  -19.6021  -10.1557 C   0  0  0  0  0  0  0  0  0  0  0  0
   25.6446  -20.8896  -13.9806 C   0  0  0  0  0  0  0  0  0  0  0  0
   25.2124  -21.8331  -14.6858 O   0  0  0  0  0  0  0  0  0  0  0  0
   26.6396  -20.0371  -14.5644 N   0  0  0  0  0  0  0  0  0  0  0  0
   27.1593  -18.8148  -13.9481 C   0  0  0  0  0  0  0  0  0  0  0  0
   27.7149  -18.0263  -15.1342 C   0  0  0  0  0  0  0  0  0  0  0  0
   28.3603  -19.1815  -15.9022 C   0  0  0  0  0  0  0  0  0  0  0  0
   27.2823  -20.2167  -15.8445 C   0  0  1  0  0  0  0  0  0  0  0  0
   27.9158  -21.5718  -15.9396 C   0  0  0  0  0  0  0  0  0  0  0  0
   28.2637  -22.1277  -17.1493 O   0  0  0  0  0  0  0  0  0  0  0  0
   28.1348  -22.2160  -14.8910 O   0  0  0  0  0  0  0  0  0  0  0  0
  1  2  1  0
  2  3  1  0
  3  4  2  0
  5  6  1  0
  5  3  1  0
  6 14  1  0
  6  7  1  1
  8  9  2  0
  8  7  1  0
 10  9  1  0
 11 10  2  0
 12 11  1  0
 12 13  2  0
 13  8  1  0
 14 15  2  0
 14 16  1  0
 16 20  1  0
 16 17  1  0
 17 18  1  0
 19 18  1  0
 20 19  1  0
 21 22  1  0
 20 21  1  1
 23 21  2  0
M  END
$$$$
