GFP.pdb
     RDKit          3D

 23 24  0  0  1  0  0  0  0  0999 V2000
   25.9911  -19.4495  -13.4527 N   0  0  0  0  0  0  0  0  0  0  0  0
   25.0597  -19.5795  -12.3476 C   0  0  0  0  0  0  0  0  0  0  0  0
   25.8534  -19.9894  -11.1490 C   0  0  0  0  0  0  0  0  0  0  0  0
   26.7702  -20.8770  -11.2248 O   0  0  0  0  0  0  0  0  0  0  0  0
   25.6480  -19.4323   -9.8694 N   0  0  0  0  0  0  0  0  0  0  0  0
   26.3851  -19.8186   -8.6754 C   0  0  1  0  0  0  0  0  0  0  0  0
   26.7801  -18.5903   -7.9008 C   0  0  0  0  0  0  0  0  0  0  0  0
   27.5336  -18.8569   -6.6738 C   0  0  0  0  0  0  0  0  0  0  0  0
   26.9593  -19.0887   -5.4366 C   0  0  0  0  0  0  0  0  0  0  0  0
   27.7465  -19.3241   -4.3512 C   0  0  0  0  0  0  0  0  0  0  0  0
   29.1441  -19.3472   -4.4102 C   0  0  0  0  0  0  0  0  0  0  0  0
   29.7035  -19.1148   -5.6490 C   0  0  0  0  0  0  0  0  0  0  0  0
   28.9110  -18.8768   -6.7467 C   0  0  0  0  0  0  0  0  0  0  0  0
   25.6564  -20.8360   -7.9007 C   0  0  0  0  0  0  0  0  0  0  0  0
   24.4098  -20.7307   -7.8041 O   0  0  0  0  0  0  0  0  0  0  0  0
   26.2730  -21.9520   -7.2435 N   0  0  0  0  0  0  0  0  0  0  0  0
   27.7069  -22.2476   -7.2658 C   0  0  0  0  0  0  0  0  0  0  0  0
   27.7681  -23.7399   -6.9398 C   0  0  0  0  0  0  0  0  0  0  0  0
   26.6946  -23.7864   -5.8506 C   0  0  0  0  0  0  0  0  0  0  0  0
   25.6043  -22.9727   -6.4720 C   0  0  1  0  0  0  0  0  0  0  0  0
   24.7807  -22.3629   -5.3782 C   0  0  0  0  0  0  0  0  0  0  0  0
   23.8253  -23.0846   -4.7000 O   0  0  0  0  0  0  0  0  0  0  0  0
   24.9660  -21.1651   -5.0726 O   0  0  0  0  0  0  0  0  0  0  0  0
  1  2  1  0
  2  3  1  0
  3  4  2  0
  5  6  1  0
  5  3  1  0
  6 14  1  0
  6  7  1  1
  8  9  2  0
  8  7  1  0
 10  9  1  0
 11 10  2  0
 12 11  1  0
 12 13  2  0
 13  8  1  0
 14 15  2  0
 14 16  1  0
 16 20  1  0
 16 17  1  0
 17 18  1  0
 19 18  1  0
 20 19  1  0
 21 22  1  0
 20 21  1  1
 23 21  2  0
M  END
$$$$
