GFP.pdb
     RDKit          3D

 23 24  0  0  1  0  0  0  0  0999 V2000
   29.2551  -20.5346  -18.7952 N   0  0  0  0  0  0  0  0  0  0  0  0
   28.2439  -19.6697  -18.2162 C   0  0  0  0  0  0  0  0  0  0  0  0
   27.7994  -20.3064  -16.9388 C   0  0  0  0  0  0  0  0  0  0  0  0
   27.9056  -21.5657  -16.7461 O   0  0  0  0  0  0  0  0  0  0  0  0
   27.2397  -19.5713  -15.8728 N   0  0  0  0  0  0  0  0  0  0  0  0
   26.7142  -20.1630  -14.6514 C   0  0  1  0  0  0  0  0  0  0  0  0
   27.2274  -19.4055  -13.4565 C   0  0  0  0  0  0  0  0  0  0  0  0
   26.7333  -19.8907  -12.1663 C   0  0  0  0  0  0  0  0  0  0  0  0
   27.3067  -20.9235  -11.4460 C   0  0  0  0  0  0  0  0  0  0  0  0
   26.7705  -21.3055  -10.2544 C   0  0  0  0  0  0  0  0  0  0  0  0
   25.6402  -20.7000   -9.6948 C   0  0  0  0  0  0  0  0  0  0  0  0
   25.0787  -19.6722  -10.4228 C   0  0  0  0  0  0  0  0  0  0  0  0
   25.6181  -19.2845  -11.6262 C   0  0  0  0  0  0  0  0  0  0  0  0
   25.2511  -20.3114  -14.7135 C   0  0  0  0  0  0  0  0  0  0  0  0
   24.5588  -19.2913  -14.9467 O   0  0  0  0  0  0  0  0  0  0  0  0
   24.5519  -21.5500  -14.5276 N   0  0  0  0  0  0  0  0  0  0  0  0
   25.1939  -22.8518  -14.3354 C   0  0  0  0  0  0  0  0  0  0  0  0
   24.1081  -23.8480  -14.7425 C   0  0  0  0  0  0  0  0  0  0  0  0
   22.9032  -23.1569  -14.1009 C   0  0  0  0  0  0  0  0  0  0  0  0
   23.1204  -21.7358  -14.5134 C   0  0  1  0  0  0  0  0  0  0  0  0
   22.4748  -20.8401  -13.4996 C   0  0  0  0  0  0  0  0  0  0  0  0
   21.2314  -20.2876  -13.7057 O   0  0  0  0  0  0  0  0  0  0  0  0
   23.0820  -20.5873  -12.4367 O   0  0  0  0  0  0  0  0  0  0  0  0
  1  2  1  0
  2  3  1  0
  3  4  2  0
  5  6  1  0
  5  3  1  0
  6 14  1  0
  6  7  1  1
  8  9  2  0
  8  7  1  0
 10  9  1  0
 11 10  2  0
 12 11  1  0
 12 13  2  0
 13  8  1  0
 14 15  2  0
 14 16  1  0
 16 20  1  0
 16 17  1  0
 17 18  1  0
 19 18  1  0
 20 19  1  0
 21 22  1  0
 20 21  1  1
 23 21  2  0
M  END
$$$$
