GFP.pdb
     RDKit          3D

 23 24  0  0  1  0  0  0  0  0999 V2000
   29.5190  -22.1253  -18.2978 N   0  0  0  0  0  0  0  0  0  0  0  0
   28.7537  -20.9784  -17.8451 C   0  0  0  0  0  0  0  0  0  0  0  0
   28.1224  -21.3566  -16.5440 C   0  0  0  0  0  0  0  0  0  0  0  0
   28.0686  -22.5730  -16.1546 O   0  0  0  0  0  0  0  0  0  0  0  0
   27.5503  -20.4100  -15.6685 N   0  0  0  0  0  0  0  0  0  0  0  0
   26.8618  -20.7444  -14.4305 C   0  0  1  0  0  0  0  0  0  0  0  0
   27.4124  -19.9156  -13.3015 C   0  0  0  0  0  0  0  0  0  0  0  0
   26.7869  -20.1616  -12.0005 C   0  0  0  0  0  0  0  0  0  0  0  0
   25.6541  -19.5136  -11.5410 C   0  0  0  0  0  0  0  0  0  0  0  0
   25.1488  -19.8097  -10.3120 C   0  0  0  0  0  0  0  0  0  0  0  0
   25.7212  -20.7582   -9.4576 C   0  0  0  0  0  0  0  0  0  0  0  0
   26.8494  -21.3966   -9.9278 C   0  0  0  0  0  0  0  0  0  0  0  0
   27.3618  -21.0995  -11.1682 C   0  0  0  0  0  0  0  0  0  0  0  0
   25.4006  -20.6804  -14.5951 C   0  0  0  0  0  0  0  0  0  0  0  0
   24.8866  -19.5857  -14.9292 O   0  0  0  0  0  0  0  0  0  0  0  0
   24.5124  -21.7901  -14.4021 N   0  0  0  0  0  0  0  0  0  0  0  0
   24.9357  -23.1523  -14.0717 C   0  0  0  0  0  0  0  0  0  0  0  0
   23.7529  -24.0113  -14.5192 C   0  0  0  0  0  0  0  0  0  0  0  0
   22.6135  -23.1108  -14.0378 C   0  0  0  0  0  0  0  0  0  0  0  0
   23.0731  -21.7691  -14.5127 C   0  0  1  0  0  0  0  0  0  0  0  0
   22.4833  -20.7188  -13.6208 C   0  0  0  0  0  0  0  0  0  0  0  0
   21.1938  -20.2673  -13.7847 O   0  0  0  0  0  0  0  0  0  0  0  0
   23.1816  -20.2389  -12.7018 O   0  0  0  0  0  0  0  0  0  0  0  0
  1  2  1  0
  2  3  1  0
  3  4  2  0
  5  6  1  0
  5  3  1  0
  6 14  1  0
  6  7  1  1
  8  9  2  0
  8  7  1  0
 10  9  1  0
 11 10  2  0
 12 11  1  0
 12 13  2  0
 13  8  1  0
 14 15  2  0
 14 16  1  0
 16 20  1  0
 16 17  1  0
 17 18  1  0
 19 18  1  0
 20 19  1  0
 21 22  1  0
 20 21  1  1
 23 21  2  0
M  END
$$$$
