GFP.pdb
     RDKit          3D

 23 24  0  0  1  0  0  0  0  0999 V2000
   20.4213  -20.1109  -11.5397 N   0  0  0  0  0  0  0  0  0  0  0  0
   21.1044  -20.7873  -12.6268 C   0  0  0  0  0  0  0  0  0  0  0  0
   22.5352  -20.3568  -12.5828 C   0  0  0  0  0  0  0  0  0  0  0  0
   22.8640  -19.1534  -12.3039 O   0  0  0  0  0  0  0  0  0  0  0  0
   23.6065  -21.2372  -12.8425 N   0  0  0  0  0  0  0  0  0  0  0  0
   25.0124  -20.8704  -12.7583 C   0  0  1  0  0  0  0  0  0  0  0  0
   25.6988  -21.7177  -11.7211 C   0  0  0  0  0  0  0  0  0  0  0  0
   25.9041  -21.0576  -10.4302 C   0  0  0  0  0  0  0  0  0  0  0  0
   27.1420  -20.7312   -9.9055 C   0  0  0  0  0  0  0  0  0  0  0  0
   27.2301  -20.1202   -8.6921 C   0  0  0  0  0  0  0  0  0  0  0  0
   26.1121  -19.7913   -7.9180 C   0  0  0  0  0  0  0  0  0  0  0  0
   24.8848  -20.1221   -8.4526 C   0  0  0  0  0  0  0  0  0  0  0  0
   24.7928  -20.7390   -9.6775 C   0  0  0  0  0  0  0  0  0  0  0  0
   25.6482  -20.8738  -14.0857 C   0  0  0  0  0  0  0  0  0  0  0  0
   25.3106  -21.7620  -14.9051 O   0  0  0  0  0  0  0  0  0  0  0  0
   26.6338  -19.9246  -14.5165 N   0  0  0  0  0  0  0  0  0  0  0  0
   27.0799  -18.7696  -13.7350 C   0  0  0  0  0  0  0  0  0  0  0  0
   27.6547  -17.8256  -14.7911 C   0  0  0  0  0  0  0  0  0  0  0  0
   28.3757  -18.8575  -15.6608 C   0  0  0  0  0  0  0  0  0  0  0  0
   27.3365  -19.9268  -15.7775 C   0  0  1  0  0  0  0  0  0  0  0  0
   28.0247  -21.2390  -16.0041 C   0  0  0  0  0  0  0  0  0  0  0  0
   28.3465  -22.0796  -14.9632 O   0  0  0  0  0  0  0  0  0  0  0  0
   28.3149  -21.5803  -17.1710 O   0  0  0  0  0  0  0  0  0  0  0  0
  1  2  1  0
  2  3  1  0
  3  4  2  0
  5  6  1  0
  5  3  1  0
  6 14  1  0
  6  7  1  1
  8  9  2  0
  8  7  1  0
 10  9  1  0
 11 10  2  0
 12 11  1  0
 12 13  2  0
 13  8  1  0
 14 15  2  0
 14 16  1  0
 16 20  1  0
 16 17  1  0
 17 18  1  0
 19 18  1  0
 20 19  1  0
 21 22  1  0
 20 21  1  1
 23 21  2  0
M  END
$$$$
