GFP.pdb
     RDKit          3D

 23 24  0  0  1  0  0  0  0  0999 V2000
   22.3109  -19.6932  -12.7559 N   0  0  0  0  0  0  0  0  0  0  0  0
   22.8403  -20.7959  -11.9752 C   0  0  0  0  0  0  0  0  0  0  0  0
   24.0547  -20.2896  -11.2656 C   0  0  0  0  0  0  0  0  0  0  0  0
   24.7742  -19.3531  -11.7549 O   0  0  0  0  0  0  0  0  0  0  0  0
   24.4841  -20.8033  -10.0239 N   0  0  0  0  0  0  0  0  0  0  0  0
   25.7575  -20.4826   -9.3964 C   0  0  1  0  0  0  0  0  0  0  0  0
   25.6053  -20.4958   -7.8992 C   0  0  0  0  0  0  0  0  0  0  0  0
   26.8064  -20.1042   -7.1588 C   0  0  0  0  0  0  0  0  0  0  0  0
   27.6931  -20.9932   -6.5777 C   0  0  0  0  0  0  0  0  0  0  0  0
   28.7824  -20.5303   -5.9050 C   0  0  0  0  0  0  0  0  0  0  0  0
   29.0706  -19.1690   -5.7598 C   0  0  0  0  0  0  0  0  0  0  0  0
   28.1790  -18.2939   -6.3437 C   0  0  0  0  0  0  0  0  0  0  0  0
   27.0783  -18.7585   -7.0235 C   0  0  0  0  0  0  0  0  0  0  0  0
   26.8419  -21.3290   -9.9198 C   0  0  0  0  0  0  0  0  0  0  0  0
   26.7612  -22.5701   -9.7536 O   0  0  0  0  0  0  0  0  0  0  0  0
   27.9946  -20.8341  -10.6155 N   0  0  0  0  0  0  0  0  0  0  0  0
   28.2492  -19.4235  -10.9140 C   0  0  0  0  0  0  0  0  0  0  0  0
   29.2288  -19.4788  -12.0864 C   0  0  0  0  0  0  0  0  0  0  0  0
   30.1081  -20.6338  -11.6031 C   0  0  0  0  0  0  0  0  0  0  0  0
   29.0803  -21.6213  -11.1500 C   0  0  1  0  0  0  0  0  0  0  0  0
   29.6861  -22.4881  -10.0877 C   0  0  0  0  0  0  0  0  0  0  0  0
   29.4536  -22.2667   -8.7496 O   0  0  0  0  0  0  0  0  0  0  0  0
   30.4235  -23.4391  -10.4257 O   0  0  0  0  0  0  0  0  0  0  0  0
  1  2  1  0
  2  3  1  0
  3  4  2  0
  5  6  1  0
  5  3  1  0
  6 14  1  0
  6  7  1  1
  8  9  2  0
  8  7  1  0
 10  9  1  0
 11 10  2  0
 12 11  1  0
 12 13  2  0
 13  8  1  0
 14 15  2  0
 14 16  1  0
 16 20  1  0
 16 17  1  0
 17 18  1  0
 19 18  1  0
 20 19  1  0
 21 22  1  0
 20 21  1  1
 23 21  2  0
M  END
$$$$
