GFP.pdb
     RDKit          3D

 23 24  0  0  1  0  0  0  0  0999 V2000
   25.8192  -20.6015  -12.0158 N   0  0  0  0  0  0  0  0  0  0  0  0
   25.4015  -20.9367  -10.6672 C   0  0  0  0  0  0  0  0  0  0  0  0
   26.5176  -20.5486   -9.7516 C   0  0  0  0  0  0  0  0  0  0  0  0
   27.7291  -20.4991  -10.1565 O   0  0  0  0  0  0  0  0  0  0  0  0
   26.3133  -20.2150   -8.3963 N   0  0  0  0  0  0  0  0  0  0  0  0
   27.3798  -19.9121   -7.4533 C   0  0  1  0  0  0  0  0  0  0  0  0
   26.8463  -19.0519   -6.3397 C   0  0  0  0  0  0  0  0  0  0  0  0
   27.8136  -18.7504   -5.2824 C   0  0  0  0  0  0  0  0  0  0  0  0
   27.9079  -19.4405   -4.0870 C   0  0  0  0  0  0  0  0  0  0  0  0
   28.8405  -19.0814   -3.1626 C   0  0  0  0  0  0  0  0  0  0  0  0
   29.7380  -18.0250   -3.3516 C   0  0  0  0  0  0  0  0  0  0  0  0
   29.6333  -17.3457   -4.5471 C   0  0  0  0  0  0  0  0  0  0  0  0
   28.6925  -17.7061   -5.4823 C   0  0  0  0  0  0  0  0  0  0  0  0
   28.0744  -21.1346   -7.0181 C   0  0  0  0  0  0  0  0  0  0  0  0
   27.3835  -22.0949   -6.6001 O   0  0  0  0  0  0  0  0  0  0  0  0
   29.4978  -21.3112   -7.0395 N   0  0  0  0  0  0  0  0  0  0  0  0
   30.4406  -20.4212   -7.7198 C   0  0  0  0  0  0  0  0  0  0  0  0
   31.6757  -21.2988   -7.9229 C   0  0  0  0  0  0  0  0  0  0  0  0
   31.6819  -22.0121   -6.5694 C   0  0  0  0  0  0  0  0  0  0  0  0
   30.2407  -22.3840   -6.4220 C   0  0  1  0  0  0  0  0  0  0  0  0
   29.9203  -22.4849   -4.9613 C   0  0  0  0  0  0  0  0  0  0  0  0
   30.3359  -23.5522   -4.1986 O   0  0  0  0  0  0  0  0  0  0  0  0
   29.2569  -21.5745   -4.4195 O   0  0  0  0  0  0  0  0  0  0  0  0
  1  2  1  0
  2  3  1  0
  3  4  2  0
  5  6  1  0
  5  3  1  0
  6 14  1  0
  6  7  1  1
  8  9  2  0
  8  7  1  0
 10  9  1  0
 11 10  2  0
 12 11  1  0
 12 13  2  0
 13  8  1  0
 14 15  2  0
 14 16  1  0
 16 20  1  0
 16 17  1  0
 17 18  1  0
 19 18  1  0
 20 19  1  0
 21 22  1  0
 20 21  1  1
 23 21  2  0
M  END
$$$$
