DAA.pdb
     RDKit          3D

 19 18  0  0  1  0  0  0  0  0999 V2000
    9.0493  -17.9298   20.1524 N   0  0  0  0  0  0  0  0  0  0  0  0
    9.6141  -17.3644   21.3449 C   0  0  1  0  0  0  0  0  0  0  0  0
   10.7093  -16.4189   20.9463 C   0  0  0  0  0  0  0  0  0  0  0  0
   11.8896  -17.0910   20.3962 C   0  0  0  0  0  0  0  0  0  0  0  0
   12.3972  -18.0600   20.9974 O   0  0  0  0  0  0  0  0  0  0  0  0
    8.5945  -16.7357   22.2020 C   0  0  0  0  0  0  0  0  0  0  0  0
    7.9082  -15.7797   21.7873 O   0  0  0  0  0  0  0  0  0  0  0  0
   12.4424  -16.6525   19.2105 O   0  0  0  0  0  0  0  0  0  0  0  0
    7.0822  -17.6814   25.4863 C   0  0  0  0  0  0  0  0  0  0  0  0
    7.3052  -16.6710   24.3571 C   0  0  2  0  0  0  0  0  0  0  0  0
    8.3675  -17.2039   23.5249 N   0  0  0  0  0  0  0  0  0  0  0  0
    7.7625  -15.4230   25.0031 C   0  0  0  0  0  0  0  0  0  0  0  0
    9.0041  -15.2645   25.1893 O   0  0  0  0  0  0  0  0  0  0  0  0
    6.2863  -12.2227   26.1910 C   0  0  0  0  0  0  0  0  0  0  0  0
    7.3808  -13.2649   26.1199 C   0  0  2  0  0  0  0  0  0  0  0  0
    6.8546  -14.4029   25.4183 N   0  0  0  0  0  0  0  0  0  0  0  0
    7.8579  -13.6468   27.4737 C   0  0  0  0  0  0  0  0  0  0  0  0
    8.4226  -12.7700   28.1757 O   0  0  0  0  0  0  0  0  0  0  0  0
    7.7214  -14.9000   28.0090 O   0  0  0  0  0  0  0  0  0  0  0  0
  2  1  1  6
  3  2  1  0
  3  4  1  0
  4  8  1  0
  4  5  2  0
  6  7  2  0
  6  2  1  0
 10  9  1  1
 10 12  1  0
 10 11  1  0
 11  6  1  0
 12 16  1  0
 13 12  2  0
 15 14  1  1
 15 17  1  0
 16 15  1  0
 17 18  2  0
 17 19  1  0
M  END
$$$$
