DAA.pdb
     RDKit          3D

 19 18  0  0  1  0  0  0  0  0999 V2000
    7.3851  -17.4002   16.8045 N   0  0  0  0  0  0  0  0  0  0  0  0
    8.7649  -17.4508   17.1972 C   0  0  1  0  0  0  0  0  0  0  0  0
    9.6098  -17.1553   15.9925 C   0  0  0  0  0  0  0  0  0  0  0  0
    9.0626  -17.7008   14.7473 C   0  0  0  0  0  0  0  0  0  0  0  0
    8.1997  -17.0638   14.1089 O   0  0  0  0  0  0  0  0  0  0  0  0
    9.0546  -16.5620   18.3354 C   0  0  0  0  0  0  0  0  0  0  0  0
   10.2233  -16.3980   18.7405 O   0  0  0  0  0  0  0  0  0  0  0  0
    9.5016  -18.9218   14.2782 O   0  0  0  0  0  0  0  0  0  0  0  0
    6.9154  -14.3948   20.5384 C   0  0  0  0  0  0  0  0  0  0  0  0
    8.2536  -15.0405   20.1669 C   0  0  2  0  0  0  0  0  0  0  0  0
    8.0075  -15.8683   19.0010 N   0  0  0  0  0  0  0  0  0  0  0  0
    8.6311  -15.8971   21.3104 C   0  0  0  0  0  0  0  0  0  0  0  0
    8.1009  -17.0424   21.4021 O   0  0  0  0  0  0  0  0  0  0  0  0
   11.2288  -17.0395   22.9803 C   0  0  0  0  0  0  0  0  0  0  0  0
    9.9111  -16.3950   23.3509 C   0  0  2  0  0  0  0  0  0  0  0  0
    9.5657  -15.4747   22.3031 N   0  0  0  0  0  0  0  0  0  0  0  0
    9.9932  -15.7031   24.6627 C   0  0  0  0  0  0  0  0  0  0  0  0
    9.8891  -14.4504   24.6831 O   0  0  0  0  0  0  0  0  0  0  0  0
   10.1761  -16.3461   25.8580 O   0  0  0  0  0  0  0  0  0  0  0  0
  2  1  1  6
  3  2  1  0
  3  4  1  0
  4  8  1  0
  4  5  2  0
  6  7  2  0
  6  2  1  0
 10  9  1  1
 10 12  1  0
 10 11  1  0
 11  6  1  0
 12 16  1  0
 13 12  2  0
 15 14  1  6
 15 17  1  0
 16 15  1  0
 17 18  2  0
 17 19  1  0
M  END
$$$$
