DAA.pdb
     RDKit          3D

 19 18  0  0  1  0  0  0  0  0999 V2000
    7.2790  -16.1950   21.2533 N   0  0  0  0  0  0  0  0  0  0  0  0
    6.9562  -16.3884   22.6386 C   0  0  1  0  0  0  0  0  0  0  0  0
    7.2643  -17.8119   23.0009 C   0  0  0  0  0  0  0  0  0  0  0  0
    6.2704  -18.7686   22.5065 C   0  0  0  0  0  0  0  0  0  0  0  0
    6.5884  -19.6157   21.6467 O   0  0  0  0  0  0  0  0  0  0  0  0
    7.6325  -15.4132   23.5110 C   0  0  0  0  0  0  0  0  0  0  0  0
    8.8583  -15.2035   23.4100 O   0  0  0  0  0  0  0  0  0  0  0  0
    4.9793  -18.7339   22.9918 O   0  0  0  0  0  0  0  0  0  0  0  0
    6.4262  -13.0490   26.1702 C   0  0  0  0  0  0  0  0  0  0  0  0
    7.5429  -13.7223   25.3668 C   0  0  2  0  0  0  0  0  0  0  0  0
    6.9032  -14.6862   24.4910 N   0  0  0  0  0  0  0  0  0  0  0  0
    8.3887  -14.4322   26.3490 C   0  0  0  0  0  0  0  0  0  0  0  0
    8.1082  -15.6353   26.6228 O   0  0  0  0  0  0  0  0  0  0  0  0
   11.5784  -13.8013   28.1538 C   0  0  0  0  0  0  0  0  0  0  0  0
   10.3380  -14.6083   27.8387 C   0  0  2  0  0  0  0  0  0  0  0  0
    9.5001  -13.8070   26.9902 N   0  0  0  0  0  0  0  0  0  0  0  0
    9.6188  -15.0069   29.0756 C   0  0  0  0  0  0  0  0  0  0  0  0
    8.6111  -14.3389   29.4203 O   0  0  0  0  0  0  0  0  0  0  0  0
    9.9851  -16.0614   29.8690 O   0  0  0  0  0  0  0  0  0  0  0  0
  2  1  1  6
  3  2  1  0
  3  4  1  0
  4  8  1  0
  4  5  2  0
  6  7  2  0
  6  2  1  0
 10  9  1  1
 10 12  1  0
 10 11  1  0
 11  6  1  0
 12 16  1  0
 13 12  2  0
 15 14  1  1
 15 17  1  0
 16 15  1  0
 17 18  2  0
 17 19  1  0
M  END
$$$$
