DAA.pdb
     RDKit          3D

 19 18  0  0  1  0  0  0  0  0999 V2000
   10.2469  -18.0051   15.2760 N   0  0  0  0  0  0  0  0  0  0  0  0
   10.1321  -18.1129   16.7028 C   0  0  1  0  0  0  0  0  0  0  0  0
   11.5075  -18.0181   17.2957 C   0  0  0  0  0  0  0  0  0  0  0  0
   12.3761  -19.1433   16.9391 C   0  0  0  0  0  0  0  0  0  0  0  0
   13.4459  -18.9414   16.3287 O   0  0  0  0  0  0  0  0  0  0  0  0
    9.1943  -17.1254   17.2638 C   0  0  0  0  0  0  0  0  0  0  0  0
    9.1556  -15.9570   16.8277 O   0  0  0  0  0  0  0  0  0  0  0  0
   12.0114  -20.4300   17.2786 O   0  0  0  0  0  0  0  0  0  0  0  0
    6.3847  -17.3682   19.7362 C   0  0  0  0  0  0  0  0  0  0  0  0
    7.3172  -16.5554   18.8331 C   0  0  2  0  0  0  0  0  0  0  0  0
    8.3089  -17.4806   18.3178 N   0  0  0  0  0  0  0  0  0  0  0  0
    7.9754  -15.5611   19.7061 C   0  0  0  0  0  0  0  0  0  0  0  0
    9.0096  -15.9148   20.3437 O   0  0  0  0  0  0  0  0  0  0  0  0
    7.6440  -11.9594   20.5544 C   0  0  0  0  0  0  0  0  0  0  0  0
    8.0976  -13.3763   20.8293 C   0  0  2  0  0  0  0  0  0  0  0  0
    7.4838  -14.2288   19.8492 N   0  0  0  0  0  0  0  0  0  0  0  0
    7.7418  -13.8046   22.2064 C   0  0  0  0  0  0  0  0  0  0  0  0
    8.3786  -13.3057   23.1687 O   0  0  0  0  0  0  0  0  0  0  0  0
    6.7590  -14.7131   22.4963 O   0  0  0  0  0  0  0  0  0  0  0  0
  2  1  1  6
  3  2  1  0
  3  4  1  0
  4  8  1  0
  4  5  2  0
  6  7  2  0
  6  2  1  0
 10  9  1  1
 10 12  1  0
 10 11  1  0
 11  6  1  0
 12 16  1  0
 13 12  2  0
 15 14  1  6
 15 17  1  0
 16 15  1  0
 17 18  2  0
 17 19  1  0
M  END
$$$$
