DAA.pdb
     RDKit          3D

 19 18  0  0  1  0  0  0  0  0999 V2000
    9.7177  -17.0885   20.7018 N   0  0  0  0  0  0  0  0  0  0  0  0
   10.6634  -16.7428   21.7250 C   0  0  1  0  0  0  0  0  0  0  0  0
   11.6261  -15.7403   21.1589 C   0  0  0  0  0  0  0  0  0  0  0  0
   12.5760  -16.3174   20.2038 C   0  0  0  0  0  0  0  0  0  0  0  0
   12.7170  -15.8077   19.0732 O   0  0  0  0  0  0  0  0  0  0  0  0
   10.0065  -16.2771   22.9583 C   0  0  0  0  0  0  0  0  0  0  0  0
    9.8178  -15.0613   23.1653 O   0  0  0  0  0  0  0  0  0  0  0  0
   13.3172  -17.4272   20.5540 O   0  0  0  0  0  0  0  0  0  0  0  0
    8.2308  -18.0540   25.7357 C   0  0  0  0  0  0  0  0  0  0  0  0
    8.8239  -16.7853   25.1156 C   0  0  2  0  0  0  0  0  0  0  0  0
    9.5709  -17.2038   23.9444 N   0  0  0  0  0  0  0  0  0  0  0  0
    9.7526  -16.2286   26.1213 C   0  0  0  0  0  0  0  0  0  0  0  0
   10.9379  -16.6707   26.1522 O   0  0  0  0  0  0  0  0  0  0  0  0
    9.9925  -13.3461   28.3759 C   0  0  0  0  0  0  0  0  0  0  0  0
   10.3060  -14.7866   28.0356 C   0  0  2  0  0  0  0  0  0  0  0  0
    9.3558  -15.2183   27.0482 N   0  0  0  0  0  0  0  0  0  0  0  0
   10.2549  -15.6543   29.2401 C   0  0  0  0  0  0  0  0  0  0  0  0
   11.0733  -15.4334   30.1686 O   0  0  0  0  0  0  0  0  0  0  0  0
    9.3685  -16.6851   29.4048 O   0  0  0  0  0  0  0  0  0  0  0  0
  2  1  1  6
  3  2  1  0
  3  4  1  0
  4  8  1  0
  4  5  2  0
  6  7  2  0
  6  2  1  0
 10  9  1  1
 10 12  1  0
 10 11  1  0
 11  6  1  0
 12 16  1  0
 13 12  2  0
 15 14  1  1
 15 17  1  0
 16 15  1  0
 17 18  2  0
 17 19  1  0
M  END
$$$$
