FVD.pdb
     RDKit          3D

 27 27  0  0  1  0  0  0  0  0999 V2000
   24.3391  -13.1058  -18.0765 N   0  0  0  0  0  0  0  0  0  0  0  0
   24.3447  -12.0898  -17.0385 C   0  0  1  0  0  0  0  0  0  0  0  0
   25.6731  -11.3663  -17.0835 C   0  0  0  0  0  0  0  0  0  0  0  0
   26.7517  -12.3246  -16.7449 C   0  0  0  0  0  0  0  0  0  0  0  0
   26.9605  -12.6629  -15.4298 C   0  0  0  0  0  0  0  0  0  0  0  0
   27.9719  -13.5572  -15.1391 C   0  0  0  0  0  0  0  0  0  0  0  0
   28.7600  -14.1034  -16.1439 C   0  0  0  0  0  0  0  0  0  0  0  0
   28.5381  -13.7543  -17.4562 C   0  0  0  0  0  0  0  0  0  0  0  0
   27.5157  -12.8514  -17.7404 C   0  0  0  0  0  0  0  0  0  0  0  0
   23.2744  -11.0985  -17.2227 C   0  0  0  0  0  0  0  0  0  0  0  0
   22.9738  -10.7550  -18.3828 O   0  0  0  0  0  0  0  0  0  0  0  0
   20.0175  -10.8210  -14.5282 C   0  0  0  0  0  0  0  0  0  0  0  0
   20.1181  -10.3240  -15.9567 C   0  0  2  0  0  0  0  0  0  0  0  0
   19.7663  -11.4209  -16.9473 C   0  0  0  0  0  0  0  0  0  0  0  0
   21.4269   -9.6752  -16.2500 C   0  0  2  0  0  0  0  0  0  0  0  0
   22.5738  -10.5196  -16.1529 N   0  0  0  0  0  0  0  0  0  0  0  0
   21.5589   -8.4619  -15.3890 C   0  0  0  0  0  0  0  0  0  0  0  0
   22.5995   -8.3687  -14.6781 O   0  0  0  0  0  0  0  0  0  0  0  0
   20.6138   -7.4334  -15.3212 N   0  0  0  0  0  0  0  0  0  0  0  0
   20.8194   -6.1742  -14.6222 C   0  0  1  0  0  0  0  0  0  0  0  0
   22.0635   -5.4555  -15.0104 C   0  0  0  0  0  0  0  0  0  0  0  0
   22.1728   -4.1936  -14.2684 C   0  0  0  0  0  0  0  0  0  0  0  0
   22.4985   -4.1679  -13.0611 O   0  0  0  0  0  0  0  0  0  0  0  0
   19.6564   -5.2763  -14.7697 C   0  0  0  0  0  0  0  0  0  0  0  0
   19.3139   -4.4338  -13.7376 O   0  0  0  0  0  0  0  0  0  0  0  0
   21.9184   -2.9480  -14.8714 O   0  0  0  0  0  0  0  0  0  0  0  0
   18.9860   -5.2759  -15.8171 O   0  0  0  0  0  0  0  0  0  0  0  0
  2  1  1  6
  3  2  1  0
  4  3  1  0
  4  5  2  0
  6  5  1  0
  7  6  2  0
  8  9  2  0
  8  7  1  0
  9  4  1  0
 10  2  1  0
 11 10  2  0
 13 15  1  0
 13 12  1  1
 14 13  1  0
 15 16  1  1
 16 10  1  0
 17 19  1  0
 17 15  1  0
 18 17  2  0
 20 19  1  0
 21 22  1  0
 20 21  1  6
 22 23  2  0
 22 26  1  0
 24 25  1  0
 24 20  1  0
 27 24  2  0
M  END
$$$$
