FVD.pdb
     RDKit          3D

 27 27  0  0  1  0  0  0  0  0999 V2000
   28.6168  -25.3405  -16.0640 N   0  0  0  0  0  0  0  0  0  0  0  0
   27.2700  -25.1762  -16.5821 C   0  0  1  0  0  0  0  0  0  0  0  0
   26.5394  -26.4942  -16.4441 C   0  0  0  0  0  0  0  0  0  0  0  0
   27.1170  -27.4644  -17.4041 C   0  0  0  0  0  0  0  0  0  0  0  0
   27.8891  -28.4978  -16.9313 C   0  0  0  0  0  0  0  0  0  0  0  0
   28.4170  -29.3886  -17.8451 C   0  0  0  0  0  0  0  0  0  0  0  0
   28.1777  -29.2493  -19.2062 C   0  0  0  0  0  0  0  0  0  0  0  0
   27.4022  -28.2087  -19.6636 C   0  0  0  0  0  0  0  0  0  0  0  0
   26.8737  -27.3149  -18.7347 C   0  0  0  0  0  0  0  0  0  0  0  0
   26.5120  -24.1510  -15.8496 C   0  0  0  0  0  0  0  0  0  0  0  0
   26.7709  -23.9663  -14.6442 O   0  0  0  0  0  0  0  0  0  0  0  0
   24.1578  -19.8778  -15.7663 C   0  0  0  0  0  0  0  0  0  0  0  0
   24.9370  -20.9651  -16.4794 C   0  0  2  0  0  0  0  0  0  0  0  0
   24.6104  -20.9938  -17.9629 C   0  0  0  0  0  0  0  0  0  0  0  0
   24.7946  -22.2975  -15.8280 C   0  0  2  0  0  0  0  0  0  0  0  0
   25.5090  -23.3690  -16.4438 N   0  0  0  0  0  0  0  0  0  0  0  0
   23.3397  -22.6076  -15.6942 C   0  0  0  0  0  0  0  0  0  0  0  0
   22.7570  -23.0914  -16.7058 O   0  0  0  0  0  0  0  0  0  0  0  0
   22.5900  -22.3988  -14.5323 N   0  0  0  0  0  0  0  0  0  0  0  0
   21.1626  -22.6565  -14.4189 C   0  0  1  0  0  0  0  0  0  0  0  0
   20.8181  -23.8211  -13.5588 C   0  0  0  0  0  0  0  0  0  0  0  0
   19.3681  -24.0498  -13.5717 C   0  0  0  0  0  0  0  0  0  0  0  0
   18.7532  -24.3058  -14.6304 O   0  0  0  0  0  0  0  0  0  0  0  0
   20.4310  -21.4598  -13.9571 C   0  0  0  0  0  0  0  0  0  0  0  0
   19.0784  -21.3603  -14.1870 O   0  0  0  0  0  0  0  0  0  0  0  0
   18.5925  -23.9941  -12.3990 O   0  0  0  0  0  0  0  0  0  0  0  0
   21.0267  -20.5437  -13.3635 O   0  0  0  0  0  0  0  0  0  0  0  0
  2  1  1  1
  3  2  1  0
  4  3  1  0
  4  5  2  0
  6  5  1  0
  7  6  2  0
  8  9  2  0
  8  7  1  0
  9  4  1  0
 10  2  1  0
 11 10  2  0
 13 15  1  0
 13 12  1  1
 14 13  1  0
 15 16  1  6
 16 10  1  0
 17 19  1  0
 17 15  1  0
 18 17  2  0
 20 19  1  0
 21 22  1  0
 20 21  1  1
 22 23  2  0
 22 26  1  0
 24 25  1  0
 24 20  1  0
 27 24  2  0
M  END
$$$$
