FVD.pdb
     RDKit          3D

 27 27  0  0  1  0  0  0  0  0999 V2000
   24.5113  -12.8859  -18.1865 N   0  0  0  0  0  0  0  0  0  0  0  0
   24.2416  -12.0787  -17.0096 C   0  0  1  0  0  0  0  0  0  0  0  0
   25.5457  -11.4780  -16.5315 C   0  0  0  0  0  0  0  0  0  0  0  0
   26.4841  -12.5754  -16.1978 C   0  0  0  0  0  0  0  0  0  0  0  0
   27.6992  -12.6369  -16.8361 C   0  0  0  0  0  0  0  0  0  0  0  0
   28.5564  -13.6690  -16.5089 C   0  0  0  0  0  0  0  0  0  0  0  0
   28.2059  -14.6222  -15.5613 C   0  0  0  0  0  0  0  0  0  0  0  0
   26.9851  -14.5466  -14.9310 C   0  0  0  0  0  0  0  0  0  0  0  0
   26.1266  -13.5019  -15.2672 C   0  0  0  0  0  0  0  0  0  0  0  0
   23.3044  -10.9807  -17.2892 C   0  0  0  0  0  0  0  0  0  0  0  0
   23.3356  -10.4426  -18.4134 O   0  0  0  0  0  0  0  0  0  0  0  0
   19.6614  -10.9231  -17.7686 C   0  0  0  0  0  0  0  0  0  0  0  0
   19.9613  -10.0305  -16.5806 C   0  0  2  0  0  0  0  0  0  0  0  0
   18.9334   -8.9188  -16.4539 C   0  0  0  0  0  0  0  0  0  0  0  0
   21.3636   -9.5272  -16.5778 C   0  0  2  0  0  0  0  0  0  0  0  0
   22.3748  -10.5086  -16.3494 N   0  0  0  0  0  0  0  0  0  0  0  0
   21.4605   -8.3967  -15.6066 C   0  0  0  0  0  0  0  0  0  0  0  0
   21.4547   -8.6894  -14.3773 O   0  0  0  0  0  0  0  0  0  0  0  0
   21.5566   -7.0492  -15.9682 N   0  0  0  0  0  0  0  0  0  0  0  0
   21.6041   -5.9463  -15.0206 C   0  0  1  0  0  0  0  0  0  0  0  0
   22.2700   -4.7214  -15.5411 C   0  0  0  0  0  0  0  0  0  0  0  0
   22.2171   -3.6503  -14.5385 C   0  0  0  0  0  0  0  0  0  0  0  0
   22.9464   -3.6655  -13.5226 O   0  0  0  0  0  0  0  0  0  0  0  0
   20.2585   -5.6077  -14.5153 C   0  0  0  0  0  0  0  0  0  0  0  0
   20.0813   -5.3502  -13.1757 O   0  0  0  0  0  0  0  0  0  0  0  0
   21.3469   -2.5518  -14.6641 O   0  0  0  0  0  0  0  0  0  0  0  0
   19.2868   -5.5537  -15.2895 O   0  0  0  0  0  0  0  0  0  0  0  0
  2  1  1  6
  3  2  1  0
  4  3  1  0
  4  5  2  0
  6  5  1  0
  7  6  2  0
  8  9  2  0
  8  7  1  0
  9  4  1  0
 10  2  1  0
 11 10  2  0
 13 15  1  0
 13 12  1  6
 14 13  1  0
 15 16  1  1
 16 10  1  0
 17 19  1  0
 17 15  1  0
 18 17  2  0
 20 19  1  0
 21 22  1  0
 20 21  1  6
 22 23  2  0
 22 26  1  0
 24 25  1  0
 24 20  1  0
 27 24  2  0
M  END
$$$$
