FVD.pdb
     RDKit          3D

 27 27  0  0  1  0  0  0  0  0999 V2000
   27.1134  -11.9201  -19.0188 N   0  0  0  0  0  0  0  0  0  0  0  0
   26.9609  -10.8674  -18.0297 C   0  0  1  0  0  0  0  0  0  0  0  0
   27.4307   -9.5648  -18.6402 C   0  0  0  0  0  0  0  0  0  0  0  0
   28.8989   -9.6281  -18.8317 C   0  0  0  0  0  0  0  0  0  0  0  0
   29.7245   -9.4891  -17.7424 C   0  0  0  0  0  0  0  0  0  0  0  0
   31.0890   -9.5509  -17.9460 C   0  0  0  0  0  0  0  0  0  0  0  0
   31.6188   -9.7479  -19.2148 C   0  0  0  0  0  0  0  0  0  0  0  0
   30.7783   -9.8853  -20.2956 C   0  0  0  0  0  0  0  0  0  0  0  0
   29.4031   -9.8217  -20.0809 C   0  0  0  0  0  0  0  0  0  0  0  0
   25.5631  -10.6992  -17.6055 C   0  0  0  0  0  0  0  0  0  0  0  0
   24.6681  -10.7436  -18.4723 O   0  0  0  0  0  0  0  0  0  0  0  0
   22.2049  -10.7124  -13.9183 C   0  0  0  0  0  0  0  0  0  0  0  0
   23.6363  -10.8856  -14.3866 C   0  0  2  0  0  0  0  0  0  0  0  0
   24.6179  -10.3038  -13.3835 C   0  0  0  0  0  0  0  0  0  0  0  0
   23.8542  -10.3810  -15.7714 C   0  0  2  0  0  0  0  0  0  0  0  0
   25.1877  -10.4905  -16.2691 N   0  0  0  0  0  0  0  0  0  0  0  0
   23.3476   -8.9783  -15.8511 C   0  0  0  0  0  0  0  0  0  0  0  0
   24.1143   -8.0630  -15.4374 O   0  0  0  0  0  0  0  0  0  0  0  0
   22.0916   -8.6180  -16.3496 N   0  0  0  0  0  0  0  0  0  0  0  0
   21.6192   -7.2475  -16.4719 C   0  0  1  0  0  0  0  0  0  0  0  0
   21.2382   -6.8534  -17.8555 C   0  0  0  0  0  0  0  0  0  0  0  0
   20.8500   -5.4381  -17.8910 C   0  0  0  0  0  0  0  0  0  0  0  0
   20.8519   -4.7307  -16.8596 O   0  0  0  0  0  0  0  0  0  0  0  0
   20.4995   -6.9759  -15.5483 C   0  0  0  0  0  0  0  0  0  0  0  0
   19.8674   -8.0241  -14.9207 O   0  0  0  0  0  0  0  0  0  0  0  0
   20.4559   -4.8012  -19.0822 O   0  0  0  0  0  0  0  0  0  0  0  0
   20.1246   -5.8097  -15.3340 O   0  0  0  0  0  0  0  0  0  0  0  0
  2  1  1  6
  3  2  1  0
  4  3  1  0
  4  5  2  0
  6  5  1  0
  7  6  2  0
  8  9  2  0
  8  7  1  0
  9  4  1  0
 10  2  1  0
 11 10  2  0
 13 15  1  0
 13 12  1  1
 14 13  1  0
 15 16  1  1
 16 10  1  0
 17 19  1  0
 17 15  1  0
 18 17  2  0
 20 19  1  0
 21 22  1  0
 20 21  1  6
 22 23  2  0
 22 26  1  0
 24 25  1  0
 24 20  1  0
 27 24  2  0
M  END
$$$$
