FVD.pdb
     RDKit          3D

 27 27  0  0  1  0  0  0  0  0999 V2000
   31.9518  -35.2623   -7.5224 N   0  0  0  0  0  0  0  0  0  0  0  0
   32.3151  -34.5683   -6.2993 C   0  0  1  0  0  0  0  0  0  0  0  0
   31.2617  -33.5205   -6.0121 C   0  0  0  0  0  0  0  0  0  0  0  0
   31.2725  -32.5189   -7.1044 C   0  0  0  0  0  0  0  0  0  0  0  0
   30.1170  -32.2810   -7.8084 C   0  0  0  0  0  0  0  0  0  0  0  0
   30.1521  -31.3438   -8.8220 C   0  0  0  0  0  0  0  0  0  0  0  0
   31.3202  -30.6570   -9.1267 C   0  0  0  0  0  0  0  0  0  0  0  0
   32.4693  -30.9070   -8.4122 C   0  0  0  0  0  0  0  0  0  0  0  0
   32.4248  -31.8540   -7.3912 C   0  0  0  0  0  0  0  0  0  0  0  0
   32.3889  -35.4754   -5.1444 C   0  0  0  0  0  0  0  0  0  0  0  0
   31.7219  -36.5283   -5.1703 O   0  0  0  0  0  0  0  0  0  0  0  0
   35.1399  -34.9082   -1.6021 C   0  0  0  0  0  0  0  0  0  0  0  0
   34.6395  -36.1742   -2.2690 C   0  0  2  0  0  0  0  0  0  0  0  0
   35.6470  -36.7007   -3.2770 C   0  0  0  0  0  0  0  0  0  0  0  0
   33.2720  -36.0220   -2.8408 C   0  0  2  0  0  0  0  0  0  0  0  0
   33.1757  -35.2119   -4.0121 N   0  0  0  0  0  0  0  0  0  0  0  0
   32.3564  -35.5450   -1.7615 C   0  0  0  0  0  0  0  0  0  0  0  0
   31.9088  -34.3676   -1.8625 O   0  0  0  0  0  0  0  0  0  0  0  0
   31.9672  -36.3113   -0.6583 N   0  0  0  0  0  0  0  0  0  0  0  0
   30.8758  -35.9639    0.2387 C   0  0  1  0  0  0  0  0  0  0  0  0
   29.5240  -36.0654   -0.3754 C   0  0  0  0  0  0  0  0  0  0  0  0
   28.4910  -35.7385    0.6152 C   0  0  0  0  0  0  0  0  0  0  0  0
   28.7852  -35.3293    1.7599 O   0  0  0  0  0  0  0  0  0  0  0  0
   30.9216  -36.7599    1.4816 C   0  0  0  0  0  0  0  0  0  0  0  0
   31.7755  -37.8349    1.5683 O   0  0  0  0  0  0  0  0  0  0  0  0
   27.1185  -35.8669    0.3334 O   0  0  0  0  0  0  0  0  0  0  0  0
   30.1959  -36.4666    2.4480 O   0  0  0  0  0  0  0  0  0  0  0  0
  2  1  1  6
  3  2  1  0
  4  3  1  0
  4  5  2  0
  6  5  1  0
  7  6  2  0
  8  9  2  0
  8  7  1  0
  9  4  1  0
 10  2  1  0
 11 10  2  0
 13 15  1  0
 13 12  1  6
 14 13  1  0
 15 16  1  6
 16 10  1  0
 17 19  1  0
 17 15  1  0
 18 17  2  0
 20 19  1  0
 21 22  1  0
 20 21  1  6
 22 23  2  0
 22 26  1  0
 24 25  1  0
 24 20  1  0
 27 24  2  0
M  END
$$$$
