FVD.pdb
     RDKit          3D

 27 27  0  0  1  0  0  0  0  0999 V2000
   27.4685  -12.4093  -17.7609 N   0  0  0  0  0  0  0  0  0  0  0  0
   27.0649  -11.0436  -17.4760 C   0  0  1  0  0  0  0  0  0  0  0  0
   27.5348  -10.1586  -18.6100 C   0  0  0  0  0  0  0  0  0  0  0  0
   29.0127  -10.0604  -18.5596 C   0  0  0  0  0  0  0  0  0  0  0  0
   29.5973   -9.1769  -17.6849 C   0  0  0  0  0  0  0  0  0  0  0  0
   30.9760   -9.1028  -17.6567 C   0  0  0  0  0  0  0  0  0  0  0  0
   31.7562   -9.8969  -18.4872 C   0  0  0  0  0  0  0  0  0  0  0  0
   31.1553  -10.7768  -19.3579 C   0  0  0  0  0  0  0  0  0  0  0  0
   29.7639  -10.8450  -19.3796 C   0  0  0  0  0  0  0  0  0  0  0  0
   25.6056  -10.9062  -17.3594 C   0  0  0  0  0  0  0  0  0  0  0  0
   24.8809  -11.6027  -18.0969 O   0  0  0  0  0  0  0  0  0  0  0  0
   23.6629   -9.5656  -13.7574 C   0  0  0  0  0  0  0  0  0  0  0  0
   23.0827  -10.3516  -14.9165 C   0  0  2  0  0  0  0  0  0  0  0  0
   23.2605  -11.8465  -14.7117 C   0  0  0  0  0  0  0  0  0  0  0  0
   23.5848   -9.8833  -16.2388 C   0  0  2  0  0  0  0  0  0  0  0  0
   24.9884  -10.0268  -16.4559 N   0  0  0  0  0  0  0  0  0  0  0  0
   23.1343   -8.4745  -16.4460 C   0  0  0  0  0  0  0  0  0  0  0  0
   23.9084   -7.5567  -16.0517 O   0  0  0  0  0  0  0  0  0  0  0  0
   21.9229   -8.1110  -17.0428 N   0  0  0  0  0  0  0  0  0  0  0  0
   21.4482   -6.7417  -17.1692 C   0  0  1  0  0  0  0  0  0  0  0  0
   20.6551   -6.4808  -18.4012 C   0  0  0  0  0  0  0  0  0  0  0  0
   20.2271   -5.0771  -18.4411 C   0  0  0  0  0  0  0  0  0  0  0  0
   21.0487   -4.1438  -18.5760 O   0  0  0  0  0  0  0  0  0  0  0  0
   20.6782   -6.3232  -15.9807 C   0  0  0  0  0  0  0  0  0  0  0  0
   20.7541   -5.0200  -15.5469 O   0  0  0  0  0  0  0  0  0  0  0  0
   18.8747   -4.7051  -18.3304 O   0  0  0  0  0  0  0  0  0  0  0  0
   19.9636   -7.1377  -15.3706 O   0  0  0  0  0  0  0  0  0  0  0  0
  2  1  1  6
  3  2  1  0
  4  3  1  0
  4  5  2  0
  6  5  1  0
  7  6  2  0
  8  9  2  0
  8  7  1  0
  9  4  1  0
 10  2  1  0
 11 10  2  0
 13 15  1  0
 13 12  1  1
 14 13  1  0
 15 16  1  1
 16 10  1  0
 17 19  1  0
 17 15  1  0
 18 17  2  0
 20 19  1  0
 21 22  1  0
 20 21  1  6
 22 23  2  0
 22 26  1  0
 24 25  1  0
 24 20  1  0
 27 24  2  0
M  END
$$$$
