RVT.pdb
     RDKit          3D

 26 25  0  0  1  0  0  0  0  0999 V2000
   18.7570  -21.9417  -11.3683 N   0  0  0  0  0  0  0  0  0  0  0  0
   18.7821  -21.0023  -10.2798 C   0  0  0  0  0  0  0  0  0  0  0  0
   17.6904  -20.4403   -9.9122 N   0  0  0  0  0  0  0  0  0  0  0  0
   19.9813  -20.6700   -9.5905 N   0  0  0  0  0  0  0  0  0  0  0  0
   21.2564  -21.2586   -9.9238 C   0  0  0  0  0  0  0  0  0  0  0  0
   21.8279  -20.8141  -11.2121 C   0  0  0  0  0  0  0  0  0  0  0  0
   23.1541  -20.1763  -11.2332 C   0  0  0  0  0  0  0  0  0  0  0  0
   24.3797  -20.9985  -11.2997 C   0  0  2  0  0  0  0  0  0  0  0  0
   25.0108  -21.1087   -9.9802 N   0  0  0  0  0  0  0  0  0  0  0  0
   25.3980  -20.1793  -12.0801 C   0  0  0  0  0  0  0  0  0  0  0  0
   26.1029  -19.3681  -11.4236 O   0  0  0  0  0  0  0  0  0  0  0  0
   17.6171  -19.7584   -9.1353 C   0  0  0  0  0  0  0  0  0  0  0  0
   27.1488  -21.2663  -15.8622 C   0  0  1  0  0  0  0  0  0  0  0  0
   27.6640  -20.3959  -14.7638 C   0  0  0  0  0  0  0  0  0  0  0  0
   28.4197  -21.1994  -13.7168 C   0  0  1  0  0  0  0  0  0  0  0  0
   26.6046  -19.5277  -14.1172 N   0  0  0  0  0  0  0  0  0  0  0  0
   25.5840  -20.2854  -13.4687 C   0  0  0  0  0  0  0  0  0  0  0  0
   26.1088  -18.5910  -15.1577 O   0  0  0  0  0  0  0  0  0  0  0  0
   25.1244  -18.9768  -15.8291 C   0  0  0  0  0  0  0  0  0  0  0  0
   26.0240  -13.9914  -17.1520 C   0  0  2  0  0  0  0  0  0  0  0  0
   26.5874  -14.9472  -16.1115 O   0  0  0  0  0  0  0  0  0  0  0  0
   26.2645  -14.5522  -14.8181 C   0  0  1  0  0  0  0  0  0  0  0  0
   26.2758  -16.3706  -16.3895 N   0  0  0  0  0  0  0  0  0  0  0  0
   26.6929  -17.3189  -15.4060 C   0  0  0  0  0  0  0  0  0  0  0  0
   26.6849  -16.7018  -17.7886 O   0  0  0  0  0  0  0  0  0  0  0  0
   27.6641  -17.6265  -18.1010 O   0  0  0  0  0  0  0  0  0  0  0  0
  1  2  1  0
  2  3  2  0
  4  2  1  0
  5  4  1  0
  6  7  1  0
  6  5  1  0
  7  8  1  0
  8 10  1  0
  8  9  1  1
 10 11  2  0
 13 14  1  1
 13 12  1  0
 15 13  1  0
 15 16  1  1
 16 10  1  0
 17 15  1  0
 18 17  2  0
 20 19  1  1
 20 21  1  0
 20 22  1  0
 22 23  1  6
 23 17  1  0
 24 22  1  0
 24 25  1  0
 26 24  2  0
M  END
$$$$
