RVT.pdb
     RDKit          3D

 26 25  0  0  1  0  0  0  0  0999 V2000
   18.9813  -24.5441   -6.2523 N   0  0  0  0  0  0  0  0  0  0  0  0
   18.1036  -25.6421   -6.5554 C   0  0  0  0  0  0  0  0  0  0  0  0
   17.8990  -26.5438   -5.6678 N   0  0  0  0  0  0  0  0  0  0  0  0
   17.4492  -25.7671   -7.8123 N   0  0  0  0  0  0  0  0  0  0  0  0
   17.9117  -25.0876   -8.9988 C   0  0  0  0  0  0  0  0  0  0  0  0
   18.7466  -23.8947   -8.7458 C   0  0  0  0  0  0  0  0  0  0  0  0
   19.3399  -23.1730   -9.8830 C   0  0  0  0  0  0  0  0  0  0  0  0
   18.5069  -22.2941  -10.7293 C   0  0  2  0  0  0  0  0  0  0  0  0
   17.3281  -23.0096  -11.2292 N   0  0  0  0  0  0  0  0  0  0  0  0
   19.3048  -22.0515  -12.0027 C   0  0  0  0  0  0  0  0  0  0  0  0
   19.1319  -22.8643  -12.9490 O   0  0  0  0  0  0  0  0  0  0  0  0
   17.3001  -27.3777   -5.8093 C   0  0  0  0  0  0  0  0  0  0  0  0
   20.3404  -18.3477  -13.5972 C   0  0  1  0  0  0  0  0  0  0  0  0
   20.2945  -19.6905  -14.2487 C   0  0  0  0  0  0  0  0  0  0  0  0
   18.8887  -20.0454  -14.7078 C   0  0  1  0  0  0  0  0  0  0  0  0
   20.8851  -20.8036  -13.4082 N   0  0  0  0  0  0  0  0  0  0  0  0
   20.2044  -20.9849  -12.1672 C   0  0  0  0  0  0  0  0  0  0  0  0
   22.3395  -20.5322  -13.2787 O   0  0  0  0  0  0  0  0  0  0  0  0
   22.7579  -20.2842  -12.1245 C   0  0  0  0  0  0  0  0  0  0  0  0
   25.0239  -22.1163  -12.5017 C   0  0  2  0  0  0  0  0  0  0  0  0
   25.4113  -21.6257  -13.8884 O   0  0  0  0  0  0  0  0  0  0  0  0
   25.3921  -22.6536  -14.8245 C   0  0  2  0  0  0  0  0  0  0  0  0
   24.6596  -20.4213  -14.3182 N   0  0  0  0  0  0  0  0  0  0  0  0
   23.2379  -20.5450  -14.3804 C   0  0  0  0  0  0  0  0  0  0  0  0
   25.2915  -19.8579  -15.5502 O   0  0  0  0  0  0  0  0  0  0  0  0
   26.5993  -19.4128  -15.6043 O   0  0  0  0  0  0  0  0  0  0  0  0
  1  2  1  0
  2  3  2  0
  4  2  1  0
  5  4  1  0
  6  7  1  0
  6  5  1  0
  7  8  1  0
  8 10  1  0
  8  9  1  6
 10 11  2  0
 13 14  1  1
 13 12  1  0
 15 13  1  0
 15 16  1  1
 16 10  1  0
 17 15  1  0
 18 17  2  0
 20 19  1  1
 20 21  1  0
 20 22  1  0
 22 23  1  6
 23 17  1  0
 24 22  1  0
 24 25  1  0
 26 24  2  0
M  END
$$$$
