RVT.pdb
     RDKit          3D

 26 25  0  0  1  0  0  0  0  0999 V2000
   18.3619  -21.8873  -13.4675 N   0  0  0  0  0  0  0  0  0  0  0  0
   18.2470  -22.1738  -12.0630 C   0  0  0  0  0  0  0  0  0  0  0  0
   17.6120  -23.2220  -11.6874 N   0  0  0  0  0  0  0  0  0  0  0  0
   18.8149  -21.3318  -11.0670 N   0  0  0  0  0  0  0  0  0  0  0  0
   20.1669  -20.8333  -11.1511 C   0  0  0  0  0  0  0  0  0  0  0  0
   21.0954  -21.6835  -11.9250 C   0  0  0  0  0  0  0  0  0  0  0  0
   22.4640  -21.2089  -12.1852 C   0  0  0  0  0  0  0  0  0  0  0  0
   23.5091  -21.3315  -11.1483 C   0  0  2  0  0  0  0  0  0  0  0  0
   23.1829  -20.5149   -9.9744 N   0  0  0  0  0  0  0  0  0  0  0  0
   24.7404  -20.6282  -11.7020 C   0  0  0  0  0  0  0  0  0  0  0  0
   24.8342  -19.3901  -11.4919 O   0  0  0  0  0  0  0  0  0  0  0  0
   17.4895  -23.5079  -10.6989 C   0  0  0  0  0  0  0  0  0  0  0  0
   28.3162  -21.0312  -10.8940 C   0  0  1  0  0  0  0  0  0  0  0  0
   28.1982  -21.0708  -12.3820 C   0  0  0  0  0  0  0  0  0  0  0  0
   29.3661  -20.3693  -13.0578 C   0  0  2  0  0  0  0  0  0  0  0  0
   26.8772  -20.5503  -12.9094 N   0  0  0  0  0  0  0  0  0  0  0  0
   25.7550  -21.2833  -12.4199 C   0  0  0  0  0  0  0  0  0  0  0  0
   26.9832  -20.5027  -14.3901 O   0  0  0  0  0  0  0  0  0  0  0  0
   27.2318  -21.5876  -14.9646 C   0  0  0  0  0  0  0  0  0  0  0  0
   25.5117  -18.3843  -18.6137 C   0  0  2  0  0  0  0  0  0  0  0  0
   25.5534  -18.4475  -17.0945 O   0  0  0  0  0  0  0  0  0  0  0  0
   24.3331  -18.8455  -16.5601 C   0  0  1  0  0  0  0  0  0  0  0  0
   26.7076  -19.2166  -16.5686 N   0  0  0  0  0  0  0  0  0  0  0  0
   26.8170  -19.3111  -15.1474 C   0  0  0  0  0  0  0  0  0  0  0  0
   27.9549  -18.7722  -17.2622 O   0  0  0  0  0  0  0  0  0  0  0  0
   28.5091  -19.4367  -18.3405 O   0  0  0  0  0  0  0  0  0  0  0  0
  1  2  1  0
  2  3  2  0
  4  2  1  0
  5  4  1  0
  6  7  1  0
  6  5  1  0
  7  8  1  0
  8 10  1  0
  8  9  1  1
 10 11  2  0
 13 14  1  1
 13 12  1  0
 15 13  1  0
 15 16  1  1
 16 10  1  0
 17 15  1  0
 18 17  2  0
 20 19  1  1
 20 21  1  0
 20 22  1  0
 22 23  1  1
 23 17  1  0
 24 22  1  0
 24 25  1  0
 26 24  2  0
M  END
$$$$
