RVT.pdb
     RDKit          3D

 26 25  0  0  1  0  0  0  0  0999 V2000
   18.8335  -24.2618   -8.7570 N   0  0  0  0  0  0  0  0  0  0  0  0
   19.0122  -23.7485   -7.4257 C   0  0  0  0  0  0  0  0  0  0  0  0
   18.1908  -24.0956   -6.5050 N   0  0  0  0  0  0  0  0  0  0  0  0
   20.0736  -22.8632   -7.0889 N   0  0  0  0  0  0  0  0  0  0  0  0
   21.0680  -22.4439   -8.0474 C   0  0  0  0  0  0  0  0  0  0  0  0
   21.2145  -20.9803   -8.1904 C   0  0  0  0  0  0  0  0  0  0  0  0
   22.0954  -20.4407   -9.2387 C   0  0  0  0  0  0  0  0  0  0  0  0
   23.4928  -20.9054   -9.3552 C   0  0  2  0  0  0  0  0  0  0  0  0
   24.3568  -20.2202   -8.3881 N   0  0  0  0  0  0  0  0  0  0  0  0
   24.0071  -20.3734  -10.6855 C   0  0  0  0  0  0  0  0  0  0  0  0
   24.3592  -19.1647  -10.7198 O   0  0  0  0  0  0  0  0  0  0  0  0
   18.2807  -23.8238   -5.5090 C   0  0  0  0  0  0  0  0  0  0  0  0
   26.9902  -21.5025  -12.3955 C   0  0  1  0  0  0  0  0  0  0  0  0
   25.9456  -21.3845  -13.4559 C   0  0  0  0  0  0  0  0  0  0  0  0
   26.5154  -20.8158  -14.7461 C   0  0  2  0  0  0  0  0  0  0  0  0
   24.7139  -20.6157  -13.0246 N   0  0  0  0  0  0  0  0  0  0  0  0
   24.1058  -21.1523  -11.8505 C   0  0  0  0  0  0  0  0  0  0  0  0
   23.8125  -20.5333  -14.2021 O   0  0  0  0  0  0  0  0  0  0  0  0
   23.2937  -21.6085  -14.5811 C   0  0  0  0  0  0  0  0  0  0  0  0
   20.9859  -17.6967  -17.2254 C   0  0  2  0  0  0  0  0  0  0  0  0
   21.9961  -17.7942  -16.0924 O   0  0  0  0  0  0  0  0  0  0  0  0
   21.4875  -17.2882  -14.9014 C   0  0  1  0  0  0  0  0  0  0  0  0
   22.5956  -19.1438  -15.9526 N   0  0  0  0  0  0  0  0  0  0  0  0
   23.5298  -19.3197  -14.8863 C   0  0  0  0  0  0  0  0  0  0  0  0
   23.0779  -19.6110  -17.2881 O   0  0  0  0  0  0  0  0  0  0  0  0
   24.4145  -19.7479  -17.6140 O   0  0  0  0  0  0  0  0  0  0  0  0
  1  2  1  0
  2  3  2  0
  4  2  1  0
  5  4  1  0
  6  7  1  0
  6  5  1  0
  7  8  1  0
  8 10  1  0
  8  9  1  1
 10 11  2  0
 13 14  1  1
 13 12  1  0
 15 13  1  0
 15 16  1  1
 16 10  1  0
 17 15  1  0
 18 17  2  0
 20 19  1  6
 20 21  1  0
 20 22  1  0
 22 23  1  6
 23 17  1  0
 24 22  1  0
 24 25  1  0
 26 24  2  0
M  END
$$$$
