KML.pdb
     RDKit          3D

 26 25  0  0  1  0  0  0  0  0999 V2000
    7.9061  -18.8984   21.7502 N   0  0  0  0  0  0  0  0  0  0  0  0
    9.1969  -18.3818   21.5278 C   0  0  1  0  0  0  0  0  0  0  0  0
    9.6926  -18.2917   20.1231 C   0  0  0  0  0  0  0  0  0  0  0  0
    9.3373  -19.3663   19.1878 C   0  0  0  0  0  0  0  0  0  0  0  0
    9.7903  -19.2900   17.7811 C   0  0  0  0  0  0  0  0  0  0  0  0
    9.2574  -20.3399   16.8575 C   0  0  0  0  0  0  0  0  0  0  0  0
    9.8282  -20.1867   15.5502 N   0  0  0  0  0  0  0  0  0  0  0  0
    9.3903  -17.0922   22.2457 C   0  0  0  0  0  0  0  0  0  0  0  0
   10.4876  -16.4879   22.0841 O   0  0  0  0  0  0  0  0  0  0  0  0
    6.0178  -11.0613   25.8884 C   0  0  0  0  0  0  0  0  0  0  0  0
    5.9121  -12.7765   25.3704 S   0  0  0  0  0  0  0  0  0  0  0  0
    7.5918  -13.3019   24.8010 C   0  0  0  0  0  0  0  0  0  0  0  0
    7.4283  -14.6927   24.2945 C   0  0  0  0  0  0  0  0  0  0  0  0
    8.7243  -15.2271   23.7344 C   0  0  2  0  0  0  0  0  0  0  0  0
    8.4396  -16.5186   23.0798 N   0  0  0  0  0  0  0  0  0  0  0  0
    9.7397  -15.4165   24.7939 C   0  0  0  0  0  0  0  0  0  0  0  0
   10.8612  -14.7919   24.7358 O   0  0  0  0  0  0  0  0  0  0  0  0
   11.0538  -13.7276   27.9106 C   0  0  0  0  0  0  0  0  0  0  0  0
    9.7682  -14.5027   28.1756 C   0  0  2  0  0  0  0  0  0  0  0  0
    9.1566  -14.1264   29.4870 C   0  0  0  0  0  0  0  0  0  0  0  0
   10.1046  -15.9605   28.1787 C   0  0  0  0  0  0  0  0  0  0  0  0
   10.6543  -16.4616   26.8615 C   0  0  2  0  0  0  0  0  0  0  0  0
    9.5342  -16.2704   25.9088 N   0  0  0  0  0  0  0  0  0  0  0  0
   11.0066  -17.8804   26.9949 C   0  0  0  0  0  0  0  0  0  0  0  0
   10.2140  -18.8332   26.3865 O   0  0  0  0  0  0  0  0  0  0  0  0
   12.0030  -18.2539   27.6435 O   0  0  0  0  0  0  0  0  0  0  0  0
  2  1  1  6
  3  4  1  0
  3  2  1  0
  4  5  1  0
  6  5  1  0
  7  6  1  0
  8  2  1  0
  8  9  2  0
 10 11  1  0
 12 11  1  0
 12 13  1  0
 14 13  1  1
 14 15  1  0
 15  8  1  0
 16 14  1  0
 17 16  2  0
 19 18  1  1
 19 21  1  0
 20 19  1  0
 22 21  1  1
 22 24  1  0
 22 23  1  0
 23 16  1  0
 24 25  1  0
 26 24  2  0
M  END
$$$$
