KML.pdb
     RDKit          3D

 26 25  0  0  1  0  0  0  0  0999 V2000
    7.2855  -18.5912   21.6355 N   0  0  0  0  0  0  0  0  0  0  0  0
    8.5612  -18.2046   21.1821 C   0  0  1  0  0  0  0  0  0  0  0  0
    8.8123  -18.1741   19.7114 C   0  0  0  0  0  0  0  0  0  0  0  0
    7.6692  -18.3414   18.8051 C   0  0  0  0  0  0  0  0  0  0  0  0
    7.9024  -18.4526   17.3481 C   0  0  0  0  0  0  0  0  0  0  0  0
    6.6866  -18.6466   16.4973 C   0  0  0  0  0  0  0  0  0  0  0  0
    7.0637  -18.8084   15.1226 N   0  0  0  0  0  0  0  0  0  0  0  0
    8.9973  -16.9343   21.8243 C   0  0  0  0  0  0  0  0  0  0  0  0
   10.0901  -16.4278   21.4439 O   0  0  0  0  0  0  0  0  0  0  0  0
    6.1320  -13.2873   26.6895 C   0  0  0  0  0  0  0  0  0  0  0  0
    6.5337  -12.2197   25.3039 S   0  0  0  0  0  0  0  0  0  0  0  0
    8.0248  -12.9195   24.4619 C   0  0  0  0  0  0  0  0  0  0  0  0
    7.6105  -14.2572   23.9557 C   0  0  0  0  0  0  0  0  0  0  0  0
    8.7805  -15.0046   23.3629 C   0  0  2  0  0  0  0  0  0  0  0  0
    8.2766  -16.2780   22.8134 N   0  0  0  0  0  0  0  0  0  0  0  0
    9.8249  -15.2751   24.3755 C   0  0  0  0  0  0  0  0  0  0  0  0
   10.7690  -14.4266   24.5755 O   0  0  0  0  0  0  0  0  0  0  0  0
    9.5986  -14.3382   29.4585 C   0  0  0  0  0  0  0  0  0  0  0  0
   10.5355  -15.2067   28.6268 C   0  0  2  0  0  0  0  0  0  0  0  0
   11.8675  -14.5554   28.4346 C   0  0  0  0  0  0  0  0  0  0  0  0
    9.8905  -15.4319   27.2958 C   0  0  0  0  0  0  0  0  0  0  0  0
   10.6146  -16.4397   26.4306 C   0  0  2  0  0  0  0  0  0  0  0  0
    9.8378  -16.4528   25.1676 N   0  0  0  0  0  0  0  0  0  0  0  0
   10.5848  -17.7507   27.0904 C   0  0  0  0  0  0  0  0  0  0  0  0
    9.5283  -18.6055   26.8467 O   0  0  0  0  0  0  0  0  0  0  0  0
   11.4869  -18.1182   27.8676 O   0  0  0  0  0  0  0  0  0  0  0  0
  2  1  1  6
  3  4  1  0
  3  2  1  0
  4  5  1  0
  6  5  1  0
  7  6  1  0
  8  2  1  0
  8  9  2  0
 10 11  1  0
 12 11  1  0
 12 13  1  0
 14 13  1  1
 14 15  1  0
 15  8  1  0
 16 14  1  0
 17 16  2  0
 19 18  1  1
 19 21  1  0
 20 19  1  0
 22 21  1  1
 22 24  1  0
 22 23  1  0
 23 16  1  0
 24 25  1  0
 26 24  2  0
M  END
$$$$
