KML.pdb
     RDKit          3D

 26 25  0  0  1  0  0  0  0  0999 V2000
    8.3050  -18.7397   21.6086 N   0  0  0  0  0  0  0  0  0  0  0  0
    9.4451  -18.0133   21.2149 C   0  0  1  0  0  0  0  0  0  0  0  0
    9.6777  -17.7931   19.7574 C   0  0  0  0  0  0  0  0  0  0  0  0
    9.3157  -18.8667   18.8234 C   0  0  0  0  0  0  0  0  0  0  0  0
    9.5202  -18.6711   17.3709 C   0  0  0  0  0  0  0  0  0  0  0  0
    8.9370  -19.7180   16.4747 C   0  0  0  0  0  0  0  0  0  0  0  0
    9.1054  -19.3442   15.0999 N   0  0  0  0  0  0  0  0  0  0  0  0
    9.5561  -16.7363   21.9719 C   0  0  0  0  0  0  0  0  0  0  0  0
   10.5569  -16.0010   21.7413 O   0  0  0  0  0  0  0  0  0  0  0  0
    6.2530  -11.5516   26.8415 C   0  0  0  0  0  0  0  0  0  0  0  0
    6.1035  -13.0394   25.8489 S   0  0  0  0  0  0  0  0  0  0  0  0
    7.7497  -13.3721   25.0735 C   0  0  0  0  0  0  0  0  0  0  0  0
    7.5733  -14.6142   24.2714 C   0  0  0  0  0  0  0  0  0  0  0  0
    8.8854  -15.0804   23.6884 C   0  0  2  0  0  0  0  0  0  0  0  0
    8.6285  -16.3093   22.9131 N   0  0  0  0  0  0  0  0  0  0  0  0
    9.8849  -15.3549   24.7444 C   0  0  0  0  0  0  0  0  0  0  0  0
   10.9637  -14.6600   24.8120 O   0  0  0  0  0  0  0  0  0  0  0  0
   10.4968  -13.9259   28.0618 C   0  0  0  0  0  0  0  0  0  0  0  0
    9.4072  -14.9872   28.1630 C   0  0  2  0  0  0  0  0  0  0  0  0
    8.6645  -14.8948   29.4573 C   0  0  0  0  0  0  0  0  0  0  0  0
   10.0622  -16.3280   28.0551 C   0  0  0  0  0  0  0  0  0  0  0  0
   10.7718  -16.5551   26.7385 C   0  0  2  0  0  0  0  0  0  0  0  0
    9.7091  -16.3696   25.7211 N   0  0  0  0  0  0  0  0  0  0  0  0
   11.3074  -17.9215   26.7093 C   0  0  0  0  0  0  0  0  0  0  0  0
   10.6809  -18.8761   25.9331 O   0  0  0  0  0  0  0  0  0  0  0  0
   12.3144  -18.2489   27.3664 O   0  0  0  0  0  0  0  0  0  0  0  0
  2  1  1  6
  3  4  1  0
  3  2  1  0
  4  5  1  0
  6  5  1  0
  7  6  1  0
  8  2  1  0
  8  9  2  0
 10 11  1  0
 12 11  1  0
 12 13  1  0
 14 13  1  1
 14 15  1  0
 15  8  1  0
 16 14  1  0
 17 16  2  0
 19 18  1  1
 19 21  1  0
 20 19  1  0
 22 21  1  1
 22 24  1  0
 22 23  1  0
 23 16  1  0
 24 25  1  0
 26 24  2  0
M  END
$$$$
