KML.pdb
     RDKit          3D

 26 25  0  0  1  0  0  0  0  0999 V2000
    7.5394  -18.1072   21.8591 N   0  0  0  0  0  0  0  0  0  0  0  0
    8.7704  -17.6484   21.3526 C   0  0  1  0  0  0  0  0  0  0  0  0
    8.8506  -17.2804   19.9086 C   0  0  0  0  0  0  0  0  0  0  0  0
    8.6148  -18.3285   18.9077 C   0  0  0  0  0  0  0  0  0  0  0  0
    8.7470  -18.0078   17.4691 C   0  0  0  0  0  0  0  0  0  0  0  0
    8.3764  -19.0973   16.5125 C   0  0  0  0  0  0  0  0  0  0  0  0
    8.4297  -18.6124   15.1633 N   0  0  0  0  0  0  0  0  0  0  0  0
    9.3359  -16.5709   22.2100 C   0  0  0  0  0  0  0  0  0  0  0  0
   10.4736  -16.1137   21.9064 O   0  0  0  0  0  0  0  0  0  0  0  0
    6.7797  -11.7747   25.9915 C   0  0  0  0  0  0  0  0  0  0  0  0
    5.9021  -12.9200   24.9240 S   0  0  0  0  0  0  0  0  0  0  0  0
    7.1537  -13.7976   23.8824 C   0  0  0  0  0  0  0  0  0  0  0  0
    8.2427  -14.1998   24.8151 C   0  0  0  0  0  0  0  0  0  0  0  0
    9.3283  -14.9610   24.0932 C   0  0  2  0  0  0  0  0  0  0  0  0
    8.6890  -16.0428   23.3196 N   0  0  0  0  0  0  0  0  0  0  0  0
   10.3124  -15.5352   25.0372 C   0  0  0  0  0  0  0  0  0  0  0  0
   11.5417  -15.1631   24.9980 O   0  0  0  0  0  0  0  0  0  0  0  0
   11.4388  -14.1554   27.9900 C   0  0  0  0  0  0  0  0  0  0  0  0
   10.1517  -14.9139   28.2938 C   0  0  2  0  0  0  0  0  0  0  0  0
    9.5678  -14.5067   29.6085 C   0  0  0  0  0  0  0  0  0  0  0  0
   10.4758  -16.3742   28.3195 C   0  0  0  0  0  0  0  0  0  0  0  0
   10.9938  -16.9065   27.0016 C   0  0  2  0  0  0  0  0  0  0  0  0
    9.9612  -16.4985   26.0187 N   0  0  0  0  0  0  0  0  0  0  0  0
   11.1067  -18.3679   27.0831 C   0  0  0  0  0  0  0  0  0  0  0  0
   12.0958  -18.9261   27.8681 O   0  0  0  0  0  0  0  0  0  0  0  0
   10.3345  -19.1242   26.4629 O   0  0  0  0  0  0  0  0  0  0  0  0
  2  1  1  1
  3  4  1  0
  3  2  1  0
  4  5  1  0
  6  5  1  0
  7  6  1  0
  8  2  1  0
  8  9  2  0
 10 11  1  0
 12 11  1  0
 12 13  1  0
 14 13  1  1
 14 15  1  0
 15  8  1  0
 16 14  1  0
 17 16  2  0
 19 18  1  1
 19 21  1  0
 20 19  1  0
 22 21  1  1
 22 24  1  0
 22 23  1  0
 23 16  1  0
 24 25  1  0
 26 24  2  0
M  END
$$$$
