CYH.pdb
     RDKit          3D

 29 30  0  0  1  0  0  0  0  0999 V2000
    8.1695  -12.6213   19.0762 N   0  0  0  0  0  0  0  0  0  0  0  0
    7.5574  -13.6069   19.9298 C   0  0  1  0  0  0  0  0  0  0  0  0
    7.3547  -14.8592   19.0955 C   0  0  0  0  0  0  0  0  0  0  0  0
    6.4964  -16.1030   20.1098 S   0  0  0  0  0  0  0  0  0  0  0  0
    8.3900  -13.9166   21.1185 C   0  0  0  0  0  0  0  0  0  0  0  0
    9.6289  -13.9821   20.9740 O   0  0  0  0  0  0  0  0  0  0  0  0
   10.7725  -14.5365   29.7065 O   0  0  0  0  0  0  0  0  0  0  0  0
   10.0945  -14.3749   28.4992 C   0  0  0  0  0  0  0  0  0  0  0  0
   10.5997  -14.9069   27.3319 C   0  0  0  0  0  0  0  0  0  0  0  0
    9.9347  -14.7536   26.1215 C   0  0  0  0  0  0  0  0  0  0  0  0
    8.7433  -14.0647   26.0322 C   0  0  0  0  0  0  0  0  0  0  0  0
    8.0111  -13.8782   24.7563 C   0  0  0  0  0  0  0  0  0  0  0  0
    8.6655  -14.4663   23.5590 C   0  0  2  0  0  0  0  0  0  0  0  0
    7.8473  -14.1410   22.4070 N   0  0  0  0  0  0  0  0  0  0  0  0
    8.7809  -15.9212   23.6544 C   0  0  0  0  0  0  0  0  0  0  0  0
    8.0797  -16.6444   22.9009 O   0  0  0  0  0  0  0  0  0  0  0  0
    8.2453  -13.5343   27.2134 C   0  0  0  0  0  0  0  0  0  0  0  0
    8.9035  -13.6853   28.4153 C   0  0  0  0  0  0  0  0  0  0  0  0
    9.6542  -16.5831   24.5647 N   0  0  0  0  0  0  0  0  0  0  0  0
   10.6366  -17.5255   24.0778 C   0  0  1  0  0  0  0  0  0  0  0  0
   11.4408  -16.9708   22.9246 C   0  0  0  0  0  0  0  0  0  0  0  0
   10.9456  -17.4924   21.6154 C   0  0  0  0  0  0  0  0  0  0  0  0
    9.8763  -18.3477   21.3882 C   0  0  0  0  0  0  0  0  0  0  0  0
    9.7428  -18.5889   20.0706 N   0  0  0  0  0  0  0  0  0  0  0  0
   10.7133  -17.8972   19.4648 C   0  0  0  0  0  0  0  0  0  0  0  0
   11.4452  -17.2313   20.3922 N   0  0  0  0  0  0  0  0  0  0  0  0
   11.5158  -18.0206   25.1636 C   0  0  0  0  0  0  0  0  0  0  0  0
   12.3577  -17.1356   25.8141 O   0  0  0  0  0  0  0  0  0  0  0  0
   11.5274  -19.2199   25.5196 O   0  0  0  0  0  0  0  0  0  0  0  0
  2  1  1  6
  3  2  1  0
  4  3  1  0
  5  2  1  0
  5  6  2  0
  7  8  1  0
  8  9  2  0
  9 10  1  0
 11 10  2  0
 11 12  1  0
 13 14  1  0
 13 12  1  1
 14  5  1  0
 15 13  1  0
 16 15  2  0
 17 11  1  0
 18  8  1  0
 18 17  2  0
 19 15  1  0
 20 21  1  6
 20 19  1  0
 21 22  1  0
 22 26  1  0
 23 22  2  0
 23 24  1  0
 24 25  1  0
 26 25  2  0
 27 28  1  0
 27 20  1  0
 29 27  2  0
M  END
$$$$
