CYH.pdb
     RDKit          3D

 29 30  0  0  1  0  0  0  0  0999 V2000
   10.2544  -16.8135   18.6522 N   0  0  0  0  0  0  0  0  0  0  0  0
    9.2971  -17.2772   19.6235 C   0  0  1  0  0  0  0  0  0  0  0  0
    9.5586  -18.7572   19.8398 C   0  0  0  0  0  0  0  0  0  0  0  0
    8.3483  -19.3936   21.0410 S   0  0  0  0  0  0  0  0  0  0  0  0
    9.4042  -16.5480   20.9115 C   0  0  0  0  0  0  0  0  0  0  0  0
   10.5429  -16.3246   21.3735 O   0  0  0  0  0  0  0  0  0  0  0  0
    6.8383  -11.4602   27.8173 O   0  0  0  0  0  0  0  0  0  0  0  0
    6.8949  -12.2500   26.6699 C   0  0  0  0  0  0  0  0  0  0  0  0
    6.2297  -13.4563   26.6126 C   0  0  0  0  0  0  0  0  0  0  0  0
    6.2773  -14.2537   25.4756 C   0  0  0  0  0  0  0  0  0  0  0  0
    6.9895  -13.8769   24.3564 C   0  0  0  0  0  0  0  0  0  0  0  0
    7.0653  -14.7062   23.1295 C   0  0  0  0  0  0  0  0  0  0  0  0
    8.3919  -15.3190   22.8604 C   0  0  2  0  0  0  0  0  0  0  0  0
    8.2782  -16.0940   21.6403 N   0  0  0  0  0  0  0  0  0  0  0  0
    8.8160  -16.2083   23.9413 C   0  0  0  0  0  0  0  0  0  0  0  0
    8.1379  -17.2377   24.1924 O   0  0  0  0  0  0  0  0  0  0  0  0
    7.6542  -12.6612   24.4263 C   0  0  0  0  0  0  0  0  0  0  0  0
    7.6082  -11.8686   25.5534 C   0  0  0  0  0  0  0  0  0  0  0  0
    9.9709  -15.9774   24.7427 N   0  0  0  0  0  0  0  0  0  0  0  0
   10.3278  -16.9061   25.7918 C   0  0  1  0  0  0  0  0  0  0  0  0
   11.8022  -17.2385   25.7860 C   0  0  0  0  0  0  0  0  0  0  0  0
   12.1647  -18.0837   24.6088 C   0  0  0  0  0  0  0  0  0  0  0  0
   11.3216  -18.5806   23.6245 C   0  0  0  0  0  0  0  0  0  0  0  0
   12.0226  -19.3012   22.7292 N   0  0  0  0  0  0  0  0  0  0  0  0
   13.2955  -19.2650   23.1362 C   0  0  0  0  0  0  0  0  0  0  0  0
   13.3898  -18.5306   24.2724 N   0  0  0  0  0  0  0  0  0  0  0  0
    9.8834  -16.4343   27.1248 C   0  0  0  0  0  0  0  0  0  0  0  0
    9.3451  -15.1658   27.2528 O   0  0  0  0  0  0  0  0  0  0  0  0
    9.9765  -17.1449   28.1504 O   0  0  0  0  0  0  0  0  0  0  0  0
  2  1  1  6
  3  2  1  0
  4  3  1  0
  5  2  1  0
  5  6  2  0
  7  8  1  0
  8  9  2  0
  9 10  1  0
 11 10  2  0
 11 12  1  0
 13 14  1  0
 13 12  1  1
 14  5  1  0
 15 13  1  0
 16 15  2  0
 17 11  1  0
 18  8  1  0
 18 17  2  0
 19 15  1  0
 20 21  1  1
 20 19  1  0
 21 22  1  0
 22 26  1  0
 23 22  2  0
 23 24  1  0
 24 25  1  0
 26 25  2  0
 27 28  1  0
 27 20  1  0
 29 27  2  0
M  END
$$$$
