CYH.pdb
     RDKit          3D

 29 30  0  0  1  0  0  0  0  0999 V2000
   10.3127  -16.8196   18.1845 N   0  0  0  0  0  0  0  0  0  0  0  0
    9.0980  -16.8542   18.9579 C   0  0  1  0  0  0  0  0  0  0  0  0
    8.6780  -18.3091   19.0684 C   0  0  0  0  0  0  0  0  0  0  0  0
   10.1354  -19.3045   19.5134 S   0  0  0  0  0  0  0  0  0  0  0  0
    9.2758  -16.2716   20.3110 C   0  0  0  0  0  0  0  0  0  0  0  0
   10.4274  -16.2317   20.7928 O   0  0  0  0  0  0  0  0  0  0  0  0
    7.2227  -11.9392   27.8759 O   0  0  0  0  0  0  0  0  0  0  0  0
    7.2019  -12.5589   26.6273 C   0  0  0  0  0  0  0  0  0  0  0  0
    6.5763  -13.7755   26.4560 C   0  0  0  0  0  0  0  0  0  0  0  0
    6.5478  -14.4047   25.2174 C   0  0  0  0  0  0  0  0  0  0  0  0
    7.1417  -13.8434   24.1065 C   0  0  0  0  0  0  0  0  0  0  0  0
    7.1342  -14.4903   22.7722 C   0  0  0  0  0  0  0  0  0  0  0  0
    8.3816  -15.2123   22.4116 C   0  0  2  0  0  0  0  0  0  0  0  0
    8.2032  -15.7596   21.0808 N   0  0  0  0  0  0  0  0  0  0  0  0
    8.6674  -16.3106   23.3341 C   0  0  0  0  0  0  0  0  0  0  0  0
    8.5076  -17.4967   22.9464 O   0  0  0  0  0  0  0  0  0  0  0  0
    7.7677  -12.6192   24.2916 C   0  0  0  0  0  0  0  0  0  0  0  0
    7.7971  -11.9934   25.5196 C   0  0  0  0  0  0  0  0  0  0  0  0
    9.1240  -16.1177   24.6697 N   0  0  0  0  0  0  0  0  0  0  0  0
    9.9707  -17.1054   25.3005 C   0  0  1  0  0  0  0  0  0  0  0  0
   11.2404  -17.3548   24.5196 C   0  0  0  0  0  0  0  0  0  0  0  0
   11.0903  -18.5175   23.5940 C   0  0  0  0  0  0  0  0  0  0  0  0
    9.9681  -19.3101   23.3961 C   0  0  0  0  0  0  0  0  0  0  0  0
   10.2237  -20.2610   22.4783 N   0  0  0  0  0  0  0  0  0  0  0  0
   11.4915  -20.0784   22.0953 C   0  0  0  0  0  0  0  0  0  0  0  0
   12.0226  -19.0258   22.7655 N   0  0  0  0  0  0  0  0  0  0  0  0
   10.2610  -16.7655   26.7138 C   0  0  0  0  0  0  0  0  0  0  0  0
   11.0153  -17.6353   27.4815 O   0  0  0  0  0  0  0  0  0  0  0  0
    9.8467  -15.7118   27.2463 O   0  0  0  0  0  0  0  0  0  0  0  0
  2  1  1  6
  3  2  1  0
  4  3  1  0
  5  2  1  0
  5  6  2  0
  7  8  1  0
  8  9  2  0
  9 10  1  0
 11 10  2  0
 11 12  1  0
 13 14  1  0
 13 12  1  1
 14  5  1  0
 15 13  1  0
 16 15  2  0
 17 11  1  0
 18  8  1  0
 18 17  2  0
 19 15  1  0
 20 21  1  6
 20 19  1  0
 21 22  1  0
 22 26  1  0
 23 22  2  0
 23 24  1  0
 24 25  1  0
 26 25  2  0
 27 28  1  0
 27 20  1  0
 29 27  2  0
M  END
$$$$
