CYH.pdb
     RDKit          3D

 29 30  0  0  1  0  0  0  0  0999 V2000
    9.3850  -17.3114   18.7708 N   0  0  0  0  0  0  0  0  0  0  0  0
    8.9529  -17.7223   20.0820 C   0  0  1  0  0  0  0  0  0  0  0  0
    9.7939  -18.9238   20.4753 C   0  0  0  0  0  0  0  0  0  0  0  0
    9.2706  -19.4867   22.1251 S   0  0  0  0  0  0  0  0  0  0  0  0
    9.1055  -16.6428   21.0886 C   0  0  0  0  0  0  0  0  0  0  0  0
   10.0903  -15.8801   20.9956 O   0  0  0  0  0  0  0  0  0  0  0  0
    6.7936  -10.8763   27.5216 O   0  0  0  0  0  0  0  0  0  0  0  0
    6.8346  -11.8850   26.5602 C   0  0  0  0  0  0  0  0  0  0  0  0
    6.7788  -13.2121   26.9300 C   0  0  0  0  0  0  0  0  0  0  0  0
    6.8187  -14.2278   25.9827 C   0  0  0  0  0  0  0  0  0  0  0  0
    6.9159  -13.9565   24.6340 C   0  0  0  0  0  0  0  0  0  0  0  0
    6.9662  -15.0162   23.5980 C   0  0  0  0  0  0  0  0  0  0  0  0
    8.3264  -15.3586   23.1079 C   0  0  2  0  0  0  0  0  0  0  0  0
    8.1890  -16.4366   22.1481 N   0  0  0  0  0  0  0  0  0  0  0  0
    9.2041  -15.8048   24.1895 C   0  0  0  0  0  0  0  0  0  0  0  0
    9.4522  -15.0222   25.1426 O   0  0  0  0  0  0  0  0  0  0  0  0
    6.9712  -12.6177   24.2746 C   0  0  0  0  0  0  0  0  0  0  0  0
    6.9316  -11.6084   25.2130 C   0  0  0  0  0  0  0  0  0  0  0  0
    9.8071  -17.0948   24.2319 N   0  0  0  0  0  0  0  0  0  0  0  0
   10.6395  -17.4740   25.3516 C   0  0  1  0  0  0  0  0  0  0  0  0
   10.3672  -18.8862   25.8159 C   0  0  0  0  0  0  0  0  0  0  0  0
    9.0287  -18.9952   26.4702 C   0  0  0  0  0  0  0  0  0  0  0  0
    8.3709  -18.0377   27.2299 C   0  0  0  0  0  0  0  0  0  0  0  0
    7.1818  -18.5096   27.6486 N   0  0  0  0  0  0  0  0  0  0  0  0
    7.0815  -19.7511   27.1631 C   0  0  0  0  0  0  0  0  0  0  0  0
    8.1946  -20.0524   26.4492 N   0  0  0  0  0  0  0  0  0  0  0  0
   12.0792  -17.2643   25.0682 C   0  0  0  0  0  0  0  0  0  0  0  0
   13.0167  -17.5875   26.0335 O   0  0  0  0  0  0  0  0  0  0  0  0
   12.4854  -16.8017   23.9789 O   0  0  0  0  0  0  0  0  0  0  0  0
  2  1  1  6
  3  2  1  0
  4  3  1  0
  5  2  1  0
  5  6  2  0
  7  8  1  0
  8  9  2  0
  9 10  1  0
 11 10  2  0
 11 12  1  0
 13 14  1  0
 13 12  1  1
 14  5  1  0
 15 13  1  0
 16 15  2  0
 17 11  1  0
 18  8  1  0
 18 17  2  0
 19 15  1  0
 20 21  1  6
 20 19  1  0
 21 22  1  0
 22 26  1  0
 23 22  2  0
 23 24  1  0
 24 25  1  0
 26 25  2  0
 27 28  1  0
 27 20  1  0
 29 27  2  0
M  END
$$$$
