CYH.pdb
     RDKit          3D

 29 30  0  0  1  0  0  0  0  0999 V2000
    7.5682  -15.3658   20.1766 N   0  0  0  0  0  0  0  0  0  0  0  0
    8.7725  -14.6468   20.5048 C   0  0  1  0  0  0  0  0  0  0  0  0
    8.5183  -13.1819   20.1968 C   0  0  0  0  0  0  0  0  0  0  0  0
    7.8904  -13.0446   18.4939 S   0  0  0  0  0  0  0  0  0  0  0  0
    9.1536  -14.8086   21.9298 C   0  0  0  0  0  0  0  0  0  0  0  0
   10.2067  -14.2671   22.3271 O   0  0  0  0  0  0  0  0  0  0  0  0
    6.3308  -10.3403   27.0385 O   0  0  0  0  0  0  0  0  0  0  0  0
    6.6186  -11.6162   26.5559 C   0  0  0  0  0  0  0  0  0  0  0  0
    5.8958  -12.1530   25.5116 C   0  0  0  0  0  0  0  0  0  0  0  0
    6.1716  -13.4232   25.0205 C   0  0  0  0  0  0  0  0  0  0  0  0
    7.1770  -14.2028   25.5528 C   0  0  0  0  0  0  0  0  0  0  0  0
    7.4936  -15.5635   25.0561 C   0  0  0  0  0  0  0  0  0  0  0  0
    8.7421  -15.6716   24.2578 C   0  0  2  0  0  0  0  0  0  0  0  0
    8.3812  -15.5467   22.8591 N   0  0  0  0  0  0  0  0  0  0  0  0
    9.4110  -16.9572   24.4549 C   0  0  0  0  0  0  0  0  0  0  0  0
    8.7483  -18.0199   24.3357 O   0  0  0  0  0  0  0  0  0  0  0  0
    7.8970  -13.6516   26.6028 C   0  0  0  0  0  0  0  0  0  0  0  0
    7.6250  -12.3915   27.0915 C   0  0  0  0  0  0  0  0  0  0  0  0
   10.7923  -17.0838   24.7796 N   0  0  0  0  0  0  0  0  0  0  0  0
   11.3756  -18.3903   24.9875 C   0  0  1  0  0  0  0  0  0  0  0  0
   11.1530  -19.3114   23.8101 C   0  0  0  0  0  0  0  0  0  0  0  0
   11.7478  -18.7500   22.5601 C   0  0  0  0  0  0  0  0  0  0  0  0
   12.1773  -17.4503   22.3297 C   0  0  0  0  0  0  0  0  0  0  0  0
   12.6548  -17.3314   21.0768 N   0  0  0  0  0  0  0  0  0  0  0  0
   12.5321  -18.5382   20.5149 C   0  0  0  0  0  0  0  0  0  0  0  0
   11.9843  -19.4018   21.4055 N   0  0  0  0  0  0  0  0  0  0  0  0
   12.8113  -18.3058   25.3462 C   0  0  0  0  0  0  0  0  0  0  0  0
   13.5317  -19.4700   25.5484 O   0  0  0  0  0  0  0  0  0  0  0  0
   13.4046  -17.2118   25.4750 O   0  0  0  0  0  0  0  0  0  0  0  0
  2  1  1  1
  3  2  1  0
  4  3  1  0
  5  2  1  0
  5  6  2  0
  7  8  1  0
  8  9  2  0
  9 10  1  0
 11 10  2  0
 11 12  1  0
 13 14  1  0
 13 12  1  1
 14  5  1  0
 15 13  1  0
 16 15  2  0
 17 11  1  0
 18  8  1  0
 18 17  2  0
 19 15  1  0
 20 21  1  6
 20 19  1  0
 21 22  1  0
 22 26  1  0
 23 22  2  0
 23 24  1  0
 24 25  1  0
 26 25  2  0
 27 28  1  0
 27 20  1  0
 29 27  2  0
M  END
$$$$
