CYH.pdb
     RDKit          3D

 29 30  0  0  1  0  0  0  0  0999 V2000
    8.4229  -19.2743   19.0649 N   0  0  0  0  0  0  0  0  0  0  0  0
    7.7407  -18.6086   20.1448 C   0  0  1  0  0  0  0  0  0  0  0  0
    7.2764  -19.6830   21.1120 C   0  0  0  0  0  0  0  0  0  0  0  0
    8.7306  -20.6067   21.6993 S   0  0  0  0  0  0  0  0  0  0  0  0
    8.6135  -17.6350   20.8464 C   0  0  0  0  0  0  0  0  0  0  0  0
    9.8460  -17.6969   20.6534 O   0  0  0  0  0  0  0  0  0  0  0  0
    7.5460  -12.1054   17.0571 O   0  0  0  0  0  0  0  0  0  0  0  0
    7.7051  -12.6508   18.3302 C   0  0  0  0  0  0  0  0  0  0  0  0
    8.8705  -12.4528   19.0398 C   0  0  0  0  0  0  0  0  0  0  0  0
    9.0428  -12.9904   20.3095 C   0  0  0  0  0  0  0  0  0  0  0  0
    8.0599  -13.7440   20.9161 C   0  0  0  0  0  0  0  0  0  0  0  0
    8.2135  -14.3362   22.2669 C   0  0  0  0  0  0  0  0  0  0  0  0
    8.9598  -15.6201   22.3142 C   0  0  2  0  0  0  0  0  0  0  0  0
    8.1161  -16.6405   21.7232 N   0  0  0  0  0  0  0  0  0  0  0  0
    9.2839  -16.0173   23.6840 C   0  0  0  0  0  0  0  0  0  0  0  0
    8.3666  -16.4361   24.4361 O   0  0  0  0  0  0  0  0  0  0  0  0
    6.8922  -13.9359   20.1921 C   0  0  0  0  0  0  0  0  0  0  0  0
    6.7192  -13.4034   18.9323 C   0  0  0  0  0  0  0  0  0  0  0  0
   10.5983  -15.9586   24.2300 N   0  0  0  0  0  0  0  0  0  0  0  0
   11.0983  -17.0431   25.0450 C   0  0  1  0  0  0  0  0  0  0  0  0
   11.0475  -18.3713   24.3257 C   0  0  0  0  0  0  0  0  0  0  0  0
   11.6475  -19.4611   25.1526 C   0  0  0  0  0  0  0  0  0  0  0  0
   12.1518  -19.3728   26.4427 C   0  0  0  0  0  0  0  0  0  0  0  0
   12.6070  -20.5725   26.8495 N   0  0  0  0  0  0  0  0  0  0  0  0
   12.3965  -21.4153   25.8333 C   0  0  0  0  0  0  0  0  0  0  0  0
   11.8164  -20.7508   24.8031 N   0  0  0  0  0  0  0  0  0  0  0  0
   12.4558  -16.7621   25.5698 C   0  0  0  0  0  0  0  0  0  0  0  0
   13.3778  -16.1197   24.7621 O   0  0  0  0  0  0  0  0  0  0  0  0
   12.8054  -17.0861   26.7266 O   0  0  0  0  0  0  0  0  0  0  0  0
  2  1  1  6
  3  2  1  0
  4  3  1  0
  5  2  1  0
  5  6  2  0
  7  8  1  0
  8  9  2  0
  9 10  1  0
 11 10  2  0
 11 12  1  0
 13 14  1  0
 13 12  1  1
 14  5  1  0
 15 13  1  0
 16 15  2  0
 17 11  1  0
 18  8  1  0
 18 17  2  0
 19 15  1  0
 20 21  1  6
 20 19  1  0
 21 22  1  0
 22 26  1  0
 23 22  2  0
 23 24  1  0
 24 25  1  0
 26 25  2  0
 27 28  1  0
 27 20  1  0
 29 27  2  0
M  END
$$$$
