CYH.pdb
     RDKit          3D

 29 30  0  0  1  0  0  0  0  0999 V2000
    9.6892  -16.5521   17.9039 N   0  0  0  0  0  0  0  0  0  0  0  0
    8.6423  -16.8679   18.8415 C   0  0  1  0  0  0  0  0  0  0  0  0
    8.5662  -18.3815   18.9356 C   0  0  0  0  0  0  0  0  0  0  0  0
    8.0822  -19.0430   17.3104 S   0  0  0  0  0  0  0  0  0  0  0  0
    8.8946  -16.2867   20.1833 C   0  0  0  0  0  0  0  0  0  0  0  0
   10.0768  -16.1874   20.5739 O   0  0  0  0  0  0  0  0  0  0  0  0
    7.1933  -12.1291   27.9368 O   0  0  0  0  0  0  0  0  0  0  0  0
    7.1218  -12.7138   26.6734 C   0  0  0  0  0  0  0  0  0  0  0  0
    6.6349  -13.9942   26.5172 C   0  0  0  0  0  0  0  0  0  0  0  0
    6.5579  -14.5896   25.2641 C   0  0  0  0  0  0  0  0  0  0  0  0
    6.9635  -13.9299   24.1230 C   0  0  0  0  0  0  0  0  0  0  0  0
    6.8998  -14.5378   22.7720 C   0  0  0  0  0  0  0  0  0  0  0  0
    8.1135  -15.2877   22.3572 C   0  0  2  0  0  0  0  0  0  0  0  0
    7.8600  -15.8399   21.0407 N   0  0  0  0  0  0  0  0  0  0  0  0
    8.4210  -16.3857   23.2733 C   0  0  0  0  0  0  0  0  0  0  0  0
    8.1942  -17.5693   22.9125 O   0  0  0  0  0  0  0  0  0  0  0  0
    7.4514  -12.6423   24.2931 C   0  0  0  0  0  0  0  0  0  0  0  0
    7.5285  -12.0498   25.5355 C   0  0  0  0  0  0  0  0  0  0  0  0
    8.9716  -16.1950   24.5732 N   0  0  0  0  0  0  0  0  0  0  0  0
   10.1050  -16.9808   25.0073 C   0  0  1  0  0  0  0  0  0  0  0  0
   11.2637  -16.8983   24.0406 C   0  0  0  0  0  0  0  0  0  0  0  0
   11.2950  -18.0797   23.1269 C   0  0  0  0  0  0  0  0  0  0  0  0
   10.4370  -19.1707   23.1147 C   0  0  0  0  0  0  0  0  0  0  0  0
   10.7888  -20.0308   22.1409 N   0  0  0  0  0  0  0  0  0  0  0  0
   11.8567  -19.4967   21.5395 C   0  0  0  0  0  0  0  0  0  0  0  0
   12.1692  -18.3165   22.1301 N   0  0  0  0  0  0  0  0  0  0  0  0
   10.5236  -16.6350   26.3866 C   0  0  0  0  0  0  0  0  0  0  0  0
    9.8850  -15.6040   27.0531 O   0  0  0  0  0  0  0  0  0  0  0  0
   11.4415  -17.2449   26.9790 O   0  0  0  0  0  0  0  0  0  0  0  0
  2  1  1  6
  3  2  1  0
  4  3  1  0
  5  2  1  0
  5  6  2  0
  7  8  1  0
  8  9  2  0
  9 10  1  0
 11 10  2  0
 11 12  1  0
 13 14  1  0
 13 12  1  1
 14  5  1  0
 15 13  1  0
 16 15  2  0
 17 11  1  0
 18  8  1  0
 18 17  2  0
 19 15  1  0
 20 21  1  6
 20 19  1  0
 21 22  1  0
 22 26  1  0
 23 22  2  0
 23 24  1  0
 24 25  1  0
 26 25  2  0
 27 28  1  0
 27 20  1  0
 29 27  2  0
M  END
$$$$
