CYH.pdb
     RDKit          3D

 29 30  0  0  1  0  0  0  0  0999 V2000
   10.0573  -16.4991   18.4516 N   0  0  0  0  0  0  0  0  0  0  0  0
    8.9241  -16.7477   19.3054 C   0  0  1  0  0  0  0  0  0  0  0  0
    8.7464  -18.2534   19.3878 C   0  0  0  0  0  0  0  0  0  0  0  0
    7.0704  -18.6748   18.8168 S   0  0  0  0  0  0  0  0  0  0  0  0
    9.1090  -16.1819   20.6647 C   0  0  0  0  0  0  0  0  0  0  0  0
   10.2103  -16.3458   21.2305 O   0  0  0  0  0  0  0  0  0  0  0  0
    7.0737  -11.8184   28.2418 O   0  0  0  0  0  0  0  0  0  0  0  0
    7.0892  -12.3661   26.9599 C   0  0  0  0  0  0  0  0  0  0  0  0
    7.8266  -11.7798   25.9532 C   0  0  0  0  0  0  0  0  0  0  0  0
    7.8513  -12.3147   24.6710 C   0  0  0  0  0  0  0  0  0  0  0  0
    7.1419  -13.4522   24.3473 C   0  0  0  0  0  0  0  0  0  0  0  0
    7.1422  -14.0456   22.9884 C   0  0  0  0  0  0  0  0  0  0  0  0
    8.2550  -14.9901   22.7102 C   0  0  2  0  0  0  0  0  0  0  0  0
    8.0974  -15.4659   21.3497 N   0  0  0  0  0  0  0  0  0  0  0  0
    8.2378  -16.1409   23.6127 C   0  0  0  0  0  0  0  0  0  0  0  0
    7.6612  -17.1984   23.2498 O   0  0  0  0  0  0  0  0  0  0  0  0
    6.4040  -14.0327   25.3686 C   0  0  0  0  0  0  0  0  0  0  0  0
    6.3782  -13.5036   26.6414 C   0  0  0  0  0  0  0  0  0  0  0  0
    8.8446  -16.1391   24.9016 N   0  0  0  0  0  0  0  0  0  0  0  0
    9.7864  -17.1740   25.2654 C   0  0  1  0  0  0  0  0  0  0  0  0
   10.8927  -17.3262   24.2470 C   0  0  0  0  0  0  0  0  0  0  0  0
   11.8727  -18.3748   24.6609 C   0  0  0  0  0  0  0  0  0  0  0  0
   11.7855  -19.2448   25.7389 C   0  0  0  0  0  0  0  0  0  0  0  0
   12.8672  -20.0450   25.7821 N   0  0  0  0  0  0  0  0  0  0  0  0
   13.6344  -19.6909   24.7461 C   0  0  0  0  0  0  0  0  0  0  0  0
   13.0399  -18.6814   24.0630 N   0  0  0  0  0  0  0  0  0  0  0  0
   10.3293  -16.9748   26.6302 C   0  0  0  0  0  0  0  0  0  0  0  0
   10.6028  -18.0769   27.4211 O   0  0  0  0  0  0  0  0  0  0  0  0
   10.5525  -15.8373   27.1011 O   0  0  0  0  0  0  0  0  0  0  0  0
  2  1  1  6
  3  2  1  0
  4  3  1  0
  5  2  1  0
  5  6  2  0
  7  8  1  0
  8  9  2  0
  9 10  1  0
 11 10  2  0
 11 12  1  0
 13 14  1  0
 13 12  1  1
 14  5  1  0
 15 13  1  0
 16 15  2  0
 17 11  1  0
 18  8  1  0
 18 17  2  0
 19 15  1  0
 20 21  1  6
 20 19  1  0
 21 22  1  0
 22 26  1  0
 23 22  2  0
 23 24  1  0
 24 25  1  0
 26 25  2  0
 27 28  1  0
 27 20  1  0
 29 27  2  0
M  END
$$$$
