WDH.pdb
     RDKit          3D

 33 35  0  0  1  0  0  0  0  0999 V2000
   25.8325  -19.0867  -10.6193 N   0  0  0  0  0  0  0  0  0  0  0  0
   25.5461  -20.4035  -11.1946 C   0  0  1  0  0  0  0  0  0  0  0  0
   25.8137  -21.4823  -10.1363 C   0  0  0  0  0  0  0  0  0  0  0  0
   27.1724  -21.3471   -9.5746 C   0  0  0  0  0  0  0  0  0  0  0  0
   28.3866  -21.7785  -10.0733 C   0  0  0  0  0  0  0  0  0  0  0  0
   29.3514  -21.4309   -9.2140 N   0  0  0  0  0  0  0  0  0  0  0  0
   28.8265  -20.7763   -8.1473 C   0  0  0  0  0  0  0  0  0  0  0  0
   29.3973  -20.2313   -7.0231 C   0  0  0  0  0  0  0  0  0  0  0  0
   28.5881  -19.6170   -6.0984 C   0  0  0  0  0  0  0  0  0  0  0  0
   27.2253  -19.5378   -6.2757 C   0  0  0  0  0  0  0  0  0  0  0  0
   26.6884  -20.0955   -7.4144 C   0  0  0  0  0  0  0  0  0  0  0  0
   27.4583  -20.7251   -8.3763 C   0  0  0  0  0  0  0  0  0  0  0  0
   24.0942  -20.4996  -11.4990 C   0  0  0  0  0  0  0  0  0  0  0  0
   23.2604  -20.0194  -10.6916 O   0  0  0  0  0  0  0  0  0  0  0  0
   23.5784  -21.1162  -12.6759 N   0  0  0  0  0  0  0  0  0  0  0  0
   22.6961  -20.4655  -13.5969 C   0  0  1  0  0  0  0  0  0  0  0  0
   23.2862  -20.5622  -14.9885 C   0  0  0  0  0  0  0  0  0  0  0  0
   22.4785  -19.8966  -16.0192 C   0  0  0  0  0  0  0  0  0  0  0  0
   21.9607  -18.7556  -15.9114 O   0  0  0  0  0  0  0  0  0  0  0  0
   21.3407  -21.0551  -13.5432 C   0  0  0  0  0  0  0  0  0  0  0  0
   20.4210  -20.7583  -14.3437 O   0  0  0  0  0  0  0  0  0  0  0  0
   22.2134  -20.5172  -17.2593 O   0  0  0  0  0  0  0  0  0  0  0  0
   21.0582  -22.0077  -12.5357 N   0  0  0  0  0  0  0  0  0  0  0  0
   19.7391  -22.6271  -12.4928 C   0  0  1  0  0  0  0  0  0  0  0  0
   19.6627  -23.6764  -11.4151 C   0  0  0  0  0  0  0  0  0  0  0  0
   20.0961  -24.9875  -11.9524 C   0  0  0  0  0  0  0  0  0  0  0  0
   20.5557  -25.2061  -13.2585 C   0  0  0  0  0  0  0  0  0  0  0  0
   20.8550  -26.5092  -13.3852 N   0  0  0  0  0  0  0  0  0  0  0  0
   20.6069  -27.1295  -12.2198 C   0  0  0  0  0  0  0  0  0  0  0  0
   20.1509  -26.1913  -11.3742 N   0  0  0  0  0  0  0  0  0  0  0  0
   18.7607  -21.5645  -12.1884 C   0  0  0  0  0  0  0  0  0  0  0  0
   19.1446  -20.5171  -11.3639 O   0  0  0  0  0  0  0  0  0  0  0  0
   17.5763  -21.5422  -12.6348 O   0  0  0  0  0  0  0  0  0  0  0  0
  2  1  1  1
  3  2  1  0
  4  3  1  0
  4  5  2  0
  6  5  1  0
  7  6  1  0
  8  7  2  0
  9  8  1  0
 10  9  2  0
 10 11  1  0
 11 12  2  0
 12  7  1  0
 12  4  1  0
 13  2  1  0
 13 14  2  0
 15 13  1  0
 16 15  1  0
 16 17  1  6
 18 17  1  0
 18 22  1  0
 19 18  2  0
 20 16  1  0
 21 20  2  0
 23 20  1  0
 24 23  1  0
 25 26  1  0
 24 25  1  1
 26 27  2  0
 27 28  1  0
 29 28  1  0
 30 26  1  0
 30 29  2  0
 31 32  1  0
 31 24  1  0
 33 31  2  0
M  END
$$$$
