WDH.pdb
     RDKit          3D

 33 35  0  0  1  0  0  0  0  0999 V2000
   26.2998  -22.9561  -12.0346 N   0  0  0  0  0  0  0  0  0  0  0  0
   25.6614  -21.7982  -11.4034 C   0  0  1  0  0  0  0  0  0  0  0  0
   26.5995  -20.5882  -11.5097 C   0  0  0  0  0  0  0  0  0  0  0  0
   27.7245  -20.7058  -10.5609 C   0  0  0  0  0  0  0  0  0  0  0  0
   29.0321  -21.0960  -10.7777 C   0  0  0  0  0  0  0  0  0  0  0  0
   29.6920  -21.0507   -9.6146 N   0  0  0  0  0  0  0  0  0  0  0  0
   28.8697  -20.6412   -8.6157 C   0  0  0  0  0  0  0  0  0  0  0  0
   29.0741  -20.4395   -7.2725 C   0  0  0  0  0  0  0  0  0  0  0  0
   28.0237  -20.0108   -6.4977 C   0  0  0  0  0  0  0  0  0  0  0  0
   26.7786  -19.7812   -7.0381 C   0  0  0  0  0  0  0  0  0  0  0  0
   26.6109  -19.9942   -8.3881 C   0  0  0  0  0  0  0  0  0  0  0  0
   27.6350  -20.4253   -9.2125 C   0  0  0  0  0  0  0  0  0  0  0  0
   24.4473  -21.4265  -12.1763 C   0  0  0  0  0  0  0  0  0  0  0  0
   24.4326  -21.5917  -13.4214 O   0  0  0  0  0  0  0  0  0  0  0  0
   23.2730  -20.8823  -11.5792 N   0  0  0  0  0  0  0  0  0  0  0  0
   22.0339  -20.7028  -12.2739 C   0  0  1  0  0  0  0  0  0  0  0  0
   20.9420  -20.4292  -11.2605 C   0  0  0  0  0  0  0  0  0  0  0  0
   19.5971  -20.3584  -11.8472 C   0  0  0  0  0  0  0  0  0  0  0  0
   19.3238  -20.5431  -13.0608 O   0  0  0  0  0  0  0  0  0  0  0  0
   22.1337  -19.6119  -13.2677 C   0  0  0  0  0  0  0  0  0  0  0  0
   22.3783  -18.4182  -12.9678 O   0  0  0  0  0  0  0  0  0  0  0  0
   18.4651  -20.0648  -11.0563 O   0  0  0  0  0  0  0  0  0  0  0  0
   21.9438  -19.9244  -14.6347 N   0  0  0  0  0  0  0  0  0  0  0  0
   22.0135  -18.8562  -15.6244 C   0  0  1  0  0  0  0  0  0  0  0  0
   23.0427  -19.1573  -16.6820 C   0  0  0  0  0  0  0  0  0  0  0  0
   23.0991  -18.0496  -17.6644 C   0  0  0  0  0  0  0  0  0  0  0  0
   23.9690  -16.9532  -17.5870 C   0  0  0  0  0  0  0  0  0  0  0  0
   23.7355  -16.1572  -18.6432 N   0  0  0  0  0  0  0  0  0  0  0  0
   22.7571  -16.6968  -19.3889 C   0  0  0  0  0  0  0  0  0  0  0  0
   22.3913  -17.8352  -18.7778 N   0  0  0  0  0  0  0  0  0  0  0  0
   20.6882  -18.7616  -16.2677 C   0  0  0  0  0  0  0  0  0  0  0  0
   20.2837  -17.5426  -16.7915 O   0  0  0  0  0  0  0  0  0  0  0  0
   19.8821  -19.7317  -16.3765 O   0  0  0  0  0  0  0  0  0  0  0  0
  2  1  1  6
  3  2  1  0
  4  3  1  0
  4  5  2  0
  6  5  1  0
  7  6  1  0
  8  7  2  0
  9  8  1  0
 10  9  2  0
 10 11  1  0
 11 12  2  0
 12  7  1  0
 12  4  1  0
 13  2  1  0
 13 14  2  0
 15 13  1  0
 16 15  1  0
 16 17  1  1
 18 17  1  0
 18 22  1  0
 19 18  2  0
 20 16  1  0
 21 20  2  0
 23 20  1  0
 24 23  1  0
 25 26  1  0
 24 25  1  6
 26 27  2  0
 27 28  1  0
 29 28  1  0
 30 26  1  0
 30 29  2  0
 31 32  1  0
 31 24  1  0
 33 31  2  0
M  END
$$$$
