WDH.pdb
     RDKit          3D

 33 35  0  0  1  0  0  0  0  0999 V2000
   27.2273  -22.5122  -11.5171 N   0  0  0  0  0  0  0  0  0  0  0  0
   26.3228  -21.6852  -10.7142 C   0  0  1  0  0  0  0  0  0  0  0  0
   26.9379  -20.2894  -10.5435 C   0  0  0  0  0  0  0  0  0  0  0  0
   28.0736  -20.3233   -9.6008 C   0  0  0  0  0  0  0  0  0  0  0  0
   29.4069  -20.6068   -9.8263 C   0  0  0  0  0  0  0  0  0  0  0  0
   30.0671  -20.5166   -8.6660 N   0  0  0  0  0  0  0  0  0  0  0  0
   29.2199  -20.1802   -7.6605 C   0  0  0  0  0  0  0  0  0  0  0  0
   29.4145  -19.9715   -6.3169 C   0  0  0  0  0  0  0  0  0  0  0  0
   28.3374  -19.6327   -5.5343 C   0  0  0  0  0  0  0  0  0  0  0  0
   27.0752  -19.4994   -6.0675 C   0  0  0  0  0  0  0  0  0  0  0  0
   26.9181  -19.7164   -7.4181 C   0  0  0  0  0  0  0  0  0  0  0  0
   27.9689  -20.0594   -8.2501 C   0  0  0  0  0  0  0  0  0  0  0  0
   25.0583  -21.4709  -11.4657 C   0  0  0  0  0  0  0  0  0  0  0  0
   25.0917  -21.3773  -12.7178 O   0  0  0  0  0  0  0  0  0  0  0  0
   23.7822  -21.3630  -10.8399 N   0  0  0  0  0  0  0  0  0  0  0  0
   22.5443  -21.3002  -11.5566 C   0  0  1  0  0  0  0  0  0  0  0  0
   21.4221  -21.7172  -10.6288 C   0  0  0  0  0  0  0  0  0  0  0  0
   20.1099  -21.7889  -11.2852 C   0  0  0  0  0  0  0  0  0  0  0  0
   19.0507  -21.2695  -10.8494 O   0  0  0  0  0  0  0  0  0  0  0  0
   22.3152  -19.9465  -12.1065 C   0  0  0  0  0  0  0  0  0  0  0  0
   22.8022  -18.9023  -11.6092 O   0  0  0  0  0  0  0  0  0  0  0  0
   19.9358  -22.4764  -12.5060 O   0  0  0  0  0  0  0  0  0  0  0  0
   21.5027  -19.8137  -13.2574 N   0  0  0  0  0  0  0  0  0  0  0  0
   21.6901  -18.6616  -14.1309 C   0  0  1  0  0  0  0  0  0  0  0  0
   22.7889  -18.9071  -15.1312 C   0  0  0  0  0  0  0  0  0  0  0  0
   22.8933  -17.7587  -16.0616 C   0  0  0  0  0  0  0  0  0  0  0  0
   22.1310  -16.5855  -15.9754 C   0  0  0  0  0  0  0  0  0  0  0  0
   22.4949  -15.7740  -16.9818 N   0  0  0  0  0  0  0  0  0  0  0  0
   23.4535  -16.3770  -17.7042 C   0  0  0  0  0  0  0  0  0  0  0  0
   23.6748  -17.5703  -17.1295 N   0  0  0  0  0  0  0  0  0  0  0  0
   20.4248  -18.4491  -14.8609 C   0  0  0  0  0  0  0  0  0  0  0  0
   19.6639  -19.5528  -15.2172 O   0  0  0  0  0  0  0  0  0  0  0  0
   19.9785  -17.3109  -15.1897 O   0  0  0  0  0  0  0  0  0  0  0  0
  2  1  1  6
  3  2  1  0
  4  3  1  0
  4  5  2  0
  6  5  1  0
  7  6  1  0
  8  7  2  0
  9  8  1  0
 10  9  2  0
 10 11  1  0
 11 12  2  0
 12  7  1  0
 12  4  1  0
 13  2  1  0
 13 14  2  0
 15 13  1  0
 16 15  1  0
 16 17  1  1
 18 17  1  0
 18 22  1  0
 19 18  2  0
 20 16  1  0
 21 20  2  0
 23 20  1  0
 24 23  1  0
 25 26  1  0
 24 25  1  6
 26 27  2  0
 27 28  1  0
 29 28  1  0
 30 26  1  0
 30 29  2  0
 31 32  1  0
 31 24  1  0
 33 31  2  0
M  END
$$$$
