WDH.pdb
     RDKit          3D

 33 35  0  0  1  0  0  0  0  0999 V2000
   26.2370  -22.8938  -12.8369 N   0  0  0  0  0  0  0  0  0  0  0  0
   25.6092  -21.8480  -12.0251 C   0  0  1  0  0  0  0  0  0  0  0  0
   26.4720  -20.5802  -12.0857 C   0  0  0  0  0  0  0  0  0  0  0  0
   27.6485  -20.6979  -11.2016 C   0  0  0  0  0  0  0  0  0  0  0  0
   28.9648  -20.9848  -11.5084 C   0  0  0  0  0  0  0  0  0  0  0  0
   29.6786  -20.9872  -10.3766 N   0  0  0  0  0  0  0  0  0  0  0  0
   28.8843  -20.7102   -9.3116 C   0  0  0  0  0  0  0  0  0  0  0  0
   29.1436  -20.6003   -7.9672 C   0  0  0  0  0  0  0  0  0  0  0  0
   28.1095  -20.3017   -7.1135 C   0  0  0  0  0  0  0  0  0  0  0  0
   26.8271  -20.1119   -7.5765 C   0  0  0  0  0  0  0  0  0  0  0  0
   26.6048  -20.2301   -8.9302 C   0  0  0  0  0  0  0  0  0  0  0  0
   27.6103  -20.5290   -9.8324 C   0  0  0  0  0  0  0  0  0  0  0  0
   24.3074  -21.4700  -12.6350 C   0  0  0  0  0  0  0  0  0  0  0  0
   24.1742  -21.5121  -13.8833 O   0  0  0  0  0  0  0  0  0  0  0  0
   23.1759  -21.0538  -11.8746 N   0  0  0  0  0  0  0  0  0  0  0  0
   21.8463  -20.9746  -12.3998 C   0  0  1  0  0  0  0  0  0  0  0  0
   20.8618  -21.1927  -11.2696 C   0  0  0  0  0  0  0  0  0  0  0  0
   19.4611  -21.2438  -11.7092 C   0  0  0  0  0  0  0  0  0  0  0  0
   18.5006  -20.6628  -11.1422 O   0  0  0  0  0  0  0  0  0  0  0  0
   21.6161  -19.6783  -13.0737 C   0  0  0  0  0  0  0  0  0  0  0  0
   21.8834  -18.5676  -12.5546 O   0  0  0  0  0  0  0  0  0  0  0  0
   19.0754  -21.9813  -12.8496 O   0  0  0  0  0  0  0  0  0  0  0  0
   21.0640  -19.6832  -14.3765 N   0  0  0  0  0  0  0  0  0  0  0  0
   20.8386  -18.4141  -15.0579 C   0  0  1  0  0  0  0  0  0  0  0  0
   20.8625  -18.5852  -16.5540 C   0  0  0  0  0  0  0  0  0  0  0  0
   20.6774  -17.2733  -17.2173 C   0  0  0  0  0  0  0  0  0  0  0  0
   19.5363  -16.4682  -17.0968 C   0  0  0  0  0  0  0  0  0  0  0  0
   19.7238  -15.3618  -17.8347 N   0  0  0  0  0  0  0  0  0  0  0  0
   20.9316  -15.4261  -18.4190 C   0  0  0  0  0  0  0  0  0  0  0  0
   21.4851  -16.5865  -18.0313 N   0  0  0  0  0  0  0  0  0  0  0  0
   19.5028  -17.9286  -14.6588 C   0  0  0  0  0  0  0  0  0  0  0  0
   19.3327  -16.5774  -14.3952 O   0  0  0  0  0  0  0  0  0  0  0  0
   18.4851  -18.6719  -14.5384 O   0  0  0  0  0  0  0  0  0  0  0  0
  2  1  1  6
  3  2  1  0
  4  3  1  0
  4  5  2  0
  6  5  1  0
  7  6  1  0
  8  7  2  0
  9  8  1  0
 10  9  2  0
 10 11  1  0
 11 12  2  0
 12  7  1  0
 12  4  1  0
 13  2  1  0
 13 14  2  0
 15 13  1  0
 16 15  1  0
 16 17  1  1
 18 17  1  0
 18 22  1  0
 19 18  2  0
 20 16  1  0
 21 20  2  0
 23 20  1  0
 24 23  1  0
 25 26  1  0
 24 25  1  6
 26 27  2  0
 27 28  1  0
 29 28  1  0
 30 26  1  0
 30 29  2  0
 31 32  1  0
 31 24  1  0
 33 31  2  0
M  END
$$$$
