WDH.pdb
     RDKit          3D

 33 35  0  0  1  0  0  0  0  0999 V2000
   25.6143  -18.4070  -18.8026 N   0  0  0  0  0  0  0  0  0  0  0  0
   25.2672  -18.3833  -17.3793 C   0  0  1  0  0  0  0  0  0  0  0  0
   25.3374  -16.9373  -16.8698 C   0  0  0  0  0  0  0  0  0  0  0  0
   26.6472  -16.3302  -17.1790 C   0  0  0  0  0  0  0  0  0  0  0  0
   26.9472  -15.1079  -17.7491 C   0  0  0  0  0  0  0  0  0  0  0  0
   28.2772  -14.9897  -17.8358 N   0  0  0  0  0  0  0  0  0  0  0  0
   28.8874  -16.0964  -17.3411 C   0  0  0  0  0  0  0  0  0  0  0  0
   30.2097  -16.4448  -17.2122 C   0  0  0  0  0  0  0  0  0  0  0  0
   30.5251  -17.6619  -16.6585 C   0  0  0  0  0  0  0  0  0  0  0  0
   29.5477  -18.5331  -16.2334 C   0  0  0  0  0  0  0  0  0  0  0  0
   28.2331  -18.1501  -16.3787 C   0  0  0  0  0  0  0  0  0  0  0  0
   27.8617  -16.9364  -16.9294 C   0  0  0  0  0  0  0  0  0  0  0  0
   23.8476  -18.7922  -17.2146 C   0  0  0  0  0  0  0  0  0  0  0  0
   22.9705  -18.2964  -17.9647 O   0  0  0  0  0  0  0  0  0  0  0  0
   23.4102  -19.7327  -16.2369 N   0  0  0  0  0  0  0  0  0  0  0  0
   22.0586  -20.1895  -16.1172 C   0  0  1  0  0  0  0  0  0  0  0  0
   22.0687  -21.6856  -15.8807 C   0  0  0  0  0  0  0  0  0  0  0  0
   22.2905  -22.4739  -17.1002 C   0  0  0  0  0  0  0  0  0  0  0  0
   22.4037  -23.7257  -17.1450 O   0  0  0  0  0  0  0  0  0  0  0  0
   21.3494  -19.4764  -15.0327 C   0  0  0  0  0  0  0  0  0  0  0  0
   21.8025  -19.3531  -13.8690 O   0  0  0  0  0  0  0  0  0  0  0  0
   22.3974  -21.8561  -18.3652 O   0  0  0  0  0  0  0  0  0  0  0  0
   20.0892  -18.8984  -15.3159 N   0  0  0  0  0  0  0  0  0  0  0  0
   19.3305  -18.2821  -14.2343 C   0  0  1  0  0  0  0  0  0  0  0  0
   18.8562  -16.9044  -14.6153 C   0  0  0  0  0  0  0  0  0  0  0  0
   19.9961  -15.9578  -14.6153 C   0  0  0  0  0  0  0  0  0  0  0  0
   21.3041  -16.2784  -14.2265 C   0  0  0  0  0  0  0  0  0  0  0  0
   22.0618  -15.1770  -14.3553 N   0  0  0  0  0  0  0  0  0  0  0  0
   21.2960  -14.1707  -14.8082 C   0  0  0  0  0  0  0  0  0  0  0  0
   20.0570  -14.6669  -14.9563 N   0  0  0  0  0  0  0  0  0  0  0  0
   18.1522  -19.1340  -13.9787 C   0  0  0  0  0  0  0  0  0  0  0  0
   17.3250  -18.8288  -12.9080 O   0  0  0  0  0  0  0  0  0  0  0  0
   17.8391  -20.1400  -14.6805 O   0  0  0  0  0  0  0  0  0  0  0  0
  2  1  1  6
  3  2  1  0
  4  3  1  0
  4  5  2  0
  6  5  1  0
  7  6  1  0
  8  7  2  0
  9  8  1  0
 10  9  2  0
 10 11  1  0
 11 12  2  0
 12  7  1  0
 12  4  1  0
 13  2  1  0
 13 14  2  0
 15 13  1  0
 16 15  1  0
 16 17  1  1
 18 17  1  0
 18 22  1  0
 19 18  2  0
 20 16  1  0
 21 20  2  0
 23 20  1  0
 24 23  1  0
 25 26  1  0
 24 25  1  6
 26 27  2  0
 27 28  1  0
 29 28  1  0
 30 26  1  0
 30 29  2  0
 31 32  1  0
 31 24  1  0
 33 31  2  0
M  END
$$$$
