WDH.pdb
     RDKit          3D

 33 35  0  0  1  0  0  0  0  0999 V2000
   16.0944  -17.2700    3.9359 N   0  0  0  0  0  0  0  0  0  0  0  0
   17.1227  -18.2963    4.1255 C   0  0  1  0  0  0  0  0  0  0  0  0
   18.4763  -17.7422    3.6604 C   0  0  0  0  0  0  0  0  0  0  0  0
   18.7534  -18.1270    2.2622 C   0  0  0  0  0  0  0  0  0  0  0  0
   17.9278  -18.7131    1.3220 C   0  0  0  0  0  0  0  0  0  0  0  0
   18.6179  -18.8771    0.1875 N   0  0  0  0  0  0  0  0  0  0  0  0
   19.8874  -18.4193    0.3314 C   0  0  0  0  0  0  0  0  0  0  0  0
   20.9561  -18.3678   -0.5300 C   0  0  0  0  0  0  0  0  0  0  0  0
   22.1416  -17.8339   -0.0864 C   0  0  0  0  0  0  0  0  0  0  0  0
   22.2781  -17.3530    1.1962 C   0  0  0  0  0  0  0  0  0  0  0  0
   21.1857  -17.4212    2.0315 C   0  0  0  0  0  0  0  0  0  0  0  0
   19.9698  -17.9489    1.6349 C   0  0  0  0  0  0  0  0  0  0  0  0
   17.2838  -18.5657    5.5785 C   0  0  0  0  0  0  0  0  0  0  0  0
   17.1279  -17.6298    6.4016 O   0  0  0  0  0  0  0  0  0  0  0  0
   17.6111  -19.8482    6.1072 N   0  0  0  0  0  0  0  0  0  0  0  0
   17.8553  -20.1009    7.4952 C   0  0  1  0  0  0  0  0  0  0  0  0
   17.6880  -21.5832    7.7577 C   0  0  0  0  0  0  0  0  0  0  0  0
   17.6110  -21.9245    9.1844 C   0  0  0  0  0  0  0  0  0  0  0  0
   17.6222  -21.0962   10.1307 O   0  0  0  0  0  0  0  0  0  0  0  0
   19.1997  -19.6304    7.8939 C   0  0  0  0  0  0  0  0  0  0  0  0
   20.2375  -19.8386    7.2199 O   0  0  0  0  0  0  0  0  0  0  0  0
   17.5149  -23.2657    9.6148 O   0  0  0  0  0  0  0  0  0  0  0  0
   19.3304  -18.9044    9.1013 N   0  0  0  0  0  0  0  0  0  0  0  0
   20.6490  -18.4354    9.5097 C   0  0  1  0  0  0  0  0  0  0  0  0
   20.7571  -16.9378    9.3921 C   0  0  0  0  0  0  0  0  0  0  0  0
   22.0926  -16.4884    9.8503 C   0  0  0  0  0  0  0  0  0  0  0  0
   23.2870  -16.6712    9.1399 C   0  0  0  0  0  0  0  0  0  0  0  0
   24.2886  -16.1397    9.8597 N   0  0  0  0  0  0  0  0  0  0  0  0
   23.7862  -15.6273   10.9953 C   0  0  0  0  0  0  0  0  0  0  0  0
   22.4623  -15.8504   10.9652 N   0  0  0  0  0  0  0  0  0  0  0  0
   20.8346  -18.8132   10.9247 C   0  0  0  0  0  0  0  0  0  0  0  0
   19.7207  -19.1500   11.6794 O   0  0  0  0  0  0  0  0  0  0  0  0
   21.9583  -18.8518   11.5066 O   0  0  0  0  0  0  0  0  0  0  0  0
  2  1  1  1
  3  2  1  0
  4  3  1  0
  4  5  2  0
  6  5  1  0
  7  6  1  0
  8  7  2  0
  9  8  1  0
 10  9  2  0
 10 11  1  0
 11 12  2  0
 12  7  1  0
 12  4  1  0
 13  2  1  0
 13 14  2  0
 15 13  1  0
 16 15  1  0
 16 17  1  6
 18 17  1  0
 18 22  1  0
 19 18  2  0
 20 16  1  0
 21 20  2  0
 23 20  1  0
 24 23  1  0
 25 26  1  0
 24 25  1  1
 26 27  2  0
 27 28  1  0
 29 28  1  0
 30 26  1  0
 30 29  2  0
 31 32  1  0
 31 24  1  0
 33 31  2  0
M  END
$$$$
