WDH.pdb
     RDKit          3D

 33 35  0  0  1  0  0  0  0  0999 V2000
   27.6579  -22.4990  -13.8122 N   0  0  0  0  0  0  0  0  0  0  0  0
   26.6570  -21.6892  -13.1128 C   0  0  1  0  0  0  0  0  0  0  0  0
   27.2832  -20.3429  -12.7244 C   0  0  0  0  0  0  0  0  0  0  0  0
   28.1541  -20.4862  -11.5409 C   0  0  0  0  0  0  0  0  0  0  0  0
   29.5277  -20.6115  -11.4588 C   0  0  0  0  0  0  0  0  0  0  0  0
   29.8729  -20.7166  -10.1704 N   0  0  0  0  0  0  0  0  0  0  0  0
   28.7732  -20.6662   -9.3767 C   0  0  0  0  0  0  0  0  0  0  0  0
   28.6112  -20.7305   -8.0142 C   0  0  0  0  0  0  0  0  0  0  0  0
   27.3434  -20.6487   -7.4913 C   0  0  0  0  0  0  0  0  0  0  0  0
   26.2398  -20.5045   -8.3014 C   0  0  0  0  0  0  0  0  0  0  0  0
   26.4405  -20.4439   -9.6622 C   0  0  0  0  0  0  0  0  0  0  0  0
   27.6954  -20.5214  -10.2396 C   0  0  0  0  0  0  0  0  0  0  0  0
   25.5537  -21.3560  -14.0516 C   0  0  0  0  0  0  0  0  0  0  0  0
   25.7532  -21.4262  -15.2897 O   0  0  0  0  0  0  0  0  0  0  0  0
   24.2548  -20.9531  -13.6246 N   0  0  0  0  0  0  0  0  0  0  0  0
   23.1796  -20.6471  -14.5192 C   0  0  1  0  0  0  0  0  0  0  0  0
   21.9781  -21.4894  -14.1435 C   0  0  0  0  0  0  0  0  0  0  0  0
   20.8150  -21.2799  -15.0159 C   0  0  0  0  0  0  0  0  0  0  0  0
   19.6843  -20.8819  -14.6353 O   0  0  0  0  0  0  0  0  0  0  0  0
   22.8573  -19.2039  -14.4907 C   0  0  0  0  0  0  0  0  0  0  0  0
   22.0201  -18.6937  -13.7074 O   0  0  0  0  0  0  0  0  0  0  0  0
   20.8856  -21.5212  -16.4051 O   0  0  0  0  0  0  0  0  0  0  0  0
   23.5263  -18.3446  -15.3941 N   0  0  0  0  0  0  0  0  0  0  0  0
   23.1967  -16.9245  -15.4010 C   0  0  1  0  0  0  0  0  0  0  0  0
   24.4174  -16.0813  -15.6602 C   0  0  0  0  0  0  0  0  0  0  0  0
   25.2585  -16.7140  -16.7031 C   0  0  0  0  0  0  0  0  0  0  0  0
   26.2883  -17.6318  -16.4543 C   0  0  0  0  0  0  0  0  0  0  0  0
   26.8270  -17.9871  -17.6322 N   0  0  0  0  0  0  0  0  0  0  0  0
   26.1873  -17.3375  -18.6186 C   0  0  0  0  0  0  0  0  0  0  0  0
   25.2478  -16.5777  -18.0327 N   0  0  0  0  0  0  0  0  0  0  0  0
   22.2270  -16.7004  -16.4912 C   0  0  0  0  0  0  0  0  0  0  0  0
   21.8781  -17.7668  -17.3067 O   0  0  0  0  0  0  0  0  0  0  0  0
   21.6826  -15.5843  -16.7376 O   0  0  0  0  0  0  0  0  0  0  0  0
  2  1  1  6
  3  2  1  0
  4  3  1  0
  4  5  2  0
  6  5  1  0
  7  6  1  0
  8  7  2  0
  9  8  1  0
 10  9  2  0
 10 11  1  0
 11 12  2  0
 12  7  1  0
 12  4  1  0
 13  2  1  0
 13 14  2  0
 15 13  1  0
 16 15  1  0
 16 17  1  1
 18 17  1  0
 18 22  1  0
 19 18  2  0
 20 16  1  0
 21 20  2  0
 23 20  1  0
 24 23  1  0
 25 26  1  0
 24 25  1  6
 26 27  2  0
 27 28  1  0
 29 28  1  0
 30 26  1  0
 30 29  2  0
 31 32  1  0
 31 24  1  0
 33 31  2  0
M  END
$$$$
