WDH.pdb
     RDKit          3D

 33 35  0  0  1  0  0  0  0  0999 V2000
   26.2266  -21.3608   -8.1595 N   0  0  0  0  0  0  0  0  0  0  0  0
   26.2783  -19.9796   -8.6456 C   0  0  1  0  0  0  0  0  0  0  0  0
   27.6802  -19.4098   -8.3897 C   0  0  0  0  0  0  0  0  0  0  0  0
   27.9171  -19.2160   -6.9454 C   0  0  0  0  0  0  0  0  0  0  0  0
   27.4719  -18.2195   -6.0982 C   0  0  0  0  0  0  0  0  0  0  0  0
   27.9434  -18.4587   -4.8690 N   0  0  0  0  0  0  0  0  0  0  0  0
   28.6954  -19.5884   -4.8585 C   0  0  0  0  0  0  0  0  0  0  0  0
   29.3789  -20.2361   -3.8586 C   0  0  0  0  0  0  0  0  0  0  0  0
   30.0646  -21.3876   -4.1606 C   0  0  0  0  0  0  0  0  0  0  0  0
   30.0797  -21.9011   -5.4378 C   0  0  0  0  0  0  0  0  0  0  0  0
   29.3835  -21.2248   -6.4144 C   0  0  0  0  0  0  0  0  0  0  0  0
   28.6772  -20.0619   -6.1633 C   0  0  0  0  0  0  0  0  0  0  0  0
   26.1126  -19.9739  -10.1228 C   0  0  0  0  0  0  0  0  0  0  0  0
   26.2290  -18.8939  -10.7536 O   0  0  0  0  0  0  0  0  0  0  0  0
   25.8237  -21.1434  -10.8847 N   0  0  0  0  0  0  0  0  0  0  0  0
   25.3734  -21.1199  -12.2436 C   0  0  1  0  0  0  0  0  0  0  0  0
   26.1491  -22.1546  -13.0322 C   0  0  0  0  0  0  0  0  0  0  0  0
   27.1768  -21.5787  -13.9097 C   0  0  0  0  0  0  0  0  0  0  0  0
   26.9699  -20.7165  -14.8017 O   0  0  0  0  0  0  0  0  0  0  0  0
   23.9162  -21.3592  -12.3261 C   0  0  0  0  0  0  0  0  0  0  0  0
   23.2213  -21.7583  -11.3605 O   0  0  0  0  0  0  0  0  0  0  0  0
   28.5301  -21.9688  -13.8108 O   0  0  0  0  0  0  0  0  0  0  0  0
   23.2626  -21.1273  -13.5595 N   0  0  0  0  0  0  0  0  0  0  0  0
   22.0451  -20.3256  -13.5791 C   0  0  1  0  0  0  0  0  0  0  0  0
   22.3371  -18.8806  -13.2710 C   0  0  0  0  0  0  0  0  0  0  0  0
   21.0757  -18.1038  -13.2402 C   0  0  0  0  0  0  0  0  0  0  0  0
   19.7954  -18.6472  -13.4144 C   0  0  0  0  0  0  0  0  0  0  0  0
   18.9007  -17.6496  -13.3253 N   0  0  0  0  0  0  0  0  0  0  0  0
   19.5530  -16.4967  -13.1025 C   0  0  0  0  0  0  0  0  0  0  0  0
   20.8609  -16.7975  -13.0557 N   0  0  0  0  0  0  0  0  0  0  0  0
   21.4788  -20.4139  -14.9396 C   0  0  0  0  0  0  0  0  0  0  0  0
   20.1060  -20.5487  -15.0859 O   0  0  0  0  0  0  0  0  0  0  0  0
   22.1702  -20.3743  -15.9993 O   0  0  0  0  0  0  0  0  0  0  0  0
  2  1  1  6
  3  2  1  0
  4  3  1  0
  4  5  2  0
  6  5  1  0
  7  6  1  0
  8  7  2  0
  9  8  1  0
 10  9  2  0
 10 11  1  0
 11 12  2  0
 12  7  1  0
 12  4  1  0
 13  2  1  0
 13 14  2  0
 15 13  1  0
 16 15  1  0
 16 17  1  6
 18 17  1  0
 18 22  1  0
 19 18  2  0
 20 16  1  0
 21 20  2  0
 23 20  1  0
 24 23  1  0
 25 26  1  0
 24 25  1  6
 26 27  2  0
 27 28  1  0
 29 28  1  0
 30 26  1  0
 30 29  2  0
 31 32  1  0
 31 24  1  0
 33 31  2  0
M  END
$$$$
