WDH.pdb
     RDKit          3D

 33 35  0  0  1  0  0  0  0  0999 V2000
   25.7497  -22.4399  -10.7825 N   0  0  0  0  0  0  0  0  0  0  0  0
   25.4351  -21.0139  -10.9015 C   0  0  1  0  0  0  0  0  0  0  0  0
   26.6707  -20.2695  -11.4255 C   0  0  0  0  0  0  0  0  0  0  0  0
   27.8387  -20.5029  -10.5530 C   0  0  0  0  0  0  0  0  0  0  0  0
   29.1115  -20.9370  -10.8701 C   0  0  0  0  0  0  0  0  0  0  0  0
   29.8353  -21.0013   -9.7466 N   0  0  0  0  0  0  0  0  0  0  0  0
   29.0901  -20.6235   -8.6772 C   0  0  0  0  0  0  0  0  0  0  0  0
   29.3772  -20.5233   -7.3377 C   0  0  0  0  0  0  0  0  0  0  0  0
   28.3933  -20.1007   -6.4771 C   0  0  0  0  0  0  0  0  0  0  0  0
   27.1335  -19.7780   -6.9286 C   0  0  0  0  0  0  0  0  0  0  0  0
   26.8820  -19.8906   -8.2776 C   0  0  0  0  0  0  0  0  0  0  0  0
   27.8369  -20.3111   -9.1862 C   0  0  0  0  0  0  0  0  0  0  0  0
   24.3904  -20.8280  -11.9424 C   0  0  0  0  0  0  0  0  0  0  0  0
   24.7324  -20.6821  -13.1422 O   0  0  0  0  0  0  0  0  0  0  0  0
   22.9940  -20.8047  -11.6575 N   0  0  0  0  0  0  0  0  0  0  0  0
   21.9786  -20.6393  -12.6533 C   0  0  1  0  0  0  0  0  0  0  0  0
   20.6371  -20.9919  -12.0450 C   0  0  0  0  0  0  0  0  0  0  0  0
   20.5010  -22.4133  -11.7003 C   0  0  0  0  0  0  0  0  0  0  0  0
   20.7562  -23.3747  -12.4700 O   0  0  0  0  0  0  0  0  0  0  0  0
   21.9814  -19.2624  -13.1933 C   0  0  0  0  0  0  0  0  0  0  0  0
   22.8009  -18.3794  -12.8422 O   0  0  0  0  0  0  0  0  0  0  0  0
   20.0542  -22.8205  -10.4245 O   0  0  0  0  0  0  0  0  0  0  0  0
   21.0086  -18.9143  -14.1602 N   0  0  0  0  0  0  0  0  0  0  0  0
   21.3986  -18.0864  -15.2950 C   0  0  1  0  0  0  0  0  0  0  0  0
   22.5953  -18.6618  -16.0057 C   0  0  0  0  0  0  0  0  0  0  0  0
   22.9561  -17.8094  -17.1627 C   0  0  0  0  0  0  0  0  0  0  0  0
   22.3101  -16.6150  -17.5105 C   0  0  0  0  0  0  0  0  0  0  0  0
   22.9043  -16.1215  -18.6092 N   0  0  0  0  0  0  0  0  0  0  0  0
   23.8984  -16.9469  -18.9762 C   0  0  0  0  0  0  0  0  0  0  0  0
   23.9084  -17.9551  -18.0892 N   0  0  0  0  0  0  0  0  0  0  0  0
   20.2599  -18.0573  -16.2339 C   0  0  0  0  0  0  0  0  0  0  0  0
   19.9458  -16.8647  -16.8687 O   0  0  0  0  0  0  0  0  0  0  0  0
   19.5383  -19.0617  -16.5045 O   0  0  0  0  0  0  0  0  0  0  0  0
  2  1  1  6
  3  2  1  0
  4  3  1  0
  4  5  2  0
  6  5  1  0
  7  6  1  0
  8  7  2  0
  9  8  1  0
 10  9  2  0
 10 11  1  0
 11 12  2  0
 12  7  1  0
 12  4  1  0
 13  2  1  0
 13 14  2  0
 15 13  1  0
 16 15  1  0
 16 17  1  1
 18 17  1  0
 18 22  1  0
 19 18  2  0
 20 16  1  0
 21 20  2  0
 23 20  1  0
 24 23  1  0
 25 26  1  0
 24 25  1  6
 26 27  2  0
 27 28  1  0
 29 28  1  0
 30 26  1  0
 30 29  2  0
 31 32  1  0
 31 24  1  0
 33 31  2  0
M  END
$$$$
