DGR.pdb
     RDKit          3D

 24 23  0  0  1  0  0  0  0  0999 V2000
   12.1386  -17.8757   16.7919 N   0  0  0  0  0  0  0  0  0  0  0  0
   10.9110  -17.1598   16.9454 C   0  0  1  0  0  0  0  0  0  0  0  0
    9.8844  -17.6098   15.9282 C   0  0  0  0  0  0  0  0  0  0  0  0
   10.3693  -17.4997   14.5384 C   0  0  0  0  0  0  0  0  0  0  0  0
   11.4981  -17.0313   14.3204 O   0  0  0  0  0  0  0  0  0  0  0  0
   10.3000  -17.3408   18.2829 C   0  0  0  0  0  0  0  0  0  0  0  0
    9.2947  -16.6900   18.6580 O   0  0  0  0  0  0  0  0  0  0  0  0
    9.5318  -17.9304   13.5132 O   0  0  0  0  0  0  0  0  0  0  0  0
   10.8355  -18.2909   19.2444 N   0  0  0  0  0  0  0  0  0  0  0  0
   10.1899  -18.4571   20.5152 C   0  0  0  0  0  0  0  0  0  0  0  0
   10.7146  -17.5163   21.5225 C   0  0  0  0  0  0  0  0  0  0  0  0
   11.3587  -16.4882   21.0768 O   0  0  0  0  0  0  0  0  0  0  0  0
    7.7412  -14.1082   18.9769 N   0  0  0  0  0  0  0  0  0  0  0  0
    7.9619  -12.9849   19.8079 C   0  0  0  0  0  0  0  0  0  0  0  0
    8.4574  -11.8842   19.3439 N   0  0  0  0  0  0  0  0  0  0  0  0
    7.6464  -13.0108   21.2086 N   0  0  0  0  0  0  0  0  0  0  0  0
    7.5742  -14.2513   21.9490 C   0  0  0  0  0  0  0  0  0  0  0  0
    8.9324  -14.6447   22.4880 C   0  0  0  0  0  0  0  0  0  0  0  0
    8.8362  -15.9593   23.2020 C   0  0  0  0  0  0  0  0  0  0  0  0
   10.1788  -16.4136   23.7022 C   0  0  2  0  0  0  0  0  0  0  0  0
   10.5911  -17.6145   22.9167 N   0  0  0  0  0  0  0  0  0  0  0  0
   10.0732  -16.7807   25.1260 C   0  0  0  0  0  0  0  0  0  0  0  0
   10.7609  -16.0215   26.0610 O   0  0  0  0  0  0  0  0  0  0  0  0
    9.4057  -17.7283   25.5346 O   0  0  0  0  0  0  0  0  0  0  0  0
  2  1  1  1
  2  3  1  0
  3  4  1  0
  4  8  1  0
  4  5  2  0
  6  7  2  0
  6  2  1  0
  9  6  1  0
 10 11  1  0
 10  9  1  0
 11 21  1  0
 12 11  2  0
 14 13  1  0
 14 16  1  0
 15 14  2  0
 17 18  1  0
 17 16  1  0
 20 19  1  6
 19 18  1  0
 21 20  1  0
 22 20  1  0
 22 23  1  0
 24 22  2  0
M  END
$$$$
