DGR.pdb
     RDKit          3D

 24 23  0  0  1  0  0  0  0  0999 V2000
    7.5632  -17.5957   17.6395 N   0  0  0  0  0  0  0  0  0  0  0  0
    8.7914  -17.0259   18.0978 C   0  0  1  0  0  0  0  0  0  0  0  0
    9.6020  -16.4734   16.9450 C   0  0  0  0  0  0  0  0  0  0  0  0
   10.1679  -17.5309   16.0846 C   0  0  0  0  0  0  0  0  0  0  0  0
    9.5464  -17.8933   15.0729 O   0  0  0  0  0  0  0  0  0  0  0  0
    8.5903  -15.9131   19.0550 C   0  0  0  0  0  0  0  0  0  0  0  0
    9.5447  -15.3510   19.6449 O   0  0  0  0  0  0  0  0  0  0  0  0
   11.3915  -18.0882   16.4455 O   0  0  0  0  0  0  0  0  0  0  0  0
    7.2641  -15.4053   19.3675 N   0  0  0  0  0  0  0  0  0  0  0  0
    7.1085  -14.3951   20.3747 C   0  0  0  0  0  0  0  0  0  0  0  0
    7.2351  -14.9536   21.7338 C   0  0  0  0  0  0  0  0  0  0  0  0
    6.2841  -15.7330   22.1321 O   0  0  0  0  0  0  0  0  0  0  0  0
   10.2104  -18.2099   21.8221 N   0  0  0  0  0  0  0  0  0  0  0  0
   11.2083  -18.6696   22.7130 C   0  0  0  0  0  0  0  0  0  0  0  0
   12.1529  -19.4624   22.3236 N   0  0  0  0  0  0  0  0  0  0  0  0
   11.2224  -18.2784   24.0947 N   0  0  0  0  0  0  0  0  0  0  0  0
   10.2407  -17.3646   24.6363 C   0  0  0  0  0  0  0  0  0  0  0  0
   10.5758  -15.9318   24.2831 C   0  0  0  0  0  0  0  0  0  0  0  0
    9.4742  -15.0233   24.7396 C   0  0  0  0  0  0  0  0  0  0  0  0
    8.1878  -15.3121   24.0180 C   0  0  2  0  0  0  0  0  0  0  0  0
    8.2782  -14.7315   22.6456 N   0  0  0  0  0  0  0  0  0  0  0  0
    7.0685  -14.6780   24.7379 C   0  0  0  0  0  0  0  0  0  0  0  0
    6.3464  -15.4380   25.6459 O   0  0  0  0  0  0  0  0  0  0  0  0
    6.7364  -13.5055   24.5781 O   0  0  0  0  0  0  0  0  0  0  0  0
  2  1  1  6
  2  3  1  0
  3  4  1  0
  4  8  1  0
  4  5  2  0
  6  7  2  0
  6  2  1  0
  9  6  1  0
 10 11  1  0
 10  9  1  0
 11 21  1  0
 12 11  2  0
 14 13  1  0
 14 16  1  0
 15 14  2  0
 17 18  1  0
 17 16  1  0
 20 19  1  1
 19 18  1  0
 21 20  1  0
 22 20  1  0
 22 23  1  0
 24 22  2  0
M  END
$$$$
