DGR.pdb
     RDKit          3D

 24 23  0  0  1  0  0  0  0  0999 V2000
   11.9683  -20.6693   25.0702 N   0  0  0  0  0  0  0  0  0  0  0  0
   12.6622  -20.3008   23.8761 C   0  0  1  0  0  0  0  0  0  0  0  0
   12.2408  -21.1675   22.7088 C   0  0  0  0  0  0  0  0  0  0  0  0
   11.3790  -22.2950   23.1149 C   0  0  0  0  0  0  0  0  0  0  0  0
   11.0956  -22.4465   24.3140 O   0  0  0  0  0  0  0  0  0  0  0  0
   12.4201  -18.8945   23.4778 C   0  0  0  0  0  0  0  0  0  0  0  0
   12.9534  -18.3798   22.4651 O   0  0  0  0  0  0  0  0  0  0  0  0
   10.9118  -23.1556   22.1255 O   0  0  0  0  0  0  0  0  0  0  0  0
   11.5432  -18.0242   24.2444 N   0  0  0  0  0  0  0  0  0  0  0  0
   11.3407  -16.6678   23.8217 C   0  0  0  0  0  0  0  0  0  0  0  0
    9.9106  -16.3626   23.6296 C   0  0  0  0  0  0  0  0  0  0  0  0
    9.0935  -17.3634   23.6642 O   0  0  0  0  0  0  0  0  0  0  0  0
   10.3470  -15.7444   28.1883 N   0  0  0  0  0  0  0  0  0  0  0  0
    9.6217  -14.5340   28.2870 C   0  0  0  0  0  0  0  0  0  0  0  0
    9.9508  -13.6125   29.1326 N   0  0  0  0  0  0  0  0  0  0  0  0
    8.4835  -14.2678   27.4527 N   0  0  0  0  0  0  0  0  0  0  0  0
    8.6063  -14.1402   26.0172 C   0  0  0  0  0  0  0  0  0  0  0  0
    7.2792  -13.7788   25.3862 C   0  0  0  0  0  0  0  0  0  0  0  0
    7.4343  -13.6709   23.8991 C   0  0  0  0  0  0  0  0  0  0  0  0
    7.8537  -14.9808   23.2929 C   0  0  2  0  0  0  0  0  0  0  0  0
    9.3370  -15.1006   23.4128 N   0  0  0  0  0  0  0  0  0  0  0  0
    7.4811  -15.0028   21.8667 C   0  0  0  0  0  0  0  0  0  0  0  0
    6.1798  -15.3393   21.5247 O   0  0  0  0  0  0  0  0  0  0  0  0
    8.2638  -14.7381   20.9569 O   0  0  0  0  0  0  0  0  0  0  0  0
  2  1  1  1
  2  3  1  0
  3  4  1  0
  4  8  1  0
  4  5  2  0
  6  7  2  0
  6  2  1  0
  9  6  1  0
 10 11  1  0
 10  9  1  0
 11 21  1  0
 12 11  2  0
 14 13  1  0
 14 16  1  0
 15 14  2  0
 17 18  1  0
 17 16  1  0
 20 19  1  6
 19 18  1  0
 21 20  1  0
 22 20  1  0
 22 23  1  0
 24 22  2  0
M  END
$$$$
