DGR.pdb
     RDKit          3D

 24 23  0  0  1  0  0  0  0  0999 V2000
   12.4288  -17.0668   18.0651 N   0  0  0  0  0  0  0  0  0  0  0  0
   13.2201  -18.2295   18.3200 C   0  0  1  0  0  0  0  0  0  0  0  0
   14.5907  -18.1076   17.6891 C   0  0  0  0  0  0  0  0  0  0  0  0
   14.5328  -17.7369   16.2615 C   0  0  0  0  0  0  0  0  0  0  0  0
   14.5319  -16.5375   15.9412 O   0  0  0  0  0  0  0  0  0  0  0  0
   13.4318  -18.4788   19.7649 C   0  0  0  0  0  0  0  0  0  0  0  0
   14.1917  -19.3834   20.1883 O   0  0  0  0  0  0  0  0  0  0  0  0
   14.4803  -18.7590   15.3179 O   0  0  0  0  0  0  0  0  0  0  0  0
   12.7653  -17.6825   20.7826 N   0  0  0  0  0  0  0  0  0  0  0  0
   13.0053  -17.9569   22.1706 C   0  0  0  0  0  0  0  0  0  0  0  0
   12.1115  -17.1751   23.0452 C   0  0  0  0  0  0  0  0  0  0  0  0
   12.6563  -16.2252   23.7319 O   0  0  0  0  0  0  0  0  0  0  0  0
   10.0975  -13.0845   19.2437 N   0  0  0  0  0  0  0  0  0  0  0  0
    8.6994  -13.2762   19.3405 C   0  0  0  0  0  0  0  0  0  0  0  0
    7.8720  -12.6317   18.5840 N   0  0  0  0  0  0  0  0  0  0  0  0
    8.1289  -14.1967   20.2837 N   0  0  0  0  0  0  0  0  0  0  0  0
    8.3413  -14.0556   21.7075 C   0  0  0  0  0  0  0  0  0  0  0  0
    7.7128  -15.2023   22.4690 C   0  0  0  0  0  0  0  0  0  0  0  0
    8.6318  -16.3865   22.4573 C   0  0  0  0  0  0  0  0  0  0  0  0
    9.8462  -16.1494   23.3106 C   0  0  2  0  0  0  0  0  0  0  0  0
   10.7296  -17.3491   23.2146 N   0  0  0  0  0  0  0  0  0  0  0  0
    9.4318  -15.9658   24.7133 C   0  0  0  0  0  0  0  0  0  0  0  0
    9.8546  -16.8893   25.6577 O   0  0  0  0  0  0  0  0  0  0  0  0
    8.7277  -15.0341   25.0964 O   0  0  0  0  0  0  0  0  0  0  0  0
  2  1  1  1
  2  3  1  0
  3  4  1  0
  4  8  1  0
  4  5  2  0
  6  7  2  0
  6  2  1  0
  9  6  1  0
 10 11  1  0
 10  9  1  0
 11 21  1  0
 12 11  2  0
 14 13  1  0
 14 16  1  0
 15 14  2  0
 17 18  1  0
 17 16  1  0
 20 19  1  6
 19 18  1  0
 21 20  1  0
 22 20  1  0
 22 23  1  0
 24 22  2  0
M  END
$$$$
