DGR.pdb
     RDKit          3D

 24 23  0  0  1  0  0  0  0  0999 V2000
    7.9842  -17.6796   16.5884 N   0  0  0  0  0  0  0  0  0  0  0  0
    7.0641  -18.5344   15.9058 C   0  0  1  0  0  0  0  0  0  0  0  0
    7.7687  -19.3737   14.8615 C   0  0  0  0  0  0  0  0  0  0  0  0
    8.9873  -20.0265   15.3789 C   0  0  0  0  0  0  0  0  0  0  0  0
    9.3082  -19.8673   16.5675 O   0  0  0  0  0  0  0  0  0  0  0  0
    6.3657  -19.4738   16.8138 C   0  0  0  0  0  0  0  0  0  0  0  0
    5.3662  -20.1417   16.4534 O   0  0  0  0  0  0  0  0  0  0  0  0
    9.7392  -20.8048   14.5031 O   0  0  0  0  0  0  0  0  0  0  0  0
    6.8030  -19.6766   18.1856 N   0  0  0  0  0  0  0  0  0  0  0  0
    6.1342  -20.6424   19.0098 C   0  0  0  0  0  0  0  0  0  0  0  0
    6.8151  -20.8206   20.3058 C   0  0  0  0  0  0  0  0  0  0  0  0
    7.5586  -21.8703   20.4315 O   0  0  0  0  0  0  0  0  0  0  0  0
    0.7975  -24.2540   22.7976 N   0  0  0  0  0  0  0  0  0  0  0  0
    2.1190  -24.7497   22.8918 C   0  0  0  0  0  0  0  0  0  0  0  0
    2.3831  -26.0084   22.7561 N   0  0  0  0  0  0  0  0  0  0  0  0
    3.2336  -23.8797   23.1426 N   0  0  0  0  0  0  0  0  0  0  0  0
    3.0513  -22.4736   23.4288 C   0  0  0  0  0  0  0  0  0  0  0  0
    4.3744  -21.8009   23.7234 C   0  0  0  0  0  0  0  0  0  0  0  0
    4.8988  -21.1423   22.4830 C   0  0  0  0  0  0  0  0  0  0  0  0
    6.2422  -20.5116   22.7204 C   0  0  2  0  0  0  0  0  0  0  0  0
    6.7446  -19.9730   21.4217 N   0  0  0  0  0  0  0  0  0  0  0  0
    7.1828  -21.5328   23.2159 C   0  0  0  0  0  0  0  0  0  0  0  0
    7.9309  -21.2532   24.3498 O   0  0  0  0  0  0  0  0  0  0  0  0
    7.3431  -22.6259   22.6775 O   0  0  0  0  0  0  0  0  0  0  0  0
  2  1  1  1
  2  3  1  0
  3  4  1  0
  4  8  1  0
  4  5  2  0
  6  7  2  0
  6  2  1  0
  9  6  1  0
 10 11  1  0
 10  9  1  0
 11 21  1  0
 12 11  2  0
 14 13  1  0
 14 16  1  0
 15 14  2  0
 17 18  1  0
 17 16  1  0
 20 19  1  6
 19 18  1  0
 21 20  1  0
 22 20  1  0
 22 23  1  0
 24 22  2  0
M  END
$$$$
