DGR.pdb
     RDKit          3D

 24 23  0  0  1  0  0  0  0  0999 V2000
   12.3538  -17.7492   18.0601 N   0  0  0  0  0  0  0  0  0  0  0  0
   11.7304  -18.9937   18.3849 C   0  0  1  0  0  0  0  0  0  0  0  0
   12.6752  -20.1545   18.1585 C   0  0  0  0  0  0  0  0  0  0  0  0
   13.3497  -20.0959   16.8468 C   0  0  0  0  0  0  0  0  0  0  0  0
   13.1282  -19.1387   16.0880 O   0  0  0  0  0  0  0  0  0  0  0  0
   11.2887  -19.0673   19.7971 C   0  0  0  0  0  0  0  0  0  0  0  0
   10.0806  -18.9969   20.1297 O   0  0  0  0  0  0  0  0  0  0  0  0
   14.2186  -21.1291   16.5070 O   0  0  0  0  0  0  0  0  0  0  0  0
   12.2382  -19.2267   20.8866 N   0  0  0  0  0  0  0  0  0  0  0  0
   11.7589  -19.4340   22.2232 C   0  0  0  0  0  0  0  0  0  0  0  0
   11.4828  -18.1581   22.9093 C   0  0  0  0  0  0  0  0  0  0  0  0
   12.3748  -17.2303   22.7909 O   0  0  0  0  0  0  0  0  0  0  0  0
    6.5653  -13.0577   19.7974 N   0  0  0  0  0  0  0  0  0  0  0  0
    7.9133  -13.2661   19.4227 C   0  0  0  0  0  0  0  0  0  0  0  0
    8.3837  -12.8194   18.3040 N   0  0  0  0  0  0  0  0  0  0  0  0
    8.8271  -13.9842   20.2664 N   0  0  0  0  0  0  0  0  0  0  0  0
    8.4264  -14.4967   21.5583 C   0  0  0  0  0  0  0  0  0  0  0  0
    9.5787  -15.1919   22.2505 C   0  0  0  0  0  0  0  0  0  0  0  0
    9.1224  -15.7484   23.5655 C   0  0  0  0  0  0  0  0  0  0  0  0
   10.2334  -16.4738   24.2716 C   0  0  2  0  0  0  0  0  0  0  0  0
   10.3542  -17.8389   23.6794 N   0  0  0  0  0  0  0  0  0  0  0  0
    9.9069  -16.5958   25.7040 C   0  0  0  0  0  0  0  0  0  0  0  0
   10.0746  -15.4876   26.5209 O   0  0  0  0  0  0  0  0  0  0  0  0
    9.4914  -17.6314   26.2193 O   0  0  0  0  0  0  0  0  0  0  0  0
  2  1  1  1
  2  3  1  0
  3  4  1  0
  4  8  1  0
  4  5  2  0
  6  7  2  0
  6  2  1  0
  9  6  1  0
 10 11  1  0
 10  9  1  0
 11 21  1  0
 12 11  2  0
 14 13  1  0
 14 16  1  0
 15 14  2  0
 17 18  1  0
 17 16  1  0
 20 19  1  6
 19 18  1  0
 21 20  1  0
 22 20  1  0
 22 23  1  0
 24 22  2  0
M  END
$$$$
