DGR.pdb
     RDKit          3D

 24 23  0  0  1  0  0  0  0  0999 V2000
    8.6919  -12.7982   18.0528 N   0  0  0  0  0  0  0  0  0  0  0  0
    7.5484  -13.5943   17.7341 C   0  0  1  0  0  0  0  0  0  0  0  0
    7.5863  -14.0540   16.2923 C   0  0  0  0  0  0  0  0  0  0  0  0
    8.9218  -14.5260   15.8771 C   0  0  0  0  0  0  0  0  0  0  0  0
    9.2479  -14.4620   14.6810 O   0  0  0  0  0  0  0  0  0  0  0  0
    7.4403  -14.8116   18.5714 C   0  0  0  0  0  0  0  0  0  0  0  0
    6.6465  -15.7459   18.3029 O   0  0  0  0  0  0  0  0  0  0  0  0
    9.7744  -15.0312   16.8547 O   0  0  0  0  0  0  0  0  0  0  0  0
    8.2550  -14.9941   19.7618 N   0  0  0  0  0  0  0  0  0  0  0  0
    8.0732  -16.1617   20.5760 C   0  0  0  0  0  0  0  0  0  0  0  0
    8.9068  -16.1160   21.7918 C   0  0  0  0  0  0  0  0  0  0  0  0
   10.1724  -15.9170   21.6209 O   0  0  0  0  0  0  0  0  0  0  0  0
    4.6176  -11.7217   27.8353 N   0  0  0  0  0  0  0  0  0  0  0  0
    5.8513  -11.6176   27.1511 C   0  0  0  0  0  0  0  0  0  0  0  0
    6.3135  -10.4767   26.7549 N   0  0  0  0  0  0  0  0  0  0  0  0
    6.6524  -12.7740   26.8626 N   0  0  0  0  0  0  0  0  0  0  0  0
    7.9700  -12.6593   26.2770 C   0  0  0  0  0  0  0  0  0  0  0  0
    8.6288  -14.0154   26.1466 C   0  0  0  0  0  0  0  0  0  0  0  0
    8.0590  -14.7480   24.9695 C   0  0  0  0  0  0  0  0  0  0  0  0
    9.1299  -15.4647   24.1959 C   0  0  2  0  0  0  0  0  0  0  0  0
    8.4758  -16.2650   23.1187 N   0  0  0  0  0  0  0  0  0  0  0  0
    9.8607  -16.3741   25.0972 C   0  0  0  0  0  0  0  0  0  0  0  0
    9.7643  -17.7410   24.8834 O   0  0  0  0  0  0  0  0  0  0  0  0
   10.5555  -15.9870   26.0341 O   0  0  0  0  0  0  0  0  0  0  0  0
  2  1  1  1
  2  3  1  0
  3  4  1  0
  4  8  1  0
  4  5  2  0
  6  7  2  0
  6  2  1  0
  9  6  1  0
 10 11  1  0
 10  9  1  0
 11 21  1  0
 12 11  2  0
 14 13  1  0
 14 16  1  0
 15 14  2  0
 17 18  1  0
 17 16  1  0
 20 19  1  1
 19 18  1  0
 21 20  1  0
 22 20  1  0
 22 23  1  0
 24 22  2  0
M  END
$$$$
