AHW.pdb
     RDKit          3D

 30 32  0  0  1  0  0  0  0  0999 V2000
   29.4786  -16.7558  -16.8626 C   0  0  0  0  0  0  0  0  0  0  0  0
   28.9179  -18.1211  -16.6145 C   0  0  2  0  0  0  0  0  0  0  0  0
   28.4812  -18.6917  -17.8693 N   0  0  0  0  0  0  0  0  0  0  0  0
   27.8172  -18.1254  -15.6124 C   0  0  0  0  0  0  0  0  0  0  0  0
   28.0237  -17.7093  -14.4438 O   0  0  0  0  0  0  0  0  0  0  0  0
   26.5139  -18.5855  -15.9124 N   0  0  0  0  0  0  0  0  0  0  0  0
   25.4635  -18.6463  -14.9083 C   0  0  1  0  0  0  0  0  0  0  0  0
   24.1270  -18.2691  -15.5196 C   0  0  0  0  0  0  0  0  0  0  0  0
   24.0406  -16.7987  -15.7430 C   0  0  0  0  0  0  0  0  0  0  0  0
   24.9539  -15.8891  -15.2775 C   0  0  0  0  0  0  0  0  0  0  0  0
   24.5033  -14.6750  -15.6995 N   0  0  0  0  0  0  0  0  0  0  0  0
   23.3654  -14.8341  -16.3920 C   0  0  0  0  0  0  0  0  0  0  0  0
   23.0699  -16.1372  -16.4259 N   0  0  0  0  0  0  0  0  0  0  0  0
   25.3433  -20.0191  -14.3841 C   0  0  0  0  0  0  0  0  0  0  0  0
   26.0515  -20.9285  -14.8643 O   0  0  0  0  0  0  0  0  0  0  0  0
   24.4275  -20.2853  -13.3451 N   0  0  0  0  0  0  0  0  0  0  0  0
   24.3212  -21.5840  -12.7129 C   0  0  1  0  0  0  0  0  0  0  0  0
   25.6297  -21.8933  -12.0254 C   0  0  0  0  0  0  0  0  0  0  0  0
   25.7962  -21.1437  -10.7664 C   0  0  0  0  0  0  0  0  0  0  0  0
   24.8596  -20.4368  -10.0476 C   0  0  0  0  0  0  0  0  0  0  0  0
   25.4459  -19.9122   -8.9618 N   0  0  0  0  0  0  0  0  0  0  0  0
   26.7553  -20.2407   -8.9189 C   0  0  0  0  0  0  0  0  0  0  0  0
   27.7644  -19.9520   -8.0256 C   0  0  0  0  0  0  0  0  0  0  0  0
   29.0293  -20.4609   -8.2890 C   0  0  0  0  0  0  0  0  0  0  0  0
   29.2969  -21.2348   -9.4027 C   0  0  0  0  0  0  0  0  0  0  0  0
   28.2433  -21.4862  -10.2557 C   0  0  0  0  0  0  0  0  0  0  0  0
   26.9710  -21.0130  -10.0525 C   0  0  0  0  0  0  0  0  0  0  0  0
   23.1804  -21.5822  -11.8010 C   0  0  0  0  0  0  0  0  0  0  0  0
   22.7240  -22.7700  -11.2603 O   0  0  0  0  0  0  0  0  0  0  0  0
   22.5650  -20.5198  -11.4668 O   0  0  0  0  0  0  0  0  0  0  0  0
  2  1  1  6
  2  3  1  0
  2  4  1  0
  4  5  2  0
  6  4  1  0
  6  7  1  0
  7 14  1  0
  7  8  1  6
  9  8  1  0
 10  9  2  0
 11 12  1  0
 11 10  1  0
 12 13  2  0
 13  9  1  0
 14 15  2  0
 16 17  1  0
 16 14  1  0
 17 28  1  0
 17 18  1  1
 19 18  1  0
 20 19  2  0
 21 22  1  0
 21 20  1  0
 22 27  2  0
 23 22  1  0
 23 24  2  0
 24 25  1  0
 25 26  2  0
 27 19  1  0
 27 26  1  0
 28 30  2  0
 28 29  1  0
M  END
$$$$
