AHW.pdb
     RDKit          3D

 30 32  0  0  1  0  0  0  0  0999 V2000
   19.0146   -6.6209  -19.5203 C   0  0  0  0  0  0  0  0  0  0  0  0
   19.3654   -8.0640  -19.3342 C   0  0  2  0  0  0  0  0  0  0  0  0
   18.8766   -8.8224  -20.4641 N   0  0  0  0  0  0  0  0  0  0  0  0
   18.8584   -8.6259  -18.0524 C   0  0  0  0  0  0  0  0  0  0  0  0
   17.6279   -8.6026  -17.7941 O   0  0  0  0  0  0  0  0  0  0  0  0
   19.7106   -9.2012  -17.0814 N   0  0  0  0  0  0  0  0  0  0  0  0
   19.2097   -9.7072  -15.8131 C   0  0  1  0  0  0  0  0  0  0  0  0
   20.0075  -10.9221  -15.3779 C   0  0  0  0  0  0  0  0  0  0  0  0
   19.6579  -12.1116  -16.2039 C   0  0  0  0  0  0  0  0  0  0  0  0
   18.6491  -12.1420  -17.1309 C   0  0  0  0  0  0  0  0  0  0  0  0
   18.6719  -13.4009  -17.6501 N   0  0  0  0  0  0  0  0  0  0  0  0
   19.6505  -14.1096  -17.0671 C   0  0  0  0  0  0  0  0  0  0  0  0
   20.2651  -13.3268  -16.1747 N   0  0  0  0  0  0  0  0  0  0  0  0
   19.3539   -8.6796  -14.7658 C   0  0  0  0  0  0  0  0  0  0  0  0
   18.7909   -8.8379  -13.6626 O   0  0  0  0  0  0  0  0  0  0  0  0
   20.1280   -7.5298  -15.0264 N   0  0  0  0  0  0  0  0  0  0  0  0
   20.1511   -6.3870  -14.1368 C   0  0  1  0  0  0  0  0  0  0  0  0
   21.3840   -6.4769  -13.2697 C   0  0  0  0  0  0  0  0  0  0  0  0
   22.6301   -6.4661  -14.0584 C   0  0  0  0  0  0  0  0  0  0  0  0
   23.2035   -5.4304  -14.7599 C   0  0  0  0  0  0  0  0  0  0  0  0
   24.3374   -5.8630  -15.3301 N   0  0  0  0  0  0  0  0  0  0  0  0
   24.5542   -7.1637  -15.0380 C   0  0  0  0  0  0  0  0  0  0  0  0
   25.5575   -8.0453  -15.3784 C   0  0  0  0  0  0  0  0  0  0  0  0
   25.4707   -9.3446  -14.8963 C   0  0  0  0  0  0  0  0  0  0  0  0
   24.4239   -9.7681  -14.0990 C   0  0  0  0  0  0  0  0  0  0  0  0
   23.4538   -8.8366  -13.7958 C   0  0  0  0  0  0  0  0  0  0  0  0
   23.4812   -7.5382  -14.2403 C   0  0  0  0  0  0  0  0  0  0  0  0
   20.0944   -5.1611  -14.9286 C   0  0  0  0  0  0  0  0  0  0  0  0
   19.9671   -3.9361  -14.3003 O   0  0  0  0  0  0  0  0  0  0  0  0
   20.1570   -5.1561  -16.1994 O   0  0  0  0  0  0  0  0  0  0  0  0
  2  1  1  6
  2  3  1  0
  2  4  1  0
  4  5  2  0
  6  4  1  0
  6  7  1  0
  7 14  1  0
  7  8  1  1
  9  8  1  0
 10  9  2  0
 11 12  1  0
 11 10  1  0
 12 13  2  0
 13  9  1  0
 14 15  2  0
 16 17  1  0
 16 14  1  0
 17 28  1  0
 17 18  1  6
 19 18  1  0
 20 19  2  0
 21 22  1  0
 21 20  1  0
 22 27  2  0
 23 22  1  0
 23 24  2  0
 24 25  1  0
 25 26  2  0
 27 19  1  0
 27 26  1  0
 28 30  2  0
 28 29  1  0
M  END
$$$$
