AHW.pdb
     RDKit          3D

 30 32  0  0  1  0  0  0  0  0999 V2000
   28.3254  -20.4699  -16.9444 C   0  0  0  0  0  0  0  0  0  0  0  0
   28.3006  -21.1737  -15.6238 C   0  0  2  0  0  0  0  0  0  0  0  0
   27.9777  -22.5676  -15.8331 N   0  0  0  0  0  0  0  0  0  0  0  0
   27.3665  -20.5484  -14.6480 C   0  0  0  0  0  0  0  0  0  0  0  0
   27.5097  -19.3434  -14.3179 O   0  0  0  0  0  0  0  0  0  0  0  0
   26.2956  -21.2567  -14.0551 N   0  0  0  0  0  0  0  0  0  0  0  0
   25.3511  -20.6193  -13.1513 C   0  0  1  0  0  0  0  0  0  0  0  0
   23.9321  -20.8027  -13.6560 C   0  0  0  0  0  0  0  0  0  0  0  0
   23.6544  -19.8942  -14.8036 C   0  0  0  0  0  0  0  0  0  0  0  0
   23.2457  -18.5920  -14.6799 C   0  0  0  0  0  0  0  0  0  0  0  0
   23.1099  -18.1323  -15.9547 N   0  0  0  0  0  0  0  0  0  0  0  0
   23.4213  -19.1090  -16.8200 C   0  0  0  0  0  0  0  0  0  0  0  0
   23.7583  -20.1990  -16.1237 N   0  0  0  0  0  0  0  0  0  0  0  0
   25.4332  -21.2371  -11.8151 C   0  0  0  0  0  0  0  0  0  0  0  0
   25.6281  -22.4663  -11.7133 O   0  0  0  0  0  0  0  0  0  0  0  0
   25.2901  -20.4282  -10.6688 N   0  0  0  0  0  0  0  0  0  0  0  0
   25.3654  -20.9609   -9.3240 C   0  0  1  0  0  0  0  0  0  0  0  0
   26.0606  -19.9497   -8.4440 C   0  0  0  0  0  0  0  0  0  0  0  0
   27.4552  -20.3256   -8.1462 C   0  0  0  0  0  0  0  0  0  0  0  0
   28.3323  -21.0710   -8.9002 C   0  0  0  0  0  0  0  0  0  0  0  0
   29.4998  -21.1652   -8.2474 N   0  0  0  0  0  0  0  0  0  0  0  0
   29.4445  -20.5058   -7.0700 C   0  0  0  0  0  0  0  0  0  0  0  0
   30.3636  -20.3119   -6.0613 C   0  0  0  0  0  0  0  0  0  0  0  0
   29.9696  -19.5639   -4.9596 C   0  0  0  0  0  0  0  0  0  0  0  0
   28.7037  -19.0193   -4.8511 C   0  0  0  0  0  0  0  0  0  0  0  0
   27.8332  -19.2507   -5.8949 C   0  0  0  0  0  0  0  0  0  0  0  0
   28.1606  -19.9807   -7.0103 C   0  0  0  0  0  0  0  0  0  0  0  0
   24.0199  -21.2937   -8.8634 C   0  0  0  0  0  0  0  0  0  0  0  0
   23.8467  -22.0410   -7.7132 O   0  0  0  0  0  0  0  0  0  0  0  0
   22.9686  -20.9248   -9.4779 O   0  0  0  0  0  0  0  0  0  0  0  0
  2  1  1  6
  2  3  1  0
  2  4  1  0
  4  5  2  0
  6  4  1  0
  6  7  1  0
  7 14  1  0
  7  8  1  6
  9  8  1  0
 10  9  2  0
 11 12  1  0
 11 10  1  0
 12 13  2  0
 13  9  1  0
 14 15  2  0
 16 17  1  0
 16 14  1  0
 17 28  1  0
 17 18  1  1
 19 18  1  0
 20 19  2  0
 21 22  1  0
 21 20  1  0
 22 27  2  0
 23 22  1  0
 23 24  2  0
 24 25  1  0
 25 26  2  0
 27 19  1  0
 27 26  1  0
 28 30  2  0
 28 29  1  0
M  END
$$$$
