AHW.pdb
     RDKit          3D

 30 32  0  0  1  0  0  0  0  0999 V2000
   28.9174  -22.5602  -18.2443 C   0  0  0  0  0  0  0  0  0  0  0  0
   28.1216  -21.2954  -18.1601 C   0  0  2  0  0  0  0  0  0  0  0  0
   28.7116  -20.3029  -19.0305 N   0  0  0  0  0  0  0  0  0  0  0  0
   27.9931  -20.7798  -16.7697 C   0  0  0  0  0  0  0  0  0  0  0  0
   28.9152  -20.9708  -15.9362 O   0  0  0  0  0  0  0  0  0  0  0  0
   26.8571  -20.0659  -16.3225 N   0  0  0  0  0  0  0  0  0  0  0  0
   26.7393  -19.5719  -14.9597 C   0  0  1  0  0  0  0  0  0  0  0  0
   26.0663  -18.2121  -14.9478 C   0  0  0  0  0  0  0  0  0  0  0  0
   26.9541  -17.1743  -15.5428 C   0  0  0  0  0  0  0  0  0  0  0  0
   28.2350  -17.4038  -15.9725 C   0  0  0  0  0  0  0  0  0  0  0  0
   28.6806  -16.2047  -16.4402 N   0  0  0  0  0  0  0  0  0  0  0  0
   27.7160  -15.2825  -16.3030 C   0  0  0  0  0  0  0  0  0  0  0  0
   26.6478  -15.8670  -15.7517 N   0  0  0  0  0  0  0  0  0  0  0  0
   25.9076  -20.4889  -14.1590 C   0  0  0  0  0  0  0  0  0  0  0  0
   24.8846  -20.9962  -14.6641 O   0  0  0  0  0  0  0  0  0  0  0  0
   26.2811  -20.7803  -12.8306 N   0  0  0  0  0  0  0  0  0  0  0  0
   25.5516  -21.7190  -12.0033 C   0  0  1  0  0  0  0  0  0  0  0  0
   26.4129  -22.0873  -10.8190 C   0  0  0  0  0  0  0  0  0  0  0  0
   26.4040  -21.0499   -9.7709 C   0  0  0  0  0  0  0  0  0  0  0  0
   25.3791  -20.2177   -9.3830 C   0  0  0  0  0  0  0  0  0  0  0  0
   25.8092  -19.4280   -8.3883 N   0  0  0  0  0  0  0  0  0  0  0  0
   27.0978  -19.6973   -8.0864 C   0  0  0  0  0  0  0  0  0  0  0  0
   27.9724  -19.1705   -7.1605 C   0  0  0  0  0  0  0  0  0  0  0  0
   29.2592  -19.6903   -7.1145 C   0  0  0  0  0  0  0  0  0  0  0  0
   29.6772  -20.7031   -7.9573 C   0  0  0  0  0  0  0  0  0  0  0  0
   28.7531  -21.1853   -8.8598 C   0  0  0  0  0  0  0  0  0  0  0  0
   27.4672  -20.7149   -8.9558 C   0  0  0  0  0  0  0  0  0  0  0  0
   24.2720  -21.1281  -11.6206 C   0  0  0  0  0  0  0  0  0  0  0  0
   23.2063  -21.9420  -11.2838 O   0  0  0  0  0  0  0  0  0  0  0  0
   24.0766  -19.8715  -11.5786 O   0  0  0  0  0  0  0  0  0  0  0  0
  2  1  1  1
  2  3  1  0
  2  4  1  0
  4  5  2  0
  6  4  1  0
  6  7  1  0
  7 14  1  0
  7  8  1  6
  9  8  1  0
 10  9  2  0
 11 12  1  0
 11 10  1  0
 12 13  2  0
 13  9  1  0
 14 15  2  0
 16 17  1  0
 16 14  1  0
 17 28  1  0
 17 18  1  1
 19 18  1  0
 20 19  2  0
 21 22  1  0
 21 20  1  0
 22 27  2  0
 23 22  1  0
 23 24  2  0
 24 25  1  0
 25 26  2  0
 27 19  1  0
 27 26  1  0
 28 30  2  0
 28 29  1  0
M  END
$$$$
