AHW.pdb
     RDKit          3D

 30 32  0  0  1  0  0  0  0  0999 V2000
   29.9257  -22.2361  -18.6477 C   0  0  0  0  0  0  0  0  0  0  0  0
   28.6498  -22.5479  -17.9301 C   0  0  2  0  0  0  0  0  0  0  0  0
   27.5304  -22.2173  -18.7836 N   0  0  0  0  0  0  0  0  0  0  0  0
   28.5398  -21.8625  -16.6133 C   0  0  0  0  0  0  0  0  0  0  0  0
   29.4542  -21.9839  -15.7585 O   0  0  0  0  0  0  0  0  0  0  0  0
   27.4304  -21.0591  -16.2615 N   0  0  0  0  0  0  0  0  0  0  0  0
   27.3439  -20.3756  -14.9806 C   0  0  1  0  0  0  0  0  0  0  0  0
   27.0857  -18.8951  -15.1890 C   0  0  0  0  0  0  0  0  0  0  0  0
   28.1985  -18.2637  -15.9523 C   0  0  0  0  0  0  0  0  0  0  0  0
   29.4802  -18.1303  -15.4861 C   0  0  0  0  0  0  0  0  0  0  0  0
   30.1661  -17.5084  -16.4850 N   0  0  0  0  0  0  0  0  0  0  0  0
   29.3415  -17.2717  -17.5164 C   0  0  0  0  0  0  0  0  0  0  0  0
   28.1270  -17.7321  -17.2008 N   0  0  0  0  0  0  0  0  0  0  0  0
   26.2221  -20.9179  -14.1924 C   0  0  0  0  0  0  0  0  0  0  0  0
   25.1990  -21.3317  -14.7765 O   0  0  0  0  0  0  0  0  0  0  0  0
   26.3217  -20.9614  -12.7863 N   0  0  0  0  0  0  0  0  0  0  0  0
   25.2833  -21.5240  -11.9478 C   0  0  1  0  0  0  0  0  0  0  0  0
   25.9221  -22.0773  -10.6964 C   0  0  0  0  0  0  0  0  0  0  0  0
   26.2884  -21.0203   -9.7356 C   0  0  0  0  0  0  0  0  0  0  0  0
   25.5134  -20.0022   -9.2291 C   0  0  0  0  0  0  0  0  0  0  0  0
   26.2514  -19.2706   -8.3817 N   0  0  0  0  0  0  0  0  0  0  0  0
   27.5073  -19.7599   -8.2954 C   0  0  0  0  0  0  0  0  0  0  0  0
   28.6168  -19.3700   -7.5766 C   0  0  0  0  0  0  0  0  0  0  0  0
   29.7799  -20.1140   -7.7244 C   0  0  0  0  0  0  0  0  0  0  0  0
   29.8519  -21.2144   -8.5580 C   0  0  0  0  0  0  0  0  0  0  0  0
   28.7066  -21.5506   -9.2479 C   0  0  0  0  0  0  0  0  0  0  0  0
   27.5264  -20.8571   -9.1460 C   0  0  0  0  0  0  0  0  0  0  0  0
   24.2790  -20.4994  -11.6745 C   0  0  0  0  0  0  0  0  0  0  0  0
   23.0097  -20.8651  -11.2664 O   0  0  0  0  0  0  0  0  0  0  0  0
   24.5124  -19.2543  -11.7943 O   0  0  0  0  0  0  0  0  0  0  0  0
  2  1  1  6
  2  3  1  0
  2  4  1  0
  4  5  2  0
  6  4  1  0
  6  7  1  0
  7 14  1  0
  7  8  1  6
  9  8  1  0
 10  9  2  0
 11 12  1  0
 11 10  1  0
 12 13  2  0
 13  9  1  0
 14 15  2  0
 16 17  1  0
 16 14  1  0
 17 28  1  0
 17 18  1  1
 19 18  1  0
 20 19  2  0
 21 22  1  0
 21 20  1  0
 22 27  2  0
 23 22  1  0
 23 24  2  0
 24 25  1  0
 25 26  2  0
 27 19  1  0
 27 26  1  0
 28 30  2  0
 28 29  1  0
M  END
$$$$
