AHW.pdb
     RDKit          3D

 30 32  0  0  1  0  0  0  0  0999 V2000
   23.6668   -0.0306  -20.4543 C   0  0  0  0  0  0  0  0  0  0  0  0
   23.4308   -1.4764  -20.7612 C   0  0  2  0  0  0  0  0  0  0  0  0
   22.4372   -1.5853  -21.8060 N   0  0  0  0  0  0  0  0  0  0  0  0
   23.0383   -2.2693  -19.5641 C   0  0  0  0  0  0  0  0  0  0  0  0
   22.3708   -1.7347  -18.6420 O   0  0  0  0  0  0  0  0  0  0  0  0
   23.3855   -3.6308  -19.4032 N   0  0  0  0  0  0  0  0  0  0  0  0
   22.6758   -4.5082  -18.4857 C   0  0  1  0  0  0  0  0  0  0  0  0
   21.2157   -4.6173  -18.8834 C   0  0  0  0  0  0  0  0  0  0  0  0
   20.4504   -5.4136  -17.8835 C   0  0  0  0  0  0  0  0  0  0  0  0
   20.9976   -5.9835  -16.7639 C   0  0  0  0  0  0  0  0  0  0  0  0
   19.9649   -6.6101  -16.1347 N   0  0  0  0  0  0  0  0  0  0  0  0
   18.8362   -6.4320  -16.8375 C   0  0  0  0  0  0  0  0  0  0  0  0
   19.1219   -5.6968  -17.9166 N   0  0  0  0  0  0  0  0  0  0  0  0
   23.2539   -5.8636  -18.5324 C   0  0  0  0  0  0  0  0  0  0  0  0
   23.4276   -6.4241  -19.6346 O   0  0  0  0  0  0  0  0  0  0  0  0
   23.6033   -6.5088  -17.3280 N   0  0  0  0  0  0  0  0  0  0  0  0
   24.3140   -7.7704  -17.2966 C   0  0  1  0  0  0  0  0  0  0  0  0
   24.9370   -7.9381  -15.9313 C   0  0  0  0  0  0  0  0  0  0  0  0
   24.0043   -8.5306  -14.9548 C   0  0  0  0  0  0  0  0  0  0  0  0
   23.8397   -9.8508  -14.6032 C   0  0  0  0  0  0  0  0  0  0  0  0
   22.8791   -9.9392  -13.6719 N   0  0  0  0  0  0  0  0  0  0  0  0
   22.3835   -8.7176  -13.3779 C   0  0  0  0  0  0  0  0  0  0  0  0
   21.4056   -8.2888  -12.5064 C   0  0  0  0  0  0  0  0  0  0  0  0
   21.1376   -6.9274  -12.4510 C   0  0  0  0  0  0  0  0  0  0  0  0
   21.8136   -6.0091  -13.2325 C   0  0  0  0  0  0  0  0  0  0  0  0
   22.7795   -6.5043  -14.0826 C   0  0  0  0  0  0  0  0  0  0  0  0
   23.0917   -7.8370  -14.1846 C   0  0  0  0  0  0  0  0  0  0  0  0
   23.3926   -8.8493  -17.6433 C   0  0  0  0  0  0  0  0  0  0  0  0
   23.8806  -10.0448  -18.1373 O   0  0  0  0  0  0  0  0  0  0  0  0
   22.1309   -8.7485  -17.5133 O   0  0  0  0  0  0  0  0  0  0  0  0
  2  1  1  1
  2  3  1  0
  2  4  1  0
  4  5  2  0
  6  4  1  0
  6  7  1  0
  7 14  1  0
  7  8  1  6
  9  8  1  0
 10  9  2  0
 11 12  1  0
 11 10  1  0
 12 13  2  0
 13  9  1  0
 14 15  2  0
 16 17  1  0
 16 14  1  0
 17 28  1  0
 17 18  1  1
 19 18  1  0
 20 19  2  0
 21 22  1  0
 21 20  1  0
 22 27  2  0
 23 22  1  0
 23 24  2  0
 24 25  1  0
 25 26  2  0
 27 19  1  0
 27 26  1  0
 28 30  2  0
 28 29  1  0
M  END
$$$$
