AHW.pdb
     RDKit          3D

 30 32  0  0  1  0  0  0  0  0999 V2000
   23.8565  -20.8269   -9.4553 C   0  0  0  0  0  0  0  0  0  0  0  0
   25.2989  -20.8943   -9.8490 C   0  0  2  0  0  0  0  0  0  0  0  0
   26.0996  -20.2422   -8.8369 N   0  0  0  0  0  0  0  0  0  0  0  0
   25.5627  -20.3164  -11.1952 C   0  0  0  0  0  0  0  0  0  0  0  0
   25.0592  -19.2103  -11.5187 O   0  0  0  0  0  0  0  0  0  0  0  0
   26.3725  -20.9628  -12.1578 N   0  0  0  0  0  0  0  0  0  0  0  0
   26.5603  -20.4281  -13.4972 C   0  0  1  0  0  0  0  0  0  0  0  0
   27.7510  -21.0885  -14.1666 C   0  0  0  0  0  0  0  0  0  0  0  0
   27.9734  -20.5282  -15.5290 C   0  0  0  0  0  0  0  0  0  0  0  0
   27.1772  -19.5800  -16.1164 C   0  0  0  0  0  0  0  0  0  0  0  0
   27.7277  -19.3531  -17.3414 N   0  0  0  0  0  0  0  0  0  0  0  0
   28.8120  -20.1276  -17.4970 C   0  0  0  0  0  0  0  0  0  0  0  0
   28.9739  -20.8558  -16.3879 N   0  0  0  0  0  0  0  0  0  0  0  0
   25.3720  -20.7060  -14.3244 C   0  0  0  0  0  0  0  0  0  0  0  0
   24.8406  -21.8352  -14.2836 O   0  0  0  0  0  0  0  0  0  0  0  0
   24.8517  -19.6894  -15.1518 N   0  0  0  0  0  0  0  0  0  0  0  0
   23.5625  -19.7973  -15.8032 C   0  0  1  0  0  0  0  0  0  0  0  0
   22.8171  -18.4978  -15.6135 C   0  0  0  0  0  0  0  0  0  0  0  0
   23.4313  -17.3818  -16.3565 C   0  0  0  0  0  0  0  0  0  0  0  0
   23.0567  -16.8313  -17.5607 C   0  0  0  0  0  0  0  0  0  0  0  0
   23.8966  -15.8312  -17.8648 N   0  0  0  0  0  0  0  0  0  0  0  0
   24.8333  -15.6835  -16.9031 C   0  0  0  0  0  0  0  0  0  0  0  0
   25.8944  -14.8165  -16.7547 C   0  0  0  0  0  0  0  0  0  0  0  0
   26.6794  -14.9408  -15.6161 C   0  0  0  0  0  0  0  0  0  0  0  0
   26.4285  -15.8934  -14.6464 C   0  0  0  0  0  0  0  0  0  0  0  0
   25.3520  -16.7289  -14.8560 C   0  0  0  0  0  0  0  0  0  0  0  0
   24.5381  -16.6579  -15.9590 C   0  0  0  0  0  0  0  0  0  0  0  0
   23.7618  -20.1448  -17.2077 C   0  0  0  0  0  0  0  0  0  0  0  0
   22.6884  -20.5467  -17.9807 O   0  0  0  0  0  0  0  0  0  0  0  0
   24.8992  -20.0976  -17.7762 O   0  0  0  0  0  0  0  0  0  0  0  0
  2  1  1  1
  2  3  1  0
  2  4  1  0
  4  5  2  0
  6  4  1  0
  6  7  1  0
  7 14  1  0
  7  8  1  6
  9  8  1  0
 10  9  2  0
 11 12  1  0
 11 10  1  0
 12 13  2  0
 13  9  1  0
 14 15  2  0
 16 17  1  0
 16 14  1  0
 17 28  1  0
 17 18  1  6
 19 18  1  0
 20 19  2  0
 21 22  1  0
 21 20  1  0
 22 27  2  0
 23 22  1  0
 23 24  2  0
 24 25  1  0
 25 26  2  0
 27 19  1  0
 27 26  1  0
 28 30  2  0
 28 29  1  0
M  END
$$$$
