AHW.pdb
     RDKit          3D

 30 32  0  0  1  0  0  0  0  0999 V2000
   27.4676  -19.5723  -15.9817 C   0  0  0  0  0  0  0  0  0  0  0  0
   26.5649  -20.6075  -15.3871 C   0  0  2  0  0  0  0  0  0  0  0  0
   25.5713  -20.9912  -16.3651 N   0  0  0  0  0  0  0  0  0  0  0  0
   25.9243  -20.1626  -14.1192 C   0  0  0  0  0  0  0  0  0  0  0  0
   25.8605  -18.9385  -13.8381 O   0  0  0  0  0  0  0  0  0  0  0  0
   25.3676  -21.0685  -13.1868 N   0  0  0  0  0  0  0  0  0  0  0  0
   24.7547  -20.6234  -11.9452 C   0  0  1  0  0  0  0  0  0  0  0  0
   23.3209  -21.1125  -11.8598 C   0  0  0  0  0  0  0  0  0  0  0  0
   22.4395  -20.3384  -12.7781 C   0  0  0  0  0  0  0  0  0  0  0  0
   21.8866  -20.8398  -13.9274 C   0  0  0  0  0  0  0  0  0  0  0  0
   21.1614  -19.8159  -14.4572 N   0  0  0  0  0  0  0  0  0  0  0  0
   21.2657  -18.7361  -13.6680 C   0  0  0  0  0  0  0  0  0  0  0  0
   22.0501  -19.0450  -12.6307 N   0  0  0  0  0  0  0  0  0  0  0  0
   25.4857  -21.1797  -10.7920 C   0  0  0  0  0  0  0  0  0  0  0  0
   25.6269  -22.4159  -10.6873 O   0  0  0  0  0  0  0  0  0  0  0  0
   26.0162  -20.3045   -9.8216 N   0  0  0  0  0  0  0  0  0  0  0  0
   26.7679  -20.7737   -8.6759 C   0  0  1  0  0  0  0  0  0  0  0  0
   27.8278  -19.7507   -8.3439 C   0  0  0  0  0  0  0  0  0  0  0  0
   28.6428  -20.1409   -7.1784 C   0  0  0  0  0  0  0  0  0  0  0  0
   29.5853  -21.1381   -7.0740 C   0  0  0  0  0  0  0  0  0  0  0  0
   30.0838  -21.1404   -5.8292 N   0  0  0  0  0  0  0  0  0  0  0  0
   29.5087  -20.1738   -5.0814 C   0  0  0  0  0  0  0  0  0  0  0  0
   29.6752  -19.7801   -3.7711 C   0  0  0  0  0  0  0  0  0  0  0  0
   28.9036  -18.7223   -3.3085 C   0  0  0  0  0  0  0  0  0  0  0  0
   27.9905  -18.0669   -4.1132 C   0  0  0  0  0  0  0  0  0  0  0  0
   27.8731  -18.5104   -5.4133 C   0  0  0  0  0  0  0  0  0  0  0  0
   28.6056  -19.5493   -5.9312 C   0  0  0  0  0  0  0  0  0  0  0  0
   25.8487  -21.0274   -7.5696 C   0  0  0  0  0  0  0  0  0  0  0  0
   24.6039  -20.4261   -7.5517 O   0  0  0  0  0  0  0  0  0  0  0  0
   26.1367  -21.7915   -6.5938 O   0  0  0  0  0  0  0  0  0  0  0  0
  2  1  1  6
  2  3  1  0
  2  4  1  0
  4  5  2  0
  6  4  1  0
  6  7  1  0
  7 14  1  0
  7  8  1  6
  9  8  1  0
 10  9  2  0
 11 12  1  0
 11 10  1  0
 12 13  2  0
 13  9  1  0
 14 15  2  0
 16 17  1  0
 16 14  1  0
 17 28  1  0
 17 18  1  1
 19 18  1  0
 20 19  2  0
 21 22  1  0
 21 20  1  0
 22 27  2  0
 23 22  1  0
 23 24  2  0
 24 25  1  0
 25 26  2  0
 27 19  1  0
 27 26  1  0
 28 30  2  0
 28 29  1  0
M  END
$$$$
