AHW.pdb
     RDKit          3D

 30 32  0  0  1  0  0  0  0  0999 V2000
   23.2348  -20.1086  -21.2479 C   0  0  0  0  0  0  0  0  0  0  0  0
   23.1384  -18.8731  -20.4087 C   0  0  2  0  0  0  0  0  0  0  0  0
   23.7065  -17.7590  -21.1346 N   0  0  0  0  0  0  0  0  0  0  0  0
   23.7787  -19.0246  -19.0735 C   0  0  0  0  0  0  0  0  0  0  0  0
   25.0217  -18.8813  -18.9479 O   0  0  0  0  0  0  0  0  0  0  0  0
   23.0432  -19.3300  -17.9048 N   0  0  0  0  0  0  0  0  0  0  0  0
   23.6670  -19.3992  -16.5927 C   0  0  1  0  0  0  0  0  0  0  0  0
   23.7047  -18.0238  -15.9534 C   0  0  0  0  0  0  0  0  0  0  0  0
   22.3576  -17.3880  -15.9801 C   0  0  0  0  0  0  0  0  0  0  0  0
   21.2485  -17.9462  -16.5599 C   0  0  0  0  0  0  0  0  0  0  0  0
   20.2444  -17.0478  -16.3603 N   0  0  0  0  0  0  0  0  0  0  0  0
   20.7175  -15.9873  -15.6886 C   0  0  0  0  0  0  0  0  0  0  0  0
   22.0175  -16.1846  -15.4485 N   0  0  0  0  0  0  0  0  0  0  0  0
   22.8861  -20.2822  -15.7071 C   0  0  0  0  0  0  0  0  0  0  0  0
   21.6653  -20.4427  -15.9141 O   0  0  0  0  0  0  0  0  0  0  0  0
   23.5318  -20.9343  -14.6361 N   0  0  0  0  0  0  0  0  0  0  0  0
   22.8289  -21.8016  -13.7133 C   0  0  1  0  0  0  0  0  0  0  0  0
   23.8451  -22.5120  -12.8515 C   0  0  0  0  0  0  0  0  0  0  0  0
   24.7820  -21.5788  -12.1988 C   0  0  0  0  0  0  0  0  0  0  0  0
   24.7169  -21.0219  -10.9422 C   0  0  0  0  0  0  0  0  0  0  0  0
   25.7830  -20.2293  -10.7590 N   0  0  0  0  0  0  0  0  0  0  0  0
   26.5734  -20.2294  -11.8542 C   0  0  0  0  0  0  0  0  0  0  0  0
   27.7568  -19.5901  -12.1550 C   0  0  0  0  0  0  0  0  0  0  0  0
   28.3168  -19.8162  -13.4054 C   0  0  0  0  0  0  0  0  0  0  0  0
   27.7289  -20.6501  -14.3381 C   0  0  0  0  0  0  0  0  0  0  0  0
   26.5466  -21.2585  -13.9738 C   0  0  0  0  0  0  0  0  0  0  0  0
   25.9421  -21.0768  -12.7549 C   0  0  0  0  0  0  0  0  0  0  0  0
   21.8755  -21.0091  -12.9412 C   0  0  0  0  0  0  0  0  0  0  0  0
   20.7984  -21.6239  -12.3302 O   0  0  0  0  0  0  0  0  0  0  0  0
   21.9826  -19.7497  -12.7951 O   0  0  0  0  0  0  0  0  0  0  0  0
  2  1  1  6
  2  3  1  0
  2  4  1  0
  4  5  2  0
  6  4  1  0
  6  7  1  0
  7 14  1  0
  7  8  1  1
  9  8  1  0
 10  9  2  0
 11 12  1  0
 11 10  1  0
 12 13  2  0
 13  9  1  0
 14 15  2  0
 16 17  1  0
 16 14  1  0
 17 28  1  0
 17 18  1  1
 19 18  1  0
 20 19  2  0
 21 22  1  0
 21 20  1  0
 22 27  2  0
 23 22  1  0
 23 24  2  0
 24 25  1  0
 25 26  2  0
 27 19  1  0
 27 26  1  0
 28 30  2  0
 28 29  1  0
M  END
$$$$
