KWW.pdb
     RDKit          3D

 38 41  0  0  1  0  0  0  0  0999 V2000
   24.8421  -21.4931  -17.4314 N   0  0  0  0  0  0  0  0  0  0  0  0
   24.5800  -22.6167  -16.6167 C   0  0  1  0  0  0  0  0  0  0  0  0
   24.3781  -23.9300  -17.3151 C   0  0  0  0  0  0  0  0  0  0  0  0
   23.3555  -23.8848  -18.3729 C   0  0  0  0  0  0  0  0  0  0  0  0
   21.9818  -23.6401  -17.8470 C   0  0  0  0  0  0  0  0  0  0  0  0
   20.9918  -23.6468  -18.9815 C   0  0  0  0  0  0  0  0  0  0  0  0
   19.6335  -23.4391  -18.4778 N   0  0  0  0  0  0  0  0  0  0  0  0
   25.4427  -22.7548  -15.4116 C   0  0  0  0  0  0  0  0  0  0  0  0
   25.3270  -23.8337  -14.7589 O   0  0  0  0  0  0  0  0  0  0  0  0
   26.3587  -21.8100  -14.9389 N   0  0  0  0  0  0  0  0  0  0  0  0
   27.0244  -21.9240  -13.6329 C   0  0  1  0  0  0  0  0  0  0  0  0
   28.3834  -21.3499  -13.7560 C   0  0  0  0  0  0  0  0  0  0  0  0
   29.1806  -21.3651  -12.5357 C   0  0  0  0  0  0  0  0  0  0  0  0
   29.9812  -22.3993  -12.1041 C   0  0  0  0  0  0  0  0  0  0  0  0
   30.5549  -22.0244  -10.9412 N   0  0  0  0  0  0  0  0  0  0  0  0
   30.1690  -20.7931  -10.5885 C   0  0  0  0  0  0  0  0  0  0  0  0
   30.4848  -20.0101   -9.5036 C   0  0  0  0  0  0  0  0  0  0  0  0
   29.9310  -18.7557   -9.3854 C   0  0  0  0  0  0  0  0  0  0  0  0
   29.0620  -18.2970  -10.3611 C   0  0  0  0  0  0  0  0  0  0  0  0
   28.7596  -19.1049  -11.4451 C   0  0  0  0  0  0  0  0  0  0  0  0
   29.2963  -20.3690  -11.5968 C   0  0  0  0  0  0  0  0  0  0  0  0
   26.1743  -21.3363  -12.5685 C   0  0  0  0  0  0  0  0  0  0  0  0
   25.1762  -20.6643  -12.9271 O   0  0  0  0  0  0  0  0  0  0  0  0
   26.4223  -21.4865  -11.1947 N   0  0  0  0  0  0  0  0  0  0  0  0
   25.2949  -21.4738  -10.2350 C   0  0  1  0  0  0  0  0  0  0  0  0
   25.7750  -21.7921   -8.8758 C   0  0  0  0  0  0  0  0  0  0  0  0
   26.3829  -20.6317   -8.1925 C   0  0  0  0  0  0  0  0  0  0  0  0
   26.3099  -19.2971   -8.5763 C   0  0  0  0  0  0  0  0  0  0  0  0
   27.0299  -18.5671   -7.7213 N   0  0  0  0  0  0  0  0  0  0  0  0
   27.5803  -19.3624   -6.7804 C   0  0  0  0  0  0  0  0  0  0  0  0
   28.3819  -19.0683   -5.6911 C   0  0  0  0  0  0  0  0  0  0  0  0
   28.8096  -20.0679   -4.8482 C   0  0  0  0  0  0  0  0  0  0  0  0
   28.4249  -21.3648   -5.1092 C   0  0  0  0  0  0  0  0  0  0  0  0
   27.6276  -21.6444   -6.1971 C   0  0  0  0  0  0  0  0  0  0  0  0
   27.1828  -20.6458   -7.0663 C   0  0  0  0  0  0  0  0  0  0  0  0
   24.6008  -20.1904  -10.3373 C   0  0  0  0  0  0  0  0  0  0  0  0
   23.2812  -19.9872   -9.9706 O   0  0  0  0  0  0  0  0  0  0  0  0
   25.2135  -19.1937  -10.7885 O   0  0  0  0  0  0  0  0  0  0  0  0
  2  1  1  6
  2  3  1  0
  4  3  1  0
  4  5  1  0
  6  5  1  0
  7  6  1  0
  8  2  1  0
  9  8  2  0
 10  8  1  0
 11 12  1  6
 11 10  1  0
 12 13  1  0
 13 21  1  0
 14 13  2  0
 14 15  1  0
 15 16  1  0
 16 17  1  0
 17 18  2  0
 19 18  1  0
 20 19  2  0
 21 16  2  0
 21 20  1  0
 22 23  2  0
 22 11  1  0
 24 22  1  0
 25 24  1  0
 25 26  1  1
 27 28  2  0
 27 26  1  0
 29 28  1  0
 30 35  2  0
 30 29  1  0
 31 30  1  0
 32 33  1  0
 32 31  2  0
 33 34  2  0
 34 35  1  0
 35 27  1  0
 36 37  1  0
 36 25  1  0
 38 36  2  0
M  END
$$$$
