KWW.pdb
     RDKit          3D

 38 41  0  0  1  0  0  0  0  0999 V2000
   28.7916  -22.8185  -17.8827 N   0  0  0  0  0  0  0  0  0  0  0  0
   28.9076  -22.8704  -16.4760 C   0  0  1  0  0  0  0  0  0  0  0  0
   30.2746  -23.1381  -15.9165 C   0  0  0  0  0  0  0  0  0  0  0  0
   30.9350  -24.3129  -16.5084 C   0  0  0  0  0  0  0  0  0  0  0  0
   32.3470  -24.4777  -16.0580 C   0  0  0  0  0  0  0  0  0  0  0  0
   33.0210  -25.5497  -16.8725 C   0  0  0  0  0  0  0  0  0  0  0  0
   34.4466  -25.6193  -16.5487 N   0  0  0  0  0  0  0  0  0  0  0  0
   28.2033  -21.7917  -15.7306 C   0  0  0  0  0  0  0  0  0  0  0  0
   28.3225  -20.6191  -16.1936 O   0  0  0  0  0  0  0  0  0  0  0  0
   27.4312  -21.9539  -14.5761 N   0  0  0  0  0  0  0  0  0  0  0  0
   26.3709  -21.0141  -14.1835 C   0  0  1  0  0  0  0  0  0  0  0  0
   25.3571  -20.9856  -15.2620 C   0  0  0  0  0  0  0  0  0  0  0  0
   24.1901  -20.1522  -15.0002 C   0  0  0  0  0  0  0  0  0  0  0  0
   24.2017  -18.8978  -14.4316 C   0  0  0  0  0  0  0  0  0  0  0  0
   22.9272  -18.4580  -14.3672 N   0  0  0  0  0  0  0  0  0  0  0  0
   22.0791  -19.3640  -14.8664 C   0  0  0  0  0  0  0  0  0  0  0  0
   20.7115  -19.3587  -15.0063 C   0  0  0  0  0  0  0  0  0  0  0  0
   20.0800  -20.4476  -15.5628 C   0  0  0  0  0  0  0  0  0  0  0  0
   20.8301  -21.5360  -15.9756 C   0  0  0  0  0  0  0  0  0  0  0  0
   22.2070  -21.5173  -15.8242 C   0  0  0  0  0  0  0  0  0  0  0  0
   22.8747  -20.4421  -15.2699 C   0  0  0  0  0  0  0  0  0  0  0  0
   25.8595  -21.3498  -12.8319 C   0  0  0  0  0  0  0  0  0  0  0  0
   25.4492  -22.5209  -12.6405 O   0  0  0  0  0  0  0  0  0  0  0  0
   25.8075  -20.4389  -11.7648 N   0  0  0  0  0  0  0  0  0  0  0  0
   25.3595  -20.8920  -10.4282 C   0  0  1  0  0  0  0  0  0  0  0  0
   25.9391  -20.0348   -9.3753 C   0  0  0  0  0  0  0  0  0  0  0  0
   27.3181  -20.4207   -9.0117 C   0  0  0  0  0  0  0  0  0  0  0  0
   28.1990  -21.1951   -9.7589 C   0  0  0  0  0  0  0  0  0  0  0  0
   29.3264  -21.3520   -9.0613 N   0  0  0  0  0  0  0  0  0  0  0  0
   29.2331  -20.7115   -7.8774 C   0  0  0  0  0  0  0  0  0  0  0  0
   30.1377  -20.5763   -6.8385 C   0  0  0  0  0  0  0  0  0  0  0  0
   29.8132  -19.8433   -5.7205 C   0  0  0  0  0  0  0  0  0  0  0  0
   28.5726  -19.2477   -5.6555 C   0  0  0  0  0  0  0  0  0  0  0  0
   27.6811  -19.3905   -6.6959 C   0  0  0  0  0  0  0  0  0  0  0  0
   27.9890  -20.1307   -7.8395 C   0  0  0  0  0  0  0  0  0  0  0  0
   23.8980  -20.9495  -10.4134 C   0  0  0  0  0  0  0  0  0  0  0  0
   23.1617  -21.8563   -9.6699 O   0  0  0  0  0  0  0  0  0  0  0  0
   23.2433  -20.1417  -11.1142 O   0  0  0  0  0  0  0  0  0  0  0  0
  2  1  1  6
  2  3  1  0
  4  3  1  0
  4  5  1  0
  6  5  1  0
  7  6  1  0
  8  2  1  0
  9  8  2  0
 10  8  1  0
 11 12  1  6
 11 10  1  0
 12 13  1  0
 13 21  1  0
 14 13  2  0
 14 15  1  0
 15 16  1  0
 16 17  1  0
 17 18  2  0
 19 18  1  0
 20 19  2  0
 21 16  2  0
 21 20  1  0
 22 23  2  0
 22 11  1  0
 24 22  1  0
 25 24  1  0
 25 26  1  1
 27 28  2  0
 27 26  1  0
 29 28  1  0
 30 35  2  0
 30 29  1  0
 31 30  1  0
 32 33  1  0
 32 31  2  0
 33 34  2  0
 34 35  1  0
 35 27  1  0
 36 37  1  0
 36 25  1  0
 38 36  2  0
M  END
$$$$
