KWW.pdb
     RDKit          3D

 38 41  0  0  1  0  0  0  0  0999 V2000
   30.1645  -23.3955  -18.5680 N   0  0  0  0  0  0  0  0  0  0  0  0
   29.4264  -23.8322  -17.4459 C   0  0  1  0  0  0  0  0  0  0  0  0
   29.8827  -25.0999  -16.7839 C   0  0  0  0  0  0  0  0  0  0  0  0
   29.8588  -26.2721  -17.6739 C   0  0  0  0  0  0  0  0  0  0  0  0
   28.5516  -26.9896  -17.6594 C   0  0  0  0  0  0  0  0  0  0  0  0
   28.5909  -28.1420  -18.6276 C   0  0  0  0  0  0  0  0  0  0  0  0
   27.3777  -28.9520  -18.5097 N   0  0  0  0  0  0  0  0  0  0  0  0
   29.0804  -22.7795  -16.4521 C   0  0  0  0  0  0  0  0  0  0  0  0
   29.7632  -22.7678  -15.3857 O   0  0  0  0  0  0  0  0  0  0  0  0
   28.0787  -21.8133  -16.5872 N   0  0  0  0  0  0  0  0  0  0  0  0
   27.8003  -20.7995  -15.5593 C   0  0  1  0  0  0  0  0  0  0  0  0
   27.4656  -19.5296  -16.2425 C   0  0  0  0  0  0  0  0  0  0  0  0
   26.9200  -18.4844  -15.3852 C   0  0  0  0  0  0  0  0  0  0  0  0
   27.6294  -17.7271  -14.4797 C   0  0  0  0  0  0  0  0  0  0  0  0
   26.7703  -16.8678  -13.8919 N   0  0  0  0  0  0  0  0  0  0  0  0
   25.5303  -17.0248  -14.3684 C   0  0  0  0  0  0  0  0  0  0  0  0
   24.3485  -16.3874  -14.0735 C   0  0  0  0  0  0  0  0  0  0  0  0
   23.1945  -16.7573  -14.7259 C   0  0  0  0  0  0  0  0  0  0  0  0
   23.2376  -17.7676  -15.6721 C   0  0  0  0  0  0  0  0  0  0  0  0
   24.4408  -18.3946  -15.9517 C   0  0  0  0  0  0  0  0  0  0  0  0
   25.6186  -18.0498  -15.3169 C   0  0  0  0  0  0  0  0  0  0  0  0
   26.7823  -21.3010  -14.6036 C   0  0  0  0  0  0  0  0  0  0  0  0
   25.8771  -22.0441  -15.0562 O   0  0  0  0  0  0  0  0  0  0  0  0
   26.7734  -20.9923  -13.2340 N   0  0  0  0  0  0  0  0  0  0  0  0
   25.7712  -21.6189  -12.3422 C   0  0  1  0  0  0  0  0  0  0  0  0
   26.4058  -22.0511  -11.0813 C   0  0  0  0  0  0  0  0  0  0  0  0
   26.3879  -21.0046  -10.0386 C   0  0  0  0  0  0  0  0  0  0  0  0
   25.3276  -20.1691   -9.7041 C   0  0  0  0  0  0  0  0  0  0  0  0
   25.7294  -19.3334   -8.7437 N   0  0  0  0  0  0  0  0  0  0  0  0
   27.0168  -19.5788   -8.4229 C   0  0  0  0  0  0  0  0  0  0  0  0
   27.8529  -18.9924   -7.4886 C   0  0  0  0  0  0  0  0  0  0  0  0
   29.1446  -19.4384   -7.3295 C   0  0  0  0  0  0  0  0  0  0  0  0
   29.5885  -20.4782   -8.1168 C   0  0  0  0  0  0  0  0  0  0  0  0
   28.7467  -21.0527   -9.0435 C   0  0  0  0  0  0  0  0  0  0  0  0
   27.4324  -20.6154   -9.2226 C   0  0  0  0  0  0  0  0  0  0  0  0
   24.6541  -20.6924  -12.1610 C   0  0  0  0  0  0  0  0  0  0  0  0
   24.6974  -19.3471  -12.4857 O   0  0  0  0  0  0  0  0  0  0  0  0
   23.5771  -21.1143  -11.6768 O   0  0  0  0  0  0  0  0  0  0  0  0
  2  1  1  6
  2  3  1  0
  4  3  1  0
  4  5  1  0
  6  5  1  0
  7  6  1  0
  8  2  1  0
  9  8  2  0
 10  8  1  0
 11 12  1  6
 11 10  1  0
 12 13  1  0
 13 21  1  0
 14 13  2  0
 14 15  1  0
 15 16  1  0
 16 17  1  0
 17 18  2  0
 19 18  1  0
 20 19  2  0
 21 16  2  0
 21 20  1  0
 22 23  2  0
 22 11  1  0
 24 22  1  0
 25 24  1  0
 25 26  1  1
 27 28  2  0
 27 26  1  0
 29 28  1  0
 30 35  2  0
 30 29  1  0
 31 30  1  0
 32 33  1  0
 32 31  2  0
 33 34  2  0
 34 35  1  0
 35 27  1  0
 36 37  1  0
 36 25  1  0
 38 36  2  0
M  END
$$$$
