KWW.pdb
     RDKit          3D

 38 41  0  0  1  0  0  0  0  0999 V2000
   28.4829  -21.5286  -16.4490 N   0  0  0  0  0  0  0  0  0  0  0  0
   28.5689  -20.7116  -15.3001 C   0  0  1  0  0  0  0  0  0  0  0  0
   28.6356  -19.2288  -15.5244 C   0  0  0  0  0  0  0  0  0  0  0  0
   27.4205  -18.6695  -16.1387 C   0  0  0  0  0  0  0  0  0  0  0  0
   27.5408  -17.2169  -16.4534 C   0  0  0  0  0  0  0  0  0  0  0  0
   26.2770  -16.7306  -17.1118 C   0  0  0  0  0  0  0  0  0  0  0  0
   26.4467  -15.3607  -17.5979 N   0  0  0  0  0  0  0  0  0  0  0  0
   27.6458  -21.0646  -14.1872 C   0  0  0  0  0  0  0  0  0  0  0  0
   26.4741  -21.4122  -14.5183 O   0  0  0  0  0  0  0  0  0  0  0  0
   27.9516  -21.0454  -12.8228 N   0  0  0  0  0  0  0  0  0  0  0  0
   27.0209  -21.5174  -11.7871 C   0  0  1  0  0  0  0  0  0  0  0  0
   27.7907  -21.7417  -10.5426 C   0  0  0  0  0  0  0  0  0  0  0  0
   27.2241  -21.1413   -9.3411 C   0  0  0  0  0  0  0  0  0  0  0  0
   25.8907  -20.8779   -9.1189 C   0  0  0  0  0  0  0  0  0  0  0  0
   25.7735  -20.3302   -7.8907 N   0  0  0  0  0  0  0  0  0  0  0  0
   26.9667  -20.2215   -7.2958 C   0  0  0  0  0  0  0  0  0  0  0  0
   27.3351  -19.7316   -6.0653 C   0  0  0  0  0  0  0  0  0  0  0  0
   28.6620  -19.7368   -5.7002 C   0  0  0  0  0  0  0  0  0  0  0  0
   29.6107  -20.2358   -6.5770 C   0  0  0  0  0  0  0  0  0  0  0  0
   29.2143  -20.7241   -7.8113 C   0  0  0  0  0  0  0  0  0  0  0  0
   27.8919  -20.7347   -8.2116 C   0  0  0  0  0  0  0  0  0  0  0  0
   25.8682  -20.5909  -11.6696 C   0  0  0  0  0  0  0  0  0  0  0  0
   26.1152  -19.3615  -11.6068 O   0  0  0  0  0  0  0  0  0  0  0  0
   24.5285  -21.0082  -11.6231 N   0  0  0  0  0  0  0  0  0  0  0  0
   23.4399  -20.0093  -11.7208 C   0  0  1  0  0  0  0  0  0  0  0  0
   23.5834  -19.2136  -12.9559 C   0  0  0  0  0  0  0  0  0  0  0  0
   22.8092  -19.7620  -14.0884 C   0  0  0  0  0  0  0  0  0  0  0  0
   21.4337  -19.9573  -14.1502 C   0  0  0  0  0  0  0  0  0  0  0  0
   21.1343  -20.5151  -15.3256 N   0  0  0  0  0  0  0  0  0  0  0  0
   22.2564  -20.6990  -16.0519 C   0  0  0  0  0  0  0  0  0  0  0  0
   22.4484  -21.2199  -17.3198 C   0  0  0  0  0  0  0  0  0  0  0  0
   23.7102  -21.2865  -17.8641 C   0  0  0  0  0  0  0  0  0  0  0  0
   24.7766  -20.8252  -17.1238 C   0  0  0  0  0  0  0  0  0  0  0  0
   24.5722  -20.3098  -15.8628 C   0  0  0  0  0  0  0  0  0  0  0  0
   23.3005  -20.2335  -15.2904 C   0  0  0  0  0  0  0  0  0  0  0  0
   22.1546  -20.6968  -11.6000 C   0  0  0  0  0  0  0  0  0  0  0  0
   20.9721  -20.0783  -11.2304 O   0  0  0  0  0  0  0  0  0  0  0  0
   22.0903  -21.9270  -11.8342 O   0  0  0  0  0  0  0  0  0  0  0  0
  2  1  1  6
  2  3  1  0
  4  3  1  0
  4  5  1  0
  6  5  1  0
  7  6  1  0
  8  2  1  0
  9  8  2  0
 10  8  1  0
 11 12  1  1
 11 10  1  0
 12 13  1  0
 13 21  1  0
 14 13  2  0
 14 15  1  0
 15 16  1  0
 16 17  1  0
 17 18  2  0
 19 18  1  0
 20 19  2  0
 21 16  2  0
 21 20  1  0
 22 23  2  0
 22 11  1  0
 24 22  1  0
 25 24  1  0
 25 26  1  6
 27 28  2  0
 27 26  1  0
 29 28  1  0
 30 35  2  0
 30 29  1  0
 31 30  1  0
 32 33  1  0
 32 31  2  0
 33 34  2  0
 34 35  1  0
 35 27  1  0
 36 37  1  0
 36 25  1  0
 38 36  2  0
M  END
$$$$
