KWW.pdb
     RDKit          3D

 38 41  0  0  1  0  0  0  0  0999 V2000
   25.3793  -17.9172  -21.4286 N   0  0  0  0  0  0  0  0  0  0  0  0
   24.1840  -17.4784  -20.8174 C   0  0  1  0  0  0  0  0  0  0  0  0
   23.4041  -16.4157  -21.5355 C   0  0  0  0  0  0  0  0  0  0  0  0
   24.1719  -15.1839  -21.7801 C   0  0  0  0  0  0  0  0  0  0  0  0
   24.4631  -14.4200  -20.5330 C   0  0  0  0  0  0  0  0  0  0  0  0
   25.3367  -13.2358  -20.8517 C   0  0  0  0  0  0  0  0  0  0  0  0
   25.6692  -12.5008  -19.6306 N   0  0  0  0  0  0  0  0  0  0  0  0
   23.3009  -18.5513  -20.2839 C   0  0  0  0  0  0  0  0  0  0  0  0
   22.0731  -18.4681  -20.5825 O   0  0  0  0  0  0  0  0  0  0  0  0
   23.6999  -19.6306  -19.4895 N   0  0  0  0  0  0  0  0  0  0  0  0
   22.7694  -20.6701  -19.0253 C   0  0  1  0  0  0  0  0  0  0  0  0
   23.2008  -21.9649  -19.5989 C   0  0  0  0  0  0  0  0  0  0  0  0
   22.9602  -22.1261  -21.0276 C   0  0  0  0  0  0  0  0  0  0  0  0
   23.6462  -21.4941  -22.0408 C   0  0  0  0  0  0  0  0  0  0  0  0
   23.1319  -21.9130  -23.2164 N   0  0  0  0  0  0  0  0  0  0  0  0
   22.1406  -22.7902  -23.0233 C   0  0  0  0  0  0  0  0  0  0  0  0
   21.3353  -23.4707  -23.9054 C   0  0  0  0  0  0  0  0  0  0  0  0
   20.3721  -24.3284  -23.4251 C   0  0  0  0  0  0  0  0  0  0  0  0
   20.2255  -24.4957  -22.0582 C   0  0  0  0  0  0  0  0  0  0  0  0
   21.0493  -23.7987  -21.1896 C   0  0  0  0  0  0  0  0  0  0  0  0
   22.0266  -22.9297  -21.6356 C   0  0  0  0  0  0  0  0  0  0  0  0
   22.6502  -20.6317  -17.5470 C   0  0  0  0  0  0  0  0  0  0  0  0
   23.7075  -20.5030  -16.8822 O   0  0  0  0  0  0  0  0  0  0  0  0
   21.4323  -20.7324  -16.8559 N   0  0  0  0  0  0  0  0  0  0  0  0
   21.3828  -20.4547  -15.4023 C   0  0  1  0  0  0  0  0  0  0  0  0
   21.7453  -19.0486  -15.1362 C   0  0  0  0  0  0  0  0  0  0  0  0
   20.9017  -18.0861  -15.8743 C   0  0  0  0  0  0  0  0  0  0  0  0
   19.5167  -17.9714  -15.8245 C   0  0  0  0  0  0  0  0  0  0  0  0
   19.1372  -17.0121  -16.6719 N   0  0  0  0  0  0  0  0  0  0  0  0
   20.2152  -16.4808  -17.2852 C   0  0  0  0  0  0  0  0  0  0  0  0
   20.3265  -15.4648  -18.2185 C   0  0  0  0  0  0  0  0  0  0  0  0
   21.5608  -15.0802  -18.6888 C   0  0  0  0  0  0  0  0  0  0  0  0
   22.6817  -15.7250  -18.2133 C   0  0  0  0  0  0  0  0  0  0  0  0
   22.5573  -16.7352  -17.2851 C   0  0  0  0  0  0  0  0  0  0  0  0
   21.3146  -17.1424  -16.7948 C   0  0  0  0  0  0  0  0  0  0  0  0
   20.0670  -20.8386  -14.8917 C   0  0  0  0  0  0  0  0  0  0  0  0
   19.0091  -21.2410  -15.6892 O   0  0  0  0  0  0  0  0  0  0  0  0
   19.8525  -20.8049  -13.6567 O   0  0  0  0  0  0  0  0  0  0  0  0
  2  1  1  6
  2  3  1  0
  4  3  1  0
  4  5  1  0
  6  5  1  0
  7  6  1  0
  8  2  1  0
  9  8  2  0
 10  8  1  0
 11 12  1  1
 11 10  1  0
 12 13  1  0
 13 21  1  0
 14 13  2  0
 14 15  1  0
 15 16  1  0
 16 17  1  0
 17 18  2  0
 19 18  1  0
 20 19  2  0
 21 16  2  0
 21 20  1  0
 22 23  2  0
 22 11  1  0
 24 22  1  0
 25 24  1  0
 25 26  1  6
 27 28  2  0
 27 26  1  0
 29 28  1  0
 30 35  2  0
 30 29  1  0
 31 30  1  0
 32 33  1  0
 32 31  2  0
 33 34  2  0
 34 35  1  0
 35 27  1  0
 36 37  1  0
 36 25  1  0
 38 36  2  0
M  END
$$$$
