KWW.pdb
     RDKit          3D

 38 41  0  0  1  0  0  0  0  0999 V2000
   28.7337  -21.3676  -16.2154 N   0  0  0  0  0  0  0  0  0  0  0  0
   28.5780  -20.5088  -15.1051 C   0  0  1  0  0  0  0  0  0  0  0  0
   28.3630  -19.0522  -15.3977 C   0  0  0  0  0  0  0  0  0  0  0  0
   29.3634  -18.4803  -16.3135 C   0  0  0  0  0  0  0  0  0  0  0  0
   28.8514  -18.3069  -17.7032 C   0  0  0  0  0  0  0  0  0  0  0  0
   29.8159  -17.4715  -18.5024 C   0  0  0  0  0  0  0  0  0  0  0  0
   29.3864  -17.3877  -19.8989 N   0  0  0  0  0  0  0  0  0  0  0  0
   27.6710  -21.0000  -14.0320 C   0  0  0  0  0  0  0  0  0  0  0  0
   26.5626  -21.4815  -14.4104 O   0  0  0  0  0  0  0  0  0  0  0  0
   27.9285  -20.9765  -12.6578 N   0  0  0  0  0  0  0  0  0  0  0  0
   27.0195  -21.5640  -11.6628 C   0  0  1  0  0  0  0  0  0  0  0  0
   27.7832  -21.7855  -10.4141 C   0  0  0  0  0  0  0  0  0  0  0  0
   27.2856  -21.0737   -9.2432 C   0  0  0  0  0  0  0  0  0  0  0  0
   25.9827  -20.6839   -9.0255 C   0  0  0  0  0  0  0  0  0  0  0  0
   25.9286  -20.0622   -7.8286 N   0  0  0  0  0  0  0  0  0  0  0  0
   27.1340  -20.0252   -7.2500 C   0  0  0  0  0  0  0  0  0  0  0  0
   27.5587  -19.5029   -6.0513 C   0  0  0  0  0  0  0  0  0  0  0  0
   28.8847  -19.6034   -5.6968 C   0  0  0  0  0  0  0  0  0  0  0  0
   29.7758  -20.2297   -6.5520 C   0  0  0  0  0  0  0  0  0  0  0  0
   29.3233  -20.7482   -7.7544 C   0  0  0  0  0  0  0  0  0  0  0  0
   28.0000  -20.6658   -8.1431 C   0  0  0  0  0  0  0  0  0  0  0  0
   25.7973  -20.7338  -11.5280 C   0  0  0  0  0  0  0  0  0  0  0  0
   25.9252  -19.5888  -11.0290 O   0  0  0  0  0  0  0  0  0  0  0  0
   24.5169  -21.1538  -11.9219 N   0  0  0  0  0  0  0  0  0  0  0  0
   23.3556  -20.2536  -11.7391 C   0  0  1  0  0  0  0  0  0  0  0  0
   23.5712  -18.9849  -12.4624 C   0  0  0  0  0  0  0  0  0  0  0  0
   23.6563  -19.1631  -13.9265 C   0  0  0  0  0  0  0  0  0  0  0  0
   23.0233  -20.1355  -14.6932 C   0  0  0  0  0  0  0  0  0  0  0  0
   23.3941  -19.9832  -15.9667 N   0  0  0  0  0  0  0  0  0  0  0  0
   24.2495  -18.9459  -16.0805 C   0  0  0  0  0  0  0  0  0  0  0  0
   24.8822  -18.4010  -17.1844 C   0  0  0  0  0  0  0  0  0  0  0  0
   25.7091  -17.3100  -17.0479 C   0  0  0  0  0  0  0  0  0  0  0  0
   25.8944  -16.7716  -15.7934 C   0  0  0  0  0  0  0  0  0  0  0  0
   25.2596  -17.3238  -14.7027 C   0  0  0  0  0  0  0  0  0  0  0  0
   24.4169  -18.4316  -14.8179 C   0  0  0  0  0  0  0  0  0  0  0  0
   22.1392  -20.9648  -12.1315 C   0  0  0  0  0  0  0  0  0  0  0  0
   22.1236  -22.2309  -12.6918 O   0  0  0  0  0  0  0  0  0  0  0  0
   21.0245  -20.4144  -11.9673 O   0  0  0  0  0  0  0  0  0  0  0  0
  2  1  1  6
  2  3  1  0
  4  3  1  0
  4  5  1  0
  6  5  1  0
  7  6  1  0
  8  2  1  0
  9  8  2  0
 10  8  1  0
 11 12  1  1
 11 10  1  0
 12 13  1  0
 13 21  1  0
 14 13  2  0
 14 15  1  0
 15 16  1  0
 16 17  1  0
 17 18  2  0
 19 18  1  0
 20 19  2  0
 21 16  2  0
 21 20  1  0
 22 23  2  0
 22 11  1  0
 24 22  1  0
 25 24  1  0
 25 26  1  6
 27 28  2  0
 27 26  1  0
 29 28  1  0
 30 35  2  0
 30 29  1  0
 31 30  1  0
 32 33  1  0
 32 31  2  0
 33 34  2  0
 34 35  1  0
 35 27  1  0
 36 37  1  0
 36 25  1  0
 38 36  2  0
M  END
$$$$
