KWW.pdb
     RDKit          3D

 38 41  0  0  1  0  0  0  0  0999 V2000
   29.1735  -21.3953  -17.5171 N   0  0  0  0  0  0  0  0  0  0  0  0
   27.8732  -20.8852  -17.3081 C   0  0  1  0  0  0  0  0  0  0  0  0
   26.8784  -21.0868  -18.4141 C   0  0  0  0  0  0  0  0  0  0  0  0
   27.3819  -20.6925  -19.7399 C   0  0  0  0  0  0  0  0  0  0  0  0
   28.1608  -21.7712  -20.4132 C   0  0  0  0  0  0  0  0  0  0  0  0
   28.5996  -21.3088  -21.7773 C   0  0  0  0  0  0  0  0  0  0  0  0
   29.4165  -22.3342  -22.4278 N   0  0  0  0  0  0  0  0  0  0  0  0
   27.2804  -21.1588  -15.9705 C   0  0  0  0  0  0  0  0  0  0  0  0
   26.8848  -22.3438  -15.7633 O   0  0  0  0  0  0  0  0  0  0  0  0
   27.1206  -20.2348  -14.9331 N   0  0  0  0  0  0  0  0  0  0  0  0
   26.5995  -20.6011  -13.6080 C   0  0  1  0  0  0  0  0  0  0  0  0
   27.3136  -19.7948  -12.5924 C   0  0  0  0  0  0  0  0  0  0  0  0
   27.6571  -20.5002  -11.3637 C   0  0  0  0  0  0  0  0  0  0  0  0
   28.3895  -21.6632  -11.2752 C   0  0  0  0  0  0  0  0  0  0  0  0
   28.4952  -21.9903   -9.9699 N   0  0  0  0  0  0  0  0  0  0  0  0
   27.8669  -21.0974   -9.1970 C   0  0  0  0  0  0  0  0  0  0  0  0
   27.7074  -21.0178   -7.8339 C   0  0  0  0  0  0  0  0  0  0  0  0
   26.9968  -19.9712   -7.2918 C   0  0  0  0  0  0  0  0  0  0  0  0
   26.4510  -19.0102   -8.1263 C   0  0  0  0  0  0  0  0  0  0  0  0
   26.6258  -19.1125   -9.4967 C   0  0  0  0  0  0  0  0  0  0  0  0
   27.3327  -20.1488  -10.0760 C   0  0  0  0  0  0  0  0  0  0  0  0
   25.1199  -20.4924  -13.5883 C   0  0  0  0  0  0  0  0  0  0  0  0
   24.6086  -19.4424  -14.0492 O   0  0  0  0  0  0  0  0  0  0  0  0
   24.2673  -21.4883  -13.0860 N   0  0  0  0  0  0  0  0  0  0  0  0
   22.8137  -21.2293  -12.9758 C   0  0  1  0  0  0  0  0  0  0  0  0
   22.1378  -22.3683  -12.3236 C   0  0  0  0  0  0  0  0  0  0  0  0
   20.6657  -22.2438  -12.3266 C   0  0  0  0  0  0  0  0  0  0  0  0
   19.7737  -22.8356  -13.2144 C   0  0  0  0  0  0  0  0  0  0  0  0
   18.5373  -22.4377  -12.9059 N   0  0  0  0  0  0  0  0  0  0  0  0
   18.5686  -21.6039  -11.8456 C   0  0  0  0  0  0  0  0  0  0  0  0
   17.5534  -20.9575  -11.1619 C   0  0  0  0  0  0  0  0  0  0  0  0
   17.8387  -20.1595  -10.0782 C   0  0  0  0  0  0  0  0  0  0  0  0
   19.1522  -20.0169   -9.6876 C   0  0  0  0  0  0  0  0  0  0  0  0
   20.1533  -20.6650  -10.3769 C   0  0  0  0  0  0  0  0  0  0  0  0
   19.8867  -21.4789  -11.4801 C   0  0  0  0  0  0  0  0  0  0  0  0
   22.6111  -19.9485  -12.2993 C   0  0  0  0  0  0  0  0  0  0  0  0
   21.7150  -18.9795  -12.7180 O   0  0  0  0  0  0  0  0  0  0  0  0
   23.2829  -19.6806  -11.2749 O   0  0  0  0  0  0  0  0  0  0  0  0
  2  1  1  6
  2  3  1  0
  4  3  1  0
  4  5  1  0
  6  5  1  0
  7  6  1  0
  8  2  1  0
  9  8  2  0
 10  8  1  0
 11 12  1  1
 11 10  1  0
 12 13  1  0
 13 21  1  0
 14 13  2  0
 14 15  1  0
 15 16  1  0
 16 17  1  0
 17 18  2  0
 19 18  1  0
 20 19  2  0
 21 16  2  0
 21 20  1  0
 22 23  2  0
 22 11  1  0
 24 22  1  0
 25 24  1  0
 25 26  1  1
 27 28  2  0
 27 26  1  0
 29 28  1  0
 30 35  2  0
 30 29  1  0
 31 30  1  0
 32 33  1  0
 32 31  2  0
 33 34  2  0
 34 35  1  0
 35 27  1  0
 36 37  1  0
 36 25  1  0
 38 36  2  0
M  END
$$$$
