KWW.pdb
     RDKit          3D

 38 41  0  0  1  0  0  0  0  0999 V2000
   26.6342  -21.9097  -17.0188 N   0  0  0  0  0  0  0  0  0  0  0  0
   25.7749  -22.1127  -15.9164 C   0  0  1  0  0  0  0  0  0  0  0  0
   24.7535  -23.2054  -16.0435 C   0  0  0  0  0  0  0  0  0  0  0  0
   23.7164  -22.9295  -17.0509 C   0  0  0  0  0  0  0  0  0  0  0  0
   22.5734  -22.1387  -16.5109 C   0  0  0  0  0  0  0  0  0  0  0  0
   21.5537  -21.9093  -17.5948 C   0  0  0  0  0  0  0  0  0  0  0  0
   20.4667  -21.0606  -17.1047 N   0  0  0  0  0  0  0  0  0  0  0  0
   26.4303  -22.1171  -14.5800 C   0  0  0  0  0  0  0  0  0  0  0  0
   27.1090  -23.1463  -14.2908 O   0  0  0  0  0  0  0  0  0  0  0  0
   26.3637  -21.0988  -13.6241 N   0  0  0  0  0  0  0  0  0  0  0  0
   27.0016  -21.1978  -12.3031 C   0  0  1  0  0  0  0  0  0  0  0  0
   28.0470  -20.1532  -12.2161 C   0  0  0  0  0  0  0  0  0  0  0  0
   29.3611  -20.5420  -12.7132 C   0  0  0  0  0  0  0  0  0  0  0  0
   29.9075  -20.1826  -13.9252 C   0  0  0  0  0  0  0  0  0  0  0  0
   31.1365  -20.7345  -14.0080 N   0  0  0  0  0  0  0  0  0  0  0  0
   31.4233  -21.4393  -12.9078 C   0  0  0  0  0  0  0  0  0  0  0  0
   32.5348  -22.1641  -12.5485 C   0  0  0  0  0  0  0  0  0  0  0  0
   32.5640  -22.8070  -11.3320 C   0  0  0  0  0  0  0  0  0  0  0  0
   31.4730  -22.7160  -10.4839 C   0  0  0  0  0  0  0  0  0  0  0  0
   30.3647  -21.9794  -10.8687 C   0  0  0  0  0  0  0  0  0  0  0  0
   30.3000  -21.3211  -12.0818 C   0  0  0  0  0  0  0  0  0  0  0  0
   25.9754  -21.1684  -11.2320 C   0  0  0  0  0  0  0  0  0  0  0  0
   24.8018  -20.8663  -11.5603 O   0  0  0  0  0  0  0  0  0  0  0  0
   26.2412  -21.4552   -9.8836 N   0  0  0  0  0  0  0  0  0  0  0  0
   25.1593  -21.3472   -8.8784 C   0  0  1  0  0  0  0  0  0  0  0  0
   25.7093  -21.4893   -7.5158 C   0  0  0  0  0  0  0  0  0  0  0  0
   26.3609  -20.2574   -7.0256 C   0  0  0  0  0  0  0  0  0  0  0  0
   26.4070  -19.0210   -7.6606 C   0  0  0  0  0  0  0  0  0  0  0  0
   27.1293  -18.1837   -6.9124 N   0  0  0  0  0  0  0  0  0  0  0  0
   27.5665  -18.8126   -5.8016 C   0  0  0  0  0  0  0  0  0  0  0  0
   28.3251  -18.3614   -4.7354 C   0  0  0  0  0  0  0  0  0  0  0  0
   28.6308  -19.2020   -3.6902 C   0  0  0  0  0  0  0  0  0  0  0  0
   28.1678  -20.4991   -3.7255 C   0  0  0  0  0  0  0  0  0  0  0  0
   27.4145  -20.9361   -4.7927 C   0  0  0  0  0  0  0  0  0  0  0  0
   27.0932  -20.1005   -5.8648 C   0  0  0  0  0  0  0  0  0  0  0  0
   24.4301  -20.0989   -9.1003 C   0  0  0  0  0  0  0  0  0  0  0  0
   23.1737  -19.8286   -8.5850 O   0  0  0  0  0  0  0  0  0  0  0  0
   24.9491  -19.1997   -9.8035 O   0  0  0  0  0  0  0  0  0  0  0  0
  2  1  1  6
  2  3  1  0
  4  3  1  0
  4  5  1  0
  6  5  1  0
  7  6  1  0
  8  2  1  0
  9  8  2  0
 10  8  1  0
 11 12  1  1
 11 10  1  0
 12 13  1  0
 13 21  1  0
 14 13  2  0
 14 15  1  0
 15 16  1  0
 16 17  1  0
 17 18  2  0
 19 18  1  0
 20 19  2  0
 21 16  2  0
 21 20  1  0
 22 23  2  0
 22 11  1  0
 24 22  1  0
 25 24  1  0
 25 26  1  1
 27 28  2  0
 27 26  1  0
 29 28  1  0
 30 35  2  0
 30 29  1  0
 31 30  1  0
 32 33  1  0
 32 31  2  0
 33 34  2  0
 34 35  1  0
 35 27  1  0
 36 37  1  0
 36 25  1  0
 38 36  2  0
M  END
$$$$
