KWW.pdb
     RDKit          3D

 38 41  0  0  1  0  0  0  0  0999 V2000
   29.3502  -25.4190  -17.3348 N   0  0  0  0  0  0  0  0  0  0  0  0
   30.0204  -24.4440  -16.5634 C   0  0  1  0  0  0  0  0  0  0  0  0
   31.3673  -23.9980  -17.0536 C   0  0  0  0  0  0  0  0  0  0  0  0
   32.2453  -25.1080  -17.4586 C   0  0  0  0  0  0  0  0  0  0  0  0
   33.6189  -24.6609  -17.8284 C   0  0  0  0  0  0  0  0  0  0  0  0
   34.4794  -25.8571  -18.1375 C   0  0  0  0  0  0  0  0  0  0  0  0
   35.8745  -25.4526  -18.3162 N   0  0  0  0  0  0  0  0  0  0  0  0
   29.1873  -23.2979  -16.1074 C   0  0  0  0  0  0  0  0  0  0  0  0
   29.8067  -22.3307  -15.5742 O   0  0  0  0  0  0  0  0  0  0  0  0
   27.7967  -23.1945  -16.2117 N   0  0  0  0  0  0  0  0  0  0  0  0
   27.0411  -22.0336  -15.7186 C   0  0  1  0  0  0  0  0  0  0  0  0
   26.0077  -21.6953  -16.7232 C   0  0  0  0  0  0  0  0  0  0  0  0
   25.0516  -20.6731  -16.3156 C   0  0  0  0  0  0  0  0  0  0  0  0
   25.2869  -19.3169  -16.2683 C   0  0  0  0  0  0  0  0  0  0  0  0
   24.1549  -18.7123  -15.8498 N   0  0  0  0  0  0  0  0  0  0  0  0
   23.1875  -19.6070  -15.6199 C   0  0  0  0  0  0  0  0  0  0  0  0
   21.8904  -19.4625  -15.1880 C   0  0  0  0  0  0  0  0  0  0  0  0
   21.0971  -20.5762  -15.0316 C   0  0  0  0  0  0  0  0  0  0  0  0
   21.6151  -21.8297  -15.3113 C   0  0  0  0  0  0  0  0  0  0  0  0
   22.9252  -21.9492  -15.7454 C   0  0  0  0  0  0  0  0  0  0  0  0
   23.7505  -20.8539  -15.9138 C   0  0  0  0  0  0  0  0  0  0  0  0
   26.5408  -22.2901  -14.3457 C   0  0  0  0  0  0  0  0  0  0  0  0
   26.3827  -23.4864  -13.9992 O   0  0  0  0  0  0  0  0  0  0  0  0
   26.2352  -21.2787  -13.4210 N   0  0  0  0  0  0  0  0  0  0  0  0
   25.8125  -21.6367  -12.0478 C   0  0  1  0  0  0  0  0  0  0  0  0
   26.9923  -21.8204  -11.1797 C   0  0  0  0  0  0  0  0  0  0  0  0
   26.8985  -21.0669   -9.9123 C   0  0  0  0  0  0  0  0  0  0  0  0
   25.7638  -20.4753   -9.3679 C   0  0  0  0  0  0  0  0  0  0  0  0
   26.1074  -19.8526   -8.2381 N   0  0  0  0  0  0  0  0  0  0  0  0
   27.4276  -20.0062   -8.0060 C   0  0  0  0  0  0  0  0  0  0  0  0
   28.2301  -19.5632   -6.9690 C   0  0  0  0  0  0  0  0  0  0  0  0
   29.5709  -19.8702   -6.9428 C   0  0  0  0  0  0  0  0  0  0  0  0
   30.0979  -20.6259   -7.9672 C   0  0  0  0  0  0  0  0  0  0  0  0
   29.2887  -21.0600   -8.9939 C   0  0  0  0  0  0  0  0  0  0  0  0
   27.9256  -20.7593   -9.0412 C   0  0  0  0  0  0  0  0  0  0  0  0
   24.8680  -20.6293  -11.5657 C   0  0  0  0  0  0  0  0  0  0  0  0
   25.0184  -19.2662  -11.7564 O   0  0  0  0  0  0  0  0  0  0  0  0
   23.8504  -20.9941  -10.9302 O   0  0  0  0  0  0  0  0  0  0  0  0
  2  1  1  6
  2  3  1  0
  4  3  1  0
  4  5  1  0
  6  5  1  0
  7  6  1  0
  8  2  1  0
  9  8  2  0
 10  8  1  0
 11 12  1  6
 11 10  1  0
 12 13  1  0
 13 21  1  0
 14 13  2  0
 14 15  1  0
 15 16  1  0
 16 17  1  0
 17 18  2  0
 19 18  1  0
 20 19  2  0
 21 16  2  0
 21 20  1  0
 22 23  2  0
 22 11  1  0
 24 22  1  0
 25 24  1  0
 25 26  1  1
 27 28  2  0
 27 26  1  0
 29 28  1  0
 30 35  2  0
 30 29  1  0
 31 30  1  0
 32 33  1  0
 32 31  2  0
 33 34  2  0
 34 35  1  0
 35 27  1  0
 36 37  1  0
 36 25  1  0
 38 36  2  0
M  END
$$$$
