KWW.pdb
     RDKit          3D

 38 41  0  0  1  0  0  0  0  0999 V2000
   30.8079  -24.6974  -16.7758 N   0  0  0  0  0  0  0  0  0  0  0  0
   29.5089  -24.1870  -16.9924 C   0  0  1  0  0  0  0  0  0  0  0  0
   28.4178  -25.1882  -17.2381 C   0  0  0  0  0  0  0  0  0  0  0  0
   28.8350  -26.3212  -18.0801 C   0  0  0  0  0  0  0  0  0  0  0  0
   27.7241  -27.2721  -18.3718 C   0  0  0  0  0  0  0  0  0  0  0  0
   28.2292  -28.3988  -19.2335 C   0  0  0  0  0  0  0  0  0  0  0  0
   27.1788  -29.3966  -19.4402 N   0  0  0  0  0  0  0  0  0  0  0  0
   29.0757  -23.1099  -16.0610 C   0  0  0  0  0  0  0  0  0  0  0  0
   29.2322  -23.3393  -14.8255 O   0  0  0  0  0  0  0  0  0  0  0  0
   28.5154  -21.8809  -16.4229 N   0  0  0  0  0  0  0  0  0  0  0  0
   28.1509  -20.8475  -15.4426 C   0  0  1  0  0  0  0  0  0  0  0  0
   28.0544  -19.5518  -16.1523 C   0  0  0  0  0  0  0  0  0  0  0  0
   27.4530  -18.4651  -15.3891 C   0  0  0  0  0  0  0  0  0  0  0  0
   28.0147  -17.8298  -14.3039 C   0  0  0  0  0  0  0  0  0  0  0  0
   27.1521  -16.8797  -13.8853 N   0  0  0  0  0  0  0  0  0  0  0  0
   26.0506  -16.8609  -14.6440 C   0  0  0  0  0  0  0  0  0  0  0  0
   24.9195  -16.0811  -14.5968 C   0  0  0  0  0  0  0  0  0  0  0  0
   23.9166  -16.2802  -15.5180 C   0  0  0  0  0  0  0  0  0  0  0  0
   24.0590  -17.2641  -16.4821 C   0  0  0  0  0  0  0  0  0  0  0  0
   25.2085  -18.0368  -16.5090 C   0  0  0  0  0  0  0  0  0  0  0  0
   26.2354  -17.8652  -15.6006 C   0  0  0  0  0  0  0  0  0  0  0  0
   26.9405  -21.2570  -14.6886 C   0  0  0  0  0  0  0  0  0  0  0  0
   26.0696  -21.9198  -15.3038 O   0  0  0  0  0  0  0  0  0  0  0  0
   26.7156  -20.9458  -13.3381 N   0  0  0  0  0  0  0  0  0  0  0  0
   25.5844  -21.5700  -12.6149 C   0  0  1  0  0  0  0  0  0  0  0  0
   26.0536  -22.1741  -11.3523 C   0  0  0  0  0  0  0  0  0  0  0  0
   26.3352  -21.1725  -10.3034 C   0  0  0  0  0  0  0  0  0  0  0  0
   25.4090  -20.4198   -9.5894 C   0  0  0  0  0  0  0  0  0  0  0  0
   26.0682  -19.5984   -8.7691 N   0  0  0  0  0  0  0  0  0  0  0  0
   27.3990  -19.7739   -8.9066 C   0  0  0  0  0  0  0  0  0  0  0  0
   28.4701  -19.1725   -8.2689 C   0  0  0  0  0  0  0  0  0  0  0  0
   29.7604  -19.5414   -8.5718 C   0  0  0  0  0  0  0  0  0  0  0  0
   29.9648  -20.5193   -9.5205 C   0  0  0  0  0  0  0  0  0  0  0  0
   28.8903  -21.1095  -10.1485 C   0  0  0  0  0  0  0  0  0  0  0  0
   27.5724  -20.7499   -9.8574 C   0  0  0  0  0  0  0  0  0  0  0  0
   24.5260  -20.5751  -12.4431 C   0  0  0  0  0  0  0  0  0  0  0  0
   23.1845  -20.8831  -12.2923 O   0  0  0  0  0  0  0  0  0  0  0  0
   24.8224  -19.3567  -12.4338 O   0  0  0  0  0  0  0  0  0  0  0  0
  2  1  1  1
  2  3  1  0
  4  3  1  0
  4  5  1  0
  6  5  1  0
  7  6  1  0
  8  2  1  0
  9  8  2  0
 10  8  1  0
 11 12  1  6
 11 10  1  0
 12 13  1  0
 13 21  1  0
 14 13  2  0
 14 15  1  0
 15 16  1  0
 16 17  1  0
 17 18  2  0
 19 18  1  0
 20 19  2  0
 21 16  2  0
 21 20  1  0
 22 23  2  0
 22 11  1  0
 24 22  1  0
 25 24  1  0
 25 26  1  1
 27 28  2  0
 27 26  1  0
 29 28  1  0
 30 35  2  0
 30 29  1  0
 31 30  1  0
 32 33  1  0
 32 31  2  0
 33 34  2  0
 34 35  1  0
 35 27  1  0
 36 37  1  0
 36 25  1  0
 38 36  2  0
M  END
$$$$
