EAE.pdb
     RDKit          3D

 24 23  0  0  1  0  0  0  0  0999 V2000
    8.2838  -15.0969   15.3459 N   0  0  0  0  0  0  0  0  0  0  0  0
    7.6152  -15.6014   16.5154 C   0  0  1  0  0  0  0  0  0  0  0  0
    7.5581  -17.1003   16.5208 C   0  0  0  0  0  0  0  0  0  0  0  0
    8.8710  -17.7914   16.5406 C   0  0  0  0  0  0  0  0  0  0  0  0
    8.7168  -19.2551   16.6227 C   0  0  0  0  0  0  0  0  0  0  0  0
    9.2317  -19.9358   17.5263 O   0  0  0  0  0  0  0  0  0  0  0  0
    8.3334  -15.1261   17.7443 C   0  0  0  0  0  0  0  0  0  0  0  0
    9.5861  -15.1945   17.7906 O   0  0  0  0  0  0  0  0  0  0  0  0
    7.9598  -19.9375   15.6499 O   0  0  0  0  0  0  0  0  0  0  0  0
    7.3846  -13.3804   20.9036 C   0  0  0  0  0  0  0  0  0  0  0  0
    8.3409  -14.0032   19.9304 C   0  0  2  0  0  0  0  0  0  0  0  0
    7.6126  -14.6085   18.8362 N   0  0  0  0  0  0  0  0  0  0  0  0
    9.1246  -15.0793   20.6199 C   0  0  0  0  0  0  0  0  0  0  0  0
    8.7325  -16.2816   20.6054 O   0  0  0  0  0  0  0  0  0  0  0  0
   10.3172  -14.7823   21.3020 N   0  0  0  0  0  0  0  0  0  0  0  0
   11.0709  -15.8060   21.9816 C   0  0  1  0  0  0  0  0  0  0  0  0
   12.5301  -15.4269   22.1002 C   0  0  0  0  0  0  0  0  0  0  0  0
   13.3668  -16.5518   22.6793 C   0  0  0  0  0  0  0  0  0  0  0  0
   14.7842  -16.1459   22.6653 C   0  0  0  0  0  0  0  0  0  0  0  0
   15.1263  -15.0758   22.1209 O   0  0  0  0  0  0  0  0  0  0  0  0
   10.5591  -15.9856   23.3692 C   0  0  0  0  0  0  0  0  0  0  0  0
    9.6203  -15.1438   23.9299 O   0  0  0  0  0  0  0  0  0  0  0  0
   15.7272  -16.9605   23.2593 O   0  0  0  0  0  0  0  0  0  0  0  0
   10.9928  -16.9286   24.0491 O   0  0  0  0  0  0  0  0  0  0  0  0
  2  1  1  6
  2  7  1  0
  3  2  1  0
  4  3  1  0
  4  5  1  0
  5  6  2  0
  7 12  1  0
  8  7  2  0
  9  5  1  0
 11 10  1  1
 11 13  1  0
 12 11  1  0
 13 14  2  0
 13 15  1  0
 15 16  1  0
 16 17  1  1
 16 21  1  0
 18 17  1  0
 19 18  1  0
 20 19  2  0
 21 22  1  0
 23 19  1  0
 24 21  2  0
M  END
$$$$
