EAE.pdb
     RDKit          3D

 24 23  0  0  1  0  0  0  0  0999 V2000
   10.3685  -14.1862   17.2759 N   0  0  0  0  0  0  0  0  0  0  0  0
   10.7024  -15.5853   17.2800 C   0  0  1  0  0  0  0  0  0  0  0  0
   10.4930  -16.2114   15.9331 C   0  0  0  0  0  0  0  0  0  0  0  0
   11.0194  -15.4409   14.7795 C   0  0  0  0  0  0  0  0  0  0  0  0
   10.8623  -16.1780   13.5126 C   0  0  0  0  0  0  0  0  0  0  0  0
   11.6555  -17.0620   13.1461 O   0  0  0  0  0  0  0  0  0  0  0  0
   12.1359  -15.7545   17.6901 C   0  0  0  0  0  0  0  0  0  0  0  0
   12.6303  -16.9074   17.7397 O   0  0  0  0  0  0  0  0  0  0  0  0
    9.7770  -15.8892   12.6618 O   0  0  0  0  0  0  0  0  0  0  0  0
   15.1372  -13.9238   17.3688 C   0  0  0  0  0  0  0  0  0  0  0  0
   14.3347  -14.8193   18.2653 C   0  0  2  0  0  0  0  0  0  0  0  0
   12.9213  -14.6337   18.0171 N   0  0  0  0  0  0  0  0  0  0  0  0
   14.6065  -14.4659   19.6967 C   0  0  0  0  0  0  0  0  0  0  0  0
   14.4778  -13.2776   20.1099 O   0  0  0  0  0  0  0  0  0  0  0  0
   15.0123  -15.4453   20.6197 N   0  0  0  0  0  0  0  0  0  0  0  0
   15.3190  -15.1097   21.9876 C   0  0  1  0  0  0  0  0  0  0  0  0
   14.5572  -15.9892   22.9534 C   0  0  0  0  0  0  0  0  0  0  0  0
   13.0588  -15.7697   22.8653 C   0  0  0  0  0  0  0  0  0  0  0  0
   12.3925  -16.6341   23.8567 C   0  0  0  0  0  0  0  0  0  0  0  0
   12.7298  -17.8301   23.9756 O   0  0  0  0  0  0  0  0  0  0  0  0
   16.7677  -15.3279   22.2581 C   0  0  0  0  0  0  0  0  0  0  0  0
   17.6180  -15.9019   21.3352 O   0  0  0  0  0  0  0  0  0  0  0  0
   11.3933  -16.1075   24.6504 O   0  0  0  0  0  0  0  0  0  0  0  0
   17.2299  -14.9805   23.3561 O   0  0  0  0  0  0  0  0  0  0  0  0
  2  1  1  6
  2  7  1  0
  3  2  1  0
  4  3  1  0
  4  5  1  0
  5  6  2  0
  7 12  1  0
  8  7  2  0
  9  5  1  0
 11 10  1  6
 11 13  1  0
 12 11  1  0
 13 14  2  0
 13 15  1  0
 15 16  1  0
 16 17  1  1
 16 21  1  0
 18 17  1  0
 19 18  1  0
 20 19  2  0
 21 22  1  0
 23 19  1  0
 24 21  2  0
M  END
$$$$
