EAE.pdb
     RDKit          3D

 24 23  0  0  1  0  0  0  0  0999 V2000
    8.7150  -18.5363   20.4373 N   0  0  0  0  0  0  0  0  0  0  0  0
    9.9051  -19.0376   21.0709 C   0  0  1  0  0  0  0  0  0  0  0  0
   11.0786  -19.0298   20.1365 C   0  0  0  0  0  0  0  0  0  0  0  0
   11.2993  -17.7633   19.3957 C   0  0  0  0  0  0  0  0  0  0  0  0
   12.4780  -17.8442   18.5141 C   0  0  0  0  0  0  0  0  0  0  0  0
   13.6431  -17.8412   18.9473 O   0  0  0  0  0  0  0  0  0  0  0  0
   10.2210  -18.1978   22.2737 C   0  0  0  0  0  0  0  0  0  0  0  0
   11.2435  -18.4569   22.9544 O   0  0  0  0  0  0  0  0  0  0  0  0
   12.3068  -17.9293   17.1182 O   0  0  0  0  0  0  0  0  0  0  0  0
    8.8545  -15.1081   23.8513 C   0  0  0  0  0  0  0  0  0  0  0  0
    9.7395  -16.3170   23.7807 C   0  0  2  0  0  0  0  0  0  0  0  0
    9.3810  -17.1293   22.6381 N   0  0  0  0  0  0  0  0  0  0  0  0
    9.5539  -17.1444   25.0170 C   0  0  0  0  0  0  0  0  0  0  0  0
    8.5105  -17.8389   25.1852 O   0  0  0  0  0  0  0  0  0  0  0  0
   10.5342  -17.1714   26.0241 N   0  0  0  0  0  0  0  0  0  0  0  0
   10.5505  -18.2022   27.0315 C   0  0  1  0  0  0  0  0  0  0  0  0
   11.6289  -19.2253   26.7536 C   0  0  0  0  0  0  0  0  0  0  0  0
   11.6835  -20.3016   27.8211 C   0  0  0  0  0  0  0  0  0  0  0  0
   12.7669  -21.2452   27.4900 C   0  0  0  0  0  0  0  0  0  0  0  0
   13.4030  -21.1227   26.4228 O   0  0  0  0  0  0  0  0  0  0  0  0
   10.8510  -17.6122   28.3661 C   0  0  0  0  0  0  0  0  0  0  0  0
   11.2226  -16.2932   28.5290 O   0  0  0  0  0  0  0  0  0  0  0  0
   13.0697  -22.2639   28.3710 O   0  0  0  0  0  0  0  0  0  0  0  0
   10.7644  -18.3336   29.3720 O   0  0  0  0  0  0  0  0  0  0  0  0
  2  1  1  6
  2  7  1  0
  3  2  1  0
  4  3  1  0
  4  5  1  0
  5  6  2  0
  7 12  1  0
  8  7  2  0
  9  5  1  0
 11 10  1  1
 11 13  1  0
 12 11  1  0
 13 14  2  0
 13 15  1  0
 15 16  1  0
 16 17  1  6
 16 21  1  0
 18 17  1  0
 19 18  1  0
 20 19  2  0
 21 22  1  0
 23 19  1  0
 24 21  2  0
M  END
$$$$
