EAE.pdb
     RDKit          3D

 24 23  0  0  1  0  0  0  0  0999 V2000
   11.1721  -16.7289   17.7715 N   0  0  0  0  0  0  0  0  0  0  0  0
   11.3893  -17.6453   18.8587 C   0  0  1  0  0  0  0  0  0  0  0  0
   12.8475  -17.7971   19.1758 C   0  0  0  0  0  0  0  0  0  0  0  0
   13.6592  -18.4875   18.1434 C   0  0  0  0  0  0  0  0  0  0  0  0
   15.0521  -18.6836   18.5843 C   0  0  0  0  0  0  0  0  0  0  0  0
   15.6640  -19.7535   18.4237 O   0  0  0  0  0  0  0  0  0  0  0  0
   10.6633  -17.1546   20.0769 C   0  0  0  0  0  0  0  0  0  0  0  0
   10.8615  -15.9829   20.4816 O   0  0  0  0  0  0  0  0  0  0  0  0
   15.7434  -17.6316   19.2173 O   0  0  0  0  0  0  0  0  0  0  0  0
    7.8281  -18.3646   22.1526 C   0  0  0  0  0  0  0  0  0  0  0  0
    8.9682  -17.4439   21.8328 C   0  0  2  0  0  0  0  0  0  0  0  0
    9.7684  -17.9973   20.7617 N   0  0  0  0  0  0  0  0  0  0  0  0
    9.8444  -17.2962   23.0403 C   0  0  0  0  0  0  0  0  0  0  0  0
   10.9612  -17.8854   23.1105 O   0  0  0  0  0  0  0  0  0  0  0  0
    9.4492  -16.4990   24.1284 N   0  0  0  0  0  0  0  0  0  0  0  0
   10.2289  -16.4377   25.3393 C   0  0  1  0  0  0  0  0  0  0  0  0
    9.7209  -15.3559   26.2659 C   0  0  0  0  0  0  0  0  0  0  0  0
   10.5210  -15.2844   27.5526 C   0  0  0  0  0  0  0  0  0  0  0  0
    9.9656  -14.2123   28.3989 C   0  0  0  0  0  0  0  0  0  0  0  0
   10.4284  -14.0091   29.5404 O   0  0  0  0  0  0  0  0  0  0  0  0
   10.1257  -17.7245   26.0830 C   0  0  0  0  0  0  0  0  0  0  0  0
   11.1984  -18.2908   26.7409 O   0  0  0  0  0  0  0  0  0  0  0  0
    8.9303  -13.4372   27.9163 O   0  0  0  0  0  0  0  0  0  0  0  0
    9.0330  -18.3117   26.1131 O   0  0  0  0  0  0  0  0  0  0  0  0
  2  1  1  6
  2  7  1  0
  3  2  1  0
  4  3  1  0
  4  5  1  0
  5  6  2  0
  7 12  1  0
  8  7  2  0
  9  5  1  0
 11 10  1  1
 11 13  1  0
 12 11  1  0
 13 14  2  0
 13 15  1  0
 15 16  1  0
 16 17  1  1
 16 21  1  0
 18 17  1  0
 19 18  1  0
 20 19  2  0
 21 22  1  0
 23 19  1  0
 24 21  2  0
M  END
$$$$
