EAE.pdb
     RDKit          3D

 24 23  0  0  1  0  0  0  0  0999 V2000
    7.1991  -17.3310   21.2386 N   0  0  0  0  0  0  0  0  0  0  0  0
    8.6126  -17.3210   21.5052 C   0  0  1  0  0  0  0  0  0  0  0  0
    9.4145  -17.1456   20.2497 C   0  0  0  0  0  0  0  0  0  0  0  0
    8.6293  -17.0720   18.9929 C   0  0  0  0  0  0  0  0  0  0  0  0
    9.4904  -16.8126   17.8250 C   0  0  0  0  0  0  0  0  0  0  0  0
   10.7142  -16.6178   17.9218 O   0  0  0  0  0  0  0  0  0  0  0  0
    8.9320  -16.2079   22.4595 C   0  0  0  0  0  0  0  0  0  0  0  0
   10.1304  -15.9662   22.7449 O   0  0  0  0  0  0  0  0  0  0  0  0
    8.9299  -16.7781   16.5327 O   0  0  0  0  0  0  0  0  0  0  0  0
    7.1348  -13.3757   24.0236 C   0  0  0  0  0  0  0  0  0  0  0  0
    8.2469  -14.3794   23.9521 C   0  0  2  0  0  0  0  0  0  0  0  0
    7.9004  -15.4404   23.0312 N   0  0  0  0  0  0  0  0  0  0  0  0
    8.4577  -14.9882   25.3059 C   0  0  0  0  0  0  0  0  0  0  0  0
    7.6262  -15.8109   25.7866 O   0  0  0  0  0  0  0  0  0  0  0  0
    9.5852  -14.6615   26.0791 N   0  0  0  0  0  0  0  0  0  0  0  0
    9.7845  -15.2196   27.3930 C   0  0  1  0  0  0  0  0  0  0  0  0
   11.0270  -16.0803   27.4419 C   0  0  0  0  0  0  0  0  0  0  0  0
   10.8973  -17.3196   26.5768 C   0  0  0  0  0  0  0  0  0  0  0  0
   12.1570  -18.0826   26.6473 C   0  0  0  0  0  0  0  0  0  0  0  0
   13.0673  -17.7229   27.4222 O   0  0  0  0  0  0  0  0  0  0  0  0
    9.9765  -14.1300   28.3907 C   0  0  0  0  0  0  0  0  0  0  0  0
    9.9987  -14.3629   29.7507 O   0  0  0  0  0  0  0  0  0  0  0  0
   12.3188  -19.1968   25.8485 O   0  0  0  0  0  0  0  0  0  0  0  0
   10.1225  -12.9666   27.9848 O   0  0  0  0  0  0  0  0  0  0  0  0
  2  1  1  6
  2  7  1  0
  3  2  1  0
  4  3  1  0
  4  5  1  0
  5  6  2  0
  7 12  1  0
  8  7  2  0
  9  5  1  0
 11 10  1  1
 11 13  1  0
 12 11  1  0
 13 14  2  0
 13 15  1  0
 15 16  1  0
 16 17  1  6
 16 21  1  0
 18 17  1  0
 19 18  1  0
 20 19  2  0
 21 22  1  0
 23 19  1  0
 24 21  2  0
M  END
$$$$
