EAE.pdb
     RDKit          3D

 24 23  0  0  1  0  0  0  0  0999 V2000
    8.2393  -15.2368   20.5975 N   0  0  0  0  0  0  0  0  0  0  0  0
    7.5508  -15.7163   21.7660 C   0  0  1  0  0  0  0  0  0  0  0  0
    7.6935  -17.2009   21.9260 C   0  0  0  0  0  0  0  0  0  0  0  0
    7.8191  -17.9721   20.6647 C   0  0  0  0  0  0  0  0  0  0  0  0
    7.9271  -19.4203   20.9180 C   0  0  0  0  0  0  0  0  0  0  0  0
    7.2577  -20.2634   20.2968 O   0  0  0  0  0  0  0  0  0  0  0  0
    8.0970  -15.0296   22.9834 C   0  0  0  0  0  0  0  0  0  0  0  0
    9.3154  -15.1474   23.2623 O   0  0  0  0  0  0  0  0  0  0  0  0
    8.8182  -19.8972   21.8998 O   0  0  0  0  0  0  0  0  0  0  0  0
    6.8064  -12.6339   25.5354 C   0  0  0  0  0  0  0  0  0  0  0  0
    7.8344  -13.5324   24.9146 C   0  0  2  0  0  0  0  0  0  0  0  0
    7.2542  -14.2604   23.8067 N   0  0  0  0  0  0  0  0  0  0  0  0
    8.3056  -14.5288   25.9309 C   0  0  0  0  0  0  0  0  0  0  0  0
    7.6161  -15.5521   26.2079 O   0  0  0  0  0  0  0  0  0  0  0  0
    9.5268  -14.3536   26.6045 N   0  0  0  0  0  0  0  0  0  0  0  0
    9.9868  -15.3015   27.5882 C   0  0  1  0  0  0  0  0  0  0  0  0
   11.4275  -15.6911   27.3444 C   0  0  0  0  0  0  0  0  0  0  0  0
   11.5971  -16.4740   26.0563 C   0  0  0  0  0  0  0  0  0  0  0  0
   13.0268  -16.7842   25.8731 C   0  0  0  0  0  0  0  0  0  0  0  0
   13.8713  -16.3624   26.6901 O   0  0  0  0  0  0  0  0  0  0  0  0
    9.9286  -14.6990   28.9495 C   0  0  0  0  0  0  0  0  0  0  0  0
   10.1498  -15.4326   30.0972 O   0  0  0  0  0  0  0  0  0  0  0  0
   13.4209  -17.5445   24.7904 O   0  0  0  0  0  0  0  0  0  0  0  0
    9.6711  -13.4899   29.0577 O   0  0  0  0  0  0  0  0  0  0  0  0
  2  1  1  6
  2  7  1  0
  3  2  1  0
  4  3  1  0
  4  5  1  0
  5  6  2  0
  7 12  1  0
  8  7  2  0
  9  5  1  0
 11 10  1  1
 11 13  1  0
 12 11  1  0
 13 14  2  0
 13 15  1  0
 15 16  1  0
 16 17  1  6
 16 21  1  0
 18 17  1  0
 19 18  1  0
 20 19  2  0
 21 22  1  0
 23 19  1  0
 24 21  2  0
M  END
$$$$
