EAE.pdb
     RDKit          3D

 24 23  0  0  1  0  0  0  0  0999 V2000
   15.3280  -13.8328   16.0844 N   0  0  0  0  0  0  0  0  0  0  0  0
   14.1880  -14.6473   16.4101 C   0  0  1  0  0  0  0  0  0  0  0  0
   14.4604  -16.1041   16.1782 C   0  0  0  0  0  0  0  0  0  0  0  0
   15.8867  -16.4672   15.9900 C   0  0  0  0  0  0  0  0  0  0  0  0
   16.0609  -17.9191   15.8038 C   0  0  0  0  0  0  0  0  0  0  0  0
   15.5373  -18.7608   16.5537 O   0  0  0  0  0  0  0  0  0  0  0  0
   13.8168  -14.4331   17.8482 C   0  0  0  0  0  0  0  0  0  0  0  0
   14.7158  -14.1678   18.6834 O   0  0  0  0  0  0  0  0  0  0  0  0
   16.8488  -18.4014   14.7399 O   0  0  0  0  0  0  0  0  0  0  0  0
   10.6568  -14.2656   19.8288 C   0  0  0  0  0  0  0  0  0  0  0  0
   12.1442  -14.2346   19.6380 C   0  0  2  0  0  0  0  0  0  0  0  0
   12.4747  -14.5282   18.2601 N   0  0  0  0  0  0  0  0  0  0  0  0
   12.7803  -15.2811   20.5027 C   0  0  0  0  0  0  0  0  0  0  0  0
   12.9853  -16.4502   20.0661 O   0  0  0  0  0  0  0  0  0  0  0  0
   13.1667  -14.9925   21.8230 N   0  0  0  0  0  0  0  0  0  0  0  0
   14.0274  -15.8782   22.5663 C   0  0  1  0  0  0  0  0  0  0  0  0
   15.3907  -15.2623   22.7874 C   0  0  0  0  0  0  0  0  0  0  0  0
   16.2948  -16.1582   23.6127 C   0  0  0  0  0  0  0  0  0  0  0  0
   17.6092  -15.5054   23.7553 C   0  0  0  0  0  0  0  0  0  0  0  0
   18.1282  -15.3768   24.8834 O   0  0  0  0  0  0  0  0  0  0  0  0
   13.4514  -16.1432   23.9145 C   0  0  0  0  0  0  0  0  0  0  0  0
   13.8673  -17.1935   24.7072 O   0  0  0  0  0  0  0  0  0  0  0  0
   18.2585  -15.0388   22.6300 O   0  0  0  0  0  0  0  0  0  0  0  0
   12.5625  -15.3910   24.3433 O   0  0  0  0  0  0  0  0  0  0  0  0
  2  1  1  1
  2  7  1  0
  3  2  1  0
  4  3  1  0
  4  5  1  0
  5  6  2  0
  7 12  1  0
  8  7  2  0
  9  5  1  0
 11 10  1  6
 11 13  1  0
 12 11  1  0
 13 14  2  0
 13 15  1  0
 15 16  1  0
 16 17  1  1
 16 21  1  0
 18 17  1  0
 19 18  1  0
 20 19  2  0
 21 22  1  0
 23 19  1  0
 24 21  2  0
M  END
$$$$
