AQP.pdb
     RDKit          3D

 22 22  0  0  1  0  0  0  0  0999 V2000
    4.7554  -19.4055   21.9935 C   0  0  0  0  0  0  0  0  0  0  0  0
    6.0196  -18.5732   22.0558 C   0  0  2  0  0  0  0  0  0  0  0  0
    7.1328  -19.4998   22.1261 N   0  0  0  0  0  0  0  0  0  0  0  0
    5.9641  -17.7352   23.2708 C   0  0  0  0  0  0  0  0  0  0  0  0
    5.0338  -16.9359   23.5241 O   0  0  0  0  0  0  0  0  0  0  0  0
    8.1237  -21.0128   27.5591 N   0  0  0  0  0  0  0  0  0  0  0  0
    7.8374  -19.6912   27.9843 C   0  0  0  0  0  0  0  0  0  0  0  0
    8.2081  -19.3469   29.1026 O   0  0  0  0  0  0  0  0  0  0  0  0
    7.1115  -18.8274   27.0373 C   0  0  0  0  0  0  0  0  0  0  0  0
    7.9187  -17.6990   26.4534 C   0  0  0  0  0  0  0  0  0  0  0  0
    7.1057  -16.9940   25.3980 C   0  0  2  0  0  0  0  0  0  0  0  0
    7.0078  -17.8246   24.2123 N   0  0  0  0  0  0  0  0  0  0  0  0
    7.5900  -15.6353   25.0958 C   0  0  0  0  0  0  0  0  0  0  0  0
    8.5149  -15.5346   24.2424 O   0  0  0  0  0  0  0  0  0  0  0  0
    7.0978  -14.4501   25.6864 N   0  0  0  0  0  0  0  0  0  0  0  0
    5.8045  -14.2106   26.3213 C   0  0  0  0  0  0  0  0  0  0  0  0
    5.5481  -12.7095   26.1013 C   0  0  0  0  0  0  0  0  0  0  0  0
    6.9331  -12.1845   26.3861 C   0  0  0  0  0  0  0  0  0  0  0  0
    7.8168  -13.1912   25.7686 C   0  0  1  0  0  0  0  0  0  0  0  0
    9.1076  -13.3084   26.4470 C   0  0  0  0  0  0  0  0  0  0  0  0
    9.3407  -14.3549   27.1020 O   0  0  0  0  0  0  0  0  0  0  0  0
   10.0986  -12.3440   26.4205 O   0  0  0  0  0  0  0  0  0  0  0  0
  2  3  1  0
  2  1  1  1
  4  2  1  0
  5  4  2  0
  6  7  1  0
  7  9  1  0
  7  8  2  0
  9 10  1  0
 11 10  1  1
 11 12  1  0
 12  4  1  0
 13 15  1  0
 13 11  1  0
 14 13  2  0
 15 19  1  0
 16 17  1  0
 16 15  1  0
 17 18  1  0
 18 19  1  0
 19 20  1  1
 20 21  2  0
 20 22  1  0
M  END
$$$$
