AQP.pdb
     RDKit          3D

 22 22  0  0  1  0  0  0  0  0999 V2000
    8.5287  -12.7589   19.7867 C   0  0  0  0  0  0  0  0  0  0  0  0
    8.2311  -14.2328   19.9705 C   0  0  2  0  0  0  0  0  0  0  0  0
    7.4128  -14.6424   18.8457 N   0  0  0  0  0  0  0  0  0  0  0  0
    7.4932  -14.4026   21.2386 C   0  0  0  0  0  0  0  0  0  0  0  0
    6.2769  -14.1392   21.3777 O   0  0  0  0  0  0  0  0  0  0  0  0
    6.9394  -19.3450   24.0593 N   0  0  0  0  0  0  0  0  0  0  0  0
    6.0401  -18.6280   23.2307 C   0  0  0  0  0  0  0  0  0  0  0  0
    5.1297  -19.2471   22.6882 O   0  0  0  0  0  0  0  0  0  0  0  0
    6.2730  -17.1805   23.0882 C   0  0  0  0  0  0  0  0  0  0  0  0
    7.4408  -16.6408   23.8697 C   0  0  0  0  0  0  0  0  0  0  0  0
    7.5481  -15.1537   23.6492 C   0  0  2  0  0  0  0  0  0  0  0  0
    8.1784  -14.8877   22.3696 N   0  0  0  0  0  0  0  0  0  0  0  0
    8.2057  -14.4426   24.7600 C   0  0  0  0  0  0  0  0  0  0  0  0
    9.4522  -14.6016   24.8823 O   0  0  0  0  0  0  0  0  0  0  0  0
    7.5478  -13.6042   25.6874 N   0  0  0  0  0  0  0  0  0  0  0  0
    6.1767  -13.1020   25.6574 C   0  0  0  0  0  0  0  0  0  0  0  0
    6.2483  -11.7634   26.4125 C   0  0  0  0  0  0  0  0  0  0  0  0
    7.1559  -12.1742   27.5450 C   0  0  0  0  0  0  0  0  0  0  0  0
    8.1425  -13.0559   26.8932 C   0  0  1  0  0  0  0  0  0  0  0  0
    8.6710  -14.0816   27.7926 C   0  0  0  0  0  0  0  0  0  0  0  0
    8.2547  -15.2594   27.6588 O   0  0  0  0  0  0  0  0  0  0  0  0
    9.6028  -13.8484   28.7876 O   0  0  0  0  0  0  0  0  0  0  0  0
  2  3  1  0
  2  1  1  6
  4  2  1  0
  5  4  2  0
  6  7  1  0
  7  9  1  0
  7  8  2  0
  9 10  1  0
 11 10  1  1
 11 12  1  0
 12  4  1  0
 13 15  1  0
 13 11  1  0
 14 13  2  0
 15 19  1  0
 16 17  1  0
 16 15  1  0
 17 18  1  0
 18 19  1  0
 19 20  1  1
 20 21  2  0
 20 22  1  0
M  END
$$$$
