AQP.pdb
     RDKit          3D

 22 22  0  0  1  0  0  0  0  0999 V2000
    8.6044  -12.5415   19.7990 C   0  0  0  0  0  0  0  0  0  0  0  0
    8.2318  -14.0056   19.9104 C   0  0  2  0  0  0  0  0  0  0  0  0
    7.3592  -14.3060   18.7920 N   0  0  0  0  0  0  0  0  0  0  0  0
    7.5236  -14.2080   21.1907 C   0  0  0  0  0  0  0  0  0  0  0  0
    6.3035  -13.9792   21.3559 O   0  0  0  0  0  0  0  0  0  0  0  0
    7.5871  -19.2982   24.2319 N   0  0  0  0  0  0  0  0  0  0  0  0
    6.9185  -18.4735   25.1711 C   0  0  0  0  0  0  0  0  0  0  0  0
    6.3702  -19.0097   26.1294 O   0  0  0  0  0  0  0  0  0  0  0  0
    6.9382  -17.0223   24.9187 C   0  0  0  0  0  0  0  0  0  0  0  0
    7.6481  -16.6020   23.6597 C   0  0  0  0  0  0  0  0  0  0  0  0
    7.6302  -15.0988   23.5514 C   0  0  2  0  0  0  0  0  0  0  0  0
    8.2436  -14.6855   22.3031 N   0  0  0  0  0  0  0  0  0  0  0  0
    8.2181  -14.4201   24.7201 C   0  0  0  0  0  0  0  0  0  0  0  0
    9.4643  -14.5395   24.8834 O   0  0  0  0  0  0  0  0  0  0  0  0
    7.4944  -13.6531   25.6601 N   0  0  0  0  0  0  0  0  0  0  0  0
    6.0712  -13.3254   25.6750 C   0  0  0  0  0  0  0  0  0  0  0  0
    6.0024  -11.9748   26.4086 C   0  0  0  0  0  0  0  0  0  0  0  0
    6.9940  -12.2492   27.5116 C   0  0  0  0  0  0  0  0  0  0  0  0
    8.0588  -13.0135   26.8352 C   0  0  1  0  0  0  0  0  0  0  0  0
    8.7427  -13.9493   27.7278 C   0  0  0  0  0  0  0  0  0  0  0  0
    8.4807  -15.1731   27.6177 O   0  0  0  0  0  0  0  0  0  0  0  0
    9.6641  -13.5831   28.6920 O   0  0  0  0  0  0  0  0  0  0  0  0
  2  3  1  0
  2  1  1  6
  4  2  1  0
  5  4  2  0
  6  7  1  0
  7  9  1  0
  7  8  2  0
  9 10  1  0
 11 10  1  1
 11 12  1  0
 12  4  1  0
 13 15  1  0
 13 11  1  0
 14 13  2  0
 15 19  1  0
 16 17  1  0
 16 15  1  0
 17 18  1  0
 18 19  1  0
 19 20  1  1
 20 21  2  0
 20 22  1  0
M  END
$$$$
