AQP.pdb
     RDKit          3D

 22 22  0  0  1  0  0  0  0  0999 V2000
    9.0041  -12.3309   20.1355 C   0  0  0  0  0  0  0  0  0  0  0  0
    8.2610  -13.6468   20.0303 C   0  0  2  0  0  0  0  0  0  0  0  0
    7.2760  -13.4932   18.9773 N   0  0  0  0  0  0  0  0  0  0  0  0
    7.6004  -13.9114   21.3247 C   0  0  0  0  0  0  0  0  0  0  0  0
    6.5386  -13.3578   21.6911 O   0  0  0  0  0  0  0  0  0  0  0  0
    8.1914  -19.2756   25.0667 N   0  0  0  0  0  0  0  0  0  0  0  0
    6.9771  -18.5596   25.2154 C   0  0  0  0  0  0  0  0  0  0  0  0
    5.9740  -19.1799   25.5553 O   0  0  0  0  0  0  0  0  0  0  0  0
    7.0188  -17.1114   24.9487 C   0  0  0  0  0  0  0  0  0  0  0  0
    7.5785  -16.7245   23.6060 C   0  0  0  0  0  0  0  0  0  0  0  0
    7.5952  -15.2224   23.4831 C   0  0  2  0  0  0  0  0  0  0  0  0
    8.1819  -14.8365   22.2134 N   0  0  0  0  0  0  0  0  0  0  0  0
    8.2340  -14.5480   24.6273 C   0  0  0  0  0  0  0  0  0  0  0  0
    9.4793  -14.7066   24.7619 O   0  0  0  0  0  0  0  0  0  0  0  0
    7.5595  -13.7448   25.5737 N   0  0  0  0  0  0  0  0  0  0  0  0
    6.1812  -13.2623   25.5506 C   0  0  0  0  0  0  0  0  0  0  0  0
    6.2295  -11.9436   26.3416 C   0  0  0  0  0  0  0  0  0  0  0  0
    7.1381  -12.3711   27.4670 C   0  0  0  0  0  0  0  0  0  0  0  0
    8.1407  -13.2203   26.7966 C   0  0  1  0  0  0  0  0  0  0  0  0
    8.6804  -14.2619   27.6706 C   0  0  0  0  0  0  0  0  0  0  0  0
    8.3098  -15.4471   27.4800 O   0  0  0  0  0  0  0  0  0  0  0  0
    9.5762  -14.0362   28.7000 O   0  0  0  0  0  0  0  0  0  0  0  0
  2  3  1  0
  2  1  1  1
  4  2  1  0
  5  4  2  0
  6  7  1  0
  7  9  1  0
  7  8  2  0
  9 10  1  0
 11 10  1  1
 11 12  1  0
 12  4  1  0
 13 15  1  0
 13 11  1  0
 14 13  2  0
 15 19  1  0
 16 17  1  0
 16 15  1  0
 17 18  1  0
 18 19  1  0
 19 20  1  1
 20 21  2  0
 20 22  1  0
M  END
$$$$
