AQP.pdb
     RDKit          3D

 22 22  0  0  1  0  0  0  0  0999 V2000
    8.9251  -12.7159   20.0290 C   0  0  0  0  0  0  0  0  0  0  0  0
    8.0226  -13.9325   20.0396 C   0  0  2  0  0  0  0  0  0  0  0  0
    6.9741  -13.6896   19.0678 N   0  0  0  0  0  0  0  0  0  0  0  0
    7.4520  -14.0752   21.3944 C   0  0  0  0  0  0  0  0  0  0  0  0
    6.4845  -13.4020   21.8175 O   0  0  0  0  0  0  0  0  0  0  0  0
    7.3560  -19.4746   24.5439 N   0  0  0  0  0  0  0  0  0  0  0  0
    6.7256  -18.5763   25.4411 C   0  0  0  0  0  0  0  0  0  0  0  0
    6.1918  -19.0367   26.4459 O   0  0  0  0  0  0  0  0  0  0  0  0
    6.7648  -17.1458   25.0916 C   0  0  0  0  0  0  0  0  0  0  0  0
    7.4078  -16.8286   23.7680 C   0  0  0  0  0  0  0  0  0  0  0  0
    7.4661  -15.3338   23.5838 C   0  0  2  0  0  0  0  0  0  0  0  0
    8.0137  -15.0174   22.2780 N   0  0  0  0  0  0  0  0  0  0  0  0
    8.1704  -14.6361   24.6744 C   0  0  0  0  0  0  0  0  0  0  0  0
    9.4186  -14.8094   24.7518 O   0  0  0  0  0  0  0  0  0  0  0  0
    7.5549  -13.7958   25.6288 N   0  0  0  0  0  0  0  0  0  0  0  0
    6.1862  -13.2869   25.6553 C   0  0  0  0  0  0  0  0  0  0  0  0
    6.2952  -11.9496   26.4083 C   0  0  0  0  0  0  0  0  0  0  0  0
    7.2462  -12.3662   27.5023 C   0  0  0  0  0  0  0  0  0  0  0  0
    8.2010  -13.2519   26.8099 C   0  0  1  0  0  0  0  0  0  0  0  0
    8.7607  -14.2813   27.6859 C   0  0  0  0  0  0  0  0  0  0  0  0
    8.3972  -15.4711   27.5106 O   0  0  0  0  0  0  0  0  0  0  0  0
    9.6680  -14.0394   28.7012 O   0  0  0  0  0  0  0  0  0  0  0  0
  2  3  1  0
  2  1  1  1
  4  2  1  0
  5  4  2  0
  6  7  1  0
  7  9  1  0
  7  8  2  0
  9 10  1  0
 11 10  1  1
 11 12  1  0
 12  4  1  0
 13 15  1  0
 13 11  1  0
 14 13  2  0
 15 19  1  0
 16 17  1  0
 16 15  1  0
 17 18  1  0
 18 19  1  0
 19 20  1  1
 20 21  2  0
 20 22  1  0
M  END
$$$$
