AQP.pdb
     RDKit          3D

 22 22  0  0  1  0  0  0  0  0999 V2000
    8.3717  -12.8473   19.8188 C   0  0  0  0  0  0  0  0  0  0  0  0
    8.3229  -14.3441   20.0468 C   0  0  2  0  0  0  0  0  0  0  0  0
    7.7165  -14.9317   18.8679 N   0  0  0  0  0  0  0  0  0  0  0  0
    7.4944  -14.6046   21.2415 C   0  0  0  0  0  0  0  0  0  0  0  0
    6.3090  -15.0055   21.1936 O   0  0  0  0  0  0  0  0  0  0  0  0
    7.5252  -19.1846   24.0124 N   0  0  0  0  0  0  0  0  0  0  0  0
    6.8487  -18.4666   25.0303 C   0  0  0  0  0  0  0  0  0  0  0  0
    6.3222  -19.1024   25.9387 O   0  0  0  0  0  0  0  0  0  0  0  0
    6.8341  -16.9982   24.9149 C   0  0  0  0  0  0  0  0  0  0  0  0
    7.5488  -16.4444   23.7114 C   0  0  0  0  0  0  0  0  0  0  0  0
    7.4952  -14.9385   23.7448 C   0  0  2  0  0  0  0  0  0  0  0  0
    8.0506  -14.3966   22.5188 N   0  0  0  0  0  0  0  0  0  0  0  0
    8.1141  -14.3567   24.9492 C   0  0  0  0  0  0  0  0  0  0  0  0
    9.3520  -14.5491   25.1056 O   0  0  0  0  0  0  0  0  0  0  0  0
    7.4282  -13.6067   25.9304 N   0  0  0  0  0  0  0  0  0  0  0  0
    6.0006  -13.3148   26.0295 C   0  0  0  0  0  0  0  0  0  0  0  0
    5.9414  -11.9651   26.7657 C   0  0  0  0  0  0  0  0  0  0  0  0
    7.0031  -12.2127   27.8080 C   0  0  0  0  0  0  0  0  0  0  0  0
    8.0449  -12.9511   27.0698 C   0  0  1  0  0  0  0  0  0  0  0  0
    8.8038  -13.8679   27.9205 C   0  0  0  0  0  0  0  0  0  0  0  0
    8.6114  -15.1018   27.7826 O   0  0  0  0  0  0  0  0  0  0  0  0
    9.7253  -13.4734   28.8734 O   0  0  0  0  0  0  0  0  0  0  0  0
  2  3  1  0
  2  1  1  6
  4  2  1  0
  5  4  2  0
  6  7  1  0
  7  9  1  0
  7  8  2  0
  9 10  1  0
 11 10  1  6
 11 12  1  0
 12  4  1  0
 13 15  1  0
 13 11  1  0
 14 13  2  0
 15 19  1  0
 16 17  1  0
 16 15  1  0
 17 18  1  0
 18 19  1  0
 19 20  1  1
 20 21  2  0
 20 22  1  0
M  END
$$$$
