AQP.pdb
     RDKit          3D

 22 22  0  0  1  0  0  0  0  0999 V2000
   13.6665  -16.9301   22.3905 C   0  0  0  0  0  0  0  0  0  0  0  0
   12.6256  -17.4061   23.3829 C   0  0  2  0  0  0  0  0  0  0  0  0
   12.0426  -18.6160   22.8364 N   0  0  0  0  0  0  0  0  0  0  0  0
   11.6002  -16.3521   23.5212 C   0  0  0  0  0  0  0  0  0  0  0  0
   11.8340  -15.2072   23.9717 O   0  0  0  0  0  0  0  0  0  0  0  0
    8.3580  -14.2652   19.8012 N   0  0  0  0  0  0  0  0  0  0  0  0
    7.3358  -13.9586   20.7343 C   0  0  0  0  0  0  0  0  0  0  0  0
    6.6065  -12.9988   20.5035 O   0  0  0  0  0  0  0  0  0  0  0  0
    7.2295  -14.8287   21.9182 C   0  0  0  0  0  0  0  0  0  0  0  0
    8.2528  -15.9298   21.9963 C   0  0  0  0  0  0  0  0  0  0  0  0
    9.2063  -15.6494   23.1294 C   0  0  2  0  0  0  0  0  0  0  0  0
   10.2760  -16.6298   23.1296 N   0  0  0  0  0  0  0  0  0  0  0  0
    8.5423  -15.5395   24.4405 C   0  0  0  0  0  0  0  0  0  0  0  0
    8.6256  -16.5378   25.2089 O   0  0  0  0  0  0  0  0  0  0  0  0
    7.8273  -14.4087   24.8940 N   0  0  0  0  0  0  0  0  0  0  0  0
    7.6693  -13.1061   24.2528 C   0  0  0  0  0  0  0  0  0  0  0  0
    7.4754  -12.1291   25.4255 C   0  0  0  0  0  0  0  0  0  0  0  0
    6.5516  -12.9599   26.2807 C   0  0  0  0  0  0  0  0  0  0  0  0
    7.0897  -14.3262   26.1420 C   0  0  1  0  0  0  0  0  0  0  0  0
    6.0618  -15.3588   26.2729 C   0  0  0  0  0  0  0  0  0  0  0  0
    5.5607  -15.8335   25.2231 O   0  0  0  0  0  0  0  0  0  0  0  0
    5.5969  -15.8553   27.4772 O   0  0  0  0  0  0  0  0  0  0  0  0
  2  3  1  0
  2  1  1  6
  4  2  1  0
  5  4  2  0
  6  7  1  0
  7  9  1  0
  7  8  2  0
  9 10  1  0
 11 10  1  6
 11 12  1  0
 12  4  1  0
 13 15  1  0
 13 11  1  0
 14 13  2  0
 15 19  1  0
 16 17  1  0
 16 15  1  0
 17 18  1  0
 18 19  1  0
 19 20  1  6
 20 21  2  0
 20 22  1  0
M  END
$$$$
