AQP.pdb
     RDKit          3D

 22 22  0  0  1  0  0  0  0  0999 V2000
   11.1029  -20.0004   18.8530 C   0  0  0  0  0  0  0  0  0  0  0  0
   10.4613  -18.8231   18.1478 C   0  0  2  0  0  0  0  0  0  0  0  0
   11.4111  -18.3550   17.1571 N   0  0  0  0  0  0  0  0  0  0  0  0
   10.1949  -17.7711   19.1496 C   0  0  0  0  0  0  0  0  0  0  0  0
   11.0921  -17.1184   19.7302 O   0  0  0  0  0  0  0  0  0  0  0  0
    7.4356  -13.4048   19.1362 N   0  0  0  0  0  0  0  0  0  0  0  0
    7.1724  -13.4882   20.5266 C   0  0  0  0  0  0  0  0  0  0  0  0
    7.3012  -12.4734   21.2048 O   0  0  0  0  0  0  0  0  0  0  0  0
    6.7587  -14.8014   21.0504 C   0  0  0  0  0  0  0  0  0  0  0  0
    7.0787  -15.9737   20.1620 C   0  0  0  0  0  0  0  0  0  0  0  0
    8.4765  -16.4568   20.4526 C   0  0  2  0  0  0  0  0  0  0  0  0
    8.8610  -17.4685   19.4862 N   0  0  0  0  0  0  0  0  0  0  0  0
    8.6638  -16.9062   21.8436 C   0  0  0  0  0  0  0  0  0  0  0  0
    8.4087  -18.1174   22.0923 O   0  0  0  0  0  0  0  0  0  0  0  0
    9.1042  -16.0871   22.9071 N   0  0  0  0  0  0  0  0  0  0  0  0
    9.5082  -14.6840   22.8770 C   0  0  0  0  0  0  0  0  0  0  0  0
   10.5185  -14.5572   24.0304 C   0  0  0  0  0  0  0  0  0  0  0  0
    9.8049  -15.3876   25.0678 C   0  0  0  0  0  0  0  0  0  0  0  0
    9.2502  -16.5102   24.2884 C   0  0  1  0  0  0  0  0  0  0  0  0
    8.0146  -17.0449   24.8607 C   0  0  0  0  0  0  0  0  0  0  0  0
    6.9265  -16.7433   24.3097 O   0  0  0  0  0  0  0  0  0  0  0  0
    7.9553  -17.8649   25.9729 O   0  0  0  0  0  0  0  0  0  0  0  0
  2  3  1  0
  2  1  1  1
  4  2  1  0
  5  4  2  0
  6  7  1  0
  7  9  1  0
  7  8  2  0
  9 10  1  0
 11 10  1  1
 11 12  1  0
 12  4  1  0
 13 15  1  0
 13 11  1  0
 14 13  2  0
 15 19  1  0
 16 17  1  0
 16 15  1  0
 17 18  1  0
 18 19  1  0
 19 20  1  1
 20 21  2  0
 20 22  1  0
M  END
$$$$
