VMK.pdb
     RDKit          3D

 25 24  0  0  1  0  0  0  0  0999 V2000
    6.4918  -11.4323   26.9402 C   0  0  0  0  0  0  0  0  0  0  0  0
    7.1424  -12.6586   26.3760 C   0  0  2  0  0  0  0  0  0  0  0  0
    8.4671  -12.3814   25.7152 C   0  0  0  0  0  0  0  0  0  0  0  0
    6.2149  -13.4249   25.4442 C   0  0  2  0  0  0  0  0  0  0  0  0
    5.1808  -13.9792   26.3153 N   0  0  0  0  0  0  0  0  0  0  0  0
    7.0066  -14.5109   24.8098 C   0  0  0  0  0  0  0  0  0  0  0  0
    7.2297  -15.6098   25.4298 O   0  0  0  0  0  0  0  0  0  0  0  0
    7.7086  -11.8590   19.0000 C   0  0  0  0  0  0  0  0  0  0  0  0
    8.2832  -13.5411   19.3367 S   0  0  0  0  0  0  0  0  0  0  0  0
    7.8916  -13.9435   21.0758 C   0  0  0  0  0  0  0  0  0  0  0  0
    8.5120  -15.2501   21.4461 C   0  0  0  0  0  0  0  0  0  0  0  0
    8.2693  -15.5431   22.9333 C   0  0  2  0  0  0  0  0  0  0  0  0
    7.5651  -14.4295   23.5053 N   0  0  0  0  0  0  0  0  0  0  0  0
    9.5788  -15.8206   23.5718 C   0  0  0  0  0  0  0  0  0  0  0  0
   10.2206  -14.7712   23.9300 O   0  0  0  0  0  0  0  0  0  0  0  0
   10.0782  -17.1242   23.7700 N   0  0  0  0  0  0  0  0  0  0  0  0
   11.3085  -17.3216   24.4911 C   0  0  1  0  0  0  0  0  0  0  0  0
   11.1634  -18.6052   25.2396 C   0  0  0  0  0  0  0  0  0  0  0  0
   11.1534  -18.5190   26.7133 C   0  0  0  0  0  0  0  0  0  0  0  0
   10.9270  -19.8003   27.4498 C   0  0  0  0  0  0  0  0  0  0  0  0
   10.9327  -19.5005   28.9386 C   0  0  0  0  0  0  0  0  0  0  0  0
   10.7096  -20.7212   29.6958 N   0  0  0  0  0  0  0  0  0  0  0  0
   12.4371  -17.2279   23.5904 C   0  0  0  0  0  0  0  0  0  0  0  0
   12.1772  -17.2366   22.2087 O   0  0  0  0  0  0  0  0  0  0  0  0
   13.6460  -17.1383   23.9050 O   0  0  0  0  0  0  0  0  0  0  0  0
  2  4  1  0
  2  1  1  6
  3  2  1  0
  4  5  1  1
  6  4  1  0
  6  7  2  0
  9  8  1  0
 10  9  1  0
 11 10  1  0
 12 11  1  6
 13 12  1  0
 13  6  1  0
 14 15  2  0
 14 12  1  0
 16 14  1  0
 17 16  1  0
 17 23  1  0
 17 18  1  6
 19 18  1  0
 20 19  1  0
 21 22  1  0
 21 20  1  0
 23 24  1  0
 25 23  2  0
M  END
$$$$
