VMK.pdb
     RDKit          3D

 25 24  0  0  1  0  0  0  0  0999 V2000
    7.2390  -20.5353   23.5811 C   0  0  0  0  0  0  0  0  0  0  0  0
    5.7963  -20.2156   23.8298 C   0  0  2  0  0  0  0  0  0  0  0  0
    4.8725  -21.3733   23.5563 C   0  0  0  0  0  0  0  0  0  0  0  0
    5.3467  -18.9678   23.0839 C   0  0  2  0  0  0  0  0  0  0  0  0
    5.3612  -19.3475   21.6729 N   0  0  0  0  0  0  0  0  0  0  0  0
    6.3422  -17.8972   23.3513 C   0  0  0  0  0  0  0  0  0  0  0  0
    7.4244  -17.8208   22.6695 O   0  0  0  0  0  0  0  0  0  0  0  0
    7.0817  -11.0937   26.0332 C   0  0  0  0  0  0  0  0  0  0  0  0
    7.1087  -12.6139   27.0137 S   0  0  0  0  0  0  0  0  0  0  0  0
    7.7925  -13.9536   25.9757 C   0  0  0  0  0  0  0  0  0  0  0  0
    6.7218  -14.9434   25.6550 C   0  0  0  0  0  0  0  0  0  0  0  0
    7.2349  -15.9544   24.6200 C   0  0  2  0  0  0  0  0  0  0  0  0
    6.1864  -16.8984   24.3505 N   0  0  0  0  0  0  0  0  0  0  0  0
    8.4780  -16.5682   25.1469 C   0  0  0  0  0  0  0  0  0  0  0  0
    8.2877  -17.4019   26.1009 O   0  0  0  0  0  0  0  0  0  0  0  0
    9.7599  -16.2642   24.6446 N   0  0  0  0  0  0  0  0  0  0  0  0
   10.9122  -16.9738   25.1360 C   0  0  1  0  0  0  0  0  0  0  0  0
   12.0107  -16.7363   24.1532 C   0  0  0  0  0  0  0  0  0  0  0  0
   11.8447  -17.3316   22.8126 C   0  0  0  0  0  0  0  0  0  0  0  0
   12.8818  -16.9742   21.7967 C   0  0  0  0  0  0  0  0  0  0  0  0
   12.5012  -17.6260   20.4788 C   0  0  0  0  0  0  0  0  0  0  0  0
   13.4971  -17.3226   19.4643 N   0  0  0  0  0  0  0  0  0  0  0  0
   11.1845  -16.5978   26.5064 C   0  0  0  0  0  0  0  0  0  0  0  0
   11.9970  -17.4517   27.2728 O   0  0  0  0  0  0  0  0  0  0  0  0
   10.7711  -15.5774   27.1034 O   0  0  0  0  0  0  0  0  0  0  0  0
  2  4  1  0
  2  1  1  6
  3  2  1  0
  4  5  1  6
  6  4  1  0
  6  7  2  0
  9  8  1  0
 10  9  1  0
 11 10  1  0
 12 11  1  1
 13 12  1  0
 13  6  1  0
 14 15  2  0
 14 12  1  0
 16 14  1  0
 17 16  1  0
 17 23  1  0
 17 18  1  6
 19 18  1  0
 20 19  1  0
 21 22  1  0
 21 20  1  0
 23 24  1  0
 25 23  2  0
M  END
$$$$
