VMK.pdb
     RDKit          3D

 25 24  0  0  1  0  0  0  0  0999 V2000
    7.2303  -16.7568   18.8269 C   0  0  0  0  0  0  0  0  0  0  0  0
    7.7396  -16.3948   20.1890 C   0  0  2  0  0  0  0  0  0  0  0  0
    7.4580  -17.4457   21.2304 C   0  0  0  0  0  0  0  0  0  0  0  0
    7.2477  -15.0281   20.6426 C   0  0  2  0  0  0  0  0  0  0  0  0
    7.7289  -14.0980   19.6235 N   0  0  0  0  0  0  0  0  0  0  0  0
    7.8723  -14.7360   21.9590 C   0  0  0  0  0  0  0  0  0  0  0  0
    9.1294  -14.5062   22.0536 O   0  0  0  0  0  0  0  0  0  0  0  0
    7.1178  -11.4427   27.7426 C   0  0  0  0  0  0  0  0  0  0  0  0
    5.7235  -11.9045   26.6862 S   0  0  0  0  0  0  0  0  0  0  0  0
    6.3844  -12.7014   25.1803 C   0  0  0  0  0  0  0  0  0  0  0  0
    6.8432  -14.0860   25.4989 C   0  0  0  0  0  0  0  0  0  0  0  0
    7.8459  -14.5633   24.4391 C   0  0  2  0  0  0  0  0  0  0  0  0
    7.1556  -14.6864   23.1855 N   0  0  0  0  0  0  0  0  0  0  0  0
    8.4599  -15.8264   24.9159 C   0  0  0  0  0  0  0  0  0  0  0  0
    7.6361  -16.8015   25.0252 O   0  0  0  0  0  0  0  0  0  0  0  0
    9.8306  -15.9485   25.2230 N   0  0  0  0  0  0  0  0  0  0  0  0
   10.3512  -17.2014   25.7046 C   0  0  1  0  0  0  0  0  0  0  0  0
   11.5512  -17.5129   24.8727 C   0  0  0  0  0  0  0  0  0  0  0  0
   11.3376  -17.6396   23.4175 C   0  0  0  0  0  0  0  0  0  0  0  0
   12.5319  -18.0240   22.6042 C   0  0  0  0  0  0  0  0  0  0  0  0
   12.1415  -17.9830   21.1372 C   0  0  0  0  0  0  0  0  0  0  0  0
   13.3022  -18.2467   20.3028 N   0  0  0  0  0  0  0  0  0  0  0  0
   10.5603  -17.1397   27.1351 C   0  0  0  0  0  0  0  0  0  0  0  0
   10.9443  -18.3205   27.7944 O   0  0  0  0  0  0  0  0  0  0  0  0
   10.4358  -16.1342   27.8713 O   0  0  0  0  0  0  0  0  0  0  0  0
  2  4  1  0
  2  1  1  6
  3  2  1  0
  4  5  1  6
  6  4  1  0
  6  7  2  0
  9  8  1  0
 10  9  1  0
 11 10  1  0
 12 11  1  1
 13 12  1  0
 13  6  1  0
 14 15  2  0
 14 12  1  0
 16 14  1  0
 17 16  1  0
 17 23  1  0
 17 18  1  6
 19 18  1  0
 20 19  1  0
 21 22  1  0
 21 20  1  0
 23 24  1  0
 25 23  2  0
M  END
$$$$
