VMK.pdb
     RDKit          3D

 25 24  0  0  1  0  0  0  0  0999 V2000
    8.6560  -12.9544   18.8024 C   0  0  0  0  0  0  0  0  0  0  0  0
    7.6426  -14.0252   19.0709 C   0  0  2  0  0  0  0  0  0  0  0  0
    6.3983  -13.5134   19.7477 C   0  0  0  0  0  0  0  0  0  0  0  0
    8.2365  -15.2013   19.8324 C   0  0  2  0  0  0  0  0  0  0  0  0
    7.1173  -16.1172   20.0419 N   0  0  0  0  0  0  0  0  0  0  0  0
    8.7474  -14.6887   21.1303 C   0  0  0  0  0  0  0  0  0  0  0  0
    9.8579  -14.0527   21.1946 O   0  0  0  0  0  0  0  0  0  0  0  0
    7.1181  -12.4326   28.3666 C   0  0  0  0  0  0  0  0  0  0  0  0
    6.6441  -12.3710   26.6217 S   0  0  0  0  0  0  0  0  0  0  0  0
    8.0176  -13.0563   25.6300 C   0  0  0  0  0  0  0  0  0  0  0  0
    7.4734  -13.7967   24.4533 C   0  0  0  0  0  0  0  0  0  0  0  0
    8.6255  -14.3240   23.5867 C   0  0  2  0  0  0  0  0  0  0  0  0
    8.0726  -14.8520   22.3706 N   0  0  0  0  0  0  0  0  0  0  0  0
    9.3890  -15.3159   24.3823 C   0  0  0  0  0  0  0  0  0  0  0  0
    8.8138  -16.4555   24.4913 O   0  0  0  0  0  0  0  0  0  0  0  0
   10.6395  -15.0339   24.9693 N   0  0  0  0  0  0  0  0  0  0  0  0
   11.3860  -16.0841   25.6117 C   0  0  1  0  0  0  0  0  0  0  0  0
   10.5424  -16.5790   26.7396 C   0  0  0  0  0  0  0  0  0  0  0  0
   11.0083  -17.7946   27.4357 C   0  0  0  0  0  0  0  0  0  0  0  0
   10.4453  -18.0328   28.8002 C   0  0  0  0  0  0  0  0  0  0  0  0
   11.0567  -19.3093   29.3507 C   0  0  0  0  0  0  0  0  0  0  0  0
   10.6462  -19.5060   30.7313 N   0  0  0  0  0  0  0  0  0  0  0  0
   11.7997  -17.0715   24.6381 C   0  0  0  0  0  0  0  0  0  0  0  0
   10.8188  -17.5992   23.7803 O   0  0  0  0  0  0  0  0  0  0  0  0
   12.9558  -17.5215   24.4670 O   0  0  0  0  0  0  0  0  0  0  0  0
  2  4  1  0
  2  1  1  1
  3  2  1  0
  4  5  1  1
  6  4  1  0
  6  7  2  0
  9  8  1  0
 10  9  1  0
 11 10  1  0
 12 11  1  1
 13 12  1  0
 13  6  1  0
 14 15  2  0
 14 12  1  0
 16 14  1  0
 17 16  1  0
 17 23  1  0
 17 18  1  1
 19 18  1  0
 20 19  1  0
 21 22  1  0
 21 20  1  0
 23 24  1  0
 25 23  2  0
M  END
$$$$
