VMK.pdb
     RDKit          3D

 25 24  0  0  1  0  0  0  0  0999 V2000
    7.5381  -12.5449   20.3020 C   0  0  0  0  0  0  0  0  0  0  0  0
    8.3194  -13.4922   19.4430 C   0  0  2  0  0  0  0  0  0  0  0  0
    7.7702  -13.6233   18.0467 C   0  0  0  0  0  0  0  0  0  0  0  0
    8.4871  -14.8563   20.0962 C   0  0  2  0  0  0  0  0  0  0  0  0
    7.1928  -15.5141   19.9308 N   0  0  0  0  0  0  0  0  0  0  0  0
    8.7854  -14.6356   21.5353 C   0  0  0  0  0  0  0  0  0  0  0  0
    9.9770  -14.3733   21.9268 O   0  0  0  0  0  0  0  0  0  0  0  0
    6.6802  -11.1897   27.3529 C   0  0  0  0  0  0  0  0  0  0  0  0
    6.0324  -12.8416   26.9997 S   0  0  0  0  0  0  0  0  0  0  0  0
    7.3385  -13.8013   26.1555 C   0  0  0  0  0  0  0  0  0  0  0  0
    6.9792  -13.9926   24.7191 C   0  0  0  0  0  0  0  0  0  0  0  0
    8.1845  -14.5461   23.9461 C   0  0  2  0  0  0  0  0  0  0  0  0
    7.8097  -14.6927   22.5672 N   0  0  0  0  0  0  0  0  0  0  0  0
    8.6102  -15.8110   24.5930 C   0  0  0  0  0  0  0  0  0  0  0  0
    7.7179  -16.7304   24.5849 O   0  0  0  0  0  0  0  0  0  0  0  0
    9.8849  -15.9910   25.1679 N   0  0  0  0  0  0  0  0  0  0  0  0
   10.3240  -17.3088   25.5465 C   0  0  1  0  0  0  0  0  0  0  0  0
   11.5153  -17.6207   24.7024 C   0  0  0  0  0  0  0  0  0  0  0  0
   11.3625  -18.7019   23.7089 C   0  0  0  0  0  0  0  0  0  0  0  0
   12.5306  -18.9421   22.8072 C   0  0  0  0  0  0  0  0  0  0  0  0
   12.1487  -20.0239   21.8121 C   0  0  0  0  0  0  0  0  0  0  0  0
   13.2791  -20.3353   20.9529 N   0  0  0  0  0  0  0  0  0  0  0  0
   10.5159  -17.3800   26.9789 C   0  0  0  0  0  0  0  0  0  0  0  0
   10.3034  -16.2101   27.7291 O   0  0  0  0  0  0  0  0  0  0  0  0
   10.8575  -18.3850   27.6436 O   0  0  0  0  0  0  0  0  0  0  0  0
  2  4  1  0
  2  1  1  1
  3  2  1  0
  4  5  1  1
  6  4  1  0
  6  7  2  0
  9  8  1  0
 10  9  1  0
 11 10  1  0
 12 11  1  1
 13 12  1  0
 13  6  1  0
 14 15  2  0
 14 12  1  0
 16 14  1  0
 17 16  1  0
 17 23  1  0
 17 18  1  6
 19 18  1  0
 20 19  1  0
 21 22  1  0
 21 20  1  0
 23 24  1  0
 25 23  2  0
M  END
$$$$
