VMK.pdb
     RDKit          3D

 25 24  0  0  1  0  0  0  0  0999 V2000
    9.4419  -16.9865   20.8725 C   0  0  0  0  0  0  0  0  0  0  0  0
    7.9541  -17.1081   21.0039 C   0  0  2  0  0  0  0  0  0  0  0  0
    7.3184  -17.8932   19.8869 C   0  0  0  0  0  0  0  0  0  0  0  0
    7.2793  -15.7551   21.1759 C   0  0  2  0  0  0  0  0  0  0  0  0
    7.5220  -15.0514   19.9184 N   0  0  0  0  0  0  0  0  0  0  0  0
    7.9451  -15.0574   22.3066 C   0  0  0  0  0  0  0  0  0  0  0  0
    8.9121  -14.2428   22.0984 O   0  0  0  0  0  0  0  0  0  0  0  0
    6.1071  -10.5324   26.7440 C   0  0  0  0  0  0  0  0  0  0  0  0
    7.2307  -11.9432   26.8870 S   0  0  0  0  0  0  0  0  0  0  0  0
    6.5909  -13.2945   25.8362 C   0  0  0  0  0  0  0  0  0  0  0  0
    7.4683  -14.4956   25.9645 C   0  0  0  0  0  0  0  0  0  0  0  0
    8.3580  -14.6306   24.7208 C   0  0  2  0  0  0  0  0  0  0  0  0
    7.5802  -15.2255   23.6700 N   0  0  0  0  0  0  0  0  0  0  0  0
    9.5632  -15.4102   25.0942 C   0  0  0  0  0  0  0  0  0  0  0  0
   10.2177  -14.9232   26.0821 O   0  0  0  0  0  0  0  0  0  0  0  0
    9.9581  -16.5859   24.4236 N   0  0  0  0  0  0  0  0  0  0  0  0
   11.2162  -17.2086   24.7434 C   0  0  1  0  0  0  0  0  0  0  0  0
   10.9539  -18.6750   24.8416 C   0  0  0  0  0  0  0  0  0  0  0  0
   10.4393  -19.1742   26.1322 C   0  0  0  0  0  0  0  0  0  0  0  0
   10.1724  -20.6429   26.2148 C   0  0  0  0  0  0  0  0  0  0  0  0
    9.6519  -20.9541   27.6071 C   0  0  0  0  0  0  0  0  0  0  0  0
    9.4351  -22.3842   27.7525 N   0  0  0  0  0  0  0  0  0  0  0  0
   12.2316  -16.8002   23.7968 C   0  0  0  0  0  0  0  0  0  0  0  0
   13.5675  -17.1325   24.0822 O   0  0  0  0  0  0  0  0  0  0  0  0
   12.0552  -16.1704   22.7287 O   0  0  0  0  0  0  0  0  0  0  0  0
  2  4  1  0
  2  1  1  6
  3  2  1  0
  4  5  1  6
  6  4  1  0
  6  7  2  0
  9  8  1  0
 10  9  1  0
 11 10  1  0
 12 11  1  1
 13 12  1  0
 13  6  1  0
 14 15  2  0
 14 12  1  0
 16 14  1  0
 17 16  1  0
 17 23  1  0
 17 18  1  6
 19 18  1  0
 20 19  1  0
 21 22  1  0
 21 20  1  0
 23 24  1  0
 25 23  2  0
M  END
$$$$
