VMK.pdb
     RDKit          3D

 25 24  0  0  1  0  0  0  0  0999 V2000
    7.2990  -12.6987   20.9168 C   0  0  0  0  0  0  0  0  0  0  0  0
    8.2549  -13.4088   20.0071 C   0  0  2  0  0  0  0  0  0  0  0  0
    7.7978  -13.4462   18.5725 C   0  0  0  0  0  0  0  0  0  0  0  0
    8.5986  -14.8035   20.5093 C   0  0  2  0  0  0  0  0  0  0  0  0
    7.3794  -15.5848   20.3131 N   0  0  0  0  0  0  0  0  0  0  0  0
    8.9283  -14.6960   21.9544 C   0  0  0  0  0  0  0  0  0  0  0  0
   10.0558  -14.2234   22.3379 O   0  0  0  0  0  0  0  0  0  0  0  0
    6.5785  -10.6836   26.5013 C   0  0  0  0  0  0  0  0  0  0  0  0
    6.8943  -12.4480   26.7472 S   0  0  0  0  0  0  0  0  0  0  0  0
    7.0882  -13.2298   25.1068 C   0  0  0  0  0  0  0  0  0  0  0  0
    7.3393  -14.6926   25.2687 C   0  0  0  0  0  0  0  0  0  0  0  0
    8.5013  -15.1285   24.3652 C   0  0  2  0  0  0  0  0  0  0  0  0
    8.0524  -15.0927   23.0011 N   0  0  0  0  0  0  0  0  0  0  0  0
    8.9622  -16.4650   24.8134 C   0  0  0  0  0  0  0  0  0  0  0  0
    8.0586  -17.3724   24.7722 O   0  0  0  0  0  0  0  0  0  0  0  0
   10.2792  -16.7199   25.2475 N   0  0  0  0  0  0  0  0  0  0  0  0
   10.6489  -18.0397   25.6881 C   0  0  1  0  0  0  0  0  0  0  0  0
   11.9773  -18.3378   25.0753 C   0  0  0  0  0  0  0  0  0  0  0  0
   12.0387  -18.3664   23.6006 C   0  0  0  0  0  0  0  0  0  0  0  0
   13.3754  -18.6617   22.9995 C   0  0  0  0  0  0  0  0  0  0  0  0
   13.2482  -18.5702   21.4889 C   0  0  0  0  0  0  0  0  0  0  0  0
   12.3132  -19.5719   21.0037 N   0  0  0  0  0  0  0  0  0  0  0  0
   10.5738  -18.1250   27.1306 C   0  0  0  0  0  0  0  0  0  0  0  0
   10.8738  -19.3597   27.7322 O   0  0  0  0  0  0  0  0  0  0  0  0
   10.2651  -17.2064   27.9239 O   0  0  0  0  0  0  0  0  0  0  0  0
  2  4  1  0
  2  1  1  1
  3  2  1  0
  4  5  1  1
  6  4  1  0
  6  7  2  0
  9  8  1  0
 10  9  1  0
 11 10  1  0
 12 11  1  1
 13 12  1  0
 13  6  1  0
 14 15  2  0
 14 12  1  0
 16 14  1  0
 17 16  1  0
 17 23  1  0
 17 18  1  1
 19 18  1  0
 20 19  1  0
 21 22  1  0
 21 20  1  0
 23 24  1  0
 25 23  2  0
M  END
$$$$
