VMK.pdb
     RDKit          3D

 25 24  0  0  1  0  0  0  0  0999 V2000
    7.5537  -13.3662   22.3553 C   0  0  0  0  0  0  0  0  0  0  0  0
    7.6288  -14.3089   21.1929 C   0  0  2  0  0  0  0  0  0  0  0  0
    6.3918  -14.2970   20.3337 C   0  0  0  0  0  0  0  0  0  0  0  0
    7.9840  -15.7248   21.6225 C   0  0  2  0  0  0  0  0  0  0  0  0
    6.7735  -16.2396   22.2588 N   0  0  0  0  0  0  0  0  0  0  0  0
    9.0968  -15.6346   22.6034 C   0  0  0  0  0  0  0  0  0  0  0  0
   10.3011  -15.4337   22.2146 O   0  0  0  0  0  0  0  0  0  0  0  0
    9.5180  -12.7056   28.6141 C   0  0  0  0  0  0  0  0  0  0  0  0
   10.0520  -14.4205   28.8309 S   0  0  0  0  0  0  0  0  0  0  0  0
   10.6692  -15.0363   27.2248 C   0  0  0  0  0  0  0  0  0  0  0  0
    9.5257  -15.2426   26.2873 C   0  0  0  0  0  0  0  0  0  0  0  0
   10.0498  -15.6381   24.8997 C   0  0  2  0  0  0  0  0  0  0  0  0
    8.9289  -15.7578   24.0095 N   0  0  0  0  0  0  0  0  0  0  0  0
   10.8436  -16.8831   25.0405 C   0  0  0  0  0  0  0  0  0  0  0  0
   10.1497  -17.9159   25.3456 O   0  0  0  0  0  0  0  0  0  0  0  0
   12.2405  -16.9308   24.8551 N   0  0  0  0  0  0  0  0  0  0  0  0
   12.9017  -18.1992   24.6917 C   0  0  1  0  0  0  0  0  0  0  0  0
   13.7559  -18.0814   23.4729 C   0  0  0  0  0  0  0  0  0  0  0  0
   14.5865  -19.2516   23.1265 C   0  0  0  0  0  0  0  0  0  0  0  0
   15.4306  -19.1241   21.8990 C   0  0  0  0  0  0  0  0  0  0  0  0
   16.2423  -20.3985   21.7456 C   0  0  0  0  0  0  0  0  0  0  0  0
   16.9472  -20.3929   20.4743 N   0  0  0  0  0  0  0  0  0  0  0  0
   13.5776  -18.5725   25.9155 C   0  0  0  0  0  0  0  0  0  0  0  0
   13.8823  -17.5533   26.8348 O   0  0  0  0  0  0  0  0  0  0  0  0
   13.9313  -19.7237   26.2590 O   0  0  0  0  0  0  0  0  0  0  0  0
  2  4  1  0
  2  1  1  1
  3  2  1  0
  4  5  1  1
  6  4  1  0
  6  7  2  0
  9  8  1  0
 10  9  1  0
 11 10  1  0
 12 11  1  1
 13 12  1  0
 13  6  1  0
 14 15  2  0
 14 12  1  0
 16 14  1  0
 17 16  1  0
 17 23  1  0
 17 18  1  6
 19 18  1  0
 20 19  1  0
 21 22  1  0
 21 20  1  0
 23 24  1  0
 25 23  2  0
M  END
$$$$
