VMK.pdb
     RDKit          3D

 25 24  0  0  1  0  0  0  0  0999 V2000
    7.4889  -12.4859   20.3693 C   0  0  0  0  0  0  0  0  0  0  0  0
    8.2433  -13.4593   19.5156 C   0  0  2  0  0  0  0  0  0  0  0  0
    7.7244  -13.5425   18.1041 C   0  0  0  0  0  0  0  0  0  0  0  0
    8.3254  -14.8392   20.1516 C   0  0  2  0  0  0  0  0  0  0  0  0
    6.9783  -15.3915   20.0266 N   0  0  0  0  0  0  0  0  0  0  0  0
    8.6896  -14.6581   21.5809 C   0  0  0  0  0  0  0  0  0  0  0  0
    9.9053  -14.4499   21.9282 O   0  0  0  0  0  0  0  0  0  0  0  0
    7.4096  -10.9937   27.4979 C   0  0  0  0  0  0  0  0  0  0  0  0
    6.4224  -12.4357   27.0294 S   0  0  0  0  0  0  0  0  0  0  0  0
    7.5250  -13.6464   26.2181 C   0  0  0  0  0  0  0  0  0  0  0  0
    7.0737  -13.8824   24.8146 C   0  0  0  0  0  0  0  0  0  0  0  0
    8.1876  -14.5719   24.0144 C   0  0  2  0  0  0  0  0  0  0  0  0
    7.7544  -14.6973   22.6506 N   0  0  0  0  0  0  0  0  0  0  0  0
    8.4977  -15.8658   24.6698 C   0  0  0  0  0  0  0  0  0  0  0  0
    7.4862  -16.6400   24.8071 O   0  0  0  0  0  0  0  0  0  0  0  0
    9.7917  -16.2178   25.1053 N   0  0  0  0  0  0  0  0  0  0  0  0
   10.0422  -17.5372   25.6242 C   0  0  1  0  0  0  0  0  0  0  0  0
   11.0723  -18.1558   24.7381 C   0  0  0  0  0  0  0  0  0  0  0  0
   10.6591  -18.4713   23.3565 C   0  0  0  0  0  0  0  0  0  0  0  0
   11.6963  -19.1009   22.4828 C   0  0  0  0  0  0  0  0  0  0  0  0
   11.1057  -19.2775   21.0949 C   0  0  0  0  0  0  0  0  0  0  0  0
   12.1204  -19.7702   20.1781 N   0  0  0  0  0  0  0  0  0  0  0  0
   10.3652  -17.4678   27.0329 C   0  0  0  0  0  0  0  0  0  0  0  0
   10.4746  -16.1950   27.6199 O   0  0  0  0  0  0  0  0  0  0  0  0
   10.5639  -18.4313   27.8080 O   0  0  0  0  0  0  0  0  0  0  0  0
  2  4  1  0
  2  1  1  1
  3  2  1  0
  4  5  1  1
  6  4  1  0
  6  7  2  0
  9  8  1  0
 10  9  1  0
 11 10  1  0
 12 11  1  1
 13 12  1  0
 13  6  1  0
 14 15  2  0
 14 12  1  0
 16 14  1  0
 17 16  1  0
 17 23  1  0
 17 18  1  6
 19 18  1  0
 20 19  1  0
 21 22  1  0
 21 20  1  0
 23 24  1  0
 25 23  2  0
M  END
$$$$
