VMK.pdb
     RDKit          3D

 25 24  0  0  1  0  0  0  0  0999 V2000
    9.3251  -16.6085   18.1948 C   0  0  0  0  0  0  0  0  0  0  0  0
    9.7644  -16.1269   19.5441 C   0  0  2  0  0  0  0  0  0  0  0  0
   11.2614  -16.0802   19.7030 C   0  0  0  0  0  0  0  0  0  0  0  0
    9.1177  -16.9140   20.6745 C   0  0  2  0  0  0  0  0  0  0  0  0
    7.6914  -16.9253   20.3568 N   0  0  0  0  0  0  0  0  0  0  0  0
    9.3692  -16.1777   21.9406 C   0  0  0  0  0  0  0  0  0  0  0  0
   10.5593  -16.0385   22.3947 O   0  0  0  0  0  0  0  0  0  0  0  0
    6.8923  -11.4070   27.6475 C   0  0  0  0  0  0  0  0  0  0  0  0
    6.3637  -12.3896   26.2233 S   0  0  0  0  0  0  0  0  0  0  0  0
    7.7216  -13.5280   25.7763 C   0  0  0  0  0  0  0  0  0  0  0  0
    7.4595  -14.1280   24.4346 C   0  0  0  0  0  0  0  0  0  0  0  0
    8.6494  -14.9989   24.0079 C   0  0  2  0  0  0  0  0  0  0  0  0
    8.3482  -15.5831   22.7307 N   0  0  0  0  0  0  0  0  0  0  0  0
    8.9064  -15.9916   25.0795 C   0  0  0  0  0  0  0  0  0  0  0  0
    7.9356  -16.8012   25.2882 O   0  0  0  0  0  0  0  0  0  0  0  0
   10.1126  -16.0441   25.8076 N   0  0  0  0  0  0  0  0  0  0  0  0
   10.4003  -17.1813   26.6424 C   0  0  1  0  0  0  0  0  0  0  0  0
   11.5188  -17.9207   25.9857 C   0  0  0  0  0  0  0  0  0  0  0  0
   11.5764  -19.3784   26.2118 C   0  0  0  0  0  0  0  0  0  0  0  0
   12.7698  -20.0877   25.6567 C   0  0  0  0  0  0  0  0  0  0  0  0
   12.6818  -21.5504   26.0556 C   0  0  0  0  0  0  0  0  0  0  0  0
   13.8073  -22.2878   25.5054 N   0  0  0  0  0  0  0  0  0  0  0  0
   10.6258  -16.7560   28.0069 C   0  0  0  0  0  0  0  0  0  0  0  0
   10.6831  -17.7467   29.0028 O   0  0  0  0  0  0  0  0  0  0  0  0
   10.7789  -15.5815   28.4138 O   0  0  0  0  0  0  0  0  0  0  0  0
  2  4  1  0
  2  1  1  6
  3  2  1  0
  4  5  1  6
  6  4  1  0
  6  7  2  0
  9  8  1  0
 10  9  1  0
 11 10  1  0
 12 11  1  1
 13 12  1  0
 13  6  1  0
 14 15  2  0
 14 12  1  0
 16 14  1  0
 17 16  1  0
 17 23  1  0
 17 18  1  6
 19 18  1  0
 20 19  1  0
 21 22  1  0
 21 20  1  0
 23 24  1  0
 25 23  2  0
M  END
$$$$
