VMK.pdb
     RDKit          3D

 25 24  0  0  1  0  0  0  0  0999 V2000
    9.4793  -17.8285   18.9628 C   0  0  0  0  0  0  0  0  0  0  0  0
    9.7744  -16.9182   20.1160 C   0  0  2  0  0  0  0  0  0  0  0  0
   11.2427  -16.6320   20.2901 C   0  0  0  0  0  0  0  0  0  0  0  0
    9.1552  -17.4151   21.4142 C   0  0  2  0  0  0  0  0  0  0  0  0
    7.7428  -17.6224   21.1020 N   0  0  0  0  0  0  0  0  0  0  0  0
    9.3178  -16.3446   22.4322 C   0  0  0  0  0  0  0  0  0  0  0  0
   10.4755  -16.0461   22.8930 O   0  0  0  0  0  0  0  0  0  0  0  0
    6.1481  -10.8747   27.0713 C   0  0  0  0  0  0  0  0  0  0  0  0
    5.8580  -12.1851   25.8580 S   0  0  0  0  0  0  0  0  0  0  0  0
    7.4610  -12.6329   25.1034 C   0  0  0  0  0  0  0  0  0  0  0  0
    7.2540  -13.6731   24.0526 C   0  0  0  0  0  0  0  0  0  0  0  0
    8.4645  -14.6157   24.0020 C   0  0  2  0  0  0  0  0  0  0  0  0
    8.2416  -15.5838   22.9645 N   0  0  0  0  0  0  0  0  0  0  0  0
    8.6491  -15.2076   25.3493 C   0  0  0  0  0  0  0  0  0  0  0  0
    9.0286  -14.3709   26.2422 O   0  0  0  0  0  0  0  0  0  0  0  0
    8.4272  -16.5717   25.6282 N   0  0  0  0  0  0  0  0  0  0  0  0
    8.6086  -17.0714   26.9661 C   0  0  1  0  0  0  0  0  0  0  0  0
    7.6259  -18.1812   27.1442 C   0  0  0  0  0  0  0  0  0  0  0  0
    8.1373  -19.5561   26.9786 C   0  0  0  0  0  0  0  0  0  0  0  0
    7.1312  -20.6555   27.0989 C   0  0  0  0  0  0  0  0  0  0  0  0
    7.8245  -21.9707   26.7891 C   0  0  0  0  0  0  0  0  0  0  0  0
    6.8646  -23.0619   26.8192 N   0  0  0  0  0  0  0  0  0  0  0  0
    9.9988  -17.4027   27.1923 C   0  0  0  0  0  0  0  0  0  0  0  0
   10.8170  -17.6066   26.0673 O   0  0  0  0  0  0  0  0  0  0  0  0
   10.5714  -17.5325   28.2986 O   0  0  0  0  0  0  0  0  0  0  0  0
  2  4  1  0
  2  1  1  6
  3  2  1  0
  4  5  1  6
  6  4  1  0
  6  7  2  0
  9  8  1  0
 10  9  1  0
 11 10  1  0
 12 11  1  1
 13 12  1  0
 13  6  1  0
 14 15  2  0
 14 12  1  0
 16 14  1  0
 17 16  1  0
 17 23  1  0
 17 18  1  6
 19 18  1  0
 20 19  1  0
 21 22  1  0
 21 20  1  0
 23 24  1  0
 25 23  2  0
M  END
$$$$
