VMK.pdb
     RDKit          3D

 25 24  0  0  1  0  0  0  0  0999 V2000
    7.5782  -12.4922   20.6259 C   0  0  0  0  0  0  0  0  0  0  0  0
    8.2678  -13.4831   19.7381 C   0  0  2  0  0  0  0  0  0  0  0  0
    7.6375  -13.6038   18.3756 C   0  0  0  0  0  0  0  0  0  0  0  0
    8.4097  -14.8464   20.3990 C   0  0  2  0  0  0  0  0  0  0  0  0
    7.0503  -15.3791   20.4577 N   0  0  0  0  0  0  0  0  0  0  0  0
    8.9509  -14.6326   21.7664 C   0  0  0  0  0  0  0  0  0  0  0  0
   10.1944  -14.3839   21.9497 O   0  0  0  0  0  0  0  0  0  0  0  0
    7.0917  -11.5320   26.9523 C   0  0  0  0  0  0  0  0  0  0  0  0
    5.8528  -12.7414   26.4273 S   0  0  0  0  0  0  0  0  0  0  0  0
    6.6882  -14.0184   25.4218 C   0  0  0  0  0  0  0  0  0  0  0  0
    8.0744  -13.5751   25.0886 C   0  0  0  0  0  0  0  0  0  0  0  0
    8.7799  -14.6475   24.2468 C   0  0  2  0  0  0  0  0  0  0  0  0
    8.1644  -14.6822   22.9493 N   0  0  0  0  0  0  0  0  0  0  0  0
    8.7114  -15.9342   24.9812 C   0  0  0  0  0  0  0  0  0  0  0  0
    7.6509  -16.6147   24.7492 O   0  0  0  0  0  0  0  0  0  0  0  0
    9.7230  -16.3747   25.8590 N   0  0  0  0  0  0  0  0  0  0  0  0
   10.2923  -17.6875   25.6999 C   0  0  1  0  0  0  0  0  0  0  0  0
   10.8978  -17.7276   24.3358 C   0  0  0  0  0  0  0  0  0  0  0  0
   10.6621  -18.9476   23.5386 C   0  0  0  0  0  0  0  0  0  0  0  0
   11.2647  -18.9709   22.1705 C   0  0  0  0  0  0  0  0  0  0  0  0
   10.8137  -20.2428   21.4738 C   0  0  0  0  0  0  0  0  0  0  0  0
   11.2020  -20.2109   20.0733 N   0  0  0  0  0  0  0  0  0  0  0  0
   11.1781  -17.9859   26.8044 C   0  0  0  0  0  0  0  0  0  0  0  0
   11.4094  -19.3376   27.1142 O   0  0  0  0  0  0  0  0  0  0  0  0
   11.7761  -17.1619   27.5336 O   0  0  0  0  0  0  0  0  0  0  0  0
  2  4  1  0
  2  1  1  1
  3  2  1  0
  4  5  1  1
  6  4  1  0
  6  7  2  0
  9  8  1  0
 10  9  1  0
 11 10  1  0
 12 11  1  1
 13 12  1  0
 13  6  1  0
 14 15  2  0
 14 12  1  0
 16 14  1  0
 17 16  1  0
 17 23  1  0
 17 18  1  6
 19 18  1  0
 20 19  1  0
 21 22  1  0
 21 20  1  0
 23 24  1  0
 25 23  2  0
M  END
$$$$
