HIW.pdb
     RDKit          3D

 33 35  0  0  1  0  0  0  0  0999 V2000
   11.8294  -15.6536   17.7005 N   0  0  0  0  0  0  0  0  0  0  0  0
   12.2949  -15.7171   19.0631 C   0  0  1  0  0  0  0  0  0  0  0  0
   12.9663  -14.4193   19.4089 C   0  0  0  0  0  0  0  0  0  0  0  0
   14.4223  -14.5465   19.1552 C   0  0  0  0  0  0  0  0  0  0  0  0
   15.3424  -15.3723   19.7420 C   0  0  0  0  0  0  0  0  0  0  0  0
   16.5342  -15.1301   19.1848 N   0  0  0  0  0  0  0  0  0  0  0  0
   16.3757  -14.1677   18.2597 C   0  0  0  0  0  0  0  0  0  0  0  0
   15.0799  -13.8188   18.2507 N   0  0  0  0  0  0  0  0  0  0  0  0
   11.1626  -15.9290   20.0385 C   0  0  0  0  0  0  0  0  0  0  0  0
   10.1030  -15.2615   19.9532 O   0  0  0  0  0  0  0  0  0  0  0  0
    9.0339  -20.4105   20.0646 C   0  0  0  0  0  0  0  0  0  0  0  0
    9.3053  -18.9405   20.2514 C   0  0  0  0  0  0  0  0  0  0  0  0
    9.7856  -18.6936   21.6836 C   0  0  2  0  0  0  0  0  0  0  0  0
    8.7316  -19.1516   22.6570 C   0  0  0  0  0  0  0  0  0  0  0  0
   10.0788  -17.2297   21.8934 C   0  0  2  0  0  0  0  0  0  0  0  0
   11.2709  -16.8863   21.0729 N   0  0  0  0  0  0  0  0  0  0  0  0
   10.4543  -16.9479   23.2837 C   0  0  0  0  0  0  0  0  0  0  0  0
   11.6087  -17.3710   23.6891 O   0  0  0  0  0  0  0  0  0  0  0  0
    9.6749  -16.2531   24.2201 N   0  0  0  0  0  0  0  0  0  0  0  0
   10.1827  -16.1317   25.6146 C   0  0  1  0  0  0  0  0  0  0  0  0
    9.7667  -14.7459   26.0219 C   0  0  0  0  0  0  0  0  0  0  0  0
    8.3098  -14.5992   26.0991 C   0  0  0  0  0  0  0  0  0  0  0  0
    7.3492  -15.6159   26.0036 C   0  0  0  0  0  0  0  0  0  0  0  0
    6.1229  -15.0803   26.0817 N   0  0  0  0  0  0  0  0  0  0  0  0
    6.2064  -13.7495   26.2261 C   0  0  0  0  0  0  0  0  0  0  0  0
    5.2608  -12.7371   26.3689 C   0  0  0  0  0  0  0  0  0  0  0  0
    5.7207  -11.4608   26.5196 C   0  0  0  0  0  0  0  0  0  0  0  0
    7.0590  -11.1384   26.5361 C   0  0  0  0  0  0  0  0  0  0  0  0
    7.9835  -12.1322   26.3948 C   0  0  0  0  0  0  0  0  0  0  0  0
    7.5701  -13.4348   26.2391 C   0  0  0  0  0  0  0  0  0  0  0  0
    9.6442  -17.2273   26.4139 C   0  0  0  0  0  0  0  0  0  0  0  0
   10.1760  -17.5840   27.6492 O   0  0  0  0  0  0  0  0  0  0  0  0
    8.6598  -17.8932   25.9807 O   0  0  0  0  0  0  0  0  0  0  0  0
  2  1  1  6
  2  3  1  0
  3  4  1  0
  4  8  1  0
  5  4  2  0
  5  6  1  0
  6  7  1  0
  8  7  2  0
  9  2  1  0
  9 10  2  0
 12 11  1  0
 12 13  1  0
 13 14  1  1
 15 13  1  0
 15 16  1  6
 16  9  1  0
 17 15  1  0
 18 17  2  0
 19 17  1  0
 20 21  1  1
 20 19  1  0
 21 22  1  0
 22 30  1  0
 23 22  2  0
 23 24  1  0
 24 25  1  0
 25 26  1  0
 26 27  2  0
 28 27  1  0
 29 28  2  0
 30 25  2  0
 30 29  1  0
 31 32  1  0
 31 20  1  0
 33 31  2  0
M  END
$$$$
