HIW.pdb
     RDKit          3D

 33 35  0  0  1  0  0  0  0  0999 V2000
    9.2671  -16.4445   16.2512 N   0  0  0  0  0  0  0  0  0  0  0  0
    9.1795  -15.5067   17.3422 C   0  0  1  0  0  0  0  0  0  0  0  0
    7.7361  -15.3295   17.7167 C   0  0  0  0  0  0  0  0  0  0  0  0
    7.6381  -14.3133   18.7927 C   0  0  0  0  0  0  0  0  0  0  0  0
    7.8762  -12.9664   18.7468 C   0  0  0  0  0  0  0  0  0  0  0  0
    7.6544  -12.4626   19.9660 N   0  0  0  0  0  0  0  0  0  0  0  0
    7.2815  -13.4706   20.7737 C   0  0  0  0  0  0  0  0  0  0  0  0
    7.2751  -14.5974   20.0448 N   0  0  0  0  0  0  0  0  0  0  0  0
    9.9209  -15.9902   18.5649 C   0  0  0  0  0  0  0  0  0  0  0  0
    9.8410  -17.1860   18.9379 O   0  0  0  0  0  0  0  0  0  0  0  0
   14.9354  -14.4192   18.9711 C   0  0  0  0  0  0  0  0  0  0  0  0
   13.7096  -15.2876   19.0850 C   0  0  0  0  0  0  0  0  0  0  0  0
   12.9109  -14.8737   20.3233 C   0  0  2  0  0  0  0  0  0  0  0  0
   13.7246  -15.1391   21.5625 C   0  0  0  0  0  0  0  0  0  0  0  0
   11.6114  -15.6354   20.3879 C   0  0  2  0  0  0  0  0  0  0  0  0
   10.7236  -15.1044   19.3192 N   0  0  0  0  0  0  0  0  0  0  0  0
   10.9060  -15.3941   21.6518 C   0  0  0  0  0  0  0  0  0  0  0  0
   10.2399  -14.2896   21.7636 O   0  0  0  0  0  0  0  0  0  0  0  0
   10.8821  -16.2574   22.7568 N   0  0  0  0  0  0  0  0  0  0  0  0
   10.1475  -15.8259   23.9780 C   0  0  1  0  0  0  0  0  0  0  0  0
    8.7359  -15.6447   23.4946 C   0  0  0  0  0  0  0  0  0  0  0  0
    7.8310  -15.2065   24.5621 C   0  0  0  0  0  0  0  0  0  0  0  0
    6.8871  -15.9855   25.2460 C   0  0  0  0  0  0  0  0  0  0  0  0
    6.2253  -15.2173   26.1228 N   0  0  0  0  0  0  0  0  0  0  0  0
    6.6759  -13.9553   26.0662 C   0  0  0  0  0  0  0  0  0  0  0  0
    6.3553  -12.7886   26.7557 C   0  0  0  0  0  0  0  0  0  0  0  0
    7.0544  -11.6586   26.4433 C   0  0  0  0  0  0  0  0  0  0  0  0
    8.0473  -11.6254   25.4902 C   0  0  0  0  0  0  0  0  0  0  0  0
    8.3587  -12.7699   24.8153 C   0  0  0  0  0  0  0  0  0  0  0  0
    7.6820  -13.9346   25.0934 C   0  0  0  0  0  0  0  0  0  0  0  0
   10.3465  -16.8188   25.0286 C   0  0  0  0  0  0  0  0  0  0  0  0
   10.6703  -18.1439   24.7543 O   0  0  0  0  0  0  0  0  0  0  0  0
   10.2183  -16.4814   26.2410 O   0  0  0  0  0  0  0  0  0  0  0  0
  2  1  1  6
  2  3  1  0
  3  4  1  0
  4  8  1  0
  5  4  2  0
  5  6  1  0
  6  7  1  0
  8  7  2  0
  9  2  1  0
  9 10  2  0
 12 11  1  0
 12 13  1  0
 13 14  1  1
 15 13  1  0
 15 16  1  6
 16  9  1  0
 17 15  1  0
 18 17  2  0
 19 17  1  0
 20 21  1  6
 20 19  1  0
 21 22  1  0
 22 30  1  0
 23 22  2  0
 23 24  1  0
 24 25  1  0
 25 26  1  0
 26 27  2  0
 28 27  1  0
 29 28  2  0
 30 25  2  0
 30 29  1  0
 31 32  1  0
 31 20  1  0
 33 31  2  0
M  END
$$$$
