HIW.pdb
     RDKit          3D

 33 35  0  0  1  0  0  0  0  0999 V2000
    9.8818  -18.5884   17.8414 N   0  0  0  0  0  0  0  0  0  0  0  0
    9.1064  -18.4312   19.0461 C   0  0  1  0  0  0  0  0  0  0  0  0
    9.3227  -19.6303   19.9238 C   0  0  0  0  0  0  0  0  0  0  0  0
    8.5845  -20.7842   19.3548 C   0  0  0  0  0  0  0  0  0  0  0  0
    7.8828  -20.8810   18.1838 C   0  0  0  0  0  0  0  0  0  0  0  0
    7.3894  -22.1212   18.0955 N   0  0  0  0  0  0  0  0  0  0  0  0
    7.7704  -22.8020   19.1903 C   0  0  0  0  0  0  0  0  0  0  0  0
    8.5008  -21.9739   19.9530 N   0  0  0  0  0  0  0  0  0  0  0  0
    9.5148  -17.2048   19.8257 C   0  0  0  0  0  0  0  0  0  0  0  0
   10.7222  -16.8779   19.9297 O   0  0  0  0  0  0  0  0  0  0  0  0
    6.7850  -12.6749   19.3829 C   0  0  0  0  0  0  0  0  0  0  0  0
    7.8951  -13.6753   19.5727 C   0  0  0  0  0  0  0  0  0  0  0  0
    7.9195  -14.1315   21.0335 C   0  0  2  0  0  0  0  0  0  0  0  0
    8.2086  -12.9540   21.9268 C   0  0  0  0  0  0  0  0  0  0  0  0
    8.9666  -15.1979   21.2325 C   0  0  2  0  0  0  0  0  0  0  0  0
    8.5438  -16.3954   20.4581 N   0  0  0  0  0  0  0  0  0  0  0  0
    9.0377  -15.6306   22.6328 C   0  0  0  0  0  0  0  0  0  0  0  0
    8.2066  -16.5448   23.0194 O   0  0  0  0  0  0  0  0  0  0  0  0
    9.9325  -15.1455   23.5978 N   0  0  0  0  0  0  0  0  0  0  0  0
    9.8322  -15.6731   24.9865 C   0  0  1  0  0  0  0  0  0  0  0  0
    8.4489  -16.2584   25.0423 C   0  0  0  0  0  0  0  0  0  0  0  0
    7.4487  -15.2875   25.4977 C   0  0  0  0  0  0  0  0  0  0  0  0
    6.0613  -15.4734   25.5759 C   0  0  0  0  0  0  0  0  0  0  0  0
    5.4826  -14.3417   26.0018 N   0  0  0  0  0  0  0  0  0  0  0  0
    6.4113  -13.3982   26.2164 C   0  0  0  0  0  0  0  0  0  0  0  0
    6.3575  -12.0819   26.6679 C   0  0  0  0  0  0  0  0  0  0  0  0
    7.5381  -11.4076   26.7891 C   0  0  0  0  0  0  0  0  0  0  0  0
    8.7599  -11.9661   26.4883 C   0  0  0  0  0  0  0  0  0  0  0  0
    8.8097  -13.2558   26.0449 C   0  0  0  0  0  0  0  0  0  0  0  0
    7.6470  -13.9772   25.9052 C   0  0  0  0  0  0  0  0  0  0  0  0
   10.9340  -16.5999   25.2241 C   0  0  0  0  0  0  0  0  0  0  0  0
   11.8443  -16.9502   24.2318 O   0  0  0  0  0  0  0  0  0  0  0  0
   11.0796  -17.1189   26.3684 O   0  0  0  0  0  0  0  0  0  0  0  0
  2  1  1  6
  2  3  1  0
  3  4  1  0
  4  8  1  0
  5  4  2  0
  5  6  1  0
  6  7  1  0
  8  7  2  0
  9  2  1  0
  9 10  2  0
 12 11  1  0
 12 13  1  0
 13 14  1  1
 15 13  1  0
 15 16  1  6
 16  9  1  0
 17 15  1  0
 18 17  2  0
 19 17  1  0
 20 21  1  6
 20 19  1  0
 21 22  1  0
 22 30  1  0
 23 22  2  0
 23 24  1  0
 24 25  1  0
 25 26  1  0
 26 27  2  0
 28 27  1  0
 29 28  2  0
 30 25  2  0
 30 29  1  0
 31 32  1  0
 31 20  1  0
 33 31  2  0
M  END
$$$$
