HIW.pdb
     RDKit          3D

 33 35  0  0  1  0  0  0  0  0999 V2000
    8.2586  -19.6433   18.6888 N   0  0  0  0  0  0  0  0  0  0  0  0
    7.7654  -18.9243   19.8365 C   0  0  1  0  0  0  0  0  0  0  0  0
    7.6004  -19.8852   20.9785 C   0  0  0  0  0  0  0  0  0  0  0  0
    6.4466  -20.7743   20.6983 C   0  0  0  0  0  0  0  0  0  0  0  0
    5.6663  -20.8661   19.5777 C   0  0  0  0  0  0  0  0  0  0  0  0
    4.7464  -21.8143   19.7875 N   0  0  0  0  0  0  0  0  0  0  0  0
    4.9377  -22.3175   21.0194 C   0  0  0  0  0  0  0  0  0  0  0  0
    5.9803  -21.6736   21.5666 N   0  0  0  0  0  0  0  0  0  0  0  0
    8.7178  -17.8388   20.2762 C   0  0  0  0  0  0  0  0  0  0  0  0
    9.9493  -17.9298   20.0510 O   0  0  0  0  0  0  0  0  0  0  0  0
    6.8925  -12.7336   20.0113 C   0  0  0  0  0  0  0  0  0  0  0  0
    7.7920  -13.9368   19.8991 C   0  0  0  0  0  0  0  0  0  0  0  0
    8.3254  -14.2996   21.2871 C   0  0  2  0  0  0  0  0  0  0  0  0
    9.1509  -13.1610   21.8258 C   0  0  0  0  0  0  0  0  0  0  0  0
    9.1608  -15.5528   21.2168 C   0  0  2  0  0  0  0  0  0  0  0  0
    8.2426  -16.6929   20.9536 N   0  0  0  0  0  0  0  0  0  0  0  0
    9.8051  -15.8454   22.5023 C   0  0  0  0  0  0  0  0  0  0  0  0
   10.9202  -15.2417   22.7636 O   0  0  0  0  0  0  0  0  0  0  0  0
    9.3192  -16.7214   23.4839 N   0  0  0  0  0  0  0  0  0  0  0  0
   10.1179  -16.9068   24.7268 C   0  0  1  0  0  0  0  0  0  0  0  0
   10.7372  -15.5559   24.9527 C   0  0  0  0  0  0  0  0  0  0  0  0
    9.8698  -14.6659   25.7310 C   0  0  0  0  0  0  0  0  0  0  0  0
   10.2562  -13.7841   26.7501 C   0  0  0  0  0  0  0  0  0  0  0  0
    9.1714  -13.1732   27.2470 N   0  0  0  0  0  0  0  0  0  0  0  0
    8.0686  -13.5984   26.6130 C   0  0  0  0  0  0  0  0  0  0  0  0
    6.7163  -13.2835   26.7211 C   0  0  0  0  0  0  0  0  0  0  0  0
    5.8519  -13.9140   25.8736 C   0  0  0  0  0  0  0  0  0  0  0  0
    6.2552  -14.8334   24.9315 C   0  0  0  0  0  0  0  0  0  0  0  0
    7.5808  -15.1410   24.8285 C   0  0  0  0  0  0  0  0  0  0  0  0
    8.4915  -14.5330   25.6609 C   0  0  0  0  0  0  0  0  0  0  0  0
    9.2430  -17.3997   25.7854 C   0  0  0  0  0  0  0  0  0  0  0  0
    8.2566  -16.6108   26.3690 O   0  0  0  0  0  0  0  0  0  0  0  0
    9.3754  -18.5856   26.2054 O   0  0  0  0  0  0  0  0  0  0  0  0
  2  1  1  6
  2  3  1  0
  3  4  1  0
  4  8  1  0
  5  4  2  0
  5  6  1  0
  6  7  1  0
  8  7  2  0
  9  2  1  0
  9 10  2  0
 12 11  1  0
 12 13  1  0
 13 14  1  6
 15 13  1  0
 15 16  1  1
 16  9  1  0
 17 15  1  0
 18 17  2  0
 19 17  1  0
 20 21  1  1
 20 19  1  0
 21 22  1  0
 22 30  1  0
 23 22  2  0
 23 24  1  0
 24 25  1  0
 25 26  1  0
 26 27  2  0
 28 27  1  0
 29 28  2  0
 30 25  2  0
 30 29  1  0
 31 32  1  0
 31 20  1  0
 33 31  2  0
M  END
$$$$
