HIW.pdb
     RDKit          3D

 33 35  0  0  1  0  0  0  0  0999 V2000
    9.8522  -19.0243   18.5875 N   0  0  0  0  0  0  0  0  0  0  0  0
   11.1378  -18.4625   18.9177 C   0  0  1  0  0  0  0  0  0  0  0  0
   11.8656  -18.1326   17.6464 C   0  0  0  0  0  0  0  0  0  0  0  0
   11.2484  -18.8860   16.5276 C   0  0  0  0  0  0  0  0  0  0  0  0
   10.8750  -20.2010   16.4607 C   0  0  0  0  0  0  0  0  0  0  0  0
   10.3604  -20.4263   15.2467 N   0  0  0  0  0  0  0  0  0  0  0  0
   10.4051  -19.2756   14.5532 C   0  0  0  0  0  0  0  0  0  0  0  0
   10.9501  -18.3408   15.3470 N   0  0  0  0  0  0  0  0  0  0  0  0
   11.0101  -17.1923   19.7232 C   0  0  0  0  0  0  0  0  0  0  0  0
   12.0235  -16.5209   20.0356 O   0  0  0  0  0  0  0  0  0  0  0  0
    6.7638  -13.1813   21.7029 C   0  0  0  0  0  0  0  0  0  0  0  0
    8.1626  -13.7295   21.8133 C   0  0  0  0  0  0  0  0  0  0  0  0
    8.2564  -15.0369   21.0229 C   0  0  2  0  0  0  0  0  0  0  0  0
    7.2570  -16.0266   21.5610 C   0  0  0  0  0  0  0  0  0  0  0  0
    9.6485  -15.6080   21.1173 C   0  0  2  0  0  0  0  0  0  0  0  0
    9.7428  -16.7299   20.1453 N   0  0  0  0  0  0  0  0  0  0  0  0
    9.9020  -16.1983   22.4366 C   0  0  0  0  0  0  0  0  0  0  0  0
   11.0984  -16.6296   22.6791 O   0  0  0  0  0  0  0  0  0  0  0  0
    8.9628  -16.3354   23.4691 N   0  0  0  0  0  0  0  0  0  0  0  0
    9.4552  -16.6547   24.8376 C   0  0  1  0  0  0  0  0  0  0  0  0
    9.4231  -15.3275   25.5424 C   0  0  0  0  0  0  0  0  0  0  0  0
    8.0566  -14.8781   25.8270 C   0  0  0  0  0  0  0  0  0  0  0  0
    6.8681  -15.5900   25.6119 C   0  0  0  0  0  0  0  0  0  0  0  0
    5.8219  -14.8281   25.9609 N   0  0  0  0  0  0  0  0  0  0  0  0
    6.2445  -13.6344   26.4028 C   0  0  0  0  0  0  0  0  0  0  0  0
    5.5927  -12.5052   26.8924 C   0  0  0  0  0  0  0  0  0  0  0  0
    6.3657  -11.4499   27.2822 C   0  0  0  0  0  0  0  0  0  0  0  0
    7.7406  -11.4557   27.2125 C   0  0  0  0  0  0  0  0  0  0  0  0
    8.3766  -12.5630   26.7313 C   0  0  0  0  0  0  0  0  0  0  0  0
    7.6418  -13.6523   26.3248 C   0  0  0  0  0  0  0  0  0  0  0  0
    8.6226  -17.7080   25.4090 C   0  0  0  0  0  0  0  0  0  0  0  0
    7.4887  -18.1964   24.7674 O   0  0  0  0  0  0  0  0  0  0  0  0
    8.9247  -18.2043   26.5326 O   0  0  0  0  0  0  0  0  0  0  0  0
  2  1  1  6
  2  3  1  0
  3  4  1  0
  4  8  1  0
  5  4  2  0
  5  6  1  0
  6  7  1  0
  8  7  2  0
  9  2  1  0
  9 10  2  0
 12 11  1  0
 12 13  1  0
 13 14  1  1
 15 13  1  0
 15 16  1  6
 16  9  1  0
 17 15  1  0
 18 17  2  0
 19 17  1  0
 20 21  1  1
 20 19  1  0
 21 22  1  0
 22 30  1  0
 23 22  2  0
 23 24  1  0
 24 25  1  0
 25 26  1  0
 26 27  2  0
 28 27  1  0
 29 28  2  0
 30 25  2  0
 30 29  1  0
 31 32  1  0
 31 20  1  0
 33 31  2  0
M  END
$$$$
