HIW.pdb
     RDKit          3D

 33 35  0  0  1  0  0  0  0  0999 V2000
   10.5695  -18.1952   17.2366 N   0  0  0  0  0  0  0  0  0  0  0  0
    9.6619  -18.3247   18.3488 C   0  0  1  0  0  0  0  0  0  0  0  0
   10.0138  -19.5626   19.1224 C   0  0  0  0  0  0  0  0  0  0  0  0
    9.5587  -20.7523   18.3624 C   0  0  0  0  0  0  0  0  0  0  0  0
    8.7746  -20.8267   17.2432 C   0  0  0  0  0  0  0  0  0  0  0  0
    8.6348  -22.1167   16.9178 N   0  0  0  0  0  0  0  0  0  0  0  0
    9.3179  -22.8504   17.8135 C   0  0  0  0  0  0  0  0  0  0  0  0
    9.8787  -22.0050   18.6919 N   0  0  0  0  0  0  0  0  0  0  0  0
    9.7490  -17.1478   19.2900 C   0  0  0  0  0  0  0  0  0  0  0  0
   10.8376  -16.5530   19.4815 O   0  0  0  0  0  0  0  0  0  0  0  0
    8.1863  -12.2693   20.9033 C   0  0  0  0  0  0  0  0  0  0  0  0
    7.6012  -13.4406   21.6484 C   0  0  0  0  0  0  0  0  0  0  0  0
    7.5306  -14.6499   20.7129 C   0  0  2  0  0  0  0  0  0  0  0  0
    6.2535  -15.4084   20.9614 C   0  0  0  0  0  0  0  0  0  0  0  0
    8.7172  -15.5535   20.9334 C   0  0  2  0  0  0  0  0  0  0  0  0
    8.6034  -16.6886   19.9791 N   0  0  0  0  0  0  0  0  0  0  0  0
    8.6987  -16.1524   22.2729 C   0  0  0  0  0  0  0  0  0  0  0  0
    7.5435  -16.4194   22.7928 O   0  0  0  0  0  0  0  0  0  0  0  0
    9.8248  -16.4694   23.0464 N   0  0  0  0  0  0  0  0  0  0  0  0
    9.8578  -16.0234   24.4667 C   0  0  1  0  0  0  0  0  0  0  0  0
    9.3961  -14.5946   24.3983 C   0  0  0  0  0  0  0  0  0  0  0  0
    8.2125  -14.3488   25.2283 C   0  0  0  0  0  0  0  0  0  0  0  0
    7.1579  -15.2363   25.4846 C   0  0  0  0  0  0  0  0  0  0  0  0
    6.2434  -14.6320   26.2562 N   0  0  0  0  0  0  0  0  0  0  0  0
    6.6280  -13.3778   26.5355 C   0  0  0  0  0  0  0  0  0  0  0  0
    6.0723  -12.3477   27.2902 C   0  0  0  0  0  0  0  0  0  0  0  0
    6.7723  -11.1790   27.3748 C   0  0  0  0  0  0  0  0  0  0  0  0
    7.9854  -10.9798   26.7550 C   0  0  0  0  0  0  0  0  0  0  0  0
    8.5271  -11.9905   26.0151 C   0  0  0  0  0  0  0  0  0  0  0  0
    7.8597  -13.1875   25.8985 C   0  0  0  0  0  0  0  0  0  0  0  0
    9.0397  -16.9273   25.2684 C   0  0  0  0  0  0  0  0  0  0  0  0
    8.1450  -17.8290   24.7006 O   0  0  0  0  0  0  0  0  0  0  0  0
    9.1298  -16.9004   26.5298 O   0  0  0  0  0  0  0  0  0  0  0  0
  2  1  1  6
  2  3  1  0
  3  4  1  0
  4  8  1  0
  5  4  2  0
  5  6  1  0
  6  7  1  0
  8  7  2  0
  9  2  1  0
  9 10  2  0
 12 11  1  0
 12 13  1  0
 13 14  1  1
 15 13  1  0
 15 16  1  6
 16  9  1  0
 17 15  1  0
 18 17  2  0
 19 17  1  0
 20 21  1  6
 20 19  1  0
 21 22  1  0
 22 30  1  0
 23 22  2  0
 23 24  1  0
 24 25  1  0
 25 26  1  0
 26 27  2  0
 28 27  1  0
 29 28  2  0
 30 25  2  0
 30 29  1  0
 31 32  1  0
 31 20  1  0
 33 31  2  0
M  END
$$$$
