HIW.pdb
     RDKit          3D

 33 35  0  0  1  0  0  0  0  0999 V2000
   10.0896  -18.1769   17.5792 N   0  0  0  0  0  0  0  0  0  0  0  0
    9.3957  -18.2892   18.8375 C   0  0  1  0  0  0  0  0  0  0  0  0
    9.8651  -19.5288   19.5431 C   0  0  0  0  0  0  0  0  0  0  0  0
    9.4342  -20.7178   18.7679 C   0  0  0  0  0  0  0  0  0  0  0  0
    8.2040  -21.0268   18.2540 C   0  0  0  0  0  0  0  0  0  0  0  0
    8.2981  -22.2059   17.6291 N   0  0  0  0  0  0  0  0  0  0  0  0
    9.5655  -22.6396   17.7429 C   0  0  0  0  0  0  0  0  0  0  0  0
   10.2508  -21.7211   18.4412 N   0  0  0  0  0  0  0  0  0  0  0  0
    9.6663  -17.1099   19.7400 C   0  0  0  0  0  0  0  0  0  0  0  0
   10.8374  -16.7047   19.9397 O   0  0  0  0  0  0  0  0  0  0  0  0
    6.4998  -12.8787   19.2949 C   0  0  0  0  0  0  0  0  0  0  0  0
    7.6847  -13.7874   19.4944 C   0  0  0  0  0  0  0  0  0  0  0  0
    7.7223  -14.2559   20.9510 C   0  0  2  0  0  0  0  0  0  0  0  0
    7.8546  -13.0645   21.8627 C   0  0  0  0  0  0  0  0  0  0  0  0
    8.8766  -15.2011   21.1683 C   0  0  2  0  0  0  0  0  0  0  0  0
    8.6040  -16.4342   20.3825 N   0  0  0  0  0  0  0  0  0  0  0  0
    8.9675  -15.6299   22.5686 C   0  0  0  0  0  0  0  0  0  0  0  0
    8.1764  -16.5786   22.9563 O   0  0  0  0  0  0  0  0  0  0  0  0
    9.8417  -15.1068   23.5326 N   0  0  0  0  0  0  0  0  0  0  0  0
    9.8031  -15.6759   24.9080 C   0  0  1  0  0  0  0  0  0  0  0  0
    8.4255  -16.2691   25.0055 C   0  0  0  0  0  0  0  0  0  0  0  0
    7.4430  -15.3180   25.5350 C   0  0  0  0  0  0  0  0  0  0  0  0
    6.0526  -15.4846   25.6016 C   0  0  0  0  0  0  0  0  0  0  0  0
    5.4943  -14.3784   26.1131 N   0  0  0  0  0  0  0  0  0  0  0  0
    6.4399  -13.4704   26.3966 C   0  0  0  0  0  0  0  0  0  0  0  0
    6.4097  -12.1913   26.9466 C   0  0  0  0  0  0  0  0  0  0  0  0
    7.6022  -11.5491   27.1161 C   0  0  0  0  0  0  0  0  0  0  0  0
    8.8138  -12.1048   26.7715 C   0  0  0  0  0  0  0  0  0  0  0  0
    8.8403  -13.3580   26.2318 C   0  0  0  0  0  0  0  0  0  0  0  0
    7.6648  -14.0460   26.0401 C   0  0  0  0  0  0  0  0  0  0  0  0
   10.9173  -16.6040   25.0704 C   0  0  0  0  0  0  0  0  0  0  0  0
   11.2081  -17.2192   26.2840 O   0  0  0  0  0  0  0  0  0  0  0  0
   11.6619  -16.8670   24.0821 O   0  0  0  0  0  0  0  0  0  0  0  0
  2  1  1  6
  2  3  1  0
  3  4  1  0
  4  8  1  0
  5  4  2  0
  5  6  1  0
  6  7  1  0
  8  7  2  0
  9  2  1  0
  9 10  2  0
 12 11  1  0
 12 13  1  0
 13 14  1  1
 15 13  1  0
 15 16  1  6
 16  9  1  0
 17 15  1  0
 18 17  2  0
 19 17  1  0
 20 21  1  6
 20 19  1  0
 21 22  1  0
 22 30  1  0
 23 22  2  0
 23 24  1  0
 24 25  1  0
 25 26  1  0
 26 27  2  0
 28 27  1  0
 29 28  2  0
 30 25  2  0
 30 29  1  0
 31 32  1  0
 31 20  1  0
 33 31  2  0
M  END
$$$$
