HIW.pdb
     RDKit          3D

 33 35  0  0  1  0  0  0  0  0999 V2000
    8.3686  -18.0830   18.3034 N   0  0  0  0  0  0  0  0  0  0  0  0
    9.3137  -18.1081   19.3914 C   0  0  1  0  0  0  0  0  0  0  0  0
   10.3225  -17.0152   19.1849 C   0  0  0  0  0  0  0  0  0  0  0  0
   11.3323  -17.4707   18.1985 C   0  0  0  0  0  0  0  0  0  0  0  0
   12.6916  -17.5707   18.3224 C   0  0  0  0  0  0  0  0  0  0  0  0
   13.1821  -18.0328   17.1668 N   0  0  0  0  0  0  0  0  0  0  0  0
   12.1536  -18.2238   16.3224 C   0  0  0  0  0  0  0  0  0  0  0  0
   11.0275  -17.8766   16.9646 N   0  0  0  0  0  0  0  0  0  0  0  0
    8.6464  -17.8787   20.7258 C   0  0  0  0  0  0  0  0  0  0  0  0
    8.0072  -16.8231   20.9554 O   0  0  0  0  0  0  0  0  0  0  0  0
    5.7159  -21.6815   22.9648 C   0  0  0  0  0  0  0  0  0  0  0  0
    6.2584  -20.3407   22.5435 C   0  0  0  0  0  0  0  0  0  0  0  0
    7.4238  -19.9573   23.4586 C   0  0  2  0  0  0  0  0  0  0  0  0
    6.9426  -19.8734   24.8832 C   0  0  0  0  0  0  0  0  0  0  0  0
    8.0103  -18.6346   23.0347 C   0  0  2  0  0  0  0  0  0  0  0  0
    8.7271  -18.8501   21.7494 N   0  0  0  0  0  0  0  0  0  0  0  0
    9.0242  -18.1637   23.9852 C   0  0  0  0  0  0  0  0  0  0  0  0
   10.1768  -18.7530   23.9711 O   0  0  0  0  0  0  0  0  0  0  0  0
    8.8612  -17.1234   24.9115 N   0  0  0  0  0  0  0  0  0  0  0  0
    9.9688  -16.8445   25.8668 C   0  0  1  0  0  0  0  0  0  0  0  0
    9.9040  -15.3549   26.0565 C   0  0  0  0  0  0  0  0  0  0  0  0
    8.5258  -14.8561   26.1016 C   0  0  0  0  0  0  0  0  0  0  0  0
    7.3758  -15.5742   26.4584 C   0  0  0  0  0  0  0  0  0  0  0  0
    6.3002  -14.7832   26.3379 N   0  0  0  0  0  0  0  0  0  0  0  0
    6.6664  -13.5635   25.9172 C   0  0  0  0  0  0  0  0  0  0  0  0
    5.9674  -12.3885   25.6517 C   0  0  0  0  0  0  0  0  0  0  0  0
    6.6894  -11.3019   25.2502 C   0  0  0  0  0  0  0  0  0  0  0  0
    8.0577  -11.3193   25.0994 C   0  0  0  0  0  0  0  0  0  0  0  0
    8.7400  -12.4723   25.3591 C   0  0  0  0  0  0  0  0  0  0  0  0
    8.0574  -13.5950   25.7658 C   0  0  0  0  0  0  0  0  0  0  0  0
    9.7794  -17.6556   27.0648 C   0  0  0  0  0  0  0  0  0  0  0  0
    8.6238  -18.3966   27.2918 O   0  0  0  0  0  0  0  0  0  0  0  0
   10.6876  -17.6944   27.9445 O   0  0  0  0  0  0  0  0  0  0  0  0
  2  1  1  6
  2  3  1  0
  3  4  1  0
  4  8  1  0
  5  4  2  0
  5  6  1  0
  6  7  1  0
  8  7  2  0
  9  2  1  0
  9 10  2  0
 12 11  1  0
 12 13  1  0
 13 14  1  1
 15 13  1  0
 15 16  1  6
 16  9  1  0
 17 15  1  0
 18 17  2  0
 19 17  1  0
 20 21  1  1
 20 19  1  0
 21 22  1  0
 22 30  1  0
 23 22  2  0
 23 24  1  0
 24 25  1  0
 25 26  1  0
 26 27  2  0
 28 27  1  0
 29 28  2  0
 30 25  2  0
 30 29  1  0
 31 32  1  0
 31 20  1  0
 33 31  2  0
M  END
$$$$
