HIW.pdb
     RDKit          3D

 33 35  0  0  1  0  0  0  0  0999 V2000
   10.0487  -17.9630   17.0046 N   0  0  0  0  0  0  0  0  0  0  0  0
    9.3983  -18.3473   18.2321 C   0  0  1  0  0  0  0  0  0  0  0  0
    9.8978  -19.7022   18.6438 C   0  0  0  0  0  0  0  0  0  0  0  0
    9.2914  -20.7287   17.7612 C   0  0  0  0  0  0  0  0  0  0  0  0
    8.0069  -21.1992   17.7225 C   0  0  0  0  0  0  0  0  0  0  0  0
    7.9303  -22.1216   16.7567 N   0  0  0  0  0  0  0  0  0  0  0  0
    9.1442  -22.2362   16.1905 C   0  0  0  0  0  0  0  0  0  0  0  0
    9.9682  -21.3793   16.8132 N   0  0  0  0  0  0  0  0  0  0  0  0
    9.6933  -17.3822   19.3547 C   0  0  0  0  0  0  0  0  0  0  0  0
   10.8749  -17.0964   19.6671 O   0  0  0  0  0  0  0  0  0  0  0  0
    7.0317  -12.9174   19.5552 C   0  0  0  0  0  0  0  0  0  0  0  0
    8.1071  -13.9637   19.6905 C   0  0  0  0  0  0  0  0  0  0  0  0
    7.9607  -14.6664   21.0423 C   0  0  2  0  0  0  0  0  0  0  0  0
    8.1813  -13.6754   22.1546 C   0  0  0  0  0  0  0  0  0  0  0  0
    8.9518  -15.7968   21.1558 C   0  0  2  0  0  0  0  0  0  0  0  0
    8.6423  -16.7778   20.0815 N   0  0  0  0  0  0  0  0  0  0  0  0
    8.7981  -16.5252   22.4203 C   0  0  0  0  0  0  0  0  0  0  0  0
    7.6112  -16.9371   22.7330 O   0  0  0  0  0  0  0  0  0  0  0  0
    9.8261  -16.8232   23.3266 N   0  0  0  0  0  0  0  0  0  0  0  0
    9.7974  -16.1784   24.6685 C   0  0  1  0  0  0  0  0  0  0  0  0
    9.3336  -14.7787   24.3771 C   0  0  0  0  0  0  0  0  0  0  0  0
    8.1647  -14.3988   25.1770 C   0  0  0  0  0  0  0  0  0  0  0  0
    7.0307  -15.1786   25.4440 C   0  0  0  0  0  0  0  0  0  0  0  0
    6.1630  -14.4680   26.1782 N   0  0  0  0  0  0  0  0  0  0  0  0
    6.6549  -13.2443   26.4219 C   0  0  0  0  0  0  0  0  0  0  0  0
    6.1832  -12.1426   27.1313 C   0  0  0  0  0  0  0  0  0  0  0  0
    6.9844  -11.0391   27.1891 C   0  0  0  0  0  0  0  0  0  0  0  0
    8.2196  -10.9714   26.5848 C   0  0  0  0  0  0  0  0  0  0  0  0
    8.6789  -12.0519   25.8893 C   0  0  0  0  0  0  0  0  0  0  0  0
    7.9081  -13.1876   25.8011 C   0  0  0  0  0  0  0  0  0  0  0  0
    8.9495  -16.9665   25.5569 C   0  0  0  0  0  0  0  0  0  0  0  0
    8.1089  -17.9726   25.0912 O   0  0  0  0  0  0  0  0  0  0  0  0
    8.9619  -16.7364   26.8007 O   0  0  0  0  0  0  0  0  0  0  0  0
  2  1  1  6
  2  3  1  0
  3  4  1  0
  4  8  1  0
  5  4  2  0
  5  6  1  0
  6  7  1  0
  8  7  2  0
  9  2  1  0
  9 10  2  0
 12 11  1  0
 12 13  1  0
 13 14  1  1
 15 13  1  0
 15 16  1  6
 16  9  1  0
 17 15  1  0
 18 17  2  0
 19 17  1  0
 20 21  1  6
 20 19  1  0
 21 22  1  0
 22 30  1  0
 23 22  2  0
 23 24  1  0
 24 25  1  0
 25 26  1  0
 26 27  2  0
 28 27  1  0
 29 28  2  0
 30 25  2  0
 30 29  1  0
 31 32  1  0
 31 20  1  0
 33 31  2  0
M  END
$$$$
