HIW.pdb
     RDKit          3D

 33 35  0  0  1  0  0  0  0  0999 V2000
   12.8232  -16.3163   18.2702 N   0  0  0  0  0  0  0  0  0  0  0  0
   11.9471  -17.0874   19.1160 C   0  0  1  0  0  0  0  0  0  0  0  0
   12.7346  -18.1993   19.7471 C   0  0  0  0  0  0  0  0  0  0  0  0
   13.0452  -19.2173   18.7139 C   0  0  0  0  0  0  0  0  0  0  0  0
   12.6468  -19.2849   17.4063 C   0  0  0  0  0  0  0  0  0  0  0  0
   13.1798  -20.3860   16.8651 N   0  0  0  0  0  0  0  0  0  0  0  0
   13.9047  -21.0082   17.8109 C   0  0  0  0  0  0  0  0  0  0  0  0
   13.8149  -20.2841   18.9372 N   0  0  0  0  0  0  0  0  0  0  0  0
   11.3514  -16.2529   20.2238 C   0  0  0  0  0  0  0  0  0  0  0  0
   12.0811  -15.7207   21.0956 O   0  0  0  0  0  0  0  0  0  0  0  0
    6.9565  -13.2223   19.1807 C   0  0  0  0  0  0  0  0  0  0  0  0
    8.2912  -13.7034   19.6872 C   0  0  0  0  0  0  0  0  0  0  0  0
    8.0715  -14.6460   20.8728 C   0  0  2  0  0  0  0  0  0  0  0  0
    7.3648  -13.9100   21.9805 C   0  0  0  0  0  0  0  0  0  0  0  0
    9.3910  -15.1802   21.3697 C   0  0  2  0  0  0  0  0  0  0  0  0
    9.9546  -16.0520   20.3046 N   0  0  0  0  0  0  0  0  0  0  0  0
    9.2169  -16.0430   22.5438 C   0  0  0  0  0  0  0  0  0  0  0  0
    9.0844  -17.3142   22.3375 O   0  0  0  0  0  0  0  0  0  0  0  0
    9.1852  -15.6159   23.8793 N   0  0  0  0  0  0  0  0  0  0  0  0
    9.1157  -16.6465   24.9518 C   0  0  1  0  0  0  0  0  0  0  0  0
    9.0326  -15.8359   26.2148 C   0  0  0  0  0  0  0  0  0  0  0  0
    7.8506  -14.9685   26.2460 C   0  0  0  0  0  0  0  0  0  0  0  0
    6.5149  -15.3489   26.0546 C   0  0  0  0  0  0  0  0  0  0  0  0
    5.7286  -14.2651   26.1184 N   0  0  0  0  0  0  0  0  0  0  0  0
    6.4674  -13.1688   26.3445 C   0  0  0  0  0  0  0  0  0  0  0  0
    6.1604  -11.8207   26.5117 C   0  0  0  0  0  0  0  0  0  0  0  0
    7.1945  -10.9635   26.7549 C   0  0  0  0  0  0  0  0  0  0  0  0
    8.5070  -11.3702   26.8406 C   0  0  0  0  0  0  0  0  0  0  0  0
    8.8051  -12.6916   26.6752 C   0  0  0  0  0  0  0  0  0  0  0  0
    7.7980  -13.5949   26.4271 C   0  0  0  0  0  0  0  0  0  0  0  0
    7.9922  -17.5379   24.6829 C   0  0  0  0  0  0  0  0  0  0  0  0
    7.9098  -18.8201   25.2168 O   0  0  0  0  0  0  0  0  0  0  0  0
    7.0503  -17.1491   23.9333 O   0  0  0  0  0  0  0  0  0  0  0  0
  2  1  1  1
  2  3  1  0
  3  4  1  0
  4  8  1  0
  5  4  2  0
  5  6  1  0
  6  7  1  0
  8  7  2  0
  9  2  1  0
  9 10  2  0
 12 11  1  0
 12 13  1  0
 13 14  1  1
 15 13  1  0
 15 16  1  6
 16  9  1  0
 17 15  1  0
 18 17  2  0
 19 17  1  0
 20 21  1  1
 20 19  1  0
 21 22  1  0
 22 30  1  0
 23 22  2  0
 23 24  1  0
 24 25  1  0
 25 26  1  0
 26 27  2  0
 28 27  1  0
 29 28  2  0
 30 25  2  0
 30 29  1  0
 31 32  1  0
 31 20  1  0
 33 31  2  0
M  END
$$$$
