DIV.pdb
     RDKit          3D

 24 23  0  0  1  0  0  0  0  0999 V2000
   19.5290  -13.8917  -19.0505 N   0  0  0  0  0  0  0  0  0  0  0  0
   20.0848  -12.5766  -19.1576 C   0  0  1  0  0  0  0  0  0  0  0  0
   19.0631  -11.6633  -19.8280 C   0  0  0  0  0  0  0  0  0  0  0  0
   18.9639  -12.0173  -21.2718 C   0  0  0  0  0  0  0  0  0  0  0  0
   19.6215  -12.9749  -21.7619 O   0  0  0  0  0  0  0  0  0  0  0  0
   20.3722  -11.9746  -17.8219 C   0  0  0  0  0  0  0  0  0  0  0  0
   19.5722  -12.2065  -16.8805 O   0  0  0  0  0  0  0  0  0  0  0  0
   18.1222  -11.2611  -22.0746 O   0  0  0  0  0  0  0  0  0  0  0  0
   24.8782  -12.5128  -15.4821 C   0  0  0  0  0  0  0  0  0  0  0  0
   23.4316  -12.2243  -15.8062 C   0  0  0  0  0  0  0  0  0  0  0  0
   23.2284  -10.7273  -16.0545 C   0  0  2  0  0  0  0  0  0  0  0  0
   23.5665   -9.9459  -14.8325 C   0  0  0  0  0  0  0  0  0  0  0  0
   21.7251  -10.5465  -16.3390 C   0  0  2  0  0  0  0  0  0  0  0  0
   21.5082  -11.1779  -17.6507 N   0  0  0  0  0  0  0  0  0  0  0  0
   21.4245   -9.1055  -16.4966 C   0  0  0  0  0  0  0  0  0  0  0  0
   22.1212   -8.4619  -17.3669 O   0  0  0  0  0  0  0  0  0  0  0  0
   18.7013   -5.1183  -16.4697 C   0  0  0  0  0  0  0  0  0  0  0  0
   18.8201   -6.6122  -16.2526 C   0  0  1  0  0  0  0  0  0  0  0  0
   18.3153   -7.2965  -17.5037 C   0  0  0  0  0  0  0  0  0  0  0  0
   20.2701   -6.9839  -16.0270 C   0  0  2  0  0  0  0  0  0  0  0  0
   20.4315   -8.3922  -15.7670 N   0  0  0  0  0  0  0  0  0  0  0  0
   20.8041   -6.2028  -14.8699 C   0  0  0  0  0  0  0  0  0  0  0  0
   21.0866   -4.9802  -14.9392 O   0  0  0  0  0  0  0  0  0  0  0  0
   21.0089   -6.8224  -13.6516 O   0  0  0  0  0  0  0  0  0  0  0  0
  2  1  1  1
  2  3  1  0
  4  3  1  0
  4  8  1  0
  5  4  2  0
  6  2  1  0
  7  6  2  0
  9 10  1  0
 10 11  1  0
 11 13  1  0
 11 12  1  1
 13 14  1  6
 14  6  1  0
 15 13  1  0
 15 21  1  0
 16 15  2  0
 18 17  1  6
 18 20  1  0
 19 18  1  0
 20 21  1  1
 20 22  1  0
 22 23  2  0
 22 24  1  0
M  END
$$$$
