DIV.pdb
     RDKit          3D

 24 23  0  0  1  0  0  0  0  0999 V2000
   24.6253   -4.5805  -18.5753 N   0  0  0  0  0  0  0  0  0  0  0  0
   24.3928   -5.0856  -17.2559 C   0  0  1  0  0  0  0  0  0  0  0  0
   23.4126   -4.1610  -16.5403 C   0  0  0  0  0  0  0  0  0  0  0  0
   24.0219   -2.8075  -16.4122 C   0  0  0  0  0  0  0  0  0  0  0  0
   25.2224   -2.6564  -16.0581 O   0  0  0  0  0  0  0  0  0  0  0  0
   23.7582   -6.4370  -17.2725 C   0  0  0  0  0  0  0  0  0  0  0  0
   23.0261   -6.7383  -18.2488 O   0  0  0  0  0  0  0  0  0  0  0  0
   23.2298   -1.7041  -16.6945 O   0  0  0  0  0  0  0  0  0  0  0  0
   26.6039  -10.4134  -15.1417 C   0  0  0  0  0  0  0  0  0  0  0  0
   25.6578   -9.6219  -16.0131 C   0  0  0  0  0  0  0  0  0  0  0  0
   24.2757   -9.5362  -15.3600 C   0  0  2  0  0  0  0  0  0  0  0  0
   23.6572  -10.8880  -15.2703 C   0  0  0  0  0  0  0  0  0  0  0  0
   23.4146   -8.6761  -16.3046 C   0  0  2  0  0  0  0  0  0  0  0  0
   23.9893   -7.3241  -16.2168 N   0  0  0  0  0  0  0  0  0  0  0  0
   22.0345   -8.5957  -15.7750 C   0  0  0  0  0  0  0  0  0  0  0  0
   21.8984   -8.1183  -14.5874 O   0  0  0  0  0  0  0  0  0  0  0  0
   18.4210   -9.2712  -17.9942 C   0  0  0  0  0  0  0  0  0  0  0  0
   18.5591   -8.2678  -16.8685 C   0  0  1  0  0  0  0  0  0  0  0  0
   17.2101   -8.1506  -16.1941 C   0  0  0  0  0  0  0  0  0  0  0  0
   19.5810   -8.7594  -15.8658 C   0  0  2  0  0  0  0  0  0  0  0  0
   20.8637   -9.0000  -16.4772 N   0  0  0  0  0  0  0  0  0  0  0  0
   19.0869  -10.0232  -15.2390 C   0  0  0  0  0  0  0  0  0  0  0  0
   19.4203  -11.1655  -15.6431 O   0  0  0  0  0  0  0  0  0  0  0  0
   18.2216   -9.9701  -14.1626 O   0  0  0  0  0  0  0  0  0  0  0  0
  2  1  1  6
  2  3  1  0
  4  3  1  0
  4  8  1  0
  5  4  2  0
  6  2  1  0
  7  6  2  0
  9 10  1  0
 10 11  1  0
 11 13  1  0
 11 12  1  6
 13 14  1  1
 14  6  1  0
 15 13  1  0
 15 21  1  0
 16 15  2  0
 18 17  1  6
 18 20  1  0
 19 18  1  0
 20 21  1  6
 20 22  1  0
 22 23  2  0
 22 24  1  0
M  END
$$$$
