DIV.pdb
     RDKit          3D

 24 23  0  0  1  0  0  0  0  0999 V2000
   28.1765  -21.1646  -17.1115 N   0  0  0  0  0  0  0  0  0  0  0  0
   27.6530  -20.2174  -16.1743 C   0  0  1  0  0  0  0  0  0  0  0  0
   26.6787  -19.2941  -16.8994 C   0  0  0  0  0  0  0  0  0  0  0  0
   27.4316  -18.4608  -17.8785 C   0  0  0  0  0  0  0  0  0  0  0  0
   28.3960  -17.7324  -17.5192 O   0  0  0  0  0  0  0  0  0  0  0  0
   26.8741  -20.8744  -15.0829 C   0  0  0  0  0  0  0  0  0  0  0  0
   26.1365  -21.8475  -15.3815 O   0  0  0  0  0  0  0  0  0  0  0  0
   27.0435  -18.5044  -19.2097 O   0  0  0  0  0  0  0  0  0  0  0  0
   29.2955  -20.8913  -10.4860 C   0  0  0  0  0  0  0  0  0  0  0  0
   28.3846  -21.3565  -11.5972 C   0  0  0  0  0  0  0  0  0  0  0  0
   26.9792  -20.7778  -11.4131 C   0  0  2  0  0  0  0  0  0  0  0  0
   26.2762  -21.4633  -10.2932 C   0  0  0  0  0  0  0  0  0  0  0  0
   26.2203  -21.0880  -12.7175 C   0  0  2  0  0  0  0  0  0  0  0  0
   26.9812  -20.3994  -13.7724 N   0  0  0  0  0  0  0  0  0  0  0  0
   24.8810  -20.4592  -12.6684 C   0  0  0  0  0  0  0  0  0  0  0  0
   24.8284  -19.2441  -12.2469 O   0  0  0  0  0  0  0  0  0  0  0  0
   22.7644  -19.1246  -15.0078 C   0  0  0  0  0  0  0  0  0  0  0  0
   21.8108  -19.9979  -14.2198 C   0  0  1  0  0  0  0  0  0  0  0  0
   21.5723  -21.2556  -15.0258 C   0  0  0  0  0  0  0  0  0  0  0  0
   22.4321  -20.3645  -12.8889 C   0  0  2  0  0  0  0  0  0  0  0  0
   23.6649  -21.0928  -13.0519 N   0  0  0  0  0  0  0  0  0  0  0  0
   21.4663  -21.1953  -12.1072 C   0  0  0  0  0  0  0  0  0  0  0  0
   20.3858  -20.7443  -11.6509 O   0  0  0  0  0  0  0  0  0  0  0  0
   21.7428  -22.5259  -11.8557 O   0  0  0  0  0  0  0  0  0  0  0  0
  2  1  1  6
  2  3  1  0
  4  3  1  0
  4  8  1  0
  5  4  2  0
  6  2  1  0
  7  6  2  0
  9 10  1  0
 10 11  1  0
 11 13  1  0
 11 12  1  1
 13 14  1  6
 14  6  1  0
 15 13  1  0
 15 21  1  0
 16 15  2  0
 18 17  1  6
 18 20  1  0
 19 18  1  0
 20 21  1  6
 20 22  1  0
 22 23  2  0
 22 24  1  0
M  END
$$$$
