DIV.pdb
     RDKit          3D

 24 23  0  0  1  0  0  0  0  0999 V2000
   25.6232  -21.2322  -16.8489 N   0  0  0  0  0  0  0  0  0  0  0  0
   25.8733  -20.2609  -15.8273 C   0  0  1  0  0  0  0  0  0  0  0  0
   24.6227  -19.4066  -15.6434 C   0  0  0  0  0  0  0  0  0  0  0  0
   24.5682  -18.3810  -16.7227 C   0  0  0  0  0  0  0  0  0  0  0  0
   24.9267  -18.6462  -17.9019 O   0  0  0  0  0  0  0  0  0  0  0  0
   26.1476  -20.8927  -14.5026 C   0  0  0  0  0  0  0  0  0  0  0  0
   25.3457  -21.7646  -14.0820 O   0  0  0  0  0  0  0  0  0  0  0  0
   24.1087  -17.1129  -16.3977 O   0  0  0  0  0  0  0  0  0  0  0  0
   31.2539  -21.7342  -12.9965 C   0  0  0  0  0  0  0  0  0  0  0  0
   29.7600  -21.8781  -13.1654 C   0  0  0  0  0  0  0  0  0  0  0  0
   29.0215  -20.9461  -12.2011 C   0  0  2  0  0  0  0  0  0  0  0  0
   29.2955  -21.3337  -10.7894 C   0  0  0  0  0  0  0  0  0  0  0  0
   27.5203  -21.1588  -12.4744 C   0  0  2  0  0  0  0  0  0  0  0  0
   27.2740  -20.5060  -13.7702 N   0  0  0  0  0  0  0  0  0  0  0  0
   26.7276  -20.4253  -11.4619 C   0  0  0  0  0  0  0  0  0  0  0  0
   26.7469  -19.1402  -11.5332 O   0  0  0  0  0  0  0  0  0  0  0  0
   23.2278  -20.0594  -10.7522 C   0  0  0  0  0  0  0  0  0  0  0  0
   23.8318  -20.3742   -9.3998 C   0  0  1  0  0  0  0  0  0  0  0  0
   23.5240  -21.8223   -9.0888 C   0  0  0  0  0  0  0  0  0  0  0  0
   25.3321  -20.1792   -9.4503 C   0  0  2  0  0  0  0  0  0  0  0  0
   25.9538  -21.0317  -10.4320 N   0  0  0  0  0  0  0  0  0  0  0  0
   25.9118  -20.4706   -8.1038 C   0  0  0  0  0  0  0  0  0  0  0  0
   26.6659  -21.4504   -7.8788 O   0  0  0  0  0  0  0  0  0  0  0  0
   25.6262  -19.6444   -7.0333 O   0  0  0  0  0  0  0  0  0  0  0  0
  2  1  1  6
  2  3  1  0
  4  3  1  0
  4  8  1  0
  5  4  2  0
  6  2  1  0
  7  6  2  0
  9 10  1  0
 10 11  1  0
 11 13  1  0
 11 12  1  1
 13 14  1  6
 14  6  1  0
 15 13  1  0
 15 21  1  0
 16 15  2  0
 18 17  1  6
 18 20  1  0
 19 18  1  0
 20 21  1  6
 20 22  1  0
 22 23  2  0
 22 24  1  0
M  END
$$$$
