DIV.pdb
     RDKit          3D

 24 23  0  0  1  0  0  0  0  0999 V2000
   28.3131  -21.4043  -17.1533 N   0  0  0  0  0  0  0  0  0  0  0  0
   27.6555  -20.4325  -16.3329 C   0  0  1  0  0  0  0  0  0  0  0  0
   26.6627  -19.6544  -17.1910 C   0  0  0  0  0  0  0  0  0  0  0  0
   27.3721  -18.5275  -17.8592 C   0  0  0  0  0  0  0  0  0  0  0  0
   28.6301  -18.4943  -17.9362 O   0  0  0  0  0  0  0  0  0  0  0  0
   26.8592  -21.0633  -15.2386 C   0  0  0  0  0  0  0  0  0  0  0  0
   26.2047  -22.1034  -15.5030 O   0  0  0  0  0  0  0  0  0  0  0  0
   26.6091  -17.5035  -18.4013 O   0  0  0  0  0  0  0  0  0  0  0  0
   29.1983  -20.9180  -10.6990 C   0  0  0  0  0  0  0  0  0  0  0  0
   28.2819  -21.4026  -11.7973 C   0  0  0  0  0  0  0  0  0  0  0  0
   26.8700  -20.8444  -11.5998 C   0  0  2  0  0  0  0  0  0  0  0  0
   26.1881  -21.5391  -10.4726 C   0  0  0  0  0  0  0  0  0  0  0  0
   26.1030  -21.1667  -12.8965 C   0  0  2  0  0  0  0  0  0  0  0  0
   26.8595  -20.4912  -13.9630 N   0  0  0  0  0  0  0  0  0  0  0  0
   24.7654  -20.5342  -12.8465 C   0  0  0  0  0  0  0  0  0  0  0  0
   24.7315  -19.2747  -12.5827 O   0  0  0  0  0  0  0  0  0  0  0  0
   22.5026  -19.7665  -15.3925 C   0  0  0  0  0  0  0  0  0  0  0  0
   21.6064  -20.4106  -14.3556 C   0  0  1  0  0  0  0  0  0  0  0  0
   21.3265  -21.8258  -14.8106 C   0  0  0  0  0  0  0  0  0  0  0  0
   22.3124  -20.4436  -13.0170 C   0  0  2  0  0  0  0  0  0  0  0  0
   23.5320  -21.2096  -13.0696 N   0  0  0  0  0  0  0  0  0  0  0  0
   21.3992  -21.0372  -11.9935 C   0  0  0  0  0  0  0  0  0  0  0  0
   21.6027  -22.1560  -11.4587 O   0  0  0  0  0  0  0  0  0  0  0  0
   20.2685  -20.3507  -11.5929 O   0  0  0  0  0  0  0  0  0  0  0  0
  2  1  1  6
  2  3  1  0
  4  3  1  0
  4  8  1  0
  5  4  2  0
  6  2  1  0
  7  6  2  0
  9 10  1  0
 10 11  1  0
 11 13  1  0
 11 12  1  1
 13 14  1  6
 14  6  1  0
 15 13  1  0
 15 21  1  0
 16 15  2  0
 18 17  1  6
 18 20  1  0
 19 18  1  0
 20 21  1  6
 20 22  1  0
 22 23  2  0
 22 24  1  0
M  END
$$$$
