DIV.pdb
     RDKit          3D

 24 23  0  0  1  0  0  0  0  0999 V2000
   21.2965  -13.5293  -18.0318 N   0  0  0  0  0  0  0  0  0  0  0  0
   21.6798  -12.1832  -18.3333 C   0  0  1  0  0  0  0  0  0  0  0  0
   20.4733  -11.4436  -18.9033 C   0  0  0  0  0  0  0  0  0  0  0  0
   20.0781  -12.0743  -20.1939 C   0  0  0  0  0  0  0  0  0  0  0  0
   20.9377  -12.4152  -21.0509 O   0  0  0  0  0  0  0  0  0  0  0  0
   22.0966  -11.4284  -17.1144 C   0  0  0  0  0  0  0  0  0  0  0  0
   21.5000  -11.6672  -16.0341 O   0  0  0  0  0  0  0  0  0  0  0  0
   18.7275  -12.2807  -20.4347 O   0  0  0  0  0  0  0  0  0  0  0  0
   26.9685  -11.5680  -15.9691 C   0  0  0  0  0  0  0  0  0  0  0  0
   25.4705  -11.3828  -15.9179 C   0  0  0  0  0  0  0  0  0  0  0  0
   25.1128   -9.8970  -16.0112 C   0  0  2  0  0  0  0  0  0  0  0  0
   25.6472   -9.1576  -14.8340 C   0  0  0  0  0  0  0  0  0  0  0  0
   23.5744   -9.8290  -15.9628 C   0  0  2  0  0  0  0  0  0  0  0  0
   23.1261  -10.4864  -17.2008 N   0  0  0  0  0  0  0  0  0  0  0  0
   23.1423   -8.4152  -16.0418 C   0  0  0  0  0  0  0  0  0  0  0  0
   23.6025   -7.7246  -17.0257 O   0  0  0  0  0  0  0  0  0  0  0  0
   20.4335   -6.6488  -17.1394 C   0  0  0  0  0  0  0  0  0  0  0  0
   20.6289   -6.0650  -15.7559 C   0  0  1  0  0  0  0  0  0  0  0  0
   19.6270   -6.7271  -14.8359 C   0  0  0  0  0  0  0  0  0  0  0  0
   22.0309   -6.3608  -15.2679 C   0  0  2  0  0  0  0  0  0  0  0  0
   22.2638   -7.7755  -15.1219 N   0  0  0  0  0  0  0  0  0  0  0  0
   22.2467   -5.6855  -13.9521 C   0  0  0  0  0  0  0  0  0  0  0  0
   22.2323   -6.2990  -12.8554 O   0  0  0  0  0  0  0  0  0  0  0  0
   22.4757   -4.3234  -13.9020 O   0  0  0  0  0  0  0  0  0  0  0  0
  2  1  1  1
  2  3  1  0
  4  3  1  0
  4  8  1  0
  5  4  2  0
  6  2  1  0
  7  6  2  0
  9 10  1  0
 10 11  1  0
 11 13  1  0
 11 12  1  1
 13 14  1  6
 14  6  1  0
 15 13  1  0
 15 21  1  0
 16 15  2  0
 18 17  1  6
 18 20  1  0
 19 18  1  0
 20 21  1  1
 20 22  1  0
 22 23  2  0
 22 24  1  0
M  END
$$$$
