LLI.pdb
     RDKit          3D

 25 24  0  0  1  0  0  0  0  0999 V2000
    5.0905  -19.7213   23.6651 C   0  0  0  0  0  0  0  0  0  0  0  0
    6.4215  -20.3617   23.9531 C   0  0  2  0  0  0  0  0  0  0  0  0
    6.4679  -20.9734   25.3145 C   0  0  0  0  0  0  0  0  0  0  0  0
    7.5420  -19.3481   23.7366 C   0  0  0  0  0  0  0  0  0  0  0  0
    7.2989  -18.7215   22.3804 C   0  0  2  0  0  0  0  0  0  0  0  0
    7.6395  -19.7477   21.3924 N   0  0  0  0  0  0  0  0  0  0  0  0
    8.1587  -17.5281   22.1761 C   0  0  0  0  0  0  0  0  0  0  0  0
    9.3645  -17.6981   21.9420 O   0  0  0  0  0  0  0  0  0  0  0  0
    8.8563  -13.4889   19.5696 C   0  0  0  0  0  0  0  0  0  0  0  0
    7.4464  -13.8562   20.1015 C   0  0  2  0  0  0  0  0  0  0  0  0
    6.5503  -12.7708   19.5929 C   0  0  0  0  0  0  0  0  0  0  0  0
    7.5976  -13.9130   21.5645 C   0  0  0  0  0  0  0  0  0  0  0  0
    8.4473  -15.0108   22.1433 C   0  0  2  0  0  0  0  0  0  0  0  0
    7.5957  -16.2334   22.2507 N   0  0  0  0  0  0  0  0  0  0  0  0
    8.9940  -14.7675   23.4679 C   0  0  0  0  0  0  0  0  0  0  0  0
   10.0543  -14.1168   23.6337 O   0  0  0  0  0  0  0  0  0  0  0  0
    6.0602  -12.3431   26.3809 C   0  0  0  0  0  0  0  0  0  0  0  0
    7.2527  -13.0108   25.7124 C   0  0  0  0  0  0  0  0  0  0  0  0
    7.7365  -14.1014   26.6402 C   0  0  2  0  0  0  0  0  0  0  0  0
    8.2047  -13.4807   27.9188 C   0  0  0  0  0  0  0  0  0  0  0  0
    8.8242  -14.9274   25.9711 C   0  0  2  0  0  0  0  0  0  0  0  0
    8.3523  -15.2513   24.6312 N   0  0  0  0  0  0  0  0  0  0  0  0
    9.1740  -16.1175   26.7453 C   0  0  0  0  0  0  0  0  0  0  0  0
   10.2487  -16.1385   27.6488 O   0  0  0  0  0  0  0  0  0  0  0  0
    8.5170  -17.1830   26.6303 O   0  0  0  0  0  0  0  0  0  0  0  0
  2  1  1  1
  2  3  1  0
  4  5  1  0
  4  2  1  0
  5  6  1  6
  7  5  1  0
  7  8  2  0
 10  9  1  6
 11 10  1  0
 12 10  1  0
 13 12  1  1
 13 14  1  0
 14  7  1  0
 15 13  1  0
 16 15  2  0
 17 18  1  0
 18 19  1  0
 19 21  1  0
 19 20  1  1
 21 22  1  6
 21 23  1  0
 22 15  1  0
 23 24  1  0
 25 23  2  0
M  END
$$$$
