LLI.pdb
     RDKit          3D

 25 24  0  0  1  0  0  0  0  0999 V2000
    8.5841  -15.1456   17.7311 C   0  0  0  0  0  0  0  0  0  0  0  0
    7.7443  -14.1388   18.4699 C   0  0  2  0  0  0  0  0  0  0  0  0
    7.4160  -12.9526   17.6247 C   0  0  0  0  0  0  0  0  0  0  0  0
    8.4335  -13.7462   19.7739 C   0  0  0  0  0  0  0  0  0  0  0  0
    8.5423  -15.0097   20.6003 C   0  0  2  0  0  0  0  0  0  0  0  0
    7.2140  -15.6265   20.5751 N   0  0  0  0  0  0  0  0  0  0  0  0
    8.9239  -14.7055   22.0027 C   0  0  0  0  0  0  0  0  0  0  0  0
   10.0458  -14.2250   22.2220 O   0  0  0  0  0  0  0  0  0  0  0  0
    5.3636  -13.0159   26.5317 C   0  0  0  0  0  0  0  0  0  0  0  0
    6.8694  -13.2152   26.2179 C   0  0  2  0  0  0  0  0  0  0  0  0
    7.4352  -11.8308   26.1602 C   0  0  0  0  0  0  0  0  0  0  0  0
    6.8953  -13.9585   24.9477 C   0  0  0  0  0  0  0  0  0  0  0  0
    8.2303  -14.4094   24.4220 C   0  0  2  0  0  0  0  0  0  0  0  0
    8.0131  -14.9652   23.0525 N   0  0  0  0  0  0  0  0  0  0  0  0
    8.9047  -15.4441   25.1883 C   0  0  0  0  0  0  0  0  0  0  0  0
    8.7757  -16.6608   24.9088 O   0  0  0  0  0  0  0  0  0  0  0  0
   11.0133  -14.2972   30.3051 C   0  0  0  0  0  0  0  0  0  0  0  0
   10.2157  -14.9295   29.1740 C   0  0  0  0  0  0  0  0  0  0  0  0
   11.2074  -15.4342   28.1513 C   0  0  2  0  0  0  0  0  0  0  0  0
   12.0359  -14.2854   27.6682 C   0  0  0  0  0  0  0  0  0  0  0  0
   10.4873  -16.1409   27.0133 C   0  0  2  0  0  0  0  0  0  0  0  0
    9.7407  -15.1248   26.2830 N   0  0  0  0  0  0  0  0  0  0  0  0
    9.6352  -17.2310   27.4865 C   0  0  0  0  0  0  0  0  0  0  0  0
    8.2398  -17.1078   27.5827 O   0  0  0  0  0  0  0  0  0  0  0  0
   10.1259  -18.3360   27.8302 O   0  0  0  0  0  0  0  0  0  0  0  0
  2  1  1  6
  2  3  1  0
  4  5  1  0
  4  2  1  0
  5  6  1  1
  7  5  1  0
  7  8  2  0
 10  9  1  6
 11 10  1  0
 12 10  1  0
 13 12  1  1
 13 14  1  0
 14  7  1  0
 15 13  1  0
 16 15  2  0
 17 18  1  0
 18 19  1  0
 19 21  1  0
 19 20  1  6
 21 22  1  1
 21 23  1  0
 22 15  1  0
 23 24  1  0
 25 23  2  0
M  END
$$$$
