LLI.pdb
     RDKit          3D

 25 24  0  0  1  0  0  0  0  0999 V2000
    7.8963  -18.5251   19.5708 C   0  0  0  0  0  0  0  0  0  0  0  0
    9.2668  -18.8712   20.0873 C   0  0  2  0  0  0  0  0  0  0  0  0
    9.4464  -20.3433   20.2612 C   0  0  0  0  0  0  0  0  0  0  0  0
    9.5459  -18.0992   21.3740 C   0  0  0  0  0  0  0  0  0  0  0  0
    9.2302  -16.6480   21.0819 C   0  0  2  0  0  0  0  0  0  0  0  0
   10.2024  -16.2160   20.0752 N   0  0  0  0  0  0  0  0  0  0  0  0
    9.3688  -15.8103   22.3002 C   0  0  0  0  0  0  0  0  0  0  0  0
   10.4936  -15.3862   22.6043 O   0  0  0  0  0  0  0  0  0  0  0  0
    5.3512  -13.1982   26.1166 C   0  0  0  0  0  0  0  0  0  0  0  0
    6.8791  -13.3756   25.9171 C   0  0  2  0  0  0  0  0  0  0  0  0
    7.4187  -11.9822   25.8323 C   0  0  0  0  0  0  0  0  0  0  0  0
    7.0091  -14.1761   24.6888 C   0  0  0  0  0  0  0  0  0  0  0  0
    8.3513  -14.7801   24.3798 C   0  0  2  0  0  0  0  0  0  0  0  0
    8.2302  -15.5134   23.0840 N   0  0  0  0  0  0  0  0  0  0  0  0
    8.8642  -15.7330   25.3503 C   0  0  0  0  0  0  0  0  0  0  0  0
    8.7722  -16.9715   25.1696 O   0  0  0  0  0  0  0  0  0  0  0  0
   10.9562  -13.3679   29.8030 C   0  0  0  0  0  0  0  0  0  0  0  0
   11.0112  -14.0673   28.4529 C   0  0  0  0  0  0  0  0  0  0  0  0
   10.5775  -15.4988   28.6694 C   0  0  2  0  0  0  0  0  0  0  0  0
   11.6117  -16.2019   29.4911 C   0  0  0  0  0  0  0  0  0  0  0  0
   10.3358  -16.1904   27.3367 C   0  0  2  0  0  0  0  0  0  0  0  0
    9.4937  -15.3058   26.5420 N   0  0  0  0  0  0  0  0  0  0  0  0
    9.7540  -17.5221   27.4988 C   0  0  0  0  0  0  0  0  0  0  0  0
   10.5327  -18.6904   27.4832 O   0  0  0  0  0  0  0  0  0  0  0  0
    8.5168  -17.6746   27.6604 O   0  0  0  0  0  0  0  0  0  0  0  0
  2  1  1  1
  2  3  1  0
  4  5  1  0
  4  2  1  0
  5  6  1  6
  7  5  1  0
  7  8  2  0
 10  9  1  6
 11 10  1  0
 12 10  1  0
 13 12  1  1
 13 14  1  0
 14  7  1  0
 15 13  1  0
 16 15  2  0
 17 18  1  0
 18 19  1  0
 19 21  1  0
 19 20  1  6
 21 22  1  6
 21 23  1  0
 22 15  1  0
 23 24  1  0
 25 23  2  0
M  END
$$$$
