LLI.pdb
     RDKit          3D

 25 24  0  0  1  0  0  0  0  0999 V2000
   10.9547  -20.2767   23.3719 C   0  0  0  0  0  0  0  0  0  0  0  0
   10.4728  -19.4066   22.2426 C   0  0  2  0  0  0  0  0  0  0  0  0
    9.5813  -20.1489   21.3025 C   0  0  0  0  0  0  0  0  0  0  0  0
   11.6654  -18.7743   21.5301 C   0  0  0  0  0  0  0  0  0  0  0  0
   11.1140  -17.6415   20.6911 C   0  0  2  0  0  0  0  0  0  0  0  0
   12.2395  -17.1369   19.9011 N   0  0  0  0  0  0  0  0  0  0  0  0
   10.5755  -16.5517   21.5439 C   0  0  0  0  0  0  0  0  0  0  0  0
   11.3592  -15.9261   22.2734 O   0  0  0  0  0  0  0  0  0  0  0  0
    8.6583  -12.5850   20.4666 C   0  0  0  0  0  0  0  0  0  0  0  0
    7.8860  -13.8761   20.0896 C   0  0  2  0  0  0  0  0  0  0  0  0
    6.7274  -13.4035   19.2685 C   0  0  0  0  0  0  0  0  0  0  0  0
    7.5331  -14.4949   21.3777 C   0  0  0  0  0  0  0  0  0  0  0  0
    8.6468  -15.0534   22.2200 C   0  0  2  0  0  0  0  0  0  0  0  0
    9.1949  -16.2486   21.5109 N   0  0  0  0  0  0  0  0  0  0  0  0
    8.2810  -15.4942   23.5559 C   0  0  0  0  0  0  0  0  0  0  0  0
    8.0623  -16.7027   23.8141 O   0  0  0  0  0  0  0  0  0  0  0  0
    5.7820  -11.8831   27.0398 C   0  0  0  0  0  0  0  0  0  0  0  0
    6.1935  -12.9973   26.0889 C   0  0  0  0  0  0  0  0  0  0  0  0
    7.3678  -13.7132   26.7155 C   0  0  2  0  0  0  0  0  0  0  0  0
    8.5340  -12.7773   26.7736 C   0  0  0  0  0  0  0  0  0  0  0  0
    7.6901  -14.9847   25.9458 C   0  0  2  0  0  0  0  0  0  0  0  0
    8.1583  -14.5793   24.6269 N   0  0  0  0  0  0  0  0  0  0  0  0
    6.5506  -15.8986   25.8799 C   0  0  0  0  0  0  0  0  0  0  0  0
    6.2063  -16.7499   26.9421 O   0  0  0  0  0  0  0  0  0  0  0  0
    5.8249  -15.9585   24.8552 O   0  0  0  0  0  0  0  0  0  0  0  0
  2  1  1  1
  2  3  1  0
  4  5  1  0
  4  2  1  0
  5  6  1  1
  7  5  1  0
  7  8  2  0
 10  9  1  1
 11 10  1  0
 12 10  1  0
 13 12  1  6
 13 14  1  0
 14  7  1  0
 15 13  1  0
 16 15  2  0
 17 18  1  0
 18 19  1  0
 19 21  1  0
 19 20  1  6
 21 22  1  6
 21 23  1  0
 22 15  1  0
 23 24  1  0
 25 23  2  0
M  END
$$$$
