LLI.pdb
     RDKit          3D

 25 24  0  0  1  0  0  0  0  0999 V2000
    7.5754  -20.3860   27.9155 C   0  0  0  0  0  0  0  0  0  0  0  0
    6.7504  -20.3556   26.6573 C   0  0  2  0  0  0  0  0  0  0  0  0
    6.0141  -21.6358   26.4373 C   0  0  0  0  0  0  0  0  0  0  0  0
    7.6324  -19.9846   25.4681 C   0  0  0  0  0  0  0  0  0  0  0  0
    6.7551  -19.2123   24.5064 C   0  0  2  0  0  0  0  0  0  0  0  0
    6.6696  -20.0266   23.2919 N   0  0  0  0  0  0  0  0  0  0  0  0
    7.3473  -17.8904   24.1793 C   0  0  0  0  0  0  0  0  0  0  0  0
    8.1909  -17.8256   23.2728 O   0  0  0  0  0  0  0  0  0  0  0  0
    5.7110  -12.6968   26.5564 C   0  0  0  0  0  0  0  0  0  0  0  0
    6.9023  -13.1764   25.6866 C   0  0  2  0  0  0  0  0  0  0  0  0
    7.2138  -12.0180   24.7916 C   0  0  0  0  0  0  0  0  0  0  0  0
    6.4096  -14.3838   25.0040 C   0  0  0  0  0  0  0  0  0  0  0  0
    7.4241  -15.3796   24.5132 C   0  0  2  0  0  0  0  0  0  0  0  0
    6.9446  -16.7411   24.8976 N   0  0  0  0  0  0  0  0  0  0  0  0
    8.7674  -15.2446   25.0517 C   0  0  0  0  0  0  0  0  0  0  0  0
    9.6380  -14.5426   24.4823 O   0  0  0  0  0  0  0  0  0  0  0  0
    9.8048  -13.1630   29.3836 C   0  0  0  0  0  0  0  0  0  0  0  0
   10.0768  -13.7014   27.9868 C   0  0  0  0  0  0  0  0  0  0  0  0
   10.4364  -15.1624   28.1295 C   0  0  2  0  0  0  0  0  0  0  0  0
   11.7228  -15.2755   28.8856 C   0  0  0  0  0  0  0  0  0  0  0  0
   10.5124  -15.8289   26.7646 C   0  0  2  0  0  0  0  0  0  0  0  0
    9.1526  -15.8970   26.2454 N   0  0  0  0  0  0  0  0  0  0  0  0
   11.1573  -17.1400   26.8212 C   0  0  0  0  0  0  0  0  0  0  0  0
   12.5521  -17.2952   26.7755 O   0  0  0  0  0  0  0  0  0  0  0  0
   10.4784  -18.1938   26.9144 O   0  0  0  0  0  0  0  0  0  0  0  0
  2  1  1  1
  2  3  1  0
  4  5  1  0
  4  2  1  0
  5  6  1  6
  7  5  1  0
  7  8  2  0
 10  9  1  1
 11 10  1  0
 12 10  1  0
 13 12  1  1
 13 14  1  0
 14  7  1  0
 15 13  1  0
 16 15  2  0
 17 18  1  0
 18 19  1  0
 19 21  1  0
 19 20  1  6
 21 22  1  1
 21 23  1  0
 22 15  1  0
 23 24  1  0
 25 23  2  0
M  END
$$$$
