LLI.pdb
     RDKit          3D

 25 24  0  0  1  0  0  0  0  0999 V2000
    5.7183  -20.3685   26.0507 C   0  0  0  0  0  0  0  0  0  0  0  0
    6.8539  -20.9638   25.2629 C   0  0  2  0  0  0  0  0  0  0  0  0
    7.5914  -22.0044   26.0392 C   0  0  0  0  0  0  0  0  0  0  0  0
    7.7755  -19.8544   24.7631 C   0  0  0  0  0  0  0  0  0  0  0  0
    6.8922  -18.8446   24.0623 C   0  0  2  0  0  0  0  0  0  0  0  0
    6.6447  -19.3829   22.7227 N   0  0  0  0  0  0  0  0  0  0  0  0
    7.5641  -17.5249   23.9527 C   0  0  0  0  0  0  0  0  0  0  0  0
    8.3941  -17.3545   23.0473 O   0  0  0  0  0  0  0  0  0  0  0  0
    6.7054  -12.6025   24.0109 C   0  0  0  0  0  0  0  0  0  0  0  0
    6.0812  -13.5752   25.0452 C   0  0  2  0  0  0  0  0  0  0  0  0
    5.2482  -12.7061   25.9343 C   0  0  0  0  0  0  0  0  0  0  0  0
    7.2314  -14.2224   25.6970 C   0  0  0  0  0  0  0  0  0  0  0  0
    8.0250  -15.2195   24.8983 C   0  0  2  0  0  0  0  0  0  0  0  0
    7.2505  -16.4966   24.8710 N   0  0  0  0  0  0  0  0  0  0  0  0
    9.3458  -15.5453   25.4102 C   0  0  0  0  0  0  0  0  0  0  0  0
   10.3747  -14.9531   25.0032 O   0  0  0  0  0  0  0  0  0  0  0  0
   10.3424  -13.2836   29.0201 C   0  0  0  0  0  0  0  0  0  0  0  0
   10.5829  -14.2061   27.8343 C   0  0  0  0  0  0  0  0  0  0  0  0
   10.5548  -15.6247   28.3546 C   0  0  2  0  0  0  0  0  0  0  0  0
   11.6089  -15.7789   29.4055 C   0  0  0  0  0  0  0  0  0  0  0  0
   10.7325  -16.6149   27.2140 C   0  0  2  0  0  0  0  0  0  0  0  0
    9.5299  -16.5437   26.3943 N   0  0  0  0  0  0  0  0  0  0  0  0
   11.0063  -17.9697   27.6913 C   0  0  0  0  0  0  0  0  0  0  0  0
   12.3113  -18.4684   27.8323 O   0  0  0  0  0  0  0  0  0  0  0  0
   10.0708  -18.7512   27.9981 O   0  0  0  0  0  0  0  0  0  0  0  0
  2  1  1  1
  2  3  1  0
  4  5  1  0
  4  2  1  0
  5  6  1  6
  7  5  1  0
  7  8  2  0
 10  9  1  6
 11 10  1  0
 12 10  1  0
 13 12  1  1
 13 14  1  0
 14  7  1  0
 15 13  1  0
 16 15  2  0
 17 18  1  0
 18 19  1  0
 19 21  1  0
 19 20  1  1
 21 22  1  1
 21 23  1  0
 22 15  1  0
 23 24  1  0
 25 23  2  0
M  END
$$$$
