LLI.pdb
     RDKit          3D

 25 24  0  0  1  0  0  0  0  0999 V2000
    9.4246  -14.1395   19.4276 C   0  0  0  0  0  0  0  0  0  0  0  0
    8.0004  -13.7210   19.1801 C   0  0  2  0  0  0  0  0  0  0  0  0
    7.8854  -12.2595   18.8969 C   0  0  0  0  0  0  0  0  0  0  0  0
    7.1222  -14.1534   20.3512 C   0  0  0  0  0  0  0  0  0  0  0  0
    7.4164  -15.6186   20.5913 C   0  0  2  0  0  0  0  0  0  0  0  0
    6.5224  -16.3631   19.7014 N   0  0  0  0  0  0  0  0  0  0  0  0
    7.1459  -15.9988   22.0011 C   0  0  0  0  0  0  0  0  0  0  0  0
    6.0680  -15.6593   22.5113 O   0  0  0  0  0  0  0  0  0  0  0  0
    5.8525  -19.4707   24.3404 C   0  0  0  0  0  0  0  0  0  0  0  0
    7.1653  -19.5119   23.5155 C   0  0  2  0  0  0  0  0  0  0  0  0
    7.5542  -20.9569   23.4863 C   0  0  0  0  0  0  0  0  0  0  0  0
    8.0927  -18.6256   24.2371 C   0  0  0  0  0  0  0  0  0  0  0  0
    7.8646  -17.1418   24.1455 C   0  0  2  0  0  0  0  0  0  0  0  0
    8.1099  -16.7327   22.7299 N   0  0  0  0  0  0  0  0  0  0  0  0
    8.7216  -16.3092   24.9732 C   0  0  0  0  0  0  0  0  0  0  0  0
    9.9144  -16.0760   24.6605 O   0  0  0  0  0  0  0  0  0  0  0  0
    6.4435  -12.2430   27.3647 C   0  0  0  0  0  0  0  0  0  0  0  0
    7.4601  -13.1115   26.6386 C   0  0  0  0  0  0  0  0  0  0  0  0
    8.2359  -13.8712   27.6898 C   0  0  2  0  0  0  0  0  0  0  0  0
    9.0365  -12.9009   28.5002 C   0  0  0  0  0  0  0  0  0  0  0  0
    9.1082  -14.9362   27.0435 C   0  0  2  0  0  0  0  0  0  0  0  0
    8.2473  -15.7212   26.1683 N   0  0  0  0  0  0  0  0  0  0  0  0
    9.8039  -15.7598   28.0313 C   0  0  0  0  0  0  0  0  0  0  0  0
   11.1091  -15.4748   28.4636 O   0  0  0  0  0  0  0  0  0  0  0  0
    9.2528  -16.7692   28.5387 O   0  0  0  0  0  0  0  0  0  0  0  0
  2  1  1  1
  2  3  1  0
  4  5  1  0
  4  2  1  0
  5  6  1  6
  7  5  1  0
  7  8  2  0
 10  9  1  1
 11 10  1  0
 12 10  1  0
 13 12  1  6
 13 14  1  0
 14  7  1  0
 15 13  1  0
 16 15  2  0
 17 18  1  0
 18 19  1  0
 19 21  1  0
 19 20  1  6
 21 22  1  1
 21 23  1  0
 22 15  1  0
 23 24  1  0
 25 23  2  0
M  END
$$$$
