LLI.pdb
     RDKit          3D

 25 24  0  0  1  0  0  0  0  0999 V2000
    7.8972  -19.2081   21.0550 C   0  0  0  0  0  0  0  0  0  0  0  0
    7.1963  -17.8796   20.9616 C   0  0  2  0  0  0  0  0  0  0  0  0
    5.7150  -18.0324   20.8523 C   0  0  0  0  0  0  0  0  0  0  0  0
    7.7798  -17.0657   19.8098 C   0  0  0  0  0  0  0  0  0  0  0  0
    7.5095  -15.6114   20.1307 C   0  0  2  0  0  0  0  0  0  0  0  0
    8.1070  -14.8375   19.0401 N   0  0  0  0  0  0  0  0  0  0  0  0
    8.1331  -15.2189   21.4200 C   0  0  0  0  0  0  0  0  0  0  0  0
    9.3703  -15.1752   21.4923 O   0  0  0  0  0  0  0  0  0  0  0  0
    5.7602  -12.7832   26.4914 C   0  0  0  0  0  0  0  0  0  0  0  0
    7.1216  -13.3002   25.9578 C   0  0  2  0  0  0  0  0  0  0  0  0
    8.0726  -12.1642   26.1699 C   0  0  0  0  0  0  0  0  0  0  0  0
    6.8668  -13.6529   24.5517 C   0  0  0  0  0  0  0  0  0  0  0  0
    7.9095  -14.4589   23.8270 C   0  0  2  0  0  0  0  0  0  0  0  0
    7.3164  -14.9051   22.5306 N   0  0  0  0  0  0  0  0  0  0  0  0
    8.3784  -15.6568   24.5037 C   0  0  0  0  0  0  0  0  0  0  0  0
    7.6100  -16.6180   24.7497 O   0  0  0  0  0  0  0  0  0  0  0  0
   12.1567  -19.4820   23.3465 C   0  0  0  0  0  0  0  0  0  0  0  0
   12.1518  -18.6295   24.6067 C   0  0  0  0  0  0  0  0  0  0  0  0
   11.4409  -17.3380   24.2738 C   0  0  2  0  0  0  0  0  0  0  0  0
   12.4376  -16.2219   24.2644 C   0  0  0  0  0  0  0  0  0  0  0  0
   10.3060  -17.0856   25.2543 C   0  0  2  0  0  0  0  0  0  0  0  0
    9.7249  -15.7938   24.9128 N   0  0  0  0  0  0  0  0  0  0  0  0
   10.7490  -17.1508   26.6463 C   0  0  0  0  0  0  0  0  0  0  0  0
   10.7407  -16.0298   27.4918 O   0  0  0  0  0  0  0  0  0  0  0  0
   11.1603  -18.2280   27.1469 O   0  0  0  0  0  0  0  0  0  0  0  0
  2  1  1  6
  2  3  1  0
  4  5  1  0
  4  2  1  0
  5  6  1  6
  7  5  1  0
  7  8  2  0
 10  9  1  6
 11 10  1  0
 12 10  1  0
 13 12  1  1
 13 14  1  0
 14  7  1  0
 15 13  1  0
 16 15  2  0
 17 18  1  0
 18 19  1  0
 19 21  1  0
 19 20  1  1
 21 22  1  6
 21 23  1  0
 22 15  1  0
 23 24  1  0
 25 23  2  0
M  END
$$$$
