NHS.pdb
     RDKit          3D

 25 25  0  0  1  0  0  0  0  0999 V2000
    7.2349  -24.2066   18.6208 N   0  0  0  0  0  0  0  0  0  0  0  0
    6.7662  -22.9128   18.9513 C   0  0  0  0  0  0  0  0  0  0  0  0
    5.5373  -22.7140   19.1394 O   0  0  0  0  0  0  0  0  0  0  0  0
    7.7225  -21.7987   19.0745 C   0  0  0  0  0  0  0  0  0  0  0  0
    7.2462  -20.6474   18.2295 C   0  0  2  0  0  0  0  0  0  0  0  0
    7.3706  -20.9501   16.8190 N   0  0  0  0  0  0  0  0  0  0  0  0
    8.1069  -19.4836   18.5336 C   0  0  0  0  0  0  0  0  0  0  0  0
    9.2232  -19.3136   17.9447 O   0  0  0  0  0  0  0  0  0  0  0  0
    7.7219  -18.5224   19.4853 N   0  0  0  0  0  0  0  0  0  0  0  0
    8.5253  -17.2451   19.6266 C   0  0  1  0  0  0  0  0  0  0  0  0
    7.5426  -16.1721   19.4964 C   0  0  0  0  0  0  0  0  0  0  0  0
    7.8611  -14.7998   19.8541 C   0  0  0  0  0  0  0  0  0  0  0  0
    8.9721  -14.1275   20.2839 C   0  0  0  0  0  0  0  0  0  0  0  0
    8.7277  -12.8129   20.3994 N   0  0  0  0  0  0  0  0  0  0  0  0
    7.4551  -12.6308   20.0424 C   0  0  0  0  0  0  0  0  0  0  0  0
    6.9132  -13.8049   19.7108 N   0  0  0  0  0  0  0  0  0  0  0  0
    9.1834  -17.4427   20.9299 C   0  0  0  0  0  0  0  0  0  0  0  0
    8.4874  -18.1195   21.7931 O   0  0  0  0  0  0  0  0  0  0  0  0
   13.1177  -16.7922   21.9171 O   0  0  0  0  0  0  0  0  0  0  0  0
   12.3857  -17.8242   22.4859 C   0  0  0  0  0  0  0  0  0  0  0  0
   10.9349  -17.4288   22.6871 C   0  0  2  0  0  0  0  0  0  0  0  0
   10.4409  -17.0100   21.3631 N   0  0  0  0  0  0  0  0  0  0  0  0
   10.7876  -16.2820   23.6064 C   0  0  0  0  0  0  0  0  0  0  0  0
   10.9866  -16.3923   24.9806 O   0  0  0  0  0  0  0  0  0  0  0  0
   10.4721  -15.1387   23.1873 O   0  0  0  0  0  0  0  0  0  0  0  0
  1  2  1  0
  2  4  1  0
  3  2  2  0
  4  5  1  0
  5  7  1  0
  5  6  1  6
  7  8  2  0
  9 10  1  0
  9  7  1  0
 10 17  1  0
 11 12  1  0
 10 11  1  1
 12 16  1  0
 13 12  2  0
 13 14  1  0
 14 15  1  0
 16 15  2  0
 17 18  2  0
 19 20  1  0
 21 20  1  6
 21 23  1  0
 22 17  1  0
 22 21  1  0
 23 25  2  0
 23 24  1  0
M  END
$$$$
