NHS.pdb
     RDKit          3D

 25 25  0  0  1  0  0  0  0  0999 V2000
   13.5029  -17.0044   15.4749 N   0  0  0  0  0  0  0  0  0  0  0  0
   13.5561  -15.6024   15.6604 C   0  0  0  0  0  0  0  0  0  0  0  0
   13.9064  -14.8516   14.7125 O   0  0  0  0  0  0  0  0  0  0  0  0
   13.1998  -15.0245   16.9682 C   0  0  0  0  0  0  0  0  0  0  0  0
   12.8233  -16.1369   17.9101 C   0  0  2  0  0  0  0  0  0  0  0  0
   11.7189  -16.9125   17.3853 N   0  0  0  0  0  0  0  0  0  0  0  0
   12.3945  -15.5185   19.1834 C   0  0  0  0  0  0  0  0  0  0  0  0
   13.0966  -14.6221   19.7538 O   0  0  0  0  0  0  0  0  0  0  0  0
   11.1943  -15.8994   19.8097 N   0  0  0  0  0  0  0  0  0  0  0  0
   10.8165  -15.2830   21.1418 C   0  0  1  0  0  0  0  0  0  0  0  0
    9.4005  -14.9498   21.0083 C   0  0  0  0  0  0  0  0  0  0  0  0
    8.9496  -13.8712   20.1445 C   0  0  0  0  0  0  0  0  0  0  0  0
    9.5464  -12.8793   19.4160 C   0  0  0  0  0  0  0  0  0  0  0  0
    8.6391  -12.1788   18.7180 N   0  0  0  0  0  0  0  0  0  0  0  0
    7.4501  -12.7181   18.9930 C   0  0  0  0  0  0  0  0  0  0  0  0
    7.6080  -13.7338   19.8447 N   0  0  0  0  0  0  0  0  0  0  0  0
   11.2041  -16.3434   22.0882 C   0  0  0  0  0  0  0  0  0  0  0  0
   10.9729  -17.5527   21.6739 O   0  0  0  0  0  0  0  0  0  0  0  0
   14.0517  -16.2992   24.7904 O   0  0  0  0  0  0  0  0  0  0  0  0
   13.5522  -17.5083   24.3290 C   0  0  0  0  0  0  0  0  0  0  0  0
   12.0477  -17.4508   24.1419 C   0  0  2  0  0  0  0  0  0  0  0  0
   11.7826  -16.2319   23.3568 N   0  0  0  0  0  0  0  0  0  0  0  0
   11.3266  -17.3261   25.4250 C   0  0  0  0  0  0  0  0  0  0  0  0
   11.3650  -18.3143   26.4058 O   0  0  0  0  0  0  0  0  0  0  0  0
   10.6360  -16.3102   25.6958 O   0  0  0  0  0  0  0  0  0  0  0  0
  1  2  1  0
  2  4  1  0
  3  2  2  0
  4  5  1  0
  5  7  1  0
  5  6  1  6
  7  8  2  0
  9 10  1  0
  9  7  1  0
 10 17  1  0
 11 12  1  0
 10 11  1  6
 12 16  1  0
 13 12  2  0
 13 14  1  0
 14 15  1  0
 16 15  2  0
 17 18  2  0
 19 20  1  0
 21 20  1  1
 21 23  1  0
 22 17  1  0
 22 21  1  0
 23 25  2  0
 23 24  1  0
M  END
$$$$
