NHS.pdb
     RDKit          3D

 25 25  0  0  1  0  0  0  0  0999 V2000
   13.6534  -20.1262   16.0801 N   0  0  0  0  0  0  0  0  0  0  0  0
   12.5394  -19.9284   16.9301 C   0  0  0  0  0  0  0  0  0  0  0  0
   11.5275  -20.6708   16.8301 O   0  0  0  0  0  0  0  0  0  0  0  0
   12.5683  -18.8496   17.9334 C   0  0  0  0  0  0  0  0  0  0  0  0
   11.3975  -17.9322   17.7013 C   0  0  2  0  0  0  0  0  0  0  0  0
   11.5503  -17.1954   16.4641 N   0  0  0  0  0  0  0  0  0  0  0  0
   11.3602  -16.9636   18.8184 C   0  0  0  0  0  0  0  0  0  0  0  0
   12.1245  -15.9451   18.8377 O   0  0  0  0  0  0  0  0  0  0  0  0
   10.4780  -17.1337   19.9003 N   0  0  0  0  0  0  0  0  0  0  0  0
   10.3451  -16.0369   20.9378 C   0  0  1  0  0  0  0  0  0  0  0  0
    8.9433  -15.6314   20.8718 C   0  0  0  0  0  0  0  0  0  0  0  0
    8.4804  -14.6437   19.9111 C   0  0  0  0  0  0  0  0  0  0  0  0
    9.0508  -13.8896   18.9227 C   0  0  0  0  0  0  0  0  0  0  0  0
    8.1262  -13.1698   18.2685 N   0  0  0  0  0  0  0  0  0  0  0  0
    6.9519  -13.4582   18.8326 C   0  0  0  0  0  0  0  0  0  0  0  0
    7.1359  -14.3388   19.8188 N   0  0  0  0  0  0  0  0  0  0  0  0
   10.8264  -16.7112   22.1561 C   0  0  0  0  0  0  0  0  0  0  0  0
   10.3987  -17.9283   22.3087 O   0  0  0  0  0  0  0  0  0  0  0  0
   14.3204  -16.8446   23.8192 O   0  0  0  0  0  0  0  0  0  0  0  0
   13.3571  -16.6566   24.7995 C   0  0  0  0  0  0  0  0  0  0  0  0
   11.9848  -17.0882   24.3175 C   0  0  2  0  0  0  0  0  0  0  0  0
   11.6725  -16.2301   23.1606 N   0  0  0  0  0  0  0  0  0  0  0  0
   10.9376  -16.8703   25.3361 C   0  0  0  0  0  0  0  0  0  0  0  0
    9.8673  -16.0015   25.1371 O   0  0  0  0  0  0  0  0  0  0  0  0
   10.9630  -17.4656   26.4440 O   0  0  0  0  0  0  0  0  0  0  0  0
  1  2  1  0
  2  4  1  0
  3  2  2  0
  4  5  1  0
  5  7  1  0
  5  6  1  6
  7  8  2  0
  9 10  1  0
  9  7  1  0
 10 17  1  0
 11 12  1  0
 10 11  1  1
 12 16  1  0
 13 12  2  0
 13 14  1  0
 14 15  1  0
 16 15  2  0
 17 18  2  0
 19 20  1  0
 21 20  1  1
 21 23  1  0
 22 17  1  0
 22 21  1  0
 23 25  2  0
 23 24  1  0
M  END
$$$$
