NHS.pdb
     RDKit          3D

 25 25  0  0  1  0  0  0  0  0999 V2000
   14.7707  -13.9143   16.1375 N   0  0  0  0  0  0  0  0  0  0  0  0
   14.8288  -14.5886   17.3803 C   0  0  0  0  0  0  0  0  0  0  0  0
   15.7010  -15.4744   17.5794 O   0  0  0  0  0  0  0  0  0  0  0  0
   13.8640  -14.2497   18.4411 C   0  0  0  0  0  0  0  0  0  0  0  0
   13.3384  -15.5218   19.0510 C   0  0  2  0  0  0  0  0  0  0  0  0
   12.5286  -16.2582   18.1031 N   0  0  0  0  0  0  0  0  0  0  0  0
   12.4855  -15.1475   20.2000 C   0  0  0  0  0  0  0  0  0  0  0  0
   12.8299  -14.2251   21.0077 O   0  0  0  0  0  0  0  0  0  0  0  0
   11.2623  -15.7981   20.4411 N   0  0  0  0  0  0  0  0  0  0  0  0
   10.3955  -15.3564   21.6032 C   0  0  1  0  0  0  0  0  0  0  0  0
    9.0504  -15.2496   21.0435 C   0  0  0  0  0  0  0  0  0  0  0  0
    8.7340  -14.2899   19.9987 C   0  0  0  0  0  0  0  0  0  0  0  0
    8.5478  -12.9366   19.9292 C   0  0  0  0  0  0  0  0  0  0  0  0
    8.3413  -12.5410   18.6635 N   0  0  0  0  0  0  0  0  0  0  0  0
    8.3949  -13.6400   17.9089 C   0  0  0  0  0  0  0  0  0  0  0  0
    8.6292  -14.7013   18.6839 N   0  0  0  0  0  0  0  0  0  0  0  0
   10.6623  -16.4094   22.5986 C   0  0  0  0  0  0  0  0  0  0  0  0
   10.7546  -17.6091   22.1091 O   0  0  0  0  0  0  0  0  0  0  0  0
   13.3709  -17.2539   24.7207 O   0  0  0  0  0  0  0  0  0  0  0  0
   12.2777  -17.3445   25.5699 C   0  0  0  0  0  0  0  0  0  0  0  0
   10.9863  -17.5203   24.7932 C   0  0  2  0  0  0  0  0  0  0  0  0
   10.8305  -16.2992   23.9828 N   0  0  0  0  0  0  0  0  0  0  0  0
    9.8087  -17.6270   25.6785 C   0  0  0  0  0  0  0  0  0  0  0  0
    9.5807  -18.7336   26.4930 O   0  0  0  0  0  0  0  0  0  0  0  0
    8.9462  -16.7133   25.7394 O   0  0  0  0  0  0  0  0  0  0  0  0
  1  2  1  0
  2  4  1  0
  3  2  2  0
  4  5  1  0
  5  7  1  0
  5  6  1  6
  7  8  2  0
  9 10  1  0
  9  7  1  0
 10 17  1  0
 11 12  1  0
 10 11  1  6
 12 16  1  0
 13 12  2  0
 13 14  1  0
 14 15  1  0
 16 15  2  0
 17 18  2  0
 19 20  1  0
 21 20  1  1
 21 23  1  0
 22 17  1  0
 22 21  1  0
 23 25  2  0
 23 24  1  0
M  END
$$$$
