NHS.pdb
     RDKit          3D

 25 25  0  0  1  0  0  0  0  0999 V2000
    7.7980  -12.0568   10.4953 N   0  0  0  0  0  0  0  0  0  0  0  0
    7.0232  -13.1917   10.1573 C   0  0  0  0  0  0  0  0  0  0  0  0
    6.1383  -13.1109    9.2654 O   0  0  0  0  0  0  0  0  0  0  0  0
    7.2563  -14.4692   10.8536 C   0  0  0  0  0  0  0  0  0  0  0  0
    8.4012  -15.1876   10.1905 C   0  0  2  0  0  0  0  0  0  0  0  0
    7.9839  -15.7930    8.9431 N   0  0  0  0  0  0  0  0  0  0  0  0
    8.8437  -16.2628   11.1047 C   0  0  0  0  0  0  0  0  0  0  0  0
    8.3135  -17.4202   11.0717 O   0  0  0  0  0  0  0  0  0  0  0  0
    9.8673  -16.0442   12.0440 N   0  0  0  0  0  0  0  0  0  0  0  0
   10.2803  -17.1657   12.9760 C   0  0  1  0  0  0  0  0  0  0  0  0
   11.7307  -17.0365   13.0924 C   0  0  0  0  0  0  0  0  0  0  0  0
   12.5769  -18.1825   13.3813 C   0  0  0  0  0  0  0  0  0  0  0  0
   13.6019  -18.4560   14.2448 C   0  0  0  0  0  0  0  0  0  0  0  0
   13.9915  -19.7362   14.1433 N   0  0  0  0  0  0  0  0  0  0  0  0
   13.2167  -20.2960   13.2124 C   0  0  0  0  0  0  0  0  0  0  0  0
   12.3606  -19.3871   12.7402 N   0  0  0  0  0  0  0  0  0  0  0  0
    9.4517  -16.8946   14.1637 C   0  0  0  0  0  0  0  0  0  0  0  0
    9.4865  -15.6651   14.5814 O   0  0  0  0  0  0  0  0  0  0  0  0
    5.8429  -17.7801   14.9019 O   0  0  0  0  0  0  0  0  0  0  0  0
    6.5685  -18.0104   16.0616 C   0  0  0  0  0  0  0  0  0  0  0  0
    7.8829  -17.2527   16.0521 C   0  0  2  0  0  0  0  0  0  0  0  0
    8.6392  -17.7663   14.8960 N   0  0  0  0  0  0  0  0  0  0  0  0
    8.6864  -17.5069   17.2652 C   0  0  0  0  0  0  0  0  0  0  0  0
    8.2565  -17.1432   18.5391 O   0  0  0  0  0  0  0  0  0  0  0  0
    9.8096  -18.0701   17.2046 O   0  0  0  0  0  0  0  0  0  0  0  0
  1  2  1  0
  2  4  1  0
  3  2  2  0
  4  5  1  0
  5  7  1  0
  5  6  1  6
  7  8  2  0
  9 10  1  0
  9  7  1  0
 10 17  1  0
 11 12  1  0
 10 11  1  1
 12 16  1  0
 13 12  2  0
 13 14  1  0
 14 15  1  0
 16 15  2  0
 17 18  2  0
 19 20  1  0
 21 20  1  1
 21 23  1  0
 22 17  1  0
 22 21  1  0
 23 25  2  0
 23 24  1  0
M  END
$$$$
