NHS.pdb
     RDKit          3D

 25 25  0  0  1  0  0  0  0  0999 V2000
   12.8872  -19.2851   13.2793 N   0  0  0  0  0  0  0  0  0  0  0  0
   14.0314  -18.7989   13.9554 C   0  0  0  0  0  0  0  0  0  0  0  0
   15.1828  -19.1375   13.5750 O   0  0  0  0  0  0  0  0  0  0  0  0
   13.8699  -17.8942   15.1073 C   0  0  0  0  0  0  0  0  0  0  0  0
   13.2788  -16.5942   14.6310 C   0  0  2  0  0  0  0  0  0  0  0  0
   14.2297  -15.8519   13.8301 N   0  0  0  0  0  0  0  0  0  0  0  0
   12.9482  -15.7888   15.8267 C   0  0  0  0  0  0  0  0  0  0  0  0
   13.8191  -15.0483   16.3879 O   0  0  0  0  0  0  0  0  0  0  0  0
   11.6583  -15.8126   16.3866 N   0  0  0  0  0  0  0  0  0  0  0  0
   11.2995  -14.8292   17.4825 C   0  0  1  0  0  0  0  0  0  0  0  0
    9.8512  -14.6693   17.3783 C   0  0  0  0  0  0  0  0  0  0  0  0
    9.0866  -13.9704   18.3979 C   0  0  0  0  0  0  0  0  0  0  0  0
    9.3701  -13.3186   19.5665 C   0  0  0  0  0  0  0  0  0  0  0  0
    8.2644  -12.7742   20.0975 N   0  0  0  0  0  0  0  0  0  0  0  0
    7.2603  -13.0720   19.2708 C   0  0  0  0  0  0  0  0  0  0  0  0
    7.7257  -13.7876   18.2446 N   0  0  0  0  0  0  0  0  0  0  0  0
   11.8505  -15.4916   18.6776 C   0  0  0  0  0  0  0  0  0  0  0  0
   11.7634  -16.7877   18.6693 O   0  0  0  0  0  0  0  0  0  0  0  0
   14.5779  -14.0408   21.1678 O   0  0  0  0  0  0  0  0  0  0  0  0
   14.4358  -15.4151   21.0426 C   0  0  0  0  0  0  0  0  0  0  0  0
   12.9813  -15.8074   20.8633 C   0  0  2  0  0  0  0  0  0  0  0  0
   12.4504  -14.9264   19.8077 N   0  0  0  0  0  0  0  0  0  0  0  0
   12.1832  -15.5785   22.0850 C   0  0  0  0  0  0  0  0  0  0  0  0
   12.3951  -16.2903   23.2633 O   0  0  0  0  0  0  0  0  0  0  0  0
   11.2641  -14.7204   22.1195 O   0  0  0  0  0  0  0  0  0  0  0  0
  1  2  1  0
  2  4  1  0
  3  2  2  0
  4  5  1  0
  5  7  1  0
  5  6  1  6
  7  8  2  0
  9 10  1  0
  9  7  1  0
 10 17  1  0
 11 12  1  0
 10 11  1  1
 12 16  1  0
 13 12  2  0
 13 14  1  0
 14 15  1  0
 16 15  2  0
 17 18  2  0
 19 20  1  0
 21 20  1  1
 21 23  1  0
 22 17  1  0
 22 21  1  0
 23 25  2  0
 23 24  1  0
M  END
$$$$
