ISK.pdb
     RDKit          3D

 24 23  0  0  1  0  0  0  0  0999 V2000
   25.4682  -25.8191  -20.1872 C   0  0  0  0  0  0  0  0  0  0  0  0
   26.4825  -25.5195  -19.1332 C   0  0  0  0  0  0  0  0  0  0  0  0
   25.9363  -24.7518  -17.9716 C   0  0  2  0  0  0  0  0  0  0  0  0
   25.4009  -23.4098  -18.3968 C   0  0  0  0  0  0  0  0  0  0  0  0
   26.9288  -24.5369  -16.8605 C   0  0  2  0  0  0  0  0  0  0  0  0
   27.3641  -25.8170  -16.3478 N   0  0  0  0  0  0  0  0  0  0  0  0
   26.3820  -23.7022  -15.7668 C   0  0  0  0  0  0  0  0  0  0  0  0
   25.5475  -24.2211  -14.9852 O   0  0  0  0  0  0  0  0  0  0  0  0
   27.4232  -19.7627  -15.5910 O   0  0  0  0  0  0  0  0  0  0  0  0
   27.0627  -20.2899  -14.3302 C   0  0  0  0  0  0  0  0  0  0  0  0
   26.2099  -21.5369  -14.5900 C   0  0  2  0  0  0  0  0  0  0  0  0
   26.7955  -22.3522  -15.6132 N   0  0  0  0  0  0  0  0  0  0  0  0
   24.8196  -21.1282  -14.9118 C   0  0  0  0  0  0  0  0  0  0  0  0
   24.4931  -20.9356  -16.1114 O   0  0  0  0  0  0  0  0  0  0  0  0
   23.8121  -20.9357  -13.9368 N   0  0  0  0  0  0  0  0  0  0  0  0
   22.4606  -20.4595  -14.2623 C   0  0  1  0  0  0  0  0  0  0  0  0
   21.8199  -21.3460  -15.2971 C   0  0  0  0  0  0  0  0  0  0  0  0
   20.4518  -20.9342  -15.7083 C   0  0  0  0  0  0  0  0  0  0  0  0
   19.8771  -21.9602  -16.6685 C   0  0  0  0  0  0  0  0  0  0  0  0
   18.4798  -21.5942  -17.1045 C   0  0  0  0  0  0  0  0  0  0  0  0
   17.9253  -22.6189  -17.9501 N   0  0  0  0  0  0  0  0  0  0  0  0
   21.6548  -20.2414  -13.0635 C   0  0  0  0  0  0  0  0  0  0  0  0
   22.0228  -20.4880  -11.7638 O   0  0  0  0  0  0  0  0  0  0  0  0
   20.4805  -19.7720  -13.2286 O   0  0  0  0  0  0  0  0  0  0  0  0
  2  1  1  0
  3  4  1  6
  3  2  1  0
  3  5  1  0
  5  6  1  1
  7  5  1  0
  7  8  2  0
 10  9  1  0
 11 10  1  6
 11 12  1  0
 12  7  1  0
 13 11  1  0
 14 13  2  0
 15 13  1  0
 16 15  1  0
 16 17  1  6
 18 19  1  0
 18 17  1  0
 19 20  1  0
 20 21  1  0
 22 16  1  0
 23 22  1  0
 24 22  2  0
M  END
$$$$
