ISK.pdb
     RDKit          3D

 24 23  0  0  1  0  0  0  0  0999 V2000
   26.7903  -16.0636  -14.9396 C   0  0  0  0  0  0  0  0  0  0  0  0
   25.7772  -15.6406  -15.9517 C   0  0  0  0  0  0  0  0  0  0  0  0
   25.4729  -14.1765  -15.9248 C   0  0  2  0  0  0  0  0  0  0  0  0
   24.8629  -13.7614  -14.6117 C   0  0  0  0  0  0  0  0  0  0  0  0
   24.5649  -13.7209  -17.0355 C   0  0  2  0  0  0  0  0  0  0  0  0
   25.0394  -14.2503  -18.2947 N   0  0  0  0  0  0  0  0  0  0  0  0
   24.4524  -12.2463  -17.1056 C   0  0  0  0  0  0  0  0  0  0  0  0
   25.5105  -11.5731  -17.1687 O   0  0  0  0  0  0  0  0  0  0  0  0
   22.1001  -10.3559  -19.2968 O   0  0  0  0  0  0  0  0  0  0  0  0
   23.1262   -9.6848  -18.5938 C   0  0  0  0  0  0  0  0  0  0  0  0
   23.0856  -10.1889  -17.1467 C   0  0  2  0  0  0  0  0  0  0  0  0
   23.1785  -11.6185  -17.1009 N   0  0  0  0  0  0  0  0  0  0  0  0
   21.8648   -9.6745  -16.4768 C   0  0  0  0  0  0  0  0  0  0  0  0
   20.8836  -10.4427  -16.3036 O   0  0  0  0  0  0  0  0  0  0  0  0
   21.7264   -8.3462  -16.0089 N   0  0  0  0  0  0  0  0  0  0  0  0
   20.5145   -7.8529  -15.3400 C   0  0  1  0  0  0  0  0  0  0  0  0
   20.2371   -8.6460  -14.0905 C   0  0  0  0  0  0  0  0  0  0  0  0
   18.9994   -8.2536  -13.3663 C   0  0  0  0  0  0  0  0  0  0  0  0
   18.7949   -9.1689  -12.1724 C   0  0  0  0  0  0  0  0  0  0  0  0
   17.5097   -8.8582  -11.4457 C   0  0  0  0  0  0  0  0  0  0  0  0
   17.2250   -9.8683  -10.4601 N   0  0  0  0  0  0  0  0  0  0  0  0
   20.5474   -6.4051  -15.1481 C   0  0  0  0  0  0  0  0  0  0  0  0
   19.4943   -5.5920  -14.8088 O   0  0  0  0  0  0  0  0  0  0  0  0
   21.6697   -5.8215  -15.3107 O   0  0  0  0  0  0  0  0  0  0  0  0
  2  1  1  0
  3  4  1  1
  3  2  1  0
  3  5  1  0
  5  6  1  6
  7  5  1  0
  7  8  2  0
 10  9  1  0
 11 10  1  6
 11 12  1  0
 12  7  1  0
 13 11  1  0
 14 13  2  0
 15 13  1  0
 16 15  1  0
 16 17  1  1
 18 19  1  0
 18 17  1  0
 19 20  1  0
 20 21  1  0
 22 16  1  0
 23 22  1  0
 24 22  2  0
M  END
$$$$
