ISK.pdb
     RDKit          3D

 24 23  0  0  1  0  0  0  0  0999 V2000
   25.8031  -15.7317  -16.0604 C   0  0  0  0  0  0  0  0  0  0  0  0
   24.7523  -14.8942  -16.7118 C   0  0  0  0  0  0  0  0  0  0  0  0
   24.4790  -13.6078  -15.9993 C   0  0  2  0  0  0  0  0  0  0  0  0
   23.9862  -13.8455  -14.5961 C   0  0  0  0  0  0  0  0  0  0  0  0
   23.4922  -12.7166  -16.7048 C   0  0  2  0  0  0  0  0  0  0  0  0
   23.9158  -12.5152  -18.0727 N   0  0  0  0  0  0  0  0  0  0  0  0
   23.3168  -11.4146  -16.0222 C   0  0  0  0  0  0  0  0  0  0  0  0
   22.7229  -11.4003  -14.9160 O   0  0  0  0  0  0  0  0  0  0  0  0
   23.9670   -7.8711  -18.1027 O   0  0  0  0  0  0  0  0  0  0  0  0
   24.2437   -7.8171  -16.7177 C   0  0  0  0  0  0  0  0  0  0  0  0
   23.4492   -8.9480  -16.0546 C   0  0  2  0  0  0  0  0  0  0  0  0
   23.8101  -10.2194  -16.6096 N   0  0  0  0  0  0  0  0  0  0  0  0
   21.9962   -8.6665  -16.1700 C   0  0  0  0  0  0  0  0  0  0  0  0
   21.3456   -9.1546  -17.1298 O   0  0  0  0  0  0  0  0  0  0  0  0
   21.2759   -7.8667  -15.2513 N   0  0  0  0  0  0  0  0  0  0  0  0
   19.8851   -7.4467  -15.4710 C   0  0  1  0  0  0  0  0  0  0  0  0
   18.9306   -8.5426  -15.0769 C   0  0  0  0  0  0  0  0  0  0  0  0
   17.4927   -8.2101  -15.2568 C   0  0  0  0  0  0  0  0  0  0  0  0
   16.6384   -9.3867  -14.8202 C   0  0  0  0  0  0  0  0  0  0  0  0
   15.1702   -9.1242  -15.0480 C   0  0  0  0  0  0  0  0  0  0  0  0
   14.3853  -10.2768  -14.6900 N   0  0  0  0  0  0  0  0  0  0  0  0
   19.6046   -6.1473  -14.8652 C   0  0  0  0  0  0  0  0  0  0  0  0
   20.4113   -5.4452  -14.0041 O   0  0  0  0  0  0  0  0  0  0  0  0
   18.4933   -5.5952  -15.1597 O   0  0  0  0  0  0  0  0  0  0  0  0
  2  1  1  0
  3  4  1  1
  3  2  1  0
  3  5  1  0
  5  6  1  6
  7  5  1  0
  7  8  2  0
 10  9  1  0
 11 10  1  6
 11 12  1  0
 12  7  1  0
 13 11  1  0
 14 13  2  0
 15 13  1  0
 16 15  1  0
 16 17  1  1
 18 19  1  0
 18 17  1  0
 19 20  1  0
 20 21  1  0
 22 16  1  0
 23 22  1  0
 24 22  2  0
M  END
$$$$
