ISK.pdb
     RDKit          3D

 24 23  0  0  1  0  0  0  0  0999 V2000
   17.0641  -13.7221  -19.3568 C   0  0  0  0  0  0  0  0  0  0  0  0
   18.2567  -13.6848  -18.4590 C   0  0  0  0  0  0  0  0  0  0  0  0
   18.4308  -12.3841  -17.7414 C   0  0  2  0  0  0  0  0  0  0  0  0
   18.5755  -11.2352  -18.7044 C   0  0  0  0  0  0  0  0  0  0  0  0
   19.6009  -12.3607  -16.7948 C   0  0  2  0  0  0  0  0  0  0  0  0
   19.5149  -13.4880  -15.8932 N   0  0  0  0  0  0  0  0  0  0  0  0
   19.6860  -11.0950  -16.0314 C   0  0  0  0  0  0  0  0  0  0  0  0
   18.6539  -10.6856  -15.4450 O   0  0  0  0  0  0  0  0  0  0  0  0
   22.6123   -9.7992  -13.6338 O   0  0  0  0  0  0  0  0  0  0  0  0
   22.3977   -8.9041  -14.7063 C   0  0  0  0  0  0  0  0  0  0  0  0
   20.9748   -9.1496  -15.2208 C   0  0  2  0  0  0  0  0  0  0  0  0
   20.9056  -10.3701  -15.9693 N   0  0  0  0  0  0  0  0  0  0  0  0
   20.5213   -7.9731  -16.0044 C   0  0  0  0  0  0  0  0  0  0  0  0
   20.8505   -7.8711  -17.2143 O   0  0  0  0  0  0  0  0  0  0  0  0
   19.7246   -6.9331  -15.4694 N   0  0  0  0  0  0  0  0  0  0  0  0
   19.3428   -5.7390  -16.2359 C   0  0  1  0  0  0  0  0  0  0  0  0
   17.8790   -5.7786  -16.5869 C   0  0  0  0  0  0  0  0  0  0  0  0
   17.3965   -4.6144  -17.3758 C   0  0  0  0  0  0  0  0  0  0  0  0
   15.9165   -4.7773  -17.6726 C   0  0  0  0  0  0  0  0  0  0  0  0
   15.4144   -3.7051  -18.6078 C   0  0  0  0  0  0  0  0  0  0  0  0
   14.0740   -3.9972  -19.0446 N   0  0  0  0  0  0  0  0  0  0  0  0
   19.7796   -4.5076  -15.5826 C   0  0  0  0  0  0  0  0  0  0  0  0
   20.3039   -4.3828  -14.3198 O   0  0  0  0  0  0  0  0  0  0  0  0
   19.6665   -3.4245  -16.2465 O   0  0  0  0  0  0  0  0  0  0  0  0
  2  1  1  0
  3  4  1  6
  3  2  1  0
  3  5  1  0
  5  6  1  1
  7  5  1  0
  7  8  2  0
 10  9  1  0
 11 10  1  6
 11 12  1  0
 12  7  1  0
 13 11  1  0
 14 13  2  0
 15 13  1  0
 16 15  1  0
 16 17  1  1
 18 19  1  0
 18 17  1  0
 19 20  1  0
 20 21  1  0
 22 16  1  0
 23 22  1  0
 24 22  2  0
M  END
$$$$
