ISK.pdb
     RDKit          3D

 24 23  0  0  1  0  0  0  0  0999 V2000
   15.2061  -10.2929  -21.7232 C   0  0  0  0  0  0  0  0  0  0  0  0
   15.8295  -10.5731  -20.3956 C   0  0  0  0  0  0  0  0  0  0  0  0
   16.5637   -9.4062  -19.8158 C   0  0  2  0  0  0  0  0  0  0  0  0
   17.7243   -8.9953  -20.6833 C   0  0  0  0  0  0  0  0  0  0  0  0
   17.0737   -9.6385  -18.4188 C   0  0  2  0  0  0  0  0  0  0  0  0
   15.9736  -10.0175  -17.5602 N   0  0  0  0  0  0  0  0  0  0  0  0
   17.7740   -8.4560  -17.8682 C   0  0  0  0  0  0  0  0  0  0  0  0
   18.8357   -8.0828  -18.4253 O   0  0  0  0  0  0  0  0  0  0  0  0
   16.4867   -6.6149  -14.3432 O   0  0  0  0  0  0  0  0  0  0  0  0
   17.0153   -5.7740  -15.3487 C   0  0  0  0  0  0  0  0  0  0  0  0
   17.9479   -6.6326  -16.2105 C   0  0  2  0  0  0  0  0  0  0  0  0
   17.2524   -7.7684  -16.7403 N   0  0  0  0  0  0  0  0  0  0  0  0
   19.1435   -7.0143  -15.4177 C   0  0  0  0  0  0  0  0  0  0  0  0
   19.1804   -8.1397  -14.8565 O   0  0  0  0  0  0  0  0  0  0  0  0
   20.2718   -6.1776  -15.2461 N   0  0  0  0  0  0  0  0  0  0  0  0
   21.4951   -6.6109  -14.5568 C   0  0  1  0  0  0  0  0  0  0  0  0
   22.1679   -7.7228  -15.3172 C   0  0  0  0  0  0  0  0  0  0  0  0
   23.4203   -8.2312  -14.6981 C   0  0  0  0  0  0  0  0  0  0  0  0
   24.0094   -9.3289  -15.5658 C   0  0  0  0  0  0  0  0  0  0  0  0
   25.2969   -9.8642  -14.9895 C   0  0  0  0  0  0  0  0  0  0  0  0
   25.9195  -10.7861  -15.9034 N   0  0  0  0  0  0  0  0  0  0  0  0
   22.3649   -5.4844  -14.2278 C   0  0  0  0  0  0  0  0  0  0  0  0
   23.3155   -5.4354  -13.2381 O   0  0  0  0  0  0  0  0  0  0  0  0
   22.2371   -4.4261  -14.9279 O   0  0  0  0  0  0  0  0  0  0  0  0
  2  1  1  0
  3  4  1  6
  3  2  1  0
  3  5  1  0
  5  6  1  1
  7  5  1  0
  7  8  2  0
 10  9  1  0
 11 10  1  1
 11 12  1  0
 12  7  1  0
 13 11  1  0
 14 13  2  0
 15 13  1  0
 16 15  1  0
 16 17  1  6
 18 19  1  0
 18 17  1  0
 19 20  1  0
 20 21  1  0
 22 16  1  0
 23 22  1  0
 24 22  2  0
M  END
$$$$
