ISK.pdb
     RDKit          3D

 24 23  0  0  1  0  0  0  0  0999 V2000
   19.1020  -16.4949  -17.7959 C   0  0  0  0  0  0  0  0  0  0  0  0
   19.6752  -15.2147  -18.3081 C   0  0  0  0  0  0  0  0  0  0  0  0
   19.4942  -14.0580  -17.3774 C   0  0  2  0  0  0  0  0  0  0  0  0
   18.0375  -13.7867  -17.1075 C   0  0  0  0  0  0  0  0  0  0  0  0
   20.1340  -12.7826  -17.8566 C   0  0  2  0  0  0  0  0  0  0  0  0
   21.5080  -13.0411  -18.2261 N   0  0  0  0  0  0  0  0  0  0  0  0
   20.0660  -11.7015  -16.8474 C   0  0  0  0  0  0  0  0  0  0  0  0
   18.9420  -11.4004  -16.3756 O   0  0  0  0  0  0  0  0  0  0  0  0
   22.3482   -8.5451  -14.0012 O   0  0  0  0  0  0  0  0  0  0  0  0
   22.5353   -9.5887  -14.9357 C   0  0  0  0  0  0  0  0  0  0  0  0
   21.1556   -9.9357  -15.5066 C   0  0  2  0  0  0  0  0  0  0  0  0
   21.2449  -11.0284  -16.4299 N   0  0  0  0  0  0  0  0  0  0  0  0
   20.5515   -8.7233  -16.1138 C   0  0  0  0  0  0  0  0  0  0  0  0
   20.8700   -8.3936  -17.2854 O   0  0  0  0  0  0  0  0  0  0  0  0
   19.6190   -7.8929  -15.4478 N   0  0  0  0  0  0  0  0  0  0  0  0
   19.0967   -6.6473  -16.0264 C   0  0  1  0  0  0  0  0  0  0  0  0
   17.5917   -6.6706  -16.0671 C   0  0  0  0  0  0  0  0  0  0  0  0
   16.9654   -5.4465  -16.6326 C   0  0  0  0  0  0  0  0  0  0  0  0
   15.4568   -5.6137  -16.6653 C   0  0  0  0  0  0  0  0  0  0  0  0
   14.7786   -4.4289  -17.3077 C   0  0  0  0  0  0  0  0  0  0  0  0
   13.3835   -4.7023  -17.5352 N   0  0  0  0  0  0  0  0  0  0  0  0
   19.6708   -5.4655  -15.3878 C   0  0  0  0  0  0  0  0  0  0  0  0
   19.7591   -4.2011  -15.9160 O   0  0  0  0  0  0  0  0  0  0  0  0
   20.1449   -5.6109  -14.2128 O   0  0  0  0  0  0  0  0  0  0  0  0
  2  1  1  0
  3  4  1  6
  3  2  1  0
  3  5  1  0
  5  6  1  1
  7  5  1  0
  7  8  2  0
 10  9  1  0
 11 10  1  6
 11 12  1  0
 12  7  1  0
 13 11  1  0
 14 13  2  0
 15 13  1  0
 16 15  1  0
 16 17  1  1
 18 19  1  0
 18 17  1  0
 19 20  1  0
 20 21  1  0
 22 16  1  0
 23 22  1  0
 24 22  2  0
M  END
$$$$
