YFC.pdb
     RDKit          3D

 30 31  0  0  1  0  0  0  0  0999 V2000
   10.8482  -24.6644   20.7985 O   0  0  0  0  0  0  0  0  0  0  0  0
   10.7379  -23.3531   21.2730 C   0  0  0  0  0  0  0  0  0  0  0  0
   11.7692  -22.4429   21.0960 C   0  0  0  0  0  0  0  0  0  0  0  0
   11.7029  -21.1414   21.5472 C   0  0  0  0  0  0  0  0  0  0  0  0
   10.5749  -20.6992   22.2058 C   0  0  0  0  0  0  0  0  0  0  0  0
   10.4541  -19.3258   22.7051 C   0  0  0  0  0  0  0  0  0  0  0  0
    9.3734  -18.5298   22.0255 C   0  0  2  0  0  0  0  0  0  0  0  0
    9.5394  -18.4740   20.5944 N   0  0  0  0  0  0  0  0  0  0  0  0
    9.4562  -17.1383   22.5403 C   0  0  0  0  0  0  0  0  0  0  0  0
   10.1410  -16.3127   21.8811 O   0  0  0  0  0  0  0  0  0  0  0  0
    9.5489  -21.6048   22.3818 C   0  0  0  0  0  0  0  0  0  0  0  0
    9.6128  -22.9048   21.9322 C   0  0  0  0  0  0  0  0  0  0  0  0
    8.8000  -16.7275   23.7252 N   0  0  0  0  0  0  0  0  0  0  0  0
    8.7936  -15.3005   24.1646 C   0  0  1  0  0  0  0  0  0  0  0  0
    7.3891  -14.8903   24.4259 C   0  0  0  0  0  0  0  0  0  0  0  0
    7.1482  -13.6095   25.0690 C   0  0  0  0  0  0  0  0  0  0  0  0
    6.4234  -13.4946   26.2346 C   0  0  0  0  0  0  0  0  0  0  0  0
    6.1926  -12.2732   26.8356 C   0  0  0  0  0  0  0  0  0  0  0  0
    6.6859  -11.1167   26.2824 C   0  0  0  0  0  0  0  0  0  0  0  0
    7.4135  -11.1922   25.1207 C   0  0  0  0  0  0  0  0  0  0  0  0
    7.6361  -12.4114   24.5328 C   0  0  0  0  0  0  0  0  0  0  0  0
    9.7422  -15.2175   25.2714 C   0  0  0  0  0  0  0  0  0  0  0  0
   10.2744  -14.1231   25.6051 O   0  0  0  0  0  0  0  0  0  0  0  0
   10.1095  -16.3521   26.0318 N   0  0  0  0  0  0  0  0  0  0  0  0
   10.8745  -16.1642   27.2796 C   0  0  1  0  0  0  0  0  0  0  0  0
    9.9769  -15.3570   28.2112 C   0  0  0  0  0  0  0  0  0  0  0  0
   10.9331  -14.2559   29.2539 S   0  0  0  0  0  0  0  0  0  0  0  0
   11.2394  -17.4304   27.8931 C   0  0  0  0  0  0  0  0  0  0  0  0
   10.6110  -18.4767   27.6496 O   0  0  0  0  0  0  0  0  0  0  0  0
   12.3118  -17.4615   28.7663 O   0  0  0  0  0  0  0  0  0  0  0  0
  2  1  1  0
  3  2  2  0
  4  3  1  0
  5  4  2  0
  5 11  1  0
  6  5  1  0
  7  8  1  6
  7  6  1  0
  9  7  1  0
  9 10  2  0
 11 12  2  0
 12  2  1  0
 13  9  1  0
 14 13  1  0
 14 22  1  0
 14 15  1  1
 16 15  1  0
 16 17  2  0
 18 17  1  0
 19 18  2  0
 20 21  2  0
 20 19  1  0
 21 16  1  0
 22 23  2  0
 22 24  1  0
 24 25  1  0
 25 28  1  0
 26 27  1  0
 25 26  1  1
 28 29  2  0
 28 30  1  0
M  END
$$$$
