YFC.pdb
     RDKit          3D

 30 31  0  0  1  0  0  0  0  0999 V2000
   12.8839  -20.4247   16.3024 O   0  0  0  0  0  0  0  0  0  0  0  0
   12.5994  -19.5383   17.3466 C   0  0  0  0  0  0  0  0  0  0  0  0
   13.2437  -19.6489   18.5697 C   0  0  0  0  0  0  0  0  0  0  0  0
   12.9940  -18.7975   19.6254 C   0  0  0  0  0  0  0  0  0  0  0  0
   12.0692  -17.7840   19.4869 C   0  0  0  0  0  0  0  0  0  0  0  0
   11.7672  -16.8523   20.5781 C   0  0  0  0  0  0  0  0  0  0  0  0
   10.9859  -17.4742   21.7034 C   0  0  2  0  0  0  0  0  0  0  0  0
    9.7403  -18.0520   21.2635 N   0  0  0  0  0  0  0  0  0  0  0  0
   10.6612  -16.3929   22.6696 C   0  0  0  0  0  0  0  0  0  0  0  0
   11.5703  -15.5675   22.9479 O   0  0  0  0  0  0  0  0  0  0  0  0
   11.4282  -17.6741   18.2700 C   0  0  0  0  0  0  0  0  0  0  0  0
   11.6758  -18.5230   17.2144 C   0  0  0  0  0  0  0  0  0  0  0  0
    9.3856  -16.2705   23.2706 N   0  0  0  0  0  0  0  0  0  0  0  0
    9.1056  -15.2411   24.3152 C   0  0  1  0  0  0  0  0  0  0  0  0
    7.7508  -14.6783   24.0765 C   0  0  0  0  0  0  0  0  0  0  0  0
    7.2395  -13.6825   25.0033 C   0  0  0  0  0  0  0  0  0  0  0  0
    7.8149  -12.4386   25.1401 C   0  0  0  0  0  0  0  0  0  0  0  0
    7.3278  -11.5005   26.0283 C   0  0  0  0  0  0  0  0  0  0  0  0
    6.2376  -11.7816   26.8152 C   0  0  0  0  0  0  0  0  0  0  0  0
    5.6375  -13.0115   26.7061 C   0  0  0  0  0  0  0  0  0  0  0  0
    6.1307  -13.9355   25.8202 C   0  0  0  0  0  0  0  0  0  0  0  0
    9.3534  -15.8935   25.5978 C   0  0  0  0  0  0  0  0  0  0  0  0
    8.9605  -15.3861   26.6843 O   0  0  0  0  0  0  0  0  0  0  0  0
   10.0375  -17.1278   25.6921 N   0  0  0  0  0  0  0  0  0  0  0  0
   10.1202  -17.8055   27.0003 C   0  0  1  0  0  0  0  0  0  0  0  0
    8.7955  -18.5381   27.1841 C   0  0  0  0  0  0  0  0  0  0  0  0
    7.7276  -17.6841   28.3436 S   0  0  0  0  0  0  0  0  0  0  0  0
   11.2325  -18.7391   27.0631 C   0  0  0  0  0  0  0  0  0  0  0  0
   11.9742  -18.9347   26.0830 O   0  0  0  0  0  0  0  0  0  0  0  0
   11.4627  -19.4206   28.2446 O   0  0  0  0  0  0  0  0  0  0  0  0
  2  1  1  0
  3  2  2  0
  4  3  1  0
  5  4  2  0
  5 11  1  0
  6  5  1  0
  7  8  1  6
  7  6  1  0
  9  7  1  0
  9 10  2  0
 11 12  2  0
 12  2  1  0
 13  9  1  0
 14 13  1  0
 14 22  1  0
 14 15  1  1
 16 15  1  0
 16 17  2  0
 18 17  1  0
 19 18  2  0
 20 21  2  0
 20 19  1  0
 21 16  1  0
 22 23  2  0
 22 24  1  0
 24 25  1  0
 25 28  1  0
 26 27  1  0
 25 26  1  6
 28 29  2  0
 28 30  1  0
M  END
$$$$
