YFC.pdb
     RDKit          3D

 30 31  0  0  1  0  0  0  0  0999 V2000
   12.0334  -24.0564   19.7563 O   0  0  0  0  0  0  0  0  0  0  0  0
   11.8387  -22.7989   20.3372 C   0  0  0  0  0  0  0  0  0  0  0  0
   10.7027  -22.5285   21.0853 C   0  0  0  0  0  0  0  0  0  0  0  0
   10.4705  -21.3037   21.6753 C   0  0  0  0  0  0  0  0  0  0  0  0
   11.3904  -20.2865   21.5317 C   0  0  0  0  0  0  0  0  0  0  0  0
   11.1912  -18.9666   22.1384 C   0  0  0  0  0  0  0  0  0  0  0  0
   10.0983  -18.1626   21.4884 C   0  0  2  0  0  0  0  0  0  0  0  0
   10.3725  -17.8673   20.1040 N   0  0  0  0  0  0  0  0  0  0  0  0
   10.0081  -16.8682   22.2127 C   0  0  0  0  0  0  0  0  0  0  0  0
   10.7172  -15.9156   21.7946 O   0  0  0  0  0  0  0  0  0  0  0  0
   12.5206  -20.5557   20.7874 C   0  0  0  0  0  0  0  0  0  0  0  0
   12.7547  -21.7776   20.1973 C   0  0  0  0  0  0  0  0  0  0  0  0
    9.1649  -16.6838   23.3345 N   0  0  0  0  0  0  0  0  0  0  0  0
    9.0411  -15.3603   24.0143 C   0  0  1  0  0  0  0  0  0  0  0  0
    7.6030  -15.0956   24.2806 C   0  0  0  0  0  0  0  0  0  0  0  0
    7.2382  -13.8652   24.9626 C   0  0  0  0  0  0  0  0  0  0  0  0
    6.4020  -13.8491   26.0569 C   0  0  0  0  0  0  0  0  0  0  0  0
    6.0542  -12.6751   26.6950 C   0  0  0  0  0  0  0  0  0  0  0  0
    6.5382  -11.4682   26.2526 C   0  0  0  0  0  0  0  0  0  0  0  0
    7.3749  -11.4451   25.1644 C   0  0  0  0  0  0  0  0  0  0  0  0
    7.7132  -12.6180   24.5386 C   0  0  0  0  0  0  0  0  0  0  0  0
    9.9453  -15.4116   25.1596 C   0  0  0  0  0  0  0  0  0  0  0  0
   11.1094  -14.9275   25.1050 O   0  0  0  0  0  0  0  0  0  0  0  0
    9.5657  -15.9973   26.3898 N   0  0  0  0  0  0  0  0  0  0  0  0
   10.5551  -16.0814   27.4814 C   0  0  1  0  0  0  0  0  0  0  0  0
   10.1428  -15.0345   28.5106 C   0  0  0  0  0  0  0  0  0  0  0  0
   10.0441  -13.3996   27.7817 S   0  0  0  0  0  0  0  0  0  0  0  0
   10.5924  -17.4031   28.0849 C   0  0  0  0  0  0  0  0  0  0  0  0
   11.3725  -17.6714   29.0168 O   0  0  0  0  0  0  0  0  0  0  0  0
    9.7365  -18.3778   27.6044 O   0  0  0  0  0  0  0  0  0  0  0  0
  2  1  1  0
  3  2  2  0
  4  3  1  0
  5  4  2  0
  5 11  1  0
  6  5  1  0
  7  8  1  6
  7  6  1  0
  9  7  1  0
  9 10  2  0
 11 12  2  0
 12  2  1  0
 13  9  1  0
 14 13  1  0
 14 22  1  0
 14 15  1  1
 16 15  1  0
 16 17  2  0
 18 17  1  0
 19 18  2  0
 20 21  2  0
 20 19  1  0
 21 16  1  0
 22 23  2  0
 22 24  1  0
 24 25  1  0
 25 28  1  0
 26 27  1  0
 25 26  1  1
 28 29  2  0
 28 30  1  0
M  END
$$$$
