YFC.pdb
     RDKit          3D

 30 31  0  0  1  0  0  0  0  0999 V2000
    7.5643  -21.2168   16.6075 O   0  0  0  0  0  0  0  0  0  0  0  0
    7.9820  -20.5014   17.7347 C   0  0  0  0  0  0  0  0  0  0  0  0
    8.8058  -21.0869   18.6844 C   0  0  0  0  0  0  0  0  0  0  0  0
    9.2412  -20.4190   19.8097 C   0  0  0  0  0  0  0  0  0  0  0  0
    8.8563  -19.1124   20.0252 C   0  0  0  0  0  0  0  0  0  0  0  0
    9.2913  -18.3582   21.2049 C   0  0  0  0  0  0  0  0  0  0  0  0
    8.6404  -17.0076   21.3311 C   0  0  2  0  0  0  0  0  0  0  0  0
    9.1207  -16.0646   20.3519 N   0  0  0  0  0  0  0  0  0  0  0  0
    8.9841  -16.4725   22.6741 C   0  0  0  0  0  0  0  0  0  0  0  0
   10.0571  -15.8235   22.7859 O   0  0  0  0  0  0  0  0  0  0  0  0
    8.0367  -18.5301   19.0803 C   0  0  0  0  0  0  0  0  0  0  0  0
    7.6007  -19.1948   17.9559 C   0  0  0  0  0  0  0  0  0  0  0  0
    8.1549  -16.6695   23.8041 N   0  0  0  0  0  0  0  0  0  0  0  0
    8.4927  -16.0871   25.1367 C   0  0  1  0  0  0  0  0  0  0  0  0
    7.2594  -15.5044   25.7270 C   0  0  0  0  0  0  0  0  0  0  0  0
    7.2301  -14.0784   26.0062 C   0  0  0  0  0  0  0  0  0  0  0  0
    6.0566  -13.3978   26.2441 C   0  0  0  0  0  0  0  0  0  0  0  0
    6.0364  -12.0415   26.5014 C   0  0  0  0  0  0  0  0  0  0  0  0
    7.2030  -11.3169   26.5289 C   0  0  0  0  0  0  0  0  0  0  0  0
    8.3925  -11.9616   26.2965 C   0  0  0  0  0  0  0  0  0  0  0  0
    8.3999  -13.3096   26.0419 C   0  0  0  0  0  0  0  0  0  0  0  0
    9.1646  -17.1493   25.8799 C   0  0  0  0  0  0  0  0  0  0  0  0
    8.5780  -18.2297   26.1647 O   0  0  0  0  0  0  0  0  0  0  0  0
   10.5057  -17.0297   26.3130 N   0  0  0  0  0  0  0  0  0  0  0  0
   11.0872  -18.0941   27.1535 C   0  0  1  0  0  0  0  0  0  0  0  0
   12.5884  -18.0742   26.8866 C   0  0  0  0  0  0  0  0  0  0  0  0
   12.9479  -18.2628   25.1404 S   0  0  0  0  0  0  0  0  0  0  0  0
   10.8173  -17.8840   28.5662 C   0  0  0  0  0  0  0  0  0  0  0  0
   10.1145  -16.9355   28.9606 O   0  0  0  0  0  0  0  0  0  0  0  0
   11.3594  -18.7647   29.4849 O   0  0  0  0  0  0  0  0  0  0  0  0
  2  1  1  0
  3  2  2  0
  4  3  1  0
  5  4  2  0
  5 11  1  0
  6  5  1  0
  7  8  1  6
  7  6  1  0
  9  7  1  0
  9 10  2  0
 11 12  2  0
 12  2  1  0
 13  9  1  0
 14 13  1  0
 14 22  1  0
 14 15  1  1
 16 15  1  0
 16 17  2  0
 18 17  1  0
 19 18  2  0
 20 21  2  0
 20 19  1  0
 21 16  1  0
 22 23  2  0
 22 24  1  0
 24 25  1  0
 25 28  1  0
 26 27  1  0
 25 26  1  1
 28 29  2  0
 28 30  1  0
M  END
$$$$
