YFC.pdb
     RDKit          3D

 30 31  0  0  1  0  0  0  0  0999 V2000
    7.4043  -22.9296   17.8272 O   0  0  0  0  0  0  0  0  0  0  0  0
    7.9455  -21.9385   18.6528 C   0  0  0  0  0  0  0  0  0  0  0  0
    7.3304  -21.5922   19.8465 C   0  0  0  0  0  0  0  0  0  0  0  0
    7.8291  -20.6218   20.6901 C   0  0  0  0  0  0  0  0  0  0  0  0
    8.9872  -19.9511   20.3573 C   0  0  0  0  0  0  0  0  0  0  0  0
    9.5587  -18.9115   21.2190 C   0  0  0  0  0  0  0  0  0  0  0  0
    9.2934  -17.5125   20.7334 C   0  0  2  0  0  0  0  0  0  0  0  0
   10.2040  -17.1020   19.6937 N   0  0  0  0  0  0  0  0  0  0  0  0
    9.4896  -16.5971   21.8874 C   0  0  0  0  0  0  0  0  0  0  0  0
   10.6521  -16.1600   22.0937 O   0  0  0  0  0  0  0  0  0  0  0  0
    9.5990  -20.2958   19.1696 C   0  0  0  0  0  0  0  0  0  0  0  0
    9.1031  -21.2643   18.3257 C   0  0  0  0  0  0  0  0  0  0  0  0
    8.4273  -16.2132   22.7404 N   0  0  0  0  0  0  0  0  0  0  0  0
    8.6089  -15.1826   23.8053 C   0  0  1  0  0  0  0  0  0  0  0  0
    7.3335  -14.4366   23.9669 C   0  0  0  0  0  0  0  0  0  0  0  0
    7.1949  -13.5356   25.0987 C   0  0  0  0  0  0  0  0  0  0  0  0
    6.5000  -13.8824   26.2362 C   0  0  0  0  0  0  0  0  0  0  0  0
    6.3664  -13.0180   27.3044 C   0  0  0  0  0  0  0  0  0  0  0  0
    6.9308  -11.7662   27.2665 C   0  0  0  0  0  0  0  0  0  0  0  0
    7.6313  -11.3855   26.1489 C   0  0  0  0  0  0  0  0  0  0  0  0
    7.7570  -12.2531   25.0938 C   0  0  0  0  0  0  0  0  0  0  0  0
    9.1306  -15.8951   24.9681 C   0  0  0  0  0  0  0  0  0  0  0  0
    8.5969  -16.9598   25.3851 O   0  0  0  0  0  0  0  0  0  0  0  0
   10.2618  -15.4376   25.6832 N   0  0  0  0  0  0  0  0  0  0  0  0
   10.7937  -16.2583   26.7883 C   0  0  1  0  0  0  0  0  0  0  0  0
   12.2668  -15.8877   26.9223 C   0  0  0  0  0  0  0  0  0  0  0  0
   12.4723  -14.1685   27.3870 S   0  0  0  0  0  0  0  0  0  0  0  0
   10.0909  -16.0153   28.0371 C   0  0  0  0  0  0  0  0  0  0  0  0
    9.2122  -15.1387   28.1297 O   0  0  0  0  0  0  0  0  0  0  0  0
   10.4141  -16.7821   29.1421 O   0  0  0  0  0  0  0  0  0  0  0  0
  2  1  1  0
  3  2  2  0
  4  3  1  0
  5  4  2  0
  5 11  1  0
  6  5  1  0
  7  8  1  6
  7  6  1  0
  9  7  1  0
  9 10  2  0
 11 12  2  0
 12  2  1  0
 13  9  1  0
 14 13  1  0
 14 22  1  0
 14 15  1  1
 16 15  1  0
 16 17  2  0
 18 17  1  0
 19 18  2  0
 20 21  2  0
 20 19  1  0
 21 16  1  0
 22 23  2  0
 22 24  1  0
 24 25  1  0
 25 28  1  0
 26 27  1  0
 25 26  1  1
 28 29  2  0
 28 30  1  0
M  END
$$$$
