YFC.pdb
     RDKit          3D

 30 31  0  0  1  0  0  0  0  0999 V2000
    6.0447  -26.5522   18.1240 O   0  0  0  0  0  0  0  0  0  0  0  0
    6.5473  -25.2781   18.4081 C   0  0  0  0  0  0  0  0  0  0  0  0
    7.8602  -24.9474   18.1075 C   0  0  0  0  0  0  0  0  0  0  0  0
    8.3965  -23.7043   18.3700 C   0  0  0  0  0  0  0  0  0  0  0  0
    7.6168  -22.7293   18.9559 C   0  0  0  0  0  0  0  0  0  0  0  0
    8.1386  -21.3923   19.2557 C   0  0  0  0  0  0  0  0  0  0  0  0
    7.5562  -20.3092   18.3891 C   0  0  2  0  0  0  0  0  0  0  0  0
    7.8973  -20.4662   16.9971 N   0  0  0  0  0  0  0  0  0  0  0  0
    8.1294  -19.0171   18.8474 C   0  0  0  0  0  0  0  0  0  0  0  0
    9.2031  -18.6336   18.3133 O   0  0  0  0  0  0  0  0  0  0  0  0
    6.3107  -23.0585   19.2549 C   0  0  0  0  0  0  0  0  0  0  0  0
    5.7729  -24.2989   18.9937 C   0  0  0  0  0  0  0  0  0  0  0  0
    7.5131  -18.2253   19.8458 N   0  0  0  0  0  0  0  0  0  0  0  0
    8.0426  -16.8801   20.2186 C   0  0  1  0  0  0  0  0  0  0  0  0
    6.8991  -15.9405   20.3550 C   0  0  0  0  0  0  0  0  0  0  0  0
    7.1528  -14.6098   20.8811 C   0  0  0  0  0  0  0  0  0  0  0  0
    7.1468  -14.3374   22.2313 C   0  0  0  0  0  0  0  0  0  0  0  0
    7.3815  -13.0689   22.7231 C   0  0  0  0  0  0  0  0  0  0  0  0
    7.6325  -12.0226   21.8693 C   0  0  0  0  0  0  0  0  0  0  0  0
    7.6468  -12.2562   20.5165 C   0  0  0  0  0  0  0  0  0  0  0  0
    7.4120  -13.5209   20.0398 C   0  0  0  0  0  0  0  0  0  0  0  0
    8.8898  -17.0927   21.3887 C   0  0  0  0  0  0  0  0  0  0  0  0
    8.7415  -18.0969   22.1383 O   0  0  0  0  0  0  0  0  0  0  0  0
    9.9231  -16.1933   21.7406 N   0  0  0  0  0  0  0  0  0  0  0  0
   11.0439  -16.6755   22.5705 C   0  0  1  0  0  0  0  0  0  0  0  0
   11.6892  -17.8168   21.7920 C   0  0  0  0  0  0  0  0  0  0  0  0
   13.1817  -18.3996   22.5963 S   0  0  0  0  0  0  0  0  0  0  0  0
   12.0151  -15.6281   22.8394 C   0  0  0  0  0  0  0  0  0  0  0  0
   12.5479  -15.5059   23.9576 O   0  0  0  0  0  0  0  0  0  0  0  0
   12.3477  -14.7524   21.8216 O   0  0  0  0  0  0  0  0  0  0  0  0
  2  1  1  0
  3  2  2  0
  4  3  1  0
  5  4  2  0
  5 11  1  0
  6  5  1  0
  7  8  1  6
  7  6  1  0
  9  7  1  0
  9 10  2  0
 11 12  2  0
 12  2  1  0
 13  9  1  0
 14 13  1  0
 14 22  1  0
 14 15  1  1
 16 15  1  0
 16 17  2  0
 18 17  1  0
 19 18  2  0
 20 21  2  0
 20 19  1  0
 21 16  1  0
 22 23  2  0
 22 24  1  0
 24 25  1  0
 25 28  1  0
 26 27  1  0
 25 26  1  6
 28 29  2  0
 28 30  1  0
M  END
$$$$
