YFC.pdb
     RDKit          3D

 30 31  0  0  1  0  0  0  0  0999 V2000
   13.6664  -22.3615   18.2201 O   0  0  0  0  0  0  0  0  0  0  0  0
   13.2896  -21.2644   19.0019 C   0  0  0  0  0  0  0  0  0  0  0  0
   13.4146  -19.9702   18.5196 C   0  0  0  0  0  0  0  0  0  0  0  0
   13.0557  -18.8605   19.2557 C   0  0  0  0  0  0  0  0  0  0  0  0
   12.5481  -19.0151   20.5285 C   0  0  0  0  0  0  0  0  0  0  0  0
   12.1518  -17.8686   21.3521 C   0  0  0  0  0  0  0  0  0  0  0  0
   10.6896  -17.5293   21.2500 C   0  0  2  0  0  0  0  0  0  0  0  0
   10.3010  -17.1360   19.9184 N   0  0  0  0  0  0  0  0  0  0  0  0
   10.4378  -16.3735   22.1494 C   0  0  0  0  0  0  0  0  0  0  0  0
   11.2283  -15.3962   22.0780 O   0  0  0  0  0  0  0  0  0  0  0  0
   12.4239  -20.3028   21.0082 C   0  0  0  0  0  0  0  0  0  0  0  0
   12.7815  -21.4123   20.2752 C   0  0  0  0  0  0  0  0  0  0  0  0
    9.3571  -16.3445   23.0630 N   0  0  0  0  0  0  0  0  0  0  0  0
    9.1330  -15.1857   23.9773 C   0  0  1  0  0  0  0  0  0  0  0  0
    7.6860  -15.1158   24.3099 C   0  0  0  0  0  0  0  0  0  0  0  0
    7.2058  -13.9844   25.0853 C   0  0  0  0  0  0  0  0  0  0  0  0
    7.6098  -12.6923   24.8318 C   0  0  0  0  0  0  0  0  0  0  0  0
    7.1546  -11.6234   25.5778 C   0  0  0  0  0  0  0  0  0  0  0  0
    6.2712  -11.8172   26.6117 C   0  0  0  0  0  0  0  0  0  0  0  0
    5.8459  -13.0917   26.8937 C   0  0  0  0  0  0  0  0  0  0  0  0
    6.3053  -14.1457   26.1455 C   0  0  0  0  0  0  0  0  0  0  0  0
   10.0754  -15.3563   25.0794 C   0  0  0  0  0  0  0  0  0  0  0  0
   11.2793  -14.9909   24.9822 O   0  0  0  0  0  0  0  0  0  0  0  0
    9.6911  -15.9309   26.3134 N   0  0  0  0  0  0  0  0  0  0  0  0
   10.6585  -15.9549   27.4273 C   0  0  1  0  0  0  0  0  0  0  0  0
   10.9198  -14.4982   27.7951 C   0  0  0  0  0  0  0  0  0  0  0  0
    9.6566  -13.8618   28.8965 S   0  0  0  0  0  0  0  0  0  0  0  0
   10.1520  -16.6880   28.5756 C   0  0  0  0  0  0  0  0  0  0  0  0
    8.9781  -17.0990   28.6193 O   0  0  0  0  0  0  0  0  0  0  0  0
   11.0033  -16.9288   29.6390 O   0  0  0  0  0  0  0  0  0  0  0  0
  2  1  1  0
  3  2  2  0
  4  3  1  0
  5  4  2  0
  5 11  1  0
  6  5  1  0
  7  8  1  6
  7  6  1  0
  9  7  1  0
  9 10  2  0
 11 12  2  0
 12  2  1  0
 13  9  1  0
 14 13  1  0
 14 22  1  0
 14 15  1  1
 16 15  1  0
 16 17  2  0
 18 17  1  0
 19 18  2  0
 20 21  2  0
 20 19  1  0
 21 16  1  0
 22 23  2  0
 22 24  1  0
 24 25  1  0
 25 28  1  0
 26 27  1  0
 25 26  1  1
 28 29  2  0
 28 30  1  0
M  END
$$$$
