WFF.pdb
     RDKit          3D

 37 40  0  0  1  0  0  0  0  0999 V2000
    7.0135  -19.9428   20.1240 N   0  0  0  0  0  0  0  0  0  0  0  0
    7.1646  -19.7371   21.5421 C   0  0  1  0  0  0  0  0  0  0  0  0
    8.0944  -20.7607   22.1933 C   0  0  0  0  0  0  0  0  0  0  0  0
    7.4460  -22.0917   22.1178 C   0  0  0  0  0  0  0  0  0  0  0  0
    7.8905  -23.1843   21.3585 C   0  0  0  0  0  0  0  0  0  0  0  0
    7.0328  -24.1949   21.5184 N   0  0  0  0  0  0  0  0  0  0  0  0
    6.0235  -23.8567   22.3465 C   0  0  0  0  0  0  0  0  0  0  0  0
    4.9218  -24.5412   22.8182 C   0  0  0  0  0  0  0  0  0  0  0  0
    4.0672  -23.8985   23.6799 C   0  0  0  0  0  0  0  0  0  0  0  0
    4.3023  -22.6000   24.0664 C   0  0  0  0  0  0  0  0  0  0  0  0
    5.4081  -21.9208   23.5893 C   0  0  0  0  0  0  0  0  0  0  0  0
    6.2887  -22.5364   22.7196 C   0  0  0  0  0  0  0  0  0  0  0  0
    7.6950  -18.4064   21.8983 C   0  0  0  0  0  0  0  0  0  0  0  0
    8.4276  -17.7962   21.1001 O   0  0  0  0  0  0  0  0  0  0  0  0
    7.3636  -17.8406   23.1394 N   0  0  0  0  0  0  0  0  0  0  0  0
    7.8306  -16.4791   23.4531 C   0  0  1  0  0  0  0  0  0  0  0  0
    6.8194  -15.9022   24.3872 C   0  0  0  0  0  0  0  0  0  0  0  0
    7.0126  -14.5053   24.8012 C   0  0  0  0  0  0  0  0  0  0  0  0
    7.5083  -13.5439   23.9561 C   0  0  0  0  0  0  0  0  0  0  0  0
    7.6841  -12.2495   24.3986 C   0  0  0  0  0  0  0  0  0  0  0  0
    7.3806  -11.8634   25.6732 C   0  0  0  0  0  0  0  0  0  0  0  0
    6.8854  -12.8115   26.5257 C   0  0  0  0  0  0  0  0  0  0  0  0
    6.7089  -14.0933   26.0956 C   0  0  0  0  0  0  0  0  0  0  0  0
    9.1830  -16.5994   24.0080 C   0  0  0  0  0  0  0  0  0  0  0  0
   10.1464  -16.7570   23.1690 O   0  0  0  0  0  0  0  0  0  0  0  0
    9.5622  -16.5552   25.3706 N   0  0  0  0  0  0  0  0  0  0  0  0
   10.9825  -16.6343   25.7297 C   0  0  1  0  0  0  0  0  0  0  0  0
   11.3808  -15.2838   26.3245 C   0  0  0  0  0  0  0  0  0  0  0  0
   10.6589  -14.9764   27.5614 C   0  0  0  0  0  0  0  0  0  0  0  0
    9.7012  -13.9891   27.6085 C   0  0  0  0  0  0  0  0  0  0  0  0
    9.0522  -13.7552   28.8074 C   0  0  0  0  0  0  0  0  0  0  0  0
    9.3248  -14.4696   29.9572 C   0  0  0  0  0  0  0  0  0  0  0  0
   10.2901  -15.4672   29.9173 C   0  0  0  0  0  0  0  0  0  0  0  0
   10.9321  -15.6941   28.7191 C   0  0  0  0  0  0  0  0  0  0  0  0
   11.1719  -17.6973   26.7080 C   0  0  0  0  0  0  0  0  0  0  0  0
   10.1766  -18.2781   27.1958 O   0  0  0  0  0  0  0  0  0  0  0  0
   12.4225  -18.0820   27.1103 O   0  0  0  0  0  0  0  0  0  0  0  0
  2  1  1  6
  3  2  1  0
  4  5  2  0
  4  3  1  0
  6  5  1  0
  7 12  2  0
  7  6  1  0
  8  7  1  0
  9 10  1  0
  9  8  2  0
 10 11  2  0
 11 12  1  0
 12  4  1  0
 13  2  1  0
 14 13  2  0
 15 13  1  0
 16 24  1  0
 16 15  1  0
 16 17  1  1
 18 17  1  0
 19 18  2  0
 20 19  1  0
 21 20  2  0
 21 22  1  0
 22 23  2  0
 23 18  1  0
 24 26  1  0
 25 24  2  0
 26 27  1  0
 27 28  1  1
 28 29  1  0
 29 30  2  0
 29 34  1  0
 30 31  1  0
 31 32  2  0
 33 32  1  0
 34 33  2  0
 35 37  1  0
 35 27  1  0
 36 35  2  0
M  END
$$$$
