WFF.pdb
     RDKit          3D

 37 40  0  0  1  0  0  0  0  0999 V2000
    9.3862  -15.7128   18.9214 N   0  0  0  0  0  0  0  0  0  0  0  0
   10.0117  -16.5137   19.9430 C   0  0  1  0  0  0  0  0  0  0  0  0
   11.4901  -16.7820   19.6629 C   0  0  0  0  0  0  0  0  0  0  0  0
   11.5967  -18.0527   18.9067 C   0  0  0  0  0  0  0  0  0  0  0  0
   11.1951  -18.2586   17.5785 C   0  0  0  0  0  0  0  0  0  0  0  0
   11.4172  -19.5352   17.2565 N   0  0  0  0  0  0  0  0  0  0  0  0
   11.9501  -20.2175   18.2905 C   0  0  0  0  0  0  0  0  0  0  0  0
   12.3533  -21.5280   18.4472 C   0  0  0  0  0  0  0  0  0  0  0  0
   12.8786  -21.9149   19.6557 C   0  0  0  0  0  0  0  0  0  0  0  0
   13.0015  -21.0168   20.6896 C   0  0  0  0  0  0  0  0  0  0  0  0
   12.5950  -19.7055   20.5251 C   0  0  0  0  0  0  0  0  0  0  0  0
   12.0608  -19.2818   19.3226 C   0  0  0  0  0  0  0  0  0  0  0  0
    9.9444  -15.9180   21.2919 C   0  0  0  0  0  0  0  0  0  0  0  0
   10.2922  -14.7371   21.4671 O   0  0  0  0  0  0  0  0  0  0  0  0
    9.4846  -16.6942   22.3674 N   0  0  0  0  0  0  0  0  0  0  0  0
    9.2329  -16.0427   23.6644 C   0  0  1  0  0  0  0  0  0  0  0  0
    7.7722  -15.7373   23.6949 C   0  0  0  0  0  0  0  0  0  0  0  0
    7.3469  -14.5869   24.5047 C   0  0  0  0  0  0  0  0  0  0  0  0
    7.7249  -13.2988   24.2180 C   0  0  0  0  0  0  0  0  0  0  0  0
    7.3099  -12.2553   25.0188 C   0  0  0  0  0  0  0  0  0  0  0  0
    6.5176  -12.4436   26.1154 C   0  0  0  0  0  0  0  0  0  0  0  0
    6.1332  -13.7223   26.4122 C   0  0  0  0  0  0  0  0  0  0  0  0
    6.5396  -14.7592   25.6254 C   0  0  0  0  0  0  0  0  0  0  0  0
    9.6913  -16.9629   24.7104 C   0  0  0  0  0  0  0  0  0  0  0  0
   10.0168  -18.1520   24.3403 O   0  0  0  0  0  0  0  0  0  0  0  0
    9.8278  -16.6960   26.0934 N   0  0  0  0  0  0  0  0  0  0  0  0
   10.4704  -17.6883   26.9622 C   0  0  1  0  0  0  0  0  0  0  0  0
   10.5923  -17.0684   28.3540 C   0  0  0  0  0  0  0  0  0  0  0  0
   10.3999  -15.6164   28.3446 C   0  0  0  0  0  0  0  0  0  0  0  0
   11.3513  -14.7684   27.8252 C   0  0  0  0  0  0  0  0  0  0  0  0
   11.1028  -13.4078   27.8412 C   0  0  0  0  0  0  0  0  0  0  0  0
    9.9417  -12.8657   28.3559 C   0  0  0  0  0  0  0  0  0  0  0  0
    8.9772  -13.7152   28.8818 C   0  0  0  0  0  0  0  0  0  0  0  0
    9.2325  -15.0694   28.8621 C   0  0  0  0  0  0  0  0  0  0  0  0
    9.6470  -18.8894   27.0101 C   0  0  0  0  0  0  0  0  0  0  0  0
    8.5295  -18.9001   26.4469 O   0  0  0  0  0  0  0  0  0  0  0  0
   10.0685  -20.0177   27.6603 O   0  0  0  0  0  0  0  0  0  0  0  0
  2  1  1  6
  3  2  1  0
  4  5  2  0
  4  3  1  0
  6  5  1  0
  7 12  2  0
  7  6  1  0
  8  7  1  0
  9 10  1  0
  9  8  2  0
 10 11  2  0
 11 12  1  0
 12  4  1  0
 13  2  1  0
 14 13  2  0
 15 13  1  0
 16 24  1  0
 16 15  1  0
 16 17  1  1
 18 17  1  0
 19 18  2  0
 20 19  1  0
 21 20  2  0
 21 22  1  0
 22 23  2  0
 23 18  1  0
 24 26  1  0
 25 24  2  0
 26 27  1  0
 27 28  1  1
 28 29  1  0
 29 30  2  0
 29 34  1  0
 30 31  1  0
 31 32  2  0
 33 32  1  0
 34 33  2  0
 35 37  1  0
 35 27  1  0
 36 35  2  0
M  END
$$$$
