WFF.pdb
     RDKit          3D

 37 40  0  0  1  0  0  0  0  0999 V2000
    9.0088  -28.4920   16.5209 N   0  0  0  0  0  0  0  0  0  0  0  0
    8.7850  -27.8666   17.7996 C   0  0  1  0  0  0  0  0  0  0  0  0
    8.9355  -28.8390   18.9692 C   0  0  0  0  0  0  0  0  0  0  0  0
    7.7881  -29.7774   18.9438 C   0  0  0  0  0  0  0  0  0  0  0  0
    7.1663  -30.2898   17.7955 C   0  0  0  0  0  0  0  0  0  0  0  0
    6.1527  -31.0738   18.1703 N   0  0  0  0  0  0  0  0  0  0  0  0
    6.0444  -31.1288   19.5135 C   0  0  0  0  0  0  0  0  0  0  0  0
    5.1830  -31.7925   20.3632 C   0  0  0  0  0  0  0  0  0  0  0  0
    5.3501  -31.6430   21.7181 C   0  0  0  0  0  0  0  0  0  0  0  0
    6.3543  -30.8491   22.2201 C   0  0  0  0  0  0  0  0  0  0  0  0
    7.2132  -30.1871   21.3623 C   0  0  0  0  0  0  0  0  0  0  0  0
    7.0734  -30.3139   19.9930 C   0  0  0  0  0  0  0  0  0  0  0  0
    9.6933  -26.7366   18.0776 C   0  0  0  0  0  0  0  0  0  0  0  0
   10.9036  -26.8325   17.8092 O   0  0  0  0  0  0  0  0  0  0  0  0
    9.1781  -25.5596   18.6430 N   0  0  0  0  0  0  0  0  0  0  0  0
   10.0945  -24.4423   18.9295 C   0  0  1  0  0  0  0  0  0  0  0  0
    9.3134  -23.1951   18.6801 C   0  0  0  0  0  0  0  0  0  0  0  0
    9.9337  -21.9260   19.0859 C   0  0  0  0  0  0  0  0  0  0  0  0
   10.8937  -21.2967   18.3334 C   0  0  0  0  0  0  0  0  0  0  0  0
   11.4551  -20.1136   18.7664 C   0  0  0  0  0  0  0  0  0  0  0  0
   11.0932  -19.5177   19.9411 C   0  0  0  0  0  0  0  0  0  0  0  0
   10.1371  -20.1341   20.7005 C   0  0  0  0  0  0  0  0  0  0  0  0
    9.5776  -21.3041   20.2792 C   0  0  0  0  0  0  0  0  0  0  0  0
   10.5657  -24.6080   20.3085 C   0  0  0  0  0  0  0  0  0  0  0  0
    9.6982  -24.9878   21.1803 O   0  0  0  0  0  0  0  0  0  0  0  0
   11.8768  -24.4055   20.8011 N   0  0  0  0  0  0  0  0  0  0  0  0
   12.1409  -24.5502   22.2370 C   0  0  1  0  0  0  0  0  0  0  0  0
   12.8420  -25.8929   22.4411 C   0  0  0  0  0  0  0  0  0  0  0  0
   14.0230  -26.0489   21.5887 C   0  0  0  0  0  0  0  0  0  0  0  0
   13.9760  -26.7760   20.4211 C   0  0  0  0  0  0  0  0  0  0  0  0
   15.1261  -26.8773   19.6594 C   0  0  0  0  0  0  0  0  0  0  0  0
   16.3177  -26.2805   20.0211 C   0  0  0  0  0  0  0  0  0  0  0  0
   16.3727  -25.5455   21.1981 C   0  0  0  0  0  0  0  0  0  0  0  0
   15.2225  -25.4493   21.9513 C   0  0  0  0  0  0  0  0  0  0  0  0
   12.9959  -23.4568   22.6803 C   0  0  0  0  0  0  0  0  0  0  0  0
   13.2975  -23.3546   23.8906 O   0  0  0  0  0  0  0  0  0  0  0  0
   13.4836  -22.5302   21.7988 O   0  0  0  0  0  0  0  0  0  0  0  0
  2  1  1  6
  3  2  1  0
  4  5  2  0
  4  3  1  0
  6  5  1  0
  7 12  2  0
  7  6  1  0
  8  7  1  0
  9 10  1  0
  9  8  2  0
 10 11  2  0
 11 12  1  0
 12  4  1  0
 13  2  1  0
 14 13  2  0
 15 13  1  0
 16 24  1  0
 16 15  1  0
 16 17  1  1
 18 17  1  0
 19 18  2  0
 20 19  1  0
 21 20  2  0
 21 22  1  0
 22 23  2  0
 23 18  1  0
 24 26  1  0
 25 24  2  0
 26 27  1  0
 27 28  1  6
 28 29  1  0
 29 30  2  0
 29 34  1  0
 30 31  1  0
 31 32  2  0
 33 32  1  0
 34 33  2  0
 35 37  1  0
 35 27  1  0
 36 35  2  0
M  END
$$$$
