WFF.pdb
     RDKit          3D

 37 40  0  0  1  0  0  0  0  0999 V2000
    7.6127  -20.9655   26.6916 N   0  0  0  0  0  0  0  0  0  0  0  0
    8.1681  -19.6884   27.0615 C   0  0  1  0  0  0  0  0  0  0  0  0
    9.6901  -19.7213   27.1976 C   0  0  0  0  0  0  0  0  0  0  0  0
   10.0898  -18.6993   28.1943 C   0  0  0  0  0  0  0  0  0  0  0  0
   10.1178  -18.8708   29.5863 C   0  0  0  0  0  0  0  0  0  0  0  0
   10.4975  -17.7226   30.1522 N   0  0  0  0  0  0  0  0  0  0  0  0
   10.7325  -16.7717   29.2251 C   0  0  0  0  0  0  0  0  0  0  0  0
   11.1427  -15.4566   29.3070 C   0  0  0  0  0  0  0  0  0  0  0  0
   11.3016  -14.7433   28.1443 C   0  0  0  0  0  0  0  0  0  0  0  0
   11.0578  -15.3253   26.9226 C   0  0  0  0  0  0  0  0  0  0  0  0
   10.6468  -16.6434   26.8487 C   0  0  0  0  0  0  0  0  0  0  0  0
   10.4756  -17.3908   27.9989 C   0  0  0  0  0  0  0  0  0  0  0  0
    7.8582  -18.6050   26.1080 C   0  0  0  0  0  0  0  0  0  0  0  0
    7.6884  -18.8670   24.9044 O   0  0  0  0  0  0  0  0  0  0  0  0
    7.7564  -17.2843   26.5727 N   0  0  0  0  0  0  0  0  0  0  0  0
    7.3407  -16.2259   25.6363 C   0  0  1  0  0  0  0  0  0  0  0  0
    7.0613  -15.0221   26.4734 C   0  0  0  0  0  0  0  0  0  0  0  0
    6.7872  -13.7643   25.7645 C   0  0  0  0  0  0  0  0  0  0  0  0
    6.1234  -13.7199   24.5639 C   0  0  0  0  0  0  0  0  0  0  0  0
    5.9040  -12.5137   23.9320 C   0  0  0  0  0  0  0  0  0  0  0  0
    6.3259  -11.3248   24.4560 C   0  0  0  0  0  0  0  0  0  0  0  0
    6.9883  -11.3547   25.6524 C   0  0  0  0  0  0  0  0  0  0  0  0
    7.2091  -12.5433   26.2829 C   0  0  0  0  0  0  0  0  0  0  0  0
    8.4220  -16.0588   24.6596 C   0  0  0  0  0  0  0  0  0  0  0  0
    9.6274  -16.1484   25.1021 O   0  0  0  0  0  0  0  0  0  0  0  0
    8.2988  -15.8153   23.2710 N   0  0  0  0  0  0  0  0  0  0  0  0
    9.4328  -16.0960   22.3834 C   0  0  1  0  0  0  0  0  0  0  0  0
    8.9304  -15.9731   20.9451 C   0  0  0  0  0  0  0  0  0  0  0  0
    8.3505  -14.6587   20.6596 C   0  0  0  0  0  0  0  0  0  0  0  0
    7.7746  -14.3761   19.4420 C   0  0  0  0  0  0  0  0  0  0  0  0
    7.2391  -13.1167   19.2410 C   0  0  0  0  0  0  0  0  0  0  0  0
    7.2584  -12.1326   20.2096 C   0  0  0  0  0  0  0  0  0  0  0  0
    7.8380  -12.4105   21.4406 C   0  0  0  0  0  0  0  0  0  0  0  0
    8.3692  -13.6676   21.6328 C   0  0  0  0  0  0  0  0  0  0  0  0
   10.4920  -15.1282   22.6372 C   0  0  0  0  0  0  0  0  0  0  0  0
   10.2796  -14.1596   23.4006 O   0  0  0  0  0  0  0  0  0  0  0  0
   11.7258  -15.2528   22.0578 O   0  0  0  0  0  0  0  0  0  0  0  0
  2  1  1  6
  3  2  1  0
  4  5  2  0
  4  3  1  0
  6  5  1  0
  7 12  2  0
  7  6  1  0
  8  7  1  0
  9 10  1  0
  9  8  2  0
 10 11  2  0
 11 12  1  0
 12  4  1  0
 13  2  1  0
 14 13  2  0
 15 13  1  0
 16 24  1  0
 16 15  1  0
 16 17  1  1
 18 17  1  0
 19 18  2  0
 20 19  1  0
 21 20  2  0
 21 22  1  0
 22 23  2  0
 23 18  1  0
 24 26  1  0
 25 24  2  0
 26 27  1  0
 27 28  1  6
 28 29  1  0
 29 30  2  0
 29 34  1  0
 30 31  1  0
 31 32  2  0
 33 32  1  0
 34 33  2  0
 35 37  1  0
 35 27  1  0
 36 35  2  0
M  END
$$$$
