WFF.pdb
     RDKit          3D

 37 40  0  0  1  0  0  0  0  0999 V2000
    6.2958  -18.7630   25.2638 N   0  0  0  0  0  0  0  0  0  0  0  0
    6.8596  -17.6024   24.6222 C   0  0  1  0  0  0  0  0  0  0  0  0
    7.6236  -16.7018   25.5925 C   0  0  0  0  0  0  0  0  0  0  0  0
    6.7636  -15.5406   25.9239 C   0  0  0  0  0  0  0  0  0  0  0  0
    5.4692  -15.5992   26.4615 C   0  0  0  0  0  0  0  0  0  0  0  0
    5.0023  -14.3551   26.5918 N   0  0  0  0  0  0  0  0  0  0  0  0
    5.9053  -13.4449   26.1737 C   0  0  0  0  0  0  0  0  0  0  0  0
    5.8963  -12.0660   26.1161 C   0  0  0  0  0  0  0  0  0  0  0  0
    7.0085  -11.4203   25.6345 C   0  0  0  0  0  0  0  0  0  0  0  0
    8.1096  -12.1307   25.2178 C   0  0  0  0  0  0  0  0  0  0  0  0
    8.1109  -13.5120   25.2782 C   0  0  0  0  0  0  0  0  0  0  0  0
    7.0082  -14.1948   25.7565 C   0  0  0  0  0  0  0  0  0  0  0  0
    7.7951  -17.9226   23.5262 C   0  0  0  0  0  0  0  0  0  0  0  0
    8.4117  -19.0024   23.5320 O   0  0  0  0  0  0  0  0  0  0  0  0
    7.9782  -17.0011   22.4832 N   0  0  0  0  0  0  0  0  0  0  0  0
    8.9710  -17.2940   21.4352 C   0  0  1  0  0  0  0  0  0  0  0  0
    8.5319  -16.5334   20.2283 C   0  0  0  0  0  0  0  0  0  0  0  0
    8.2805  -15.0956   20.3996 C   0  0  0  0  0  0  0  0  0  0  0  0
    7.0694  -14.5993   20.8132 C   0  0  0  0  0  0  0  0  0  0  0  0
    6.8807  -13.2393   20.9444 C   0  0  0  0  0  0  0  0  0  0  0  0
    7.8673  -12.3336   20.6762 C   0  0  0  0  0  0  0  0  0  0  0  0
    9.0794  -12.8147   20.2636 C   0  0  0  0  0  0  0  0  0  0  0  0
    9.2735  -14.1578   20.1313 C   0  0  0  0  0  0  0  0  0  0  0  0
   10.2854  -16.9097   21.9604 C   0  0  0  0  0  0  0  0  0  0  0  0
   11.2734  -16.9337   21.1358 O   0  0  0  0  0  0  0  0  0  0  0  0
   10.6011  -16.5034   23.2787 N   0  0  0  0  0  0  0  0  0  0  0  0
   11.9943  -16.2074   23.6308 C   0  0  1  0  0  0  0  0  0  0  0  0
   11.9894  -14.9548   24.5067 C   0  0  0  0  0  0  0  0  0  0  0  0
   11.2003  -15.1233   25.7291 C   0  0  0  0  0  0  0  0  0  0  0  0
   11.7731  -15.5672   26.8992 C   0  0  0  0  0  0  0  0  0  0  0  0
   10.9717  -15.6971   28.0191 C   0  0  0  0  0  0  0  0  0  0  0  0
    9.6231  -15.4007   28.0121 C   0  0  0  0  0  0  0  0  0  0  0  0
    9.0382  -14.9524   26.8351 C   0  0  0  0  0  0  0  0  0  0  0  0
    9.8433  -14.8256   25.7238 C   0  0  0  0  0  0  0  0  0  0  0  0
   12.5554  -17.3368   24.3606 C   0  0  0  0  0  0  0  0  0  0  0  0
   13.7389  -17.2901   24.7646 O   0  0  0  0  0  0  0  0  0  0  0  0
   11.8140  -18.4579   24.6195 O   0  0  0  0  0  0  0  0  0  0  0  0
  2  1  1  1
  3  2  1  0
  4  5  2  0
  4  3  1  0
  6  5  1  0
  7 12  2  0
  7  6  1  0
  8  7  1  0
  9 10  1  0
  9  8  2  0
 10 11  2  0
 11 12  1  0
 12  4  1  0
 13  2  1  0
 14 13  2  0
 15 13  1  0
 16 24  1  0
 16 15  1  0
 16 17  1  6
 18 17  1  0
 19 18  2  0
 20 19  1  0
 21 20  2  0
 21 22  1  0
 22 23  2  0
 23 18  1  0
 24 26  1  0
 25 24  2  0
 26 27  1  0
 27 28  1  1
 28 29  1  0
 29 30  2  0
 29 34  1  0
 30 31  1  0
 31 32  2  0
 33 32  1  0
 34 33  2  0
 35 37  1  0
 35 27  1  0
 36 35  2  0
M  END
$$$$
