WFF.pdb
     RDKit          3D

 37 40  0  0  1  0  0  0  0  0999 V2000
   10.5340  -18.1918   19.3225 N   0  0  0  0  0  0  0  0  0  0  0  0
    9.6852  -18.4301   20.4623 C   0  0  1  0  0  0  0  0  0  0  0  0
   10.0307  -19.7246   21.1978 C   0  0  0  0  0  0  0  0  0  0  0  0
    9.9259  -20.8478   20.2359 C   0  0  0  0  0  0  0  0  0  0  0  0
    8.7697  -21.2348   19.5419 C   0  0  0  0  0  0  0  0  0  0  0  0
    9.0554  -22.3045   18.7957 N   0  0  0  0  0  0  0  0  0  0  0  0
   10.3447  -22.6734   18.9385 C   0  0  0  0  0  0  0  0  0  0  0  0
   11.1020  -23.6862   18.3859 C   0  0  0  0  0  0  0  0  0  0  0  0
   12.4251  -23.7867   18.7398 C   0  0  0  0  0  0  0  0  0  0  0  0
   12.9861  -22.8975   19.6260 C   0  0  0  0  0  0  0  0  0  0  0  0
   12.2209  -21.8855   20.1756 C   0  0  0  0  0  0  0  0  0  0  0  0
   10.8856  -21.7553   19.8427 C   0  0  0  0  0  0  0  0  0  0  0  0
    9.7263  -17.3536   21.4715 C   0  0  0  0  0  0  0  0  0  0  0  0
   10.7660  -16.6901   21.6294 O   0  0  0  0  0  0  0  0  0  0  0  0
    8.5852  -17.0881   22.2447 N   0  0  0  0  0  0  0  0  0  0  0  0
    8.6406  -16.0224   23.2601 C   0  0  1  0  0  0  0  0  0  0  0  0
    7.2505  -15.4910   23.3753 C   0  0  0  0  0  0  0  0  0  0  0  0
    7.0151  -14.4491   24.3848 C   0  0  0  0  0  0  0  0  0  0  0  0
    6.3171  -14.6839   25.5431 C   0  0  0  0  0  0  0  0  0  0  0  0
    6.1113  -13.6671   26.4520 C   0  0  0  0  0  0  0  0  0  0  0  0
    6.5812  -12.4001   26.2527 C   0  0  0  0  0  0  0  0  0  0  0  0
    7.2789  -12.1525   25.1026 C   0  0  0  0  0  0  0  0  0  0  0  0
    7.4862  -13.1525   24.1992 C   0  0  0  0  0  0  0  0  0  0  0  0
    9.1753  -16.6187   24.4888 C   0  0  0  0  0  0  0  0  0  0  0  0
    8.8366  -17.8342   24.7432 O   0  0  0  0  0  0  0  0  0  0  0  0
   10.0352  -16.0143   25.4363 N   0  0  0  0  0  0  0  0  0  0  0  0
   11.0326  -16.8330   26.1345 C   0  0  1  0  0  0  0  0  0  0  0  0
   11.7802  -15.9173   27.1035 C   0  0  0  0  0  0  0  0  0  0  0  0
   10.8795  -15.0711   27.8898 C   0  0  0  0  0  0  0  0  0  0  0  0
   10.7078  -15.2653   29.2415 C   0  0  0  0  0  0  0  0  0  0  0  0
    9.8474  -14.4254   29.9253 C   0  0  0  0  0  0  0  0  0  0  0  0
    9.1546  -13.4020   29.3094 C   0  0  0  0  0  0  0  0  0  0  0  0
    9.3227  -13.2002   27.9457 C   0  0  0  0  0  0  0  0  0  0  0  0
   10.1816  -14.0412   27.2717 C   0  0  0  0  0  0  0  0  0  0  0  0
   10.3551  -17.8988   26.8612 C   0  0  0  0  0  0  0  0  0  0  0  0
   11.0250  -18.7267   27.5184 O   0  0  0  0  0  0  0  0  0  0  0  0
    8.9917  -18.0185   26.8447 O   0  0  0  0  0  0  0  0  0  0  0  0
  2  1  1  6
  3  2  1  0
  4  5  2  0
  4  3  1  0
  6  5  1  0
  7 12  2  0
  7  6  1  0
  8  7  1  0
  9 10  1  0
  9  8  2  0
 10 11  2  0
 11 12  1  0
 12  4  1  0
 13  2  1  0
 14 13  2  0
 15 13  1  0
 16 24  1  0
 16 15  1  0
 16 17  1  1
 18 17  1  0
 19 18  2  0
 20 19  1  0
 21 20  2  0
 21 22  1  0
 22 23  2  0
 23 18  1  0
 24 26  1  0
 25 24  2  0
 26 27  1  0
 27 28  1  1
 28 29  1  0
 29 30  2  0
 29 34  1  0
 30 31  1  0
 31 32  2  0
 33 32  1  0
 34 33  2  0
 35 37  1  0
 35 27  1  0
 36 35  2  0
M  END
$$$$
