WFF.pdb
     RDKit          3D

 37 40  0  0  1  0  0  0  0  0999 V2000
    6.2511  -19.3078   22.7260 N   0  0  0  0  0  0  0  0  0  0  0  0
    6.6665  -17.9968   23.1562 C   0  0  1  0  0  0  0  0  0  0  0  0
    6.3826  -17.7414   24.6361 C   0  0  0  0  0  0  0  0  0  0  0  0
    6.2844  -16.2770   24.8446 C   0  0  0  0  0  0  0  0  0  0  0  0
    5.2824  -15.4366   24.3370 C   0  0  0  0  0  0  0  0  0  0  0  0
    5.5478  -14.1813   24.7065 N   0  0  0  0  0  0  0  0  0  0  0  0
    6.6770  -14.1133   25.4408 C   0  0  0  0  0  0  0  0  0  0  0  0
    7.3471  -13.0688   26.0447 C   0  0  0  0  0  0  0  0  0  0  0  0
    8.4950  -13.3420   26.7473 C   0  0  0  0  0  0  0  0  0  0  0  0
    8.9689  -14.6288   26.8485 C   0  0  0  0  0  0  0  0  0  0  0  0
    8.2921  -15.6700   26.2404 C   0  0  0  0  0  0  0  0  0  0  0  0
    7.1341  -15.4312   25.5243 C   0  0  0  0  0  0  0  0  0  0  0  0
    8.1047  -17.7316   22.9558 C   0  0  0  0  0  0  0  0  0  0  0  0
    8.8768  -18.6679   22.6852 O   0  0  0  0  0  0  0  0  0  0  0  0
    8.5874  -16.4186   23.0718 N   0  0  0  0  0  0  0  0  0  0  0  0
    9.9776  -16.1296   22.6794 C   0  0  1  0  0  0  0  0  0  0  0  0
   10.0137  -14.6786   22.3311 C   0  0  0  0  0  0  0  0  0  0  0  0
    9.0308  -14.2030   21.3474 C   0  0  0  0  0  0  0  0  0  0  0  0
    9.1267  -14.4863   20.0077 C   0  0  0  0  0  0  0  0  0  0  0  0
    8.1849  -14.0033   19.1233 C   0  0  0  0  0  0  0  0  0  0  0  0
    7.1295  -13.2345   19.5245 C   0  0  0  0  0  0  0  0  0  0  0  0
    7.0218  -12.9451   20.8570 C   0  0  0  0  0  0  0  0  0  0  0  0
    7.9490  -13.4188   21.7374 C   0  0  0  0  0  0  0  0  0  0  0  0
   10.8368  -16.5141   23.8042 C   0  0  0  0  0  0  0  0  0  0  0  0
   12.0908  -16.2434   23.7000 O   0  0  0  0  0  0  0  0  0  0  0  0
   10.4477  -17.1480   25.0080 N   0  0  0  0  0  0  0  0  0  0  0  0
   11.4662  -17.4942   26.0057 C   0  0  1  0  0  0  0  0  0  0  0  0
   10.8583  -17.2467   27.3861 C   0  0  0  0  0  0  0  0  0  0  0  0
   10.5440  -15.8354   27.6202 C   0  0  0  0  0  0  0  0  0  0  0  0
   11.4992  -14.9503   28.0654 C   0  0  0  0  0  0  0  0  0  0  0  0
   11.1368  -13.6295   28.2590 C   0  0  0  0  0  0  0  0  0  0  0  0
    9.8584  -13.1628   28.0248 C   0  0  0  0  0  0  0  0  0  0  0  0
    8.8893  -14.0502   27.5757 C   0  0  0  0  0  0  0  0  0  0  0  0
    9.2584  -15.3643   27.3853 C   0  0  0  0  0  0  0  0  0  0  0  0
   11.8298  -18.8970   25.8536 C   0  0  0  0  0  0  0  0  0  0  0  0
   11.2507  -19.6000   24.9955 O   0  0  0  0  0  0  0  0  0  0  0  0
   12.7988  -19.4710   26.6316 O   0  0  0  0  0  0  0  0  0  0  0  0
  2  1  1  1
  3  2  1  0
  4  5  2  0
  4  3  1  0
  6  5  1  0
  7 12  2  0
  7  6  1  0
  8  7  1  0
  9 10  1  0
  9  8  2  0
 10 11  2  0
 11 12  1  0
 12  4  1  0
 13  2  1  0
 14 13  2  0
 15 13  1  0
 16 24  1  0
 16 15  1  0
 16 17  1  1
 18 17  1  0
 19 18  2  0
 20 19  1  0
 21 20  2  0
 21 22  1  0
 22 23  2  0
 23 18  1  0
 24 26  1  0
 25 24  2  0
 26 27  1  0
 27 28  1  1
 28 29  1  0
 29 30  2  0
 29 34  1  0
 30 31  1  0
 31 32  2  0
 33 32  1  0
 34 33  2  0
 35 37  1  0
 35 27  1  0
 36 35  2  0
M  END
$$$$
