RRH.pdb
     RDKit          3D

 33 33  0  0  1  0  0  0  0  0999 V2000
   28.9106  -15.9895  -18.9963 N   0  0  0  0  0  0  0  0  0  0  0  0
   27.9714  -16.9842  -19.3918 C   0  0  0  0  0  0  0  0  0  0  0  0
   28.2644  -17.6656  -20.4504 N   0  0  0  0  0  0  0  0  0  0  0  0
   26.7956  -17.1884  -18.6459 N   0  0  0  0  0  0  0  0  0  0  0  0
   26.6538  -16.4452  -17.3885 C   0  0  0  0  0  0  0  0  0  0  0  0
   27.4980  -17.1030  -16.3650 C   0  0  0  0  0  0  0  0  0  0  0  0
   26.7836  -17.8554  -15.3011 C   0  0  0  0  0  0  0  0  0  0  0  0
   27.3428  -19.2248  -15.0918 C   0  0  2  0  0  0  0  0  0  0  0  0
   27.8007  -19.7706  -16.3416 N   0  0  0  0  0  0  0  0  0  0  0  0
   26.2912  -20.1019  -14.4750 C   0  0  0  0  0  0  0  0  0  0  0  0
   25.6467  -20.9157  -15.1617 O   0  0  0  0  0  0  0  0  0  0  0  0
   27.6608  -18.3659  -20.8942 N   0  0  0  0  0  0  0  0  0  0  0  0
   26.3888  -19.3765   -7.1062 C   0  0  0  0  0  0  0  0  0  0  0  0
   25.8015  -20.6685   -7.1678 N   0  0  0  0  0  0  0  0  0  0  0  0
   24.9899  -21.0412   -6.2351 N   0  0  0  0  0  0  0  0  0  0  0  0
   26.1144  -21.5330   -8.2535 C   0  0  0  0  0  0  0  0  0  0  0  0
   27.0255  -21.0149   -9.2701 C   0  0  0  0  0  0  0  0  0  0  0  0
   26.1496  -20.3618  -10.3340 C   0  0  0  0  0  0  0  0  0  0  0  0
   25.7015  -21.4860  -11.2676 C   0  0  1  0  0  0  0  0  0  0  0  0
   25.0267  -20.8259  -12.4450 N   0  0  0  0  0  0  0  0  0  0  0  0
   26.0277  -20.0035  -13.0930 C   0  0  0  0  0  0  0  0  0  0  0  0
   23.8681  -20.0188  -12.0802 O   0  0  0  0  0  0  0  0  0  0  0  0
   23.3436  -20.1750  -10.9477 N   0  0  0  0  0  0  0  0  0  0  0  0
   24.5862  -21.9957   -6.2339 C   0  0  2  0  0  0  0  0  0  0  0  0
   23.2650  -19.0439  -12.9201 C   0  0  0  0  0  0  0  0  0  0  0  0
   22.4175  -19.4389  -14.0276 C   0  0  0  0  0  0  0  0  0  0  0  0
   23.1237  -20.4512  -14.9039 C   0  0  0  0  0  0  0  0  0  0  0  0
   22.3738  -20.7666  -16.1211 N   0  0  0  0  0  0  0  0  0  0  0  0
   21.1764  -20.1914  -16.5013 C   0  0  0  0  0  0  0  0  0  0  0  0
   20.8214  -20.7431  -17.6623 N   0  0  0  0  0  0  0  0  0  0  0  0
   21.7509  -21.6417  -18.0231 C   0  0  0  0  0  0  0  0  0  0  0  0
   22.7008  -21.6558  -17.0796 O   0  0  0  0  0  0  0  0  0  0  0  0
   21.1302  -19.9993  -13.4999 O   0  0  0  0  0  0  0  0  0  0  0  0
  1  2  1  0
  2  4  1  0
  3  2  2  0
  4  5  1  0
  6  5  1  0
  7  6  1  0
  8  9  1  6
  8  7  1  0
 10 20  1  0
 10  8  1  0
 11 10  2  0
 13 12  1  0
 14 13  2  0
 15 13  1  0
 16 15  1  0
 17 16  1  0
 17 18  1  0
 19 18  1  6
 19 20  1  0
 19 21  1  0
 21 22  2  0
 23 21  1  0
 23 24  1  0
 24 25  1  1
 25 26  1  0
 26 30  1  0
 26 27  2  0
 27 28  1  0
 29 28  1  0
 30 29  2  0
 31 32  1  0
 31 24  1  0
 33 31  2  0
M  END
$$$$
