RRH.pdb
     RDKit          3D

 33 33  0  0  1  0  0  0  0  0999 V2000
   20.1976  -22.8134   -7.0660 N   0  0  0  0  0  0  0  0  0  0  0  0
   19.7824  -22.2158   -8.2900 C   0  0  0  0  0  0  0  0  0  0  0  0
   18.6814  -22.6575   -8.8032 N   0  0  0  0  0  0  0  0  0  0  0  0
   20.5545  -21.1993   -8.8827 N   0  0  0  0  0  0  0  0  0  0  0  0
   21.8342  -20.8637   -8.2477 C   0  0  0  0  0  0  0  0  0  0  0  0
   22.9174  -21.5188   -9.0161 C   0  0  0  0  0  0  0  0  0  0  0  0
   23.5122  -20.7302  -10.1263 C   0  0  0  0  0  0  0  0  0  0  0  0
   24.6052  -21.4651  -10.8314 C   0  0  2  0  0  0  0  0  0  0  0  0
   25.6869  -21.7375   -9.9231 N   0  0  0  0  0  0  0  0  0  0  0  0
   25.0775  -20.6499  -12.0011 C   0  0  0  0  0  0  0  0  0  0  0  0
   26.0110  -19.8349  -11.8839 O   0  0  0  0  0  0  0  0  0  0  0  0
   18.2921  -22.3775   -9.7098 N   0  0  0  0  0  0  0  0  0  0  0  0
   25.2364  -25.7916  -15.3124 C   0  0  0  0  0  0  0  0  0  0  0  0
   24.2604  -25.0648  -16.0454 N   0  0  0  0  0  0  0  0  0  0  0  0
   23.0947  -25.5857  -16.2386 N   0  0  0  0  0  0  0  0  0  0  0  0
   24.5793  -23.7758  -16.5560 C   0  0  0  0  0  0  0  0  0  0  0  0
   25.8304  -23.1754  -16.1019 C   0  0  0  0  0  0  0  0  0  0  0  0
   25.4665  -22.2651  -14.9336 C   0  0  0  0  0  0  0  0  0  0  0  0
   25.0696  -20.9221  -15.5460 C   0  0  2  0  0  0  0  0  0  0  0  0
   24.8037  -19.9843  -14.3940 N   0  0  0  0  0  0  0  0  0  0  0  0
   24.4538  -20.8093  -13.2560 C   0  0  0  0  0  0  0  0  0  0  0  0
   23.7473  -19.0143  -14.6592 O   0  0  0  0  0  0  0  0  0  0  0  0
   22.7902  -19.3390  -15.4078 N   0  0  0  0  0  0  0  0  0  0  0  0
   22.3847  -25.0973  -16.8142 C   0  0  2  0  0  0  0  0  0  0  0  0
   23.7077  -17.6967  -14.1284 C   0  0  0  0  0  0  0  0  0  0  0  0
   23.9624  -16.5470  -14.9735 C   0  0  0  0  0  0  0  0  0  0  0  0
   25.4483  -16.3747  -15.2047 C   0  0  0  0  0  0  0  0  0  0  0  0
   25.7586  -15.2279  -16.0603 N   0  0  0  0  0  0  0  0  0  0  0  0
   24.8419  -14.3182  -16.5516 C   0  0  0  0  0  0  0  0  0  0  0  0
   25.5163  -13.4302  -17.2831 N   0  0  0  0  0  0  0  0  0  0  0  0
   26.8199  -13.7495  -17.2683 C   0  0  0  0  0  0  0  0  0  0  0  0
   26.9678  -14.8498  -16.5198 O   0  0  0  0  0  0  0  0  0  0  0  0
   23.2374  -16.7110  -16.2763 O   0  0  0  0  0  0  0  0  0  0  0  0
  1  2  1  0
  2  4  1  0
  3  2  2  0
  4  5  1  0
  6  5  1  0
  7  6  1  0
  8  9  1  1
  8  7  1  0
 10 20  1  0
 10  8  1  0
 11 10  2  0
 13 12  1  0
 14 13  2  0
 15 13  1  0
 16 15  1  0
 17 16  1  0
 17 18  1  0
 19 18  1  1
 19 20  1  0
 19 21  1  0
 21 22  2  0
 23 21  1  0
 23 24  1  0
 24 25  1  6
 25 26  1  0
 26 30  1  0
 26 27  2  0
 27 28  1  0
 29 28  1  0
 30 29  2  0
 31 32  1  0
 31 24  1  0
 33 31  2  0
M  END
$$$$
