RRH.pdb
     RDKit          3D

 33 33  0  0  1  0  0  0  0  0999 V2000
   19.4229  -22.5596  -19.0577 N   0  0  0  0  0  0  0  0  0  0  0  0
   20.7483  -22.5929  -19.5775 C   0  0  0  0  0  0  0  0  0  0  0  0
   20.9708  -23.4304  -20.5366 N   0  0  0  0  0  0  0  0  0  0  0  0
   21.7399  -21.7442  -19.0512 N   0  0  0  0  0  0  0  0  0  0  0  0
   21.3696  -20.8942  -17.9137 C   0  0  0  0  0  0  0  0  0  0  0  0
   21.6237  -21.6528  -16.6677 C   0  0  0  0  0  0  0  0  0  0  0  0
   22.8690  -21.3164  -15.9298 C   0  0  0  0  0  0  0  0  0  0  0  0
   24.1028  -21.6544  -16.7014 C   0  0  2  0  0  0  0  0  0  0  0  0
   24.1982  -23.0778  -16.8870 N   0  0  0  0  0  0  0  0  0  0  0  0
   25.3048  -21.1254  -15.9728 C   0  0  0  0  0  0  0  0  0  0  0  0
   25.9571  -21.8470  -15.1961 O   0  0  0  0  0  0  0  0  0  0  0  0
   21.8699  -23.5690  -21.0100 N   0  0  0  0  0  0  0  0  0  0  0  0
   29.9562  -18.4406  -19.2283 C   0  0  0  0  0  0  0  0  0  0  0  0
   28.8791  -17.9188  -19.9935 N   0  0  0  0  0  0  0  0  0  0  0  0
   28.7087  -18.3245  -21.2076 N   0  0  0  0  0  0  0  0  0  0  0  0
   28.0043  -16.9582  -19.4139 C   0  0  0  0  0  0  0  0  0  0  0  0
   28.1128  -16.7494  -17.9729 C   0  0  0  0  0  0  0  0  0  0  0  0
   27.8853  -18.1120  -17.3268 C   0  0  0  0  0  0  0  0  0  0  0  0
   27.0754  -17.8527  -16.0568 C   0  0  2  0  0  0  0  0  0  0  0  0
   26.8051  -19.2008  -15.4347 N   0  0  0  0  0  0  0  0  0  0  0  0
   25.7037  -19.7871  -16.1706 C   0  0  0  0  0  0  0  0  0  0  0  0
   26.4862  -19.1373  -14.0130 O   0  0  0  0  0  0  0  0  0  0  0  0
   25.6064  -18.3304  -13.6170 N   0  0  0  0  0  0  0  0  0  0  0  0
   27.9785  -17.9027  -21.8099 C   0  0  1  0  0  0  0  0  0  0  0  0
   27.1033  -19.9324  -13.0097 C   0  0  0  0  0  0  0  0  0  0  0  0
   26.5852  -19.9548  -11.6562 C   0  0  0  0  0  0  0  0  0  0  0  0
   25.1557  -20.4523  -11.6412 C   0  0  0  0  0  0  0  0  0  0  0  0
   24.6092  -20.5628  -10.2875 N   0  0  0  0  0  0  0  0  0  0  0  0
   24.7069  -19.6028   -9.2986 C   0  0  0  0  0  0  0  0  0  0  0  0
   24.0849  -20.0791   -8.2194 N   0  0  0  0  0  0  0  0  0  0  0  0
   23.6018  -21.3007   -8.4953 C   0  0  0  0  0  0  0  0  0  0  0  0
   23.9229  -21.5963   -9.7611 O   0  0  0  0  0  0  0  0  0  0  0  0
   27.4585  -20.8217  -10.7985 O   0  0  0  0  0  0  0  0  0  0  0  0
  1  2  1  0
  2  4  1  0
  3  2  2  0
  4  5  1  0
  6  5  1  0
  7  6  1  0
  8  9  1  1
  8  7  1  0
 10 20  1  0
 10  8  1  0
 11 10  2  0
 13 12  1  0
 14 13  2  0
 15 13  1  0
 16 15  1  0
 17 16  1  0
 17 18  1  0
 19 18  1  6
 19 20  1  0
 19 21  1  0
 21 22  2  0
 23 21  1  0
 23 24  1  0
 24 25  1  1
 25 26  1  0
 26 30  1  0
 26 27  2  0
 27 28  1  0
 29 28  1  0
 30 29  2  0
 31 32  1  0
 31 24  1  0
 33 31  2  0
M  END
$$$$
