RRH.pdb
     RDKit          3D

 33 33  0  0  1  0  0  0  0  0999 V2000
   16.4733  -24.4185   -9.0445 N   0  0  0  0  0  0  0  0  0  0  0  0
   17.7462  -25.0569   -9.0474 C   0  0  0  0  0  0  0  0  0  0  0  0
   17.8977  -26.0452   -8.2282 N   0  0  0  0  0  0  0  0  0  0  0  0
   18.7639  -24.6096   -9.9104 N   0  0  0  0  0  0  0  0  0  0  0  0
   18.4516  -23.4850  -10.7999 C   0  0  0  0  0  0  0  0  0  0  0  0
   19.0546  -23.7614  -12.1238 C   0  0  0  0  0  0  0  0  0  0  0  0
   20.1049  -22.8160  -12.5835 C   0  0  0  0  0  0  0  0  0  0  0  0
   20.1053  -22.6347  -14.0664 C   0  0  2  0  0  0  0  0  0  0  0  0
   19.8491  -23.8902  -14.7203 N   0  0  0  0  0  0  0  0  0  0  0  0
   21.4261  -22.0640  -14.4967 C   0  0  0  0  0  0  0  0  0  0  0  0
   22.4662  -22.7467  -14.4596 O   0  0  0  0  0  0  0  0  0  0  0  0
   18.7497  -26.6061   -8.1222 N   0  0  0  0  0  0  0  0  0  0  0  0
   23.1788  -14.3507  -18.3871 C   0  0  0  0  0  0  0  0  0  0  0  0
   24.3976  -15.0777  -18.4515 N   0  0  0  0  0  0  0  0  0  0  0  0
   25.4181  -14.5534  -19.0443 N   0  0  0  0  0  0  0  0  0  0  0  0
   24.4779  -16.3707  -17.8637 C   0  0  0  0  0  0  0  0  0  0  0  0
   23.2765  -16.8725  -17.2027 C   0  0  0  0  0  0  0  0  0  0  0  0
   23.6595  -18.2125  -16.5833 C   0  0  0  0  0  0  0  0  0  0  0  0
   22.3842  -18.7718  -15.9532 C   0  0  2  0  0  0  0  0  0  0  0  0
   22.7262  -20.1474  -15.4353 N   0  0  0  0  0  0  0  0  0  0  0  0
   21.4916  -20.7305  -14.9517 C   0  0  0  0  0  0  0  0  0  0  0  0
   23.7313  -20.1431  -14.3786 O   0  0  0  0  0  0  0  0  0  0  0  0
   23.4533  -19.6187  -13.2697 N   0  0  0  0  0  0  0  0  0  0  0  0
   26.3214  -15.0592  -19.0913 C   0  0  2  0  0  0  0  0  0  0  0  0
   25.0345  -20.6967  -14.4999 C   0  0  0  0  0  0  0  0  0  0  0  0
   25.9868  -20.6013  -13.4114 C   0  0  0  0  0  0  0  0  0  0  0  0
   26.1318  -19.1654  -12.9548 C   0  0  0  0  0  0  0  0  0  0  0  0
   26.7150  -18.3011  -13.9825 N   0  0  0  0  0  0  0  0  0  0  0  0
   27.0785  -18.6959  -15.2558 C   0  0  0  0  0  0  0  0  0  0  0  0
   27.5662  -17.6234  -15.8805 N   0  0  0  0  0  0  0  0  0  0  0  0
   27.5219  -16.5725  -15.0467 C   0  0  0  0  0  0  0  0  0  0  0  0
   27.0009  -16.9876  -13.8852 O   0  0  0  0  0  0  0  0  0  0  0  0
   25.5429  -21.4771  -12.2775 O   0  0  0  0  0  0  0  0  0  0  0  0
  1  2  1  0
  2  4  1  0
  3  2  2  0
  4  5  1  0
  6  5  1  0
  7  6  1  0
  8  9  1  6
  8  7  1  0
 10 20  1  0
 10  8  1  0
 11 10  2  0
 13 12  1  0
 14 13  2  0
 15 13  1  0
 16 15  1  0
 17 16  1  0
 17 18  1  0
 19 18  1  6
 19 20  1  0
 19 21  1  0
 21 22  2  0
 23 21  1  0
 23 24  1  0
 24 25  1  1
 25 26  1  0
 26 30  1  0
 26 27  2  0
 27 28  1  0
 29 28  1  0
 30 29  2  0
 31 32  1  0
 31 24  1  0
 33 31  2  0
M  END
$$$$
