RRH.pdb
     RDKit          3D

 33 33  0  0  1  0  0  0  0  0999 V2000
   18.9240  -21.6340  -14.4806 N   0  0  0  0  0  0  0  0  0  0  0  0
   20.2554  -22.0063  -14.8223 C   0  0  0  0  0  0  0  0  0  0  0  0
   20.6959  -21.5894  -15.9638 N   0  0  0  0  0  0  0  0  0  0  0  0
   21.0238  -22.7879  -13.9396 N   0  0  0  0  0  0  0  0  0  0  0  0
   20.3030  -23.6167  -12.9665 C   0  0  0  0  0  0  0  0  0  0  0  0
   19.7208  -24.7730  -13.6853 C   0  0  0  0  0  0  0  0  0  0  0  0
   18.9786  -25.7608  -12.8596 C   0  0  0  0  0  0  0  0  0  0  0  0
   19.8359  -26.9036  -12.4226 C   0  0  2  0  0  0  0  0  0  0  0  0
   20.5283  -27.4652  -13.5515 N   0  0  0  0  0  0  0  0  0  0  0  0
   18.9799  -27.9371  -11.7483 C   0  0  0  0  0  0  0  0  0  0  0  0
   17.9637  -28.3941  -12.3030 O   0  0  0  0  0  0  0  0  0  0  0  0
   21.6410  -21.7446  -16.3305 N   0  0  0  0  0  0  0  0  0  0  0  0
   23.7674  -32.6354   -8.5474 C   0  0  0  0  0  0  0  0  0  0  0  0
   22.5667  -32.6156   -7.7885 N   0  0  0  0  0  0  0  0  0  0  0  0
   22.5975  -32.9588   -6.5440 N   0  0  0  0  0  0  0  0  0  0  0  0
   21.3489  -32.2191   -8.4080 C   0  0  0  0  0  0  0  0  0  0  0  0
   21.4402  -31.6825   -9.7628 C   0  0  0  0  0  0  0  0  0  0  0  0
   20.7182  -30.3394   -9.7384 C   0  0  0  0  0  0  0  0  0  0  0  0
   19.2233  -30.6578   -9.7381 C   0  0  1  0  0  0  0  0  0  0  0  0
   18.5000  -29.3334   -9.7322 N   0  0  0  0  0  0  0  0  0  0  0  0
   19.3320  -28.3998  -10.4633 C   0  0  0  0  0  0  0  0  0  0  0  0
   18.2222  -28.8228   -8.3947 O   0  0  0  0  0  0  0  0  0  0  0  0
   19.1761  -28.4161   -7.6829 N   0  0  0  0  0  0  0  0  0  0  0  0
   21.7473  -32.8934   -5.9549 C   0  0  2  0  0  0  0  0  0  0  0  0
   16.9285  -28.7443   -7.8117 C   0  0  0  0  0  0  0  0  0  0  0  0
   16.7521  -28.2615   -6.4565 C   0  0  0  0  0  0  0  0  0  0  0  0
   15.3838  -27.6365   -6.2878 C   0  0  0  0  0  0  0  0  0  0  0  0
   15.1738  -27.0881   -4.9467 N   0  0  0  0  0  0  0  0  0  0  0  0
   15.8598  -26.0229   -4.3955 C   0  0  0  0  0  0  0  0  0  0  0  0
   15.3784  -25.8332   -3.1664 N   0  0  0  0  0  0  0  0  0  0  0  0
   14.4172  -26.7391   -2.9274 C   0  0  0  0  0  0  0  0  0  0  0  0
   14.2923  -27.5069   -4.0172 O   0  0  0  0  0  0  0  0  0  0  0  0
   16.9418  -29.3937   -5.4912 O   0  0  0  0  0  0  0  0  0  0  0  0
  1  2  1  0
  2  4  1  0
  3  2  2  0
  4  5  1  0
  6  5  1  0
  7  6  1  0
  8  9  1  6
  8  7  1  0
 10 20  1  0
 10  8  1  0
 11 10  2  0
 13 12  1  0
 14 13  2  0
 15 13  1  0
 16 15  1  0
 17 16  1  0
 17 18  1  0
 19 18  1  6
 19 20  1  0
 19 21  1  0
 21 22  2  0
 23 21  1  0
 23 24  1  0
 24 25  1  1
 25 26  1  0
 26 30  1  0
 26 27  2  0
 27 28  1  0
 29 28  1  0
 30 29  2  0
 31 32  1  0
 31 24  1  0
 33 31  2  0
M  END
$$$$
