RRH.pdb
     RDKit          3D

 33 33  0  0  1  0  0  0  0  0999 V2000
   22.4927  -24.7991  -18.2702 N   0  0  0  0  0  0  0  0  0  0  0  0
   22.3875  -26.1681  -17.8928 C   0  0  0  0  0  0  0  0  0  0  0  0
   21.1920  -26.6511  -17.8017 N   0  0  0  0  0  0  0  0  0  0  0  0
   23.5454  -26.9268  -17.6398 N   0  0  0  0  0  0  0  0  0  0  0  0
   24.8365  -26.3359  -18.0106 C   0  0  0  0  0  0  0  0  0  0  0  0
   24.8481  -24.9271  -17.5545 C   0  0  0  0  0  0  0  0  0  0  0  0
   26.0648  -24.1368  -17.8763 C   0  0  0  0  0  0  0  0  0  0  0  0
   27.3127  -24.9564  -17.8230 C   0  0  2  0  0  0  0  0  0  0  0  0
   27.6067  -25.3258  -16.4641 N   0  0  0  0  0  0  0  0  0  0  0  0
   28.4457  -24.1759  -18.4252 C   0  0  0  0  0  0  0  0  0  0  0  0
   28.3422  -22.9551  -18.6453 O   0  0  0  0  0  0  0  0  0  0  0  0
   20.9548  -27.6015  -17.4979 N   0  0  0  0  0  0  0  0  0  0  0  0
   35.6755  -25.4762  -16.7942 C   0  0  0  0  0  0  0  0  0  0  0  0
   34.8596  -26.4944  -17.3563 N   0  0  0  0  0  0  0  0  0  0  0  0
   34.9234  -27.6931  -16.8801 N   0  0  0  0  0  0  0  0  0  0  0  0
   33.9852  -26.1810  -18.4338 C   0  0  0  0  0  0  0  0  0  0  0  0
   34.4184  -25.1334  -19.3540 C   0  0  0  0  0  0  0  0  0  0  0  0
   33.2103  -24.2274  -19.5671 C   0  0  0  0  0  0  0  0  0  0  0  0
   32.0018  -24.9934  -19.0298 C   0  0  2  0  0  0  0  0  0  0  0  0
   30.7941  -24.1230  -19.2776 N   0  0  0  0  0  0  0  0  0  0  0  0
   29.6498  -24.8358  -18.7478 C   0  0  0  0  0  0  0  0  0  0  0  0
   30.5822  -23.8007  -20.6840 O   0  0  0  0  0  0  0  0  0  0  0  0
   29.7604  -24.4794  -21.3518 N   0  0  0  0  0  0  0  0  0  0  0  0
   34.3850  -28.4651  -17.3140 C   0  0  1  0  0  0  0  0  0  0  0  0
   31.2447  -22.7555  -21.3828 C   0  0  0  0  0  0  0  0  0  0  0  0
   30.4904  -21.7353  -22.0834 C   0  0  0  0  0  0  0  0  0  0  0  0
   29.5721  -21.0022  -21.1292 C   0  0  0  0  0  0  0  0  0  0  0  0
   28.1585  -21.3062  -21.3584 N   0  0  0  0  0  0  0  0  0  0  0  0
   27.6649  -22.1603  -22.3260 C   0  0  0  0  0  0  0  0  0  0  0  0
   26.3364  -22.1674  -22.2096 N   0  0  0  0  0  0  0  0  0  0  0  0
   25.9798  -21.3504  -21.2061 C   0  0  0  0  0  0  0  0  0  0  0  0
   27.0952  -20.8236  -20.6854 O   0  0  0  0  0  0  0  0  0  0  0  0
   31.4359  -20.7805  -22.7499 O   0  0  0  0  0  0  0  0  0  0  0  0
  1  2  1  0
  2  4  1  0
  3  2  2  0
  4  5  1  0
  6  5  1  0
  7  6  1  0
  8  9  1  1
  8  7  1  0
 10 20  1  0
 10  8  1  0
 11 10  2  0
 13 12  1  0
 14 13  2  0
 15 13  1  0
 16 15  1  0
 17 16  1  0
 17 18  1  0
 19 18  1  1
 19 20  1  0
 19 21  1  0
 21 22  2  0
 23 21  1  0
 23 24  1  0
 24 25  1  1
 25 26  1  0
 26 30  1  0
 26 27  2  0
 27 28  1  0
 29 28  1  0
 30 29  2  0
 31 32  1  0
 31 24  1  0
 33 31  2  0
M  END
$$$$
