RRH.pdb
     RDKit          3D

 33 33  0  0  1  0  0  0  0  0999 V2000
   28.0674  -17.9076  -14.6756 N   0  0  0  0  0  0  0  0  0  0  0  0
   27.6741  -17.3194  -15.9115 C   0  0  0  0  0  0  0  0  0  0  0  0
   28.6217  -16.8463  -16.6525 N   0  0  0  0  0  0  0  0  0  0  0  0
   26.3157  -17.2726  -16.2761 N   0  0  0  0  0  0  0  0  0  0  0  0
   25.4753  -16.2587  -15.6285 C   0  0  0  0  0  0  0  0  0  0  0  0
   24.0579  -16.5939  -15.8955 C   0  0  0  0  0  0  0  0  0  0  0  0
   23.7980  -17.5146  -17.0327 C   0  0  0  0  0  0  0  0  0  0  0  0
   22.6186  -18.4006  -16.7963 C   0  0  2  0  0  0  0  0  0  0  0  0
   21.5296  -17.6408  -16.2428 N   0  0  0  0  0  0  0  0  0  0  0  0
   23.0148  -19.5203  -15.8772 C   0  0  0  0  0  0  0  0  0  0  0  0
   22.1967  -20.0258  -15.0870 O   0  0  0  0  0  0  0  0  0  0  0  0
   28.4961  -16.3972  -17.5659 N   0  0  0  0  0  0  0  0  0  0  0  0
   25.6263  -26.7374  -15.5765 C   0  0  0  0  0  0  0  0  0  0  0  0
   25.2401  -25.9959  -16.7250 N   0  0  0  0  0  0  0  0  0  0  0  0
   24.3970  -26.5095  -17.5574 N   0  0  0  0  0  0  0  0  0  0  0  0
   25.7861  -24.7004  -16.9428 C   0  0  0  0  0  0  0  0  0  0  0  0
   26.7157  -24.1966  -15.9359 C   0  0  0  0  0  0  0  0  0  0  0  0
   25.9121  -23.2504  -15.0499 C   0  0  0  0  0  0  0  0  0  0  0  0
   25.4716  -22.0948  -15.9481 C   0  0  2  0  0  0  0  0  0  0  0  0
   24.7695  -21.0994  -15.0574 N   0  0  0  0  0  0  0  0  0  0  0  0
   24.3372  -20.0097  -15.9083 C   0  0  0  0  0  0  0  0  0  0  0  0
   25.6025  -20.5936  -13.9724 O   0  0  0  0  0  0  0  0  0  0  0  0
   26.8539  -20.6200  -14.0962 N   0  0  0  0  0  0  0  0  0  0  0  0
   24.1436  -26.0116  -18.4303 C   0  0  2  0  0  0  0  0  0  0  0  0
   25.1054  -20.0590  -12.7531 C   0  0  0  0  0  0  0  0  0  0  0  0
   25.8067  -20.2801  -11.5040 C   0  0  0  0  0  0  0  0  0  0  0  0
   25.0297  -21.2300  -10.6178 C   0  0  0  0  0  0  0  0  0  0  0  0
   23.5977  -20.9277  -10.5830 N   0  0  0  0  0  0  0  0  0  0  0  0
   22.9720  -19.9106  -11.2783 C   0  0  0  0  0  0  0  0  0  0  0  0
   21.6729  -19.9673  -10.9820 N   0  0  0  0  0  0  0  0  0  0  0  0
   21.4619  -20.9810  -10.1279 C   0  0  0  0  0  0  0  0  0  0  0  0
   22.6400  -21.5685   -9.8840 O   0  0  0  0  0  0  0  0  0  0  0  0
   27.1779  -20.8185  -11.7864 O   0  0  0  0  0  0  0  0  0  0  0  0
  1  2  1  0
  2  4  1  0
  3  2  2  0
  4  5  1  0
  6  5  1  0
  7  6  1  0
  8  9  1  1
  8  7  1  0
 10 20  1  0
 10  8  1  0
 11 10  2  0
 13 12  1  0
 14 13  2  0
 15 13  1  0
 16 15  1  0
 17 16  1  0
 17 18  1  0
 19 18  1  6
 19 20  1  0
 19 21  1  0
 21 22  2  0
 23 21  1  0
 23 24  1  0
 24 25  1  1
 25 26  1  0
 26 30  1  0
 26 27  2  0
 27 28  1  0
 29 28  1  0
 30 29  2  0
 31 32  1  0
 31 24  1  0
 33 31  2  0
M  END
$$$$
