RRH.pdb
     RDKit          3D

 33 33  0  0  1  0  0  0  0  0999 V2000
   19.2176  -25.1825  -10.7173 N   0  0  0  0  0  0  0  0  0  0  0  0
   18.6054  -24.0044  -10.2024 C   0  0  0  0  0  0  0  0  0  0  0  0
   17.7759  -24.1656   -9.2244 N   0  0  0  0  0  0  0  0  0  0  0  0
   18.9106  -22.7458  -10.7533 N   0  0  0  0  0  0  0  0  0  0  0  0
   19.1553  -22.6807  -12.1988 C   0  0  0  0  0  0  0  0  0  0  0  0
   20.5390  -23.1420  -12.4546 C   0  0  0  0  0  0  0  0  0  0  0  0
   21.3933  -22.2482  -13.2791 C   0  0  0  0  0  0  0  0  0  0  0  0
   21.6390  -20.9268  -12.6270 C   0  0  2  0  0  0  0  0  0  0  0  0
   20.6487  -19.9727  -13.0494 N   0  0  0  0  0  0  0  0  0  0  0  0
   23.0225  -20.4534  -12.9699 C   0  0  0  0  0  0  0  0  0  0  0  0
   23.2025  -19.4222  -13.6433 O   0  0  0  0  0  0  0  0  0  0  0  0
   17.2488  -23.4180   -8.7606 N   0  0  0  0  0  0  0  0  0  0  0  0
   29.8163  -22.4188   -8.5797 C   0  0  0  0  0  0  0  0  0  0  0  0
   30.4202  -22.1214   -9.8307 N   0  0  0  0  0  0  0  0  0  0  0  0
   31.5173  -22.7162  -10.1624 N   0  0  0  0  0  0  0  0  0  0  0  0
   29.8099  -21.1745  -10.6995 C   0  0  0  0  0  0  0  0  0  0  0  0
   28.4116  -20.8438  -10.4400 C   0  0  0  0  0  0  0  0  0  0  0  0
   27.6793  -21.0191  -11.7662 C   0  0  0  0  0  0  0  0  0  0  0  0
   26.2163  -20.6689  -11.4960 C   0  0  1  0  0  0  0  0  0  0  0  0
   25.4958  -20.7756  -12.8176 N   0  0  0  0  0  0  0  0  0  0  0  0
   24.1394  -21.1889  -12.5216 C   0  0  0  0  0  0  0  0  0  0  0  0
   26.1166  -21.7092  -13.7503 O   0  0  0  0  0  0  0  0  0  0  0  0
   25.9330  -22.9439  -13.5959 N   0  0  0  0  0  0  0  0  0  0  0  0
   31.9900  -22.4955  -11.0579 C   0  0  2  0  0  0  0  0  0  0  0  0
   26.9344  -21.3307  -14.8492 C   0  0  0  0  0  0  0  0  0  0  0  0
   26.7499  -21.9323  -16.1549 C   0  0  0  0  0  0  0  0  0  0  0  0
   25.2986  -21.8528  -16.5776 C   0  0  0  0  0  0  0  0  0  0  0  0
   25.0718  -22.3812  -17.9240 N   0  0  0  0  0  0  0  0  0  0  0  0
   24.8899  -23.7124  -18.2467 C   0  0  0  0  0  0  0  0  0  0  0  0
   24.7142  -23.7808  -19.5669 N   0  0  0  0  0  0  0  0  0  0  0  0
   24.7791  -22.5433  -20.0826 C   0  0  0  0  0  0  0  0  0  0  0  0
   24.9980  -21.6870  -19.0768 O   0  0  0  0  0  0  0  0  0  0  0  0
   27.6328  -21.2449  -17.1538 O   0  0  0  0  0  0  0  0  0  0  0  0
  1  2  1  0
  2  4  1  0
  3  2  2  0
  4  5  1  0
  6  5  1  0
  7  6  1  0
  8  9  1  6
  8  7  1  0
 10 20  1  0
 10  8  1  0
 11 10  2  0
 13 12  1  0
 14 13  2  0
 15 13  1  0
 16 15  1  0
 17 16  1  0
 17 18  1  0
 19 18  1  1
 19 20  1  0
 19 21  1  0
 21 22  2  0
 23 21  1  0
 23 24  1  0
 24 25  1  6
 25 26  1  0
 26 30  1  0
 26 27  2  0
 27 28  1  0
 29 28  1  0
 30 29  2  0
 31 32  1  0
 31 24  1  0
 33 31  2  0
M  END
$$$$
