RRH.pdb
     RDKit          3D

 33 33  0  0  1  0  0  0  0  0999 V2000
   12.7599  -27.0141  -11.6135 N   0  0  0  0  0  0  0  0  0  0  0  0
   13.7179  -27.5588  -10.7116 C   0  0  0  0  0  0  0  0  0  0  0  0
   13.3427  -28.5862  -10.0228 N   0  0  0  0  0  0  0  0  0  0  0  0
   14.9977  -26.9838  -10.6013 N   0  0  0  0  0  0  0  0  0  0  0  0
   15.4195  -26.0617  -11.6621 C   0  0  0  0  0  0  0  0  0  0  0  0
   16.7887  -25.5925  -11.3494 C   0  0  0  0  0  0  0  0  0  0  0  0
   17.3643  -24.5725  -12.2641 C   0  0  0  0  0  0  0  0  0  0  0  0
   18.7271  -24.1278  -11.8436 C   0  0  2  0  0  0  0  0  0  0  0  0
   18.6582  -23.4417  -10.5811 N   0  0  0  0  0  0  0  0  0  0  0  0
   19.3101  -23.2411  -12.9063 C   0  0  0  0  0  0  0  0  0  0  0  0
   18.9925  -22.0404  -12.9898 O   0  0  0  0  0  0  0  0  0  0  0  0
   13.9484  -29.1523   -9.4192 N   0  0  0  0  0  0  0  0  0  0  0  0
   26.6548  -24.0436  -15.4598 C   0  0  0  0  0  0  0  0  0  0  0  0
   25.7399  -24.8834  -16.1494 N   0  0  0  0  0  0  0  0  0  0  0  0
   26.1610  -25.9881  -16.6691 N   0  0  0  0  0  0  0  0  0  0  0  0
   24.3749  -24.4976  -16.2585 C   0  0  0  0  0  0  0  0  0  0  0  0
   24.1026  -23.0754  -16.4464 C   0  0  0  0  0  0  0  0  0  0  0  0
   22.5877  -22.9436  -16.5622 C   0  0  0  0  0  0  0  0  0  0  0  0
   21.9985  -23.7658  -15.4163 C   0  0  1  0  0  0  0  0  0  0  0  0
   20.8565  -22.9588  -14.8489 N   0  0  0  0  0  0  0  0  0  0  0  0
   20.2345  -23.7762  -13.8274 C   0  0  0  0  0  0  0  0  0  0  0  0
   19.8700  -22.5574  -15.8453 O   0  0  0  0  0  0  0  0  0  0  0  0
   18.8062  -23.2192  -15.9566 N   0  0  0  0  0  0  0  0  0  0  0  0
   25.5243  -26.5902  -17.2224 C   0  0  2  0  0  0  0  0  0  0  0  0
   20.0139  -21.4511  -16.7255 C   0  0  0  0  0  0  0  0  0  0  0  0
   18.8517  -20.7975  -17.2938 C   0  0  0  0  0  0  0  0  0  0  0  0
   17.9540  -20.2610  -16.1994 C   0  0  0  0  0  0  0  0  0  0  0  0
   16.7477  -19.6169  -16.7221 N   0  0  0  0  0  0  0  0  0  0  0  0
   15.8806  -20.1624  -17.6493 C   0  0  0  0  0  0  0  0  0  0  0  0
   14.9129  -19.2697  -17.8618 N   0  0  0  0  0  0  0  0  0  0  0  0
   15.1414  -18.1864  -17.1030 C   0  0  0  0  0  0  0  0  0  0  0  0
   16.2644  -18.3992  -16.4056 O   0  0  0  0  0  0  0  0  0  0  0  0
   19.2934  -19.6932  -18.2078 O   0  0  0  0  0  0  0  0  0  0  0  0
  1  2  1  0
  2  4  1  0
  3  2  2  0
  4  5  1  0
  6  5  1  0
  7  6  1  0
  8  9  1  1
  8  7  1  0
 10 20  1  0
 10  8  1  0
 11 10  2  0
 13 12  1  0
 14 13  2  0
 15 13  1  0
 16 15  1  0
 17 16  1  0
 17 18  1  0
 19 18  1  1
 19 20  1  0
 19 21  1  0
 21 22  2  0
 23 21  1  0
 23 24  1  0
 24 25  1  6
 25 26  1  0
 26 30  1  0
 26 27  2  0
 27 28  1  0
 29 28  1  0
 30 29  2  0
 31 32  1  0
 31 24  1  0
 33 31  2  0
M  END
$$$$
