DLF.pdb
     RDKit          3D

 28 28  0  0  1  0  0  0  0  0999 V2000
    9.2859  -18.5486   20.5434 N   0  0  0  0  0  0  0  0  0  0  0  0
   10.5839  -17.9465   20.6941 C   0  0  1  0  0  0  0  0  0  0  0  0
   11.3095  -17.7856   19.3858 C   0  0  0  0  0  0  0  0  0  0  0  0
   11.6591  -19.1301   18.8757 C   0  0  0  0  0  0  0  0  0  0  0  0
   11.9019  -20.0393   19.6969 O   0  0  0  0  0  0  0  0  0  0  0  0
   10.4128  -16.6028   21.3242 C   0  0  0  0  0  0  0  0  0  0  0  0
   11.4056  -15.9360   21.6844 O   0  0  0  0  0  0  0  0  0  0  0  0
   11.7128  -19.3646   17.5361 O   0  0  0  0  0  0  0  0  0  0  0  0
    8.7269  -13.0969   19.5927 C   0  0  0  0  0  0  0  0  0  0  0  0
    7.5922  -13.9413   20.2166 C   0  0  2  0  0  0  0  0  0  0  0  0
    6.2714  -13.4296   19.7759 C   0  0  0  0  0  0  0  0  0  0  0  0
    7.7911  -14.0162   21.6818 C   0  0  0  0  0  0  0  0  0  0  0  0
    8.9494  -14.7920   22.1602 C   0  0  2  0  0  0  0  0  0  0  0  0
    9.1256  -16.0511   21.5290 N   0  0  0  0  0  0  0  0  0  0  0  0
    8.9990  -14.8966   23.6550 C   0  0  0  0  0  0  0  0  0  0  0  0
    8.8914  -13.8522   24.3484 O   0  0  0  0  0  0  0  0  0  0  0  0
    9.1633  -16.1244   24.3422 N   0  0  0  0  0  0  0  0  0  0  0  0
    9.0330  -16.2377   25.8048 C   0  0  1  0  0  0  0  0  0  0  0  0
    7.6387  -15.9289   26.2216 C   0  0  0  0  0  0  0  0  0  0  0  0
    7.4861  -14.4851   26.4504 C   0  0  0  0  0  0  0  0  0  0  0  0
    8.5667  -13.7965   26.9633 C   0  0  0  0  0  0  0  0  0  0  0  0
    8.5195  -12.4508   27.2002 C   0  0  0  0  0  0  0  0  0  0  0  0
    7.3570  -11.7647   26.9174 C   0  0  0  0  0  0  0  0  0  0  0  0
    6.2657  -12.4218   26.4065 C   0  0  0  0  0  0  0  0  0  0  0  0
    6.3489  -13.7783   26.1802 C   0  0  0  0  0  0  0  0  0  0  0  0
    9.5867  -17.5004   26.2806 C   0  0  0  0  0  0  0  0  0  0  0  0
   10.1910  -18.4682   25.4963 O   0  0  0  0  0  0  0  0  0  0  0  0
    9.5176  -17.7553   27.5225 O   0  0  0  0  0  0  0  0  0  0  0  0
  2  3  1  0
  2  1  1  6
  4  3  1  0
  5  4  2  0
  6  2  1  0
  7  6  2  0
  8  4  1  0
 10  9  1  6
 10 12  1  0
 10 11  1  0
 13 12  1  1
 13 14  1  0
 14  6  1  0
 15 13  1  0
 15 16  2  0
 17 15  1  0
 18 17  1  0
 18 19  1  6
 19 20  1  0
 20 21  2  0
 20 25  1  0
 21 22  1  0
 22 23  2  0
 24 23  1  0
 25 24  2  0
 26 18  1  0
 27 26  1  0
 28 26  2  0
M  END
$$$$
