DLF.pdb
     RDKit          3D

 28 28  0  0  1  0  0  0  0  0999 V2000
    8.8633  -18.4871   20.3506 N   0  0  0  0  0  0  0  0  0  0  0  0
   10.2402  -18.0751   20.4171 C   0  0  1  0  0  0  0  0  0  0  0  0
   10.9032  -18.0305   19.0671 C   0  0  0  0  0  0  0  0  0  0  0  0
   10.9279  -19.4020   18.5119 C   0  0  0  0  0  0  0  0  0  0  0  0
   10.6064  -20.3553   19.2522 O   0  0  0  0  0  0  0  0  0  0  0  0
   10.2988  -16.7155   21.0333 C   0  0  0  0  0  0  0  0  0  0  0  0
   11.3952  -16.1487   21.2250 O   0  0  0  0  0  0  0  0  0  0  0  0
   11.2945  -19.6135   17.2184 O   0  0  0  0  0  0  0  0  0  0  0  0
    9.0959  -12.9001   19.6399 C   0  0  0  0  0  0  0  0  0  0  0  0
    7.8700  -13.6269   20.2388 C   0  0  2  0  0  0  0  0  0  0  0  0
    6.6230  -12.9073   19.8817 C   0  0  0  0  0  0  0  0  0  0  0  0
    8.0911  -13.8407   21.6871 C   0  0  0  0  0  0  0  0  0  0  0  0
    9.1643  -14.7762   22.0684 C   0  0  2  0  0  0  0  0  0  0  0  0
    9.1177  -16.0355   21.4151 N   0  0  0  0  0  0  0  0  0  0  0  0
    9.3112  -14.9147   23.5541 C   0  0  0  0  0  0  0  0  0  0  0  0
    9.5939  -13.8993   24.2413 O   0  0  0  0  0  0  0  0  0  0  0  0
    9.1475  -16.1438   24.2390 N   0  0  0  0  0  0  0  0  0  0  0  0
    9.0837  -16.2302   25.7079 C   0  0  1  0  0  0  0  0  0  0  0  0
    7.6676  -16.2005   26.1630 C   0  0  0  0  0  0  0  0  0  0  0  0
    7.1960  -14.8119   26.2613 C   0  0  0  0  0  0  0  0  0  0  0  0
    7.9594  -13.9224   26.9900 C   0  0  0  0  0  0  0  0  0  0  0  0
    7.6037  -12.6096   27.1286 C   0  0  0  0  0  0  0  0  0  0  0  0
    6.4481  -12.1646   26.5213 C   0  0  0  0  0  0  0  0  0  0  0  0
    5.6682  -13.0252   25.7901 C   0  0  0  0  0  0  0  0  0  0  0  0
    6.0572  -14.3416   25.6715 C   0  0  0  0  0  0  0  0  0  0  0  0
    9.8992  -17.3346   26.2004 C   0  0  0  0  0  0  0  0  0  0  0  0
   10.1379  -17.6369   27.5303 O   0  0  0  0  0  0  0  0  0  0  0  0
   10.4500  -18.0993   25.3495 O   0  0  0  0  0  0  0  0  0  0  0  0
  2  3  1  0
  2  1  1  6
  4  3  1  0
  5  4  2  0
  6  2  1  0
  7  6  2  0
  8  4  1  0
 10  9  1  1
 10 12  1  0
 10 11  1  0
 13 12  1  1
 13 14  1  0
 14  6  1  0
 15 13  1  0
 15 16  2  0
 17 15  1  0
 18 17  1  0
 18 19  1  6
 19 20  1  0
 20 21  2  0
 20 25  1  0
 21 22  1  0
 22 23  2  0
 24 23  1  0
 25 24  2  0
 26 18  1  0
 27 26  1  0
 28 26  2  0
M  END
$$$$
