DLF.pdb
     RDKit          3D

 28 28  0  0  1  0  0  0  0  0999 V2000
   10.3284  -18.4461   19.1933 N   0  0  0  0  0  0  0  0  0  0  0  0
    9.4053  -18.3078   20.2882 C   0  0  1  0  0  0  0  0  0  0  0  0
    9.4684  -19.4587   21.2554 C   0  0  0  0  0  0  0  0  0  0  0  0
    8.9381  -20.6654   20.5827 C   0  0  0  0  0  0  0  0  0  0  0  0
    9.6040  -21.1797   19.6595 O   0  0  0  0  0  0  0  0  0  0  0  0
    9.7203  -17.0421   21.0166 C   0  0  0  0  0  0  0  0  0  0  0  0
   10.8998  -16.7475   21.3030 O   0  0  0  0  0  0  0  0  0  0  0  0
    7.7471  -21.1997   20.9679 O   0  0  0  0  0  0  0  0  0  0  0  0
    9.0380  -12.9960   19.5658 C   0  0  0  0  0  0  0  0  0  0  0  0
    7.7835  -13.5905   20.2458 C   0  0  2  0  0  0  0  0  0  0  0  0
    6.5945  -12.7555   19.9465 C   0  0  0  0  0  0  0  0  0  0  0  0
    8.0659  -13.8070   21.6829 C   0  0  0  0  0  0  0  0  0  0  0  0
    8.9873  -14.9054   22.0249 C   0  0  2  0  0  0  0  0  0  0  0  0
    8.6943  -16.1459   21.4002 N   0  0  0  0  0  0  0  0  0  0  0  0
    9.1920  -15.0508   23.5030 C   0  0  0  0  0  0  0  0  0  0  0  0
    9.7977  -14.1447   24.1318 O   0  0  0  0  0  0  0  0  0  0  0  0
    8.7352  -16.1685   24.2438 N   0  0  0  0  0  0  0  0  0  0  0  0
    8.9521  -16.3002   25.6945 C   0  0  1  0  0  0  0  0  0  0  0  0
    7.6621  -16.1568   26.4216 C   0  0  0  0  0  0  0  0  0  0  0  0
    7.2519  -14.7458   26.4525 C   0  0  0  0  0  0  0  0  0  0  0  0
    8.0423  -13.8605   27.1570 C   0  0  0  0  0  0  0  0  0  0  0  0
    7.7438  -12.5284   27.2335 C   0  0  0  0  0  0  0  0  0  0  0  0
    6.6197  -12.0592   26.5867 C   0  0  0  0  0  0  0  0  0  0  0  0
    5.8141  -12.9151   25.8781 C   0  0  0  0  0  0  0  0  0  0  0  0
    6.1454  -14.2514   25.8224 C   0  0  0  0  0  0  0  0  0  0  0  0
    9.7375  -17.4912   25.9976 C   0  0  0  0  0  0  0  0  0  0  0  0
   10.1956  -17.8641   27.2498 O   0  0  0  0  0  0  0  0  0  0  0  0
   10.0403  -18.2693   25.0410 O   0  0  0  0  0  0  0  0  0  0  0  0
  2  3  1  0
  2  1  1  6
  4  3  1  0
  5  4  2  0
  6  2  1  0
  7  6  2  0
  8  4  1  0
 10  9  1  1
 10 12  1  0
 10 11  1  0
 13 12  1  1
 13 14  1  0
 14  6  1  0
 15 13  1  0
 15 16  2  0
 17 15  1  0
 18 17  1  0
 18 19  1  1
 19 20  1  0
 20 21  2  0
 20 25  1  0
 21 22  1  0
 22 23  2  0
 24 23  1  0
 25 24  2  0
 26 18  1  0
 27 26  1  0
 28 26  2  0
M  END
$$$$
