DLF.pdb
     RDKit          3D

 28 28  0  0  1  0  0  0  0  0999 V2000
   11.5611  -16.0718   19.0834 N   0  0  0  0  0  0  0  0  0  0  0  0
   12.3650  -15.6289   20.1915 C   0  0  1  0  0  0  0  0  0  0  0  0
   13.1880  -14.4117   19.8675 C   0  0  0  0  0  0  0  0  0  0  0  0
   14.2828  -14.8153   18.9573 C   0  0  0  0  0  0  0  0  0  0  0  0
   14.1710  -15.8839   18.3205 O   0  0  0  0  0  0  0  0  0  0  0  0
   11.4599  -15.3136   21.3374 C   0  0  0  0  0  0  0  0  0  0  0  0
   11.9275  -15.0286   22.4600 O   0  0  0  0  0  0  0  0  0  0  0  0
   15.3876  -14.0320   18.8213 O   0  0  0  0  0  0  0  0  0  0  0  0
    8.6618  -12.2253   21.0507 C   0  0  0  0  0  0  0  0  0  0  0  0
    7.8581  -13.4889   20.6673 C   0  0  2  0  0  0  0  0  0  0  0  0
    6.5144  -13.1090   20.1667 C   0  0  0  0  0  0  0  0  0  0  0  0
    7.8710  -14.4370   21.8044 C   0  0  0  0  0  0  0  0  0  0  0  0
    9.1857  -14.9433   22.2375 C   0  0  2  0  0  0  0  0  0  0  0  0
   10.0532  -15.3293   21.1824 N   0  0  0  0  0  0  0  0  0  0  0  0
    9.0795  -15.9985   23.2973 C   0  0  0  0  0  0  0  0  0  0  0  0
    9.6285  -17.1152   23.1103 O   0  0  0  0  0  0  0  0  0  0  0  0
    8.3849  -15.8067   24.5168 N   0  0  0  0  0  0  0  0  0  0  0  0
    8.3010  -16.8492   25.5537 C   0  0  1  0  0  0  0  0  0  0  0  0
    7.7466  -16.2794   26.8112 C   0  0  0  0  0  0  0  0  0  0  0  0
    8.5582  -15.1354   27.2502 C   0  0  0  0  0  0  0  0  0  0  0  0
    9.7273  -15.4000   27.9345 C   0  0  0  0  0  0  0  0  0  0  0  0
   10.5497  -14.3998   28.3735 C   0  0  0  0  0  0  0  0  0  0  0  0
   10.1979  -13.0899   28.1236 C   0  0  0  0  0  0  0  0  0  0  0  0
    9.0415  -12.7952   27.4455 C   0  0  0  0  0  0  0  0  0  0  0  0
    8.2366  -13.8284   27.0177 C   0  0  0  0  0  0  0  0  0  0  0  0
    7.6424  -18.0443   25.0386 C   0  0  0  0  0  0  0  0  0  0  0  0
    7.7829  -19.3277   25.5388 O   0  0  0  0  0  0  0  0  0  0  0  0
    6.8668  -17.9188   24.0412 O   0  0  0  0  0  0  0  0  0  0  0  0
  2  3  1  0
  2  1  1  6
  4  3  1  0
  5  4  2  0
  6  2  1  0
  7  6  2  0
  8  4  1  0
 10  9  1  1
 10 12  1  0
 10 11  1  0
 13 12  1  6
 13 14  1  0
 14  6  1  0
 15 13  1  0
 15 16  2  0
 17 15  1  0
 18 17  1  0
 18 19  1  1
 19 20  1  0
 20 21  2  0
 20 25  1  0
 21 22  1  0
 22 23  2  0
 24 23  1  0
 25 24  2  0
 26 18  1  0
 27 26  1  0
 28 26  2  0
M  END
$$$$
