DLF.pdb
     RDKit          3D

 28 28  0  0  1  0  0  0  0  0999 V2000
    9.2428  -18.5443   20.5063 N   0  0  0  0  0  0  0  0  0  0  0  0
   10.5458  -17.9355   20.5462 C   0  0  1  0  0  0  0  0  0  0  0  0
   11.1562  -17.7703   19.1809 C   0  0  0  0  0  0  0  0  0  0  0  0
   11.5732  -19.1026   18.6900 C   0  0  0  0  0  0  0  0  0  0  0  0
   10.7054  -19.8676   18.2192 O   0  0  0  0  0  0  0  0  0  0  0  0
   10.4220  -16.5929   21.1897 C   0  0  0  0  0  0  0  0  0  0  0  0
   11.4356  -15.9007   21.4215 O   0  0  0  0  0  0  0  0  0  0  0  0
   12.8792  -19.4806   18.7529 O   0  0  0  0  0  0  0  0  0  0  0  0
    8.7467  -12.8102   19.8713 C   0  0  0  0  0  0  0  0  0  0  0  0
    7.6289  -13.7629   20.3536 C   0  0  2  0  0  0  0  0  0  0  0  0
    6.2989  -13.2232   19.9790 C   0  0  0  0  0  0  0  0  0  0  0  0
    7.8199  -14.0468   21.7941 C   0  0  0  0  0  0  0  0  0  0  0  0
    9.0287  -14.8005   22.1722 C   0  0  2  0  0  0  0  0  0  0  0  0
    9.1575  -16.0711   21.5526 N   0  0  0  0  0  0  0  0  0  0  0  0
    9.2257  -14.8725   23.6568 C   0  0  0  0  0  0  0  0  0  0  0  0
    9.2835  -13.8058   24.3218 O   0  0  0  0  0  0  0  0  0  0  0  0
    9.3528  -16.0928   24.3647 N   0  0  0  0  0  0  0  0  0  0  0  0
    9.1349  -16.1927   25.8178 C   0  0  1  0  0  0  0  0  0  0  0  0
    7.7074  -15.9278   26.1424 C   0  0  0  0  0  0  0  0  0  0  0  0
    7.4998  -14.4923   26.3802 C   0  0  0  0  0  0  0  0  0  0  0  0
    8.4942  -13.7981   27.0392 C   0  0  0  0  0  0  0  0  0  0  0  0
    8.3919  -12.4592   27.2964 C   0  0  0  0  0  0  0  0  0  0  0  0
    7.2611  -11.7859   26.8840 C   0  0  0  0  0  0  0  0  0  0  0  0
    6.2553  -12.4488   26.2264 C   0  0  0  0  0  0  0  0  0  0  0  0
    6.3920  -13.7982   25.9841 C   0  0  0  0  0  0  0  0  0  0  0  0
    9.7004  -17.4293   26.3454 C   0  0  0  0  0  0  0  0  0  0  0  0
   10.0321  -17.6705   27.6678 O   0  0  0  0  0  0  0  0  0  0  0  0
    9.9168  -18.3830   25.5357 O   0  0  0  0  0  0  0  0  0  0  0  0
  2  3  1  0
  2  1  1  6
  4  3  1  0
  5  4  2  0
  6  2  1  0
  7  6  2  0
  8  4  1  0
 10  9  1  1
 10 12  1  0
 10 11  1  0
 13 12  1  1
 13 14  1  0
 14  6  1  0
 15 13  1  0
 15 16  2  0
 17 15  1  0
 18 17  1  0
 18 19  1  6
 19 20  1  0
 20 21  2  0
 20 25  1  0
 21 22  1  0
 22 23  2  0
 24 23  1  0
 25 24  2  0
 26 18  1  0
 27 26  1  0
 28 26  2  0
M  END
$$$$
