DLF.pdb
     RDKit          3D

 28 28  0  0  1  0  0  0  0  0999 V2000
    8.8243  -18.1726   20.1551 N   0  0  0  0  0  0  0  0  0  0  0  0
   10.2039  -17.7644   20.1469 C   0  0  1  0  0  0  0  0  0  0  0  0
   10.7396  -17.5413   18.7587 C   0  0  0  0  0  0  0  0  0  0  0  0
   10.7679  -18.8417   18.0530 C   0  0  0  0  0  0  0  0  0  0  0  0
   10.1908  -19.8197   18.5732 O   0  0  0  0  0  0  0  0  0  0  0  0
   10.3272  -16.4956   20.9259 C   0  0  0  0  0  0  0  0  0  0  0  0
   11.4460  -15.9799   21.1322 O   0  0  0  0  0  0  0  0  0  0  0  0
   11.4120  -18.9627   16.8601 O   0  0  0  0  0  0  0  0  0  0  0  0
    9.1339  -12.5779   19.8905 C   0  0  0  0  0  0  0  0  0  0  0  0
    7.9420  -13.3516   20.4992 C   0  0  2  0  0  0  0  0  0  0  0  0
    6.6750  -12.6233   20.2447 C   0  0  0  0  0  0  0  0  0  0  0  0
    8.2315  -13.6514   21.9199 C   0  0  0  0  0  0  0  0  0  0  0  0
    9.2892  -14.6411   22.1919 C   0  0  2  0  0  0  0  0  0  0  0  0
    9.1838  -15.8461   21.4492 N   0  0  0  0  0  0  0  0  0  0  0  0
    9.4824  -14.8946   23.6570 C   0  0  0  0  0  0  0  0  0  0  0  0
   10.0900  -14.0410   24.3538 O   0  0  0  0  0  0  0  0  0  0  0  0
    9.0125  -16.0594   24.3118 N   0  0  0  0  0  0  0  0  0  0  0  0
    9.1501  -16.2625   25.7640 C   0  0  1  0  0  0  0  0  0  0  0  0
    7.8089  -16.2983   26.4069 C   0  0  0  0  0  0  0  0  0  0  0  0
    7.1892  -14.9664   26.3609 C   0  0  0  0  0  0  0  0  0  0  0  0
    7.7891  -13.9516   27.0788 C   0  0  0  0  0  0  0  0  0  0  0  0
    7.2885  -12.6794   27.0879 C   0  0  0  0  0  0  0  0  0  0  0  0
    6.1511  -12.4055   26.3576 C   0  0  0  0  0  0  0  0  0  0  0  0
    5.5321  -13.3936   25.6336 C   0  0  0  0  0  0  0  0  0  0  0  0
    6.0643  -14.6644   25.6473 C   0  0  0  0  0  0  0  0  0  0  0  0
   10.0361  -17.3849   26.0512 C   0  0  0  0  0  0  0  0  0  0  0  0
   10.6513  -18.1942   25.1112 O   0  0  0  0  0  0  0  0  0  0  0  0
   10.2775  -17.6626   27.2663 O   0  0  0  0  0  0  0  0  0  0  0  0
  2  3  1  0
  2  1  1  6
  4  3  1  0
  5  4  2  0
  6  2  1  0
  7  6  2  0
  8  4  1  0
 10  9  1  1
 10 12  1  0
 10 11  1  0
 13 12  1  1
 13 14  1  0
 14  6  1  0
 15 13  1  0
 15 16  2  0
 17 15  1  0
 18 17  1  0
 18 19  1  6
 19 20  1  0
 20 21  2  0
 20 25  1  0
 21 22  1  0
 22 23  2  0
 24 23  1  0
 25 24  2  0
 26 18  1  0
 27 26  1  0
 28 26  2  0
M  END
$$$$
