DLF.pdb
     RDKit          3D

 28 28  0  0  1  0  0  0  0  0999 V2000
   12.9415  -16.5463   20.1554 N   0  0  0  0  0  0  0  0  0  0  0  0
   11.8218  -17.3068   20.6433 C   0  0  1  0  0  0  0  0  0  0  0  0
   12.2370  -18.5376   21.4026 C   0  0  0  0  0  0  0  0  0  0  0  0
   12.7874  -19.5180   20.4405 C   0  0  0  0  0  0  0  0  0  0  0  0
   12.0864  -20.4997   20.1164 O   0  0  0  0  0  0  0  0  0  0  0  0
   11.0098  -16.4316   21.5415 C   0  0  0  0  0  0  0  0  0  0  0  0
   11.5612  -15.7179   22.4056 O   0  0  0  0  0  0  0  0  0  0  0  0
   14.0342  -19.3471   19.9222 O   0  0  0  0  0  0  0  0  0  0  0  0
    8.2882  -13.0271   20.9235 C   0  0  0  0  0  0  0  0  0  0  0  0
    7.5215  -14.3308   20.6039 C   0  0  2  0  0  0  0  0  0  0  0  0
    6.1922  -14.0148   20.0263 C   0  0  0  0  0  0  0  0  0  0  0  0
    7.5058  -15.1931   21.8074 C   0  0  0  0  0  0  0  0  0  0  0  0
    8.8117  -15.6235   22.3382 C   0  0  2  0  0  0  0  0  0  0  0  0
    9.5990  -16.3878   21.4377 N   0  0  0  0  0  0  0  0  0  0  0  0
    8.7040  -16.2717   23.6859 C   0  0  0  0  0  0  0  0  0  0  0  0
    9.4164  -17.2764   23.9436 O   0  0  0  0  0  0  0  0  0  0  0  0
    7.8315  -15.8100   24.7018 N   0  0  0  0  0  0  0  0  0  0  0  0
    7.7297  -16.4647   26.0171 C   0  0  1  0  0  0  0  0  0  0  0  0
    6.8155  -15.6960   26.9039 C   0  0  0  0  0  0  0  0  0  0  0  0
    7.1530  -14.2661   26.8626 C   0  0  0  0  0  0  0  0  0  0  0  0
    6.2186  -13.3988   26.3335 C   0  0  0  0  0  0  0  0  0  0  0  0
    6.4419  -12.0518   26.2624 C   0  0  0  0  0  0  0  0  0  0  0  0
    7.6362  -11.5485   26.7339 C   0  0  0  0  0  0  0  0  0  0  0  0
    8.5848  -12.3858   27.2657 C   0  0  0  0  0  0  0  0  0  0  0  0
    8.3261  -13.7379   27.3215 C   0  0  0  0  0  0  0  0  0  0  0  0
    7.4445  -17.8875   25.8699 C   0  0  0  0  0  0  0  0  0  0  0  0
    7.8097  -18.8845   26.7585 O   0  0  0  0  0  0  0  0  0  0  0  0
    6.8056  -18.2676   24.8406 O   0  0  0  0  0  0  0  0  0  0  0  0
  2  3  1  0
  2  1  1  1
  4  3  1  0
  5  4  2  0
  6  2  1  0
  7  6  2  0
  8  4  1  0
 10  9  1  1
 10 12  1  0
 10 11  1  0
 13 12  1  6
 13 14  1  0
 14  6  1  0
 15 13  1  0
 15 16  2  0
 17 15  1  0
 18 17  1  0
 18 19  1  1
 19 20  1  0
 20 21  2  0
 20 25  1  0
 21 22  1  0
 22 23  2  0
 24 23  1  0
 25 24  2  0
 26 18  1  0
 27 26  1  0
 28 26  2  0
M  END
$$$$
