DLF.pdb
     RDKit          3D

 28 28  0  0  1  0  0  0  0  0999 V2000
   11.1397  -18.4177   19.6250 N   0  0  0  0  0  0  0  0  0  0  0  0
   10.0606  -18.3106   20.5706 C   0  0  1  0  0  0  0  0  0  0  0  0
   10.1489  -19.3271   21.6764 C   0  0  0  0  0  0  0  0  0  0  0  0
    9.9895  -20.6752   21.0872 C   0  0  0  0  0  0  0  0  0  0  0  0
   10.7722  -21.0307   20.1811 O   0  0  0  0  0  0  0  0  0  0  0  0
   10.0862  -16.9405   21.1657 C   0  0  0  0  0  0  0  0  0  0  0  0
   11.1708  -16.3763   21.4213 O   0  0  0  0  0  0  0  0  0  0  0  0
    9.0069  -21.5068   21.5292 O   0  0  0  0  0  0  0  0  0  0  0  0
    8.6889  -13.1001   19.5926 C   0  0  0  0  0  0  0  0  0  0  0  0
    7.5301  -13.9153   20.2109 C   0  0  2  0  0  0  0  0  0  0  0  0
    6.2263  -13.3063   19.8508 C   0  0  0  0  0  0  0  0  0  0  0  0
    7.7757  -14.0868   21.6608 C   0  0  0  0  0  0  0  0  0  0  0  0
    8.8984  -14.9590   22.0499 C   0  0  2  0  0  0  0  0  0  0  0  0
    8.8865  -16.2476   21.4547 N   0  0  0  0  0  0  0  0  0  0  0  0
    9.0940  -15.0235   23.5350 C   0  0  0  0  0  0  0  0  0  0  0  0
    9.2967  -13.9594   24.1752 O   0  0  0  0  0  0  0  0  0  0  0  0
    9.0635  -16.2340   24.2701 N   0  0  0  0  0  0  0  0  0  0  0  0
    9.1455  -16.2709   25.7401 C   0  0  1  0  0  0  0  0  0  0  0  0
    7.8366  -15.8917   26.3370 C   0  0  0  0  0  0  0  0  0  0  0  0
    7.7297  -14.4293   26.4368 C   0  0  0  0  0  0  0  0  0  0  0  0
    6.5809  -13.8332   25.9573 C   0  0  0  0  0  0  0  0  0  0  0  0
    6.3900  -12.4807   26.0161 C   0  0  0  0  0  0  0  0  0  0  0  0
    7.3760  -11.6921   26.5712 C   0  0  0  0  0  0  0  0  0  0  0  0
    8.5294  -12.2556   27.0566 C   0  0  0  0  0  0  0  0  0  0  0  0
    8.6880  -13.6222   26.9810 C   0  0  0  0  0  0  0  0  0  0  0  0
    9.7262  -17.5281   26.1978 C   0  0  0  0  0  0  0  0  0  0  0  0
   10.2093  -18.5414   25.3874 O   0  0  0  0  0  0  0  0  0  0  0  0
    9.8044  -17.7323   27.4485 O   0  0  0  0  0  0  0  0  0  0  0  0
  2  3  1  0
  2  1  1  6
  4  3  1  0
  5  4  2  0
  6  2  1  0
  7  6  2  0
  8  4  1  0
 10  9  1  1
 10 12  1  0
 10 11  1  0
 13 12  1  1
 13 14  1  0
 14  6  1  0
 15 13  1  0
 15 16  2  0
 17 15  1  0
 18 17  1  0
 18 19  1  1
 19 20  1  0
 20 21  2  0
 20 25  1  0
 21 22  1  0
 22 23  2  0
 24 23  1  0
 25 24  2  0
 26 18  1  0
 27 26  1  0
 28 26  2  0
M  END
$$$$
