GQY.pdb
     RDKit          3D

 26 26  0  0  1  0  0  0  0  0999 V2000
    7.9052  -12.1749   18.1144 N   0  0  0  0  0  0  0  0  0  0  0  0
    8.7157  -13.3507   18.4120 C   0  0  0  0  0  0  0  0  0  0  0  0
    8.2277  -13.9776   19.6981 C   0  0  0  0  0  0  0  0  0  0  0  0
    7.9027  -13.2410   20.6598 O   0  0  0  0  0  0  0  0  0  0  0  0
    6.7551  -20.3335   20.5847 N   0  0  0  0  0  0  0  0  0  0  0  0
    6.4520  -19.6201   21.7804 C   0  0  0  0  0  0  0  0  0  0  0  0
    5.8837  -20.2653   22.6884 O   0  0  0  0  0  0  0  0  0  0  0  0
    6.7817  -18.1962   21.9641 C   0  0  0  0  0  0  0  0  0  0  0  0
    7.3354  -17.5287   20.7476 C   0  0  0  0  0  0  0  0  0  0  0  0
    7.6877  -16.1077   20.9882 C   0  0  2  0  0  0  0  0  0  0  0  0
    8.1347  -15.3839   19.8282 N   0  0  0  0  0  0  0  0  0  0  0  0
    8.5378  -15.8996   22.1970 C   0  0  0  0  0  0  0  0  0  0  0  0
    9.7605  -15.9936   22.1161 O   0  0  0  0  0  0  0  0  0  0  0  0
   10.8890  -14.5998   30.7153 O   0  0  0  0  0  0  0  0  0  0  0  0
   10.1823  -14.6967   29.5174 C   0  0  0  0  0  0  0  0  0  0  0  0
    9.6918  -15.9030   29.0685 C   0  0  0  0  0  0  0  0  0  0  0  0
    8.9905  -15.9824   27.8744 C   0  0  0  0  0  0  0  0  0  0  0  0
    8.7516  -14.8766   27.0876 C   0  0  0  0  0  0  0  0  0  0  0  0
    8.0229  -14.8983   25.8122 C   0  0  0  0  0  0  0  0  0  0  0  0
    8.8204  -15.4092   24.6482 C   0  0  2  0  0  0  0  0  0  0  0  0
    7.9765  -15.5904   23.4660 N   0  0  0  0  0  0  0  0  0  0  0  0
    9.6201  -16.6106   24.9126 C   0  0  0  0  0  0  0  0  0  0  0  0
    9.1017  -17.7363   24.8723 O   0  0  0  0  0  0  0  0  0  0  0  0
    9.2505  -13.6767   27.5535 C   0  0  0  0  0  0  0  0  0  0  0  0
    9.9503  -13.5831   28.7403 C   0  0  0  0  0  0  0  0  0  0  0  0
   10.9550  -16.4784   25.2066 O   0  0  0  0  0  0  0  0  0  0  0  0
  2  3  1  0
  2  1  1  0
  3  4  2  0
  5  6  1  0
  6  8  1  0
  6  7  2  0
  8  9  1  0
 10  9  1  6
 10 12  1  0
 11 10  1  0
 11  3  1  0
 12 21  1  0
 13 12  2  0
 15 14  1  0
 16 15  2  0
 17 16  1  0
 18 17  2  0
 18 24  1  0
 19 18  1  0
 20 19  1  1
 21 20  1  0
 22 20  1  0
 23 22  2  0
 24 25  2  0
 25 15  1  0
 26 22  1  0
M  END
$$$$
