GQY.pdb
     RDKit          3D

 26 26  0  0  1  0  0  0  0  0999 V2000
    8.0725  -17.9657   19.0179 N   0  0  0  0  0  0  0  0  0  0  0  0
    8.4609  -16.6710   19.5669 C   0  0  0  0  0  0  0  0  0  0  0  0
    9.8101  -16.8002   20.2363 C   0  0  0  0  0  0  0  0  0  0  0  0
   10.0298  -17.7695   21.0014 O   0  0  0  0  0  0  0  0  0  0  0  0
   15.1491  -13.5591   18.5397 N   0  0  0  0  0  0  0  0  0  0  0  0
   14.4691  -14.6627   17.9479 C   0  0  0  0  0  0  0  0  0  0  0  0
   14.8229  -14.9836   16.7923 O   0  0  0  0  0  0  0  0  0  0  0  0
   13.4022  -15.4056   18.6403 C   0  0  0  0  0  0  0  0  0  0  0  0
   13.1170  -14.9278   20.0269 C   0  0  0  0  0  0  0  0  0  0  0  0
   12.0794  -15.7412   20.7074 C   0  0  2  0  0  0  0  0  0  0  0  0
   10.8255  -15.8405   20.0096 N   0  0  0  0  0  0  0  0  0  0  0  0
   11.9409  -15.4369   22.1619 C   0  0  0  0  0  0  0  0  0  0  0  0
   11.4397  -14.3754   22.5261 O   0  0  0  0  0  0  0  0  0  0  0  0
   10.0885  -15.1412   30.5860 O   0  0  0  0  0  0  0  0  0  0  0  0
   10.2854  -15.2438   29.2096 C   0  0  0  0  0  0  0  0  0  0  0  0
   10.3836  -14.1246   28.4128 C   0  0  0  0  0  0  0  0  0  0  0  0
   10.5797  -14.2440   27.0448 C   0  0  0  0  0  0  0  0  0  0  0  0
   10.6847  -15.4685   26.4216 C   0  0  0  0  0  0  0  0  0  0  0  0
   10.8852  -15.6590   24.9787 C   0  0  0  0  0  0  0  0  0  0  0  0
   12.2905  -16.0099   24.5864 C   0  0  2  0  0  0  0  0  0  0  0  0
   12.3757  -16.3463   23.1644 N   0  0  0  0  0  0  0  0  0  0  0  0
   12.9351  -17.0392   25.4099 C   0  0  0  0  0  0  0  0  0  0  0  0
   13.4186  -16.7529   26.5152 O   0  0  0  0  0  0  0  0  0  0  0  0
   10.5840  -16.5786   27.2360 C   0  0  0  0  0  0  0  0  0  0  0  0
   10.3888  -16.4745   28.5992 C   0  0  0  0  0  0  0  0  0  0  0  0
   12.9991  -18.3297   24.9447 O   0  0  0  0  0  0  0  0  0  0  0  0
  2  3  1  0
  2  1  1  0
  3  4  2  0
  5  6  1  0
  6  8  1  0
  6  7  2  0
  8  9  1  0
 10  9  1  6
 10 12  1  0
 11 10  1  0
 11  3  1  0
 12 21  1  0
 13 12  2  0
 15 14  1  0
 16 15  2  0
 17 16  1  0
 18 17  2  0
 18 24  1  0
 19 18  1  0
 20 19  1  1
 21 20  1  0
 22 20  1  0
 23 22  2  0
 24 25  2  0
 25 15  1  0
 26 22  1  0
M  END
$$$$
