GQY.pdb
     RDKit          3D

 26 26  0  0  1  0  0  0  0  0999 V2000
    8.4556  -16.2760   15.5332 N   0  0  0  0  0  0  0  0  0  0  0  0
    9.7084  -16.0311   16.2393 C   0  0  0  0  0  0  0  0  0  0  0  0
    9.5920  -16.5540   17.6529 C   0  0  0  0  0  0  0  0  0  0  0  0
    8.6478  -16.1634   18.3802 O   0  0  0  0  0  0  0  0  0  0  0  0
   13.2158  -21.3486   20.3517 N   0  0  0  0  0  0  0  0  0  0  0  0
   12.2439  -20.9145   21.2990 C   0  0  0  0  0  0  0  0  0  0  0  0
   12.2007  -21.5377   22.3822 O   0  0  0  0  0  0  0  0  0  0  0  0
   11.3264  -19.7912   21.0416 C   0  0  0  0  0  0  0  0  0  0  0  0
   11.4829  -19.1622   19.6954 C   0  0  0  0  0  0  0  0  0  0  0  0
   10.5856  -17.9963   19.5038 C   0  0  2  0  0  0  0  0  0  0  0  0
   10.5358  -17.4771   18.1632 N   0  0  0  0  0  0  0  0  0  0  0  0
   10.7368  -16.9473   20.5545 C   0  0  0  0  0  0  0  0  0  0  0  0
   11.6781  -16.1584   20.5091 O   0  0  0  0  0  0  0  0  0  0  0  0
    7.2321  -12.4925   17.8506 O   0  0  0  0  0  0  0  0  0  0  0  0
    7.5840  -13.1046   19.0528 C   0  0  0  0  0  0  0  0  0  0  0  0
    6.7659  -14.0379   19.6500 C   0  0  0  0  0  0  0  0  0  0  0  0
    7.1308  -14.6378   20.8462 C   0  0  0  0  0  0  0  0  0  0  0  0
    8.3117  -14.3363   21.4892 C   0  0  0  0  0  0  0  0  0  0  0  0
    8.7491  -14.9317   22.7591 C   0  0  0  0  0  0  0  0  0  0  0  0
    9.9757  -15.7899   22.6545 C   0  0  2  0  0  0  0  0  0  0  0  0
    9.8148  -16.8222   21.6293 N   0  0  0  0  0  0  0  0  0  0  0  0
   10.4461  -16.3712   23.9169 C   0  0  0  0  0  0  0  0  0  0  0  0
   10.4753  -17.6008   24.0743 O   0  0  0  0  0  0  0  0  0  0  0  0
    9.1187  -13.3991   20.8760 C   0  0  0  0  0  0  0  0  0  0  0  0
    8.7679  -12.7940   19.6852 C   0  0  0  0  0  0  0  0  0  0  0  0
   10.8563  -15.5385   24.9290 O   0  0  0  0  0  0  0  0  0  0  0  0
  2  3  1  0
  2  1  1  0
  3  4  2  0
  5  6  1  0
  6  8  1  0
  6  7  2  0
  8  9  1  0
 10  9  1  6
 10 12  1  0
 11 10  1  0
 11  3  1  0
 12 21  1  0
 13 12  2  0
 15 14  1  0
 16 15  2  0
 17 16  1  0
 18 17  2  0
 18 24  1  0
 19 18  1  0
 20 19  1  1
 21 20  1  0
 22 20  1  0
 23 22  2  0
 24 25  2  0
 25 15  1  0
 26 22  1  0
M  END
$$$$
