GQY.pdb
     RDKit          3D

 26 26  0  0  1  0  0  0  0  0999 V2000
    7.4442  -13.3187   18.6713 N   0  0  0  0  0  0  0  0  0  0  0  0
    8.0754  -13.0004   19.9474 C   0  0  0  0  0  0  0  0  0  0  0  0
    8.3408  -14.2823   20.7034 C   0  0  0  0  0  0  0  0  0  0  0  0
    7.4213  -15.1258   20.8311 O   0  0  0  0  0  0  0  0  0  0  0  0
   13.8835  -15.9746   20.3840 N   0  0  0  0  0  0  0  0  0  0  0  0
   12.7749  -16.1099   19.4990 C   0  0  0  0  0  0  0  0  0  0  0  0
   13.0303  -16.0911   18.2750 O   0  0  0  0  0  0  0  0  0  0  0  0
   11.3898  -16.2670   19.9749 C   0  0  0  0  0  0  0  0  0  0  0  0
   11.2550  -16.3703   21.4593 C   0  0  0  0  0  0  0  0  0  0  0  0
   10.0141  -15.7328   21.9642 C   0  0  2  0  0  0  0  0  0  0  0  0
    9.6130  -14.5396   21.2680 N   0  0  0  0  0  0  0  0  0  0  0  0
    9.9673  -15.6114   23.4509 C   0  0  0  0  0  0  0  0  0  0  0  0
   10.5682  -14.7001   24.0157 O   0  0  0  0  0  0  0  0  0  0  0  0
    6.3410  -10.6952   26.3771 O   0  0  0  0  0  0  0  0  0  0  0  0
    6.7398  -12.0311   26.3642 C   0  0  0  0  0  0  0  0  0  0  0  0
    7.8977  -12.4409   26.9875 C   0  0  0  0  0  0  0  0  0  0  0  0
    8.2804  -13.7740   26.9656 C   0  0  0  0  0  0  0  0  0  0  0  0
    7.5343  -14.7423   26.3294 C   0  0  0  0  0  0  0  0  0  0  0  0
    7.8905  -16.1662   26.2657 C   0  0  0  0  0  0  0  0  0  0  0  0
    9.2602  -16.4414   25.7180 C   0  0  2  0  0  0  0  0  0  0  0  0
    9.2394  -16.5286   24.2570 N   0  0  0  0  0  0  0  0  0  0  0  0
    9.9516  -17.5954   26.3040 C   0  0  0  0  0  0  0  0  0  0  0  0
   10.3130  -18.5439   25.5917 O   0  0  0  0  0  0  0  0  0  0  0  0
    6.3775  -14.3130   25.7105 C   0  0  0  0  0  0  0  0  0  0  0  0
    5.9844  -12.9892   25.7245 C   0  0  0  0  0  0  0  0  0  0  0  0
   10.1971  -17.6172   27.6549 O   0  0  0  0  0  0  0  0  0  0  0  0
  2  3  1  0
  2  1  1  0
  3  4  2  0
  5  6  1  0
  6  8  1  0
  6  7  2  0
  8  9  1  0
 10  9  1  1
 10 12  1  0
 11 10  1  0
 11  3  1  0
 12 21  1  0
 13 12  2  0
 15 14  1  0
 16 15  2  0
 17 16  1  0
 18 17  2  0
 18 24  1  0
 19 18  1  0
 20 19  1  1
 21 20  1  0
 22 20  1  0
 23 22  2  0
 24 25  2  0
 25 15  1  0
 26 22  1  0
M  END
$$$$
