GQY.pdb
     RDKit          3D

 26 26  0  0  1  0  0  0  0  0999 V2000
    3.8349  -18.1867   21.0168 N   0  0  0  0  0  0  0  0  0  0  0  0
    4.2735  -16.8084   21.2069 C   0  0  0  0  0  0  0  0  0  0  0  0
    5.7785  -16.7811   21.3466 C   0  0  0  0  0  0  0  0  0  0  0  0
    6.4113  -17.8612   21.4246 O   0  0  0  0  0  0  0  0  0  0  0  0
    8.3777  -14.0627   16.7350 N   0  0  0  0  0  0  0  0  0  0  0  0
    8.3123  -13.6479   18.0967 C   0  0  0  0  0  0  0  0  0  0  0  0
    8.7797  -12.5186   18.3608 O   0  0  0  0  0  0  0  0  0  0  0  0
    7.7280  -14.4860   19.1578 C   0  0  0  0  0  0  0  0  0  0  0  0
    8.4816  -14.4635   20.4477 C   0  0  0  0  0  0  0  0  0  0  0  0
    7.9061  -15.3833   21.4596 C   0  0  2  0  0  0  0  0  0  0  0  0
    6.4792  -15.5521   21.3909 N   0  0  0  0  0  0  0  0  0  0  0  0
    8.4229  -15.1509   22.8403 C   0  0  0  0  0  0  0  0  0  0  0  0
    8.1083  -14.1341   23.4548 O   0  0  0  0  0  0  0  0  0  0  0  0
    5.7339  -11.2098   26.7456 O   0  0  0  0  0  0  0  0  0  0  0  0
    6.4302  -12.3962   26.5190 C   0  0  0  0  0  0  0  0  0  0  0  0
    5.7808  -13.5471   26.1306 C   0  0  0  0  0  0  0  0  0  0  0  0
    6.4885  -14.7194   25.9090 C   0  0  0  0  0  0  0  0  0  0  0  0
    7.8558  -14.7927   26.0633 C   0  0  0  0  0  0  0  0  0  0  0  0
    8.6585  -16.0046   25.8506 C   0  0  0  0  0  0  0  0  0  0  0  0
    9.7656  -15.8504   24.8494 C   0  0  2  0  0  0  0  0  0  0  0  0
    9.2836  -16.0797   23.4865 N   0  0  0  0  0  0  0  0  0  0  0  0
   10.9728  -16.6394   25.1201 C   0  0  0  0  0  0  0  0  0  0  0  0
   11.3215  -17.5456   24.3488 O   0  0  0  0  0  0  0  0  0  0  0  0
    8.4894  -13.6297   26.4527 C   0  0  0  0  0  0  0  0  0  0  0  0
    7.7975  -12.4556   26.6768 C   0  0  0  0  0  0  0  0  0  0  0  0
   11.7180  -16.3651   26.2405 O   0  0  0  0  0  0  0  0  0  0  0  0
  2  3  1  0
  2  1  1  0
  3  4  2  0
  5  6  1  0
  6  8  1  0
  6  7  2  0
  8  9  1  0
 10  9  1  6
 10 12  1  0
 11 10  1  0
 11  3  1  0
 12 21  1  0
 13 12  2  0
 15 14  1  0
 16 15  2  0
 17 16  1  0
 18 17  2  0
 18 24  1  0
 19 18  1  0
 20 19  1  1
 21 20  1  0
 22 20  1  0
 23 22  2  0
 24 25  2  0
 25 15  1  0
 26 22  1  0
M  END
$$$$
