GQY.pdb
     RDKit          3D

 26 26  0  0  1  0  0  0  0  0999 V2000
    6.6493  -13.3044   19.4605 N   0  0  0  0  0  0  0  0  0  0  0  0
    7.9948  -13.4439   20.0069 C   0  0  0  0  0  0  0  0  0  0  0  0
    8.0487  -14.6724   20.8861 C   0  0  0  0  0  0  0  0  0  0  0  0
    6.9807  -15.1820   21.3016 O   0  0  0  0  0  0  0  0  0  0  0  0
   11.2798  -18.2578   18.0158 N   0  0  0  0  0  0  0  0  0  0  0  0
   11.2853  -18.3513   19.4376 C   0  0  0  0  0  0  0  0  0  0  0  0
   12.3320  -18.7860   19.9659 O   0  0  0  0  0  0  0  0  0  0  0  0
   10.1317  -17.9611   20.2663 C   0  0  0  0  0  0  0  0  0  0  0  0
   10.4939  -17.3760   21.5925 C   0  0  0  0  0  0  0  0  0  0  0  0
    9.4840  -16.4055   22.0818 C   0  0  2  0  0  0  0  0  0  0  0  0
    9.2892  -15.2519   21.2450 N   0  0  0  0  0  0  0  0  0  0  0  0
    9.6174  -16.0855   23.5334 C   0  0  0  0  0  0  0  0  0  0  0  0
   10.3987  -15.2123   23.9043 O   0  0  0  0  0  0  0  0  0  0  0  0
    6.5524  -10.5071   25.9484 O   0  0  0  0  0  0  0  0  0  0  0  0
    6.8259  -11.8677   26.0810 C   0  0  0  0  0  0  0  0  0  0  0  0
    6.2183  -12.8043   25.2743 C   0  0  0  0  0  0  0  0  0  0  0  0
    6.5016  -14.1544   25.4189 C   0  0  0  0  0  0  0  0  0  0  0  0
    7.3913  -14.6217   26.3618 C   0  0  0  0  0  0  0  0  0  0  0  0
    7.7266  -16.0372   26.5674 C   0  0  0  0  0  0  0  0  0  0  0  0
    9.0248  -16.4657   25.9485 C   0  0  2  0  0  0  0  0  0  0  0  0
    8.8601  -16.7661   24.5254 N   0  0  0  0  0  0  0  0  0  0  0  0
    9.7208  -17.5571   26.6393 C   0  0  0  0  0  0  0  0  0  0  0  0
   10.0176  -17.4579   27.8392 O   0  0  0  0  0  0  0  0  0  0  0  0
    7.9904  -13.6687   27.1608 C   0  0  0  0  0  0  0  0  0  0  0  0
    7.7178  -12.3215   27.0279 C   0  0  0  0  0  0  0  0  0  0  0  0
   10.0430  -18.6962   25.9431 O   0  0  0  0  0  0  0  0  0  0  0  0
  2  3  1  0
  2  1  1  0
  3  4  2  0
  5  6  1  0
  6  8  1  0
  6  7  2  0
  8  9  1  0
 10  9  1  6
 10 12  1  0
 11 10  1  0
 11  3  1  0
 12 21  1  0
 13 12  2  0
 15 14  1  0
 16 15  2  0
 17 16  1  0
 18 17  2  0
 18 24  1  0
 19 18  1  0
 20 19  1  1
 21 20  1  0
 22 20  1  0
 23 22  2  0
 24 25  2  0
 25 15  1  0
 26 22  1  0
M  END
$$$$
