GQY.pdb
     RDKit          3D

 26 26  0  0  1  0  0  0  0  0999 V2000
    5.0745  -19.7444   21.5668 N   0  0  0  0  0  0  0  0  0  0  0  0
    5.2676  -18.6198   22.4759 C   0  0  0  0  0  0  0  0  0  0  0  0
    6.4176  -17.7729   21.9806 C   0  0  0  0  0  0  0  0  0  0  0  0
    7.5121  -18.3189   21.7032 O   0  0  0  0  0  0  0  0  0  0  0  0
    7.3954  -13.6086   18.3255 N   0  0  0  0  0  0  0  0  0  0  0  0
    8.3340  -13.1947   19.3146 C   0  0  0  0  0  0  0  0  0  0  0  0
    9.4512  -12.8141   18.9016 O   0  0  0  0  0  0  0  0  0  0  0  0
    8.0289  -13.2033   20.7557 C   0  0  0  0  0  0  0  0  0  0  0  0
    6.8857  -14.0853   21.1396 C   0  0  0  0  0  0  0  0  0  0  0  0
    7.3291  -15.4237   21.6016 C   0  0  2  0  0  0  0  0  0  0  0  0
    6.2725  -16.3733   21.8277 N   0  0  0  0  0  0  0  0  0  0  0  0
    8.3420  -15.3722   22.6964 C   0  0  0  0  0  0  0  0  0  0  0  0
    9.4439  -14.8663   22.4954 O   0  0  0  0  0  0  0  0  0  0  0  0
    5.0419  -10.6976   26.2902 O   0  0  0  0  0  0  0  0  0  0  0  0
    5.8509  -11.8330   26.3096 C   0  0  0  0  0  0  0  0  0  0  0  0
    7.2176  -11.7435   26.1638 C   0  0  0  0  0  0  0  0  0  0  0  0
    8.0084  -12.8830   26.1857 C   0  0  0  0  0  0  0  0  0  0  0  0
    7.4767  -14.1434   26.3516 C   0  0  0  0  0  0  0  0  0  0  0  0
    8.2602  -15.3858   26.3761 C   0  0  0  0  0  0  0  0  0  0  0  0
    9.0009  -15.6800   25.1047 C   0  0  2  0  0  0  0  0  0  0  0  0
    8.0766  -15.8971   23.9906 N   0  0  0  0  0  0  0  0  0  0  0  0
    9.9879  -16.7626   25.1878 C   0  0  0  0  0  0  0  0  0  0  0  0
    9.9467  -17.7172   24.3974 O   0  0  0  0  0  0  0  0  0  0  0  0
    6.1057  -14.2133   26.4962 C   0  0  0  0  0  0  0  0  0  0  0  0
    5.3063  -13.0874   26.4765 C   0  0  0  0  0  0  0  0  0  0  0  0
   10.9634  -16.7105   26.1529 O   0  0  0  0  0  0  0  0  0  0  0  0
  2  3  1  0
  2  1  1  0
  3  4  2  0
  5  6  1  0
  6  8  1  0
  6  7  2  0
  8  9  1  0
 10  9  1  1
 10 12  1  0
 11 10  1  0
 11  3  1  0
 12 21  1  0
 13 12  2  0
 15 14  1  0
 16 15  2  0
 17 16  1  0
 18 17  2  0
 18 24  1  0
 19 18  1  0
 20 19  1  1
 21 20  1  0
 22 20  1  0
 23 22  2  0
 24 25  2  0
 25 15  1  0
 26 22  1  0
M  END
$$$$
