GQY.pdb
     RDKit          3D

 26 26  0  0  1  0  0  0  0  0999 V2000
    6.6127  -19.3191   19.8640 N   0  0  0  0  0  0  0  0  0  0  0  0
    6.1007  -18.2573   20.7235 C   0  0  0  0  0  0  0  0  0  0  0  0
    7.1967  -17.2456   20.9693 C   0  0  0  0  0  0  0  0  0  0  0  0
    8.3962  -17.6073   20.9083 O   0  0  0  0  0  0  0  0  0  0  0  0
    9.3711  -12.5681   19.0316 N   0  0  0  0  0  0  0  0  0  0  0  0
    8.1351  -13.1211   18.5876 C   0  0  0  0  0  0  0  0  0  0  0  0
    7.9573  -13.1728   17.3510 O   0  0  0  0  0  0  0  0  0  0  0  0
    7.1039  -13.6153   19.5161 C   0  0  0  0  0  0  0  0  0  0  0  0
    7.4779  -13.5236   20.9597 C   0  0  0  0  0  0  0  0  0  0  0  0
    7.8226  -14.8432   21.5437 C   0  0  2  0  0  0  0  0  0  0  0  0
    6.8841  -15.8978   21.2677 N   0  0  0  0  0  0  0  0  0  0  0  0
    8.2501  -14.7710   22.9717 C   0  0  0  0  0  0  0  0  0  0  0  0
    7.8570  -13.8535   23.6887 O   0  0  0  0  0  0  0  0  0  0  0  0
    6.1068  -10.5276   26.9687 O   0  0  0  0  0  0  0  0  0  0  0  0
    6.6109  -11.7945   26.6778 C   0  0  0  0  0  0  0  0  0  0  0  0
    7.9634  -12.0534   26.7075 C   0  0  0  0  0  0  0  0  0  0  0  0
    8.4489  -13.3196   26.4157 C   0  0  0  0  0  0  0  0  0  0  0  0
    7.6170  -14.3676   26.0863 C   0  0  0  0  0  0  0  0  0  0  0  0
    8.0709  -15.7264   25.7610 C   0  0  0  0  0  0  0  0  0  0  0  0
    9.3571  -15.7853   24.9902 C   0  0  2  0  0  0  0  0  0  0  0  0
    9.1132  -15.7429   23.5476 N   0  0  0  0  0  0  0  0  0  0  0  0
   10.2498  -16.8960   25.3402 C   0  0  0  0  0  0  0  0  0  0  0  0
   10.5818  -17.7327   24.4873 O   0  0  0  0  0  0  0  0  0  0  0  0
    6.2651  -14.0894   26.0618 C   0  0  0  0  0  0  0  0  0  0  0  0
    5.7680  -12.8337   26.3500 C   0  0  0  0  0  0  0  0  0  0  0  0
   10.7177  -17.0027   26.6269 O   0  0  0  0  0  0  0  0  0  0  0  0
  2  3  1  0
  2  1  1  0
  3  4  2  0
  5  6  1  0
  6  8  1  0
  6  7  2  0
  8  9  1  0
 10  9  1  1
 10 12  1  0
 11 10  1  0
 11  3  1  0
 12 21  1  0
 13 12  2  0
 15 14  1  0
 16 15  2  0
 17 16  1  0
 18 17  2  0
 18 24  1  0
 19 18  1  0
 20 19  1  1
 21 20  1  0
 22 20  1  0
 23 22  2  0
 24 25  2  0
 25 15  1  0
 26 22  1  0
M  END
$$$$
