GQY.pdb
     RDKit          3D

 26 26  0  0  1  0  0  0  0  0999 V2000
   12.3791  -15.8553   18.0592 N   0  0  0  0  0  0  0  0  0  0  0  0
   11.2314  -16.6314   18.5160 C   0  0  0  0  0  0  0  0  0  0  0  0
   10.6682  -15.9957   19.7666 C   0  0  0  0  0  0  0  0  0  0  0  0
   11.3305  -15.1131   20.3628 O   0  0  0  0  0  0  0  0  0  0  0  0
    6.2679  -17.9776   23.5722 N   0  0  0  0  0  0  0  0  0  0  0  0
    6.1654  -16.5692   23.7632 C   0  0  0  0  0  0  0  0  0  0  0  0
    5.5832  -16.1861   24.8014 O   0  0  0  0  0  0  0  0  0  0  0  0
    6.7099  -15.5932   22.8038 C   0  0  0  0  0  0  0  0  0  0  0  0
    7.3261  -16.2018   21.5863 C   0  0  0  0  0  0  0  0  0  0  0  0
    8.7731  -15.8968   21.4673 C   0  0  2  0  0  0  0  0  0  0  0  0
    9.4045  -16.3858   20.2708 N   0  0  0  0  0  0  0  0  0  0  0  0
    9.5456  -16.1697   22.7147 C   0  0  0  0  0  0  0  0  0  0  0  0
   10.2229  -17.1907   22.8112 O   0  0  0  0  0  0  0  0  0  0  0  0
   11.3739  -15.8441   31.4499 O   0  0  0  0  0  0  0  0  0  0  0  0
   11.0688  -15.5225   30.1281 C   0  0  0  0  0  0  0  0  0  0  0  0
   12.0228  -15.5806   29.1363 C   0  0  0  0  0  0  0  0  0  0  0  0
   11.7028  -15.2576   27.8258 C   0  0  0  0  0  0  0  0  0  0  0  0
   10.4345  -14.8679   27.4538 C   0  0  0  0  0  0  0  0  0  0  0  0
   10.0370  -14.5072   26.0862 C   0  0  0  0  0  0  0  0  0  0  0  0
   10.1892  -15.6117   25.0819 C   0  0  2  0  0  0  0  0  0  0  0  0
    9.5281  -15.2756   23.8199 N   0  0  0  0  0  0  0  0  0  0  0  0
    9.7882  -16.9443   25.5469 C   0  0  0  0  0  0  0  0  0  0  0  0
   10.6391  -17.7673   25.9162 O   0  0  0  0  0  0  0  0  0  0  0  0
    9.4919  -14.8155   28.4609 C   0  0  0  0  0  0  0  0  0  0  0  0
    9.7965  -15.1344   29.7696 C   0  0  0  0  0  0  0  0  0  0  0  0
    8.4556  -17.2754   25.5705 O   0  0  0  0  0  0  0  0  0  0  0  0
  2  3  1  0
  2  1  1  0
  3  4  2  0
  5  6  1  0
  6  8  1  0
  6  7  2  0
  8  9  1  0
 10  9  1  1
 10 12  1  0
 11 10  1  0
 11  3  1  0
 12 21  1  0
 13 12  2  0
 15 14  1  0
 16 15  2  0
 17 16  1  0
 18 17  2  0
 18 24  1  0
 19 18  1  0
 20 19  1  1
 21 20  1  0
 22 20  1  0
 23 22  2  0
 24 25  2  0
 25 15  1  0
 26 22  1  0
M  END
$$$$
