GMI.pdb
     RDKit          3D

 21 20  0  0  1  0  0  0  0  0999 V2000
   22.9566  -11.9021  -21.1120 N   0  0  0  0  0  0  0  0  0  0  0  0
   23.4751  -11.2952  -19.9016 C   0  0  0  0  0  0  0  0  0  0  0  0
   22.4273  -10.4673  -19.2713 C   0  0  0  0  0  0  0  0  0  0  0  0
   21.8859   -9.5400  -19.9089 O   0  0  0  0  0  0  0  0  0  0  0  0
   17.9430  -13.1084  -15.8452 C   0  0  0  0  0  0  0  0  0  0  0  0
   17.5246  -11.3459  -15.8987 S   0  0  0  0  0  0  0  0  0  0  0  0
   19.0586  -10.3657  -15.7105 C   0  0  0  0  0  0  0  0  0  0  0  0
   20.1538  -11.0049  -16.5076 C   0  0  0  0  0  0  0  0  0  0  0  0
   20.9730  -10.0477  -17.3001 C   0  0  2  0  0  0  0  0  0  0  0  0
   22.0762  -10.7798  -17.9223 N   0  0  0  0  0  0  0  0  0  0  0  0
   21.6352   -9.0372  -16.3984 C   0  0  0  0  0  0  0  0  0  0  0  0
   22.5982   -9.4546  -15.7290 O   0  0  0  0  0  0  0  0  0  0  0  0
   22.7086   -3.1126  -16.6917 C   0  0  0  0  0  0  0  0  0  0  0  0
   22.0905   -4.1976  -15.8619 C   0  0  0  0  0  0  0  0  0  0  0  0
   22.3998   -5.5885  -16.2762 C   0  0  2  0  0  0  0  0  0  0  0  0
   22.3700   -5.7651  -17.7916 C   0  0  0  0  0  0  0  0  0  0  0  0
   21.8719   -6.7223  -15.4888 C   0  0  2  0  0  0  0  0  0  0  0  0
   21.2147   -7.7091  -16.3004 N   0  0  0  0  0  0  0  0  0  0  0  0
   21.2851   -6.4614  -14.1737 C   0  0  0  0  0  0  0  0  0  0  0  0
   21.8537   -5.9091  -13.1940 O   0  0  0  0  0  0  0  0  0  0  0  0
   19.9525   -6.8162  -13.8603 O   0  0  0  0  0  0  0  0  0  0  0  0
  2  1  1  0
  3  2  1  0
  3 10  1  0
  4  3  2  0
  6  5  1  0
  7  8  1  0
  7  6  1  0
  9  8  1  1
  9 10  1  0
  9 11  1  0
 11 12  2  0
 13 14  1  0
 15 14  1  0
 15 16  1  6
 17 15  1  0
 18 11  1  0
 17 18  1  6
 19 17  1  0
 20 19  2  0
 21 19  1  0
M  END
$$$$
