GMI.pdb
     RDKit          3D

 21 20  0  0  1  0  0  0  0  0999 V2000
   28.3638  -21.7952  -15.6574 N   0  0  0  0  0  0  0  0  0  0  0  0
   28.1626  -20.8559  -14.5713 C   0  0  0  0  0  0  0  0  0  0  0  0
   27.0877  -21.3433  -13.6839 C   0  0  0  0  0  0  0  0  0  0  0  0
   26.3426  -22.2770  -14.0479 O   0  0  0  0  0  0  0  0  0  0  0  0
   27.1958  -19.4105   -7.6743 C   0  0  0  0  0  0  0  0  0  0  0  0
   25.7543  -20.4883   -7.4635 S   0  0  0  0  0  0  0  0  0  0  0  0
   25.1718  -21.0296   -9.1118 C   0  0  0  0  0  0  0  0  0  0  0  0
   26.1789  -20.6317  -10.1465 C   0  0  0  0  0  0  0  0  0  0  0  0
   25.8985  -21.1605  -11.5092 C   0  0  2  0  0  0  0  0  0  0  0  0
   26.9514  -20.7012  -12.4151 N   0  0  0  0  0  0  0  0  0  0  0  0
   24.6254  -20.5698  -12.0599 C   0  0  0  0  0  0  0  0  0  0  0  0
   24.6249  -19.3357  -12.2231 O   0  0  0  0  0  0  0  0  0  0  0  0
   23.2776  -20.6605  -16.6640 C   0  0  0  0  0  0  0  0  0  0  0  0
   23.4261  -20.5327  -15.1776 C   0  0  0  0  0  0  0  0  0  0  0  0
   22.2154  -20.8366  -14.3752 C   0  0  2  0  0  0  0  0  0  0  0  0
   20.9448  -20.2672  -14.9996 C   0  0  0  0  0  0  0  0  0  0  0  0
   22.2823  -20.7856  -12.8996 C   0  0  2  0  0  0  0  0  0  0  0  0
   23.5015  -21.3364  -12.3757 N   0  0  0  0  0  0  0  0  0  0  0  0
   21.0662  -21.0353  -12.1246 C   0  0  0  0  0  0  0  0  0  0  0  0
   20.6103  -22.1599  -11.7846 O   0  0  0  0  0  0  0  0  0  0  0  0
   20.2457  -19.9848  -11.6523 O   0  0  0  0  0  0  0  0  0  0  0  0
  2  1  1  0
  3  2  1  0
  3 10  1  0
  4  3  2  0
  6  5  1  0
  7  8  1  0
  7  6  1  0
  9  8  1  1
  9 10  1  0
  9 11  1  0
 11 12  2  0
 13 14  1  0
 15 14  1  0
 15 16  1  6
 17 15  1  0
 18 11  1  0
 17 18  1  1
 19 17  1  0
 20 19  2  0
 21 19  1  0
M  END
$$$$
