GMI.pdb
     RDKit          3D

 21 20  0  0  1  0  0  0  0  0999 V2000
   20.1738  -22.0590  -13.4971 N   0  0  0  0  0  0  0  0  0  0  0  0
   21.2956  -21.9250  -14.4058 C   0  0  0  0  0  0  0  0  0  0  0  0
   21.8736  -20.5713  -14.2873 C   0  0  0  0  0  0  0  0  0  0  0  0
   21.7703  -19.9313  -13.2199 O   0  0  0  0  0  0  0  0  0  0  0  0
   27.8456  -16.3820  -17.0925 C   0  0  0  0  0  0  0  0  0  0  0  0
   26.9132  -17.9331  -16.9980 S   0  0  0  0  0  0  0  0  0  0  0  0
   25.3777  -17.6455  -16.0447 C   0  0  0  0  0  0  0  0  0  0  0  0
   24.5610  -18.9009  -16.0336 C   0  0  0  0  0  0  0  0  0  0  0  0
   23.2679  -18.7839  -15.3060 C   0  0  2  0  0  0  0  0  0  0  0  0
   22.5420  -20.0473  -15.4359 N   0  0  0  0  0  0  0  0  0  0  0  0
   22.3794  -17.7551  -15.9578 C   0  0  0  0  0  0  0  0  0  0  0  0
   21.8137  -18.1122  -17.0076 O   0  0  0  0  0  0  0  0  0  0  0  0
   19.3536  -15.3951  -12.7283 C   0  0  0  0  0  0  0  0  0  0  0  0
   19.5911  -15.8884  -14.1241 C   0  0  0  0  0  0  0  0  0  0  0  0
   20.3268  -14.9651  -15.0231 C   0  0  2  0  0  0  0  0  0  0  0  0
   19.4548  -13.8140  -15.5160 C   0  0  0  0  0  0  0  0  0  0  0  0
   21.2852  -15.5096  -16.0077 C   0  0  2  0  0  0  0  0  0  0  0  0
   22.1854  -16.4735  -15.4378 N   0  0  0  0  0  0  0  0  0  0  0  0
   21.8417  -14.6172  -17.0254 C   0  0  0  0  0  0  0  0  0  0  0  0
   22.8333  -13.8512  -16.8912 O   0  0  0  0  0  0  0  0  0  0  0  0
   21.2968  -14.5278  -18.3273 O   0  0  0  0  0  0  0  0  0  0  0  0
  2  1  1  0
  3  2  1  0
  3 10  1  0
  4  3  2  0
  6  5  1  0
  7  8  1  0
  7  6  1  0
  9  8  1  6
  9 10  1  0
  9 11  1  0
 11 12  2  0
 13 14  1  0
 15 14  1  0
 15 16  1  6
 17 15  1  0
 18 11  1  0
 17 18  1  1
 19 17  1  0
 20 19  2  0
 21 19  1  0
M  END
$$$$
