GMI.pdb
     RDKit          3D

 21 20  0  0  1  0  0  0  0  0999 V2000
   15.0467  -11.9525  -19.2976 N   0  0  0  0  0  0  0  0  0  0  0  0
   16.4945  -11.9495  -19.3757 C   0  0  0  0  0  0  0  0  0  0  0  0
   17.0637  -11.6055  -18.0573 C   0  0  0  0  0  0  0  0  0  0  0  0
   16.3968  -10.9442  -17.2343 O   0  0  0  0  0  0  0  0  0  0  0  0
   21.6733  -15.5780  -16.8017 C   0  0  0  0  0  0  0  0  0  0  0  0
   20.8890  -15.1787  -15.2176 S   0  0  0  0  0  0  0  0  0  0  0  0
   19.4975  -14.0285  -15.5174 C   0  0  0  0  0  0  0  0  0  0  0  0
   20.0157  -12.7884  -16.1785 C   0  0  0  0  0  0  0  0  0  0  0  0
   18.9715  -11.7695  -16.4729 C   0  0  2  0  0  0  0  0  0  0  0  0
   18.3895  -12.0613  -17.7830 N   0  0  0  0  0  0  0  0  0  0  0  0
   19.5863  -10.4004  -16.6157 C   0  0  0  0  0  0  0  0  0  0  0  0
   20.3850  -10.2589  -17.5600 O   0  0  0  0  0  0  0  0  0  0  0  0
   18.9508   -4.6520  -17.2963 C   0  0  0  0  0  0  0  0  0  0  0  0
   19.7207   -5.6310  -16.4617 C   0  0  0  0  0  0  0  0  0  0  0  0
   19.2976   -7.0494  -16.5681 C   0  0  2  0  0  0  0  0  0  0  0  0
   17.7822   -7.1994  -16.6649 C   0  0  0  0  0  0  0  0  0  0  0  0
   19.9942   -8.0835  -15.7746 C   0  0  2  0  0  0  0  0  0  0  0  0
   19.2957   -9.3389  -15.7559 N   0  0  0  0  0  0  0  0  0  0  0  0
   20.6701   -7.6931  -14.5367 C   0  0  0  0  0  0  0  0  0  0  0  0
   20.4161   -8.1158  -13.3770 O   0  0  0  0  0  0  0  0  0  0  0  0
   21.7330   -6.7603  -14.5214 O   0  0  0  0  0  0  0  0  0  0  0  0
  2  1  1  0
  3  2  1  0
  3 10  1  0
  4  3  2  0
  6  5  1  0
  7  8  1  0
  7  6  1  0
  9  8  1  6
  9 10  1  0
  9 11  1  0
 11 12  2  0
 13 14  1  0
 15 14  1  0
 15 16  1  1
 17 15  1  0
 18 11  1  0
 17 18  1  1
 19 17  1  0
 20 19  2  0
 21 19  1  0
M  END
$$$$
