GMI.pdb
     RDKit          3D

 21 20  0  0  1  0  0  0  0  0999 V2000
   15.1980  -12.2054  -13.1192 N   0  0  0  0  0  0  0  0  0  0  0  0
   15.8731  -11.0594  -13.6966 C   0  0  0  0  0  0  0  0  0  0  0  0
   16.4273  -10.2136  -12.6205 C   0  0  0  0  0  0  0  0  0  0  0  0
   16.1962  -10.4823  -11.4231 O   0  0  0  0  0  0  0  0  0  0  0  0
   23.0031   -8.7420  -12.5393 C   0  0  0  0  0  0  0  0  0  0  0  0
   21.6880   -7.8307  -13.3904 S   0  0  0  0  0  0  0  0  0  0  0  0
   20.0917   -8.6739  -13.0906 C   0  0  0  0  0  0  0  0  0  0  0  0
   19.1052   -7.6853  -12.5495 C   0  0  0  0  0  0  0  0  0  0  0  0
   17.8747   -8.2979  -11.9785 C   0  0  2  0  0  0  0  0  0  0  0  0
   17.2244   -9.0965  -13.0175 N   0  0  0  0  0  0  0  0  0  0  0  0
   16.8680   -7.2359  -11.6158 C   0  0  0  0  0  0  0  0  0  0  0  0
   16.1976   -6.7776  -12.5593 O   0  0  0  0  0  0  0  0  0  0  0  0
   13.7539   -6.9195   -6.7556 C   0  0  0  0  0  0  0  0  0  0  0  0
   14.9265   -6.5487   -7.6132 C   0  0  0  0  0  0  0  0  0  0  0  0
   14.6409   -6.3572   -9.0567 C   0  0  2  0  0  0  0  0  0  0  0  0
   13.8110   -7.4958   -9.6423 C   0  0  0  0  0  0  0  0  0  0  0  0
   15.6862   -5.8046   -9.9435 C   0  0  2  0  0  0  0  0  0  0  0  0
   16.6790   -6.7762  -10.3107 N   0  0  0  0  0  0  0  0  0  0  0  0
   16.1606   -4.4389   -9.7168 C   0  0  0  0  0  0  0  0  0  0  0  0
   15.4467   -3.4109   -9.5689 O   0  0  0  0  0  0  0  0  0  0  0  0
   17.5367   -4.1246   -9.6311 O   0  0  0  0  0  0  0  0  0  0  0  0
  2  1  1  0
  3  2  1  0
  3 10  1  0
  4  3  2  0
  6  5  1  0
  7  8  1  0
  7  6  1  0
  9  8  1  6
  9 10  1  0
  9 11  1  0
 11 12  2  0
 13 14  1  0
 15 14  1  0
 15 16  1  6
 17 15  1  0
 18 11  1  0
 17 18  1  1
 19 17  1  0
 20 19  2  0
 21 19  1  0
M  END
$$$$
