GMI.pdb
     RDKit          3D

 21 20  0  0  1  0  0  0  0  0999 V2000
   18.0055  -12.9531  -20.3500 N   0  0  0  0  0  0  0  0  0  0  0  0
   19.0408  -11.9405  -20.2793 C   0  0  0  0  0  0  0  0  0  0  0  0
   19.5641  -11.8587  -18.9009 C   0  0  0  0  0  0  0  0  0  0  0  0
   18.7826  -11.8640  -17.9269 O   0  0  0  0  0  0  0  0  0  0  0  0
   25.9611  -12.8904  -14.4671 C   0  0  0  0  0  0  0  0  0  0  0  0
   25.1556  -13.0090  -16.0861 S   0  0  0  0  0  0  0  0  0  0  0  0
   23.5395  -12.1537  -16.0091 C   0  0  0  0  0  0  0  0  0  0  0  0
   22.8655  -12.2507  -17.3432 C   0  0  0  0  0  0  0  0  0  0  0  0
   21.5304  -11.5955  -17.4038 C   0  0  2  0  0  0  0  0  0  0  0  0
   20.9821  -11.7748  -18.7482 N   0  0  0  0  0  0  0  0  0  0  0  0
   21.6592  -10.1034  -17.2312 C   0  0  0  0  0  0  0  0  0  0  0  0
   22.4210   -9.5275  -18.0298 O   0  0  0  0  0  0  0  0  0  0  0  0
   19.3800   -4.9544  -17.7762 C   0  0  0  0  0  0  0  0  0  0  0  0
   20.2622   -5.6884  -16.8114 C   0  0  0  0  0  0  0  0  0  0  0  0
   20.2573   -7.1681  -16.9230 C   0  0  2  0  0  0  0  0  0  0  0  0
   18.8588   -7.7295  -17.1626 C   0  0  0  0  0  0  0  0  0  0  0  0
   21.1277   -7.9725  -16.0401 C   0  0  2  0  0  0  0  0  0  0  0  0
   20.9781   -9.3867  -16.2448 N   0  0  0  0  0  0  0  0  0  0  0  0
   21.3433   -7.5309  -14.6616 C   0  0  0  0  0  0  0  0  0  0  0  0
   21.1137   -8.1954  -13.6157 O   0  0  0  0  0  0  0  0  0  0  0  0
   21.8627   -6.2522  -14.3533 O   0  0  0  0  0  0  0  0  0  0  0  0
  2  1  1  0
  3  2  1  0
  3 10  1  0
  4  3  2  0
  6  5  1  0
  7  8  1  0
  7  6  1  0
  9  8  1  6
  9 10  1  0
  9 11  1  0
 11 12  2  0
 13 14  1  0
 15 14  1  0
 15 16  1  1
 17 15  1  0
 18 11  1  0
 17 18  1  1
 19 17  1  0
 20 19  2  0
 21 19  1  0
M  END
$$$$
