GMI.pdb
     RDKit          3D

 21 20  0  0  1  0  0  0  0  0999 V2000
   28.4074  -22.1020  -15.5668 N   0  0  0  0  0  0  0  0  0  0  0  0
   28.1817  -21.0075  -14.6430 C   0  0  0  0  0  0  0  0  0  0  0  0
   27.2053  -21.4176  -13.6139 C   0  0  0  0  0  0  0  0  0  0  0  0
   26.4207  -22.3650  -13.8292 O   0  0  0  0  0  0  0  0  0  0  0  0
   27.4620  -19.6940   -6.9445 C   0  0  0  0  0  0  0  0  0  0  0  0
   26.3619  -21.0112   -7.5267 S   0  0  0  0  0  0  0  0  0  0  0  0
   25.5020  -20.4416   -9.0384 C   0  0  0  0  0  0  0  0  0  0  0  0
   26.5040  -20.2557  -10.1360 C   0  0  0  0  0  0  0  0  0  0  0  0
   26.1803  -20.9874  -11.3910 C   0  0  2  0  0  0  0  0  0  0  0  0
   27.2090  -20.6864  -12.3866 N   0  0  0  0  0  0  0  0  0  0  0  0
   24.8954  -20.4759  -11.9913 C   0  0  0  0  0  0  0  0  0  0  0  0
   24.9320  -19.3188  -12.4489 O   0  0  0  0  0  0  0  0  0  0  0  0
   21.4097  -20.7133  -16.3918 C   0  0  0  0  0  0  0  0  0  0  0  0
   21.3094  -20.5323  -14.9068 C   0  0  0  0  0  0  0  0  0  0  0  0
   22.4773  -20.9932  -14.1159 C   0  0  2  0  0  0  0  0  0  0  0  0
   23.0080  -22.3420  -14.5926 C   0  0  0  0  0  0  0  0  0  0  0  0
   22.5052  -20.7742  -12.6545 C   0  0  2  0  0  0  0  0  0  0  0  0
   23.7223  -21.2319  -12.0435 N   0  0  0  0  0  0  0  0  0  0  0  0
   21.2754  -20.9646  -11.8844 C   0  0  0  0  0  0  0  0  0  0  0  0
   21.1241  -21.7179  -10.8855 O   0  0  0  0  0  0  0  0  0  0  0  0
   20.0773  -20.2821  -12.1985 O   0  0  0  0  0  0  0  0  0  0  0  0
  2  1  1  0
  3  2  1  0
  3 10  1  0
  4  3  2  0
  6  5  1  0
  7  8  1  0
  7  6  1  0
  9  8  1  1
  9 10  1  0
  9 11  1  0
 11 12  2  0
 13 14  1  0
 15 14  1  0
 15 16  1  1
 17 15  1  0
 18 11  1  0
 17 18  1  1
 19 17  1  0
 20 19  2  0
 21 19  1  0
M  END
$$$$
