GMI.pdb
     RDKit          3D

 21 20  0  0  1  0  0  0  0  0999 V2000
   28.5149  -21.3736  -16.0287 N   0  0  0  0  0  0  0  0  0  0  0  0
   28.0781  -20.4355  -15.0130 C   0  0  0  0  0  0  0  0  0  0  0  0
   27.1229  -21.0971  -14.1017 C   0  0  0  0  0  0  0  0  0  0  0  0
   26.5446  -22.1486  -14.4473 O   0  0  0  0  0  0  0  0  0  0  0  0
   27.2878  -20.6283   -7.4029 C   0  0  0  0  0  0  0  0  0  0  0  0
   25.5887  -20.2513   -7.9076 S   0  0  0  0  0  0  0  0  0  0  0  0
   25.2457  -21.0796   -9.5030 C   0  0  0  0  0  0  0  0  0  0  0  0
   26.1518  -20.5185  -10.5554 C   0  0  0  0  0  0  0  0  0  0  0  0
   25.9496  -21.0995  -11.9107 C   0  0  2  0  0  0  0  0  0  0  0  0
   26.9029  -20.4807  -12.8319 N   0  0  0  0  0  0  0  0  0  0  0  0
   24.5910  -20.7331  -12.4518 C   0  0  0  0  0  0  0  0  0  0  0  0
   24.4269  -19.5339  -12.7426 O   0  0  0  0  0  0  0  0  0  0  0  0
   22.8493  -22.9600  -16.6990 C   0  0  0  0  0  0  0  0  0  0  0  0
   23.1223  -22.0944  -15.5056 C   0  0  0  0  0  0  0  0  0  0  0  0
   22.0454  -22.0346  -14.4864 C   0  0  2  0  0  0  0  0  0  0  0  0
   20.6680  -21.8183  -15.1064 C   0  0  0  0  0  0  0  0  0  0  0  0
   22.2872  -21.3395  -13.2048 C   0  0  2  0  0  0  0  0  0  0  0  0
   23.5621  -21.6614  -12.6258 N   0  0  0  0  0  0  0  0  0  0  0  0
   21.1729  -21.1598  -12.2732 C   0  0  0  0  0  0  0  0  0  0  0  0
   20.2968  -20.2549  -12.3161 O   0  0  0  0  0  0  0  0  0  0  0  0
   20.9560  -22.0326  -11.1819 O   0  0  0  0  0  0  0  0  0  0  0  0
  2  1  1  0
  3  2  1  0
  3 10  1  0
  4  3  2  0
  6  5  1  0
  7  8  1  0
  7  6  1  0
  9  8  1  1
  9 10  1  0
  9 11  1  0
 11 12  2  0
 13 14  1  0
 15 14  1  0
 15 16  1  6
 17 15  1  0
 18 11  1  0
 17 18  1  1
 19 17  1  0
 20 19  2  0
 21 19  1  0
M  END
$$$$
