GMI.pdb
     RDKit          3D

 21 20  0  0  1  0  0  0  0  0999 V2000
   31.0936  -22.0273  -11.0400 N   0  0  0  0  0  0  0  0  0  0  0  0
   30.6019  -20.8508  -10.3499 C   0  0  0  0  0  0  0  0  0  0  0  0
   29.3593  -21.1821   -9.6242 C   0  0  0  0  0  0  0  0  0  0  0  0
   28.8075  -22.2902   -9.7891 O   0  0  0  0  0  0  0  0  0  0  0  0
   27.1418  -19.9861   -3.3732 C   0  0  0  0  0  0  0  0  0  0  0  0
   28.3476  -18.9840   -4.2819 S   0  0  0  0  0  0  0  0  0  0  0  0
   28.7134  -19.7990   -5.8792 C   0  0  0  0  0  0  0  0  0  0  0  0
   27.5472  -19.6219   -6.8022 C   0  0  0  0  0  0  0  0  0  0  0  0
   27.5965  -20.4740   -8.0216 C   0  0  2  0  0  0  0  0  0  0  0  0
   28.8361  -20.1865   -8.7433 N   0  0  0  0  0  0  0  0  0  0  0  0
   26.4929  -20.1014   -8.9787 C   0  0  0  0  0  0  0  0  0  0  0  0
   26.3660  -18.8858   -9.2154 O   0  0  0  0  0  0  0  0  0  0  0  0
   26.6643  -21.1633  -13.8587 C   0  0  0  0  0  0  0  0  0  0  0  0
   26.4452  -21.0815  -12.3777 C   0  0  0  0  0  0  0  0  0  0  0  0
   25.0364  -21.1822  -11.9229 C   0  0  2  0  0  0  0  0  0  0  0  0
   24.0413  -20.8536  -13.0320 C   0  0  0  0  0  0  0  0  0  0  0  0
   24.6672  -20.7118  -10.5712 C   0  0  2  0  0  0  0  0  0  0  0  0
   25.6504  -21.0411   -9.5766 N   0  0  0  0  0  0  0  0  0  0  0  0
   23.2664  -20.7806  -10.1534 C   0  0  0  0  0  0  0  0  0  0  0  0
   22.2799  -20.2673  -10.7465 O   0  0  0  0  0  0  0  0  0  0  0  0
   22.8617  -21.4704   -8.9871 O   0  0  0  0  0  0  0  0  0  0  0  0
  2  1  1  0
  3  2  1  0
  3 10  1  0
  4  3  2  0
  6  5  1  0
  7  8  1  0
  7  6  1  0
  9  8  1  1
  9 10  1  0
  9 11  1  0
 11 12  2  0
 13 14  1  0
 15 14  1  0
 15 16  1  6
 17 15  1  0
 18 11  1  0
 17 18  1  1
 19 17  1  0
 20 19  2  0
 21 19  1  0
M  END
$$$$
