GMI.pdb
     RDKit          3D

 21 20  0  0  1  0  0  0  0  0999 V2000
   28.9899  -20.6446  -17.3022 N   0  0  0  0  0  0  0  0  0  0  0  0
   28.8184  -19.8385  -16.1093 C   0  0  0  0  0  0  0  0  0  0  0  0
   28.6096  -20.7165  -14.9406 C   0  0  0  0  0  0  0  0  0  0  0  0
   28.0719  -21.8351  -15.0787 O   0  0  0  0  0  0  0  0  0  0  0  0
   31.4991  -21.8942   -9.1553 C   0  0  0  0  0  0  0  0  0  0  0  0
   32.2959  -21.9364  -10.7824 S   0  0  0  0  0  0  0  0  0  0  0  0
   31.0077  -21.8221  -12.0773 C   0  0  0  0  0  0  0  0  0  0  0  0
   29.8568  -21.0160  -11.5589 C   0  0  0  0  0  0  0  0  0  0  0  0
   28.6802  -20.9725  -12.4695 C   0  0  2  0  0  0  0  0  0  0  0  0
   29.0472  -20.2253  -13.6725 N   0  0  0  0  0  0  0  0  0  0  0  0
   27.5539  -20.1849  -11.8498 C   0  0  0  0  0  0  0  0  0  0  0  0
   27.3918  -19.0312  -12.2884 O   0  0  0  0  0  0  0  0  0  0  0  0
   22.9203  -19.9651  -13.8582 C   0  0  0  0  0  0  0  0  0  0  0  0
   23.4481  -19.8520  -12.4594 C   0  0  0  0  0  0  0  0  0  0  0  0
   24.6977  -20.5998  -12.1742 C   0  0  2  0  0  0  0  0  0  0  0  0
   24.7198  -21.9726  -12.8400 C   0  0  0  0  0  0  0  0  0  0  0  0
   25.3011  -20.5317  -10.8268 C   0  0  2  0  0  0  0  0  0  0  0  0
   26.7287  -20.6935  -10.8445 N   0  0  0  0  0  0  0  0  0  0  0  0
   24.5891  -21.1334   -9.6986 C   0  0  0  0  0  0  0  0  0  0  0  0
   23.4596  -20.7924   -9.2557 O   0  0  0  0  0  0  0  0  0  0  0  0
   25.1238  -22.2155   -8.9618 O   0  0  0  0  0  0  0  0  0  0  0  0
  2  1  1  0
  3  2  1  0
  3 10  1  0
  4  3  2  0
  6  5  1  0
  7  8  1  0
  7  6  1  0
  9  8  1  1
  9 10  1  0
  9 11  1  0
 11 12  2  0
 13 14  1  0
 15 14  1  0
 15 16  1  1
 17 15  1  0
 18 11  1  0
 17 18  1  6
 19 17  1  0
 20 19  2  0
 21 19  1  0
M  END
$$$$
