LVP.pdb
     RDKit          3D

 23 23  0  0  1  0  0  0  0  0999 V2000
   20.6498  -13.6683  -21.3485 C   0  0  0  0  0  0  0  0  0  0  0  0
   19.2415  -13.6549  -20.7382 C   0  0  2  0  0  0  0  0  0  0  0  0
   18.3643  -12.9953  -21.7773 C   0  0  0  0  0  0  0  0  0  0  0  0
   19.2172  -12.9782  -19.4088 C   0  0  0  0  0  0  0  0  0  0  0  0
   20.1524  -13.5971  -18.4277 C   0  0  2  0  0  0  0  0  0  0  0  0
   19.7800  -14.9547  -18.1805 N   0  0  0  0  0  0  0  0  0  0  0  0
   20.3437  -12.8022  -17.2044 C   0  0  0  0  0  0  0  0  0  0  0  0
   19.5616  -12.9145  -16.2278 O   0  0  0  0  0  0  0  0  0  0  0  0
   23.4476  -12.5859  -15.0984 C   0  0  0  0  0  0  0  0  0  0  0  0
   23.0134  -11.1418  -15.3241 C   0  0  2  0  0  0  0  0  0  0  0  0
   23.1804  -10.4120  -14.0139 C   0  0  0  0  0  0  0  0  0  0  0  0
   21.5825  -11.0909  -15.8378 C   0  0  2  0  0  0  0  0  0  0  0  0
   21.4209  -11.8501  -17.0323 N   0  0  0  0  0  0  0  0  0  0  0  0
   21.2004   -9.6867  -15.9867 C   0  0  0  0  0  0  0  0  0  0  0  0
   22.0312   -8.9733  -16.6670 O   0  0  0  0  0  0  0  0  0  0  0  0
   20.0743   -9.0271  -15.4981 N   0  0  0  0  0  0  0  0  0  0  0  0
   18.9970   -9.5643  -14.7113 C   0  0  0  0  0  0  0  0  0  0  0  0
   18.2808   -8.3824  -14.0697 C   0  0  0  0  0  0  0  0  0  0  0  0
   18.4789   -7.3000  -15.0751 C   0  0  0  0  0  0  0  0  0  0  0  0
   19.7943   -7.6120  -15.7158 C   0  0  1  0  0  0  0  0  0  0  0  0
   20.8425   -6.7899  -15.0707 C   0  0  0  0  0  0  0  0  0  0  0  0
   21.7771   -7.3096  -14.1929 O   0  0  0  0  0  0  0  0  0  0  0  0
   20.8713   -5.5524  -15.3460 O   0  0  0  0  0  0  0  0  0  0  0  0
  2  1  1  6
  2  3  1  0
  4  2  1  0
  4  5  1  0
  5  6  1  1
  7  5  1  0
  7  8  2  0
 10 12  1  0
 10 11  1  1
 10  9  1  0
 12 13  1  6
 13  7  1  0
 14 12  1  0
 15 14  2  0
 16 14  1  0
 17 16  1  0
 18 17  1  0
 19 18  1  0
 19 20  1  0
 20 21  1  1
 20 16  1  0
 21 22  1  0
 23 21  2  0
M  END
$$$$
