LVP.pdb
     RDKit          3D

 23 23  0  0  1  0  0  0  0  0999 V2000
   21.3061  -16.6861  -17.0455 C   0  0  0  0  0  0  0  0  0  0  0  0
   20.5011  -17.9122  -16.5929 C   0  0  2  0  0  0  0  0  0  0  0  0
   19.3940  -17.3619  -15.7234 C   0  0  0  0  0  0  0  0  0  0  0  0
   21.3613  -18.9217  -15.9098 C   0  0  0  0  0  0  0  0  0  0  0  0
   22.5284  -19.3408  -16.7358 C   0  0  2  0  0  0  0  0  0  0  0  0
   22.0916  -20.1420  -17.8359 N   0  0  0  0  0  0  0  0  0  0  0  0
   23.6214  -19.9459  -15.9584 C   0  0  0  0  0  0  0  0  0  0  0  0
   23.6138  -21.1684  -15.6697 O   0  0  0  0  0  0  0  0  0  0  0  0
   27.5199  -19.6213  -16.4670 C   0  0  0  0  0  0  0  0  0  0  0  0
   27.1625  -19.2657  -15.0280 C   0  0  2  0  0  0  0  0  0  0  0  0
   28.2417  -19.8380  -14.1419 C   0  0  0  0  0  0  0  0  0  0  0  0
   25.7813  -19.7972  -14.6763 C   0  0  2  0  0  0  0  0  0  0  0  0
   24.7643  -19.1997  -15.4751 N   0  0  0  0  0  0  0  0  0  0  0  0
   25.5734  -19.6139  -13.2399 C   0  0  0  0  0  0  0  0  0  0  0  0
   25.5502  -18.3842  -12.8533 O   0  0  0  0  0  0  0  0  0  0  0  0
   25.3998  -20.5774  -12.2483 N   0  0  0  0  0  0  0  0  0  0  0  0
   25.4363  -22.0091  -12.3794 C   0  0  0  0  0  0  0  0  0  0  0  0
   25.6437  -22.5798  -10.9819 C   0  0  0  0  0  0  0  0  0  0  0  0
   24.9728  -21.5682  -10.1169 C   0  0  0  0  0  0  0  0  0  0  0  0
   25.1423  -20.2725  -10.8451 C   0  0  1  0  0  0  0  0  0  0  0  0
   26.3006  -19.5530  -10.2690 C   0  0  0  0  0  0  0  0  0  0  0  0
   26.2454  -18.8730   -9.0654 O   0  0  0  0  0  0  0  0  0  0  0  0
   27.3873  -19.5702  -10.9224 O   0  0  0  0  0  0  0  0  0  0  0  0
  2  1  1  1
  2  3  1  0
  4  2  1  0
  4  5  1  0
  5  6  1  6
  7  5  1  0
  7  8  2  0
 10 12  1  0
 10 11  1  1
 10  9  1  0
 12 13  1  6
 13  7  1  0
 14 12  1  0
 15 14  2  0
 16 14  1  0
 17 16  1  0
 18 17  1  0
 19 18  1  0
 19 20  1  0
 20 21  1  1
 20 16  1  0
 21 22  1  0
 23 21  2  0
M  END
$$$$
