LVP.pdb
     RDKit          3D

 23 23  0  0  1  0  0  0  0  0999 V2000
   14.9236  -13.0636  -18.7126 C   0  0  0  0  0  0  0  0  0  0  0  0
   15.3250  -13.7937  -17.4235 C   0  0  2  0  0  0  0  0  0  0  0  0
   14.1356  -13.6546  -16.5012 C   0  0  0  0  0  0  0  0  0  0  0  0
   16.5969  -13.2604  -16.8545 C   0  0  0  0  0  0  0  0  0  0  0  0
   17.7346  -13.3329  -17.8138 C   0  0  2  0  0  0  0  0  0  0  0  0
   18.0655  -14.6968  -18.0840 N   0  0  0  0  0  0  0  0  0  0  0  0
   18.8904  -12.5069  -17.4303 C   0  0  0  0  0  0  0  0  0  0  0  0
   19.7364  -12.9197  -16.5985 O   0  0  0  0  0  0  0  0  0  0  0  0
   22.3321   -9.2561  -18.5376 C   0  0  0  0  0  0  0  0  0  0  0  0
   21.0943  -10.0669  -18.9053 C   0  0  2  0  0  0  0  0  0  0  0  0
   20.2771   -9.2321  -19.8604 C   0  0  0  0  0  0  0  0  0  0  0  0
   20.3159  -10.4457  -17.6545 C   0  0  2  0  0  0  0  0  0  0  0  0
   19.1388  -11.1849  -17.9663 N   0  0  0  0  0  0  0  0  0  0  0  0
   20.0496   -9.2242  -16.8948 C   0  0  0  0  0  0  0  0  0  0  0  0
   19.2179   -8.4140  -17.4550 O   0  0  0  0  0  0  0  0  0  0  0  0
   20.5678   -8.8256  -15.6642 N   0  0  0  0  0  0  0  0  0  0  0  0
   21.5328   -9.5032  -14.8408 C   0  0  0  0  0  0  0  0  0  0  0  0
   22.0874   -8.4734  -13.8643 C   0  0  0  0  0  0  0  0  0  0  0  0
   20.9320   -7.5506  -13.6771 C   0  0  0  0  0  0  0  0  0  0  0  0
   20.1971   -7.5919  -14.9794 C   0  0  1  0  0  0  0  0  0  0  0  0
   20.6083   -6.4256  -15.7929 C   0  0  0  0  0  0  0  0  0  0  0  0
   20.1188   -5.1485  -15.5843 O   0  0  0  0  0  0  0  0  0  0  0  0
   21.4493   -6.6235  -16.7210 O   0  0  0  0  0  0  0  0  0  0  0  0
  2  1  1  6
  2  3  1  0
  4  2  1  0
  4  5  1  0
  5  6  1  1
  7  5  1  0
  7  8  2  0
 10 12  1  0
 10 11  1  6
 10  9  1  0
 12 13  1  6
 13  7  1  0
 14 12  1  0
 15 14  2  0
 16 14  1  0
 17 16  1  0
 18 17  1  0
 19 18  1  0
 19 20  1  0
 20 21  1  6
 20 16  1  0
 21 22  1  0
 23 21  2  0
M  END
$$$$
