LVP.pdb
     RDKit          3D

 23 23  0  0  1  0  0  0  0  0999 V2000
   25.2239  -23.0273  -12.6454 C   0  0  0  0  0  0  0  0  0  0  0  0
   25.4376  -21.5281  -12.8962 C   0  0  2  0  0  0  0  0  0  0  0  0
   25.8546  -21.4230  -14.3452 C   0  0  0  0  0  0  0  0  0  0  0  0
   26.4194  -20.9381  -11.9403 C   0  0  0  0  0  0  0  0  0  0  0  0
   25.9972  -21.0777  -10.5182 C   0  0  2  0  0  0  0  0  0  0  0  0
   24.6763  -20.5608  -10.3429 N   0  0  0  0  0  0  0  0  0  0  0  0
   26.9739  -20.5496   -9.5526 C   0  0  0  0  0  0  0  0  0  0  0  0
   28.2090  -20.6339   -9.7659 O   0  0  0  0  0  0  0  0  0  0  0  0
   26.8513  -17.0092   -7.9398 C   0  0  0  0  0  0  0  0  0  0  0  0
   27.0933  -18.0289   -6.8324 C   0  0  2  0  0  0  0  0  0  0  0  0
   28.1022  -17.4309   -5.8829 C   0  0  0  0  0  0  0  0  0  0  0  0
   27.5629  -19.3509   -7.4202 C   0  0  2  0  0  0  0  0  0  0  0  0
   26.5996  -19.9073   -8.3100 N   0  0  0  0  0  0  0  0  0  0  0  0
   27.9153  -20.2426   -6.3153 C   0  0  0  0  0  0  0  0  0  0  0  0
   26.9072  -20.7402   -5.6845 O   0  0  0  0  0  0  0  0  0  0  0  0
   29.1773  -20.6201   -5.8605 N   0  0  0  0  0  0  0  0  0  0  0  0
   30.4607  -20.3090   -6.4300 C   0  0  0  0  0  0  0  0  0  0  0  0
   31.5015  -20.5540   -5.3446 C   0  0  0  0  0  0  0  0  0  0  0  0
   30.8854  -21.6531   -4.5483 C   0  0  0  0  0  0  0  0  0  0  0  0
   29.4110  -21.4314   -4.6708 C   0  0  1  0  0  0  0  0  0  0  0  0
   28.9395  -20.7056   -3.4701 C   0  0  0  0  0  0  0  0  0  0  0  0
   28.7716  -21.3119   -2.2379 O   0  0  0  0  0  0  0  0  0  0  0  0
   28.6811  -19.4703   -3.5937 O   0  0  0  0  0  0  0  0  0  0  0  0
  2  1  1  1
  2  3  1  0
  4  2  1  0
  4  5  1  0
  5  6  1  6
  7  5  1  0
  7  8  2  0
 10 12  1  0
 10 11  1  1
 10  9  1  0
 12 13  1  1
 13  7  1  0
 14 12  1  0
 15 14  2  0
 16 14  1  0
 17 16  1  0
 18 17  1  0
 19 18  1  0
 19 20  1  0
 20 21  1  1
 20 16  1  0
 21 22  1  0
 23 21  2  0
M  END
$$$$
