LVP.pdb
     RDKit          3D

 23 23  0  0  1  0  0  0  0  0999 V2000
   29.9164  -18.6326  -18.0715 C   0  0  0  0  0  0  0  0  0  0  0  0
   28.9569  -17.4656  -18.3426 C   0  0  2  0  0  0  0  0  0  0  0  0
   29.8444  -16.2564  -18.5288 C   0  0  0  0  0  0  0  0  0  0  0  0
   27.9461  -17.3121  -17.2562 C   0  0  0  0  0  0  0  0  0  0  0  0
   27.3807  -18.6145  -16.8042 C   0  0  2  0  0  0  0  0  0  0  0  0
   27.0345  -19.4200  -17.9330 N   0  0  0  0  0  0  0  0  0  0  0  0
   26.2991  -18.4829  -15.8153 C   0  0  0  0  0  0  0  0  0  0  0  0
   26.3062  -17.5593  -14.9638 O   0  0  0  0  0  0  0  0  0  0  0  0
   22.9929  -17.5592  -16.4618 C   0  0  0  0  0  0  0  0  0  0  0  0
   22.7967  -18.8227  -15.6312 C   0  0  2  0  0  0  0  0  0  0  0  0
   21.6231  -18.5804  -14.7141 C   0  0  0  0  0  0  0  0  0  0  0  0
   24.0686  -19.1604  -14.8683 C   0  0  2  0  0  0  0  0  0  0  0  0
   25.1687  -19.3851  -15.7450 N   0  0  0  0  0  0  0  0  0  0  0  0
   23.7863  -20.2950  -13.9891 C   0  0  0  0  0  0  0  0  0  0  0  0
   23.1941  -21.2854  -14.5639 O   0  0  0  0  0  0  0  0  0  0  0  0
   24.0682  -20.4456  -12.6327 N   0  0  0  0  0  0  0  0  0  0  0  0
   24.8148  -19.5665  -11.7737 C   0  0  0  0  0  0  0  0  0  0  0  0
   24.4553  -19.9332  -10.3392 C   0  0  0  0  0  0  0  0  0  0  0  0
   24.1660  -21.3918  -10.4413 C   0  0  0  0  0  0  0  0  0  0  0  0
   23.6261  -21.5767  -11.8242 C   0  0  1  0  0  0  0  0  0  0  0  0
   22.1476  -21.5959  -11.7573 C   0  0  0  0  0  0  0  0  0  0  0  0
   21.4244  -22.6980  -11.3371 O   0  0  0  0  0  0  0  0  0  0  0  0
   21.5298  -20.5446  -12.1053 O   0  0  0  0  0  0  0  0  0  0  0  0
  2  1  1  1
  2  3  1  0
  4  2  1  0
  4  5  1  0
  5  6  1  6
  7  5  1  0
  7  8  2  0
 10 12  1  0
 10 11  1  1
 10  9  1  0
 12 13  1  6
 13  7  1  0
 14 12  1  0
 15 14  2  0
 16 14  1  0
 17 16  1  0
 18 17  1  0
 19 18  1  0
 19 20  1  0
 20 21  1  1
 20 16  1  0
 21 22  1  0
 23 21  2  0
M  END
$$$$
