LVP.pdb
     RDKit          3D

 23 23  0  0  1  0  0  0  0  0999 V2000
   23.3683  -18.8896  -12.5350 C   0  0  0  0  0  0  0  0  0  0  0  0
   22.8013  -20.1573  -11.8811 C   0  0  2  0  0  0  0  0  0  0  0  0
   21.4064  -19.7841  -11.4343 C   0  0  0  0  0  0  0  0  0  0  0  0
   23.6761  -20.6545  -10.7796 C   0  0  0  0  0  0  0  0  0  0  0  0
   25.0766  -20.9054  -11.2220 C   0  0  2  0  0  0  0  0  0  0  0  0
   25.0937  -21.8556  -12.2896 N   0  0  0  0  0  0  0  0  0  0  0  0
   25.9988  -21.2314  -10.1229 C   0  0  0  0  0  0  0  0  0  0  0  0
   25.8739  -22.2932   -9.4634 O   0  0  0  0  0  0  0  0  0  0  0  0
   29.6971  -21.5682  -10.3877 C   0  0  0  0  0  0  0  0  0  0  0  0
   29.4644  -20.6443   -9.1972 C   0  0  2  0  0  0  0  0  0  0  0  0
   30.4619  -21.0248   -8.1308 C   0  0  0  0  0  0  0  0  0  0  0  0
   28.0268  -20.7539   -8.7121 C   0  0  2  0  0  0  0  0  0  0  0  0
   27.0963  -20.3759   -9.7223 N   0  0  0  0  0  0  0  0  0  0  0  0
   27.8986  -19.9710   -7.4830 C   0  0  0  0  0  0  0  0  0  0  0  0
   27.6622  -18.7171   -7.6672 O   0  0  0  0  0  0  0  0  0  0  0  0
   27.9966  -20.3939   -6.1589 N   0  0  0  0  0  0  0  0  0  0  0  0
   28.1862  -21.7297   -5.6607 C   0  0  0  0  0  0  0  0  0  0  0  0
   28.6721  -21.6043   -4.2221 C   0  0  0  0  0  0  0  0  0  0  0  0
   28.0232  -20.3407   -3.7707 C   0  0  0  0  0  0  0  0  0  0  0  0
   27.9211  -19.5031   -5.0060 C   0  0  1  0  0  0  0  0  0  0  0  0
   29.0576  -18.5552   -5.0313 C   0  0  0  0  0  0  0  0  0  0  0  0
   29.1668  -17.4829   -4.1640 O   0  0  0  0  0  0  0  0  0  0  0  0
   29.9655  -18.7491   -5.8952 O   0  0  0  0  0  0  0  0  0  0  0  0
  2  1  1  1
  2  3  1  0
  4  2  1  0
  4  5  1  0
  5  6  1  6
  7  5  1  0
  7  8  2  0
 10 12  1  0
 10 11  1  1
 10  9  1  0
 12 13  1  6
 13  7  1  0
 14 12  1  0
 15 14  2  0
 16 14  1  0
 17 16  1  0
 18 17  1  0
 19 18  1  0
 19 20  1  0
 20 21  1  6
 20 16  1  0
 21 22  1  0
 23 21  2  0
M  END
$$$$
