LVP.pdb
     RDKit          3D

 23 23  0  0  1  0  0  0  0  0999 V2000
   21.0367  -17.5858  -15.9663 C   0  0  0  0  0  0  0  0  0  0  0  0
   20.3158  -18.8695  -15.5323 C   0  0  2  0  0  0  0  0  0  0  0  0
   19.1499  -18.4053  -14.6898 C   0  0  0  0  0  0  0  0  0  0  0  0
   21.2331  -19.8122  -14.8281 C   0  0  0  0  0  0  0  0  0  0  0  0
   22.4981  -20.0557  -15.5768 C   0  0  2  0  0  0  0  0  0  0  0  0
   22.2383  -20.8433  -16.7408 N   0  0  0  0  0  0  0  0  0  0  0  0
   23.5935  -20.5739  -14.7422 C   0  0  0  0  0  0  0  0  0  0  0  0
   23.5743  -21.7503  -14.3022 O   0  0  0  0  0  0  0  0  0  0  0  0
   27.3938  -20.4001  -15.4943 C   0  0  0  0  0  0  0  0  0  0  0  0
   27.1722  -19.8933  -14.0734 C   0  0  2  0  0  0  0  0  0  0  0  0
   28.2944  -20.4350  -13.2224 C   0  0  0  0  0  0  0  0  0  0  0  0
   25.8026  -20.3173  -13.5652 C   0  0  2  0  0  0  0  0  0  0  0  0
   24.7520  -19.7893  -14.3695 N   0  0  0  0  0  0  0  0  0  0  0  0
   25.7008  -19.9382  -12.1560 C   0  0  0  0  0  0  0  0  0  0  0  0
   25.6758  -18.6671  -11.9423 O   0  0  0  0  0  0  0  0  0  0  0  0
   25.6285  -20.7562  -11.0301 N   0  0  0  0  0  0  0  0  0  0  0  0
   25.7401  -22.1883  -10.9593 C   0  0  0  0  0  0  0  0  0  0  0  0
   26.0443  -22.5407   -9.5085 C   0  0  0  0  0  0  0  0  0  0  0  0
   25.3581  -21.4495   -8.7601 C   0  0  0  0  0  0  0  0  0  0  0  0
   25.4197  -20.2654   -9.6723 C   0  0  1  0  0  0  0  0  0  0  0  0
   26.5608  -19.4140   -9.2673 C   0  0  0  0  0  0  0  0  0  0  0  0
   26.5069  -18.5357   -8.1997 O   0  0  0  0  0  0  0  0  0  0  0  0
   27.6309  -19.5059   -9.9414 O   0  0  0  0  0  0  0  0  0  0  0  0
  2  1  1  1
  2  3  1  0
  4  2  1  0
  4  5  1  0
  5  6  1  6
  7  5  1  0
  7  8  2  0
 10 12  1  0
 10 11  1  1
 10  9  1  0
 12 13  1  6
 13  7  1  0
 14 12  1  0
 15 14  2  0
 16 14  1  0
 17 16  1  0
 18 17  1  0
 19 18  1  0
 19 20  1  0
 20 21  1  1
 20 16  1  0
 21 22  1  0
 23 21  2  0
M  END
$$$$
