LVP.pdb
     RDKit          3D

 23 23  0  0  1  0  0  0  0  0999 V2000
   22.8954  -18.5726  -12.2968 C   0  0  0  0  0  0  0  0  0  0  0  0
   22.3418  -19.7771  -11.5230 C   0  0  2  0  0  0  0  0  0  0  0  0
   21.0261  -19.3079  -10.9456 C   0  0  0  0  0  0  0  0  0  0  0  0
   23.3079  -20.2737  -10.5004 C   0  0  0  0  0  0  0  0  0  0  0  0
   24.6039  -20.7093  -11.0927 C   0  0  2  0  0  0  0  0  0  0  0  0
   24.3804  -21.7192  -12.0792 N   0  0  0  0  0  0  0  0  0  0  0  0
   25.6233  -21.0700  -10.0949 C   0  0  0  0  0  0  0  0  0  0  0  0
   25.5424  -22.1394   -9.4409 O   0  0  0  0  0  0  0  0  0  0  0  0
   29.2593  -21.4946  -10.6847 C   0  0  0  0  0  0  0  0  0  0  0  0
   29.1673  -20.5790   -9.4689 C   0  0  2  0  0  0  0  0  0  0  0  0
   30.2374  -21.0127   -8.4973 C   0  0  0  0  0  0  0  0  0  0  0  0
   27.7739  -20.6395   -8.8618 C   0  0  2  0  0  0  0  0  0  0  0  0
   26.7722  -20.2419   -9.7933 N   0  0  0  0  0  0  0  0  0  0  0  0
   27.7750  -19.8421   -7.6354 C   0  0  0  0  0  0  0  0  0  0  0  0
   27.5990  -18.5779   -7.8167 O   0  0  0  0  0  0  0  0  0  0  0  0
   27.9387  -20.2609   -6.3164 N   0  0  0  0  0  0  0  0  0  0  0  0
   28.2271  -21.5830   -5.8295 C   0  0  0  0  0  0  0  0  0  0  0  0
   28.7464  -21.4303   -4.4052 C   0  0  0  0  0  0  0  0  0  0  0  0
   28.0326  -20.2112   -3.9298 C   0  0  0  0  0  0  0  0  0  0  0  0
   27.8412  -19.3791   -5.1582 C   0  0  1  0  0  0  0  0  0  0  0  0
   28.9142  -18.3611   -5.2130 C   0  0  0  0  0  0  0  0  0  0  0  0
   28.9979  -17.3028   -4.3259 O   0  0  0  0  0  0  0  0  0  0  0  0
   29.7901  -18.4788   -6.1224 O   0  0  0  0  0  0  0  0  0  0  0  0
  2  1  1  1
  2  3  1  0
  4  2  1  0
  4  5  1  0
  5  6  1  6
  7  5  1  0
  7  8  2  0
 10 12  1  0
 10 11  1  1
 10  9  1  0
 12 13  1  6
 13  7  1  0
 14 12  1  0
 15 14  2  0
 16 14  1  0
 17 16  1  0
 18 17  1  0
 19 18  1  0
 19 20  1  0
 20 21  1  6
 20 16  1  0
 21 22  1  0
 23 21  2  0
M  END
$$$$
