LVP.pdb
     RDKit          3D

 23 23  0  0  1  0  0  0  0  0999 V2000
   21.6619  -18.1827  -15.4698 C   0  0  0  0  0  0  0  0  0  0  0  0
   20.8366  -19.0795  -14.5366 C   0  0  2  0  0  0  0  0  0  0  0  0
   19.7860  -18.1716  -13.9395 C   0  0  0  0  0  0  0  0  0  0  0  0
   21.6910  -19.7639  -13.5230 C   0  0  0  0  0  0  0  0  0  0  0  0
   22.7936  -20.5564  -14.1364 C   0  0  2  0  0  0  0  0  0  0  0  0
   22.2561  -21.6015  -14.9498 N   0  0  0  0  0  0  0  0  0  0  0  0
   23.8046  -21.0162  -13.1712 C   0  0  0  0  0  0  0  0  0  0  0  0
   23.5988  -22.0190  -12.4431 O   0  0  0  0  0  0  0  0  0  0  0  0
   27.5731  -21.5413  -13.9828 C   0  0  0  0  0  0  0  0  0  0  0  0
   27.4742  -20.7573  -12.6788 C   0  0  2  0  0  0  0  0  0  0  0  0
   28.5314  -21.2979  -11.7476 C   0  0  0  0  0  0  0  0  0  0  0  0
   26.0742  -20.8711  -12.0948 C   0  0  2  0  0  0  0  0  0  0  0  0
   25.0852  -20.3660  -12.9870 N   0  0  0  0  0  0  0  0  0  0  0  0
   26.0689  -20.2114  -10.7892 C   0  0  0  0  0  0  0  0  0  0  0  0
   26.2854  -18.9412  -10.8284 O   0  0  0  0  0  0  0  0  0  0  0  0
   25.8642  -20.7653   -9.5269 N   0  0  0  0  0  0  0  0  0  0  0  0
   25.6226  -22.1411   -9.1849 C   0  0  0  0  0  0  0  0  0  0  0  0
   25.9165  -22.2890   -7.6972 C   0  0  0  0  0  0  0  0  0  0  0  0
   25.5668  -20.9421   -7.1632 C   0  0  0  0  0  0  0  0  0  0  0  0
   25.8644  -19.9989   -8.2856 C   0  0  1  0  0  0  0  0  0  0  0  0
   27.2024  -19.4059   -8.0643 C   0  0  0  0  0  0  0  0  0  0  0  0
   27.4337  -18.3744   -7.1718 O   0  0  0  0  0  0  0  0  0  0  0  0
   28.1718  -19.8769   -8.7325 O   0  0  0  0  0  0  0  0  0  0  0  0
  2  1  1  6
  2  3  1  0
  4  2  1  0
  4  5  1  0
  5  6  1  1
  7  5  1  0
  7  8  2  0
 10 12  1  0
 10 11  1  1
 10  9  1  0
 12 13  1  6
 13  7  1  0
 14 12  1  0
 15 14  2  0
 16 14  1  0
 17 16  1  0
 18 17  1  0
 19 18  1  0
 19 20  1  0
 20 21  1  1
 20 16  1  0
 21 22  1  0
 23 21  2  0
M  END
$$$$
