LVP.pdb
     RDKit          3D

 23 23  0  0  1  0  0  0  0  0999 V2000
   23.2843  -18.9152  -12.8132 C   0  0  0  0  0  0  0  0  0  0  0  0
   22.5995  -20.0748  -12.0768 C   0  0  2  0  0  0  0  0  0  0  0  0
   21.2796  -19.5164  -11.5965 C   0  0  0  0  0  0  0  0  0  0  0  0
   23.4560  -20.6249  -10.9861 C   0  0  0  0  0  0  0  0  0  0  0  0
   24.8415  -20.9337  -11.4389 C   0  0  2  0  0  0  0  0  0  0  0  0
   24.8157  -21.9390  -12.4546 N   0  0  0  0  0  0  0  0  0  0  0  0
   25.7761  -21.2243  -10.3402 C   0  0  0  0  0  0  0  0  0  0  0  0
   25.5799  -22.1876   -9.5582 O   0  0  0  0  0  0  0  0  0  0  0  0
   29.5835  -21.5840  -10.7483 C   0  0  0  0  0  0  0  0  0  0  0  0
   29.3394  -20.6676   -9.5545 C   0  0  2  0  0  0  0  0  0  0  0  0
   30.3443  -21.0369   -8.4910 C   0  0  0  0  0  0  0  0  0  0  0  0
   27.9045  -20.7999   -9.0672 C   0  0  2  0  0  0  0  0  0  0  0  0
   26.9664  -20.4427  -10.0779 N   0  0  0  0  0  0  0  0  0  0  0  0
   27.7640  -20.0138   -7.8414 C   0  0  0  0  0  0  0  0  0  0  0  0
   27.4866  -18.7692   -8.0305 O   0  0  0  0  0  0  0  0  0  0  0  0
   27.8886  -20.4253   -6.5159 N   0  0  0  0  0  0  0  0  0  0  0  0
   28.1658  -21.7440   -6.0134 C   0  0  0  0  0  0  0  0  0  0  0  0
   28.6409  -21.5823   -4.5748 C   0  0  0  0  0  0  0  0  0  0  0  0
   27.9092  -20.3631   -4.1279 C   0  0  0  0  0  0  0  0  0  0  0  0
   27.7529  -19.5380   -5.3659 C   0  0  1  0  0  0  0  0  0  0  0  0
   28.8241  -18.5168   -5.3932 C   0  0  0  0  0  0  0  0  0  0  0  0
   28.8509  -17.4267   -4.5417 O   0  0  0  0  0  0  0  0  0  0  0  0
   29.7535  -18.6626   -6.2435 O   0  0  0  0  0  0  0  0  0  0  0  0
  2  1  1  1
  2  3  1  0
  4  2  1  0
  4  5  1  0
  5  6  1  6
  7  5  1  0
  7  8  2  0
 10 12  1  0
 10 11  1  1
 10  9  1  0
 12 13  1  6
 13  7  1  0
 14 12  1  0
 15 14  2  0
 16 14  1  0
 17 16  1  0
 18 17  1  0
 19 18  1  0
 19 20  1  0
 20 21  1  6
 20 16  1  0
 21 22  1  0
 23 21  2  0
M  END
$$$$
