LVP.pdb
     RDKit          3D

 23 23  0  0  1  0  0  0  0  0999 V2000
   19.9170  -15.9888  -15.9803 C   0  0  0  0  0  0  0  0  0  0  0  0
   19.7196  -17.3191  -16.7201 C   0  0  2  0  0  0  0  0  0  0  0  0
   18.4257  -17.8852  -16.1815 C   0  0  0  0  0  0  0  0  0  0  0  0
   20.8918  -18.2272  -16.5553 C   0  0  0  0  0  0  0  0  0  0  0  0
   22.1651  -17.6205  -17.0354 C   0  0  2  0  0  0  0  0  0  0  0  0
   22.1125  -17.4181  -18.4493 N   0  0  0  0  0  0  0  0  0  0  0  0
   23.3712  -18.3313  -16.5823 C   0  0  0  0  0  0  0  0  0  0  0  0
   23.7765  -19.3640  -17.1716 O   0  0  0  0  0  0  0  0  0  0  0  0
   26.9376  -16.9922  -15.7335 C   0  0  0  0  0  0  0  0  0  0  0  0
   26.4310  -17.7998  -14.5436 C   0  0  2  0  0  0  0  0  0  0  0  0
   27.5949  -18.6026  -14.0165 C   0  0  0  0  0  0  0  0  0  0  0  0
   25.2604  -18.6788  -14.9572 C   0  0  2  0  0  0  0  0  0  0  0  0
   24.1674  -17.9090  -15.4490 N   0  0  0  0  0  0  0  0  0  0  0  0
   24.9057  -19.5309  -13.8222 C   0  0  0  0  0  0  0  0  0  0  0  0
   24.4356  -18.8983  -12.8020 O   0  0  0  0  0  0  0  0  0  0  0  0
   25.0070  -20.9152  -13.6987 N   0  0  0  0  0  0  0  0  0  0  0  0
   25.4730  -21.8660  -14.6720 C   0  0  0  0  0  0  0  0  0  0  0  0
   25.8114  -23.1462  -13.9183 C   0  0  0  0  0  0  0  0  0  0  0  0
   24.8499  -23.1147  -12.7798 C   0  0  0  0  0  0  0  0  0  0  0  0
   24.6397  -21.6604  -12.4995 C   0  0  1  0  0  0  0  0  0  0  0  0
   25.5168  -21.2626  -11.3755 C   0  0  0  0  0  0  0  0  0  0  0  0
   25.1741  -21.4465  -10.0478 O   0  0  0  0  0  0  0  0  0  0  0  0
   26.6314  -20.7291  -11.6601 O   0  0  0  0  0  0  0  0  0  0  0  0
  2  1  1  1
  2  3  1  0
  4  2  1  0
  4  5  1  0
  5  6  1  6
  7  5  1  0
  7  8  2  0
 10 12  1  0
 10 11  1  6
 10  9  1  0
 12 13  1  1
 13  7  1  0
 14 12  1  0
 15 14  2  0
 16 14  1  0
 17 16  1  0
 18 17  1  0
 19 18  1  0
 19 20  1  0
 20 21  1  1
 20 16  1  0
 21 22  1  0
 23 21  2  0
M  END
$$$$
