LVP.pdb
     RDKit          3D

 23 23  0  0  1  0  0  0  0  0999 V2000
   28.5948  -19.9429  -14.7000 C   0  0  0  0  0  0  0  0  0  0  0  0
   27.5328  -18.8347  -14.6924 C   0  0  2  0  0  0  0  0  0  0  0  0
   28.1897  -17.6502  -15.3632 C   0  0  0  0  0  0  0  0  0  0  0  0
   27.0350  -18.5500  -13.3152 C   0  0  0  0  0  0  0  0  0  0  0  0
   26.4403  -19.7469  -12.6564 C   0  0  2  0  0  0  0  0  0  0  0  0
   25.3423  -20.2395  -13.4276 N   0  0  0  0  0  0  0  0  0  0  0  0
   26.1236  -19.5475  -11.2334 C   0  0  0  0  0  0  0  0  0  0  0  0
   25.4171  -18.5805  -10.8544 O   0  0  0  0  0  0  0  0  0  0  0  0
   23.9053  -21.1568   -9.5107 C   0  0  0  0  0  0  0  0  0  0  0  0
   25.0399  -21.2770   -8.4992 C   0  0  2  0  0  0  0  0  0  0  0  0
   24.4504  -21.0351   -7.1313 C   0  0  0  0  0  0  0  0  0  0  0  0
   26.1547  -20.2969   -8.8316 C   0  0  2  0  0  0  0  0  0  0  0  0
   26.5897  -20.4271  -10.1818 N   0  0  0  0  0  0  0  0  0  0  0  0
   27.2292  -20.4792   -7.8558 C   0  0  0  0  0  0  0  0  0  0  0  0
   27.7326  -21.6656   -7.8268 O   0  0  0  0  0  0  0  0  0  0  0  0
   27.7730  -19.5546   -6.9663 N   0  0  0  0  0  0  0  0  0  0  0  0
   27.4513  -18.1604   -6.8212 C   0  0  0  0  0  0  0  0  0  0  0  0
   27.9683  -17.7231   -5.4563 C   0  0  0  0  0  0  0  0  0  0  0  0
   29.1514  -18.6081   -5.2601 C   0  0  0  0  0  0  0  0  0  0  0  0
   28.8077  -19.8695   -5.9873 C   0  0  1  0  0  0  0  0  0  0  0  0
   28.2892  -20.8535   -5.0106 C   0  0  0  0  0  0  0  0  0  0  0  0
   29.0862  -21.4681   -4.0614 O   0  0  0  0  0  0  0  0  0  0  0  0
   27.0539  -21.1356   -5.0600 O   0  0  0  0  0  0  0  0  0  0  0  0
  2  1  1  1
  2  3  1  0
  4  2  1  0
  4  5  1  0
  5  6  1  6
  7  5  1  0
  7  8  2  0
 10 12  1  0
 10 11  1  1
 10  9  1  0
 12 13  1  6
 13  7  1  0
 14 12  1  0
 15 14  2  0
 16 14  1  0
 17 16  1  0
 18 17  1  0
 19 18  1  0
 19 20  1  0
 20 21  1  1
 20 16  1  0
 21 22  1  0
 23 21  2  0
M  END
$$$$
