LVP.pdb
     RDKit          3D

 23 23  0  0  1  0  0  0  0  0999 V2000
   29.0388  -18.0555  -17.3778 C   0  0  0  0  0  0  0  0  0  0  0  0
   27.5837  -17.5720  -17.4465 C   0  0  2  0  0  0  0  0  0  0  0  0
   27.6344  -16.2653  -18.2044 C   0  0  0  0  0  0  0  0  0  0  0  0
   26.9692  -17.4614  -16.0915 C   0  0  0  0  0  0  0  0  0  0  0  0
   26.4901  -18.7705  -15.5653 C   0  0  2  0  0  0  0  0  0  0  0  0
   25.7824  -19.4818  -16.5832 N   0  0  0  0  0  0  0  0  0  0  0  0
   25.7568  -18.6687  -14.2937 C   0  0  0  0  0  0  0  0  0  0  0  0
   24.8739  -17.7919  -14.1214 O   0  0  0  0  0  0  0  0  0  0  0  0
   23.1910  -19.7049  -13.8807 C   0  0  0  0  0  0  0  0  0  0  0  0
   23.7817  -20.4847  -12.7112 C   0  0  2  0  0  0  0  0  0  0  0  0
   22.6926  -20.6402  -11.6783 C   0  0  0  0  0  0  0  0  0  0  0  0
   25.0060  -19.7700  -12.1596 C   0  0  2  0  0  0  0  0  0  0  0  0
   25.9886  -19.5479  -13.1668 N   0  0  0  0  0  0  0  0  0  0  0  0
   25.5073  -20.5367  -11.0191 C   0  0  0  0  0  0  0  0  0  0  0  0
   25.5821  -21.8083  -11.2180 O   0  0  0  0  0  0  0  0  0  0  0  0
   25.9088  -20.0823   -9.7644 N   0  0  0  0  0  0  0  0  0  0  0  0
   25.9818  -18.7274   -9.2877 C   0  0  0  0  0  0  0  0  0  0  0  0
   26.0318  -18.7920   -7.7663 C   0  0  0  0  0  0  0  0  0  0  0  0
   26.7283  -20.0867   -7.5205 C   0  0  0  0  0  0  0  0  0  0  0  0
   26.3394  -20.9533   -8.6762 C   0  0  1  0  0  0  0  0  0  0  0  0
   25.2177  -21.8244   -8.2592 C   0  0  0  0  0  0  0  0  0  0  0  0
   25.3838  -22.9366   -7.4534 O   0  0  0  0  0  0  0  0  0  0  0  0
   24.0560  -21.5232   -8.6689 O   0  0  0  0  0  0  0  0  0  0  0  0
  2  1  1  1
  2  3  1  0
  4  2  1  0
  4  5  1  0
  5  6  1  6
  7  5  1  0
  7  8  2  0
 10 12  1  0
 10 11  1  1
 10  9  1  0
 12 13  1  6
 13  7  1  0
 14 12  1  0
 15 14  2  0
 16 14  1  0
 17 16  1  0
 18 17  1  0
 19 18  1  0
 19 20  1  0
 20 21  1  1
 20 16  1  0
 21 22  1  0
 23 21  2  0
M  END
$$$$
