EPC.pdb
     RDKit          3D

 23 23  0  0  1  0  0  0  0  0999 V2000
   22.4305  -20.4103  -13.9883 N   0  0  0  0  0  0  0  0  0  0  0  0
   23.1908  -20.9820  -15.1116 C   0  0  1  0  0  0  0  0  0  0  0  0
   22.3093  -20.8505  -16.3240 C   0  0  0  0  0  0  0  0  0  0  0  0
   22.3894  -21.9837  -17.2892 C   0  0  0  0  0  0  0  0  0  0  0  0
   21.7197  -23.2049  -16.7035 C   0  0  0  0  0  0  0  0  0  0  0  0
   22.3105  -24.3144  -16.6936 O   0  0  0  0  0  0  0  0  0  0  0  0
   24.3996  -20.1522  -15.3120 C   0  0  0  0  0  0  0  0  0  0  0  0
   24.2819  -18.8883  -15.1215 O   0  0  0  0  0  0  0  0  0  0  0  0
   20.4453  -23.1347  -16.1653 O   0  0  0  0  0  0  0  0  0  0  0  0
   25.6759  -20.6161  -15.6943 N   0  0  0  0  0  0  0  0  0  0  0  0
   26.0293  -21.9839  -15.8874 C   0  0  0  0  0  0  0  0  0  0  0  0
   27.5264  -22.0115  -16.0106 C   0  0  0  0  0  0  0  0  0  0  0  0
   27.9786  -20.6385  -15.5168 C   0  0  0  0  0  0  0  0  0  0  0  0
   26.8030  -19.7769  -15.9408 C   0  0  1  0  0  0  0  0  0  0  0  0
   26.9677  -19.3953  -17.3625 C   0  0  0  0  0  0  0  0  0  0  0  0
   26.7550  -20.2329  -18.2731 O   0  0  0  0  0  0  0  0  0  0  0  0
   27.3649  -18.0945  -17.7591 N   0  0  0  0  0  0  0  0  0  0  0  0
   27.4893  -17.6467  -19.1120 C   0  0  1  0  0  0  0  0  0  0  0  0
   26.7894  -16.2853  -19.1917 C   0  0  0  0  0  0  0  0  0  0  0  0
   25.1505  -16.3248  -18.4677 S   0  0  0  0  0  0  0  0  0  0  0  0
   28.8709  -17.4453  -19.5521 C   0  0  0  0  0  0  0  0  0  0  0  0
   29.1176  -17.1414  -20.8801 O   0  0  0  0  0  0  0  0  0  0  0  0
   29.8097  -17.5494  -18.7280 O   0  0  0  0  0  0  0  0  0  0  0  0
  2  1  1  1
  3  2  1  0
  4  5  1  0
  4  3  1  0
  5  9  1  0
  6  5  2  0
  7 10  1  0
  7  2  1  0
  8  7  2  0
 10 14  1  0
 11 12  1  0
 11 10  1  0
 12 13  1  0
 13 14  1  0
 14 15  1  6
 15 17  1  0
 16 15  2  0
 18 17  1  0
 18 19  1  1
 20 19  1  0
 21 18  1  0
 21 22  1  0
 23 21  2  0
M  END
$$$$
