EPC.pdb
     RDKit          3D

 23 23  0  0  1  0  0  0  0  0999 V2000
   43.5980   -9.1020   -8.3732 N   0  0  0  0  0  0  0  0  0  0  0  0
   42.4276   -9.8028   -8.9262 C   0  0  1  0  0  0  0  0  0  0  0  0
   41.5924  -10.2192   -7.7458 C   0  0  0  0  0  0  0  0  0  0  0  0
   41.2339   -9.1191   -6.8060 C   0  0  0  0  0  0  0  0  0  0  0  0
   40.3745   -9.6598   -5.6871 C   0  0  0  0  0  0  0  0  0  0  0  0
   40.0550   -8.9279   -4.7163 O   0  0  0  0  0  0  0  0  0  0  0  0
   41.6561   -8.8322   -9.7341 C   0  0  0  0  0  0  0  0  0  0  0  0
   41.9818   -7.5947   -9.6334 O   0  0  0  0  0  0  0  0  0  0  0  0
   39.9189  -10.9678   -5.7012 O   0  0  0  0  0  0  0  0  0  0  0  0
   40.5914   -9.1348  -10.6089 N   0  0  0  0  0  0  0  0  0  0  0  0
   40.0688  -10.4399  -10.8468 C   0  0  0  0  0  0  0  0  0  0  0  0
   39.1555  -10.3107  -12.0327 C   0  0  0  0  0  0  0  0  0  0  0  0
   39.4948   -8.9476  -12.6329 C   0  0  0  0  0  0  0  0  0  0  0  0
   39.8834   -8.1716  -11.3876 C   0  0  1  0  0  0  0  0  0  0  0  0
   38.6583   -7.6551  -10.7346 C   0  0  0  0  0  0  0  0  0  0  0  0
   37.5770   -7.5970  -11.3697 O   0  0  0  0  0  0  0  0  0  0  0  0
   38.6440   -7.2101   -9.3897 N   0  0  0  0  0  0  0  0  0  0  0  0
   37.6016   -6.4372   -8.7877 C   0  0  1  0  0  0  0  0  0  0  0  0
   37.3735   -7.0191   -7.3881 C   0  0  0  0  0  0  0  0  0  0  0  0
   37.1164   -8.7922   -7.4273 S   0  0  0  0  0  0  0  0  0  0  0  0
   37.9289   -5.0207   -8.6154 C   0  0  0  0  0  0  0  0  0  0  0  0
   36.9586   -4.1587   -8.1336 O   0  0  0  0  0  0  0  0  0  0  0  0
   39.0761   -4.6058   -8.9037 O   0  0  0  0  0  0  0  0  0  0  0  0
  2  1  1  1
  3  2  1  0
  4  5  1  0
  4  3  1  0
  5  9  1  0
  6  5  2  0
  7 10  1  0
  7  2  1  0
  8  7  2  0
 10 14  1  0
 11 12  1  0
 11 10  1  0
 12 13  1  0
 13 14  1  0
 14 15  1  1
 15 17  1  0
 16 15  2  0
 18 17  1  0
 18 19  1  1
 20 19  1  0
 21 18  1  0
 21 22  1  0
 23 21  2  0
M  END
$$$$
