EPC.pdb
     RDKit          3D

 23 23  0  0  1  0  0  0  0  0999 V2000
   14.7831  -21.9054   -1.0854 N   0  0  0  0  0  0  0  0  0  0  0  0
   14.6199  -21.6375    0.3527 C   0  0  1  0  0  0  0  0  0  0  0  0
   13.6134  -22.6377    0.8535 C   0  0  0  0  0  0  0  0  0  0  0  0
   12.2127  -22.4061    0.3992 C   0  0  0  0  0  0  0  0  0  0  0  0
   11.3184  -23.5122    0.9090 C   0  0  0  0  0  0  0  0  0  0  0  0
   10.4210  -23.2692    1.7550 O   0  0  0  0  0  0  0  0  0  0  0  0
   15.9176  -21.8988    1.0143 C   0  0  0  0  0  0  0  0  0  0  0  0
   16.7966  -22.5520    0.3447 O   0  0  0  0  0  0  0  0  0  0  0  0
   11.4628  -24.8148    0.4605 O   0  0  0  0  0  0  0  0  0  0  0  0
   16.2858  -21.4986    2.3161 N   0  0  0  0  0  0  0  0  0  0  0  0
   15.4189  -20.8729    3.2596 C   0  0  0  0  0  0  0  0  0  0  0  0
   16.3012  -20.3882    4.3748 C   0  0  0  0  0  0  0  0  0  0  0  0
   17.7175  -20.4707    3.8087 C   0  0  0  0  0  0  0  0  0  0  0  0
   17.5877  -21.6615    2.8764 C   0  0  1  0  0  0  0  0  0  0  0  0
   17.7536  -22.9098    3.6562 C   0  0  0  0  0  0  0  0  0  0  0  0
   16.7867  -23.3919    4.2955 O   0  0  0  0  0  0  0  0  0  0  0  0
   18.9844  -23.6085    3.7194 N   0  0  0  0  0  0  0  0  0  0  0  0
   19.1495  -24.9469    4.1966 C   0  0  1  0  0  0  0  0  0  0  0  0
   20.3827  -25.5185    3.4879 C   0  0  0  0  0  0  0  0  0  0  0  0
   20.2074  -25.4976    1.7046 S   0  0  0  0  0  0  0  0  0  0  0  0
   19.3985  -25.0436    5.6360 C   0  0  0  0  0  0  0  0  0  0  0  0
   19.6482  -23.8877    6.3559 O   0  0  0  0  0  0  0  0  0  0  0  0
   19.3831  -26.1640    6.1979 O   0  0  0  0  0  0  0  0  0  0  0  0
  2  1  1  6
  3  2  1  0
  4  5  1  0
  4  3  1  0
  5  9  1  0
  6  5  2  0
  7 10  1  0
  7  2  1  0
  8  7  2  0
 10 14  1  0
 11 12  1  0
 11 10  1  0
 12 13  1  0
 13 14  1  0
 14 15  1  1
 15 17  1  0
 16 15  2  0
 18 17  1  0
 18 19  1  6
 20 19  1  0
 21 18  1  0
 21 22  1  0
 23 21  2  0
M  END
$$$$
