EPC.pdb
     RDKit          3D

 23 23  0  0  1  0  0  0  0  0999 V2000
   20.0527  -12.6964  -16.8049 N   0  0  0  0  0  0  0  0  0  0  0  0
   20.4542  -11.5028  -17.5671 C   0  0  1  0  0  0  0  0  0  0  0  0
   19.1853  -10.9123  -18.1198 C   0  0  0  0  0  0  0  0  0  0  0  0
   18.5242  -11.7196  -19.1843 C   0  0  0  0  0  0  0  0  0  0  0  0
   17.2961  -10.9975  -19.6877 C   0  0  0  0  0  0  0  0  0  0  0  0
   17.2939   -9.7459  -19.8045 O   0  0  0  0  0  0  0  0  0  0  0  0
   21.0526  -10.5373  -16.6185 C   0  0  0  0  0  0  0  0  0  0  0  0
   20.6239  -10.5606  -15.4089 O   0  0  0  0  0  0  0  0  0  0  0  0
   16.1474  -11.6912  -20.0316 O   0  0  0  0  0  0  0  0  0  0  0  0
   22.0534   -9.5881  -16.9147 N   0  0  0  0  0  0  0  0  0  0  0  0
   22.6265   -9.3726  -18.2024 C   0  0  0  0  0  0  0  0  0  0  0  0
   23.8174   -8.4835  -17.9823 C   0  0  0  0  0  0  0  0  0  0  0  0
   24.0579   -8.5284  -16.4745 C   0  0  0  0  0  0  0  0  0  0  0  0
   22.6405   -8.7047  -15.9605 C   0  0  1  0  0  0  0  0  0  0  0  0
   21.9825   -7.3798  -15.8848 C   0  0  0  0  0  0  0  0  0  0  0  0
   21.5132   -6.8444  -16.9187 O   0  0  0  0  0  0  0  0  0  0  0  0
   21.8519   -6.6646  -14.6689 N   0  0  0  0  0  0  0  0  0  0  0  0
   21.1952   -5.4024  -14.5209 C   0  0  1  0  0  0  0  0  0  0  0  0
   20.0307   -5.6227  -13.5489 C   0  0  0  0  0  0  0  0  0  0  0  0
   19.2085   -4.0889  -13.1210 S   0  0  0  0  0  0  0  0  0  0  0  0
   22.0386   -4.3513  -13.9490 C   0  0  0  0  0  0  0  0  0  0  0  0
   21.9112   -3.0551  -14.4182 O   0  0  0  0  0  0  0  0  0  0  0  0
   22.8616   -4.6337  -13.0466 O   0  0  0  0  0  0  0  0  0  0  0  0
  2  1  1  1
  3  2  1  0
  4  5  1  0
  4  3  1  0
  5  9  1  0
  6  5  2  0
  7 10  1  0
  7  2  1  0
  8  7  2  0
 10 14  1  0
 11 12  1  0
 11 10  1  0
 12 13  1  0
 13 14  1  0
 14 15  1  6
 15 17  1  0
 16 15  2  0
 18 17  1  0
 18 19  1  1
 20 19  1  0
 21 18  1  0
 21 22  1  0
 23 21  2  0
M  END
$$$$
