EPC.pdb
     RDKit          3D

 23 23  0  0  1  0  0  0  0  0999 V2000
   26.4217  -21.1280  -18.7373 N   0  0  0  0  0  0  0  0  0  0  0  0
   26.9492  -20.1807  -17.7418 C   0  0  1  0  0  0  0  0  0  0  0  0
   26.1964  -18.8942  -17.9477 C   0  0  0  0  0  0  0  0  0  0  0  0
   24.7980  -18.8909  -17.4314 C   0  0  0  0  0  0  0  0  0  0  0  0
   24.5181  -17.5897  -16.7162 C   0  0  0  0  0  0  0  0  0  0  0  0
   23.4320  -17.4162  -16.1077 O   0  0  0  0  0  0  0  0  0  0  0  0
   26.6278  -20.7081  -16.3970 C   0  0  0  0  0  0  0  0  0  0  0  0
   25.6750  -21.5642  -16.3147 O   0  0  0  0  0  0  0  0  0  0  0  0
   25.4449  -16.5602  -16.7123 O   0  0  0  0  0  0  0  0  0  0  0  0
   27.2691  -20.3603  -15.1894 N   0  0  0  0  0  0  0  0  0  0  0  0
   28.2279  -19.3157  -15.0393 C   0  0  0  0  0  0  0  0  0  0  0  0
   28.8271  -19.4966  -13.6734 C   0  0  0  0  0  0  0  0  0  0  0  0
   28.3964  -20.8986  -13.2468 C   0  0  0  0  0  0  0  0  0  0  0  0
   27.0500  -21.0109  -13.9387 C   0  0  1  0  0  0  0  0  0  0  0  0
   26.0160  -20.3637  -13.0985 C   0  0  0  0  0  0  0  0  0  0  0  0
   25.8371  -19.1225  -13.1562 O   0  0  0  0  0  0  0  0  0  0  0  0
   25.1942  -21.0956  -12.2064 N   0  0  0  0  0  0  0  0  0  0  0  0
   24.3049  -20.5210  -11.2445 C   0  0  1  0  0  0  0  0  0  0  0  0
   22.9805  -21.2843  -11.3574 C   0  0  0  0  0  0  0  0  0  0  0  0
   21.7668  -20.7109  -10.1701 S   0  0  0  0  0  0  0  0  0  0  0  0
   24.7573  -20.6495   -9.8581 C   0  0  0  0  0  0  0  0  0  0  0  0
   24.4833  -19.6298   -8.9626 O   0  0  0  0  0  0  0  0  0  0  0  0
   25.3836  -21.6740   -9.4986 O   0  0  0  0  0  0  0  0  0  0  0  0
  2  1  1  6
  3  2  1  0
  4  5  1  0
  4  3  1  0
  5  9  1  0
  6  5  2  0
  7 10  1  0
  7  2  1  0
  8  7  2  0
 10 14  1  0
 11 12  1  0
 11 10  1  0
 12 13  1  0
 13 14  1  0
 14 15  1  1
 15 17  1  0
 16 15  2  0
 18 17  1  0
 18 19  1  1
 20 19  1  0
 21 18  1  0
 21 22  1  0
 23 21  2  0
M  END
$$$$
