EPC.pdb
     RDKit          3D

 23 23  0  0  1  0  0  0  0  0999 V2000
   20.5300  -12.4753  -17.3611 N   0  0  0  0  0  0  0  0  0  0  0  0
   19.6257  -11.3210  -17.4898 C   0  0  1  0  0  0  0  0  0  0  0  0
   18.7388  -11.3460  -16.2744 C   0  0  0  0  0  0  0  0  0  0  0  0
   17.8159  -12.5135  -16.1897 C   0  0  0  0  0  0  0  0  0  0  0  0
   16.9531  -12.3970  -14.9549 C   0  0  0  0  0  0  0  0  0  0  0  0
   15.9817  -11.5996  -14.9273 O   0  0  0  0  0  0  0  0  0  0  0  0
   20.4487  -10.0917  -17.4511 C   0  0  0  0  0  0  0  0  0  0  0  0
   21.6383  -10.1966  -16.9804 O   0  0  0  0  0  0  0  0  0  0  0  0
   17.2079  -13.1608  -13.8278 O   0  0  0  0  0  0  0  0  0  0  0  0
   20.0522   -8.8084  -17.8825 N   0  0  0  0  0  0  0  0  0  0  0  0
   18.7918   -8.4916  -18.4692 C   0  0  0  0  0  0  0  0  0  0  0  0
   18.9259   -7.0968  -19.0111 C   0  0  0  0  0  0  0  0  0  0  0  0
   20.4286   -6.8225  -19.0001 C   0  0  0  0  0  0  0  0  0  0  0  0
   20.8628   -7.6376  -17.7954 C   0  0  1  0  0  0  0  0  0  0  0  0
   20.6398   -6.8434  -16.5651 C   0  0  0  0  0  0  0  0  0  0  0  0
   19.5164   -6.8432  -16.0049 O   0  0  0  0  0  0  0  0  0  0  0  0
   21.6600   -6.0606  -15.9706 N   0  0  0  0  0  0  0  0  0  0  0  0
   21.5264   -5.3157  -14.7567 C   0  0  1  0  0  0  0  0  0  0  0  0
   22.2848   -6.0943  -13.6759 C   0  0  0  0  0  0  0  0  0  0  0  0
   22.3906   -5.1837  -12.1361 S   0  0  0  0  0  0  0  0  0  0  0  0
   22.1108   -3.9745  -14.8092 C   0  0  0  0  0  0  0  0  0  0  0  0
   23.2557   -3.7670  -15.5595 O   0  0  0  0  0  0  0  0  0  0  0  0
   21.5725   -3.0342  -14.1787 O   0  0  0  0  0  0  0  0  0  0  0  0
  2  1  1  1
  3  2  1  0
  4  5  1  0
  4  3  1  0
  5  9  1  0
  6  5  2  0
  7 10  1  0
  7  2  1  0
  8  7  2  0
 10 14  1  0
 11 12  1  0
 11 10  1  0
 12 13  1  0
 13 14  1  0
 14 15  1  1
 15 17  1  0
 16 15  2  0
 18 17  1  0
 18 19  1  1
 20 19  1  0
 21 18  1  0
 21 22  1  0
 23 21  2  0
M  END
$$$$
