MML.pdb
     RDKit          3D

 25 24  0  0  1  0  0  0  0  0999 V2000
   32.2077  -22.2828  -11.7890 C   0  0  0  0  0  0  0  0  0  0  0  0
   32.4222  -23.3828  -13.1990 S   0  0  0  0  0  0  0  0  0  0  0  0
   31.1672  -22.9560  -14.4691 C   0  0  0  0  0  0  0  0  0  0  0  0
   30.1228  -22.1196  -13.7988 C   0  0  0  0  0  0  0  0  0  0  0  0
   28.9773  -21.7151  -14.6765 C   0  0  2  0  0  0  0  0  0  0  0  0
   29.5361  -20.8825  -15.7398 N   0  0  0  0  0  0  0  0  0  0  0  0
   27.9691  -20.8835  -13.9771 C   0  0  0  0  0  0  0  0  0  0  0  0
   27.9604  -19.6490  -14.2403 O   0  0  0  0  0  0  0  0  0  0  0  0
   22.0107  -22.3055  -13.6991 C   0  0  0  0  0  0  0  0  0  0  0  0
   21.9618  -20.5315  -13.3181 S   0  0  0  0  0  0  0  0  0  0  0  0
   23.5330  -20.0996  -12.5357 C   0  0  0  0  0  0  0  0  0  0  0  0
   24.6962  -20.8344  -13.0703 C   0  0  0  0  0  0  0  0  0  0  0  0
   26.0223  -20.5961  -12.3859 C   0  0  2  0  0  0  0  0  0  0  0  0
   27.0461  -21.4186  -13.0522 N   0  0  0  0  0  0  0  0  0  0  0  0
   26.0447  -20.9864  -10.9639 C   0  0  0  0  0  0  0  0  0  0  0  0
   26.0548  -22.2366  -10.6832 O   0  0  0  0  0  0  0  0  0  0  0  0
   27.5320  -18.7102   -5.5482 C   0  0  0  0  0  0  0  0  0  0  0  0
   27.2909  -19.9266   -6.4541 C   0  0  2  0  0  0  0  0  0  0  0  0
   28.6574  -20.2638   -7.0518 C   0  0  0  0  0  0  0  0  0  0  0  0
   26.3551  -19.4739   -7.5196 C   0  0  0  0  0  0  0  0  0  0  0  0
   25.8975  -20.5176   -8.4812 C   0  0  2  0  0  0  0  0  0  0  0  0
   26.0591  -20.0984   -9.8589 N   0  0  0  0  0  0  0  0  0  0  0  0
   24.5605  -21.0724   -8.2254 C   0  0  0  0  0  0  0  0  0  0  0  0
   23.5217  -20.6369   -8.8294 O   0  0  0  0  0  0  0  0  0  0  0  0
   24.3357  -22.0980   -7.3193 O   0  0  0  0  0  0  0  0  0  0  0  0
  1  2  1  0
  3  2  1  0
  4  3  1  0
  5  6  1  6
  5  4  1  0
  7  5  1  0
  8  7  2  0
 10  9  1  0
 10 11  1  0
 11 12  1  0
 13 12  1  6
 13 14  1  0
 14  7  1  0
 15 13  1  0
 15 16  2  0
 18 17  1  1
 18 20  1  0
 18 19  1  0
 21 20  1  1
 21 22  1  0
 22 15  1  0
 23 21  1  0
 24 23  2  0
 25 23  1  0
M  END
$$$$
