MML.pdb
     RDKit          3D

 25 24  0  0  1  0  0  0  0  0999 V2000
   26.5358  -15.9172  -15.2567 C   0  0  0  0  0  0  0  0  0  0  0  0
   27.6571  -16.4996  -16.5405 S   0  0  0  0  0  0  0  0  0  0  0  0
   28.5050  -18.0108  -15.9341 C   0  0  0  0  0  0  0  0  0  0  0  0
   27.4975  -18.8085  -15.1671 C   0  0  0  0  0  0  0  0  0  0  0  0
   28.0265  -20.0656  -14.5459 C   0  0  2  0  0  0  0  0  0  0  0  0
   28.2567  -21.0094  -15.6379 N   0  0  0  0  0  0  0  0  0  0  0  0
   27.0625  -20.7143  -13.6255 C   0  0  0  0  0  0  0  0  0  0  0  0
   26.3021  -21.5940  -14.1169 O   0  0  0  0  0  0  0  0  0  0  0  0
   27.5984  -20.0629   -7.3061 C   0  0  0  0  0  0  0  0  0  0  0  0
   25.8942  -20.6807   -7.2117 S   0  0  0  0  0  0  0  0  0  0  0  0
   25.3455  -21.0234   -8.8994 C   0  0  0  0  0  0  0  0  0  0  0  0
   26.3373  -20.6825   -9.9381 C   0  0  0  0  0  0  0  0  0  0  0  0
   25.9321  -20.9347  -11.3720 C   0  0  2  0  0  0  0  0  0  0  0  0
   26.9744  -20.3849  -12.2553 N   0  0  0  0  0  0  0  0  0  0  0  0
   24.6723  -20.2772  -11.7661 C   0  0  0  0  0  0  0  0  0  0  0  0
   24.7430  -19.1231  -12.3184 O   0  0  0  0  0  0  0  0  0  0  0  0
   21.7652  -21.4771  -16.0802 C   0  0  0  0  0  0  0  0  0  0  0  0
   21.5223  -20.5246  -14.9004 C   0  0  2  0  0  0  0  0  0  0  0  0
   21.6928  -19.1174  -15.4739 C   0  0  0  0  0  0  0  0  0  0  0  0
   22.5908  -20.8129  -13.9049 C   0  0  0  0  0  0  0  0  0  0  0  0
   22.2571  -20.5288  -12.4797 C   0  0  2  0  0  0  0  0  0  0  0  0
   23.3689  -20.8075  -11.5931 N   0  0  0  0  0  0  0  0  0  0  0  0
   21.0011  -21.1177  -11.9933 C   0  0  0  0  0  0  0  0  0  0  0  0
   20.9268  -22.3387  -11.6228 O   0  0  0  0  0  0  0  0  0  0  0  0
   19.8205  -20.3956  -11.9032 O   0  0  0  0  0  0  0  0  0  0  0  0
  1  2  1  0
  3  2  1  0
  4  3  1  0
  5  6  1  6
  5  4  1  0
  7  5  1  0
  8  7  2  0
 10  9  1  0
 10 11  1  0
 11 12  1  0
 13 12  1  1
 13 14  1  0
 14  7  1  0
 15 13  1  0
 15 16  2  0
 18 17  1  6
 18 20  1  0
 18 19  1  0
 21 20  1  6
 21 22  1  0
 22 15  1  0
 23 21  1  0
 24 23  2  0
 25 23  1  0
M  END
$$$$
