MML.pdb
     RDKit          3D

 25 24  0  0  1  0  0  0  0  0999 V2000
   17.5369   -7.5132  -19.1166 C   0  0  0  0  0  0  0  0  0  0  0  0
   17.1578   -8.6109  -20.4934 S   0  0  0  0  0  0  0  0  0  0  0  0
   18.2899  -10.0542  -20.4186 C   0  0  0  0  0  0  0  0  0  0  0  0
   19.0152   -9.9832  -19.1115 C   0  0  0  0  0  0  0  0  0  0  0  0
   20.0546  -11.0433  -18.9067 C   0  0  2  0  0  0  0  0  0  0  0  0
   19.3568  -12.3272  -18.9365 N   0  0  0  0  0  0  0  0  0  0  0  0
   20.7243  -10.9592  -17.5870 C   0  0  0  0  0  0  0  0  0  0  0  0
   20.0780  -11.3787  -16.5871 O   0  0  0  0  0  0  0  0  0  0  0  0
   27.3825   -9.9159  -16.4867 C   0  0  0  0  0  0  0  0  0  0  0  0
   26.7048  -11.1520  -15.3433 S   0  0  0  0  0  0  0  0  0  0  0  0
   24.9694  -10.7349  -15.0574 C   0  0  0  0  0  0  0  0  0  0  0  0
   24.1443  -10.7111  -16.2809 C   0  0  0  0  0  0  0  0  0  0  0  0
   22.6867  -10.3505  -16.1095 C   0  0  2  0  0  0  0  0  0  0  0  0
   22.0264  -10.4383  -17.4229 N   0  0  0  0  0  0  0  0  0  0  0  0
   22.4594   -8.9753  -15.6278 C   0  0  0  0  0  0  0  0  0  0  0  0
   22.7796   -8.7010  -14.4178 O   0  0  0  0  0  0  0  0  0  0  0  0
   24.5227   -5.4155  -16.2464 C   0  0  0  0  0  0  0  0  0  0  0  0
   23.5521   -5.7017  -17.4015 C   0  0  2  0  0  0  0  0  0  0  0  0
   23.8431   -4.6281  -18.4508 C   0  0  0  0  0  0  0  0  0  0  0  0
   22.1815   -5.5283  -16.8471 C   0  0  0  0  0  0  0  0  0  0  0  0
   21.7277   -6.5652  -15.8764 C   0  0  2  0  0  0  0  0  0  0  0  0
   21.9147   -7.9087  -16.3864 N   0  0  0  0  0  0  0  0  0  0  0  0
   20.3813   -6.3672  -15.3208 C   0  0  0  0  0  0  0  0  0  0  0  0
   19.4333   -7.1971  -15.5357 O   0  0  0  0  0  0  0  0  0  0  0  0
   20.0494   -5.2761  -14.5317 O   0  0  0  0  0  0  0  0  0  0  0  0
  1  2  1  0
  3  2  1  0
  4  3  1  0
  5  6  1  1
  5  4  1  0
  7  5  1  0
  8  7  2  0
 10  9  1  0
 10 11  1  0
 11 12  1  0
 13 12  1  6
 13 14  1  0
 14  7  1  0
 15 13  1  0
 15 16  2  0
 18 17  1  1
 18 20  1  0
 18 19  1  0
 21 20  1  6
 21 22  1  0
 22 15  1  0
 23 21  1  0
 24 23  2  0
 25 23  1  0
M  END
$$$$
