MML.pdb
     RDKit          3D

 25 24  0  0  1  0  0  0  0  0999 V2000
   20.8824  -21.3775  -11.3737 C   0  0  0  0  0  0  0  0  0  0  0  0
   21.1202  -19.8876  -12.3576 S   0  0  0  0  0  0  0  0  0  0  0  0
   22.8176  -19.9137  -13.0566 C   0  0  0  0  0  0  0  0  0  0  0  0
   23.6752  -20.6965  -12.1125 C   0  0  0  0  0  0  0  0  0  0  0  0
   25.1428  -20.6618  -12.4146 C   0  0  2  0  0  0  0  0  0  0  0  0
   25.3493  -21.5022  -13.5924 N   0  0  0  0  0  0  0  0  0  0  0  0
   25.9767  -21.2399  -11.3340 C   0  0  0  0  0  0  0  0  0  0  0  0
   25.9274  -22.4916  -11.1777 O   0  0  0  0  0  0  0  0  0  0  0  0
   31.4481  -21.7307  -11.9847 C   0  0  0  0  0  0  0  0  0  0  0  0
   31.7745  -21.8242  -10.2016 S   0  0  0  0  0  0  0  0  0  0  0  0
   30.1843  -21.7064   -9.3505 C   0  0  0  0  0  0  0  0  0  0  0  0
   29.1023  -21.1257  -10.1694 C   0  0  0  0  0  0  0  0  0  0  0  0
   27.7371  -21.0388   -9.5271 C   0  0  2  0  0  0  0  0  0  0  0  0
   26.7998  -20.4523  -10.4999 N   0  0  0  0  0  0  0  0  0  0  0  0
   27.6866  -20.1716   -8.3353 C   0  0  0  0  0  0  0  0  0  0  0  0
   27.3765  -18.9394   -8.5005 O   0  0  0  0  0  0  0  0  0  0  0  0
   25.5844  -19.7059   -4.1330 C   0  0  0  0  0  0  0  0  0  0  0  0
   26.5236  -20.9060   -4.3229 C   0  0  2  0  0  0  0  0  0  0  0  0
   26.4983  -21.6551   -2.9901 C   0  0  0  0  0  0  0  0  0  0  0  0
   27.8771  -20.3402   -4.5754 C   0  0  0  0  0  0  0  0  0  0  0  0
   28.0717  -19.6584   -5.8871 C   0  0  2  0  0  0  0  0  0  0  0  0
   27.9494  -20.5758   -7.0021 N   0  0  0  0  0  0  0  0  0  0  0  0
   29.2727  -18.8175   -5.9922 C   0  0  0  0  0  0  0  0  0  0  0  0
   30.2985  -19.1856   -6.6599 O   0  0  0  0  0  0  0  0  0  0  0  0
   29.3750  -17.5773   -5.3799 O   0  0  0  0  0  0  0  0  0  0  0  0
  1  2  1  0
  3  2  1  0
  4  3  1  0
  5  6  1  6
  5  4  1  0
  7  5  1  0
  8  7  2  0
 10  9  1  0
 10 11  1  0
 11 12  1  0
 13 12  1  6
 13 14  1  0
 14  7  1  0
 15 13  1  0
 15 16  2  0
 18 17  1  1
 18 20  1  0
 18 19  1  0
 21 20  1  1
 21 22  1  0
 22 15  1  0
 23 21  1  0
 24 23  2  0
 25 23  1  0
M  END
$$$$
