MML.pdb
     RDKit          3D

 25 24  0  0  1  0  0  0  0  0999 V2000
   28.7743  -19.0604   -6.7778 C   0  0  0  0  0  0  0  0  0  0  0  0
   27.0384  -18.9111   -6.3209 S   0  0  0  0  0  0  0  0  0  0  0  0
   26.0682  -20.1149   -7.3108 C   0  0  0  0  0  0  0  0  0  0  0  0
   26.6378  -20.1142   -8.6947 C   0  0  0  0  0  0  0  0  0  0  0  0
   26.0151  -21.1009   -9.6354 C   0  0  2  0  0  0  0  0  0  0  0  0
   26.7384  -22.3593   -9.4636 N   0  0  0  0  0  0  0  0  0  0  0  0
   26.1613  -20.7230  -11.0612 C   0  0  0  0  0  0  0  0  0  0  0  0
   27.3182  -20.8007  -11.5603 O   0  0  0  0  0  0  0  0  0  0  0  0
   23.8516  -25.6185  -14.8210 C   0  0  0  0  0  0  0  0  0  0  0  0
   23.2219  -23.9161  -14.8048 S   0  0  0  0  0  0  0  0  0  0  0  0
   24.1985  -22.9862  -13.6013 C   0  0  0  0  0  0  0  0  0  0  0  0
   23.8385  -21.5580  -13.5054 C   0  0  0  0  0  0  0  0  0  0  0  0
   24.9747  -20.5846  -13.2922 C   0  0  2  0  0  0  0  0  0  0  0  0
   25.0744  -20.2914  -11.8524 N   0  0  0  0  0  0  0  0  0  0  0  0
   24.7878  -19.2847  -13.9631 C   0  0  0  0  0  0  0  0  0  0  0  0
   23.8678  -18.5081  -13.5246 O   0  0  0  0  0  0  0  0  0  0  0  0
   27.6824  -15.3859  -17.6666 C   0  0  0  0  0  0  0  0  0  0  0  0
   26.4102  -15.5496  -16.8223 C   0  0  2  0  0  0  0  0  0  0  0  0
   26.4193  -14.3747  -15.8437 C   0  0  0  0  0  0  0  0  0  0  0  0
   26.5587  -16.8370  -16.0899 C   0  0  0  0  0  0  0  0  0  0  0  0
   25.2935  -17.5334  -15.7188 C   0  0  2  0  0  0  0  0  0  0  0  0
   25.5410  -18.8014  -15.0626 N   0  0  0  0  0  0  0  0  0  0  0  0
   24.2969  -17.6520  -16.7929 C   0  0  0  0  0  0  0  0  0  0  0  0
   24.2876  -18.6440  -17.5988 O   0  0  0  0  0  0  0  0  0  0  0  0
   23.3065  -16.7045  -17.0040 O   0  0  0  0  0  0  0  0  0  0  0  0
  1  2  1  0
  3  2  1  0
  4  3  1  0
  5  6  1  6
  5  4  1  0
  7  5  1  0
  8  7  2  0
 10  9  1  0
 10 11  1  0
 11 12  1  0
 13 12  1  1
 13 14  1  0
 14  7  1  0
 15 13  1  0
 15 16  2  0
 18 17  1  6
 18 20  1  0
 18 19  1  0
 21 20  1  6
 21 22  1  0
 22 15  1  0
 23 21  1  0
 24 23  2  0
 25 23  1  0
M  END
$$$$
