MML.pdb
     RDKit          3D

 25 24  0  0  1  0  0  0  0  0999 V2000
   16.0726  -25.3218   -1.6229 C   0  0  0  0  0  0  0  0  0  0  0  0
   15.7981  -23.6908   -2.3363 S   0  0  0  0  0  0  0  0  0  0  0  0
   14.9110  -22.6568   -1.1057 C   0  0  0  0  0  0  0  0  0  0  0  0
   15.8395  -22.4446    0.0487 C   0  0  0  0  0  0  0  0  0  0  0  0
   15.2618  -21.6627    1.1893 C   0  0  2  0  0  0  0  0  0  0  0  0
   14.7200  -20.4296    0.6217 N   0  0  0  0  0  0  0  0  0  0  0  0
   16.2746  -21.2548    2.1918 C   0  0  0  0  0  0  0  0  0  0  0  0
   16.7944  -22.1702    2.8884 O   0  0  0  0  0  0  0  0  0  0  0  0
   21.4459  -16.7678    2.1490 C   0  0  0  0  0  0  0  0  0  0  0  0
   20.2746  -17.2237    0.8395 S   0  0  0  0  0  0  0  0  0  0  0  0
   19.3160  -18.6360    1.4344 C   0  0  0  0  0  0  0  0  0  0  0  0
   18.4978  -18.3505    2.6292 C   0  0  0  0  0  0  0  0  0  0  0  0
   17.7820  -19.5238    3.2576 C   0  0  2  0  0  0  0  0  0  0  0  0
   16.6623  -19.9106    2.3828 N   0  0  0  0  0  0  0  0  0  0  0  0
   17.1899  -19.2318    4.5763 C   0  0  0  0  0  0  0  0  0  0  0  0
   15.9783  -18.8164    4.6131 O   0  0  0  0  0  0  0  0  0  0  0  0
   17.5807  -20.7726   10.4429 C   0  0  0  0  0  0  0  0  0  0  0  0
   16.7940  -19.9186    9.4378 C   0  0  2  0  0  0  0  0  0  0  0  0
   15.3816  -20.5044    9.4264 C   0  0  0  0  0  0  0  0  0  0  0  0
   17.4503  -20.1191    8.1168 C   0  0  0  0  0  0  0  0  0  0  0  0
   17.2247  -19.0515    7.1005 C   0  0  2  0  0  0  0  0  0  0  0  0
   17.8405  -19.3707    5.8282 N   0  0  0  0  0  0  0  0  0  0  0  0
   17.5374  -17.6836    7.5383 C   0  0  0  0  0  0  0  0  0  0  0  0
   16.8536  -17.0903    8.4407 O   0  0  0  0  0  0  0  0  0  0  0  0
   18.5870  -16.9486    7.0077 O   0  0  0  0  0  0  0  0  0  0  0  0
  1  2  1  0
  3  2  1  0
  4  3  1  0
  5  6  1  6
  5  4  1  0
  7  5  1  0
  8  7  2  0
 10  9  1  0
 10 11  1  0
 11 12  1  0
 13 12  1  6
 13 14  1  0
 14  7  1  0
 15 13  1  0
 15 16  2  0
 18 17  1  1
 18 20  1  0
 18 19  1  0
 21 20  1  1
 21 22  1  0
 22 15  1  0
 23 21  1  0
 24 23  2  0
 25 23  1  0
M  END
$$$$
