MML.pdb
     RDKit          3D

 25 24  0  0  1  0  0  0  0  0999 V2000
   29.7862  -18.9374  -18.8642 C   0  0  0  0  0  0  0  0  0  0  0  0
   28.3838  -19.0827  -17.7433 S   0  0  0  0  0  0  0  0  0  0  0  0
   28.4782  -20.7092  -16.8972 C   0  0  0  0  0  0  0  0  0  0  0  0
   27.2928  -20.8075  -15.9891 C   0  0  0  0  0  0  0  0  0  0  0  0
   27.2903  -21.9984  -15.0791 C   0  0  2  0  0  0  0  0  0  0  0  0
   27.0862  -23.1729  -15.9247 N   0  0  0  0  0  0  0  0  0  0  0  0
   26.1765  -21.9856  -14.1012 C   0  0  0  0  0  0  0  0  0  0  0  0
   25.1135  -22.5797  -14.4335 O   0  0  0  0  0  0  0  0  0  0  0  0
   26.8911  -19.3896   -8.0705 C   0  0  0  0  0  0  0  0  0  0  0  0
   25.4722  -20.4913   -7.8101 S   0  0  0  0  0  0  0  0  0  0  0  0
   24.7315  -20.8158   -9.4267 C   0  0  0  0  0  0  0  0  0  0  0  0
   25.7118  -20.9899  -10.5164 C   0  0  0  0  0  0  0  0  0  0  0  0
   25.1565  -21.3238  -11.8817 C   0  0  2  0  0  0  0  0  0  0  0  0
   26.2695  -21.3461  -12.8457 N   0  0  0  0  0  0  0  0  0  0  0  0
   24.1887  -20.3369  -12.3958 C   0  0  0  0  0  0  0  0  0  0  0  0
   24.6402  -19.3495  -13.0762 O   0  0  0  0  0  0  0  0  0  0  0  0
   21.3745  -21.5879  -16.6379 C   0  0  0  0  0  0  0  0  0  0  0  0
   21.2770  -20.3784  -15.6966 C   0  0  2  0  0  0  0  0  0  0  0  0
   21.7845  -19.1885  -16.5119 C   0  0  0  0  0  0  0  0  0  0  0  0
   22.1964  -20.6595  -14.5601 C   0  0  0  0  0  0  0  0  0  0  0  0
   21.8207  -20.0632  -13.2461 C   0  0  2  0  0  0  0  0  0  0  0  0
   22.7838  -20.3763  -12.2097 N   0  0  0  0  0  0  0  0  0  0  0  0
   20.4390  -20.3105  -12.8098 C   0  0  0  0  0  0  0  0  0  0  0  0
   20.1267  -21.3262  -12.0995 O   0  0  0  0  0  0  0  0  0  0  0  0
   19.3879  -19.4663  -13.1354 O   0  0  0  0  0  0  0  0  0  0  0  0
  1  2  1  0
  3  2  1  0
  4  3  1  0
  5  6  1  6
  5  4  1  0
  7  5  1  0
  8  7  2  0
 10  9  1  0
 10 11  1  0
 11 12  1  0
 13 12  1  1
 13 14  1  0
 14  7  1  0
 15 13  1  0
 15 16  2  0
 18 17  1  6
 18 20  1  0
 18 19  1  0
 21 20  1  6
 21 22  1  0
 22 15  1  0
 23 21  1  0
 24 23  2  0
 25 23  1  0
M  END
$$$$
