MML.pdb
     RDKit          3D

 25 24  0  0  1  0  0  0  0  0999 V2000
   31.1768  -21.4251  -10.2958 C   0  0  0  0  0  0  0  0  0  0  0  0
   30.2589  -22.3188  -11.5620 S   0  0  0  0  0  0  0  0  0  0  0  0
   29.2983  -21.1072  -12.5517 C   0  0  0  0  0  0  0  0  0  0  0  0
   28.3619  -20.4106  -11.6149 C   0  0  0  0  0  0  0  0  0  0  0  0
   26.9893  -21.0069  -11.5333 C   0  0  2  0  0  0  0  0  0  0  0  0
   26.3324  -20.7252  -12.8081 N   0  0  0  0  0  0  0  0  0  0  0  0
   26.1458  -20.3923  -10.4806 C   0  0  0  0  0  0  0  0  0  0  0  0
   25.6527  -19.2574  -10.7296 O   0  0  0  0  0  0  0  0  0  0  0  0
   22.0942  -23.2078   -6.3226 C   0  0  0  0  0  0  0  0  0  0  0  0
   21.3157  -22.0027   -7.4345 S   0  0  0  0  0  0  0  0  0  0  0  0
   22.5927  -20.8302   -7.9461 C   0  0  0  0  0  0  0  0  0  0  0  0
   23.9715  -21.3351   -7.7957 C   0  0  0  0  0  0  0  0  0  0  0  0
   25.0860  -20.3905   -8.1825 C   0  0  2  0  0  0  0  0  0  0  0  0
   25.8869  -21.0231   -9.2442 N   0  0  0  0  0  0  0  0  0  0  0  0
   26.0251  -20.0865   -7.0868 C   0  0  0  0  0  0  0  0  0  0  0  0
   25.5370  -19.7168   -5.9613 O   0  0  0  0  0  0  0  0  0  0  0  0
   29.9676  -22.3237   -5.6870 C   0  0  0  0  0  0  0  0  0  0  0  0
   30.0548  -21.3970   -6.9084 C   0  0  2  0  0  0  0  0  0  0  0  0
   31.5050  -21.4894   -7.3845 C   0  0  0  0  0  0  0  0  0  0  0  0
   29.7570  -20.0252   -6.4130 C   0  0  0  0  0  0  0  0  0  0  0  0
   28.3287  -19.7337   -6.0997 C   0  0  2  0  0  0  0  0  0  0  0  0
   27.4387  -20.1674   -7.1579 N   0  0  0  0  0  0  0  0  0  0  0  0
   28.0429  -18.3587   -5.6658 C   0  0  0  0  0  0  0  0  0  0  0  0
   28.4511  -17.9065   -4.5421 O   0  0  0  0  0  0  0  0  0  0  0  0
   27.3173  -17.4646   -6.4387 O   0  0  0  0  0  0  0  0  0  0  0  0
  1  2  1  0
  3  2  1  0
  4  3  1  0
  5  6  1  6
  5  4  1  0
  7  5  1  0
  8  7  2  0
 10  9  1  0
 10 11  1  0
 11 12  1  0
 13 12  1  1
 13 14  1  0
 14  7  1  0
 15 13  1  0
 15 16  2  0
 18 17  1  1
 18 20  1  0
 18 19  1  0
 21 20  1  6
 21 22  1  0
 22 15  1  0
 23 21  1  0
 24 23  2  0
 25 23  1  0
M  END
$$$$
