MML.pdb
     RDKit          3D

 25 24  0  0  1  0  0  0  0  0999 V2000
   26.6139  -16.8056  -15.2950 C   0  0  0  0  0  0  0  0  0  0  0  0
   27.5245  -17.4028  -16.7297 S   0  0  0  0  0  0  0  0  0  0  0  0
   28.2070  -19.0618  -16.3394 C   0  0  0  0  0  0  0  0  0  0  0  0
   27.2577  -19.7207  -15.3884 C   0  0  0  0  0  0  0  0  0  0  0  0
   27.9051  -20.5578  -14.3271 C   0  0  2  0  0  0  0  0  0  0  0  0
   28.5264  -21.6923  -15.0076 N   0  0  0  0  0  0  0  0  0  0  0  0
   26.9376  -21.1265  -13.3589 C   0  0  0  0  0  0  0  0  0  0  0  0
   26.3994  -22.2269  -13.6637 O   0  0  0  0  0  0  0  0  0  0  0  0
   27.6030  -19.6852   -7.2721 C   0  0  0  0  0  0  0  0  0  0  0  0
   25.9383  -20.3624   -7.0179 S   0  0  0  0  0  0  0  0  0  0  0  0
   25.3720  -21.0233   -8.6021 C   0  0  0  0  0  0  0  0  0  0  0  0
   26.1344  -20.5347   -9.7677 C   0  0  0  0  0  0  0  0  0  0  0  0
   25.7762  -21.1288  -11.1104 C   0  0  2  0  0  0  0  0  0  0  0  0
   26.6114  -20.4900  -12.1415 N   0  0  0  0  0  0  0  0  0  0  0  0
   24.3771  -20.8994  -11.5162 C   0  0  0  0  0  0  0  0  0  0  0  0
   23.4492  -21.2760  -10.7168 O   0  0  0  0  0  0  0  0  0  0  0  0
   23.1944  -17.3261  -15.0568 C   0  0  0  0  0  0  0  0  0  0  0  0
   23.5904  -18.8090  -15.0080 C   0  0  2  0  0  0  0  0  0  0  0  0
   23.8368  -19.2107  -16.4627 C   0  0  0  0  0  0  0  0  0  0  0  0
   22.4132  -19.5371  -14.4603 C   0  0  0  0  0  0  0  0  0  0  0  0
   22.5623  -20.0884  -13.0829 C   0  0  2  0  0  0  0  0  0  0  0  0
   23.9516  -20.2903  -12.7236 N   0  0  0  0  0  0  0  0  0  0  0  0
   21.7359  -21.2652  -12.7784 C   0  0  0  0  0  0  0  0  0  0  0  0
   22.2528  -22.3844  -12.4407 O   0  0  0  0  0  0  0  0  0  0  0  0
   20.3504  -21.2429  -12.8354 O   0  0  0  0  0  0  0  0  0  0  0  0
  1  2  1  0
  3  2  1  0
  4  3  1  0
  5  6  1  6
  5  4  1  0
  7  5  1  0
  8  7  2  0
 10  9  1  0
 10 11  1  0
 11 12  1  0
 13 12  1  1
 13 14  1  0
 14  7  1  0
 15 13  1  0
 15 16  2  0
 18 17  1  6
 18 20  1  0
 18 19  1  0
 21 20  1  6
 21 22  1  0
 22 15  1  0
 23 21  1  0
 24 23  2  0
 25 23  1  0
M  END
$$$$
