MML.pdb
     RDKit          3D

 25 24  0  0  1  0  0  0  0  0999 V2000
   14.4308  -22.7948    4.4342 C   0  0  0  0  0  0  0  0  0  0  0  0
   14.6759  -23.3325    2.7327 S   0  0  0  0  0  0  0  0  0  0  0  0
   14.9748  -21.8517    1.6895 C   0  0  0  0  0  0  0  0  0  0  0  0
   16.0439  -21.0454    2.3577 C   0  0  0  0  0  0  0  0  0  0  0  0
   16.4151  -19.7774    1.6500 C   0  0  2  0  0  0  0  0  0  0  0  0
   17.1082  -20.1680    0.4240 N   0  0  0  0  0  0  0  0  0  0  0  0
   17.3618  -18.9341    2.4180 C   0  0  0  0  0  0  0  0  0  0  0  0
   18.5927  -19.1714    2.2698 O   0  0  0  0  0  0  0  0  0  0  0  0
   18.2014  -11.9753    3.1507 C   0  0  0  0  0  0  0  0  0  0  0  0
   17.2627  -12.8718    4.4196 S   0  0  0  0  0  0  0  0  0  0  0  0
   18.0046  -14.5114    4.5882 C   0  0  0  0  0  0  0  0  0  0  0  0
   17.2322  -15.5929    3.9462 C   0  0  0  0  0  0  0  0  0  0  0  0
   17.8749  -16.9604    3.9165 C   0  0  2  0  0  0  0  0  0  0  0  0
   16.9369  -17.9036    3.2846 N   0  0  0  0  0  0  0  0  0  0  0  0
   18.1758  -17.5132    5.2501 C   0  0  0  0  0  0  0  0  0  0  0  0
   17.3227  -18.3108    5.7774 O   0  0  0  0  0  0  0  0  0  0  0  0
   22.6521  -19.3262    8.8581 C   0  0  0  0  0  0  0  0  0  0  0  0
   21.1450  -19.0321    8.8409 C   0  0  2  0  0  0  0  0  0  0  0  0
   20.4649  -20.3916    9.0063 C   0  0  0  0  0  0  0  0  0  0  0  0
   20.8468  -18.4619    7.4985 C   0  0  0  0  0  0  0  0  0  0  0  0
   19.5500  -17.7385    7.3636 C   0  0  2  0  0  0  0  0  0  0  0  0
   19.3376  -17.2460    6.0174 N   0  0  0  0  0  0  0  0  0  0  0  0
   19.2920  -16.7056    8.3772 C   0  0  0  0  0  0  0  0  0  0  0  0
   19.5806  -15.4766    8.1776 O   0  0  0  0  0  0  0  0  0  0  0  0
   18.7223  -16.9906    9.6091 O   0  0  0  0  0  0  0  0  0  0  0  0
  1  2  1  0
  3  2  1  0
  4  3  1  0
  5  6  1  6
  5  4  1  0
  7  5  1  0
  8  7  2  0
 10  9  1  0
 10 11  1  0
 11 12  1  0
 13 12  1  1
 13 14  1  0
 14  7  1  0
 15 13  1  0
 15 16  2  0
 18 17  1  6
 18 20  1  0
 18 19  1  0
 21 20  1  6
 21 22  1  0
 22 15  1  0
 23 21  1  0
 24 23  2  0
 25 23  1  0
M  END
$$$$
