MML.pdb
     RDKit          3D

 25 24  0  0  1  0  0  0  0  0999 V2000
   15.7745  -10.5087  -20.2504 C   0  0  0  0  0  0  0  0  0  0  0  0
   15.2451  -11.9396  -19.2931 S   0  0  0  0  0  0  0  0  0  0  0  0
   16.6594  -12.5170  -18.2749 C   0  0  0  0  0  0  0  0  0  0  0  0
   17.0786  -11.3727  -17.4063 C   0  0  0  0  0  0  0  0  0  0  0  0
   18.2813  -11.6350  -16.5514 C   0  0  2  0  0  0  0  0  0  0  0  0
   17.8220  -12.4260  -15.4115 N   0  0  0  0  0  0  0  0  0  0  0  0
   18.8824  -10.4009  -15.9922 C   0  0  0  0  0  0  0  0  0  0  0  0
   18.2954   -9.8709  -15.0084 O   0  0  0  0  0  0  0  0  0  0  0  0
   24.5123  -11.3509  -14.0567 C   0  0  0  0  0  0  0  0  0  0  0  0
   23.4421  -10.8950  -15.4500 S   0  0  0  0  0  0  0  0  0  0  0  0
   23.1244   -9.1194  -15.3338 C   0  0  0  0  0  0  0  0  0  0  0  0
   22.1497   -8.6142  -16.3204 C   0  0  0  0  0  0  0  0  0  0  0  0
   20.6953   -8.6371  -15.9104 C   0  0  2  0  0  0  0  0  0  0  0  0
   20.0585   -9.8197  -16.5143 N   0  0  0  0  0  0  0  0  0  0  0  0
   19.9203   -7.4719  -16.3757 C   0  0  0  0  0  0  0  0  0  0  0  0
   19.5327   -7.4558  -17.5969 O   0  0  0  0  0  0  0  0  0  0  0  0
   15.1405   -4.5077  -16.0628 C   0  0  0  0  0  0  0  0  0  0  0  0
   16.5432   -4.2914  -16.6494 C   0  0  2  0  0  0  0  0  0  0  0  0
   16.3609   -4.3468  -18.1666 C   0  0  0  0  0  0  0  0  0  0  0  0
   17.3713   -5.4372  -16.1833 C   0  0  0  0  0  0  0  0  0  0  0  0
   18.8411   -5.1986  -16.1049 C   0  0  2  0  0  0  0  0  0  0  0  0
   19.5539   -6.3503  -15.5897 N   0  0  0  0  0  0  0  0  0  0  0  0
   19.2463   -3.9535  -15.4369 C   0  0  0  0  0  0  0  0  0  0  0  0
   19.6261   -3.9345  -14.2166 O   0  0  0  0  0  0  0  0  0  0  0  0
   19.2448   -2.7241  -16.0787 O   0  0  0  0  0  0  0  0  0  0  0  0
  1  2  1  0
  3  2  1  0
  4  3  1  0
  5  6  1  1
  5  4  1  0
  7  5  1  0
  8  7  2  0
 10  9  1  0
 10 11  1  0
 11 12  1  0
 13 12  1  6
 13 14  1  0
 14  7  1  0
 15 13  1  0
 15 16  2  0
 18 17  1  1
 18 20  1  0
 18 19  1  0
 21 20  1  1
 21 22  1  0
 22 15  1  0
 23 21  1  0
 24 23  2  0
 25 23  1  0
M  END
$$$$
