MML.pdb
     RDKit          3D

 25 24  0  0  1  0  0  0  0  0999 V2000
   16.5913  -12.6212  -15.1971 C   0  0  0  0  0  0  0  0  0  0  0  0
   17.4807  -14.1833  -15.0838 S   0  0  0  0  0  0  0  0  0  0  0  0
   18.8450  -14.1692  -16.3121 C   0  0  0  0  0  0  0  0  0  0  0  0
   18.2284  -13.9580  -17.6592 C   0  0  0  0  0  0  0  0  0  0  0  0
   19.1991  -13.9241  -18.8006 C   0  0  2  0  0  0  0  0  0  0  0  0
   19.9902  -15.1500  -18.7160 N   0  0  0  0  0  0  0  0  0  0  0  0
   20.1590  -12.7976  -18.7194 C   0  0  0  0  0  0  0  0  0  0  0  0
   21.3535  -13.0809  -18.4256 O   0  0  0  0  0  0  0  0  0  0  0  0
   20.3427   -6.6824  -21.9931 C   0  0  0  0  0  0  0  0  0  0  0  0
   19.4519   -8.2197  -22.3642 S   0  0  0  0  0  0  0  0  0  0  0  0
   20.2014   -9.5348  -21.3763 C   0  0  0  0  0  0  0  0  0  0  0  0
   20.1975   -9.2758  -19.9232 C   0  0  0  0  0  0  0  0  0  0  0  0
   20.7659  -10.3616  -19.0389 C   0  0  2  0  0  0  0  0  0  0  0  0
   19.7848  -11.4566  -18.9547 N   0  0  0  0  0  0  0  0  0  0  0  0
   21.0234   -9.9344  -17.6511 C   0  0  0  0  0  0  0  0  0  0  0  0
   20.0611  -10.0137  -16.8088 O   0  0  0  0  0  0  0  0  0  0  0  0
   23.2869  -11.1258  -13.9218 C   0  0  0  0  0  0  0  0  0  0  0  0
   24.1232  -10.6040  -15.0994 C   0  0  2  0  0  0  0  0  0  0  0  0
   25.5799  -10.7494  -14.6577 C   0  0  0  0  0  0  0  0  0  0  0  0
   23.7692   -9.1668  -15.2576 C   0  0  0  0  0  0  0  0  0  0  0  0
   22.4196   -8.8793  -15.8227 C   0  0  2  0  0  0  0  0  0  0  0  0
   22.2531   -9.4389  -17.1490 N   0  0  0  0  0  0  0  0  0  0  0  0
   21.9914   -7.4747  -15.7576 C   0  0  0  0  0  0  0  0  0  0  0  0
   21.9456   -6.7337  -16.7980 O   0  0  0  0  0  0  0  0  0  0  0  0
   21.6105   -6.8617  -14.5733 O   0  0  0  0  0  0  0  0  0  0  0  0
  1  2  1  0
  3  2  1  0
  4  3  1  0
  5  6  1  1
  5  4  1  0
  7  5  1  0
  8  7  2  0
 10  9  1  0
 10 11  1  0
 11 12  1  0
 13 12  1  6
 13 14  1  0
 14  7  1  0
 15 13  1  0
 15 16  2  0
 18 17  1  1
 18 20  1  0
 18 19  1  0
 21 20  1  6
 21 22  1  0
 22 15  1  0
 23 21  1  0
 24 23  2  0
 25 23  1  0
M  END
$$$$
