TAK.pdb
     RDKit          3D

 22 21  0  0  1  0  0  0  0  0999 V2000
    2.5129  -18.4515   21.4100 C   0  0  0  0  0  0  0  0  0  0  0  0
    3.8774  -17.8365   21.6403 C   0  0  1  0  0  0  0  0  0  0  0  0
    4.6679  -18.7953   22.2721 O   0  0  0  0  0  0  0  0  0  0  0  0
    4.4461  -17.5017   20.2824 C   0  0  2  0  0  0  0  0  0  0  0  0
    4.4534  -18.7182   19.4939 N   0  0  0  0  0  0  0  0  0  0  0  0
    5.8436  -16.9570   20.4044 C   0  0  0  0  0  0  0  0  0  0  0  0
    6.8336  -17.7239   20.2796 O   0  0  0  0  0  0  0  0  0  0  0  0
    7.3687  -13.5033   20.9285 C   0  0  0  0  0  0  0  0  0  0  0  0
    7.3858  -15.0129   20.8548 C   0  0  2  0  0  0  0  0  0  0  0  0
    6.0732  -15.5782   20.6608 N   0  0  0  0  0  0  0  0  0  0  0  0
    8.0385  -15.6022   22.0702 C   0  0  0  0  0  0  0  0  0  0  0  0
    7.4524  -15.5744   23.1794 O   0  0  0  0  0  0  0  0  0  0  0  0
    9.3071  -16.1886   21.9784 N   0  0  0  0  0  0  0  0  0  0  0  0
   10.0093  -16.7776   23.1424 C   0  0  1  0  0  0  0  0  0  0  0  0
   10.7859  -17.9782   22.7275 C   0  0  0  0  0  0  0  0  0  0  0  0
    9.9133  -19.0664   22.2222 C   0  0  0  0  0  0  0  0  0  0  0  0
   10.7093  -20.2268   21.6382 C   0  0  0  0  0  0  0  0  0  0  0  0
    9.8048  -21.2910   21.0706 C   0  0  0  0  0  0  0  0  0  0  0  0
   10.6724  -22.2561   20.3976 N   0  0  0  0  0  0  0  0  0  0  0  0
   10.7681  -15.7550   23.8548 C   0  0  0  0  0  0  0  0  0  0  0  0
   11.2530  -14.7317   23.3498 O   0  0  0  0  0  0  0  0  0  0  0  0
   10.9745  -15.9347   25.2386 O   0  0  0  0  0  0  0  0  0  0  0  0
  2  4  1  0
  2  1  1  6
  3  2  1  0
  4  5  1  6
  4  6  1  0
  6  7  2  0
  9  8  1  1
 10  6  1  0
 10  9  1  0
 11  9  1  0
 11 13  1  0
 12 11  2  0
 14 13  1  0
 14 15  1  6
 15 16  1  0
 16 17  1  0
 18 17  1  0
 19 18  1  0
 20 14  1  0
 21 20  2  0
 22 20  1  0
M  END
$$$$
