TAK.pdb
     RDKit          3D

 22 21  0  0  1  0  0  0  0  0999 V2000
    0.4511  -25.1485   27.2856 C   0  0  0  0  0  0  0  0  0  0  0  0
    0.5297  -24.2421   26.0752 C   0  0  1  0  0  0  0  0  0  0  0  0
    1.4395  -24.8101   25.1847 O   0  0  0  0  0  0  0  0  0  0  0  0
   -0.8491  -24.2042   25.4613 C   0  0  2  0  0  0  0  0  0  0  0  0
   -0.7427  -23.5430   24.1755 N   0  0  0  0  0  0  0  0  0  0  0  0
   -1.8114  -23.4597   26.3469 C   0  0  0  0  0  0  0  0  0  0  0  0
   -2.0138  -23.8481   27.5267 O   0  0  0  0  0  0  0  0  0  0  0  0
   -3.8150  -20.2373   26.0522 C   0  0  0  0  0  0  0  0  0  0  0  0
   -3.4378  -21.5606   26.6775 C   0  0  2  0  0  0  0  0  0  0  0  0
   -2.5056  -22.3131   25.8745 N   0  0  0  0  0  0  0  0  0  0  0  0
   -4.6581  -22.3808   26.9751 C   0  0  0  0  0  0  0  0  0  0  0  0
   -5.2548  -22.9854   26.0515 O   0  0  0  0  0  0  0  0  0  0  0  0
   -5.1425  -22.4795   28.2856 N   0  0  0  0  0  0  0  0  0  0  0  0
   -6.2737  -23.3586   28.6631 C   0  0  1  0  0  0  0  0  0  0  0  0
   -5.8183  -24.4130   29.6104 C   0  0  0  0  0  0  0  0  0  0  0  0
   -6.9307  -25.2868   30.0577 C   0  0  0  0  0  0  0  0  0  0  0  0
   -6.4965  -26.2791   31.1291 C   0  0  0  0  0  0  0  0  0  0  0  0
   -7.6354  -27.1701   31.5555 C   0  0  0  0  0  0  0  0  0  0  0  0
   -7.1249  -28.0029   32.6432 N   0  0  0  0  0  0  0  0  0  0  0  0
   -7.4137  -22.5645   29.1090 C   0  0  0  0  0  0  0  0  0  0  0  0
   -7.3602  -21.5863   29.8690 O   0  0  0  0  0  0  0  0  0  0  0  0
   -8.6930  -22.9314   28.6416 O   0  0  0  0  0  0  0  0  0  0  0  0
  2  4  1  0
  2  1  1  1
  3  2  1  0
  4  5  1  6
  4  6  1  0
  6  7  2  0
  9  8  1  6
 10  6  1  0
 10  9  1  0
 11  9  1  0
 11 13  1  0
 12 11  2  0
 14 13  1  0
 14 15  1  1
 15 16  1  0
 16 17  1  0
 18 17  1  0
 19 18  1  0
 20 14  1  0
 21 20  2  0
 22 20  1  0
M  END
$$$$
