TAK.pdb
     RDKit          3D

 22 21  0  0  1  0  0  0  0  0999 V2000
    6.6225  -18.0677   24.8431 C   0  0  0  0  0  0  0  0  0  0  0  0
    6.9360  -19.1107   23.7910 C   0  0  1  0  0  0  0  0  0  0  0  0
    6.2816  -20.2857   24.1579 O   0  0  0  0  0  0  0  0  0  0  0  0
    6.3901  -18.5950   22.4812 C   0  0  2  0  0  0  0  0  0  0  0  0
    6.3976  -19.6939   21.5357 N   0  0  0  0  0  0  0  0  0  0  0  0
    7.2283  -17.4592   21.9596 C   0  0  0  0  0  0  0  0  0  0  0  0
    8.3934  -17.6765   21.5364 O   0  0  0  0  0  0  0  0  0  0  0  0
    6.6841  -13.7500   21.3089 C   0  0  0  0  0  0  0  0  0  0  0  0
    7.5180  -14.9885   21.5440 C   0  0  2  0  0  0  0  0  0  0  0  0
    6.7270  -16.1296   21.9341 N   0  0  0  0  0  0  0  0  0  0  0  0
    8.5966  -14.7258   22.5530 C   0  0  0  0  0  0  0  0  0  0  0  0
    9.5194  -13.9152   22.2963 O   0  0  0  0  0  0  0  0  0  0  0  0
    8.5837  -15.3823   23.7903 N   0  0  0  0  0  0  0  0  0  0  0  0
    9.6119  -15.1578   24.8330 C   0  0  1  0  0  0  0  0  0  0  0  0
    8.9683  -14.8295   26.1348 C   0  0  0  0  0  0  0  0  0  0  0  0
    9.9619  -14.5175   27.1914 C   0  0  0  0  0  0  0  0  0  0  0  0
    9.6506  -15.2181   28.5080 C   0  0  0  0  0  0  0  0  0  0  0  0
   10.5768  -14.7682   29.6092 C   0  0  0  0  0  0  0  0  0  0  0  0
   10.0870  -15.3859   30.8404 N   0  0  0  0  0  0  0  0  0  0  0  0
   10.5612  -16.2655   24.8640 C   0  0  0  0  0  0  0  0  0  0  0  0
   10.2791  -17.4635   24.7139 O   0  0  0  0  0  0  0  0  0  0  0  0
   11.9206  -15.9597   25.0829 O   0  0  0  0  0  0  0  0  0  0  0  0
  2  4  1  0
  2  1  1  1
  3  2  1  0
  4  5  1  6
  4  6  1  0
  6  7  2  0
  9  8  1  1
 10  6  1  0
 10  9  1  0
 11  9  1  0
 11 13  1  0
 12 11  2  0
 14 13  1  0
 14 15  1  1
 15 16  1  0
 16 17  1  0
 18 17  1  0
 19 18  1  0
 20 14  1  0
 21 20  2  0
 22 20  1  0
M  END
$$$$
