TAK.pdb
     RDKit          3D

 22 21  0  0  1  0  0  0  0  0999 V2000
    6.5613  -15.5235   20.6481 C   0  0  0  0  0  0  0  0  0  0  0  0
    7.6820  -14.7161   20.0275 C   0  0  1  0  0  0  0  0  0  0  0  0
    7.4436  -14.6542   18.6553 O   0  0  0  0  0  0  0  0  0  0  0  0
    7.6187  -13.3343   20.6324 C   0  0  2  0  0  0  0  0  0  0  0  0
    8.4909  -12.4726   19.8590 N   0  0  0  0  0  0  0  0  0  0  0  0
    8.0585  -13.3569   22.0714 C   0  0  0  0  0  0  0  0  0  0  0  0
    9.2670  -13.5583   22.3593 O   0  0  0  0  0  0  0  0  0  0  0  0
    6.3876  -12.8134   25.4478 C   0  0  0  0  0  0  0  0  0  0  0  0
    7.4429  -13.3655   24.5171 C   0  0  2  0  0  0  0  0  0  0  0  0
    7.1278  -13.1533   23.1258 N   0  0  0  0  0  0  0  0  0  0  0  0
    7.6869  -14.8211   24.7856 C   0  0  0  0  0  0  0  0  0  0  0  0
    7.1223  -15.6968   24.0865 O   0  0  0  0  0  0  0  0  0  0  0  0
    8.5466  -15.2161   25.8185 N   0  0  0  0  0  0  0  0  0  0  0  0
    9.2746  -16.5064   25.8126 C   0  0  1  0  0  0  0  0  0  0  0  0
   10.1498  -16.6034   24.6121 C   0  0  0  0  0  0  0  0  0  0  0  0
   10.8620  -17.9027   24.5379 C   0  0  0  0  0  0  0  0  0  0  0  0
   11.7419  -18.0141   23.2992 C   0  0  0  0  0  0  0  0  0  0  0  0
   12.5067  -19.3131   23.2759 C   0  0  0  0  0  0  0  0  0  0  0  0
   13.2073  -19.3583   21.9936 N   0  0  0  0  0  0  0  0  0  0  0  0
    9.9391  -16.7261   27.0930 C   0  0  0  0  0  0  0  0  0  0  0  0
   10.3603  -15.8392   27.8502 O   0  0  0  0  0  0  0  0  0  0  0  0
   10.1241  -18.0586   27.5170 O   0  0  0  0  0  0  0  0  0  0  0  0
  2  4  1  0
  2  1  1  1
  3  2  1  0
  4  5  1  6
  4  6  1  0
  6  7  2  0
  9  8  1  1
 10  6  1  0
 10  9  1  0
 11  9  1  0
 11 13  1  0
 12 11  2  0
 14 13  1  0
 14 15  1  6
 15 16  1  0
 16 17  1  0
 18 17  1  0
 19 18  1  0
 20 14  1  0
 21 20  2  0
 22 20  1  0
M  END
$$$$
