TAK.pdb
     RDKit          3D

 22 21  0  0  1  0  0  0  0  0999 V2000
    5.9926  -19.2375   19.6644 C   0  0  0  0  0  0  0  0  0  0  0  0
    6.7715  -18.0473   20.1836 C   0  0  1  0  0  0  0  0  0  0  0  0
    7.7299  -18.5297   21.0737 O   0  0  0  0  0  0  0  0  0  0  0  0
    7.4403  -17.4034   18.9930 C   0  0  2  0  0  0  0  0  0  0  0  0
    8.2981  -18.3966   18.3770 N   0  0  0  0  0  0  0  0  0  0  0  0
    8.2529  -16.2088   19.4140 C   0  0  0  0  0  0  0  0  0  0  0  0
    9.4790  -16.3367   19.6679 O   0  0  0  0  0  0  0  0  0  0  0  0
    7.6408  -12.4625   19.5263 C   0  0  0  0  0  0  0  0  0  0  0  0
    8.4048  -13.7279   19.8418 C   0  0  2  0  0  0  0  0  0  0  0  0
    7.6592  -14.9232   19.5328 N   0  0  0  0  0  0  0  0  0  0  0  0
    8.8521  -13.7419   21.2737 C   0  0  0  0  0  0  0  0  0  0  0  0
    9.6221  -12.8499   21.7047 O   0  0  0  0  0  0  0  0  0  0  0  0
    8.4148  -14.7500   22.1422 N   0  0  0  0  0  0  0  0  0  0  0  0
    8.7999  -14.8058   23.5717 C   0  0  1  0  0  0  0  0  0  0  0  0
    7.6003  -14.6475   24.4393 C   0  0  0  0  0  0  0  0  0  0  0  0
    7.5989  -13.3552   25.1679 C   0  0  0  0  0  0  0  0  0  0  0  0
    6.3640  -13.1821   26.0432 C   0  0  0  0  0  0  0  0  0  0  0  0
    6.3664  -11.8506   26.7502 C   0  0  0  0  0  0  0  0  0  0  0  0
    5.1465  -11.8067   27.5547 N   0  0  0  0  0  0  0  0  0  0  0  0
    9.6150  -15.9866   23.8374 C   0  0  0  0  0  0  0  0  0  0  0  0
    9.6221  -17.0267   23.1626 O   0  0  0  0  0  0  0  0  0  0  0  0
   10.4734  -15.9540   24.9562 O   0  0  0  0  0  0  0  0  0  0  0  0
  2  4  1  0
  2  1  1  6
  3  2  1  0
  4  5  1  1
  4  6  1  0
  6  7  2  0
  9  8  1  1
 10  6  1  0
 10  9  1  0
 11  9  1  0
 11 13  1  0
 12 11  2  0
 14 13  1  0
 14 15  1  1
 15 16  1  0
 16 17  1  0
 18 17  1  0
 19 18  1  0
 20 14  1  0
 21 20  2  0
 22 20  1  0
M  END
$$$$
