TAK.pdb
     RDKit          3D

 22 21  0  0  1  0  0  0  0  0999 V2000
    7.3973  -16.4991   17.5425 C   0  0  0  0  0  0  0  0  0  0  0  0
    8.1936  -15.3643   16.9333 C   0  0  1  0  0  0  0  0  0  0  0  0
    7.8088  -15.2521   15.5981 O   0  0  0  0  0  0  0  0  0  0  0  0
    7.8269  -14.1108   17.6906 C   0  0  2  0  0  0  0  0  0  0  0  0
    8.3570  -12.9792   16.9558 N   0  0  0  0  0  0  0  0  0  0  0  0
    8.3990  -14.1369   19.0822 C   0  0  0  0  0  0  0  0  0  0  0  0
    9.6448  -14.0878   19.2539 O   0  0  0  0  0  0  0  0  0  0  0  0
    6.9541  -14.2263   22.6081 C   0  0  0  0  0  0  0  0  0  0  0  0
    8.0456  -14.3523   21.5701 C   0  0  2  0  0  0  0  0  0  0  0  0
    7.5531  -14.2167   20.2214 N   0  0  0  0  0  0  0  0  0  0  0  0
    8.7923  -15.6435   21.7305 C   0  0  0  0  0  0  0  0  0  0  0  0
    8.5834  -16.5974   20.9424 O   0  0  0  0  0  0  0  0  0  0  0  0
    9.7289  -15.7964   22.7607 N   0  0  0  0  0  0  0  0  0  0  0  0
   10.7194  -16.8977   22.7930 C   0  0  1  0  0  0  0  0  0  0  0  0
   11.5287  -16.9051   21.5434 C   0  0  0  0  0  0  0  0  0  0  0  0
   11.9466  -18.2735   21.1511 C   0  0  0  0  0  0  0  0  0  0  0  0
   12.7974  -18.2822   19.8874 C   0  0  0  0  0  0  0  0  0  0  0  0
   13.1840  -19.6836   19.4876 C   0  0  0  0  0  0  0  0  0  0  0  0
   13.9263  -19.5666   18.2336 N   0  0  0  0  0  0  0  0  0  0  0  0
   11.4839  -16.8635   24.0354 C   0  0  0  0  0  0  0  0  0  0  0  0
   12.4387  -17.6026   24.3171 O   0  0  0  0  0  0  0  0  0  0  0  0
   11.1141  -15.9114   25.0083 O   0  0  0  0  0  0  0  0  0  0  0  0
  2  4  1  0
  2  1  1  1
  3  2  1  0
  4  5  1  6
  4  6  1  0
  6  7  2  0
  9  8  1  1
 10  6  1  0
 10  9  1  0
 11  9  1  0
 11 13  1  0
 12 11  2  0
 14 13  1  0
 14 15  1  6
 15 16  1  0
 16 17  1  0
 18 17  1  0
 19 18  1  0
 20 14  1  0
 21 20  2  0
 22 20  1  0
M  END
$$$$
