TAK.pdb
     RDKit          3D

 22 21  0  0  1  0  0  0  0  0999 V2000
    9.8694  -13.6816   17.0493 C   0  0  0  0  0  0  0  0  0  0  0  0
    9.7312  -14.1988   18.4658 C   0  0  1  0  0  0  0  0  0  0  0  0
   10.5577  -13.4232   19.2775 O   0  0  0  0  0  0  0  0  0  0  0  0
    8.2864  -14.0161   18.8639 C   0  0  2  0  0  0  0  0  0  0  0  0
    8.0089  -12.5933   18.8810 N   0  0  0  0  0  0  0  0  0  0  0  0
    8.0238  -14.6098   20.2215 C   0  0  0  0  0  0  0  0  0  0  0  0
    8.0593  -13.8813   21.2471 O   0  0  0  0  0  0  0  0  0  0  0  0
    7.0116  -18.0531   21.5085 C   0  0  0  0  0  0  0  0  0  0  0  0
    7.4339  -16.6081   21.6428 C   0  0  2  0  0  0  0  0  0  0  0  0
    7.7330  -15.9926   20.3732 N   0  0  0  0  0  0  0  0  0  0  0  0
    8.5976  -16.4738   22.5800 C   0  0  0  0  0  0  0  0  0  0  0  0
    9.7722  -16.5340   22.1429 O   0  0  0  0  0  0  0  0  0  0  0  0
    8.3839  -16.2802   23.9507 N   0  0  0  0  0  0  0  0  0  0  0  0
    9.4883  -16.1907   24.9341 C   0  0  1  0  0  0  0  0  0  0  0  0
    9.0509  -15.4329   26.1387 C   0  0  0  0  0  0  0  0  0  0  0  0
   10.1138  -15.3534   27.1707 C   0  0  0  0  0  0  0  0  0  0  0  0
    9.6487  -14.6343   28.4308 C   0  0  0  0  0  0  0  0  0  0  0  0
   10.7306  -14.5964   29.4801 C   0  0  0  0  0  0  0  0  0  0  0  0
   10.2198  -13.7689   30.5717 N   0  0  0  0  0  0  0  0  0  0  0  0
   10.0519  -17.5113   25.1940 C   0  0  0  0  0  0  0  0  0  0  0  0
    9.4147  -18.5743   25.2320 O   0  0  0  0  0  0  0  0  0  0  0  0
   11.4408  -17.5993   25.4234 O   0  0  0  0  0  0  0  0  0  0  0  0
  2  4  1  0
  2  1  1  6
  3  2  1  0
  4  5  1  1
  4  6  1  0
  6  7  2  0
  9  8  1  6
 10  6  1  0
 10  9  1  0
 11  9  1  0
 11 13  1  0
 12 11  2  0
 14 13  1  0
 14 15  1  1
 15 16  1  0
 16 17  1  0
 18 17  1  0
 19 18  1  0
 20 14  1  0
 21 20  2  0
 22 20  1  0
M  END
$$$$
