GRY.pdb
     RDKit          3D

 28 28  0  0  1  0  0  0  0  0999 V2000
    4.7862  -19.8278   22.4024 N   0  0  0  0  0  0  0  0  0  0  0  0
    4.6348  -18.4169   22.3810 C   0  0  0  0  0  0  0  0  0  0  0  0
    5.9012  -17.6952   22.0731 C   0  0  0  0  0  0  0  0  0  0  0  0
    7.0006  -18.3669   22.0419 O   0  0  0  0  0  0  0  0  0  0  0  0
   10.0443  -14.9024   17.7591 N   0  0  0  0  0  0  0  0  0  0  0  0
   10.4063  -13.9222   18.7757 C   0  0  0  0  0  0  0  0  0  0  0  0
   11.5409  -14.0632   19.2677 N   0  0  0  0  0  0  0  0  0  0  0  0
    9.4612  -12.8885   19.0714 N   0  0  0  0  0  0  0  0  0  0  0  0
    8.0525  -13.3068   19.0887 C   0  0  0  0  0  0  0  0  0  0  0  0
    7.5942  -13.2549   20.5086 C   0  0  0  0  0  0  0  0  0  0  0  0
    6.6592  -14.2713   20.9812 C   0  0  0  0  0  0  0  0  0  0  0  0
    7.1340  -15.5208   21.6291 C   0  0  2  0  0  0  0  0  0  0  0  0
    5.8986  -16.3099   21.8214 N   0  0  0  0  0  0  0  0  0  0  0  0
    7.7183  -15.1997   22.9665 C   0  0  0  0  0  0  0  0  0  0  0  0
    6.9420  -14.9470   23.9499 O   0  0  0  0  0  0  0  0  0  0  0  0
   12.0553  -13.4439   19.9615 O   0  0  0  0  0  0  0  0  0  0  0  0
   11.0673  -14.9016   30.7541 C   0  0  0  0  0  0  0  0  0  0  0  0
   10.4796  -15.0264   29.5015 C   0  0  0  0  0  0  0  0  0  0  0  0
   10.3015  -16.2795   28.9149 C   0  0  0  0  0  0  0  0  0  0  0  0
    9.7152  -16.4302   27.6827 C   0  0  0  0  0  0  0  0  0  0  0  0
    9.2732  -15.3666   26.9551 C   0  0  0  0  0  0  0  0  0  0  0  0
    8.6765  -15.4457   25.6200 C   0  0  2  0  0  0  0  0  0  0  0  0
    9.7117  -15.1187   24.5402 N   0  0  0  0  0  0  0  0  0  0  0  0
    9.1012  -15.1565   23.2334 C   0  0  0  0  0  0  0  0  0  0  0  0
   10.8433  -16.0236   24.6793 O   0  0  0  0  0  0  0  0  0  0  0  0
   11.9457  -15.7675   25.2039 C   0  0  0  0  0  0  0  0  0  0  0  0
    9.4416  -14.0903   27.5192 C   0  0  0  0  0  0  0  0  0  0  0  0
   10.0319  -13.9446   28.7579 O   0  0  0  0  0  0  0  0  0  0  0  0
  1  2  1  0
  3  2  1  0
  3  4  2  0
  5  6  1  0
  6  7  2  0
  8  6  1  0
  8  9  1  0
 10  9  1  0
 11 10  1  0
 12 13  1  0
 12 11  1  1
 13  3  1  0
 14 12  1  0
 15 14  2  0
 17 16  1  0
 17 18  2  0
 19 18  1  0
 20 19  2  0
 21 20  1  0
 22 21  1  1
 22 23  1  0
 23 14  1  0
 24 22  1  0
 24 28  1  0
 25 24  2  0
 26 27  2  0
 26 20  1  0
 27 17  1  0
M  END
$$$$
