GRY.pdb
     RDKit          3D

 28 28  0  0  1  0  0  0  0  0999 V2000
   14.3497  -15.1133   19.9485 N   0  0  0  0  0  0  0  0  0  0  0  0
   13.0931  -15.7727   19.9368 C   0  0  0  0  0  0  0  0  0  0  0  0
   12.1209  -15.2007   20.9099 C   0  0  0  0  0  0  0  0  0  0  0  0
   12.5733  -14.5017   21.8935 O   0  0  0  0  0  0  0  0  0  0  0  0
    8.4804  -15.4889   16.9616 N   0  0  0  0  0  0  0  0  0  0  0  0
    7.9557  -14.1346   16.8361 C   0  0  0  0  0  0  0  0  0  0  0  0
    8.3901  -13.4854   15.8669 N   0  0  0  0  0  0  0  0  0  0  0  0
    6.9796  -13.7067   17.7919 N   0  0  0  0  0  0  0  0  0  0  0  0
    6.9180  -14.4978   19.0289 C   0  0  0  0  0  0  0  0  0  0  0  0
    8.2230  -14.3197   19.7319 C   0  0  0  0  0  0  0  0  0  0  0  0
    8.4481  -15.0351   20.9842 C   0  0  0  0  0  0  0  0  0  0  0  0
    9.7320  -14.9215   21.7225 C   0  0  2  0  0  0  0  0  0  0  0  0
   10.7379  -15.4179   20.7595 N   0  0  0  0  0  0  0  0  0  0  0  0
    9.7079  -15.8281   22.9101 C   0  0  0  0  0  0  0  0  0  0  0  0
   10.5367  -16.7986   22.9800 O   0  0  0  0  0  0  0  0  0  0  0  0
    8.1540  -12.4959   15.5595 O   0  0  0  0  0  0  0  0  0  0  0  0
    5.4670  -11.2576   26.6289 C   0  0  0  0  0  0  0  0  0  0  0  0
    6.3637  -12.3175   26.5807 C   0  0  0  0  0  0  0  0  0  0  0  0
    7.6749  -12.1279   26.1435 C   0  0  0  0  0  0  0  0  0  0  0  0
    8.5826  -13.1567   26.0953 C   0  0  0  0  0  0  0  0  0  0  0  0
    8.2599  -14.4265   26.4687 C   0  0  0  0  0  0  0  0  0  0  0  0
    9.1599  -15.5801   26.4064 C   0  0  1  0  0  0  0  0  0  0  0  0
    8.8249  -16.4684   25.2052 N   0  0  0  0  0  0  0  0  0  0  0  0
    8.8159  -15.6876   23.9919 C   0  0  0  0  0  0  0  0  0  0  0  0
    7.5690  -17.1580   25.4618 O   0  0  0  0  0  0  0  0  0  0  0  0
    6.5074  -17.0431   24.8170 C   0  0  0  0  0  0  0  0  0  0  0  0
    6.9445  -14.6492   26.9114 C   0  0  0  0  0  0  0  0  0  0  0  0
    6.0361  -13.6115   26.9573 O   0  0  0  0  0  0  0  0  0  0  0  0
  1  2  1  0
  3  2  1  0
  3  4  2  0
  5  6  1  0
  6  7  2  0
  8  6  1  0
  8  9  1  0
 10  9  1  0
 11 10  1  0
 12 13  1  0
 12 11  1  6
 13  3  1  0
 14 12  1  0
 15 14  2  0
 17 16  1  0
 17 18  2  0
 19 18  1  0
 20 19  2  0
 21 20  1  0
 22 21  1  6
 22 23  1  0
 23 14  1  0
 24 22  1  0
 24 28  1  0
 25 24  2  0
 26 27  2  0
 26 20  1  0
 27 17  1  0
M  END
$$$$
