GRY.pdb
     RDKit          3D

 28 28  0  0  1  0  0  0  0  0999 V2000
    2.8280  -23.7411   27.6888 N   0  0  0  0  0  0  0  0  0  0  0  0
    3.8109  -23.1959   26.8224 C   0  0  0  0  0  0  0  0  0  0  0  0
    5.1859  -23.6931   27.1078 C   0  0  0  0  0  0  0  0  0  0  0  0
    5.4427  -24.1522   28.2843 O   0  0  0  0  0  0  0  0  0  0  0  0
   11.9418  -26.8367   22.7963 N   0  0  0  0  0  0  0  0  0  0  0  0
   10.9359  -26.2487   21.9202 C   0  0  0  0  0  0  0  0  0  0  0  0
   11.2053  -26.2833   20.7055 N   0  0  0  0  0  0  0  0  0  0  0  0
    9.7416  -25.7400   22.5238 N   0  0  0  0  0  0  0  0  0  0  0  0
    9.5200  -26.1403   23.9203 C   0  0  0  0  0  0  0  0  0  0  0  0
    9.4253  -24.8885   24.7284 C   0  0  0  0  0  0  0  0  0  0  0  0
    8.1086  -24.3040   24.9640 C   0  0  0  0  0  0  0  0  0  0  0  0
    7.5597  -24.1565   26.3364 C   0  0  2  0  0  0  0  0  0  0  0  0
    6.1838  -23.6631   26.1149 N   0  0  0  0  0  0  0  0  0  0  0  0
    8.3358  -23.1155   27.0761 C   0  0  0  0  0  0  0  0  0  0  0  0
    8.1069  -21.8786   26.8500 O   0  0  0  0  0  0  0  0  0  0  0  0
   10.6300  -25.9447   19.8786 O   0  0  0  0  0  0  0  0  0  0  0  0
    8.8615  -26.7366   33.2696 C   0  0  0  0  0  0  0  0  0  0  0  0
    9.0109  -25.5936   32.4944 C   0  0  0  0  0  0  0  0  0  0  0  0
    7.9509  -25.0999   31.7335 C   0  0  0  0  0  0  0  0  0  0  0  0
    8.0703  -23.9675   30.9666 C   0  0  0  0  0  0  0  0  0  0  0  0
    9.2306  -23.2568   30.8986 C   0  0  0  0  0  0  0  0  0  0  0  0
    9.4449  -22.0661   30.0734 C   0  0  1  0  0  0  0  0  0  0  0  0
   10.1219  -22.4346   28.7504 N   0  0  0  0  0  0  0  0  0  0  0  0
    9.3278  -23.4035   28.0344 C   0  0  0  0  0  0  0  0  0  0  0  0
   11.4799  -22.8827   29.0218 O   0  0  0  0  0  0  0  0  0  0  0  0
   12.3579  -22.2659   29.6581 C   0  0  0  0  0  0  0  0  0  0  0  0
   10.3177  -23.7316   31.6526 C   0  0  0  0  0  0  0  0  0  0  0  0
   10.1923  -24.8707   32.4213 O   0  0  0  0  0  0  0  0  0  0  0  0
  1  2  1  0
  3  2  1  0
  3  4  2  0
  5  6  1  0
  6  7  2  0
  8  6  1  0
  8  9  1  0
 10  9  1  0
 11 10  1  0
 12 13  1  0
 12 11  1  6
 13  3  1  0
 14 12  1  0
 15 14  2  0
 17 16  1  0
 17 18  2  0
 19 18  1  0
 20 19  2  0
 21 20  1  0
 22 21  1  6
 22 23  1  0
 23 14  1  0
 24 22  1  0
 24 28  1  0
 25 24  2  0
 26 27  2  0
 26 20  1  0
 27 17  1  0
M  END
$$$$
