PWP.pdb
     RDKit          3D

 29 32  0  0  1  0  0  0  0  0999 V2000
   21.5591  -20.5842  -13.8884 N   0  0  0  0  0  0  0  0  0  0  0  0
   20.3213  -20.3405  -13.1646 C   0  0  0  0  0  0  0  0  0  0  0  0
   19.8611  -18.9653  -13.6101 C   0  0  0  0  0  0  0  0  0  0  0  0
   21.1890  -18.2314  -13.7075 C   0  0  0  0  0  0  0  0  0  0  0  0
   22.0818  -19.2837  -14.2760 C   0  0  1  0  0  0  0  0  0  0  0  0
   23.4845  -19.2014  -13.8497 C   0  0  0  0  0  0  0  0  0  0  0  0
   24.1097  -18.0935  -13.8637 O   0  0  0  0  0  0  0  0  0  0  0  0
   24.1875  -20.3593  -13.4087 N   0  0  0  0  0  0  0  0  0  0  0  0
   25.6448  -20.3697  -13.3071 C   0  0  1  0  0  0  0  0  0  0  0  0
   26.0309  -21.3065  -12.2115 C   0  0  0  0  0  0  0  0  0  0  0  0
   25.6389  -20.8892  -10.8533 C   0  0  0  0  0  0  0  0  0  0  0  0
   24.4109  -20.6233  -10.3121 C   0  0  0  0  0  0  0  0  0  0  0  0
   24.6036  -20.2655   -9.0126 N   0  0  0  0  0  0  0  0  0  0  0  0
   25.8937  -20.2943   -8.7129 C   0  0  0  0  0  0  0  0  0  0  0  0
   26.5954  -20.0144   -7.5349 C   0  0  0  0  0  0  0  0  0  0  0  0
   27.9606  -20.1419   -7.5616 C   0  0  0  0  0  0  0  0  0  0  0  0
   28.6681  -20.5282   -8.6800 C   0  0  0  0  0  0  0  0  0  0  0  0
   27.9600  -20.8012   -9.8364 C   0  0  0  0  0  0  0  0  0  0  0  0
   26.5777  -20.6781   -9.8313 C   0  0  0  0  0  0  0  0  0  0  0  0
   26.2307  -20.9322  -14.5664 C   0  0  0  0  0  0  0  0  0  0  0  0
   25.5365  -21.7595  -15.2035 O   0  0  0  0  0  0  0  0  0  0  0  0
   27.5181  -20.5494  -15.0298 N   0  0  0  0  0  0  0  0  0  0  0  0
   28.6097  -19.9420  -14.3128 C   0  0  0  0  0  0  0  0  0  0  0  0
   29.1154  -18.9128  -15.3077 C   0  0  0  0  0  0  0  0  0  0  0  0
   28.6882  -19.4149  -16.6638 C   0  0  0  0  0  0  0  0  0  0  0  0
   27.9656  -20.7097  -16.3857 C   0  0  1  0  0  0  0  0  0  0  0  0
   28.9339  -21.8201  -16.4522 C   0  0  0  0  0  0  0  0  0  0  0  0
   29.3750  -22.4926  -15.3034 O   0  0  0  0  0  0  0  0  0  0  0  0
   29.4096  -22.2179  -17.5312 O   0  0  0  0  0  0  0  0  0  0  0  0
  1  2  1  0
  1  5  1  0
  2  3  1  0
  3  4  1  0
  5  4  1  0
  5  6  1  1
  6  7  2  0
  8  6  1  0
  9  8  1  0
  9 10  1  1
 11 19  1  0
 11 10  1  0
 12 11  2  0
 13 12  1  0
 13 14  1  0
 14 15  1  0
 14 19  2  0
 15 16  2  0
 16 17  1  0
 18 17  2  0
 19 18  1  0
 20  9  1  0
 21 20  2  0
 22 20  1  0
 22 26  1  0
 23 22  1  0
 24 25  1  0
 24 23  1  0
 25 26  1  0
 26 27  1  1
 27 29  2  0
 27 28  1  0
M  END
$$$$
