PWP.pdb
     RDKit          3D

 29 32  0  0  1  0  0  0  0  0999 V2000
   22.2211  -33.5383  -15.2424 N   0  0  0  0  0  0  0  0  0  0  0  0
   22.2723  -33.1585  -16.6454 C   0  0  0  0  0  0  0  0  0  0  0  0
   23.5037  -33.8479  -17.2022 C   0  0  0  0  0  0  0  0  0  0  0  0
   24.4679  -33.7085  -16.0350 C   0  0  0  0  0  0  0  0  0  0  0  0
   23.5691  -33.9314  -14.8644 C   0  0  1  0  0  0  0  0  0  0  0  0
   23.9430  -33.1975  -13.6488 C   0  0  0  0  0  0  0  0  0  0  0  0
   25.1614  -33.0831  -13.3011 O   0  0  0  0  0  0  0  0  0  0  0  0
   22.9530  -32.5926  -12.8221 N   0  0  0  0  0  0  0  0  0  0  0  0
   23.3084  -31.9485  -11.5600 C   0  0  1  0  0  0  0  0  0  0  0  0
   22.1960  -31.0322  -11.1726 C   0  0  0  0  0  0  0  0  0  0  0  0
   22.0118  -29.8561  -12.0418 C   0  0  0  0  0  0  0  0  0  0  0  0
   22.4785  -29.5832  -13.2984 C   0  0  0  0  0  0  0  0  0  0  0  0
   22.0247  -28.3471  -13.6455 N   0  0  0  0  0  0  0  0  0  0  0  0
   21.2958  -27.8320  -12.6666 C   0  0  0  0  0  0  0  0  0  0  0  0
   20.6223  -26.6126  -12.5327 C   0  0  0  0  0  0  0  0  0  0  0  0
   19.9470  -26.3837  -11.3612 C   0  0  0  0  0  0  0  0  0  0  0  0
   19.8996  -27.2864  -10.3201 C   0  0  0  0  0  0  0  0  0  0  0  0
   20.5705  -28.4869  -10.4680 C   0  0  0  0  0  0  0  0  0  0  0  0
   21.2604  -28.7387  -11.6455 C   0  0  0  0  0  0  0  0  0  0  0  0
   23.3974  -32.9815  -10.4781 C   0  0  0  0  0  0  0  0  0  0  0  0
   22.7362  -34.0354  -10.6343 O   0  0  0  0  0  0  0  0  0  0  0  0
   24.1965  -32.7862   -9.3197 N   0  0  0  0  0  0  0  0  0  0  0  0
   24.8745  -31.6014   -8.8601 C   0  0  0  0  0  0  0  0  0  0  0  0
   26.2054  -32.1558   -8.3846 C   0  0  0  0  0  0  0  0  0  0  0  0
   25.9487  -33.6061   -8.0612 C   0  0  0  0  0  0  0  0  0  0  0  0
   24.4842  -33.8142   -8.3580 C   0  0  1  0  0  0  0  0  0  0  0  0
   23.7083  -33.5642   -7.1291 C   0  0  0  0  0  0  0  0  0  0  0  0
   22.9373  -32.4053   -6.9587 O   0  0  0  0  0  0  0  0  0  0  0  0
   23.6973  -34.3687   -6.1797 O   0  0  0  0  0  0  0  0  0  0  0  0
  1  2  1  0
  1  5  1  0
  2  3  1  0
  3  4  1  0
  5  4  1  0
  5  6  1  1
  6  7  2  0
  8  6  1  0
  9  8  1  0
  9 10  1  1
 11 19  1  0
 11 10  1  0
 12 11  2  0
 13 12  1  0
 13 14  1  0
 14 15  1  0
 14 19  2  0
 15 16  2  0
 16 17  1  0
 18 17  2  0
 19 18  1  0
 20  9  1  0
 21 20  2  0
 22 20  1  0
 22 26  1  0
 23 22  1  0
 24 25  1  0
 24 23  1  0
 25 26  1  0
 26 27  1  1
 27 29  2  0
 27 28  1  0
M  END
$$$$
