PWP.pdb
     RDKit          3D

 29 32  0  0  1  0  0  0  0  0999 V2000
   26.5899  -21.4699  -14.0557 N   0  0  0  0  0  0  0  0  0  0  0  0
   27.0759  -21.4144  -15.4254 C   0  0  0  0  0  0  0  0  0  0  0  0
   28.4627  -22.0282  -15.3833 C   0  0  0  0  0  0  0  0  0  0  0  0
   28.9783  -21.4915  -14.0575 C   0  0  0  0  0  0  0  0  0  0  0  0
   27.7603  -21.5700  -13.1985 C   0  0  1  0  0  0  0  0  0  0  0  0
   27.6664  -20.5341  -12.1620 C   0  0  0  0  0  0  0  0  0  0  0  0
   27.9900  -19.3288  -12.4091 O   0  0  0  0  0  0  0  0  0  0  0  0
   27.2113  -20.8477  -10.8491 N   0  0  0  0  0  0  0  0  0  0  0  0
   27.4184  -19.9270   -9.7339 C   0  0  1  0  0  0  0  0  0  0  0  0
   26.2082  -19.0627   -9.6096 C   0  0  0  0  0  0  0  0  0  0  0  0
   24.9217  -19.7318   -9.8736 C   0  0  0  0  0  0  0  0  0  0  0  0
   24.1256  -20.5017   -9.0706 C   0  0  0  0  0  0  0  0  0  0  0  0
   23.0473  -20.8857   -9.8082 N   0  0  0  0  0  0  0  0  0  0  0  0
   23.1292  -20.3933  -11.0354 C   0  0  0  0  0  0  0  0  0  0  0  0
   22.2922  -20.4980  -12.1520 C   0  0  0  0  0  0  0  0  0  0  0  0
   22.6782  -19.8536  -13.2994 C   0  0  0  0  0  0  0  0  0  0  0  0
   23.8378  -19.1156  -13.4056 C   0  0  0  0  0  0  0  0  0  0  0  0
   24.6543  -19.0219  -12.2931 C   0  0  0  0  0  0  0  0  0  0  0  0
   24.2827  -19.6667  -11.1217 C   0  0  0  0  0  0  0  0  0  0  0  0
   27.5138  -20.7023   -8.4552 C   0  0  0  0  0  0  0  0  0  0  0  0
   27.2373  -21.9245   -8.5025 O   0  0  0  0  0  0  0  0  0  0  0  0
   27.9024  -20.0886   -7.2341 N   0  0  0  0  0  0  0  0  0  0  0  0
   28.0519  -18.6922   -6.9143 C   0  0  0  0  0  0  0  0  0  0  0  0
   29.3268  -18.6852   -6.0902 C   0  0  0  0  0  0  0  0  0  0  0  0
   29.4516  -20.0770   -5.5235 C   0  0  0  0  0  0  0  0  0  0  0  0
   28.2413  -20.8142   -6.0412 C   0  0  1  0  0  0  0  0  0  0  0  0
   27.1469  -20.6815   -5.0615 C   0  0  0  0  0  0  0  0  0  0  0  0
   27.1540  -21.3706   -3.8402 O   0  0  0  0  0  0  0  0  0  0  0  0
   26.1607  -19.9511   -5.2679 O   0  0  0  0  0  0  0  0  0  0  0  0
  1  2  1  0
  1  5  1  0
  2  3  1  0
  3  4  1  0
  5  4  1  0
  5  6  1  1
  6  7  2  0
  8  6  1  0
  9  8  1  0
  9 10  1  1
 11 19  1  0
 11 10  1  0
 12 11  2  0
 13 12  1  0
 13 14  1  0
 14 15  1  0
 14 19  2  0
 15 16  2  0
 16 17  1  0
 18 17  2  0
 19 18  1  0
 20  9  1  0
 21 20  2  0
 22 20  1  0
 22 26  1  0
 23 22  1  0
 24 25  1  0
 24 23  1  0
 25 26  1  0
 26 27  1  1
 27 29  2  0
 27 28  1  0
M  END
$$$$
