PWP.pdb
     RDKit          3D

 29 32  0  0  1  0  0  0  0  0999 V2000
   26.8167  -21.1647  -13.9993 N   0  0  0  0  0  0  0  0  0  0  0  0
   27.4071  -20.6328  -15.2175 C   0  0  0  0  0  0  0  0  0  0  0  0
   28.9066  -20.7551  -15.0222 C   0  0  0  0  0  0  0  0  0  0  0  0
   29.0372  -20.4093  -13.5475 C   0  0  0  0  0  0  0  0  0  0  0  0
   27.8366  -21.0792  -12.9663 C   0  0  1  0  0  0  0  0  0  0  0  0
   27.2576  -20.4055  -11.7971 C   0  0  0  0  0  0  0  0  0  0  0  0
   26.9470  -19.1724  -11.8385 O   0  0  0  0  0  0  0  0  0  0  0  0
   27.0271  -21.1118  -10.5816 N   0  0  0  0  0  0  0  0  0  0  0  0
   26.6680  -20.4095   -9.3520 C   0  0  1  0  0  0  0  0  0  0  0  0
   25.3339  -20.9046   -8.9027 C   0  0  0  0  0  0  0  0  0  0  0  0
   24.1914  -20.4962   -9.7396 C   0  0  0  0  0  0  0  0  0  0  0  0
   24.1127  -20.1973  -11.0722 C   0  0  0  0  0  0  0  0  0  0  0  0
   22.8198  -19.8672  -11.3433 N   0  0  0  0  0  0  0  0  0  0  0  0
   22.0840  -19.9448  -10.2445 C   0  0  0  0  0  0  0  0  0  0  0  0
   20.7268  -19.7080   -9.9988 C   0  0  0  0  0  0  0  0  0  0  0  0
   20.2722  -19.8816   -8.7166 C   0  0  0  0  0  0  0  0  0  0  0  0
   21.0782  -20.2738   -7.6690 C   0  0  0  0  0  0  0  0  0  0  0  0
   22.4172  -20.5038   -7.9281 C   0  0  0  0  0  0  0  0  0  0  0  0
   22.8981  -20.3337   -9.2188 C   0  0  0  0  0  0  0  0  0  0  0  0
   27.6370  -20.7707   -8.2676 C   0  0  0  0  0  0  0  0  0  0  0  0
   28.3021  -21.8230   -8.4185 O   0  0  0  0  0  0  0  0  0  0  0  0
   27.8049  -19.9605   -7.1125 N   0  0  0  0  0  0  0  0  0  0  0  0
   27.0833  -18.7831   -6.7032 C   0  0  0  0  0  0  0  0  0  0  0  0
   28.1954  -17.8859   -6.1902 C   0  0  0  0  0  0  0  0  0  0  0  0
   29.3187  -18.8137   -5.8012 C   0  0  0  0  0  0  0  0  0  0  0  0
   28.7975  -20.1974   -6.1011 C   0  0  1  0  0  0  0  0  0  0  0  0
   28.1445  -20.7334   -4.8922 C   0  0  0  0  0  0  0  0  0  0  0  0
   28.8792  -21.1584   -3.7759 O   0  0  0  0  0  0  0  0  0  0  0  0
   26.9076  -20.8360   -4.8001 O   0  0  0  0  0  0  0  0  0  0  0  0
  1  2  1  0
  1  5  1  0
  2  3  1  0
  3  4  1  0
  5  4  1  0
  5  6  1  1
  6  7  2  0
  8  6  1  0
  9  8  1  0
  9 10  1  1
 11 19  1  0
 11 10  1  0
 12 11  2  0
 13 12  1  0
 13 14  1  0
 14 15  1  0
 14 19  2  0
 15 16  2  0
 16 17  1  0
 18 17  2  0
 19 18  1  0
 20  9  1  0
 21 20  2  0
 22 20  1  0
 22 26  1  0
 23 22  1  0
 24 25  1  0
 24 23  1  0
 25 26  1  0
 26 27  1  1
 27 29  2  0
 27 28  1  0
M  END
$$$$
