PWP.pdb
     RDKit          3D

 29 32  0  0  1  0  0  0  0  0999 V2000
   27.2114  -21.0083  -13.9211 N   0  0  0  0  0  0  0  0  0  0  0  0
   27.4305  -20.3533  -15.2010 C   0  0  0  0  0  0  0  0  0  0  0  0
   28.8595  -19.8462  -15.1518 C   0  0  0  0  0  0  0  0  0  0  0  0
   28.9579  -19.3935  -13.7038 C   0  0  0  0  0  0  0  0  0  0  0  0
   28.1883  -20.4580  -12.9951 C   0  0  1  0  0  0  0  0  0  0  0  0
   27.4826  -20.0111  -11.7874 C   0  0  0  0  0  0  0  0  0  0  0  0
   26.9629  -18.8516  -11.7234 O   0  0  0  0  0  0  0  0  0  0  0  0
   27.3595  -20.8617  -10.6513 N   0  0  0  0  0  0  0  0  0  0  0  0
   26.7455  -20.3896   -9.4126 C   0  0  1  0  0  0  0  0  0  0  0  0
   25.4901  -21.1645   -9.1876 C   0  0  0  0  0  0  0  0  0  0  0  0
   24.3626  -20.8147  -10.0701 C   0  0  0  0  0  0  0  0  0  0  0  0
   24.2831  -20.7124  -11.4320 C   0  0  0  0  0  0  0  0  0  0  0  0
   23.0087  -20.3469  -11.7426 N   0  0  0  0  0  0  0  0  0  0  0  0
   22.2853  -20.2151  -10.6406 C   0  0  0  0  0  0  0  0  0  0  0  0
   20.9485  -19.8610  -10.4260 C   0  0  0  0  0  0  0  0  0  0  0  0
   20.5026  -19.8142   -9.1299 C   0  0  0  0  0  0  0  0  0  0  0  0
   21.2983  -20.0958   -8.0398 C   0  0  0  0  0  0  0  0  0  0  0  0
   22.6171  -20.4441   -8.2686 C   0  0  0  0  0  0  0  0  0  0  0  0
   23.0890  -20.4972   -9.5727 C   0  0  0  0  0  0  0  0  0  0  0  0
   27.6454  -20.7031   -8.2562 C   0  0  0  0  0  0  0  0  0  0  0  0
   28.5074  -21.5980   -8.4252 O   0  0  0  0  0  0  0  0  0  0  0  0
   27.5367  -20.0194   -7.0155 N   0  0  0  0  0  0  0  0  0  0  0  0
   26.5935  -19.0130   -6.6004 C   0  0  0  0  0  0  0  0  0  0  0  0
   27.4772  -18.0339   -5.8487 C   0  0  0  0  0  0  0  0  0  0  0  0
   28.6736  -18.8320   -5.3957 C   0  0  0  0  0  0  0  0  0  0  0  0
   28.4180  -20.2306   -5.9006 C   0  0  1  0  0  0  0  0  0  0  0  0
   27.7095  -20.9928   -4.8556 C   0  0  0  0  0  0  0  0  0  0  0  0
   28.3459  -21.4088   -3.6773 O   0  0  0  0  0  0  0  0  0  0  0  0
   26.5100  -21.3060   -4.9653 O   0  0  0  0  0  0  0  0  0  0  0  0
  1  2  1  0
  1  5  1  0
  2  3  1  0
  3  4  1  0
  5  4  1  0
  5  6  1  1
  6  7  2  0
  8  6  1  0
  9  8  1  0
  9 10  1  1
 11 19  1  0
 11 10  1  0
 12 11  2  0
 13 12  1  0
 13 14  1  0
 14 15  1  0
 14 19  2  0
 15 16  2  0
 16 17  1  0
 18 17  2  0
 19 18  1  0
 20  9  1  0
 21 20  2  0
 22 20  1  0
 22 26  1  0
 23 22  1  0
 24 25  1  0
 24 23  1  0
 25 26  1  0
 26 27  1  1
 27 29  2  0
 27 28  1  0
M  END
$$$$
