PWP.pdb
     RDKit          3D

 29 32  0  0  1  0  0  0  0  0999 V2000
   21.8192  -22.2080  -13.2074 N   0  0  0  0  0  0  0  0  0  0  0  0
   20.8336  -22.6292  -12.2243 C   0  0  0  0  0  0  0  0  0  0  0  0
   19.9227  -21.4313  -12.0319 C   0  0  0  0  0  0  0  0  0  0  0  0
   20.9248  -20.2900  -12.1000 C   0  0  0  0  0  0  0  0  0  0  0  0
   21.8483  -20.7545  -13.1765 C   0  0  1  0  0  0  0  0  0  0  0  0
   23.2432  -20.3214  -13.0245 C   0  0  0  0  0  0  0  0  0  0  0  0
   23.5437  -19.0862  -12.9715 O   0  0  0  0  0  0  0  0  0  0  0  0
   24.3013  -21.2707  -12.9325 N   0  0  0  0  0  0  0  0  0  0  0  0
   25.7002  -20.8495  -12.9234 C   0  0  1  0  0  0  0  0  0  0  0  0
   26.4041  -21.5877  -11.8341 C   0  0  0  0  0  0  0  0  0  0  0  0
   26.1667  -21.0825  -10.4699 C   0  0  0  0  0  0  0  0  0  0  0  0
   25.0305  -20.6165   -9.8673 C   0  0  0  0  0  0  0  0  0  0  0  0
   25.3569  -20.2621   -8.5938 N   0  0  0  0  0  0  0  0  0  0  0  0
   26.6435  -20.4837   -8.3690 C   0  0  0  0  0  0  0  0  0  0  0  0
   27.4523  -20.2883   -7.2437 C   0  0  0  0  0  0  0  0  0  0  0  0
   28.7773  -20.6268   -7.3457 C   0  0  0  0  0  0  0  0  0  0  0  0
   29.3456  -21.1447   -8.4901 C   0  0  0  0  0  0  0  0  0  0  0  0
   28.5329  -21.3318   -9.5936 C   0  0  0  0  0  0  0  0  0  0  0  0
   27.1890  -20.9955   -9.5120 C   0  0  0  0  0  0  0  0  0  0  0  0
   26.3568  -21.2650  -14.2046 C   0  0  0  0  0  0  0  0  0  0  0  0
   25.8887  -22.2699  -14.7906 O   0  0  0  0  0  0  0  0  0  0  0  0
   27.4637  -20.5557  -14.7435 N   0  0  0  0  0  0  0  0  0  0  0  0
   28.4356  -19.7264  -14.0785 C   0  0  0  0  0  0  0  0  0  0  0  0
   28.5812  -18.5637  -15.0437 C   0  0  0  0  0  0  0  0  0  0  0  0
   28.1662  -19.0997  -16.3906 C   0  0  0  0  0  0  0  0  0  0  0  0
   27.8098  -20.5438  -16.1380 C   0  0  1  0  0  0  0  0  0  0  0  0
   29.0092  -21.3752  -16.3504 C   0  0  0  0  0  0  0  0  0  0  0  0
   29.5320  -21.6140  -17.6296 O   0  0  0  0  0  0  0  0  0  0  0  0
   29.6197  -21.9076  -15.4056 O   0  0  0  0  0  0  0  0  0  0  0  0
  1  2  1  0
  1  5  1  0
  2  3  1  0
  3  4  1  0
  5  4  1  0
  5  6  1  1
  6  7  2  0
  8  6  1  0
  9  8  1  0
  9 10  1  1
 11 19  1  0
 11 10  1  0
 12 11  2  0
 13 12  1  0
 13 14  1  0
 14 15  1  0
 14 19  2  0
 15 16  2  0
 16 17  1  0
 18 17  2  0
 19 18  1  0
 20  9  1  0
 21 20  2  0
 22 20  1  0
 22 26  1  0
 23 22  1  0
 24 25  1  0
 24 23  1  0
 25 26  1  0
 26 27  1  1
 27 29  2  0
 27 28  1  0
M  END
$$$$
