CEY.pdb
     RDKit          3D

 28 28  0  0  1  0  0  0  0  0999 V2000
   26.5665  -12.2895  -19.5235 N   0  0  0  0  0  0  0  0  0  0  0  0
   25.7352  -11.4381  -18.7184 C   0  0  1  0  0  0  0  0  0  0  0  0
   26.0304  -11.6116  -17.2497 C   0  0  0  0  0  0  0  0  0  0  0  0
   25.6792  -13.3338  -16.7865 S   0  0  0  0  0  0  0  0  0  0  0  0
   25.8035  -10.0038  -19.1199 C   0  0  0  0  0  0  0  0  0  0  0  0
   26.8013   -9.6461  -19.7658 O   0  0  0  0  0  0  0  0  0  0  0  0
   24.7638   -9.1304  -18.7635 N   0  0  0  0  0  0  0  0  0  0  0  0
   24.7081   -7.7643  -19.2177 C   0  0  1  0  0  0  0  0  0  0  0  0
   24.3089   -7.6335  -20.6450 C   0  0  0  0  0  0  0  0  0  0  0  0
   25.4371   -7.8871  -21.6116 C   0  0  0  0  0  0  0  0  0  0  0  0
   24.9051   -7.6427  -22.9837 C   0  0  0  0  0  0  0  0  0  0  0  0
   24.5140   -6.5148  -23.3667 O   0  0  0  0  0  0  0  0  0  0  0  0
   24.0692   -6.8147  -18.2889 C   0  0  0  0  0  0  0  0  0  0  0  0
   23.0289   -6.9943  -17.6219 O   0  0  0  0  0  0  0  0  0  0  0  0
   24.8274   -8.6951  -23.9020 O   0  0  0  0  0  0  0  0  0  0  0  0
   20.5589   -8.7701  -13.7878 O   0  0  0  0  0  0  0  0  0  0  0  0
   21.4885   -7.8539  -14.2771 C   0  0  0  0  0  0  0  0  0  0  0  0
   22.7604   -8.2792  -14.6305 C   0  0  0  0  0  0  0  0  0  0  0  0
   23.6976   -7.4058  -15.1145 C   0  0  0  0  0  0  0  0  0  0  0  0
   23.4016   -6.0531  -15.2685 C   0  0  0  0  0  0  0  0  0  0  0  0
   24.4399   -5.1618  -15.7782 C   0  0  0  0  0  0  0  0  0  0  0  0
   24.1674   -4.5851  -17.1480 C   0  0  2  0  0  0  0  0  0  0  0  0
   24.6964   -5.5354  -18.1168 N   0  0  0  0  0  0  0  0  0  0  0  0
   24.8964   -3.3110  -17.2849 C   0  0  0  0  0  0  0  0  0  0  0  0
   25.8323   -3.2316  -18.1065 O   0  0  0  0  0  0  0  0  0  0  0  0
   22.1487   -5.6329  -14.9203 C   0  0  0  0  0  0  0  0  0  0  0  0
   21.2082   -6.5142  -14.4338 C   0  0  0  0  0  0  0  0  0  0  0  0
   24.5936   -2.1782  -16.5383 O   0  0  0  0  0  0  0  0  0  0  0  0
  2  5  1  0
  2  1  1  6
  3  2  1  0
  3  4  1  0
  5  6  2  0
  7  5  1  0
  7  8  1  0
  8 13  1  0
  8  9  1  6
 10  9  1  0
 10 11  1  0
 11 15  1  0
 11 12  2  0
 13 14  2  0
 16 17  1  0
 17 27  2  0
 18 17  1  0
 18 19  2  0
 19 20  1  0
 20 26  2  0
 20 21  1  0
 22 21  1  1
 22 23  1  0
 22 24  1  0
 23 13  1  0
 24 25  2  0
 24 28  1  0
 27 26  1  0
M  END
$$$$
