CEY.pdb
     RDKit          3D

 28 28  0  0  1  0  0  0  0  0999 V2000
   23.7024  -14.0425  -17.7096 N   0  0  0  0  0  0  0  0  0  0  0  0
   23.7275  -12.8765  -16.8706 C   0  0  1  0  0  0  0  0  0  0  0  0
   25.0306  -12.1298  -17.0068 C   0  0  0  0  0  0  0  0  0  0  0  0
   26.2996  -12.9943  -16.0340 S   0  0  0  0  0  0  0  0  0  0  0  0
   22.5601  -11.9745  -17.0866 C   0  0  0  0  0  0  0  0  0  0  0  0
   22.3462  -11.5980  -18.2499 O   0  0  0  0  0  0  0  0  0  0  0  0
   21.7634  -11.5928  -15.9955 N   0  0  0  0  0  0  0  0  0  0  0  0
   20.6625  -10.6725  -16.1230 C   0  0  1  0  0  0  0  0  0  0  0  0
   19.3425  -11.2860  -15.8150 C   0  0  0  0  0  0  0  0  0  0  0  0
   19.0548  -12.5297  -16.6162 C   0  0  0  0  0  0  0  0  0  0  0  0
   17.7328  -13.0505  -16.1618 C   0  0  0  0  0  0  0  0  0  0  0  0
   17.5692  -13.6003  -15.0470 O   0  0  0  0  0  0  0  0  0  0  0  0
   20.8895   -9.3322  -15.5531 C   0  0  0  0  0  0  0  0  0  0  0  0
   21.8656   -8.9568  -14.8707 O   0  0  0  0  0  0  0  0  0  0  0  0
   16.6123  -12.9350  -16.9913 O   0  0  0  0  0  0  0  0  0  0  0  0
   22.3561   -0.9916  -14.7030 O   0  0  0  0  0  0  0  0  0  0  0  0
   22.0873   -2.3219  -15.0213 C   0  0  0  0  0  0  0  0  0  0  0  0
   22.3931   -3.3263  -14.1152 C   0  0  0  0  0  0  0  0  0  0  0  0
   22.1422   -4.6430  -14.3958 C   0  0  0  0  0  0  0  0  0  0  0  0
   21.5679   -5.0184  -15.6084 C   0  0  0  0  0  0  0  0  0  0  0  0
   21.3312   -6.4367  -15.8628 C   0  0  0  0  0  0  0  0  0  0  0  0
   20.0556   -6.9858  -15.2673 C   0  0  2  0  0  0  0  0  0  0  0  0
   19.8898   -8.3320  -15.7980 N   0  0  0  0  0  0  0  0  0  0  0  0
   18.9223   -6.1556  -15.7143 C   0  0  0  0  0  0  0  0  0  0  0  0
   18.3729   -6.4134  -16.8046 O   0  0  0  0  0  0  0  0  0  0  0  0
   21.2664   -4.0294  -16.5021 C   0  0  0  0  0  0  0  0  0  0  0  0
   21.5201   -2.7057  -16.2166 C   0  0  0  0  0  0  0  0  0  0  0  0
   18.4258   -5.0868  -14.9770 O   0  0  0  0  0  0  0  0  0  0  0  0
  2  5  1  0
  2  1  1  6
  3  2  1  0
  3  4  1  0
  5  6  2  0
  7  5  1  0
  7  8  1  0
  8 13  1  0
  8  9  1  1
 10  9  1  0
 10 11  1  0
 11 15  1  0
 11 12  2  0
 13 14  2  0
 16 17  1  0
 17 27  2  0
 18 17  1  0
 18 19  2  0
 19 20  1  0
 20 26  2  0
 20 21  1  0
 22 21  1  6
 22 23  1  0
 22 24  1  0
 23 13  1  0
 24 25  2  0
 24 28  1  0
 27 26  1  0
M  END
$$$$
