CEY.pdb
     RDKit          3D

 28 28  0  0  1  0  0  0  0  0999 V2000
   19.9682  -13.0403  -21.2462 N   0  0  0  0  0  0  0  0  0  0  0  0
   19.8271  -13.4605  -19.8796 C   0  0  1  0  0  0  0  0  0  0  0  0
   19.0433  -12.4551  -19.0739 C   0  0  0  0  0  0  0  0  0  0  0  0
   19.7517  -10.8053  -19.3568 S   0  0  0  0  0  0  0  0  0  0  0  0
   19.2534  -14.8301  -19.7444 C   0  0  0  0  0  0  0  0  0  0  0  0
   18.1595  -15.0397  -20.2923 O   0  0  0  0  0  0  0  0  0  0  0  0
   19.9523  -15.8099  -19.0216 N   0  0  0  0  0  0  0  0  0  0  0  0
   19.4822  -17.1661  -18.8986 C   0  0  1  0  0  0  0  0  0  0  0  0
   20.5568  -18.1328  -18.5460 C   0  0  0  0  0  0  0  0  0  0  0  0
   20.0729  -19.5554  -18.4305 C   0  0  0  0  0  0  0  0  0  0  0  0
   20.5360  -20.0726  -17.1101 C   0  0  0  0  0  0  0  0  0  0  0  0
   20.2927  -21.2379  -16.7170 O   0  0  0  0  0  0  0  0  0  0  0  0
   18.2129  -17.3314  -18.1676 C   0  0  0  0  0  0  0  0  0  0  0  0
   17.7286  -16.5624  -17.3112 O   0  0  0  0  0  0  0  0  0  0  0  0
   21.2735  -19.2472  -16.2547 O   0  0  0  0  0  0  0  0  0  0  0  0
    9.9378  -18.0251  -16.1677 O   0  0  0  0  0  0  0  0  0  0  0  0
   11.2347  -17.9806  -16.6767 C   0  0  0  0  0  0  0  0  0  0  0  0
   11.9112  -16.7718  -16.7444 C   0  0  0  0  0  0  0  0  0  0  0  0
   13.1859  -16.6925  -17.2386 C   0  0  0  0  0  0  0  0  0  0  0  0
   13.8485  -17.8311  -17.6923 C   0  0  0  0  0  0  0  0  0  0  0  0
   15.2027  -17.6906  -18.2202 C   0  0  0  0  0  0  0  0  0  0  0  0
   16.1823  -18.7391  -17.7467 C   0  0  2  0  0  0  0  0  0  0  0  0
   17.4307  -18.4992  -18.4575 N   0  0  0  0  0  0  0  0  0  0  0  0
   15.6730  -20.0722  -18.1169 C   0  0  0  0  0  0  0  0  0  0  0  0
   15.9973  -20.5625  -19.2177 O   0  0  0  0  0  0  0  0  0  0  0  0
   13.1827  -19.0227  -17.6263 C   0  0  0  0  0  0  0  0  0  0  0  0
   11.9004  -19.0989  -17.1285 C   0  0  0  0  0  0  0  0  0  0  0  0
   14.8399  -20.8226  -17.2952 O   0  0  0  0  0  0  0  0  0  0  0  0
  2  5  1  0
  2  1  1  6
  3  2  1  0
  3  4  1  0
  5  6  2  0
  7  5  1  0
  7  8  1  0
  8 13  1  0
  8  9  1  1
 10  9  1  0
 10 11  1  0
 11 15  1  0
 11 12  2  0
 13 14  2  0
 16 17  1  0
 17 27  2  0
 18 17  1  0
 18 19  2  0
 19 20  1  0
 20 26  2  0
 20 21  1  0
 22 21  1  6
 22 23  1  0
 22 24  1  0
 23 13  1  0
 24 25  2  0
 24 28  1  0
 27 26  1  0
M  END
$$$$
