CEY.pdb
     RDKit          3D

 28 28  0  0  1  0  0  0  0  0999 V2000
   38.4709   -8.5484  -14.6035 N   0  0  0  0  0  0  0  0  0  0  0  0
   37.6242   -7.7481  -13.7627 C   0  0  1  0  0  0  0  0  0  0  0  0
   38.3943   -7.1621  -12.6061 C   0  0  0  0  0  0  0  0  0  0  0  0
   38.9282   -8.5168  -11.5182 S   0  0  0  0  0  0  0  0  0  0  0  0
   36.8840   -6.6929  -14.5121 C   0  0  0  0  0  0  0  0  0  0  0  0
   37.5548   -5.9388  -15.2345 O   0  0  0  0  0  0  0  0  0  0  0  0
   35.4901   -6.5918  -14.3788 N   0  0  0  0  0  0  0  0  0  0  0  0
   34.7201   -5.5670  -15.0364 C   0  0  1  0  0  0  0  0  0  0  0  0
   33.3775   -6.0309  -15.4789 C   0  0  0  0  0  0  0  0  0  0  0  0
   33.4274   -7.1946  -16.4353 C   0  0  0  0  0  0  0  0  0  0  0  0
   32.0177   -7.5803  -16.7338 C   0  0  0  0  0  0  0  0  0  0  0  0
   31.7235   -8.5576  -17.4619 O   0  0  0  0  0  0  0  0  0  0  0  0
   34.7552   -4.2402  -14.3951 C   0  0  0  0  0  0  0  0  0  0  0  0
   34.5210   -3.9733  -13.1979 O   0  0  0  0  0  0  0  0  0  0  0  0
   30.9603   -6.8407  -16.1938 O   0  0  0  0  0  0  0  0  0  0  0  0
   36.9841    4.1532  -13.1413 O   0  0  0  0  0  0  0  0  0  0  0  0
   36.9007    2.8180  -13.5330 C   0  0  0  0  0  0  0  0  0  0  0  0
   35.7523    2.3484  -14.1528 C   0  0  0  0  0  0  0  0  0  0  0  0
   35.6374    1.0429  -14.5503 C   0  0  0  0  0  0  0  0  0  0  0  0
   36.6770    0.1388  -14.3436 C   0  0  0  0  0  0  0  0  0  0  0  0
   36.4996   -1.2446  -14.7762 C   0  0  0  0  0  0  0  0  0  0  0  0
   35.0875   -1.7704  -14.6634 C   0  0  2  0  0  0  0  0  0  0  0  0
   35.0946   -3.1162  -15.2204 N   0  0  0  0  0  0  0  0  0  0  0  0
   34.1950   -0.9242  -15.4764 C   0  0  0  0  0  0  0  0  0  0  0  0
   33.7726    0.1483  -14.9984 O   0  0  0  0  0  0  0  0  0  0  0  0
   37.8089    0.6005  -13.7327 C   0  0  0  0  0  0  0  0  0  0  0  0
   37.9214    1.9144  -13.3341 C   0  0  0  0  0  0  0  0  0  0  0  0
   33.7932   -1.2608  -16.7639 O   0  0  0  0  0  0  0  0  0  0  0  0
  2  5  1  0
  2  1  1  6
  3  2  1  0
  3  4  1  0
  5  6  2  0
  7  5  1  0
  7  8  1  0
  8 13  1  0
  8  9  1  1
 10  9  1  0
 10 11  1  0
 11 15  1  0
 11 12  2  0
 13 14  2  0
 16 17  1  0
 17 27  2  0
 18 17  1  0
 18 19  2  0
 19 20  1  0
 20 26  2  0
 20 21  1  0
 22 21  1  6
 22 23  1  0
 22 24  1  0
 23 13  1  0
 24 25  2  0
 24 28  1  0
 27 26  1  0
M  END
$$$$
