CEY.pdb
     RDKit          3D

 28 28  0  0  1  0  0  0  0  0999 V2000
   17.7456  -11.0949  -18.9482 N   0  0  0  0  0  0  0  0  0  0  0  0
   18.1352  -10.3858  -17.7608 C   0  0  1  0  0  0  0  0  0  0  0  0
   19.0885  -11.2000  -16.9227 C   0  0  0  0  0  0  0  0  0  0  0  0
   18.1536  -12.5254  -16.1021 S   0  0  0  0  0  0  0  0  0  0  0  0
   18.6839   -9.0285  -18.0429 C   0  0  0  0  0  0  0  0  0  0  0  0
   18.9357   -8.7573  -19.2277 O   0  0  0  0  0  0  0  0  0  0  0  0
   18.8907   -8.1273  -16.9865 N   0  0  0  0  0  0  0  0  0  0  0  0
   19.2365   -6.7455  -17.2019 C   0  0  1  0  0  0  0  0  0  0  0  0
   18.4765   -6.1141  -18.3144 C   0  0  0  0  0  0  0  0  0  0  0  0
   16.9815   -6.2351  -18.1671 C   0  0  0  0  0  0  0  0  0  0  0  0
   16.3644   -5.4201  -19.2535 C   0  0  0  0  0  0  0  0  0  0  0  0
   16.0872   -5.8943  -20.3805 O   0  0  0  0  0  0  0  0  0  0  0  0
   19.3728   -5.9301  -15.9816 C   0  0  0  0  0  0  0  0  0  0  0  0
   18.6870   -6.0072  -14.9409 O   0  0  0  0  0  0  0  0  0  0  0  0
   16.0717   -4.0697  -19.0355 O   0  0  0  0  0  0  0  0  0  0  0  0
   18.5899   -8.6433  -10.4312 O   0  0  0  0  0  0  0  0  0  0  0  0
   19.3827   -7.9066  -11.3098 C   0  0  0  0  0  0  0  0  0  0  0  0
   18.8816   -7.5333  -12.5479 C   0  0  0  0  0  0  0  0  0  0  0  0
   19.6334   -6.8095  -13.4347 C   0  0  0  0  0  0  0  0  0  0  0  0
   20.9342   -6.4224  -13.1197 C   0  0  0  0  0  0  0  0  0  0  0  0
   21.6972   -5.6612  -14.1049 C   0  0  0  0  0  0  0  0  0  0  0  0
   20.9671   -4.4804  -14.7013 C   0  0  2  0  0  0  0  0  0  0  0  0
   20.4028   -4.9307  -15.9663 N   0  0  0  0  0  0  0  0  0  0  0  0
   21.9373   -3.4034  -14.9701 C   0  0  0  0  0  0  0  0  0  0  0  0
   22.4910   -2.8306  -14.0097 O   0  0  0  0  0  0  0  0  0  0  0  0
   21.4289   -6.7901  -11.9000 C   0  0  0  0  0  0  0  0  0  0  0  0
   20.6700   -7.5181  -11.0101 C   0  0  0  0  0  0  0  0  0  0  0  0
   22.2733   -2.9860  -16.2528 O   0  0  0  0  0  0  0  0  0  0  0  0
  2  5  1  0
  2  1  1  6
  3  2  1  0
  3  4  1  0
  5  6  2  0
  7  5  1  0
  7  8  1  0
  8 13  1  0
  8  9  1  6
 10  9  1  0
 10 11  1  0
 11 15  1  0
 11 12  2  0
 13 14  2  0
 16 17  1  0
 17 27  2  0
 18 17  1  0
 18 19  2  0
 19 20  1  0
 20 26  2  0
 20 21  1  0
 22 21  1  6
 22 23  1  0
 22 24  1  0
 23 13  1  0
 24 25  2  0
 24 28  1  0
 27 26  1  0
M  END
$$$$
