CEY.pdb
     RDKit          3D

 28 28  0  0  1  0  0  0  0  0999 V2000
   28.7176  -20.7785  -16.7725 N   0  0  0  0  0  0  0  0  0  0  0  0
   27.4455  -21.4287  -16.6200 C   0  0  1  0  0  0  0  0  0  0  0  0
   27.5477  -22.6303  -15.7145 C   0  0  0  0  0  0  0  0  0  0  0  0
   28.4674  -23.9354  -16.5832 S   0  0  0  0  0  0  0  0  0  0  0  0
   26.3648  -20.5034  -16.1740 C   0  0  0  0  0  0  0  0  0  0  0  0
   26.5947  -19.8101  -15.1704 O   0  0  0  0  0  0  0  0  0  0  0  0
   25.1563  -20.4490  -16.8863 N   0  0  0  0  0  0  0  0  0  0  0  0
   24.0543  -19.6136  -16.4821 C   0  0  1  0  0  0  0  0  0  0  0  0
   23.5153  -18.7740  -17.5858 C   0  0  0  0  0  0  0  0  0  0  0  0
   24.2931  -17.5029  -17.8105 C   0  0  0  0  0  0  0  0  0  0  0  0
   23.5767  -16.7285  -18.8652 C   0  0  0  0  0  0  0  0  0  0  0  0
   22.3926  -16.3390  -18.7317 O   0  0  0  0  0  0  0  0  0  0  0  0
   23.0454  -20.2669  -15.6288 C   0  0  0  0  0  0  0  0  0  0  0  0
   22.5318  -21.3933  -15.7933 O   0  0  0  0  0  0  0  0  0  0  0  0
   24.2265  -16.4093  -20.0622 O   0  0  0  0  0  0  0  0  0  0  0  0
   19.1148  -21.8949   -7.8420 O   0  0  0  0  0  0  0  0  0  0  0  0
   19.8649  -21.4327   -8.9223 C   0  0  0  0  0  0  0  0  0  0  0  0
   20.5152  -20.2105   -8.8416 C   0  0  0  0  0  0  0  0  0  0  0  0
   21.2602  -19.7269   -9.8840 C   0  0  0  0  0  0  0  0  0  0  0  0
   21.3898  -20.4519  -11.0666 C   0  0  0  0  0  0  0  0  0  0  0  0
   22.1864  -19.8865  -12.1520 C   0  0  0  0  0  0  0  0  0  0  0  0
   21.6626  -20.1705  -13.5405 C   0  0  2  0  0  0  0  0  0  0  0  0
   22.5890  -19.5459  -14.4749 N   0  0  0  0  0  0  0  0  0  0  0  0
   20.3384  -19.5401  -13.6910 C   0  0  0  0  0  0  0  0  0  0  0  0
   20.2713  -18.3190  -13.9391 O   0  0  0  0  0  0  0  0  0  0  0  0
   20.7491  -21.6564  -11.1472 C   0  0  0  0  0  0  0  0  0  0  0  0
   20.0005  -22.1400  -10.0967 C   0  0  0  0  0  0  0  0  0  0  0  0
   19.1445  -20.2418  -13.5700 O   0  0  0  0  0  0  0  0  0  0  0  0
  2  5  1  0
  2  1  1  1
  3  2  1  0
  3  4  1  0
  5  6  2  0
  7  5  1  0
  7  8  1  0
  8 13  1  0
  8  9  1  6
 10  9  1  0
 10 11  1  0
 11 15  1  0
 11 12  2  0
 13 14  2  0
 16 17  1  0
 17 27  2  0
 18 17  1  0
 18 19  2  0
 19 20  1  0
 20 26  2  0
 20 21  1  0
 22 21  1  1
 22 23  1  0
 22 24  1  0
 23 13  1  0
 24 25  2  0
 24 28  1  0
 27 26  1  0
M  END
$$$$
