CEY.pdb
     RDKit          3D

 28 28  0  0  1  0  0  0  0  0999 V2000
   28.2331  -16.6688  -18.9237 N   0  0  0  0  0  0  0  0  0  0  0  0
   28.3883  -17.6311  -17.8682 C   0  0  1  0  0  0  0  0  0  0  0  0
   28.8553  -16.9765  -16.5924 C   0  0  0  0  0  0  0  0  0  0  0  0
   30.5803  -16.4465  -16.8095 S   0  0  0  0  0  0  0  0  0  0  0  0
   27.1651  -18.4527  -17.6404 C   0  0  0  0  0  0  0  0  0  0  0  0
   26.0723  -17.8681  -17.7099 O   0  0  0  0  0  0  0  0  0  0  0  0
   27.2883  -19.8234  -17.3632 N   0  0  0  0  0  0  0  0  0  0  0  0
   26.1489  -20.6725  -17.1262 C   0  0  1  0  0  0  0  0  0  0  0  0
   25.8280  -21.5625  -18.2745 C   0  0  0  0  0  0  0  0  0  0  0  0
   27.0466  -22.0771  -18.9965 C   0  0  0  0  0  0  0  0  0  0  0  0
   26.5709  -23.0346  -20.0368 C   0  0  0  0  0  0  0  0  0  0  0  0
   26.5510  -24.2750  -19.8560 O   0  0  0  0  0  0  0  0  0  0  0  0
   26.0985  -21.3066  -15.7965 C   0  0  0  0  0  0  0  0  0  0  0  0
   26.9935  -21.9825  -15.2474 O   0  0  0  0  0  0  0  0  0  0  0  0
   26.1230  -22.5588  -21.2737 O   0  0  0  0  0  0  0  0  0  0  0  0
   26.3105  -20.7826   -7.3476 O   0  0  0  0  0  0  0  0  0  0  0  0
   26.1871  -20.6660   -8.7311 C   0  0  0  0  0  0  0  0  0  0  0  0
   26.6773  -21.6664   -9.5571 C   0  0  0  0  0  0  0  0  0  0  0  0
   26.5725  -21.5836  -10.9200 C   0  0  0  0  0  0  0  0  0  0  0  0
   25.9660  -20.4846  -11.5246 C   0  0  0  0  0  0  0  0  0  0  0  0
   25.8897  -20.4397  -12.9822 C   0  0  0  0  0  0  0  0  0  0  0  0
   24.8995  -21.4010  -13.5975 C   0  0  2  0  0  0  0  0  0  0  0  0
   24.8962  -21.1407  -15.0305 N   0  0  0  0  0  0  0  0  0  0  0  0
   23.5570  -21.1153  -13.0593 C   0  0  0  0  0  0  0  0  0  0  0  0
   23.3292  -21.3262  -11.8507 O   0  0  0  0  0  0  0  0  0  0  0  0
   25.4829  -19.4981  -10.7116 C   0  0  0  0  0  0  0  0  0  0  0  0
   25.5898  -19.5846   -9.3409 C   0  0  0  0  0  0  0  0  0  0  0  0
   22.5172  -20.6169  -13.8358 O   0  0  0  0  0  0  0  0  0  0  0  0
  2  5  1  0
  2  1  1  6
  3  2  1  0
  3  4  1  0
  5  6  2  0
  7  5  1  0
  7  8  1  0
  8 13  1  0
  8  9  1  6
 10  9  1  0
 10 11  1  0
 11 15  1  0
 11 12  2  0
 13 14  2  0
 16 17  1  0
 17 27  2  0
 18 17  1  0
 18 19  2  0
 19 20  1  0
 20 26  2  0
 20 21  1  0
 22 21  1  1
 22 23  1  0
 22 24  1  0
 23 13  1  0
 24 25  2  0
 24 28  1  0
 27 26  1  0
M  END
$$$$
