CEY.pdb
     RDKit          3D

 28 28  0  0  1  0  0  0  0  0999 V2000
   21.8759  -12.3345  -18.5420 N   0  0  0  0  0  0  0  0  0  0  0  0
   21.2025  -11.1697  -19.0462 C   0  0  1  0  0  0  0  0  0  0  0  0
   21.2151  -11.1375  -20.5539 C   0  0  0  0  0  0  0  0  0  0  0  0
   22.8858  -10.6883  -21.1112 S   0  0  0  0  0  0  0  0  0  0  0  0
   19.8193  -11.0158  -18.5116 C   0  0  0  0  0  0  0  0  0  0  0  0
   18.9094  -11.5939  -19.1269 O   0  0  0  0  0  0  0  0  0  0  0  0
   19.5994  -10.2429  -17.3604 N   0  0  0  0  0  0  0  0  0  0  0  0
   18.3006  -10.1102  -16.7514 C   0  0  1  0  0  0  0  0  0  0  0  0
   17.5769  -11.4034  -16.6183 C   0  0  0  0  0  0  0  0  0  0  0  0
   17.4479  -11.8775  -15.1936 C   0  0  0  0  0  0  0  0  0  0  0  0
   16.3404  -12.8762  -15.1601 C   0  0  0  0  0  0  0  0  0  0  0  0
   15.4151  -12.8322  -14.3153 O   0  0  0  0  0  0  0  0  0  0  0  0
   18.2413   -9.2242  -15.5749 C   0  0  0  0  0  0  0  0  0  0  0  0
   17.2394   -8.9595  -14.8781 O   0  0  0  0  0  0  0  0  0  0  0  0
   16.3061  -13.9151  -16.0963 O   0  0  0  0  0  0  0  0  0  0  0  0
   21.2324   -4.8534   -8.5234 O   0  0  0  0  0  0  0  0  0  0  0  0
   21.0407   -5.6754   -9.6328 C   0  0  0  0  0  0  0  0  0  0  0  0
   21.7928   -5.4761  -10.7808 C   0  0  0  0  0  0  0  0  0  0  0  0
   21.6300   -6.2652  -11.8881 C   0  0  0  0  0  0  0  0  0  0  0  0
   20.6976   -7.3004  -11.8971 C   0  0  0  0  0  0  0  0  0  0  0  0
   20.5553   -8.1055  -13.1071 C   0  0  0  0  0  0  0  0  0  0  0  0
   19.4593   -7.6561  -14.0451 C   0  0  2  0  0  0  0  0  0  0  0  0
   19.4598   -8.5848  -15.1672 N   0  0  0  0  0  0  0  0  0  0  0  0
   19.7800   -6.3067  -14.5448 C   0  0  0  0  0  0  0  0  0  0  0  0
   20.4331   -6.1892  -15.6015 O   0  0  0  0  0  0  0  0  0  0  0  0
   19.9557   -7.4975  -10.7664 C   0  0  0  0  0  0  0  0  0  0  0  0
   20.1221   -6.7018   -9.6541 C   0  0  0  0  0  0  0  0  0  0  0  0
   19.3889   -5.1424  -13.8937 O   0  0  0  0  0  0  0  0  0  0  0  0
  2  5  1  0
  2  1  1  6
  3  2  1  0
  3  4  1  0
  5  6  2  0
  7  5  1  0
  7  8  1  0
  8 13  1  0
  8  9  1  1
 10  9  1  0
 10 11  1  0
 11 15  1  0
 11 12  2  0
 13 14  2  0
 16 17  1  0
 17 27  2  0
 18 17  1  0
 18 19  2  0
 19 20  1  0
 20 26  2  0
 20 21  1  0
 22 21  1  1
 22 23  1  0
 22 24  1  0
 23 13  1  0
 24 25  2  0
 24 28  1  0
 27 26  1  0
M  END
$$$$
