CEY.pdb
     RDKit          3D

 28 28  0  0  1  0  0  0  0  0999 V2000
   19.1525  -14.2395  -20.2016 N   0  0  0  0  0  0  0  0  0  0  0  0
   20.1547  -13.6869  -19.3330 C   0  0  1  0  0  0  0  0  0  0  0  0
   21.4440  -13.4338  -20.0731 C   0  0  0  0  0  0  0  0  0  0  0  0
   22.1529  -15.0326  -20.5682 S   0  0  0  0  0  0  0  0  0  0  0  0
   19.6949  -12.4664  -18.6106 C   0  0  0  0  0  0  0  0  0  0  0  0
   19.4966  -11.4486  -19.2928 O   0  0  0  0  0  0  0  0  0  0  0  0
   19.5065  -12.5095  -17.2201 N   0  0  0  0  0  0  0  0  0  0  0  0
   19.1630  -11.3433  -16.4472 C   0  0  1  0  0  0  0  0  0  0  0  0
   18.1614  -11.6163  -15.3814 C   0  0  0  0  0  0  0  0  0  0  0  0
   16.8889  -12.2385  -15.8960 C   0  0  0  0  0  0  0  0  0  0  0  0
   16.7746  -13.5885  -15.2715 C   0  0  0  0  0  0  0  0  0  0  0  0
   16.8453  -14.6493  -15.9358 O   0  0  0  0  0  0  0  0  0  0  0  0
   20.2983  -10.4911  -16.0500 C   0  0  0  0  0  0  0  0  0  0  0  0
   21.4403  -10.8644  -15.7093 O   0  0  0  0  0  0  0  0  0  0  0  0
   16.5803  -13.7070  -13.8913 O   0  0  0  0  0  0  0  0  0  0  0  0
   25.1451   -3.1030  -16.4090 O   0  0  0  0  0  0  0  0  0  0  0  0
   24.1569   -4.0811  -16.5088 C   0  0  0  0  0  0  0  0  0  0  0  0
   24.4283   -5.2763  -17.1577 C   0  0  0  0  0  0  0  0  0  0  0  0
   23.4807   -6.2582  -17.2735 C   0  0  0  0  0  0  0  0  0  0  0  0
   22.2052   -6.0869  -16.7397 C   0  0  0  0  0  0  0  0  0  0  0  0
   21.2281   -7.1601  -16.9002 C   0  0  0  0  0  0  0  0  0  0  0  0
   21.1999   -8.1686  -15.7754 C   0  0  2  0  0  0  0  0  0  0  0  0
   20.0897   -9.0712  -16.0481 N   0  0  0  0  0  0  0  0  0  0  0  0
   20.9391   -7.4639  -14.5069 C   0  0  0  0  0  0  0  0  0  0  0  0
   19.7615   -7.2020  -14.1882 O   0  0  0  0  0  0  0  0  0  0  0  0
   21.9367   -4.9094  -16.1003 C   0  0  0  0  0  0  0  0  0  0  0  0
   22.8923   -3.9237  -15.9855 C   0  0  0  0  0  0  0  0  0  0  0  0
   21.9477   -7.0703  -13.6350 O   0  0  0  0  0  0  0  0  0  0  0  0
  2  5  1  0
  2  1  1  6
  3  2  1  0
  3  4  1  0
  5  6  2  0
  7  5  1  0
  7  8  1  0
  8 13  1  0
  8  9  1  1
 10  9  1  0
 10 11  1  0
 11 15  1  0
 11 12  2  0
 13 14  2  0
 16 17  1  0
 17 27  2  0
 18 17  1  0
 18 19  2  0
 19 20  1  0
 20 26  2  0
 20 21  1  0
 22 21  1  6
 22 23  1  0
 22 24  1  0
 23 13  1  0
 24 25  2  0
 24 28  1  0
 27 26  1  0
M  END
$$$$
