CEY.pdb
     RDKit          3D

 28 28  0  0  1  0  0  0  0  0999 V2000
   18.6113  -12.7674  -16.8231 N   0  0  0  0  0  0  0  0  0  0  0  0
   18.4065  -11.5090  -16.1608 C   0  0  1  0  0  0  0  0  0  0  0  0
   18.2296  -11.6928  -14.6745 C   0  0  0  0  0  0  0  0  0  0  0  0
   16.6880  -12.6104  -14.3825 S   0  0  0  0  0  0  0  0  0  0  0  0
   19.4713  -10.5094  -16.4611 C   0  0  0  0  0  0  0  0  0  0  0  0
   20.3784  -10.8655  -17.2298 O   0  0  0  0  0  0  0  0  0  0  0  0
   19.4122   -9.2328  -15.8797 N   0  0  0  0  0  0  0  0  0  0  0  0
   20.2595   -8.1475  -16.3034 C   0  0  1  0  0  0  0  0  0  0  0  0
   20.4301   -8.0744  -17.7796 C   0  0  0  0  0  0  0  0  0  0  0  0
   21.3462   -6.9640  -18.2257 C   0  0  0  0  0  0  0  0  0  0  0  0
   21.3185   -6.9422  -19.7171 C   0  0  0  0  0  0  0  0  0  0  0  0
   22.1978   -7.4963  -20.4182 O   0  0  0  0  0  0  0  0  0  0  0  0
   20.0239   -6.8598  -15.6258 C   0  0  0  0  0  0  0  0  0  0  0  0
   18.9737   -6.1842  -15.6313 O   0  0  0  0  0  0  0  0  0  0  0  0
   20.2821   -6.2849  -20.3883 O   0  0  0  0  0  0  0  0  0  0  0  0
   17.4554   -8.4612   -9.7334 O   0  0  0  0  0  0  0  0  0  0  0  0
   18.4202   -7.7653  -10.4599 C   0  0  0  0  0  0  0  0  0  0  0  0
   18.4789   -6.3817  -10.3857 C   0  0  0  0  0  0  0  0  0  0  0  0
   19.4140   -5.6671  -11.0860 C   0  0  0  0  0  0  0  0  0  0  0  0
   20.3425   -6.3113  -11.9008 C   0  0  0  0  0  0  0  0  0  0  0  0
   21.3114   -5.5023  -12.6351 C   0  0  0  0  0  0  0  0  0  0  0  0
   20.8939   -5.1266  -14.0378 C   0  0  2  0  0  0  0  0  0  0  0  0
   21.1090   -6.3029  -14.8694 N   0  0  0  0  0  0  0  0  0  0  0  0
   21.7626   -4.0377  -14.5206 C   0  0  0  0  0  0  0  0  0  0  0  0
   22.5782   -4.2713  -15.4356 O   0  0  0  0  0  0  0  0  0  0  0  0
   20.2854   -7.6747  -11.9749 C   0  0  0  0  0  0  0  0  0  0  0  0
   19.3435   -8.3905  -11.2690 C   0  0  0  0  0  0  0  0  0  0  0  0
   21.7218   -2.7475  -14.0047 O   0  0  0  0  0  0  0  0  0  0  0  0
  2  5  1  0
  2  1  1  6
  3  2  1  0
  3  4  1  0
  5  6  2  0
  7  5  1  0
  7  8  1  0
  8 13  1  0
  8  9  1  6
 10  9  1  0
 10 11  1  0
 11 15  1  0
 11 12  2  0
 13 14  2  0
 16 17  1  0
 17 27  2  0
 18 17  1  0
 18 19  2  0
 19 20  1  0
 20 26  2  0
 20 21  1  0
 22 21  1  1
 22 23  1  0
 22 24  1  0
 23 13  1  0
 24 25  2  0
 24 28  1  0
 27 26  1  0
M  END
$$$$
