TIQ.pdb
     RDKit          3D

 25 24  0  0  1  0  0  0  0  0999 V2000
    6.2454  -14.7632   18.7682 C   0  0  0  0  0  0  0  0  0  0  0  0
    6.9127  -14.9626   20.1137 C   0  0  1  0  0  0  0  0  0  0  0  0
    7.9510  -15.8700   19.9286 O   0  0  0  0  0  0  0  0  0  0  0  0
    7.4035  -13.6279   20.5912 C   0  0  2  0  0  0  0  0  0  0  0  0
    8.2247  -13.0352   19.5549 N   0  0  0  0  0  0  0  0  0  0  0  0
    8.1044  -13.6700   21.8697 C   0  0  0  0  0  0  0  0  0  0  0  0
    9.3494  -13.8194   21.8765 O   0  0  0  0  0  0  0  0  0  0  0  0
    7.1821  -11.6130   27.5655 C   0  0  0  0  0  0  0  0  0  0  0  0
    7.9522  -12.5643   26.6764 C   0  0  0  0  0  0  0  0  0  0  0  0
    7.2745  -12.7521   25.3401 C   0  0  2  0  0  0  0  0  0  0  0  0
    5.9577  -13.4569   25.5894 C   0  0  0  0  0  0  0  0  0  0  0  0
    8.0692  -13.5768   24.3894 C   0  0  2  0  0  0  0  0  0  0  0  0
    7.4182  -13.5471   23.1001 N   0  0  0  0  0  0  0  0  0  0  0  0
    8.2530  -14.9781   24.8524 C   0  0  0  0  0  0  0  0  0  0  0  0
    7.3352  -15.8309   24.8410 O   0  0  0  0  0  0  0  0  0  0  0  0
   13.2336  -18.1017   23.1139 N   0  0  0  0  0  0  0  0  0  0  0  0
   12.7487  -18.9134   24.2232 C   0  0  0  0  0  0  0  0  0  0  0  0
   13.4546  -19.9167   24.4442 O   0  0  0  0  0  0  0  0  0  0  0  0
   11.5553  -18.5100   24.9288 C   0  0  0  0  0  0  0  0  0  0  0  0
   10.9337  -17.1997   24.7085 C   0  0  0  0  0  0  0  0  0  0  0  0
    9.7682  -16.8085   25.5752 C   0  0  2  0  0  0  0  0  0  0  0  0
    9.5237  -15.3743   25.3304 N   0  0  0  0  0  0  0  0  0  0  0  0
   10.0317  -17.0701   26.9785 C   0  0  0  0  0  0  0  0  0  0  0  0
   10.0506  -18.1684   27.5684 O   0  0  0  0  0  0  0  0  0  0  0  0
   10.3091  -15.9391   27.7802 O   0  0  0  0  0  0  0  0  0  0  0  0
  2  1  1  6
  3  2  1  0
  4  2  1  0
  4  6  1  0
  4  5  1  6
  6 13  1  0
  7  6  2  0
  9 10  1  0
  9  8  1  0
 10 12  1  0
 10 11  1  1
 12 14  1  0
 12 13  1  6
 14 15  2  0
 16 17  1  0
 17 19  1  0
 18 17  2  0
 19 20  1  0
 21 20  1  6
 21 23  1  0
 22 14  1  0
 22 21  1  0
 23 24  2  0
 23 25  1  0
M  END
$$$$
