TIQ.pdb
     RDKit          3D

 25 24  0  0  1  0  0  0  0  0999 V2000
    5.7954  -16.2138   19.8689 C   0  0  0  0  0  0  0  0  0  0  0  0
    6.6478  -16.1479   21.1198 C   0  0  1  0  0  0  0  0  0  0  0  0
    7.7038  -17.0369   20.9464 O   0  0  0  0  0  0  0  0  0  0  0  0
    7.1182  -14.7333   21.2875 C   0  0  2  0  0  0  0  0  0  0  0  0
    7.8154  -14.3281   20.0835 N   0  0  0  0  0  0  0  0  0  0  0  0
    7.9320  -14.5099   22.4771 C   0  0  0  0  0  0  0  0  0  0  0  0
    9.1814  -14.5233   22.3710 O   0  0  0  0  0  0  0  0  0  0  0  0
    5.8549  -11.4388   26.4873 C   0  0  0  0  0  0  0  0  0  0  0  0
    6.8558  -12.0508   25.5323 C   0  0  0  0  0  0  0  0  0  0  0  0
    7.2715  -13.4348   25.9704 C   0  0  2  0  0  0  0  0  0  0  0  0
    8.0801  -13.2890   27.2423 C   0  0  0  0  0  0  0  0  0  0  0  0
    8.1118  -14.1413   24.9652 C   0  0  2  0  0  0  0  0  0  0  0  0
    7.3503  -14.2791   23.7453 N   0  0  0  0  0  0  0  0  0  0  0  0
    8.5887  -15.4679   25.4390 C   0  0  0  0  0  0  0  0  0  0  0  0
    7.8171  -16.3807   25.8147 O   0  0  0  0  0  0  0  0  0  0  0  0
   12.7929  -19.2080   23.2182 N   0  0  0  0  0  0  0  0  0  0  0  0
   13.0717  -19.4011   24.6358 C   0  0  0  0  0  0  0  0  0  0  0  0
   13.7572  -20.4158   24.8687 O   0  0  0  0  0  0  0  0  0  0  0  0
   12.5541  -18.4549   25.5958 C   0  0  0  0  0  0  0  0  0  0  0  0
   11.7461  -17.3016   25.1848 C   0  0  0  0  0  0  0  0  0  0  0  0
   10.4470  -17.0497   25.9001 C   0  0  2  0  0  0  0  0  0  0  0  0
    9.9803  -15.7181   25.4696 N   0  0  0  0  0  0  0  0  0  0  0  0
   10.6067  -17.1160   27.3413 C   0  0  0  0  0  0  0  0  0  0  0  0
   10.6282  -16.1753   28.1594 O   0  0  0  0  0  0  0  0  0  0  0  0
   10.7498  -18.4103   27.8919 O   0  0  0  0  0  0  0  0  0  0  0  0
  2  1  1  6
  3  2  1  0
  4  2  1  0
  4  6  1  0
  4  5  1  6
  6 13  1  0
  7  6  2  0
  9 10  1  0
  9  8  1  0
 10 12  1  0
 10 11  1  1
 12 14  1  0
 12 13  1  6
 14 15  2  0
 16 17  1  0
 17 19  1  0
 18 17  2  0
 19 20  1  0
 21 20  1  6
 21 23  1  0
 22 14  1  0
 22 21  1  0
 23 24  2  0
 23 25  1  0
M  END
$$$$
