TIQ.pdb
     RDKit          3D

 25 24  0  0  1  0  0  0  0  0999 V2000
    6.3997  -16.9199   19.5604 C   0  0  0  0  0  0  0  0  0  0  0  0
    7.1236  -16.7332   20.8782 C   0  0  1  0  0  0  0  0  0  0  0  0
    8.1905  -17.6260   20.8927 O   0  0  0  0  0  0  0  0  0  0  0  0
    7.5768  -15.3056   20.9611 C   0  0  2  0  0  0  0  0  0  0  0  0
    8.4188  -15.0166   19.8178 N   0  0  0  0  0  0  0  0  0  0  0  0
    8.2392  -14.9594   22.2137 C   0  0  0  0  0  0  0  0  0  0  0  0
    9.4874  -15.0534   22.2882 O   0  0  0  0  0  0  0  0  0  0  0  0
    6.9586  -11.7189   27.3020 C   0  0  0  0  0  0  0  0  0  0  0  0
    7.8119  -12.7898   26.6590 C   0  0  0  0  0  0  0  0  0  0  0  0
    7.2594  -13.2148   25.3195 C   0  0  2  0  0  0  0  0  0  0  0  0
    5.9075  -13.8519   25.5630 C   0  0  0  0  0  0  0  0  0  0  0  0
    8.1195  -14.2061   24.6172 C   0  0  2  0  0  0  0  0  0  0  0  0
    7.5123  -14.5213   23.3448 N   0  0  0  0  0  0  0  0  0  0  0  0
    8.3449  -15.4427   25.4120 C   0  0  0  0  0  0  0  0  0  0  0  0
    7.4245  -16.2305   25.7319 O   0  0  0  0  0  0  0  0  0  0  0  0
   13.3528  -19.0730   24.8688 N   0  0  0  0  0  0  0  0  0  0  0  0
   12.3032  -18.5206   24.0216 C   0  0  0  0  0  0  0  0  0  0  0  0
   12.4969  -18.7181   22.8062 O   0  0  0  0  0  0  0  0  0  0  0  0
   11.1928  -17.8262   24.6297 C   0  0  0  0  0  0  0  0  0  0  0  0
   11.1002  -17.6402   26.0818 C   0  0  0  0  0  0  0  0  0  0  0  0
    9.8756  -16.9666   26.6379 C   0  0  2  0  0  0  0  0  0  0  0  0
    9.6601  -15.7508   25.8306 N   0  0  0  0  0  0  0  0  0  0  0  0
   10.0310  -16.6485   28.0457 C   0  0  0  0  0  0  0  0  0  0  0  0
   10.1082  -15.5240   28.5787 O   0  0  0  0  0  0  0  0  0  0  0  0
   10.0972  -17.7509   28.9283 O   0  0  0  0  0  0  0  0  0  0  0  0
  2  1  1  6
  3  2  1  0
  4  2  1  0
  4  6  1  0
  4  5  1  6
  6 13  1  0
  7  6  2  0
  9 10  1  0
  9  8  1  0
 10 12  1  0
 10 11  1  1
 12 14  1  0
 12 13  1  6
 14 15  2  0
 16 17  1  0
 17 19  1  0
 18 17  2  0
 19 20  1  0
 21 20  1  6
 21 23  1  0
 22 14  1  0
 22 21  1  0
 23 24  2  0
 23 25  1  0
M  END
$$$$
