TIQ.pdb
     RDKit          3D

 25 24  0  0  1  0  0  0  0  0999 V2000
    6.5877  -16.3837   21.0141 C   0  0  0  0  0  0  0  0  0  0  0  0
    7.4981  -15.4970   20.1893 C   0  0  1  0  0  0  0  0  0  0  0  0
    7.0729  -15.5853   18.8675 O   0  0  0  0  0  0  0  0  0  0  0  0
    7.3967  -14.0998   20.7261 C   0  0  2  0  0  0  0  0  0  0  0  0
    7.9297  -13.1817   19.7399 N   0  0  0  0  0  0  0  0  0  0  0  0
    8.0273  -13.9112   22.0277 C   0  0  0  0  0  0  0  0  0  0  0  0
    9.2593  -13.6834   22.0798 O   0  0  0  0  0  0  0  0  0  0  0  0
    5.5405  -11.2636   25.9759 C   0  0  0  0  0  0  0  0  0  0  0  0
    6.6411  -11.8452   25.1162 C   0  0  0  0  0  0  0  0  0  0  0  0
    6.9345  -13.2810   25.4803 C   0  0  2  0  0  0  0  0  0  0  0  0
    7.5519  -13.2858   26.8630 C   0  0  0  0  0  0  0  0  0  0  0  0
    7.8860  -13.9412   24.5453 C   0  0  2  0  0  0  0  0  0  0  0  0
    7.2874  -13.9783   23.2310 N   0  0  0  0  0  0  0  0  0  0  0  0
    8.2741  -15.3082   24.9840 C   0  0  0  0  0  0  0  0  0  0  0  0
    7.4441  -16.2216   25.1996 O   0  0  0  0  0  0  0  0  0  0  0  0
   13.5273  -17.9293   22.8011 N   0  0  0  0  0  0  0  0  0  0  0  0
   13.0061  -18.9105   23.7445 C   0  0  0  0  0  0  0  0  0  0  0  0
   13.6829  -19.9562   23.7912 O   0  0  0  0  0  0  0  0  0  0  0  0
   11.8133  -18.6054   24.4988 C   0  0  0  0  0  0  0  0  0  0  0  0
   11.2119  -17.2674   24.4847 C   0  0  0  0  0  0  0  0  0  0  0  0
   10.0449  -17.0004   25.3954 C   0  0  2  0  0  0  0  0  0  0  0  0
    9.6459  -15.5983   25.1690 N   0  0  0  0  0  0  0  0  0  0  0  0
   10.3850  -17.2376   26.7865 C   0  0  0  0  0  0  0  0  0  0  0  0
   10.6794  -16.4006   27.6625 O   0  0  0  0  0  0  0  0  0  0  0  0
   10.3758  -18.5874   27.2071 O   0  0  0  0  0  0  0  0  0  0  0  0
  2  1  1  1
  3  2  1  0
  4  2  1  0
  4  6  1  0
  4  5  1  6
  6 13  1  0
  7  6  2  0
  9 10  1  0
  9  8  1  0
 10 12  1  0
 10 11  1  1
 12 14  1  0
 12 13  1  6
 14 15  2  0
 16 17  1  0
 17 19  1  0
 18 17  2  0
 19 20  1  0
 21 20  1  6
 21 23  1  0
 22 14  1  0
 22 21  1  0
 23 24  2  0
 23 25  1  0
M  END
$$$$
