TIQ.pdb
     RDKit          3D

 25 24  0  0  1  0  0  0  0  0999 V2000
    6.1778  -16.8078   20.1733 C   0  0  0  0  0  0  0  0  0  0  0  0
    6.9272  -16.5381   21.4621 C   0  0  1  0  0  0  0  0  0  0  0  0
    8.0322  -17.3833   21.4811 O   0  0  0  0  0  0  0  0  0  0  0  0
    7.3197  -15.0903   21.4770 C   0  0  2  0  0  0  0  0  0  0  0  0
    8.0639  -14.7965   20.2689 N   0  0  0  0  0  0  0  0  0  0  0  0
    8.0533  -14.6810   22.6694 C   0  0  0  0  0  0  0  0  0  0  0  0
    9.3000  -14.5622   22.6060 O   0  0  0  0  0  0  0  0  0  0  0  0
    5.8395  -11.3492   26.3619 C   0  0  0  0  0  0  0  0  0  0  0  0
    6.8994  -12.0386   25.5314 C   0  0  0  0  0  0  0  0  0  0  0  0
    7.2015  -13.4243   26.0500 C   0  0  2  0  0  0  0  0  0  0  0  0
    7.9044  -13.2715   27.3825 C   0  0  0  0  0  0  0  0  0  0  0  0
    8.0862  -14.2095   25.1464 C   0  0  2  0  0  0  0  0  0  0  0  0
    7.3969  -14.4150   23.8935 N   0  0  0  0  0  0  0  0  0  0  0  0
    8.5062  -15.5096   25.7338 C   0  0  0  0  0  0  0  0  0  0  0  0
    7.6947  -16.3827   26.1198 O   0  0  0  0  0  0  0  0  0  0  0  0
   11.8045  -19.6389   23.8273 N   0  0  0  0  0  0  0  0  0  0  0  0
   12.3814  -19.7668   25.1597 C   0  0  0  0  0  0  0  0  0  0  0  0
   12.8814  -20.8883   25.3739 O   0  0  0  0  0  0  0  0  0  0  0  0
   12.3230  -18.6463   26.0685 C   0  0  0  0  0  0  0  0  0  0  0  0
   11.6385  -17.3985   25.7130 C   0  0  0  0  0  0  0  0  0  0  0  0
   10.3019  -17.1142   26.3415 C   0  0  2  0  0  0  0  0  0  0  0  0
    9.8880  -15.7803   25.8663 N   0  0  0  0  0  0  0  0  0  0  0  0
   10.3692  -17.1641   27.7907 C   0  0  0  0  0  0  0  0  0  0  0  0
   10.6564  -16.2444   28.5820 O   0  0  0  0  0  0  0  0  0  0  0  0
   10.0648  -18.4106   28.3844 O   0  0  0  0  0  0  0  0  0  0  0  0
  2  1  1  6
  3  2  1  0
  4  2  1  0
  4  6  1  0
  4  5  1  6
  6 13  1  0
  7  6  2  0
  9 10  1  0
  9  8  1  0
 10 12  1  0
 10 11  1  1
 12 14  1  0
 12 13  1  6
 14 15  2  0
 16 17  1  0
 17 19  1  0
 18 17  2  0
 19 20  1  0
 21 20  1  6
 21 23  1  0
 22 14  1  0
 22 21  1  0
 23 24  2  0
 23 25  1  0
M  END
$$$$
