TIQ.pdb
     RDKit          3D

 25 24  0  0  1  0  0  0  0  0999 V2000
    7.1359  -17.6837   22.8074 C   0  0  0  0  0  0  0  0  0  0  0  0
    7.8833  -16.9546   21.7095 C   0  0  1  0  0  0  0  0  0  0  0  0
    7.3379  -17.3647   20.4970 O   0  0  0  0  0  0  0  0  0  0  0  0
    7.7199  -15.4807   21.9360 C   0  0  2  0  0  0  0  0  0  0  0  0
    8.1300  -14.7767   20.7376 N   0  0  0  0  0  0  0  0  0  0  0  0
    8.4129  -14.9757   23.1159 C   0  0  0  0  0  0  0  0  0  0  0  0
    9.6502  -14.7806   23.0581 O   0  0  0  0  0  0  0  0  0  0  0  0
    5.7232  -11.6673   26.4187 C   0  0  0  0  0  0  0  0  0  0  0  0
    6.8255  -12.3311   25.6233 C   0  0  0  0  0  0  0  0  0  0  0  0
    7.4135  -13.5106   26.3604 C   0  0  2  0  0  0  0  0  0  0  0  0
    8.1444  -12.9745   27.5734 C   0  0  0  0  0  0  0  0  0  0  0  0
    8.3822  -14.2906   25.5426 C   0  0  2  0  0  0  0  0  0  0  0  0
    7.7274  -14.7007   24.3219 N   0  0  0  0  0  0  0  0  0  0  0  0
    8.9325  -15.4687   26.2643 C   0  0  0  0  0  0  0  0  0  0  0  0
    8.2128  -16.3479   26.7926 O   0  0  0  0  0  0  0  0  0  0  0  0
   14.0509  -15.5519   24.7224 N   0  0  0  0  0  0  0  0  0  0  0  0
   13.1053  -16.4674   24.0960 C   0  0  0  0  0  0  0  0  0  0  0  0
   13.1589  -16.4542   22.8507 O   0  0  0  0  0  0  0  0  0  0  0  0
   12.2326  -17.2635   24.9263 C   0  0  0  0  0  0  0  0  0  0  0  0
   12.1985  -17.1059   26.3844 C   0  0  0  0  0  0  0  0  0  0  0  0
   10.8779  -16.8045   27.0385 C   0  0  2  0  0  0  0  0  0  0  0  0
   10.3362  -15.6099   26.3632 N   0  0  0  0  0  0  0  0  0  0  0  0
   11.0240  -16.5868   28.4662 C   0  0  0  0  0  0  0  0  0  0  0  0
   10.8310  -15.5369   29.1105 O   0  0  0  0  0  0  0  0  0  0  0  0
   11.4302  -17.7069   29.2273 O   0  0  0  0  0  0  0  0  0  0  0  0
  2  1  1  1
  3  2  1  0
  4  2  1  0
  4  6  1  0
  4  5  1  6
  6 13  1  0
  7  6  2  0
  9 10  1  0
  9  8  1  0
 10 12  1  0
 10 11  1  1
 12 14  1  0
 12 13  1  6
 14 15  2  0
 16 17  1  0
 17 19  1  0
 18 17  2  0
 19 20  1  0
 21 20  1  6
 21 23  1  0
 22 14  1  0
 22 21  1  0
 23 24  2  0
 23 25  1  0
M  END
$$$$
