TIQ.pdb
     RDKit          3D

 25 24  0  0  1  0  0  0  0  0999 V2000
    6.1263  -16.6075   19.9780 C   0  0  0  0  0  0  0  0  0  0  0  0
    6.9306  -16.4232   21.2487 C   0  0  1  0  0  0  0  0  0  0  0  0
    8.0914  -17.1785   21.1151 O   0  0  0  0  0  0  0  0  0  0  0  0
    7.2206  -14.9599   21.4067 C   0  0  2  0  0  0  0  0  0  0  0  0
    7.8625  -14.4788   20.2000 N   0  0  0  0  0  0  0  0  0  0  0  0
    7.9994  -14.6286   22.5947 C   0  0  0  0  0  0  0  0  0  0  0  0
    9.2384  -14.4694   22.4852 O   0  0  0  0  0  0  0  0  0  0  0  0
    5.7655  -11.4580   26.3547 C   0  0  0  0  0  0  0  0  0  0  0  0
    6.7574  -12.1353   25.4350 C   0  0  0  0  0  0  0  0  0  0  0  0
    7.2406  -13.4479   26.0041 C   0  0  2  0  0  0  0  0  0  0  0  0
    8.0240  -13.1406   27.2629 C   0  0  0  0  0  0  0  0  0  0  0  0
    8.1300  -14.1984   25.0760 C   0  0  2  0  0  0  0  0  0  0  0  0
    7.3953  -14.4825   23.8650 N   0  0  0  0  0  0  0  0  0  0  0  0
    8.6635  -15.4519   25.6725 C   0  0  0  0  0  0  0  0  0  0  0  0
    7.9315  -16.3719   26.1056 O   0  0  0  0  0  0  0  0  0  0  0  0
   14.2946  -15.7928   24.5090 N   0  0  0  0  0  0  0  0  0  0  0  0
   13.2690  -16.4127   23.6794 C   0  0  0  0  0  0  0  0  0  0  0  0
   13.5025  -16.3220   22.4583 O   0  0  0  0  0  0  0  0  0  0  0  0
   12.1309  -17.0398   24.3088 C   0  0  0  0  0  0  0  0  0  0  0  0
   11.9698  -17.0620   25.7667 C   0  0  0  0  0  0  0  0  0  0  0  0
   10.5898  -16.8728   26.3348 C   0  0  2  0  0  0  0  0  0  0  0  0
   10.0651  -15.6203   25.7584 N   0  0  0  0  0  0  0  0  0  0  0  0
   10.6093  -16.8225   27.7853 C   0  0  0  0  0  0  0  0  0  0  0  0
   10.3512  -15.8544   28.5275 O   0  0  0  0  0  0  0  0  0  0  0  0
   10.9583  -18.0237   28.4442 O   0  0  0  0  0  0  0  0  0  0  0  0
  2  1  1  6
  3  2  1  0
  4  2  1  0
  4  6  1  0
  4  5  1  6
  6 13  1  0
  7  6  2  0
  9 10  1  0
  9  8  1  0
 10 12  1  0
 10 11  1  1
 12 14  1  0
 12 13  1  6
 14 15  2  0
 16 17  1  0
 17 19  1  0
 18 17  2  0
 19 20  1  0
 21 20  1  6
 21 23  1  0
 22 14  1  0
 22 21  1  0
 23 24  2  0
 23 25  1  0
M  END
$$$$
