VAL.pdb
     RDKit          3D

 21 20  0  0  1  0  0  0  0  0999 V2000
    6.0404  -20.5617   24.9704 C   0  0  0  0  0  0  0  0  0  0  0  0
    7.0032  -19.3931   24.7425 C   0  0  2  0  0  0  0  0  0  0  0  0
    6.2580  -18.1275   25.1062 C   0  0  0  0  0  0  0  0  0  0  0  0
    7.3916  -19.4261   23.2915 C   0  0  2  0  0  0  0  0  0  0  0  0
    7.8749  -20.7606   22.9893 N   0  0  0  0  0  0  0  0  0  0  0  0
    8.4806  -18.4574   23.0034 C   0  0  0  0  0  0  0  0  0  0  0  0
    9.6552  -18.7146   23.3770 O   0  0  0  0  0  0  0  0  0  0  0  0
    8.9757  -15.5860   20.7633 C   0  0  0  0  0  0  0  0  0  0  0  0
    9.2279  -16.2371   22.0868 C   0  0  2  0  0  0  0  0  0  0  0  0
    8.2263  -17.2350   22.3092 N   0  0  0  0  0  0  0  0  0  0  0  0
    9.1441  -15.2054   23.1806 C   0  0  0  0  0  0  0  0  0  0  0  0
    8.9015  -13.9937   22.8762 O   0  0  0  0  0  0  0  0  0  0  0  0
    7.9009  -11.7447   26.6906 C   0  0  0  0  0  0  0  0  0  0  0  0
    7.2884  -13.1182   26.6207 C   0  0  1  0  0  0  0  0  0  0  0  0
    5.7821  -12.8629   26.4024 C   0  0  0  0  0  0  0  0  0  0  0  0
    7.7249  -13.9874   25.5169 C   0  0  0  0  0  0  0  0  0  0  0  0
    9.0654  -14.6106   25.5708 C   0  0  2  0  0  0  0  0  0  0  0  0
    9.3304  -15.5596   24.5403 N   0  0  0  0  0  0  0  0  0  0  0  0
    9.3082  -15.2343   26.8847 C   0  0  0  0  0  0  0  0  0  0  0  0
   10.0065  -14.5090   27.8374 O   0  0  0  0  0  0  0  0  0  0  0  0
    8.9243  -16.3938   27.2096 O   0  0  0  0  0  0  0  0  0  0  0  0
  2  1  1  6
  2  4  1  0
  3  2  1  0
  4  5  1  1
  6  4  1  0
  6 10  1  0
  7  6  2  0
  9 10  1  0
  9  8  1  6
  9 11  1  0
 11 18  1  0
 12 11  2  0
 14 15  1  6
 14 13  1  0
 16 14  1  0
 17 16  1  1
 18 17  1  0
 19 20  1  0
 19 17  1  0
 21 19  2  0
M  END
$$$$
