VAL.pdb
     RDKit          3D

 21 20  0  0  1  0  0  0  0  0999 V2000
    8.2966  -12.6629   18.0754 C   0  0  0  0  0  0  0  0  0  0  0  0
    7.9002  -13.3307   19.3949 C   0  0  2  0  0  0  0  0  0  0  0  0
    8.5136  -12.5106   20.5087 C   0  0  0  0  0  0  0  0  0  0  0  0
    8.4445  -14.7306   19.3547 C   0  0  2  0  0  0  0  0  0  0  0  0
    7.8374  -15.4130   18.2271 N   0  0  0  0  0  0  0  0  0  0  0  0
    8.1028  -15.4770   20.5930 C   0  0  0  0  0  0  0  0  0  0  0  0
    6.9226  -15.8788   20.7700 O   0  0  0  0  0  0  0  0  0  0  0  0
    9.6962  -17.7512   22.7328 C   0  0  0  0  0  0  0  0  0  0  0  0
    8.8192  -16.5389   22.7580 C   0  0  2  0  0  0  0  0  0  0  0  0
    9.0855  -15.7516   21.5929 N   0  0  0  0  0  0  0  0  0  0  0  0
    9.1257  -15.7201   23.9842 C   0  0  0  0  0  0  0  0  0  0  0  0
   10.2041  -15.0457   24.0289 O   0  0  0  0  0  0  0  0  0  0  0  0
    5.7120  -12.2789   26.5924 C   0  0  0  0  0  0  0  0  0  0  0  0
    6.9221  -12.9798   26.0346 C   0  0  1  0  0  0  0  0  0  0  0  0
    8.0340  -11.9096   26.0496 C   0  0  0  0  0  0  0  0  0  0  0  0
    7.4401  -14.1253   26.7985 C   0  0  0  0  0  0  0  0  0  0  0  0
    8.5578  -14.9208   26.2451 C   0  0  2  0  0  0  0  0  0  0  0  0
    8.2360  -15.6876   25.0870 N   0  0  0  0  0  0  0  0  0  0  0  0
    9.1391  -15.8052   27.2718 C   0  0  0  0  0  0  0  0  0  0  0  0
    9.1188  -17.1730   27.0486 O   0  0  0  0  0  0  0  0  0  0  0  0
    9.6583  -15.4047   28.3522 O   0  0  0  0  0  0  0  0  0  0  0  0
  2  1  1  6
  2  4  1  0
  3  2  1  0
  4  5  1  6
  6  4  1  0
  6 10  1  0
  7  6  2  0
  9 10  1  0
  9  8  1  6
  9 11  1  0
 11 18  1  0
 12 11  2  0
 14 15  1  1
 14 13  1  0
 16 14  1  0
 17 16  1  1
 18 17  1  0
 19 20  1  0
 19 17  1  0
 21 19  2  0
M  END
$$$$
