VAL.pdb
     RDKit          3D

 21 20  0  0  1  0  0  0  0  0999 V2000
    7.2401  -13.0238   20.2058 C   0  0  0  0  0  0  0  0  0  0  0  0
    8.5215  -13.2416   19.3966 C   0  0  2  0  0  0  0  0  0  0  0  0
    8.3774  -12.4482   18.1163 C   0  0  0  0  0  0  0  0  0  0  0  0
    8.6284  -14.7182   19.1403 C   0  0  2  0  0  0  0  0  0  0  0  0
    7.5998  -15.0804   18.1830 N   0  0  0  0  0  0  0  0  0  0  0  0
    8.4053  -15.4983   20.3849 C   0  0  0  0  0  0  0  0  0  0  0  0
    7.2373  -15.6222   20.8389 O   0  0  0  0  0  0  0  0  0  0  0  0
   10.4502  -17.7634   22.5066 C   0  0  0  0  0  0  0  0  0  0  0  0
    9.3335  -16.7814   22.3394 C   0  0  2  0  0  0  0  0  0  0  0  0
    9.4889  -16.1146   21.0826 N   0  0  0  0  0  0  0  0  0  0  0  0
    9.3888  -15.7616   23.4462 C   0  0  0  0  0  0  0  0  0  0  0  0
    9.8187  -14.5908   23.1931 O   0  0  0  0  0  0  0  0  0  0  0  0
    7.1632  -11.5618   25.6530 C   0  0  0  0  0  0  0  0  0  0  0  0
    7.5054  -12.9011   26.2496 C   0  0  1  0  0  0  0  0  0  0  0  0
    6.2251  -13.3348   26.9943 C   0  0  0  0  0  0  0  0  0  0  0  0
    7.8255  -13.9871   25.3102 C   0  0  0  0  0  0  0  0  0  0  0  0
    8.7704  -15.0480   25.7225 C   0  0  2  0  0  0  0  0  0  0  0  0
    8.9711  -16.0825   24.7621 N   0  0  0  0  0  0  0  0  0  0  0  0
    8.3686  -15.6459   27.0091 C   0  0  0  0  0  0  0  0  0  0  0  0
    9.1086  -15.3331   28.1386 O   0  0  0  0  0  0  0  0  0  0  0  0
    7.3903  -16.4318   27.1598 O   0  0  0  0  0  0  0  0  0  0  0  0
  2  1  1  1
  2  4  1  0
  3  2  1  0
  4  5  1  6
  6  4  1  0
  6 10  1  0
  7  6  2  0
  9 10  1  0
  9  8  1  1
  9 11  1  0
 11 18  1  0
 12 11  2  0
 14 15  1  6
 14 13  1  0
 16 14  1  0
 17 16  1  6
 18 17  1  0
 19 20  1  0
 19 17  1  0
 21 19  2  0
M  END
$$$$
