VAL.pdb
     RDKit          3D

 21 20  0  0  1  0  0  0  0  0999 V2000
    8.2458  -12.8675   17.7058 C   0  0  0  0  0  0  0  0  0  0  0  0
    7.8672  -13.5129   19.0416 C   0  0  2  0  0  0  0  0  0  0  0  0
    8.5471  -12.7110   20.1298 C   0  0  0  0  0  0  0  0  0  0  0  0
    8.3564  -14.9327   18.9929 C   0  0  2  0  0  0  0  0  0  0  0  0
    7.6277  -15.6197   17.9428 N   0  0  0  0  0  0  0  0  0  0  0  0
    8.1004  -15.6349   20.2770 C   0  0  0  0  0  0  0  0  0  0  0  0
    6.9144  -15.8191   20.6580 O   0  0  0  0  0  0  0  0  0  0  0  0
   10.0163  -17.7763   22.5694 C   0  0  0  0  0  0  0  0  0  0  0  0
    8.9718  -16.7233   22.3708 C   0  0  2  0  0  0  0  0  0  0  0  0
    9.1722  -16.1086   21.0940 N   0  0  0  0  0  0  0  0  0  0  0  0
    9.1005  -15.6761   23.4453 C   0  0  0  0  0  0  0  0  0  0  0  0
   10.0592  -14.8410   23.3891 O   0  0  0  0  0  0  0  0  0  0  0  0
    7.9972  -11.6227   26.7091 C   0  0  0  0  0  0  0  0  0  0  0  0
    7.0930  -12.8161   26.8667 C   0  0  1  0  0  0  0  0  0  0  0  0
    5.6691  -12.2227   26.9154 C   0  0  0  0  0  0  0  0  0  0  0  0
    7.0934  -13.8016   25.7745 C   0  0  0  0  0  0  0  0  0  0  0  0
    8.3126  -14.5987   25.5169 C   0  0  2  0  0  0  0  0  0  0  0  0
    8.1745  -15.6046   24.5160 N   0  0  0  0  0  0  0  0  0  0  0  0
    8.8187  -15.2108   26.7593 C   0  0  0  0  0  0  0  0  0  0  0  0
    8.1459  -16.3087   27.2723 O   0  0  0  0  0  0  0  0  0  0  0  0
    9.8299  -14.8035   27.3987 O   0  0  0  0  0  0  0  0  0  0  0  0
  2  1  1  6
  2  4  1  0
  3  2  1  0
  4  5  1  6
  6  4  1  0
  6 10  1  0
  7  6  2  0
  9 10  1  0
  9  8  1  1
  9 11  1  0
 11 18  1  0
 12 11  2  0
 14 15  1  6
 14 13  1  0
 16 14  1  0
 17 16  1  1
 18 17  1  0
 19 20  1  0
 19 17  1  0
 21 19  2  0
M  END
$$$$
