VAL.pdb
     RDKit          3D

 21 20  0  0  1  0  0  0  0  0999 V2000
    9.3914  -12.6329   19.8618 C   0  0  0  0  0  0  0  0  0  0  0  0
    8.4800  -13.1965   18.7682 C   0  0  2  0  0  0  0  0  0  0  0  0
    7.0563  -12.8789   19.1703 C   0  0  0  0  0  0  0  0  0  0  0  0
    8.7362  -14.6757   18.7080 C   0  0  2  0  0  0  0  0  0  0  0  0
    7.9907  -15.2122   17.5845 N   0  0  0  0  0  0  0  0  0  0  0  0
    8.2709  -15.3538   19.9453 C   0  0  0  0  0  0  0  0  0  0  0  0
    7.0360  -15.4638   20.1660 O   0  0  0  0  0  0  0  0  0  0  0  0
    9.6566  -17.7770   22.2683 C   0  0  0  0  0  0  0  0  0  0  0  0
    8.7883  -16.5722   22.0844 C   0  0  2  0  0  0  0  0  0  0  0  0
    9.1947  -15.8867   20.8957 N   0  0  0  0  0  0  0  0  0  0  0  0
    8.9503  -15.6490   23.2631 C   0  0  0  0  0  0  0  0  0  0  0  0
    9.9291  -14.8359   23.2872 O   0  0  0  0  0  0  0  0  0  0  0  0
    7.9311  -11.6367   26.4281 C   0  0  0  0  0  0  0  0  0  0  0  0
    7.0901  -12.8510   26.7196 C   0  0  1  0  0  0  0  0  0  0  0  0
    5.6582  -12.3014   26.8919 C   0  0  0  0  0  0  0  0  0  0  0  0
    7.0154  -13.8780   25.6689 C   0  0  0  0  0  0  0  0  0  0  0  0
    8.1819  -14.7548   25.4272 C   0  0  2  0  0  0  0  0  0  0  0  0
    8.0336  -15.6699   24.3440 N   0  0  0  0  0  0  0  0  0  0  0  0
    8.5503  -15.4963   26.6474 C   0  0  0  0  0  0  0  0  0  0  0  0
    9.5444  -14.9730   27.4593 O   0  0  0  0  0  0  0  0  0  0  0  0
    8.0227  -16.5857   27.0108 O   0  0  0  0  0  0  0  0  0  0  0  0
  2  1  1  1
  2  4  1  0
  3  2  1  0
  4  5  1  6
  6  4  1  0
  6 10  1  0
  7  6  2  0
  9 10  1  0
  9  8  1  1
  9 11  1  0
 11 18  1  0
 12 11  2  0
 14 15  1  6
 14 13  1  0
 16 14  1  0
 17 16  1  1
 18 17  1  0
 19 20  1  0
 19 17  1  0
 21 19  2  0
M  END
$$$$
