VAL.pdb
     RDKit          3D

 21 20  0  0  1  0  0  0  0  0999 V2000
    8.1265  -12.5800   18.3042 C   0  0  0  0  0  0  0  0  0  0  0  0
    7.7374  -13.2855   19.6062 C   0  0  2  0  0  0  0  0  0  0  0  0
    8.3585  -12.4985   20.7395 C   0  0  0  0  0  0  0  0  0  0  0  0
    8.2799  -14.6841   19.5222 C   0  0  2  0  0  0  0  0  0  0  0  0
    7.6369  -15.3453   18.4018 N   0  0  0  0  0  0  0  0  0  0  0  0
    7.9778  -15.4540   20.7564 C   0  0  0  0  0  0  0  0  0  0  0  0
    6.7874  -15.7759   21.0115 O   0  0  0  0  0  0  0  0  0  0  0  0
    9.5743  -17.8348   22.8372 C   0  0  0  0  0  0  0  0  0  0  0  0
    8.7613  -16.5788   22.8656 C   0  0  2  0  0  0  0  0  0  0  0  0
    9.0100  -15.8400   21.6654 N   0  0  0  0  0  0  0  0  0  0  0  0
    9.1671  -15.7420   24.0501 C   0  0  0  0  0  0  0  0  0  0  0  0
   10.2655  -15.1003   24.0119 O   0  0  0  0  0  0  0  0  0  0  0  0
    5.7201  -12.4082   26.7791 C   0  0  0  0  0  0  0  0  0  0  0  0
    6.9275  -13.0425   26.1414 C   0  0  1  0  0  0  0  0  0  0  0  0
    7.9227  -11.8790   25.9477 C   0  0  0  0  0  0  0  0  0  0  0  0
    7.6353  -14.0661   26.9259 C   0  0  0  0  0  0  0  0  0  0  0  0
    8.7365  -14.8286   26.2980 C   0  0  2  0  0  0  0  0  0  0  0  0
    8.3487  -15.6568   25.2042 N   0  0  0  0  0  0  0  0  0  0  0  0
    9.4558  -15.6413   27.2963 C   0  0  0  0  0  0  0  0  0  0  0  0
    9.4311  -17.0206   27.1617 O   0  0  0  0  0  0  0  0  0  0  0  0
   10.0984  -15.1688   28.2767 O   0  0  0  0  0  0  0  0  0  0  0  0
  2  1  1  6
  2  4  1  0
  3  2  1  0
  4  5  1  6
  6  4  1  0
  6 10  1  0
  7  6  2  0
  9 10  1  0
  9  8  1  6
  9 11  1  0
 11 18  1  0
 12 11  2  0
 14 15  1  1
 14 13  1  0
 16 14  1  0
 17 16  1  1
 18 17  1  0
 19 20  1  0
 19 17  1  0
 21 19  2  0
M  END
$$$$
