VAL.pdb
     RDKit          3D

 21 20  0  0  1  0  0  0  0  0999 V2000
    8.1857  -12.6145   18.2266 C   0  0  0  0  0  0  0  0  0  0  0  0
    7.8097  -13.3741   19.5017 C   0  0  2  0  0  0  0  0  0  0  0  0
    8.3346  -12.5675   20.6693 C   0  0  0  0  0  0  0  0  0  0  0  0
    8.4576  -14.7266   19.4093 C   0  0  2  0  0  0  0  0  0  0  0  0
    7.9645  -15.3763   18.2091 N   0  0  0  0  0  0  0  0  0  0  0  0
    8.1056  -15.5734   20.5783 C   0  0  0  0  0  0  0  0  0  0  0  0
    6.9688  -16.1121   20.6348 O   0  0  0  0  0  0  0  0  0  0  0  0
    9.5059  -17.8457   22.7534 C   0  0  0  0  0  0  0  0  0  0  0  0
    8.7192  -16.5736   22.8033 C   0  0  2  0  0  0  0  0  0  0  0  0
    9.0300  -15.7924   21.6452 N   0  0  0  0  0  0  0  0  0  0  0  0
    9.0966  -15.7953   24.0361 C   0  0  0  0  0  0  0  0  0  0  0  0
   10.2358  -15.2307   24.0915 O   0  0  0  0  0  0  0  0  0  0  0  0
    5.7948  -12.2444   26.4195 C   0  0  0  0  0  0  0  0  0  0  0  0
    6.9987  -12.9972   25.9190 C   0  0  1  0  0  0  0  0  0  0  0  0
    8.0880  -11.9180   25.7434 C   0  0  0  0  0  0  0  0  0  0  0  0
    7.5670  -14.0169   26.8142 C   0  0  0  0  0  0  0  0  0  0  0  0
    8.5917  -14.9486   26.2947 C   0  0  2  0  0  0  0  0  0  0  0  0
    8.2069  -15.6809   25.1335 N   0  0  0  0  0  0  0  0  0  0  0  0
    9.0341  -15.8883   27.3415 C   0  0  0  0  0  0  0  0  0  0  0  0
    8.8947  -17.2471   27.1063 O   0  0  0  0  0  0  0  0  0  0  0  0
    9.5345  -15.5430   28.4495 O   0  0  0  0  0  0  0  0  0  0  0  0
  2  1  1  6
  2  4  1  0
  3  2  1  0
  4  5  1  6
  6  4  1  0
  6 10  1  0
  7  6  2  0
  9 10  1  0
  9  8  1  6
  9 11  1  0
 11 18  1  0
 12 11  2  0
 14 15  1  1
 14 13  1  0
 16 14  1  0
 17 16  1  1
 18 17  1  0
 19 20  1  0
 19 17  1  0
 21 19  2  0
M  END
$$$$
