VAL.pdb
     RDKit          3D

 21 20  0  0  1  0  0  0  0  0999 V2000
    6.7446  -20.8329   24.5216 C   0  0  0  0  0  0  0  0  0  0  0  0
    7.2664  -19.4043   24.3452 C   0  0  2  0  0  0  0  0  0  0  0  0
    6.4984  -18.5294   25.3116 C   0  0  0  0  0  0  0  0  0  0  0  0
    7.0165  -19.0236   22.9133 C   0  0  2  0  0  0  0  0  0  0  0  0
    7.5270  -20.0906   22.0726 N   0  0  0  0  0  0  0  0  0  0  0  0
    7.7261  -17.7676   22.5583 C   0  0  0  0  0  0  0  0  0  0  0  0
    8.9842  -17.7594   22.5037 O   0  0  0  0  0  0  0  0  0  0  0  0
    6.6600  -14.3937   21.3583 C   0  0  0  0  0  0  0  0  0  0  0  0
    7.6585  -15.3211   21.9766 C   0  0  2  0  0  0  0  0  0  0  0  0
    7.0125  -16.5627   22.2759 N   0  0  0  0  0  0  0  0  0  0  0  0
    8.1818  -14.7196   23.2542 C   0  0  0  0  0  0  0  0  0  0  0  0
    8.6196  -13.5246   23.2461 O   0  0  0  0  0  0  0  0  0  0  0  0
    6.1539  -11.8854   26.4137 C   0  0  0  0  0  0  0  0  0  0  0  0
    7.2849  -12.6540   25.7839 C   0  0  1  0  0  0  0  0  0  0  0  0
    8.5412  -11.8048   26.0713 C   0  0  0  0  0  0  0  0  0  0  0  0
    7.5603  -13.9953   26.3218 C   0  0  0  0  0  0  0  0  0  0  0  0
    8.5953  -14.8357   25.6808 C   0  0  2  0  0  0  0  0  0  0  0  0
    8.1954  -15.4597   24.4629 N   0  0  0  0  0  0  0  0  0  0  0  0
    9.0991  -15.8607   26.6135 C   0  0  0  0  0  0  0  0  0  0  0  0
    9.6956  -15.4403   27.7919 O   0  0  0  0  0  0  0  0  0  0  0  0
    9.0282  -17.1069   26.4154 O   0  0  0  0  0  0  0  0  0  0  0  0
  2  1  1  6
  2  4  1  0
  3  2  1  0
  4  5  1  6
  6  4  1  0
  6 10  1  0
  7  6  2  0
  9 10  1  0
  9  8  1  1
  9 11  1  0
 11 18  1  0
 12 11  2  0
 14 15  1  1
 14 13  1  0
 16 14  1  0
 17 16  1  1
 18 17  1  0
 19 20  1  0
 19 17  1  0
 21 19  2  0
M  END
$$$$
