VAL.pdb
     RDKit          3D

 21 20  0  0  1  0  0  0  0  0999 V2000
    7.9530  -12.8854   18.4826 C   0  0  0  0  0  0  0  0  0  0  0  0
    7.8742  -13.4060   19.9203 C   0  0  2  0  0  0  0  0  0  0  0  0
    8.9069  -12.6464   20.7240 C   0  0  0  0  0  0  0  0  0  0  0  0
    8.1677  -14.8786   19.8664 C   0  0  2  0  0  0  0  0  0  0  0  0
    7.1929  -15.4957   18.9862 N   0  0  0  0  0  0  0  0  0  0  0  0
    8.0461  -15.5015   21.2097 C   0  0  0  0  0  0  0  0  0  0  0  0
    6.9071  -15.6430   21.7276 O   0  0  0  0  0  0  0  0  0  0  0  0
   10.1313  -17.7456   23.1798 C   0  0  0  0  0  0  0  0  0  0  0  0
    9.1162  -16.6461   23.1777 C   0  0  2  0  0  0  0  0  0  0  0  0
    9.1957  -15.9462   21.9319 N   0  0  0  0  0  0  0  0  0  0  0  0
    9.4106  -15.6858   24.2998 C   0  0  0  0  0  0  0  0  0  0  0  0
   10.3845  -14.8745   24.1856 O   0  0  0  0  0  0  0  0  0  0  0  0
    5.7460  -12.4825   26.7193 C   0  0  0  0  0  0  0  0  0  0  0  0
    7.0054  -13.0957   26.1675 C   0  0  1  0  0  0  0  0  0  0  0  0
    7.9402  -11.8962   25.9041 C   0  0  0  0  0  0  0  0  0  0  0  0
    7.7446  -14.0098   27.0519 C   0  0  0  0  0  0  0  0  0  0  0  0
    8.9149  -14.7434   26.5223 C   0  0  2  0  0  0  0  0  0  0  0  0
    8.6234  -15.6697   25.4784 N   0  0  0  0  0  0  0  0  0  0  0  0
    9.6403  -15.4364   27.6030 C   0  0  0  0  0  0  0  0  0  0  0  0
    9.7345  -16.8182   27.5503 O   0  0  0  0  0  0  0  0  0  0  0  0
   10.1869  -14.8580   28.5848 O   0  0  0  0  0  0  0  0  0  0  0  0
  2  1  1  6
  2  4  1  0
  3  2  1  0
  4  5  1  6
  6  4  1  0
  6 10  1  0
  7  6  2  0
  9 10  1  0
  9  8  1  6
  9 11  1  0
 11 18  1  0
 12 11  2  0
 14 15  1  1
 14 13  1  0
 16 14  1  0
 17 16  1  1
 18 17  1  0
 19 20  1  0
 19 17  1  0
 21 19  2  0
M  END
$$$$
