VAL.pdb
     RDKit          3D

 21 20  0  0  1  0  0  0  0  0999 V2000
    6.3801  -20.9433   25.9374 C   0  0  0  0  0  0  0  0  0  0  0  0
    6.9582  -19.7210   25.2190 C   0  0  2  0  0  0  0  0  0  0  0  0
    6.6007  -18.5081   26.0500 C   0  0  0  0  0  0  0  0  0  0  0  0
    6.3290  -19.6802   23.8552 C   0  0  2  0  0  0  0  0  0  0  0  0
    6.5628  -20.9626   23.2175 N   0  0  0  0  0  0  0  0  0  0  0  0
    6.9391  -18.6199   23.0120 C   0  0  0  0  0  0  0  0  0  0  0  0
    8.1623  -18.6860   22.7203 O   0  0  0  0  0  0  0  0  0  0  0  0
    5.6743  -15.9490   20.8033 C   0  0  0  0  0  0  0  0  0  0  0  0
    6.7247  -16.4616   21.7378 C   0  0  2  0  0  0  0  0  0  0  0  0
    6.1682  -17.5217   22.5218 N   0  0  0  0  0  0  0  0  0  0  0  0
    7.1679  -15.3529   22.6555 C   0  0  0  0  0  0  0  0  0  0  0  0
    6.6318  -14.2037   22.5475 O   0  0  0  0  0  0  0  0  0  0  0  0
    6.8458  -11.5848   26.1943 C   0  0  0  0  0  0  0  0  0  0  0  0
    7.7658  -12.7766   26.1917 C   0  0  1  0  0  0  0  0  0  0  0  0
    7.6129  -13.3904   27.5994 C   0  0  0  0  0  0  0  0  0  0  0  0
    7.4603  -13.8524   25.2359 C   0  0  0  0  0  0  0  0  0  0  0  0
    8.5654  -14.5036   24.4990 C   0  0  2  0  0  0  0  0  0  0  0  0
    8.1695  -15.5666   23.6353 N   0  0  0  0  0  0  0  0  0  0  0  0
    9.6076  -14.9866   25.4236 C   0  0  0  0  0  0  0  0  0  0  0  0
   10.7742  -14.2476   25.5425 O   0  0  0  0  0  0  0  0  0  0  0  0
    9.5160  -16.0361   26.1217 O   0  0  0  0  0  0  0  0  0  0  0  0
  2  1  1  1
  2  4  1  0
  3  2  1  0
  4  5  1  6
  6  4  1  0
  6 10  1  0
  7  6  2  0
  9 10  1  0
  9  8  1  6
  9 11  1  0
 11 18  1  0
 12 11  2  0
 14 15  1  1
 14 13  1  0
 16 14  1  0
 17 16  1  1
 18 17  1  0
 19 20  1  0
 19 17  1  0
 21 19  2  0
M  END
$$$$
