WTW.pdb
     RDKit          3D

 36 39  0  0  1  0  0  0  0  0999 V2000
   26.1623  -19.7008  -19.7558 N   0  0  0  0  0  0  0  0  0  0  0  0
   25.9358  -19.0066  -18.5222 C   0  0  1  0  0  0  0  0  0  0  0  0
   24.6341  -18.2799  -18.4106 C   0  0  0  0  0  0  0  0  0  0  0  0
   24.3778  -17.2803  -19.4673 C   0  0  0  0  0  0  0  0  0  0  0  0
   23.2921  -17.2974  -20.3670 C   0  0  0  0  0  0  0  0  0  0  0  0
   23.3848  -16.2394  -21.1791 N   0  0  0  0  0  0  0  0  0  0  0  0
   24.4887  -15.5303  -20.8452 C   0  0  0  0  0  0  0  0  0  0  0  0
   25.0352  -14.3622  -21.3831 C   0  0  0  0  0  0  0  0  0  0  0  0
   26.1936  -13.8156  -20.8870 C   0  0  0  0  0  0  0  0  0  0  0  0
   26.8118  -14.4528  -19.8347 C   0  0  0  0  0  0  0  0  0  0  0  0
   26.2758  -15.6090  -19.2975 C   0  0  0  0  0  0  0  0  0  0  0  0
   25.1003  -16.1639  -19.7975 C   0  0  0  0  0  0  0  0  0  0  0  0
   26.1094  -19.9516  -17.3590 C   0  0  0  0  0  0  0  0  0  0  0  0
   25.8622  -21.1887  -17.4509 O   0  0  0  0  0  0  0  0  0  0  0  0
   29.2832  -20.6129  -15.4439 C   0  0  0  0  0  0  0  0  0  0  0  0
   28.2519  -20.2275  -14.4451 C   0  0  1  0  0  0  0  0  0  0  0  0
   28.5147  -18.9800  -13.8944 O   0  0  0  0  0  0  0  0  0  0  0  0
   26.8342  -20.2402  -14.9212 C   0  0  2  0  0  0  0  0  0  0  0  0
   26.5638  -19.4918  -16.1055 N   0  0  0  0  0  0  0  0  0  0  0  0
   25.8273  -20.0571  -13.8340 C   0  0  0  0  0  0  0  0  0  0  0  0
   24.9600  -19.1584  -13.9362 O   0  0  0  0  0  0  0  0  0  0  0  0
   25.7922  -20.8451  -12.6638 N   0  0  0  0  0  0  0  0  0  0  0  0
   24.8507  -20.5400  -11.5904 C   0  0  1  0  0  0  0  0  0  0  0  0
   23.5755  -21.2576  -11.6341 C   0  0  0  0  0  0  0  0  0  0  0  0
   22.5787  -20.8907  -10.5913 C   0  0  0  0  0  0  0  0  0  0  0  0
   22.6551  -21.3863   -9.2758 C   0  0  0  0  0  0  0  0  0  0  0  0
   21.6253  -20.8663   -8.6042 N   0  0  0  0  0  0  0  0  0  0  0  0
   20.8771  -20.0665   -9.3787 C   0  0  0  0  0  0  0  0  0  0  0  0
   19.7329  -19.3078   -9.1682 C   0  0  0  0  0  0  0  0  0  0  0  0
   19.2302  -18.5847  -10.2283 C   0  0  0  0  0  0  0  0  0  0  0  0
   19.8094  -18.5836  -11.4837 C   0  0  0  0  0  0  0  0  0  0  0  0
   20.9408  -19.3395  -11.6802 C   0  0  0  0  0  0  0  0  0  0  0  0
   21.4749  -20.0826  -10.6196 C   0  0  0  0  0  0  0  0  0  0  0  0
   25.5551  -20.9484  -10.2756 C   0  0  0  0  0  0  0  0  0  0  0  0
   25.4645  -20.2551   -9.2442 O   0  0  0  0  0  0  0  0  0  0  0  0
   26.2956  -22.1206  -10.2913 O   0  0  0  0  0  0  0  0  0  0  0  0
  2  1  1  6
  3  2  1  0
  3  4  1  0
  4 12  1  0
  5  4  2  0
  5  6  1  0
  6  7  1  0
  7  8  1  0
  8  9  2  0
 10  9  1  0
 11 10  2  0
 12  7  2  0
 12 11  1  0
 13  2  1  0
 14 13  2  0
 16 15  1  6
 16 17  1  0
 18 19  1  6
 18 16  1  0
 19 13  1  0
 20 21  2  0
 20 18  1  0
 22 20  1  0
 23 24  1  6
 23 22  1  0
 24 25  1  0
 25 26  2  0
 26 27  1  0
 28 27  1  0
 29 28  2  0
 30 29  1  0
 31 32  1  0
 31 30  2  0
 32 33  2  0
 33 25  1  0
 33 28  1  0
 34 36  1  0
 34 23  1  0
 35 34  2  0
M  END
$$$$
