WTW.pdb
     RDKit          3D

 36 39  0  0  1  0  0  0  0  0999 V2000
   18.3732  -19.0671  -17.1868 N   0  0  0  0  0  0  0  0  0  0  0  0
   19.7144  -18.6107  -17.4057 C   0  0  1  0  0  0  0  0  0  0  0  0
   20.0010  -17.2023  -16.9943 C   0  0  0  0  0  0  0  0  0  0  0  0
   19.1867  -16.1709  -17.6682 C   0  0  0  0  0  0  0  0  0  0  0  0
   17.9143  -15.7281  -17.2514 C   0  0  0  0  0  0  0  0  0  0  0  0
   17.4818  -14.7900  -18.1002 N   0  0  0  0  0  0  0  0  0  0  0  0
   18.4221  -14.6012  -19.0557 C   0  0  0  0  0  0  0  0  0  0  0  0
   18.4554  -13.7528  -20.1655 C   0  0  0  0  0  0  0  0  0  0  0  0
   19.5256  -13.7369  -21.0265 C   0  0  0  0  0  0  0  0  0  0  0  0
   20.5777  -14.5864  -20.7681 C   0  0  0  0  0  0  0  0  0  0  0  0
   20.5511  -15.4283  -19.6710 C   0  0  0  0  0  0  0  0  0  0  0  0
   19.4680  -15.4447  -18.7956 C   0  0  0  0  0  0  0  0  0  0  0  0
   20.6937  -19.5560  -16.7548 C   0  0  0  0  0  0  0  0  0  0  0  0
   20.4594  -20.1110  -15.6425 O   0  0  0  0  0  0  0  0  0  0  0  0
   22.2372  -22.6067  -18.5889 C   0  0  0  0  0  0  0  0  0  0  0  0
   23.3335  -21.8191  -17.9665 C   0  0  1  0  0  0  0  0  0  0  0  0
   24.1156  -21.1864  -18.9238 O   0  0  0  0  0  0  0  0  0  0  0  0
   22.9212  -20.8013  -16.9511 C   0  0  2  0  0  0  0  0  0  0  0  0
   21.9251  -19.8684  -17.3672 N   0  0  0  0  0  0  0  0  0  0  0  0
   24.0620  -20.1918  -16.2051 C   0  0  0  0  0  0  0  0  0  0  0  0
   24.1434  -18.9453  -16.1057 O   0  0  0  0  0  0  0  0  0  0  0  0
   25.0863  -20.9470  -15.5952 N   0  0  0  0  0  0  0  0  0  0  0  0
   25.8154  -20.4186  -14.4459 C   0  0  1  0  0  0  0  0  0  0  0  0
   25.0097  -20.1107  -13.2630 C   0  0  0  0  0  0  0  0  0  0  0  0
   25.7503  -19.5962  -12.0788 C   0  0  0  0  0  0  0  0  0  0  0  0
   26.6758  -18.5399  -12.1761 C   0  0  0  0  0  0  0  0  0  0  0  0
   27.1519  -18.3260  -10.9474 N   0  0  0  0  0  0  0  0  0  0  0  0
   26.6097  -19.1620  -10.0495 C   0  0  0  0  0  0  0  0  0  0  0  0
   26.7605  -19.3446   -8.6809 C   0  0  0  0  0  0  0  0  0  0  0  0
   26.0126  -20.3291   -8.0718 C   0  0  0  0  0  0  0  0  0  0  0  0
   25.1274  -21.1387   -8.7591 C   0  0  0  0  0  0  0  0  0  0  0  0
   24.9878  -20.9495  -10.1137 C   0  0  0  0  0  0  0  0  0  0  0  0
   25.7338  -19.9544  -10.7584 C   0  0  0  0  0  0  0  0  0  0  0  0
   26.8206  -21.5196  -14.0347 C   0  0  0  0  0  0  0  0  0  0  0  0
   26.4564  -22.5367  -13.4138 O   0  0  0  0  0  0  0  0  0  0  0  0
   28.1485  -21.3277  -14.3846 O   0  0  0  0  0  0  0  0  0  0  0  0
  2  1  1  1
  3  2  1  0
  3  4  1  0
  4 12  1  0
  5  4  2  0
  5  6  1  0
  6  7  1  0
  7  8  1  0
  8  9  2  0
 10  9  1  0
 11 10  2  0
 12  7  2  0
 12 11  1  0
 13  2  1  0
 14 13  2  0
 16 15  1  6
 16 17  1  0
 18 19  1  6
 18 16  1  0
 19 13  1  0
 20 21  2  0
 20 18  1  0
 22 20  1  0
 23 24  1  1
 23 22  1  0
 24 25  1  0
 25 26  2  0
 26 27  1  0
 28 27  1  0
 29 28  2  0
 30 29  1  0
 31 32  1  0
 31 30  2  0
 32 33  2  0
 33 25  1  0
 33 28  1  0
 34 36  1  0
 34 23  1  0
 35 34  2  0
M  END
$$$$
