WTW.pdb
     RDKit          3D

 36 39  0  0  1  0  0  0  0  0999 V2000
   23.4406  -16.5569  -17.3070 N   0  0  0  0  0  0  0  0  0  0  0  0
   23.6940  -17.4727  -16.2336 C   0  0  1  0  0  0  0  0  0  0  0  0
   24.4310  -16.9147  -15.0586 C   0  0  0  0  0  0  0  0  0  0  0  0
   25.8421  -16.5589  -15.3109 C   0  0  0  0  0  0  0  0  0  0  0  0
   26.3395  -15.2513  -15.4882 C   0  0  0  0  0  0  0  0  0  0  0  0
   27.6590  -15.3134  -15.6947 N   0  0  0  0  0  0  0  0  0  0  0  0
   28.0443  -16.6107  -15.6585 C   0  0  0  0  0  0  0  0  0  0  0  0
   29.2964  -17.2084  -15.8240 C   0  0  0  0  0  0  0  0  0  0  0  0
   29.4567  -18.5711  -15.7603 C   0  0  0  0  0  0  0  0  0  0  0  0
   28.3417  -19.3444  -15.5270 C   0  0  0  0  0  0  0  0  0  0  0  0
   27.0997  -18.7589  -15.3618 C   0  0  0  0  0  0  0  0  0  0  0  0
   26.9351  -17.3774  -15.4239 C   0  0  0  0  0  0  0  0  0  0  0  0
   22.4032  -18.1129  -15.7862 C   0  0  0  0  0  0  0  0  0  0  0  0
   21.3969  -17.4313  -15.4359 O   0  0  0  0  0  0  0  0  0  0  0  0
   19.5545  -18.8096  -16.8652 C   0  0  0  0  0  0  0  0  0  0  0  0
   20.0029  -20.1844  -16.5213 C   0  0  1  0  0  0  0  0  0  0  0  0
   20.4028  -20.8888  -17.6493 O   0  0  0  0  0  0  0  0  0  0  0  0
   21.0864  -20.2884  -15.4955 C   0  0  2  0  0  0  0  0  0  0  0  0
   22.2599  -19.5153  -15.7425 N   0  0  0  0  0  0  0  0  0  0  0  0
   21.3540  -21.6833  -15.0349 C   0  0  0  0  0  0  0  0  0  0  0  0
   22.3298  -22.3151  -15.5027 O   0  0  0  0  0  0  0  0  0  0  0  0
   20.5541  -22.3580  -14.0880 N   0  0  0  0  0  0  0  0  0  0  0  0
   20.9232  -23.6900  -13.6178 C   0  0  1  0  0  0  0  0  0  0  0  0
   21.7431  -23.7367  -12.4059 C   0  0  0  0  0  0  0  0  0  0  0  0
   21.5896  -22.5946  -11.4638 C   0  0  0  0  0  0  0  0  0  0  0  0
   20.3856  -22.3475  -10.7774 C   0  0  0  0  0  0  0  0  0  0  0  0
   20.5842  -21.2653  -10.0215 N   0  0  0  0  0  0  0  0  0  0  0  0
   21.8278  -20.7818  -10.1593 C   0  0  0  0  0  0  0  0  0  0  0  0
   22.5163  -19.7079   -9.6097 C   0  0  0  0  0  0  0  0  0  0  0  0
   23.8258  -19.5130   -9.9925 C   0  0  0  0  0  0  0  0  0  0  0  0
   24.4784  -20.3321  -10.8951 C   0  0  0  0  0  0  0  0  0  0  0  0
   23.7861  -21.3908  -11.4334 C   0  0  0  0  0  0  0  0  0  0  0  0
   22.4544  -21.6141  -11.0604 C   0  0  0  0  0  0  0  0  0  0  0  0
   19.5945  -24.4119  -13.2934 C   0  0  0  0  0  0  0  0  0  0  0  0
   19.5686  -25.6120  -12.9591 O   0  0  0  0  0  0  0  0  0  0  0  0
   18.4288  -23.6675  -13.3916 O   0  0  0  0  0  0  0  0  0  0  0  0
  2  1  1  6
  3  2  1  0
  3  4  1  0
  4 12  1  0
  5  4  2  0
  5  6  1  0
  6  7  1  0
  7  8  1  0
  8  9  2  0
 10  9  1  0
 11 10  2  0
 12  7  2  0
 12 11  1  0
 13  2  1  0
 14 13  2  0
 16 15  1  6
 16 17  1  0
 18 19  1  6
 18 16  1  0
 19 13  1  0
 20 21  2  0
 20 18  1  0
 22 20  1  0
 23 24  1  1
 23 22  1  0
 24 25  1  0
 25 26  2  0
 26 27  1  0
 28 27  1  0
 29 28  2  0
 30 29  1  0
 31 32  1  0
 31 30  2  0
 32 33  2  0
 33 25  1  0
 33 28  1  0
 34 36  1  0
 34 23  1  0
 35 34  2  0
M  END
$$$$
