WTW.pdb
     RDKit          3D

 36 39  0  0  1  0  0  0  0  0999 V2000
   28.3089  -20.6198  -10.2308 N   0  0  0  0  0  0  0  0  0  0  0  0
   26.9074  -20.7564   -9.9620 C   0  0  1  0  0  0  0  0  0  0  0  0
   26.3589  -19.8735   -8.8874 C   0  0  0  0  0  0  0  0  0  0  0  0
   27.2950  -19.5628   -7.7881 C   0  0  0  0  0  0  0  0  0  0  0  0
   28.0306  -18.3677   -7.6499 C   0  0  0  0  0  0  0  0  0  0  0  0
   28.7705  -18.4396   -6.5387 N   0  0  0  0  0  0  0  0  0  0  0  0
   28.5469  -19.6351   -5.9440 C   0  0  0  0  0  0  0  0  0  0  0  0
   29.0726  -20.2015   -4.7798 C   0  0  0  0  0  0  0  0  0  0  0  0
   28.7082  -21.4589   -4.3640 C   0  0  0  0  0  0  0  0  0  0  0  0
   27.8020  -22.1573   -5.1299 C   0  0  0  0  0  0  0  0  0  0  0  0
   27.2776  -21.6021   -6.2831 C   0  0  0  0  0  0  0  0  0  0  0  0
   27.6441  -20.3267   -6.7055 C   0  0  0  0  0  0  0  0  0  0  0  0
   26.1184  -20.5828  -11.2361 C   0  0  0  0  0  0  0  0  0  0  0  0
   26.3074  -19.6086  -12.0203 O   0  0  0  0  0  0  0  0  0  0  0  0
   26.0420  -22.5259  -14.3213 C   0  0  0  0  0  0  0  0  0  0  0  0
   24.6436  -22.5415  -13.8174 C   0  0  1  0  0  0  0  0  0  0  0  0
   24.2905  -23.7922  -13.3281 O   0  0  0  0  0  0  0  0  0  0  0  0
   24.3042  -21.5195  -12.7796 C   0  0  2  0  0  0  0  0  0  0  0  0
   25.1272  -21.5122  -11.6141 N   0  0  0  0  0  0  0  0  0  0  0  0
   22.8421  -21.3996  -12.5014 C   0  0  0  0  0  0  0  0  0  0  0  0
   22.3970  -21.7153  -11.3734 O   0  0  0  0  0  0  0  0  0  0  0  0
   21.9022  -20.9500  -13.4532 N   0  0  0  0  0  0  0  0  0  0  0  0
   20.4882  -20.8394  -13.1065 C   0  0  1  0  0  0  0  0  0  0  0  0
   19.8121  -19.6213  -13.5563 C   0  0  0  0  0  0  0  0  0  0  0  0
   20.6929  -18.4908  -13.9584 C   0  0  0  0  0  0  0  0  0  0  0  0
   21.7100  -18.6402  -14.9202 C   0  0  0  0  0  0  0  0  0  0  0  0
   22.3015  -17.4503  -15.0483 N   0  0  0  0  0  0  0  0  0  0  0  0
   21.7505  -16.5298  -14.2431 C   0  0  0  0  0  0  0  0  0  0  0  0
   21.9904  -15.1827  -14.0047 C   0  0  0  0  0  0  0  0  0  0  0  0
   21.1975  -14.5364  -13.0811 C   0  0  0  0  0  0  0  0  0  0  0  0
   20.1829  -15.1665  -12.3846 C   0  0  0  0  0  0  0  0  0  0  0  0
   19.9560  -16.5004  -12.6280 C   0  0  0  0  0  0  0  0  0  0  0  0
   20.7453  -17.1818  -13.5635 C   0  0  0  0  0  0  0  0  0  0  0  0
   19.7843  -22.0298  -13.7988 C   0  0  0  0  0  0  0  0  0  0  0  0
   20.3691  -22.7296  -14.6478 O   0  0  0  0  0  0  0  0  0  0  0  0
   18.4707  -22.2867  -13.4365 O   0  0  0  0  0  0  0  0  0  0  0  0
  2  1  1  6
  3  2  1  0
  3  4  1  0
  4 12  1  0
  5  4  2  0
  5  6  1  0
  6  7  1  0
  7  8  1  0
  8  9  2  0
 10  9  1  0
 11 10  2  0
 12  7  2  0
 12 11  1  0
 13  2  1  0
 14 13  2  0
 16 15  1  1
 16 17  1  0
 18 19  1  1
 18 16  1  0
 19 13  1  0
 20 21  2  0
 20 18  1  0
 22 20  1  0
 23 24  1  6
 23 22  1  0
 24 25  1  0
 25 26  2  0
 26 27  1  0
 28 27  1  0
 29 28  2  0
 30 29  1  0
 31 32  1  0
 31 30  2  0
 32 33  2  0
 33 25  1  0
 33 28  1  0
 34 36  1  0
 34 23  1  0
 35 34  2  0
M  END
$$$$
