WTW.pdb
     RDKit          3D

 36 39  0  0  1  0  0  0  0  0999 V2000
   27.6256  -19.0326  -19.5790 N   0  0  0  0  0  0  0  0  0  0  0  0
   27.3045  -18.7316  -18.2148 C   0  0  1  0  0  0  0  0  0  0  0  0
   27.1272  -17.2832  -17.8893 C   0  0  0  0  0  0  0  0  0  0  0  0
   28.2593  -16.4106  -18.2610 C   0  0  0  0  0  0  0  0  0  0  0  0
   28.1566  -15.1730  -18.9291 C   0  0  0  0  0  0  0  0  0  0  0  0
   29.3829  -14.6676  -19.0974 N   0  0  0  0  0  0  0  0  0  0  0  0
   30.2839  -15.5261  -18.5645 C   0  0  0  0  0  0  0  0  0  0  0  0
   31.6782  -15.4738  -18.4886 C   0  0  0  0  0  0  0  0  0  0  0  0
   32.4048  -16.4829  -17.9049 C   0  0  0  0  0  0  0  0  0  0  0  0
   31.7197  -17.5605  -17.3902 C   0  0  0  0  0  0  0  0  0  0  0  0
   30.3396  -17.6180  -17.4618 C   0  0  0  0  0  0  0  0  0  0  0  0
   29.6008  -16.5952  -18.0513 C   0  0  0  0  0  0  0  0  0  0  0  0
   26.0904  -19.5173  -17.7850 C   0  0  0  0  0  0  0  0  0  0  0  0
   25.1070  -19.7163  -18.5553 O   0  0  0  0  0  0  0  0  0  0  0  0
   26.4536  -22.9935  -16.1116 C   0  0  0  0  0  0  0  0  0  0  0  0
   25.4787  -22.1965  -15.3217 C   0  0  1  0  0  0  0  0  0  0  0  0
   25.9712  -21.8913  -14.0598 O   0  0  0  0  0  0  0  0  0  0  0  0
   24.9942  -20.9308  -15.9543 C   0  0  2  0  0  0  0  0  0  0  0  0
   26.0001  -20.0738  -16.4922 N   0  0  0  0  0  0  0  0  0  0  0  0
   23.9399  -20.2243  -15.1676 C   0  0  0  0  0  0  0  0  0  0  0  0
   24.2465  -19.2259  -14.4752 O   0  0  0  0  0  0  0  0  0  0  0  0
   22.5862  -20.6224  -15.1456 N   0  0  0  0  0  0  0  0  0  0  0  0
   21.6431  -19.9986  -14.2220 C   0  0  1  0  0  0  0  0  0  0  0  0
   20.2749  -19.8359  -14.7168 C   0  0  0  0  0  0  0  0  0  0  0  0
   19.2940  -19.2562  -13.7590 C   0  0  0  0  0  0  0  0  0  0  0  0
   18.9591  -17.8889  -13.7667 C   0  0  0  0  0  0  0  0  0  0  0  0
   18.0609  -17.7033  -12.7967 N   0  0  0  0  0  0  0  0  0  0  0  0
   17.7800  -18.8453  -12.1515 C   0  0  0  0  0  0  0  0  0  0  0  0
   16.9382  -19.1819  -11.0993 C   0  0  0  0  0  0  0  0  0  0  0  0
   16.9041  -20.4980  -10.6918 C   0  0  0  0  0  0  0  0  0  0  0  0
   17.6676  -21.4901  -11.2786 C   0  0  0  0  0  0  0  0  0  0  0  0
   18.4981  -21.1444  -12.3182 C   0  0  0  0  0  0  0  0  0  0  0  0
   18.5511  -19.8143  -12.7547 C   0  0  0  0  0  0  0  0  0  0  0  0
   21.5710  -20.9312  -12.9904 C   0  0  0  0  0  0  0  0  0  0  0  0
   21.5100  -22.1698  -13.1125 O   0  0  0  0  0  0  0  0  0  0  0  0
   21.5753  -20.3313  -11.7403 O   0  0  0  0  0  0  0  0  0  0  0  0
  2  1  1  6
  3  2  1  0
  3  4  1  0
  4 12  1  0
  5  4  2  0
  5  6  1  0
  6  7  1  0
  7  8  1  0
  8  9  2  0
 10  9  1  0
 11 10  2  0
 12  7  2  0
 12 11  1  0
 13  2  1  0
 14 13  2  0
 16 15  1  6
 16 17  1  0
 18 19  1  1
 18 16  1  0
 19 13  1  0
 20 21  2  0
 20 18  1  0
 22 20  1  0
 23 24  1  6
 23 22  1  0
 24 25  1  0
 25 26  2  0
 26 27  1  0
 28 27  1  0
 29 28  2  0
 30 29  1  0
 31 32  1  0
 31 30  2  0
 32 33  2  0
 33 25  1  0
 33 28  1  0
 34 36  1  0
 34 23  1  0
 35 34  2  0
M  END
$$$$
