FGG.pdb
     RDKit          3D

 20 20  0  0  1  0  0  0  0  0999 V2000
    7.2447  -14.4623   23.1445 N   0  0  0  0  0  0  0  0  0  0  0  0
    8.0832  -15.4482   23.7860 C   0  0  1  0  0  0  0  0  0  0  0  0
    8.7805  -14.8549   25.0053 C   0  0  0  0  0  0  0  0  0  0  0  0
    7.8893  -13.8006   25.5494 C   0  0  0  0  0  0  0  0  0  0  0  0
    7.2287  -12.9348   24.7135 C   0  0  0  0  0  0  0  0  0  0  0  0
    6.3988  -11.9522   25.2113 C   0  0  0  0  0  0  0  0  0  0  0  0
    6.2236  -11.8308   26.5790 C   0  0  0  0  0  0  0  0  0  0  0  0
    6.8747  -12.6861   27.4303 C   0  0  0  0  0  0  0  0  0  0  0  0
    7.7087  -13.6720   26.9091 C   0  0  0  0  0  0  0  0  0  0  0  0
    7.2794  -16.6445   24.2042 C   0  0  0  0  0  0  0  0  0  0  0  0
    6.1419  -16.8536   23.7054 O   0  0  0  0  0  0  0  0  0  0  0  0
    7.7661  -17.5661   25.1608 N   0  0  0  0  0  0  0  0  0  0  0  0
    6.9241  -18.5443   25.8169 C   0  0  0  0  0  0  0  0  0  0  0  0
    7.6983  -19.2020   26.8838 C   0  0  0  0  0  0  0  0  0  0  0  0
    7.1258  -19.9820   27.6806 O   0  0  0  0  0  0  0  0  0  0  0  0
    9.1057  -18.9871   27.0571 N   0  0  0  0  0  0  0  0  0  0  0  0
    9.8084  -19.7580   28.0651 C   0  0  0  0  0  0  0  0  0  0  0  0
   10.5071  -20.9103   27.4909 C   0  0  0  0  0  0  0  0  0  0  0  0
   10.2819  -22.2306   27.8918 O   0  0  0  0  0  0  0  0  0  0  0  0
   11.3554  -20.7060   26.5894 O   0  0  0  0  0  0  0  0  0  0  0  0
  2  1  1  1
  2 10  1  0
  3  2  1  0
  4  3  1  0
  4  5  2  0
  6  5  1  0
  7  6  2  0
  8  9  2  0
  8  7  1  0
  9  4  1  0
 10 11  2  0
 12 10  1  0
 12 13  1  0
 13 14  1  0
 14 15  2  0
 16 17  1  0
 16 14  1  0
 18 19  1  0
 18 17  1  0
 20 18  2  0
M  END
$$$$
