FGG.pdb
     RDKit          3D

 20 20  0  0  1  0  0  0  0  0999 V2000
    6.1736  -16.3880   25.3931 N   0  0  0  0  0  0  0  0  0  0  0  0
    7.4210  -15.9995   24.7770 C   0  0  1  0  0  0  0  0  0  0  0  0
    8.2486  -15.1394   25.7258 C   0  0  0  0  0  0  0  0  0  0  0  0
    7.5584  -13.8312   25.8454 C   0  0  0  0  0  0  0  0  0  0  0  0
    7.9051  -12.7746   25.0404 C   0  0  0  0  0  0  0  0  0  0  0  0
    7.2685  -11.5556   25.1453 C   0  0  0  0  0  0  0  0  0  0  0  0
    6.2596  -11.3870   26.0780 C   0  0  0  0  0  0  0  0  0  0  0  0
    5.8990  -12.4305   26.8912 C   0  0  0  0  0  0  0  0  0  0  0  0
    6.5533  -13.6539   26.7707 C   0  0  0  0  0  0  0  0  0  0  0  0
    8.2179  -17.2057   24.3740 C   0  0  0  0  0  0  0  0  0  0  0  0
    7.6712  -18.3385   24.3115 O   0  0  0  0  0  0  0  0  0  0  0  0
    9.5929  -17.1119   24.0547 N   0  0  0  0  0  0  0  0  0  0  0  0
   10.1077  -17.2912   22.7135 C   0  0  0  0  0  0  0  0  0  0  0  0
   11.4143  -16.6185   22.6095 C   0  0  0  0  0  0  0  0  0  0  0  0
   12.0803  -16.7081   21.5515 O   0  0  0  0  0  0  0  0  0  0  0  0
   11.9715  -15.8499   23.6846 N   0  0  0  0  0  0  0  0  0  0  0  0
   13.2862  -15.2622   23.5114 C   0  0  0  0  0  0  0  0  0  0  0  0
   14.3567  -16.1745   23.9202 C   0  0  0  0  0  0  0  0  0  0  0  0
   15.6927  -15.7869   24.0602 O   0  0  0  0  0  0  0  0  0  0  0  0
   14.0633  -17.3708   24.1589 O   0  0  0  0  0  0  0  0  0  0  0  0
  2  1  1  1
  2 10  1  0
  3  2  1  0
  4  3  1  0
  4  5  2  0
  6  5  1  0
  7  6  2  0
  8  9  2  0
  8  7  1  0
  9  4  1  0
 10 11  2  0
 12 10  1  0
 12 13  1  0
 13 14  1  0
 14 15  2  0
 16 17  1  0
 16 14  1  0
 18 19  1  0
 18 17  1  0
 20 18  2  0
M  END
$$$$
