FGG.pdb
     RDKit          3D

 20 20  0  0  1  0  0  0  0  0999 V2000
    7.7259  -16.5459   26.1897 N   0  0  0  0  0  0  0  0  0  0  0  0
    7.0893  -15.8920   25.0701 C   0  0  1  0  0  0  0  0  0  0  0  0
    7.7721  -14.5648   24.7586 C   0  0  0  0  0  0  0  0  0  0  0  0
    7.2508  -13.5668   25.7252 C   0  0  0  0  0  0  0  0  0  0  0  0
    8.1013  -12.7236   26.3962 C   0  0  0  0  0  0  0  0  0  0  0  0
    7.6248  -11.7934   27.2960 C   0  0  0  0  0  0  0  0  0  0  0  0
    6.2638  -11.7026   27.5323 C   0  0  0  0  0  0  0  0  0  0  0  0
    5.3982  -12.5361   26.8718 C   0  0  0  0  0  0  0  0  0  0  0  0
    5.8980  -13.4691   25.9668 C   0  0  0  0  0  0  0  0  0  0  0  0
    7.1197  -16.7666   23.8509 C   0  0  0  0  0  0  0  0  0  0  0  0
    6.0573  -17.2763   23.4060 O   0  0  0  0  0  0  0  0  0  0  0  0
    8.3275  -17.0445   23.1688 N   0  0  0  0  0  0  0  0  0  0  0  0
    8.6318  -16.5213   21.8536 C   0  0  0  0  0  0  0  0  0  0  0  0
   10.0170  -16.0197   21.8479 C   0  0  0  0  0  0  0  0  0  0  0  0
   10.5983  -15.8033   20.7587 O   0  0  0  0  0  0  0  0  0  0  0  0
   10.7468  -15.7620   23.0554 N   0  0  0  0  0  0  0  0  0  0  0  0
   12.1589  -15.4444   22.9607 C   0  0  0  0  0  0  0  0  0  0  0  0
   13.0044  -16.5420   23.4361 C   0  0  0  0  0  0  0  0  0  0  0  0
   14.2896  -16.3601   23.9554 O   0  0  0  0  0  0  0  0  0  0  0  0
   12.5547  -17.7117   23.3758 O   0  0  0  0  0  0  0  0  0  0  0  0
  2  1  1  1
  2 10  1  0
  3  2  1  0
  4  3  1  0
  4  5  2  0
  6  5  1  0
  7  6  2  0
  8  9  2  0
  8  7  1  0
  9  4  1  0
 10 11  2  0
 12 10  1  0
 12 13  1  0
 13 14  1  0
 14 15  2  0
 16 17  1  0
 16 14  1  0
 18 19  1  0
 18 17  1  0
 20 18  2  0
M  END
$$$$
