FGG.pdb
     RDKit          3D

 20 20  0  0  1  0  0  0  0  0999 V2000
    7.8028  -15.6714   25.3882 N   0  0  0  0  0  0  0  0  0  0  0  0
    7.4338  -14.9103   24.2174 C   0  0  1  0  0  0  0  0  0  0  0  0
    7.9942  -13.4943   24.2933 C   0  0  0  0  0  0  0  0  0  0  0  0
    7.4350  -12.8672   25.5165 C   0  0  0  0  0  0  0  0  0  0  0  0
    8.2365  -12.5878   26.5954 C   0  0  0  0  0  0  0  0  0  0  0  0
    7.7246  -12.0052   27.7358 C   0  0  0  0  0  0  0  0  0  0  0  0
    6.3774  -11.6933   27.8009 C   0  0  0  0  0  0  0  0  0  0  0  0
    5.5606  -11.9647   26.7335 C   0  0  0  0  0  0  0  0  0  0  0  0
    6.0957  -12.5533   25.5905 C   0  0  0  0  0  0  0  0  0  0  0  0
    7.9298  -15.5764   22.9673 C   0  0  0  0  0  0  0  0  0  0  0  0
    7.6873  -15.0734   21.8384 O   0  0  0  0  0  0  0  0  0  0  0  0
    8.6770  -16.7767   23.0143 N   0  0  0  0  0  0  0  0  0  0  0  0
    9.2230  -17.4154   21.8353 C   0  0  0  0  0  0  0  0  0  0  0  0
   10.5977  -16.9303   21.6226 C   0  0  0  0  0  0  0  0  0  0  0  0
   10.9046  -16.3782   20.5400 O   0  0  0  0  0  0  0  0  0  0  0  0
   11.6227  -17.0629   22.6171 N   0  0  0  0  0  0  0  0  0  0  0  0
   12.6764  -16.0673   22.6674 C   0  0  0  0  0  0  0  0  0  0  0  0
   13.5341  -16.2305   23.8435 C   0  0  0  0  0  0  0  0  0  0  0  0
   13.3210  -17.1994   24.8286 O   0  0  0  0  0  0  0  0  0  0  0  0
   14.5154  -15.4604   23.9786 O   0  0  0  0  0  0  0  0  0  0  0  0
  2  1  1  1
  2 10  1  0
  3  2  1  0
  4  3  1  0
  4  5  2  0
  6  5  1  0
  7  6  2  0
  8  9  2  0
  8  7  1  0
  9  4  1  0
 10 11  2  0
 12 10  1  0
 12 13  1  0
 13 14  1  0
 14 15  2  0
 16 17  1  0
 16 14  1  0
 18 19  1  0
 18 17  1  0
 20 18  2  0
M  END
$$$$
