FGG.pdb
     RDKit          3D

 20 20  0  0  1  0  0  0  0  0999 V2000
    7.1766  -16.5796   26.5516 N   0  0  0  0  0  0  0  0  0  0  0  0
    6.9554  -16.6129   25.1247 C   0  0  1  0  0  0  0  0  0  0  0  0
    6.0471  -15.4677   24.6908 C   0  0  0  0  0  0  0  0  0  0  0  0
    6.5691  -14.2311   25.3236 C   0  0  0  0  0  0  0  0  0  0  0  0
    6.0361  -13.7607   26.4980 C   0  0  0  0  0  0  0  0  0  0  0  0
    6.5155  -12.6124   27.0925 C   0  0  0  0  0  0  0  0  0  0  0  0
    7.5540  -11.9154   26.4992 C   0  0  0  0  0  0  0  0  0  0  0  0
    8.0996  -12.3693   25.3260 C   0  0  0  0  0  0  0  0  0  0  0  0
    7.6023  -13.5308   24.7406 C   0  0  0  0  0  0  0  0  0  0  0  0
    8.2551  -16.5285   24.3790 C   0  0  0  0  0  0  0  0  0  0  0  0
    9.3482  -16.5115   25.0043 O   0  0  0  0  0  0  0  0  0  0  0  0
    8.2956  -16.4661   22.9663 N   0  0  0  0  0  0  0  0  0  0  0  0
    9.4021  -16.9748   22.1833 C   0  0  0  0  0  0  0  0  0  0  0  0
   10.5239  -16.0235   22.2671 C   0  0  0  0  0  0  0  0  0  0  0  0
   10.4854  -14.9537   21.6154 O   0  0  0  0  0  0  0  0  0  0  0  0
   11.6821  -16.2695   23.0765 N   0  0  0  0  0  0  0  0  0  0  0  0
   12.8099  -15.3634   22.9711 C   0  0  0  0  0  0  0  0  0  0  0  0
   13.9125  -15.7494   23.8547 C   0  0  0  0  0  0  0  0  0  0  0  0
   15.1355  -15.0740   23.9069 O   0  0  0  0  0  0  0  0  0  0  0  0
   13.7553  -16.7403   24.6081 O   0  0  0  0  0  0  0  0  0  0  0  0
  2  1  1  1
  2 10  1  0
  3  2  1  0
  4  3  1  0
  4  5  2  0
  6  5  1  0
  7  6  2  0
  8  9  2  0
  8  7  1  0
  9  4  1  0
 10 11  2  0
 12 10  1  0
 12 13  1  0
 13 14  1  0
 14 15  2  0
 16 17  1  0
 16 14  1  0
 18 19  1  0
 18 17  1  0
 20 18  2  0
M  END
$$$$
