FGG.pdb
     RDKit          3D

 20 20  0  0  1  0  0  0  0  0999 V2000
    7.3813  -16.1451   25.9506 N   0  0  0  0  0  0  0  0  0  0  0  0
    7.2586  -15.4386   24.6967 C   0  0  1  0  0  0  0  0  0  0  0  0
    8.0052  -14.1102   24.7485 C   0  0  0  0  0  0  0  0  0  0  0  0
    7.2963  -13.2474   25.7258 C   0  0  0  0  0  0  0  0  0  0  0  0
    5.9839  -12.8940   25.5328 C   0  0  0  0  0  0  0  0  0  0  0  0
    5.3179  -12.0926   26.4363 C   0  0  0  0  0  0  0  0  0  0  0  0
    5.9793  -11.6319   27.5617 C   0  0  0  0  0  0  0  0  0  0  0  0
    7.2904  -11.9739   27.7721 C   0  0  0  0  0  0  0  0  0  0  0  0
    7.9462  -12.7841   26.8486 C   0  0  0  0  0  0  0  0  0  0  0  0
    7.7895  -16.2650   23.5620 C   0  0  0  0  0  0  0  0  0  0  0  0
    8.5702  -17.2276   23.7861 O   0  0  0  0  0  0  0  0  0  0  0  0
    7.4354  -15.9941   22.2195 N   0  0  0  0  0  0  0  0  0  0  0  0
    7.9456  -16.7542   21.0978 C   0  0  0  0  0  0  0  0  0  0  0  0
    9.3490  -16.3733   20.8615 C   0  0  0  0  0  0  0  0  0  0  0  0
    9.6769  -15.8400   19.7757 O   0  0  0  0  0  0  0  0  0  0  0  0
   10.3790  -16.5886   21.8360 N   0  0  0  0  0  0  0  0  0  0  0  0
   11.7496  -16.2731   21.4811 C   0  0  0  0  0  0  0  0  0  0  0  0
   12.6746  -16.5029   22.5934 C   0  0  0  0  0  0  0  0  0  0  0  0
   14.0475  -16.2483   22.5237 O   0  0  0  0  0  0  0  0  0  0  0  0
   12.2138  -16.9529   23.6702 O   0  0  0  0  0  0  0  0  0  0  0  0
  2  1  1  1
  2 10  1  0
  3  2  1  0
  4  3  1  0
  4  5  2  0
  6  5  1  0
  7  6  2  0
  8  9  2  0
  8  7  1  0
  9  4  1  0
 10 11  2  0
 12 10  1  0
 12 13  1  0
 13 14  1  0
 14 15  2  0
 16 17  1  0
 16 14  1  0
 18 19  1  0
 18 17  1  0
 20 18  2  0
M  END
$$$$
