FGG.pdb
     RDKit          3D

 20 20  0  0  1  0  0  0  0  0999 V2000
    8.7901  -14.9555   24.9486 N   0  0  0  0  0  0  0  0  0  0  0  0
    7.6281  -15.2959   24.1610 C   0  0  1  0  0  0  0  0  0  0  0  0
    6.7602  -14.0663   23.9173 C   0  0  0  0  0  0  0  0  0  0  0  0
    6.7298  -13.2938   25.1839 C   0  0  0  0  0  0  0  0  0  0  0  0
    5.6910  -13.4334   26.0705 C   0  0  0  0  0  0  0  0  0  0  0  0
    5.6553  -12.7192   27.2498 C   0  0  0  0  0  0  0  0  0  0  0  0
    6.6833  -11.8428   27.5519 C   0  0  0  0  0  0  0  0  0  0  0  0
    7.7297  -11.6895   26.6791 C   0  0  0  0  0  0  0  0  0  0  0  0
    7.7483  -12.4193   25.4932 C   0  0  0  0  0  0  0  0  0  0  0  0
    8.0299  -15.8918   22.8435 C   0  0  0  0  0  0  0  0  0  0  0  0
    7.1824  -16.4923   22.1312 O   0  0  0  0  0  0  0  0  0  0  0  0
    9.3574  -15.8002   22.3633 N   0  0  0  0  0  0  0  0  0  0  0  0
    9.7953  -16.4120   21.1263 C   0  0  0  0  0  0  0  0  0  0  0  0
   11.1387  -16.9828   21.3252 C   0  0  0  0  0  0  0  0  0  0  0  0
   11.8568  -17.2499   20.3332 O   0  0  0  0  0  0  0  0  0  0  0  0
   11.6746  -17.2530   22.6279 N   0  0  0  0  0  0  0  0  0  0  0  0
   13.1008  -17.0949   22.8401 C   0  0  0  0  0  0  0  0  0  0  0  0
   13.3986  -16.4092   24.0997 C   0  0  0  0  0  0  0  0  0  0  0  0
   14.6933  -16.0916   24.5209 O   0  0  0  0  0  0  0  0  0  0  0  0
   12.4421  -16.0871   24.8452 O   0  0  0  0  0  0  0  0  0  0  0  0
  2  1  1  6
  2 10  1  0
  3  2  1  0
  4  3  1  0
  4  5  2  0
  6  5  1  0
  7  6  2  0
  8  9  2  0
  8  7  1  0
  9  4  1  0
 10 11  2  0
 12 10  1  0
 12 13  1  0
 13 14  1  0
 14 15  2  0
 16 17  1  0
 16 14  1  0
 18 19  1  0
 18 17  1  0
 20 18  2  0
M  END
$$$$
