FGG.pdb
     RDKit          3D

 20 20  0  0  1  0  0  0  0  0999 V2000
    6.7933  -16.1629   25.7570 N   0  0  0  0  0  0  0  0  0  0  0  0
    7.2836  -15.5117   24.5646 C   0  0  1  0  0  0  0  0  0  0  0  0
    8.2987  -14.4300   24.9171 C   0  0  0  0  0  0  0  0  0  0  0  0
    7.5963  -13.4267   25.7551 C   0  0  0  0  0  0  0  0  0  0  0  0
    6.4242  -12.8508   25.3321 C   0  0  0  0  0  0  0  0  0  0  0  0
    5.7653  -11.9177   26.1049 C   0  0  0  0  0  0  0  0  0  0  0  0
    6.2901  -11.5500   27.3319 C   0  0  0  0  0  0  0  0  0  0  0  0
    7.4600  -12.1140   27.7718 C   0  0  0  0  0  0  0  0  0  0  0  0
    8.1110  -13.0545   26.9775 C   0  0  0  0  0  0  0  0  0  0  0  0
    7.9158  -16.5044   23.6335 C   0  0  0  0  0  0  0  0  0  0  0  0
    7.9931  -17.7196   23.9551 O   0  0  0  0  0  0  0  0  0  0  0  0
    8.4397  -16.1135   22.3789 N   0  0  0  0  0  0  0  0  0  0  0  0
    8.9570  -17.0560   21.4091 C   0  0  0  0  0  0  0  0  0  0  0  0
   10.3462  -17.3932   21.7648 C   0  0  0  0  0  0  0  0  0  0  0  0
   11.0317  -18.1077   20.9963 O   0  0  0  0  0  0  0  0  0  0  0  0
   10.9641  -16.9327   22.9744 N   0  0  0  0  0  0  0  0  0  0  0  0
   12.3264  -17.3412   23.2593 C   0  0  0  0  0  0  0  0  0  0  0  0
   13.2763  -16.2361   23.1116 C   0  0  0  0  0  0  0  0  0  0  0  0
   13.4432  -15.5119   21.9274 O   0  0  0  0  0  0  0  0  0  0  0  0
   13.9813  -15.9183   24.0996 O   0  0  0  0  0  0  0  0  0  0  0  0
  2  1  1  1
  2 10  1  0
  3  2  1  0
  4  3  1  0
  4  5  2  0
  6  5  1  0
  7  6  2  0
  8  9  2  0
  8  7  1  0
  9  4  1  0
 10 11  2  0
 12 10  1  0
 12 13  1  0
 13 14  1  0
 14 15  2  0
 16 17  1  0
 16 14  1  0
 18 19  1  0
 18 17  1  0
 20 18  2  0
M  END
$$$$
