GLA.pdb
     RDKit          3D

 18 17  0  0  1  0  0  0  0  0999 V2000
    8.5096  -18.4050   22.1840 N   0  0  0  0  0  0  0  0  0  0  0  0
    7.5991  -18.0411   23.2417 C   0  0  0  0  0  0  0  0  0  0  0  0
    8.0179  -16.7625   23.8225 C   0  0  0  0  0  0  0  0  0  0  0  0
    9.0677  -16.2202   23.4330 O   0  0  0  0  0  0  0  0  0  0  0  0
    5.7432  -11.9686   26.8207 C   0  0  0  0  0  0  0  0  0  0  0  0
    7.0306  -12.5578   26.2140 C   0  0  2  0  0  0  0  0  0  0  0  0
    7.4989  -11.5891   25.1799 C   0  0  0  0  0  0  0  0  0  0  0  0
    6.6492  -13.8924   25.6759 C   0  0  0  0  0  0  0  0  0  0  0  0
    7.7680  -14.8286   25.3813 C   0  0  2  0  0  0  0  0  0  0  0  0
    7.2882  -16.0748   24.8311 N   0  0  0  0  0  0  0  0  0  0  0  0
    8.6265  -15.0768   26.5818 C   0  0  0  0  0  0  0  0  0  0  0  0
    8.1689  -15.5590   27.6461 O   0  0  0  0  0  0  0  0  0  0  0  0
   10.3558  -13.8506   28.7709 C   0  0  0  0  0  0  0  0  0  0  0  0
   10.7933  -14.8959   27.7431 C   0  0  2  0  0  0  0  0  0  0  0  0
   10.0001  -14.7665   26.5410 N   0  0  0  0  0  0  0  0  0  0  0  0
   10.6834  -16.2426   28.3398 C   0  0  0  0  0  0  0  0  0  0  0  0
   11.3815  -16.6303   29.4695 O   0  0  0  0  0  0  0  0  0  0  0  0
    9.9212  -17.0815   27.8007 O   0  0  0  0  0  0  0  0  0  0  0  0
  1  2  1  0
  2  3  1  0
  3  4  2  0
  3 10  1  0
  6  5  1  6
  7  6  1  0
  8  6  1  0
  9  8  1  1
 10  9  1  0
 11  9  1  0
 11 15  1  0
 12 11  2  0
 14 13  1  1
 14 15  1  0
 14 16  1  0
 16 17  1  0
 18 16  2  0
M  END
$$$$
