GLA.pdb
     RDKit          3D

 18 17  0  0  1  0  0  0  0  0999 V2000
    6.0566  -18.2298   22.6833 N   0  0  0  0  0  0  0  0  0  0  0  0
    5.7826  -17.5301   23.9144 C   0  0  0  0  0  0  0  0  0  0  0  0
    6.8800  -16.6013   24.1979 C   0  0  0  0  0  0  0  0  0  0  0  0
    7.8726  -16.5689   23.4484 O   0  0  0  0  0  0  0  0  0  0  0  0
    6.8729  -11.9137   24.8382 C   0  0  0  0  0  0  0  0  0  0  0  0
    6.3817  -12.8651   25.9455 C   0  0  2  0  0  0  0  0  0  0  0  0
    5.7903  -12.0085   27.0149 C   0  0  0  0  0  0  0  0  0  0  0  0
    7.5793  -13.6396   26.3727 C   0  0  0  0  0  0  0  0  0  0  0  0
    7.9789  -14.7730   25.4948 C   0  0  2  0  0  0  0  0  0  0  0  0
    6.8932  -15.7058   25.3028 N   0  0  0  0  0  0  0  0  0  0  0  0
    9.1973  -15.4777   26.0035 C   0  0  0  0  0  0  0  0  0  0  0  0
   10.2916  -14.8879   26.1743 O   0  0  0  0  0  0  0  0  0  0  0  0
   10.0473  -18.6324   27.7026 C   0  0  0  0  0  0  0  0  0  0  0  0
   10.3539  -17.5521   26.6637 C   0  0  2  0  0  0  0  0  0  0  0  0
    9.1395  -16.8519   26.3084 N   0  0  0  0  0  0  0  0  0  0  0  0
   11.0015  -18.1732   25.4905 C   0  0  0  0  0  0  0  0  0  0  0  0
   12.2728  -18.7177   25.5262 O   0  0  0  0  0  0  0  0  0  0  0  0
   10.3734  -18.2126   24.4044 O   0  0  0  0  0  0  0  0  0  0  0  0
  1  2  1  0
  2  3  1  0
  3  4  2  0
  3 10  1  0
  6  5  1  6
  7  6  1  0
  8  6  1  0
  9  8  1  1
 10  9  1  0
 11  9  1  0
 11 15  1  0
 12 11  2  0
 14 13  1  1
 14 15  1  0
 14 16  1  0
 16 17  1  0
 18 16  2  0
M  END
$$$$
