GLA.pdb
     RDKit          3D

 18 17  0  0  1  0  0  0  0  0999 V2000
    6.7370  -19.2188   23.4655 N   0  0  0  0  0  0  0  0  0  0  0  0
    6.5238  -18.5400   24.7201 C   0  0  0  0  0  0  0  0  0  0  0  0
    7.0948  -17.1926   24.6448 C   0  0  0  0  0  0  0  0  0  0  0  0
    8.0090  -16.9522   23.8358 O   0  0  0  0  0  0  0  0  0  0  0  0
    7.7102  -11.9007   26.8601 C   0  0  0  0  0  0  0  0  0  0  0  0
    6.8345  -12.3367   25.6704 C   0  0  2  0  0  0  0  0  0  0  0  0
    5.6938  -11.3768   25.6040 C   0  0  0  0  0  0  0  0  0  0  0  0
    6.4368  -13.7427   25.9558 C   0  0  0  0  0  0  0  0  0  0  0  0
    7.2832  -14.8039   25.3455 C   0  0  2  0  0  0  0  0  0  0  0  0
    6.6663  -16.1052   25.4552 N   0  0  0  0  0  0  0  0  0  0  0  0
    8.6646  -14.8238   25.9211 C   0  0  0  0  0  0  0  0  0  0  0  0
    9.5965  -14.1254   25.4538 O   0  0  0  0  0  0  0  0  0  0  0  0
   10.4589  -14.3901   28.4738 C   0  0  0  0  0  0  0  0  0  0  0  0
   10.2839  -15.6305   27.5955 C   0  0  2  0  0  0  0  0  0  0  0  0
    8.9545  -15.6474   27.0267 N   0  0  0  0  0  0  0  0  0  0  0  0
   10.5612  -16.8393   28.3976 C   0  0  0  0  0  0  0  0  0  0  0  0
    9.7131  -17.9316   28.4403 O   0  0  0  0  0  0  0  0  0  0  0  0
   11.6160  -16.8849   29.0763 O   0  0  0  0  0  0  0  0  0  0  0  0
  1  2  1  0
  2  3  1  0
  3  4  2  0
  3 10  1  0
  6  5  1  1
  7  6  1  0
  8  6  1  0
  9  8  1  1
 10  9  1  0
 11  9  1  0
 11 15  1  0
 12 11  2  0
 14 13  1  1
 14 15  1  0
 14 16  1  0
 16 17  1  0
 18 16  2  0
M  END
$$$$
