GLA.pdb
     RDKit          3D

 18 17  0  0  1  0  0  0  0  0999 V2000
    6.7899  -14.9957   20.1338 N   0  0  0  0  0  0  0  0  0  0  0  0
    6.1713  -15.1173   21.4310 C   0  0  0  0  0  0  0  0  0  0  0  0
    7.1734  -14.8676   22.4706 C   0  0  0  0  0  0  0  0  0  0  0  0
    8.3794  -14.8186   22.1686 O   0  0  0  0  0  0  0  0  0  0  0  0
    7.8266  -11.4269   25.3030 C   0  0  0  0  0  0  0  0  0  0  0  0
    6.7049  -12.3973   25.7185 C   0  0  2  0  0  0  0  0  0  0  0  0
    6.0257  -11.7865   26.8987 C   0  0  0  0  0  0  0  0  0  0  0  0
    7.3780  -13.6946   26.0021 C   0  0  0  0  0  0  0  0  0  0  0  0
    7.8939  -14.4412   24.8225 C   0  0  2  0  0  0  0  0  0  0  0  0
    6.8574  -14.6710   23.8433 N   0  0  0  0  0  0  0  0  0  0  0  0
    8.5474  -15.7299   25.2126 C   0  0  0  0  0  0  0  0  0  0  0  0
    7.8942  -16.7087   25.6482 O   0  0  0  0  0  0  0  0  0  0  0  0
   11.8274  -17.3126   24.5290 C   0  0  0  0  0  0  0  0  0  0  0  0
   10.5488  -17.1619   25.3552 C   0  0  2  0  0  0  0  0  0  0  0  0
    9.9439  -15.8742   25.0959 N   0  0  0  0  0  0  0  0  0  0  0  0
   10.8671  -17.3490   26.7854 C   0  0  0  0  0  0  0  0  0  0  0  0
   11.4239  -18.5097   27.2924 O   0  0  0  0  0  0  0  0  0  0  0  0
   10.6234  -16.4134   27.5858 O   0  0  0  0  0  0  0  0  0  0  0  0
  1  2  1  0
  2  3  1  0
  3  4  2  0
  3 10  1  0
  6  5  1  1
  7  6  1  0
  8  6  1  0
  9  8  1  1
 10  9  1  0
 11  9  1  0
 11 15  1  0
 12 11  2  0
 14 13  1  6
 14 15  1  0
 14 16  1  0
 16 17  1  0
 18 16  2  0
M  END
$$$$
