GLA.pdb
     RDKit          3D

 18 17  0  0  1  0  0  0  0  0999 V2000
    5.4792  -17.4131   21.4111 N   0  0  0  0  0  0  0  0  0  0  0  0
    5.2469  -17.1324   22.8066 C   0  0  0  0  0  0  0  0  0  0  0  0
    6.3823  -16.3779   23.3441 C   0  0  0  0  0  0  0  0  0  0  0  0
    7.4478  -16.3235   22.7042 O   0  0  0  0  0  0  0  0  0  0  0  0
    7.5445  -12.1038   24.8251 C   0  0  0  0  0  0  0  0  0  0  0  0
    6.5295  -12.9004   25.6663 C   0  0  2  0  0  0  0  0  0  0  0  0
    6.0441  -11.9801   26.7361 C   0  0  0  0  0  0  0  0  0  0  0  0
    7.2686  -14.0905   26.1703 C   0  0  0  0  0  0  0  0  0  0  0  0
    7.5628  -15.1549   25.1725 C   0  0  2  0  0  0  0  0  0  0  0  0
    6.3536  -15.6812   24.5838 N   0  0  0  0  0  0  0  0  0  0  0  0
    8.3916  -16.2578   25.7525 C   0  0  0  0  0  0  0  0  0  0  0  0
    7.9221  -17.0980   26.5576 O   0  0  0  0  0  0  0  0  0  0  0  0
   11.6923  -17.7724   24.9271 C   0  0  0  0  0  0  0  0  0  0  0  0
   10.5049  -17.5225   25.8587 C   0  0  2  0  0  0  0  0  0  0  0  0
    9.7497  -16.3786   25.3978 N   0  0  0  0  0  0  0  0  0  0  0  0
   10.9973  -17.3442   27.2398 C   0  0  0  0  0  0  0  0  0  0  0  0
   11.6660  -18.3327   27.9396 O   0  0  0  0  0  0  0  0  0  0  0  0
   10.8032  -16.2445   27.8128 O   0  0  0  0  0  0  0  0  0  0  0  0
  1  2  1  0
  2  3  1  0
  3  4  2  0
  3 10  1  0
  6  5  1  6
  7  6  1  0
  8  6  1  0
  9  8  1  1
 10  9  1  0
 11  9  1  0
 11 15  1  0
 12 11  2  0
 14 13  1  6
 14 15  1  0
 14 16  1  0
 16 17  1  0
 18 16  2  0
M  END
$$$$
