GLA.pdb
     RDKit          3D

 18 17  0  0  1  0  0  0  0  0999 V2000
    7.1447  -19.3950   23.5702 N   0  0  0  0  0  0  0  0  0  0  0  0
    6.6131  -18.6087   24.6562 C   0  0  0  0  0  0  0  0  0  0  0  0
    7.1330  -17.2417   24.5638 C   0  0  0  0  0  0  0  0  0  0  0  0
    8.0231  -16.9727   23.7373 O   0  0  0  0  0  0  0  0  0  0  0  0
    5.9437  -11.5763   26.6778 C   0  0  0  0  0  0  0  0  0  0  0  0
    6.9087  -12.4105   25.8142 C   0  0  2  0  0  0  0  0  0  0  0  0
    6.8840  -11.8139   24.4465 C   0  0  0  0  0  0  0  0  0  0  0  0
    6.4043  -13.8095   25.8820 C   0  0  0  0  0  0  0  0  0  0  0  0
    7.2765  -14.8546   25.2803 C   0  0  2  0  0  0  0  0  0  0  0  0
    6.6793  -16.1660   25.3762 N   0  0  0  0  0  0  0  0  0  0  0  0
    8.6496  -14.8544   25.8759 C   0  0  0  0  0  0  0  0  0  0  0  0
    9.5716  -14.1255   25.4365 O   0  0  0  0  0  0  0  0  0  0  0  0
   10.1469  -14.2468   28.5167 C   0  0  0  0  0  0  0  0  0  0  0  0
   10.1917  -15.5255   27.6781 C   0  0  2  0  0  0  0  0  0  0  0  0
    8.9425  -15.6933   26.9691 N   0  0  0  0  0  0  0  0  0  0  0  0
   10.4915  -16.6746   28.5564 C   0  0  0  0  0  0  0  0  0  0  0  0
   11.5871  -16.7182   29.4000 O   0  0  0  0  0  0  0  0  0  0  0  0
    9.7188  -17.6636   28.5418 O   0  0  0  0  0  0  0  0  0  0  0  0
  1  2  1  0
  2  3  1  0
  3  4  2  0
  3 10  1  0
  6  5  1  1
  7  6  1  0
  8  6  1  0
  9  8  1  1
 10  9  1  0
 11  9  1  0
 11 15  1  0
 12 11  2  0
 14 13  1  1
 14 15  1  0
 14 16  1  0
 16 17  1  0
 18 16  2  0
M  END
$$$$
