MGW.pdb
     RDKit          3D

 27 28  0  0  1  0  0  0  0  0999 V2000
    7.8925  -11.8792   19.1931 C   0  0  0  0  0  0  0  0  0  0  0  0
    7.6718  -12.9701   17.7892 S   0  0  0  0  0  0  0  0  0  0  0  0
    7.7115  -14.7125   18.1971 C   0  0  0  0  0  0  0  0  0  0  0  0
    9.0897  -15.3335   18.0798 C   0  0  0  0  0  0  0  0  0  0  0  0
    9.0005  -16.7665   18.6187 C   0  0  2  0  0  0  0  0  0  0  0  0
    7.9612  -17.4339   17.8900 N   0  0  0  0  0  0  0  0  0  0  0  0
    8.6183  -16.7256   20.0745 C   0  0  0  0  0  0  0  0  0  0  0  0
    9.4392  -16.3645   20.9425 O   0  0  0  0  0  0  0  0  0  0  0  0
    7.3133  -17.0933   20.5102 N   0  0  0  0  0  0  0  0  0  0  0  0
    6.8968  -17.1311   21.8676 C   0  0  0  0  0  0  0  0  0  0  0  0
    7.6592  -16.3651   22.8329 C   0  0  0  0  0  0  0  0  0  0  0  0
    7.2469  -15.2080   23.1276 O   0  0  0  0  0  0  0  0  0  0  0  0
    8.8295  -16.8280   23.4662 N   0  0  0  0  0  0  0  0  0  0  0  0
    9.5946  -15.9970   24.3612 C   0  0  1  0  0  0  0  0  0  0  0  0
    9.0653  -15.8167   25.7343 C   0  0  0  0  0  0  0  0  0  0  0  0
    7.7510  -15.1808   25.8414 C   0  0  0  0  0  0  0  0  0  0  0  0
    6.4794  -15.6571   25.7111 C   0  0  0  0  0  0  0  0  0  0  0  0
    5.6113  -14.6375   25.9099 N   0  0  0  0  0  0  0  0  0  0  0  0
    6.2699  -13.5186   26.1643 C   0  0  0  0  0  0  0  0  0  0  0  0
    5.8576  -12.2193   26.4299 C   0  0  0  0  0  0  0  0  0  0  0  0
    6.8050  -11.2528   26.6546 C   0  0  0  0  0  0  0  0  0  0  0  0
    8.1373  -11.5449   26.6223 C   0  0  0  0  0  0  0  0  0  0  0  0
    8.5406  -12.8490   26.3558 C   0  0  0  0  0  0  0  0  0  0  0  0
    7.5991  -13.8137   26.1309 C   0  0  0  0  0  0  0  0  0  0  0  0
   10.9722  -16.6168   24.4550 C   0  0  0  0  0  0  0  0  0  0  0  0
   11.1670  -17.7231   23.9362 O   0  0  0  0  0  0  0  0  0  0  0  0
   12.0044  -15.9644   25.1098 O   0  0  0  0  0  0  0  0  0  0  0  0
  2  3  1  0
  2  1  1  0
  4  5  1  0
  4  3  1  0
  5  6  1  6
  5  7  1  0
  7  8  2  0
  9  7  1  0
  9 10  1  0
 11 10  1  0
 11 12  2  0
 13 11  1  0
 14 13  1  0
 14 15  1  1
 16 17  2  0
 16 15  1  0
 18 17  1  0
 19 24  2  0
 19 18  1  0
 20 19  1  0
 21 22  1  0
 21 20  2  0
 22 23  2  0
 23 24  1  0
 24 16  1  0
 25 14  1  0
 26 25  2  0
 27 25  1  0
M  END
$$$$
