MGW.pdb
     RDKit          3D

 27 28  0  0  1  0  0  0  0  0999 V2000
    8.1564  -12.0337   20.2165 C   0  0  0  0  0  0  0  0  0  0  0  0
    7.1791  -13.5246   20.0377 S   0  0  0  0  0  0  0  0  0  0  0  0
    8.0668  -14.9061   19.3257 C   0  0  0  0  0  0  0  0  0  0  0  0
    7.2578  -16.1873   19.2736 C   0  0  0  0  0  0  0  0  0  0  0  0
    7.5443  -16.9700   20.5609 C   0  0  2  0  0  0  0  0  0  0  0  0
    6.8789  -16.2886   21.6332 N   0  0  0  0  0  0  0  0  0  0  0  0
    9.0259  -16.9583   20.8285 C   0  0  0  0  0  0  0  0  0  0  0  0
    9.7920  -17.7380   20.2261 O   0  0  0  0  0  0  0  0  0  0  0  0
    9.6031  -16.0609   21.7717 N   0  0  0  0  0  0  0  0  0  0  0  0
   10.9454  -16.1271   22.2315 C   0  0  0  0  0  0  0  0  0  0  0  0
   11.1680  -16.3495   23.6460 C   0  0  0  0  0  0  0  0  0  0  0  0
   12.3523  -16.2682   24.0780 O   0  0  0  0  0  0  0  0  0  0  0  0
   10.1488  -16.6482   24.5717 N   0  0  0  0  0  0  0  0  0  0  0  0
   10.3408  -16.5062   25.9929 C   0  0  1  0  0  0  0  0  0  0  0  0
    9.6765  -15.3568   26.6530 C   0  0  0  0  0  0  0  0  0  0  0  0
    8.2730  -15.1333   26.3016 C   0  0  0  0  0  0  0  0  0  0  0  0
    7.2687  -15.9753   25.9229 C   0  0  0  0  0  0  0  0  0  0  0  0
    6.1475  -15.2464   25.7117 N   0  0  0  0  0  0  0  0  0  0  0  0
    6.3851  -13.9649   25.9389 C   0  0  0  0  0  0  0  0  0  0  0  0
    5.5896  -12.8289   25.8642 C   0  0  0  0  0  0  0  0  0  0  0  0
    6.1407  -11.6091   26.1649 C   0  0  0  0  0  0  0  0  0  0  0  0
    7.4490  -11.4939   26.5343 C   0  0  0  0  0  0  0  0  0  0  0  0
    8.2378  -12.6371   26.6065 C   0  0  0  0  0  0  0  0  0  0  0  0
    7.6916  -13.8536   26.3070 C   0  0  0  0  0  0  0  0  0  0  0  0
    9.8335  -17.7832   26.6274 C   0  0  0  0  0  0  0  0  0  0  0  0
    9.1047  -18.5320   25.9647 O   0  0  0  0  0  0  0  0  0  0  0  0
   10.1733  -18.1167   27.9286 O   0  0  0  0  0  0  0  0  0  0  0  0
  2  3  1  0
  2  1  1  0
  4  5  1  0
  4  3  1  0
  5  6  1  1
  5  7  1  0
  7  8  2  0
  9  7  1  0
  9 10  1  0
 11 10  1  0
 11 12  2  0
 13 11  1  0
 14 13  1  0
 14 15  1  1
 16 17  2  0
 16 15  1  0
 18 17  1  0
 19 24  2  0
 19 18  1  0
 20 19  1  0
 21 22  1  0
 21 20  2  0
 22 23  2  0
 23 24  1  0
 24 16  1  0
 25 14  1  0
 26 25  2  0
 27 25  1  0
M  END
$$$$
