MGW.pdb
     RDKit          3D

 27 28  0  0  1  0  0  0  0  0999 V2000
    7.6168  -11.5943   20.1370 C   0  0  0  0  0  0  0  0  0  0  0  0
    7.3494  -12.9375   18.9819 S   0  0  0  0  0  0  0  0  0  0  0  0
    7.2692  -14.5565   19.7409 C   0  0  0  0  0  0  0  0  0  0  0  0
    8.6155  -15.2454   19.8483 C   0  0  0  0  0  0  0  0  0  0  0  0
    8.4405  -16.4673   20.7585 C   0  0  2  0  0  0  0  0  0  0  0  0
    7.5726  -16.0800   21.8325 N   0  0  0  0  0  0  0  0  0  0  0  0
    9.7775  -16.8518   21.3343 C   0  0  0  0  0  0  0  0  0  0  0  0
   10.5594  -17.5901   20.7008 O   0  0  0  0  0  0  0  0  0  0  0  0
   10.1960  -16.3880   22.6140 N   0  0  0  0  0  0  0  0  0  0  0  0
   11.4581  -16.6704   23.2013 C   0  0  0  0  0  0  0  0  0  0  0  0
   11.4905  -17.0088   24.6100 C   0  0  0  0  0  0  0  0  0  0  0  0
   12.5892  -17.3935   25.1004 O   0  0  0  0  0  0  0  0  0  0  0  0
   10.3763  -16.9345   25.4691 N   0  0  0  0  0  0  0  0  0  0  0  0
   10.5137  -16.6642   26.8780 C   0  0  1  0  0  0  0  0  0  0  0  0
    9.6987  -15.5589   27.4367 C   0  0  0  0  0  0  0  0  0  0  0  0
    8.4359  -15.2776   26.7515 C   0  0  0  0  0  0  0  0  0  0  0  0
    7.4489  -16.0828   26.2633 C   0  0  0  0  0  0  0  0  0  0  0  0
    6.4861  -15.3054   25.7143 N   0  0  0  0  0  0  0  0  0  0  0  0
    6.8097  -14.0275   25.8276 C   0  0  0  0  0  0  0  0  0  0  0  0
    6.1788  -12.8547   25.4336 C   0  0  0  0  0  0  0  0  0  0  0  0
    6.7843  -11.6521   25.6966 C   0  0  0  0  0  0  0  0  0  0  0  0
    7.9882  -11.5891   26.3353 C   0  0  0  0  0  0  0  0  0  0  0  0
    8.6122  -12.7689   26.7265 C   0  0  0  0  0  0  0  0  0  0  0  0
    8.0117  -13.9685   26.4652 C   0  0  0  0  0  0  0  0  0  0  0  0
   10.1489  -17.9429   27.6010 C   0  0  0  0  0  0  0  0  0  0  0  0
    9.6233  -18.8626   26.9615 O   0  0  0  0  0  0  0  0  0  0  0  0
   10.3943  -18.0903   28.9567 O   0  0  0  0  0  0  0  0  0  0  0  0
  2  3  1  0
  2  1  1  0
  4  5  1  0
  4  3  1  0
  5  6  1  1
  5  7  1  0
  7  8  2  0
  9  7  1  0
  9 10  1  0
 11 10  1  0
 11 12  2  0
 13 11  1  0
 14 13  1  0
 14 15  1  1
 16 17  2  0
 16 15  1  0
 18 17  1  0
 19 24  2  0
 19 18  1  0
 20 19  1  0
 21 22  1  0
 21 20  2  0
 22 23  2  0
 23 24  1  0
 24 16  1  0
 25 14  1  0
 26 25  2  0
 27 25  1  0
M  END
$$$$
