VMM.pdb
     RDKit          3D

 24 23  0  0  1  0  0  0  0  0999 V2000
   22.0800  -18.9786  -13.8990 C   0  0  0  0  0  0  0  0  0  0  0  0
   23.1877  -18.1178  -14.4262 C   0  0  2  0  0  0  0  0  0  0  0  0
   22.6053  -17.1426  -15.4163 C   0  0  0  0  0  0  0  0  0  0  0  0
   24.2724  -18.9218  -15.0840 C   0  0  2  0  0  0  0  0  0  0  0  0
   23.7132  -19.6457  -16.2030 N   0  0  0  0  0  0  0  0  0  0  0  0
   24.9232  -19.8702  -14.1499 C   0  0  0  0  0  0  0  0  0  0  0  0
   24.3010  -20.8959  -13.7700 O   0  0  0  0  0  0  0  0  0  0  0  0
   30.5791  -22.2106  -14.1057 C   0  0  0  0  0  0  0  0  0  0  0  0
   30.6685  -21.9011  -12.3076 S   0  0  0  0  0  0  0  0  0  0  0  0
   28.9827  -21.5035  -11.7561 C   0  0  0  0  0  0  0  0  0  0  0  0
   28.3461  -20.6629  -12.8245 C   0  0  0  0  0  0  0  0  0  0  0  0
   26.8632  -20.4599  -12.6194 C   0  0  2  0  0  0  0  0  0  0  0  0
   26.2403  -19.6809  -13.6489 N   0  0  0  0  0  0  0  0  0  0  0  0
   26.6989  -19.8442  -11.2699 C   0  0  0  0  0  0  0  0  0  0  0  0
   27.4818  -18.9234  -10.9192 O   0  0  0  0  0  0  0  0  0  0  0  0
   28.0887  -19.0892   -4.1730 C   0  0  0  0  0  0  0  0  0  0  0  0
   27.7151  -18.5784   -5.8624 S   0  0  0  0  0  0  0  0  0  0  0  0
   26.8975  -19.8492   -6.7987 C   0  0  0  0  0  0  0  0  0  0  0  0
   26.7106  -19.6354   -8.2513 C   0  0  0  0  0  0  0  0  0  0  0  0
   26.0239  -20.7092   -8.9776 C   0  0  2  0  0  0  0  0  0  0  0  0
   25.7001  -20.2468  -10.3584 N   0  0  0  0  0  0  0  0  0  0  0  0
   24.7773  -21.1630   -8.3820 C   0  0  0  0  0  0  0  0  0  0  0  0
   23.7032  -21.0657   -9.0988 O   0  0  0  0  0  0  0  0  0  0  0  0
   24.5658  -21.7029   -7.1352 O   0  0  0  0  0  0  0  0  0  0  0  0
  2  1  1  6
  2  4  1  0
  3  2  1  0
  4  5  1  6
  4  6  1  0
  6  7  2  0
  9  8  1  0
 10  9  1  0
 12 11  1  6
 11 10  1  0
 12 14  1  0
 13  6  1  0
 13 12  1  0
 14 15  2  0
 16 17  1  0
 17 18  1  0
 18 19  1  0
 20 19  1  1
 20 22  1  0
 21 20  1  0
 21 14  1  0
 22 23  2  0
 22 24  1  0
M  END
$$$$
