VMM.pdb
     RDKit          3D

 24 23  0  0  1  0  0  0  0  0999 V2000
   14.3452  -10.9700  -14.7521 C   0  0  0  0  0  0  0  0  0  0  0  0
   15.5151  -10.4890  -15.5556 C   0  0  2  0  0  0  0  0  0  0  0  0
   15.3160  -10.9096  -16.9887 C   0  0  0  0  0  0  0  0  0  0  0  0
   16.8200  -11.0295  -15.0448 C   0  0  2  0  0  0  0  0  0  0  0  0
   16.7714  -12.4739  -15.0562 N   0  0  0  0  0  0  0  0  0  0  0  0
   17.1382  -10.5507  -13.6791 C   0  0  0  0  0  0  0  0  0  0  0  0
   16.8803  -11.2811  -12.6873 O   0  0  0  0  0  0  0  0  0  0  0  0
   22.1086   -7.0659  -13.9767 C   0  0  0  0  0  0  0  0  0  0  0  0
   22.1678   -8.0534  -12.4411 S   0  0  0  0  0  0  0  0  0  0  0  0
   20.6489   -9.0509  -12.3962 C   0  0  0  0  0  0  0  0  0  0  0  0
   19.5004   -8.1118  -12.1674 C   0  0  0  0  0  0  0  0  0  0  0  0
   18.1587   -8.8057  -12.1405 C   0  0  2  0  0  0  0  0  0  0  0  0
   17.7317   -9.2844  -13.4224 N   0  0  0  0  0  0  0  0  0  0  0  0
   17.1888   -7.8377  -11.5492 C   0  0  0  0  0  0  0  0  0  0  0  0
   16.6937   -6.9436  -12.2835 O   0  0  0  0  0  0  0  0  0  0  0  0
   11.4616   -6.8391   -6.2116 C   0  0  0  0  0  0  0  0  0  0  0  0
   12.8128   -7.8564   -6.8395 S   0  0  0  0  0  0  0  0  0  0  0  0
   13.8395   -6.9908   -8.0043 C   0  0  0  0  0  0  0  0  0  0  0  0
   14.9356   -7.7390   -8.6596 C   0  0  0  0  0  0  0  0  0  0  0  0
   15.7158   -6.9975   -9.6564 C   0  0  2  0  0  0  0  0  0  0  0  0
   16.7955   -7.8748  -10.1949 N   0  0  0  0  0  0  0  0  0  0  0  0
   16.3596   -5.7889   -9.1671 C   0  0  0  0  0  0  0  0  0  0  0  0
   17.6167   -5.8629   -8.8648 O   0  0  0  0  0  0  0  0  0  0  0  0
   15.8160   -4.5400   -8.9793 O   0  0  0  0  0  0  0  0  0  0  0  0
  2  1  1  1
  2  4  1  0
  3  2  1  0
  4  5  1  1
  4  6  1  0
  6  7  2  0
  9  8  1  0
 10  9  1  0
 12 11  1  6
 11 10  1  0
 12 14  1  0
 13  6  1  0
 13 12  1  0
 14 15  2  0
 16 17  1  0
 17 18  1  0
 18 19  1  0
 20 19  1  1
 20 22  1  0
 21 20  1  0
 21 14  1  0
 22 23  2  0
 22 24  1  0
M  END
$$$$
