VMM.pdb
     RDKit          3D

 24 23  0  0  1  0  0  0  0  0999 V2000
   26.2509  -18.8413  -15.2442 C   0  0  0  0  0  0  0  0  0  0  0  0
   26.8009  -20.0981  -15.8471 C   0  0  2  0  0  0  0  0  0  0  0  0
   25.6717  -20.8444  -16.5094 C   0  0  0  0  0  0  0  0  0  0  0  0
   27.4620  -20.9797  -14.8266 C   0  0  2  0  0  0  0  0  0  0  0  0
   27.9057  -22.1965  -15.4680 N   0  0  0  0  0  0  0  0  0  0  0  0
   26.5655  -21.3097  -13.6940 C   0  0  0  0  0  0  0  0  0  0  0  0
   25.7337  -22.2467  -13.8107 O   0  0  0  0  0  0  0  0  0  0  0  0
   27.6661  -20.2913   -7.1512 C   0  0  0  0  0  0  0  0  0  0  0  0
   25.9940  -19.6189   -7.4492 S   0  0  0  0  0  0  0  0  0  0  0  0
   25.3158  -20.5071   -8.8829 C   0  0  0  0  0  0  0  0  0  0  0  0
   26.1644  -20.1584  -10.0710 C   0  0  0  0  0  0  0  0  0  0  0  0
   25.7263  -20.8500  -11.3406 C   0  0  2  0  0  0  0  0  0  0  0  0
   26.5943  -20.6109  -12.4561 N   0  0  0  0  0  0  0  0  0  0  0  0
   24.3278  -20.4039  -11.6094 C   0  0  0  0  0  0  0  0  0  0  0  0
   24.1306  -19.2373  -12.0384 O   0  0  0  0  0  0  0  0  0  0  0  0
   18.2205  -23.8593  -10.6542 C   0  0  0  0  0  0  0  0  0  0  0  0
   18.4341  -23.1175  -12.2849 S   0  0  0  0  0  0  0  0  0  0  0  0
   19.5557  -21.7384  -12.2699 C   0  0  0  0  0  0  0  0  0  0  0  0
   20.9725  -21.9944  -11.9264 C   0  0  0  0  0  0  0  0  0  0  0  0
   21.8250  -20.8092  -11.7831 C   0  0  2  0  0  0  0  0  0  0  0  0
   23.2045  -21.2324  -11.4046 N   0  0  0  0  0  0  0  0  0  0  0  0
   21.3894  -19.8486  -10.7819 C   0  0  0  0  0  0  0  0  0  0  0  0
   21.9606  -19.8962   -9.6207 O   0  0  0  0  0  0  0  0  0  0  0  0
   20.4370  -18.8629  -10.8922 O   0  0  0  0  0  0  0  0  0  0  0  0
  2  1  1  1
  2  4  1  0
  3  2  1  0
  4  5  1  6
  4  6  1  0
  6  7  2  0
  9  8  1  0
 10  9  1  0
 12 11  1  1
 11 10  1  0
 12 14  1  0
 13  6  1  0
 13 12  1  0
 14 15  2  0
 16 17  1  0
 17 18  1  0
 18 19  1  0
 20 19  1  1
 20 22  1  0
 21 20  1  0
 21 14  1  0
 22 23  2  0
 22 24  1  0
M  END
$$$$
