VMM.pdb
     RDKit          3D

 24 23  0  0  1  0  0  0  0  0999 V2000
   25.1426  -16.3766  -17.8066 C   0  0  0  0  0  0  0  0  0  0  0  0
   23.9248  -16.9793  -17.1746 C   0  0  2  0  0  0  0  0  0  0  0  0
   24.3519  -17.7475  -15.9507 C   0  0  0  0  0  0  0  0  0  0  0  0
   23.1855  -17.8899  -18.1128 C   0  0  2  0  0  0  0  0  0  0  0  0
   22.8414  -17.1578  -19.3105 N   0  0  0  0  0  0  0  0  0  0  0  0
   21.9598  -18.4588  -17.5050 C   0  0  0  0  0  0  0  0  0  0  0  0
   20.9853  -17.7055  -17.2470 O   0  0  0  0  0  0  0  0  0  0  0  0
   19.0776  -23.8954  -18.4348 C   0  0  0  0  0  0  0  0  0  0  0  0
   18.4006  -22.3909  -19.2190 S   0  0  0  0  0  0  0  0  0  0  0  0
   19.1624  -20.9698  -18.3798 C   0  0  0  0  0  0  0  0  0  0  0  0
   20.0080  -21.5075  -17.2621 C   0  0  0  0  0  0  0  0  0  0  0  0
   20.7233  -20.4287  -16.4831 C   0  0  2  0  0  0  0  0  0  0  0  0
   21.8213  -19.8385  -17.1909 N   0  0  0  0  0  0  0  0  0  0  0  0
   21.1511  -21.0455  -15.1932 C   0  0  0  0  0  0  0  0  0  0  0  0
   22.2144  -21.7178  -15.1607 O   0  0  0  0  0  0  0  0  0  0  0  0
   24.3199  -21.1444   -8.5093 C   0  0  0  0  0  0  0  0  0  0  0  0
   23.7882  -20.3966  -10.0626 S   0  0  0  0  0  0  0  0  0  0  0  0
   22.4584  -21.2890  -10.8341 C   0  0  0  0  0  0  0  0  0  0  0  0
   21.9531  -20.8007  -12.1367 C   0  0  0  0  0  0  0  0  0  0  0  0
   20.8441  -21.5608  -12.7237 C   0  0  2  0  0  0  0  0  0  0  0  0
   20.4158  -20.9116  -13.9967 N   0  0  0  0  0  0  0  0  0  0  0  0
   19.6588  -21.6742  -11.8888 C   0  0  0  0  0  0  0  0  0  0  0  0
   18.7112  -20.8118  -12.0775 O   0  0  0  0  0  0  0  0  0  0  0  0
   19.3846  -22.5939  -10.9042 O   0  0  0  0  0  0  0  0  0  0  0  0
  2  1  1  6
  2  4  1  0
  3  2  1  0
  4  5  1  6
  4  6  1  0
  6  7  2  0
  9  8  1  0
 10  9  1  0
 12 11  1  6
 11 10  1  0
 12 14  1  0
 13  6  1  0
 13 12  1  0
 14 15  2  0
 16 17  1  0
 17 18  1  0
 18 19  1  0
 20 19  1  1
 20 22  1  0
 21 20  1  0
 21 14  1  0
 22 23  2  0
 22 24  1  0
M  END
$$$$
