VMM.pdb
     RDKit          3D

 24 23  0  0  1  0  0  0  0  0999 V2000
   24.6994  -16.9433  -18.8732 C   0  0  0  0  0  0  0  0  0  0  0  0
   24.1112  -17.9931  -17.9800 C   0  0  2  0  0  0  0  0  0  0  0  0
   23.0060  -17.3666  -17.1698 C   0  0  0  0  0  0  0  0  0  0  0  0
   25.1329  -18.5993  -17.0611 C   0  0  2  0  0  0  0  0  0  0  0  0
   26.1874  -19.1934  -17.8512 N   0  0  0  0  0  0  0  0  0  0  0  0
   24.5508  -19.6186  -16.1569 C   0  0  0  0  0  0  0  0  0  0  0  0
   24.1686  -20.7219  -16.6262 O   0  0  0  0  0  0  0  0  0  0  0  0
   26.3393  -20.9325  -10.1296 C   0  0  0  0  0  0  0  0  0  0  0  0
   24.5339  -20.9433   -9.8516 S   0  0  0  0  0  0  0  0  0  0  0  0
   23.7521  -21.2053  -11.4717 C   0  0  0  0  0  0  0  0  0  0  0  0
   24.3666  -20.2281  -12.4312 C   0  0  0  0  0  0  0  0  0  0  0  0
   23.8214  -20.3474  -13.8351 C   0  0  2  0  0  0  0  0  0  0  0  0
   24.3973  -19.4141  -14.7582 N   0  0  0  0  0  0  0  0  0  0  0  0
   22.3402  -20.1967  -13.7324 C   0  0  0  0  0  0  0  0  0  0  0  0
   21.8589  -19.0677  -13.4544 O   0  0  0  0  0  0  0  0  0  0  0  0
   15.5522  -19.5507  -15.6883 C   0  0  0  0  0  0  0  0  0  0  0  0
   17.3501  -19.6440  -15.5722 S   0  0  0  0  0  0  0  0  0  0  0  0
   17.9383  -21.3075  -15.3551 C   0  0  0  0  0  0  0  0  0  0  0  0
   19.3938  -21.5170  -15.1865 C   0  0  0  0  0  0  0  0  0  0  0  0
   19.9637  -21.0801  -13.9073 C   0  0  2  0  0  0  0  0  0  0  0  0
   21.4435  -21.2673  -13.9331 N   0  0  0  0  0  0  0  0  0  0  0  0
   19.4703  -21.7848  -12.7348 C   0  0  0  0  0  0  0  0  0  0  0  0
   20.0266  -22.9166  -12.4406 O   0  0  0  0  0  0  0  0  0  0  0  0
   18.4751  -21.4118  -11.8623 O   0  0  0  0  0  0  0  0  0  0  0  0
  2  1  1  1
  2  4  1  0
  3  2  1  0
  4  5  1  6
  4  6  1  0
  6  7  2  0
  9  8  1  0
 10  9  1  0
 12 11  1  1
 11 10  1  0
 12 14  1  0
 13  6  1  0
 13 12  1  0
 14 15  2  0
 16 17  1  0
 17 18  1  0
 18 19  1  0
 20 19  1  6
 20 22  1  0
 21 20  1  0
 21 14  1  0
 22 23  2  0
 22 24  1  0
M  END
$$$$
