FMC.pdb
     RDKit          3D

 26 26  0  0  1  0  0  0  0  0999 V2000
   16.8079  -23.1949  -10.0269 N   0  0  0  0  0  0  0  0  0  0  0  0
   17.0888  -24.0603   -8.9036 C   0  0  1  0  0  0  0  0  0  0  0  0
   18.5598  -24.0854   -8.6249 C   0  0  0  0  0  0  0  0  0  0  0  0
   19.2294  -24.7611   -9.7621 C   0  0  0  0  0  0  0  0  0  0  0  0
   19.7726  -23.9689  -10.7507 C   0  0  0  0  0  0  0  0  0  0  0  0
   20.4175  -24.5019  -11.8521 C   0  0  0  0  0  0  0  0  0  0  0  0
   20.5212  -25.8735  -11.9663 C   0  0  0  0  0  0  0  0  0  0  0  0
   19.9852  -26.6968  -10.9890 C   0  0  0  0  0  0  0  0  0  0  0  0
   19.3438  -26.1271   -9.8954 C   0  0  0  0  0  0  0  0  0  0  0  0
   16.2668  -23.6480   -7.7589 C   0  0  0  0  0  0  0  0  0  0  0  0
   16.3574  -22.4407   -7.3723 O   0  0  0  0  0  0  0  0  0  0  0  0
   10.9061  -21.3567   -7.4443 C   0  0  0  0  0  0  0  0  0  0  0  0
   10.7428  -22.5700   -6.1228 S   0  0  0  0  0  0  0  0  0  0  0  0
   12.3680  -22.9894   -5.4665 C   0  0  0  0  0  0  0  0  0  0  0  0
   13.2937  -23.6525   -6.4216 C   0  0  0  0  0  0  0  0  0  0  0  0
   14.6161  -23.9822   -5.8775 C   0  0  2  0  0  0  0  0  0  0  0  0
   15.3910  -24.4662   -7.0540 N   0  0  0  0  0  0  0  0  0  0  0  0
   14.7982  -24.9842   -4.8652 C   0  0  0  0  0  0  0  0  0  0  0  0
   14.8571  -26.2021   -5.1493 O   0  0  0  0  0  0  0  0  0  0  0  0
   14.9269  -24.6892   -3.4622 N   0  0  0  0  0  0  0  0  0  0  0  0
   15.1043  -25.7016   -2.4523 C   0  0  1  0  0  0  0  0  0  0  0  0
   16.1225  -25.1931   -1.4547 C   0  0  0  0  0  0  0  0  0  0  0  0
   15.9505  -23.3914   -1.3329 S   0  0  0  0  0  0  0  0  0  0  0  0
   13.8255  -26.0560   -1.7932 C   0  0  0  0  0  0  0  0  0  0  0  0
   13.7808  -27.1820   -0.9835 O   0  0  0  0  0  0  0  0  0  0  0  0
   12.8324  -25.3126   -2.0008 O   0  0  0  0  0  0  0  0  0  0  0  0
  2  1  1  6
  3  2  1  0
  3  4  1  0
  4  5  2  0
  5  6  1  0
  7  6  2  0
  8  7  1  0
  9  4  1  0
  9  8  2  0
 10  2  1  0
 10 11  2  0
 12 13  1  0
 14 15  1  0
 14 13  1  0
 16 15  1  6
 16 18  1  0
 16 17  1  0
 17 10  1  0
 18 20  1  0
 19 18  2  0
 20 21  1  0
 21 24  1  0
 21 22  1  1
 23 22  1  0
 24 26  2  0
 24 25  1  0
M  END
$$$$
