FMC.pdb
     RDKit          3D

 26 26  0  0  1  0  0  0  0  0999 V2000
   34.6124  -26.6136  -19.2596 N   0  0  0  0  0  0  0  0  0  0  0  0
   35.4391  -27.7760  -19.4945 C   0  0  1  0  0  0  0  0  0  0  0  0
   36.4749  -27.4731  -20.5325 C   0  0  0  0  0  0  0  0  0  0  0  0
   35.7729  -27.0865  -21.7799 C   0  0  0  0  0  0  0  0  0  0  0  0
   35.0877  -28.0686  -22.4624 C   0  0  0  0  0  0  0  0  0  0  0  0
   34.4014  -27.8102  -23.6352 C   0  0  0  0  0  0  0  0  0  0  0  0
   34.4019  -26.5257  -24.1402 C   0  0  0  0  0  0  0  0  0  0  0  0
   35.0816  -25.5164  -23.4771 C   0  0  0  0  0  0  0  0  0  0  0  0
   35.7608  -25.8116  -22.3009 C   0  0  0  0  0  0  0  0  0  0  0  0
   35.9883  -28.2444  -18.2158 C   0  0  0  0  0  0  0  0  0  0  0  0
   37.0916  -28.8745  -18.2433 O   0  0  0  0  0  0  0  0  0  0  0  0
   35.3158  -25.5276  -12.4505 C   0  0  0  0  0  0  0  0  0  0  0  0
   36.6999  -25.1665  -13.5453 S   0  0  0  0  0  0  0  0  0  0  0  0
   36.8188  -26.4289  -14.8259 C   0  0  0  0  0  0  0  0  0  0  0  0
   35.8305  -27.5347  -14.7301 C   0  0  0  0  0  0  0  0  0  0  0  0
   36.0008  -28.6073  -15.7169 C   0  0  2  0  0  0  0  0  0  0  0  0
   35.4051  -28.0590  -16.9673 N   0  0  0  0  0  0  0  0  0  0  0  0
   35.4042  -29.9026  -15.5488 C   0  0  0  0  0  0  0  0  0  0  0  0
   34.2932  -30.0468  -14.9901 O   0  0  0  0  0  0  0  0  0  0  0  0
   36.0134  -31.1276  -15.9963 N   0  0  0  0  0  0  0  0  0  0  0  0
   35.3621  -32.4108  -15.9202 C   0  0  1  0  0  0  0  0  0  0  0  0
   34.1274  -32.3606  -16.7939 C   0  0  0  0  0  0  0  0  0  0  0  0
   33.2316  -33.9267  -16.6052 S   0  0  0  0  0  0  0  0  0  0  0  0
   36.2666  -33.5150  -16.3178 C   0  0  0  0  0  0  0  0  0  0  0  0
   37.4009  -33.2154  -17.0589 O   0  0  0  0  0  0  0  0  0  0  0  0
   35.9605  -34.6817  -15.9615 O   0  0  0  0  0  0  0  0  0  0  0  0
  2  1  1  1
  3  2  1  0
  3  4  1  0
  4  5  2  0
  5  6  1  0
  7  6  2  0
  8  7  1  0
  9  4  1  0
  9  8  2  0
 10  2  1  0
 10 11  2  0
 12 13  1  0
 14 15  1  0
 14 13  1  0
 16 15  1  1
 16 18  1  0
 16 17  1  0
 17 10  1  0
 18 20  1  0
 19 18  2  0
 20 21  1  0
 21 24  1  0
 21 22  1  6
 23 22  1  0
 24 26  2  0
 24 25  1  0
M  END
$$$$
