FMC.pdb
     RDKit          3D

 26 26  0  0  1  0  0  0  0  0999 V2000
   22.5821  -20.2520  -15.5587 N   0  0  0  0  0  0  0  0  0  0  0  0
   23.8470  -19.8090  -15.0170 C   0  0  1  0  0  0  0  0  0  0  0  0
   24.3560  -18.6308  -15.7883 C   0  0  0  0  0  0  0  0  0  0  0  0
   24.6399  -19.0785  -17.1729 C   0  0  0  0  0  0  0  0  0  0  0  0
   25.6440  -20.0050  -17.3555 C   0  0  0  0  0  0  0  0  0  0  0  0
   25.9856  -20.4857  -18.6067 C   0  0  0  0  0  0  0  0  0  0  0  0
   25.2984  -20.0228  -19.7105 C   0  0  0  0  0  0  0  0  0  0  0  0
   24.2836  -19.0913  -19.5597 C   0  0  0  0  0  0  0  0  0  0  0  0
   23.9666  -18.6297  -18.2875 C   0  0  0  0  0  0  0  0  0  0  0  0
   23.6969  -19.5656  -13.5768 C   0  0  0  0  0  0  0  0  0  0  0  0
   22.7978  -18.7468  -13.2077 O   0  0  0  0  0  0  0  0  0  0  0  0
   20.1989  -22.1319  -10.7789 C   0  0  0  0  0  0  0  0  0  0  0  0
   20.3640  -20.6723   -9.7363 S   0  0  0  0  0  0  0  0  0  0  0  0
   21.9117  -19.8248  -10.1026 C   0  0  0  0  0  0  0  0  0  0  0  0
   22.9016  -20.6079  -10.8872 C   0  0  0  0  0  0  0  0  0  0  0  0
   24.1813  -19.9303  -11.1256 C   0  0  2  0  0  0  0  0  0  0  0  0
   24.4562  -20.1552  -12.5722 N   0  0  0  0  0  0  0  0  0  0  0  0
   25.3872  -20.3131  -10.4464 C   0  0  0  0  0  0  0  0  0  0  0  0
   26.1387  -21.2078  -10.8959 O   0  0  0  0  0  0  0  0  0  0  0  0
   25.8341  -19.7182   -9.2142 N   0  0  0  0  0  0  0  0  0  0  0  0
   26.4836  -20.4618   -8.1647 C   0  0  1  0  0  0  0  0  0  0  0  0
   27.0669  -19.4701   -7.1815 C   0  0  0  0  0  0  0  0  0  0  0  0
   27.2984  -17.8877   -8.0376 S   0  0  0  0  0  0  0  0  0  0  0  0
   25.5558  -21.4067   -7.5001 C   0  0  0  0  0  0  0  0  0  0  0  0
   26.0590  -22.2732   -6.5401 O   0  0  0  0  0  0  0  0  0  0  0  0
   24.3454  -21.3783   -7.8408 O   0  0  0  0  0  0  0  0  0  0  0  0
  2  1  1  6
  3  2  1  0
  3  4  1  0
  4  5  2  0
  5  6  1  0
  7  6  2  0
  8  7  1  0
  9  4  1  0
  9  8  2  0
 10  2  1  0
 10 11  2  0
 12 13  1  0
 14 15  1  0
 14 13  1  0
 16 15  1  1
 16 18  1  0
 16 17  1  0
 17 10  1  0
 18 20  1  0
 19 18  2  0
 20 21  1  0
 21 24  1  0
 21 22  1  1
 23 22  1  0
 24 26  2  0
 24 25  1  0
M  END
$$$$
