FMC.pdb
     RDKit          3D

 26 26  0  0  1  0  0  0  0  0999 V2000
   28.4365  -20.8957  -15.7836 N   0  0  0  0  0  0  0  0  0  0  0  0
   27.6000  -19.9584  -15.0684 C   0  0  1  0  0  0  0  0  0  0  0  0
   26.7887  -19.1491  -16.0322 C   0  0  0  0  0  0  0  0  0  0  0  0
   27.5096  -17.8778  -16.2820 C   0  0  0  0  0  0  0  0  0  0  0  0
   28.2901  -17.7937  -17.4150 C   0  0  0  0  0  0  0  0  0  0  0  0
   29.0018  -16.6524  -17.7375 C   0  0  0  0  0  0  0  0  0  0  0  0
   28.9288  -15.5600  -16.8970 C   0  0  0  0  0  0  0  0  0  0  0  0
   28.1527  -15.6135  -15.7502 C   0  0  0  0  0  0  0  0  0  0  0  0
   27.4505  -16.7766  -15.4569 C   0  0  0  0  0  0  0  0  0  0  0  0
   26.8022  -20.6852  -14.0728 C   0  0  0  0  0  0  0  0  0  0  0  0
   26.2411  -21.7646  -14.4407 O   0  0  0  0  0  0  0  0  0  0  0  0
   27.4853  -20.3586   -7.6863 C   0  0  0  0  0  0  0  0  0  0  0  0
   25.7076  -20.6454   -7.7360 S   0  0  0  0  0  0  0  0  0  0  0  0
   25.2054  -21.1170   -9.4012 C   0  0  0  0  0  0  0  0  0  0  0  0
   26.0616  -20.5992  -10.5001 C   0  0  0  0  0  0  0  0  0  0  0  0
   25.6405  -20.9873  -11.8513 C   0  0  2  0  0  0  0  0  0  0  0  0
   26.6036  -20.2958  -12.7529 N   0  0  0  0  0  0  0  0  0  0  0  0
   24.3397  -20.6668  -12.3683 C   0  0  0  0  0  0  0  0  0  0  0  0
   24.0233  -19.4935  -12.6695 O   0  0  0  0  0  0  0  0  0  0  0  0
   23.3024  -21.6413  -12.5834 N   0  0  0  0  0  0  0  0  0  0  0  0
   22.0126  -21.3168  -13.1379 C   0  0  1  0  0  0  0  0  0  0  0  0
   21.7322  -22.2853  -14.2666 C   0  0  0  0  0  0  0  0  0  0  0  0
   21.9442  -23.9727  -13.6356 S   0  0  0  0  0  0  0  0  0  0  0  0
   20.9443  -21.3518  -12.1118 C   0  0  0  0  0  0  0  0  0  0  0  0
   21.2585  -21.7957  -10.8352 O   0  0  0  0  0  0  0  0  0  0  0  0
   19.7932  -20.9742  -12.4497 O   0  0  0  0  0  0  0  0  0  0  0  0
  2  1  1  6
  3  2  1  0
  3  4  1  0
  4  5  2  0
  5  6  1  0
  7  6  2  0
  8  7  1  0
  9  4  1  0
  9  8  2  0
 10  2  1  0
 10 11  2  0
 12 13  1  0
 14 15  1  0
 14 13  1  0
 16 15  1  1
 16 18  1  0
 16 17  1  0
 17 10  1  0
 18 20  1  0
 19 18  2  0
 20 21  1  0
 21 24  1  0
 21 22  1  6
 23 22  1  0
 24 26  2  0
 24 25  1  0
M  END
$$$$
