FMC.pdb
     RDKit          3D

 26 26  0  0  1  0  0  0  0  0999 V2000
   22.7767  -17.5220  -17.7177 N   0  0  0  0  0  0  0  0  0  0  0  0
   21.8821  -16.3941  -17.5860 C   0  0  1  0  0  0  0  0  0  0  0  0
   20.7606  -16.7295  -16.6522 C   0  0  0  0  0  0  0  0  0  0  0  0
   19.8961  -17.7335  -17.3177 C   0  0  0  0  0  0  0  0  0  0  0  0
   19.9521  -19.0330  -16.8615 C   0  0  0  0  0  0  0  0  0  0  0  0
   19.1860  -20.0429  -17.4149 C   0  0  0  0  0  0  0  0  0  0  0  0
   18.3362  -19.7403  -18.4596 C   0  0  0  0  0  0  0  0  0  0  0  0
   18.2573  -18.4432  -18.9408 C   0  0  0  0  0  0  0  0  0  0  0  0
   19.0417  -17.4530  -18.3608 C   0  0  0  0  0  0  0  0  0  0  0  0
   22.6547  -15.2079  -17.1964 C   0  0  0  0  0  0  0  0  0  0  0  0
   23.5548  -15.3549  -16.3113 O   0  0  0  0  0  0  0  0  0  0  0  0
   26.3862  -11.4759  -20.6252 C   0  0  0  0  0  0  0  0  0  0  0  0
   26.1583  -13.2487  -20.4015 S   0  0  0  0  0  0  0  0  0  0  0  0
   25.1938  -13.5633  -18.9121 C   0  0  0  0  0  0  0  0  0  0  0  0
   24.1568  -12.5477  -18.5931 C   0  0  0  0  0  0  0  0  0  0  0  0
   23.3974  -12.8002  -17.3630 C   0  0  2  0  0  0  0  0  0  0  0  0
   22.4889  -13.9276  -17.7128 N   0  0  0  0  0  0  0  0  0  0  0  0
   22.5528  -11.8032  -16.7675 C   0  0  0  0  0  0  0  0  0  0  0  0
   21.3976  -11.5800  -17.1954 O   0  0  0  0  0  0  0  0  0  0  0  0
   22.9461  -10.9862  -15.6496 N   0  0  0  0  0  0  0  0  0  0  0  0
   22.1177   -9.9432  -15.0997 C   0  0  1  0  0  0  0  0  0  0  0  0
   22.2227  -10.0094  -13.5914 C   0  0  0  0  0  0  0  0  0  0  0  0
   21.3052   -8.6084  -12.8942 S   0  0  0  0  0  0  0  0  0  0  0  0
   22.4966   -8.6064  -15.6142 C   0  0  0  0  0  0  0  0  0  0  0  0
   21.5298   -7.6125  -15.6679 O   0  0  0  0  0  0  0  0  0  0  0  0
   23.6873   -8.4345  -15.9812 O   0  0  0  0  0  0  0  0  0  0  0  0
  2  1  1  1
  3  2  1  0
  3  4  1  0
  4  5  2  0
  5  6  1  0
  7  6  2  0
  8  7  1  0
  9  4  1  0
  9  8  2  0
 10  2  1  0
 10 11  2  0
 12 13  1  0
 14 15  1  0
 14 13  1  0
 16 15  1  6
 16 18  1  0
 16 17  1  0
 17 10  1  0
 18 20  1  0
 19 18  2  0
 20 21  1  0
 21 24  1  0
 21 22  1  1
 23 22  1  0
 24 26  2  0
 24 25  1  0
M  END
$$$$
