FMC.pdb
     RDKit          3D

 26 26  0  0  1  0  0  0  0  0999 V2000
   37.3463   -6.8819  -13.4126 N   0  0  0  0  0  0  0  0  0  0  0  0
   38.1564   -6.2503  -12.3956 C   0  0  1  0  0  0  0  0  0  0  0  0
   37.5270   -4.9642  -11.9575 C   0  0  0  0  0  0  0  0  0  0  0  0
   37.7424   -3.9615  -13.0282 C   0  0  0  0  0  0  0  0  0  0  0  0
   36.6404   -3.2858  -13.5068 C   0  0  0  0  0  0  0  0  0  0  0  0
   36.7355   -2.3321  -14.5041 C   0  0  0  0  0  0  0  0  0  0  0  0
   37.9755   -2.0464  -15.0390 C   0  0  0  0  0  0  0  0  0  0  0  0
   39.1024   -2.7088  -14.5789 C   0  0  0  0  0  0  0  0  0  0  0  0
   38.9701   -3.6615  -13.5755 C   0  0  0  0  0  0  0  0  0  0  0  0
   38.3945   -7.2051  -11.3058 C   0  0  0  0  0  0  0  0  0  0  0  0
   37.3886   -7.5980  -10.6358 O   0  0  0  0  0  0  0  0  0  0  0  0
   41.6735  -11.4627  -13.1370 C   0  0  0  0  0  0  0  0  0  0  0  0
   40.3229  -12.0617  -12.1064 S   0  0  0  0  0  0  0  0  0  0  0  0
   39.5328  -10.6802  -11.2609 C   0  0  0  0  0  0  0  0  0  0  0  0
   40.4267   -9.8548  -10.4074 C   0  0  0  0  0  0  0  0  0  0  0  0
   39.7950   -8.6753   -9.8047 C   0  0  2  0  0  0  0  0  0  0  0  0
   39.6316   -7.7224  -10.9379 N   0  0  0  0  0  0  0  0  0  0  0  0
   40.4275   -7.9186   -8.7611 C   0  0  0  0  0  0  0  0  0  0  0  0
   40.5517   -8.3746   -7.6017 O   0  0  0  0  0  0  0  0  0  0  0  0
   40.9652   -6.5962   -8.9457 N   0  0  0  0  0  0  0  0  0  0  0  0
   41.6483   -5.8662   -7.9079 C   0  0  1  0  0  0  0  0  0  0  0  0
   42.8436   -5.1775   -8.5303 C   0  0  0  0  0  0  0  0  0  0  0  0
   42.2525   -4.1178   -9.8787 S   0  0  0  0  0  0  0  0  0  0  0  0
   40.7533   -4.8987   -7.2309 C   0  0  0  0  0  0  0  0  0  0  0  0
   41.1103   -4.4223   -5.9775 O   0  0  0  0  0  0  0  0  0  0  0  0
   39.7030   -4.5520   -7.8300 O   0  0  0  0  0  0  0  0  0  0  0  0
  2  1  1  6
  3  2  1  0
  3  4  1  0
  4  5  2  0
  5  6  1  0
  7  6  2  0
  8  7  1  0
  9  4  1  0
  9  8  2  0
 10  2  1  0
 10 11  2  0
 12 13  1  0
 14 15  1  0
 14 13  1  0
 16 15  1  6
 16 18  1  0
 16 17  1  0
 17 10  1  0
 18 20  1  0
 19 18  2  0
 20 21  1  0
 21 24  1  0
 21 22  1  6
 23 22  1  0
 24 26  2  0
 24 25  1  0
M  END
$$$$
