FMC.pdb
     RDKit          3D

 26 26  0  0  1  0  0  0  0  0999 V2000
   18.4095   -9.0256  -13.4356 N   0  0  0  0  0  0  0  0  0  0  0  0
   18.7670   -8.5710  -12.1108 C   0  0  1  0  0  0  0  0  0  0  0  0
   19.9902   -7.7095  -12.1720 C   0  0  0  0  0  0  0  0  0  0  0  0
   21.0935   -8.5214  -12.7392 C   0  0  0  0  0  0  0  0  0  0  0  0
   21.5853   -9.5591  -11.9768 C   0  0  0  0  0  0  0  0  0  0  0  0
   22.6127  -10.3745  -12.4156 C   0  0  0  0  0  0  0  0  0  0  0  0
   23.1652  -10.1422  -13.6589 C   0  0  0  0  0  0  0  0  0  0  0  0
   22.6926   -9.1067  -14.4492 C   0  0  0  0  0  0  0  0  0  0  0  0
   21.6587   -8.3068  -13.9767 C   0  0  0  0  0  0  0  0  0  0  0  0
   17.6042   -7.9212  -11.4930 C   0  0  0  0  0  0  0  0  0  0  0  0
   16.8492   -7.2265  -12.2431 O   0  0  0  0  0  0  0  0  0  0  0  0
   11.2482   -8.5483   -7.9848 C   0  0  0  0  0  0  0  0  0  0  0  0
   12.7556   -8.9587   -8.8816 S   0  0  0  0  0  0  0  0  0  0  0  0
   14.1822   -8.2314   -8.0550 C   0  0  0  0  0  0  0  0  0  0  0  0
   15.4983   -8.5023   -8.6899 C   0  0  0  0  0  0  0  0  0  0  0  0
   15.9569   -7.4749   -9.6320 C   0  0  2  0  0  0  0  0  0  0  0  0
   17.2517   -7.9982  -10.1503 N   0  0  0  0  0  0  0  0  0  0  0  0
   16.2304   -6.1269   -9.2196 C   0  0  0  0  0  0  0  0  0  0  0  0
   17.2027   -5.8502   -8.4810 O   0  0  0  0  0  0  0  0  0  0  0  0
   15.4311   -4.9944   -9.6075 N   0  0  0  0  0  0  0  0  0  0  0  0
   15.6471   -3.6617   -9.1036 C   0  0  1  0  0  0  0  0  0  0  0  0
   15.9529   -2.7610  -10.2807 C   0  0  0  0  0  0  0  0  0  0  0  0
   14.6120   -2.9294  -11.4907 S   0  0  0  0  0  0  0  0  0  0  0  0
   14.4856   -3.1686   -8.3272 C   0  0  0  0  0  0  0  0  0  0  0  0
   14.5948   -1.9580   -7.6578 O   0  0  0  0  0  0  0  0  0  0  0  0
   13.4464   -3.8769   -8.3118 O   0  0  0  0  0  0  0  0  0  0  0  0
  2  1  1  6
  3  2  1  0
  3  4  1  0
  4  5  2  0
  5  6  1  0
  7  6  2  0
  8  7  1  0
  9  4  1  0
  9  8  2  0
 10  2  1  0
 10 11  2  0
 12 13  1  0
 14 15  1  0
 14 13  1  0
 16 15  1  1
 16 18  1  0
 16 17  1  0
 17 10  1  0
 18 20  1  0
 19 18  2  0
 20 21  1  0
 21 24  1  0
 21 22  1  6
 23 22  1  0
 24 26  2  0
 24 25  1  0
M  END
$$$$
