FMC.pdb
     RDKit          3D

 26 26  0  0  1  0  0  0  0  0999 V2000
   26.4768  -22.5332  -12.6163 N   0  0  0  0  0  0  0  0  0  0  0  0
   25.6503  -21.4881  -12.0557 C   0  0  1  0  0  0  0  0  0  0  0  0
   26.4550  -20.2404  -11.8612 C   0  0  0  0  0  0  0  0  0  0  0  0
   27.2869  -20.4173  -10.6468 C   0  0  0  0  0  0  0  0  0  0  0  0
   26.7011  -20.1666   -9.4245 C   0  0  0  0  0  0  0  0  0  0  0  0
   27.3917  -20.3023   -8.2338 C   0  0  0  0  0  0  0  0  0  0  0  0
   28.7122  -20.7022   -8.2694 C   0  0  0  0  0  0  0  0  0  0  0  0
   29.3294  -20.9618   -9.4826 C   0  0  0  0  0  0  0  0  0  0  0  0
   28.6054  -20.8153  -10.6600 C   0  0  0  0  0  0  0  0  0  0  0  0
   24.4596  -21.3108  -12.8964 C   0  0  0  0  0  0  0  0  0  0  0  0
   24.5971  -21.4552  -14.1515 O   0  0  0  0  0  0  0  0  0  0  0  0
   18.8067  -23.6477  -11.2111 C   0  0  0  0  0  0  0  0  0  0  0  0
   18.2355  -22.2347  -12.1714 S   0  0  0  0  0  0  0  0  0  0  0  0
   19.5830  -21.5879  -13.1781 C   0  0  0  0  0  0  0  0  0  0  0  0
   20.9022  -21.4943  -12.5002 C   0  0  0  0  0  0  0  0  0  0  0  0
   21.9947  -20.9818  -13.3352 C   0  0  2  0  0  0  0  0  0  0  0  0
   23.1846  -20.9966  -12.4392 N   0  0  0  0  0  0  0  0  0  0  0  0
   21.9669  -19.6650  -13.9071 C   0  0  0  0  0  0  0  0  0  0  0  0
   22.7118  -18.7504  -13.4873 O   0  0  0  0  0  0  0  0  0  0  0  0
   21.1003  -19.2821  -14.9908 N   0  0  0  0  0  0  0  0  0  0  0  0
   21.3437  -18.1397  -15.8347 C   0  0  1  0  0  0  0  0  0  0  0  0
   22.7040  -18.3130  -16.4750 C   0  0  0  0  0  0  0  0  0  0  0  0
   22.9925  -16.9106  -17.5887 S   0  0  0  0  0  0  0  0  0  0  0  0
   20.2805  -17.9667  -16.8521 C   0  0  0  0  0  0  0  0  0  0  0  0
   19.8485  -16.6833  -17.1553 O   0  0  0  0  0  0  0  0  0  0  0  0
   19.8159  -19.0005  -17.3974 O   0  0  0  0  0  0  0  0  0  0  0  0
  2  1  1  6
  3  2  1  0
  3  4  1  0
  4  5  2  0
  5  6  1  0
  7  6  2  0
  8  7  1  0
  9  4  1  0
  9  8  2  0
 10  2  1  0
 10 11  2  0
 12 13  1  0
 14 15  1  0
 14 13  1  0
 16 15  1  1
 16 18  1  0
 16 17  1  0
 17 10  1  0
 18 20  1  0
 19 18  2  0
 20 21  1  0
 21 24  1  0
 21 22  1  6
 23 22  1  0
 24 26  2  0
 24 25  1  0
M  END
$$$$
