FTD.pdb
     RDKit          3D

 27 27  0  0  1  0  0  0  0  0999 V2000
   22.1464  -10.9617  -17.0115 N   0  0  0  0  0  0  0  0  0  0  0  0
   22.2656   -9.6116  -17.5295 C   0  0  1  0  0  0  0  0  0  0  0  0
   21.5047   -9.5380  -18.8173 C   0  0  0  0  0  0  0  0  0  0  0  0
   20.1228  -10.0705  -18.5817 C   0  0  0  0  0  0  0  0  0  0  0  0
   19.8084  -11.3942  -18.8327 C   0  0  0  0  0  0  0  0  0  0  0  0
   18.5319  -11.8779  -18.6129 C   0  0  0  0  0  0  0  0  0  0  0  0
   17.5343  -11.0544  -18.1368 C   0  0  0  0  0  0  0  0  0  0  0  0
   17.8628   -9.7347  -17.8905 C   0  0  0  0  0  0  0  0  0  0  0  0
   19.1340   -9.2376  -18.1055 C   0  0  0  0  0  0  0  0  0  0  0  0
   21.7300   -8.6123  -16.5619 C   0  0  0  0  0  0  0  0  0  0  0  0
   20.8867   -8.8874  -15.6792 O   0  0  0  0  0  0  0  0  0  0  0  0
   22.7550   -4.1513  -14.7082 C   0  0  0  0  0  0  0  0  0  0  0  0
   23.0311   -5.3739  -15.5163 C   0  0  1  0  0  0  0  0  0  0  0  0
   24.0288   -6.1708  -15.0277 O   0  0  0  0  0  0  0  0  0  0  0  0
   21.7811   -6.2381  -15.7042 C   0  0  2  0  0  0  0  0  0  0  0  0
   22.1946   -7.2736  -16.6367 N   0  0  0  0  0  0  0  0  0  0  0  0
   20.6191   -5.4860  -16.1613 C   0  0  0  0  0  0  0  0  0  0  0  0
   20.5099   -5.0900  -17.3508 O   0  0  0  0  0  0  0  0  0  0  0  0
   19.5650   -5.1749  -15.2722 N   0  0  0  0  0  0  0  0  0  0  0  0
   18.3727   -4.4366  -15.7025 C   0  0  1  0  0  0  0  0  0  0  0  0
   17.1374   -5.0508  -15.1327 C   0  0  0  0  0  0  0  0  0  0  0  0
   15.9096   -4.3478  -15.5279 C   0  0  0  0  0  0  0  0  0  0  0  0
   15.8663   -3.4488  -16.3822 O   0  0  0  0  0  0  0  0  0  0  0  0
   18.4882   -3.0396  -15.2075 C   0  0  0  0  0  0  0  0  0  0  0  0
   18.8304   -2.7383  -14.0422 O   0  0  0  0  0  0  0  0  0  0  0  0
   14.7200   -4.7085  -14.9093 O   0  0  0  0  0  0  0  0  0  0  0  0
   18.2042   -1.9882  -16.0722 O   0  0  0  0  0  0  0  0  0  0  0  0
  2 10  1  0
  2  1  1  1
  3  2  1  0
  4  9  2  0
  4  3  1  0
  5  4  1  0
  6  7  1  0
  6  5  2  0
  7  8  2  0
  8  9  1  0
 10 11  2  0
 13 12  1  1
 13 14  1  0
 15 13  1  0
 16 10  1  0
 15 16  1  6
 17 18  2  0
 17 15  1  0
 19 17  1  0
 20 19  1  0
 20 21  1  1
 22 26  1  0
 22 21  1  0
 23 22  2  0
 24 20  1  0
 24 27  1  0
 25 24  2  0
M  END
$$$$
