FTD.pdb
     RDKit          3D

 27 27  0  0  1  0  0  0  0  0999 V2000
   29.6018  -12.4230  -18.9829 N   0  0  0  0  0  0  0  0  0  0  0  0
   29.1907  -11.1802  -18.3569 C   0  0  1  0  0  0  0  0  0  0  0  0
   29.5506  -11.2489  -16.9047 C   0  0  0  0  0  0  0  0  0  0  0  0
   28.6032  -12.1927  -16.2263 C   0  0  0  0  0  0  0  0  0  0  0  0
   28.9385  -13.5171  -16.0085 C   0  0  0  0  0  0  0  0  0  0  0  0
   28.0595  -14.3814  -15.3822 C   0  0  0  0  0  0  0  0  0  0  0  0
   26.8222  -13.9481  -14.9562 C   0  0  0  0  0  0  0  0  0  0  0  0
   26.5010  -12.6226  -15.1805 C   0  0  0  0  0  0  0  0  0  0  0  0
   27.3692  -11.7478  -15.8049 C   0  0  0  0  0  0  0  0  0  0  0  0
   29.8567  -10.0083  -18.9933 C   0  0  0  0  0  0  0  0  0  0  0  0
   31.0949   -9.9174  -19.1500 O   0  0  0  0  0  0  0  0  0  0  0  0
   29.7621   -8.9992  -22.2750 C   0  0  0  0  0  0  0  0  0  0  0  0
   29.1198   -7.8640  -21.5519 C   0  0  1  0  0  0  0  0  0  0  0  0
   27.7529   -7.8888  -21.5448 O   0  0  0  0  0  0  0  0  0  0  0  0
   29.6011   -7.7546  -20.1024 C   0  0  2  0  0  0  0  0  0  0  0  0
   29.0526   -8.9319  -19.4498 N   0  0  0  0  0  0  0  0  0  0  0  0
   29.2134   -6.5075  -19.4548 C   0  0  0  0  0  0  0  0  0  0  0  0
   28.6366   -6.4909  -18.3366 O   0  0  0  0  0  0  0  0  0  0  0  0
   29.4772   -5.2622  -20.0698 N   0  0  0  0  0  0  0  0  0  0  0  0
   29.1180   -3.9878  -19.4384 C   0  0  1  0  0  0  0  0  0  0  0  0
   29.8359   -3.8210  -18.1406 C   0  0  0  0  0  0  0  0  0  0  0  0
   29.5126   -2.5592  -17.4615 C   0  0  0  0  0  0  0  0  0  0  0  0
   28.7168   -1.7152  -17.9025 O   0  0  0  0  0  0  0  0  0  0  0  0
   29.5174   -2.8873  -20.3546 C   0  0  0  0  0  0  0  0  0  0  0  0
   30.6254   -2.8285  -20.9332 O   0  0  0  0  0  0  0  0  0  0  0  0
   30.1341   -2.2892  -16.2496 O   0  0  0  0  0  0  0  0  0  0  0  0
   28.6237   -1.8503  -20.5988 O   0  0  0  0  0  0  0  0  0  0  0  0
  2 10  1  0
  2  1  1  6
  3  2  1  0
  4  9  2  0
  4  3  1  0
  5  4  1  0
  6  7  1  0
  6  5  2  0
  7  8  2  0
  8  9  1  0
 10 11  2  0
 13 12  1  1
 13 14  1  0
 15 13  1  0
 16 10  1  0
 15 16  1  1
 17 18  2  0
 17 15  1  0
 19 17  1  0
 20 19  1  0
 20 21  1  1
 22 26  1  0
 22 21  1  0
 23 22  2  0
 24 20  1  0
 24 27  1  0
 25 24  2  0
M  END
$$$$
