FTD.pdb
     RDKit          3D

 27 27  0  0  1  0  0  0  0  0999 V2000
   28.5078  -21.1684   -8.8321 N   0  0  0  0  0  0  0  0  0  0  0  0
   27.1444  -20.6719   -8.8219 C   0  0  1  0  0  0  0  0  0  0  0  0
   27.1210  -19.3910   -8.0461 C   0  0  0  0  0  0  0  0  0  0  0  0
   27.6243  -19.6674   -6.6609 C   0  0  0  0  0  0  0  0  0  0  0  0
   26.9169  -20.4708   -5.7844 C   0  0  0  0  0  0  0  0  0  0  0  0
   27.3873  -20.7211   -4.5086 C   0  0  0  0  0  0  0  0  0  0  0  0
   28.5762  -20.1768   -4.0723 C   0  0  0  0  0  0  0  0  0  0  0  0
   29.2721  -19.3763   -4.9585 C   0  0  0  0  0  0  0  0  0  0  0  0
   28.8141  -19.1176   -6.2362 C   0  0  0  0  0  0  0  0  0  0  0  0
   26.6435  -20.4396  -10.2065 C   0  0  0  0  0  0  0  0  0  0  0  0
   27.3909  -20.1993  -11.1811 O   0  0  0  0  0  0  0  0  0  0  0  0
   26.7318  -21.4241  -12.7310 C   0  0  0  0  0  0  0  0  0  0  0  0
   25.2578  -21.5576  -12.5476 C   0  0  1  0  0  0  0  0  0  0  0  0
   24.8584  -22.7145  -11.9383 O   0  0  0  0  0  0  0  0  0  0  0  0
   24.6622  -20.3805  -11.7704 C   0  0  2  0  0  0  0  0  0  0  0  0
   25.2454  -20.4915  -10.4436 N   0  0  0  0  0  0  0  0  0  0  0  0
   23.2046  -20.3722  -11.7568 C   0  0  0  0  0  0  0  0  0  0  0  0
   22.5479  -20.6980  -10.7340 O   0  0  0  0  0  0  0  0  0  0  0  0
   22.4740  -19.9924  -12.9059 N   0  0  0  0  0  0  0  0  0  0  0  0
   21.0712  -19.5693  -12.8349 C   0  0  1  0  0  0  0  0  0  0  0  0
   20.6775  -18.8369  -14.0744 C   0  0  0  0  0  0  0  0  0  0  0  0
   19.2787  -18.3886  -14.0587 C   0  0  0  0  0  0  0  0  0  0  0  0
   18.8222  -17.5596  -13.2560 O   0  0  0  0  0  0  0  0  0  0  0  0
   20.2258  -20.7852  -12.7049 C   0  0  0  0  0  0  0  0  0  0  0  0
   19.1045  -20.7992  -12.1498 O   0  0  0  0  0  0  0  0  0  0  0  0
   18.4086  -18.9231  -14.9995 O   0  0  0  0  0  0  0  0  0  0  0  0
   20.6871  -21.9903  -13.2231 O   0  0  0  0  0  0  0  0  0  0  0  0
  2 10  1  0
  2  1  1  6
  3  2  1  0
  4  9  2  0
  4  3  1  0
  5  4  1  0
  6  7  1  0
  6  5  2  0
  7  8  2  0
  8  9  1  0
 10 11  2  0
 13 12  1  1
 13 14  1  0
 15 13  1  0
 16 10  1  0
 15 16  1  1
 17 18  2  0
 17 15  1  0
 19 17  1  0
 20 19  1  0
 20 21  1  6
 22 26  1  0
 22 21  1  0
 23 22  2  0
 24 20  1  0
 24 27  1  0
 25 24  2  0
M  END
$$$$
