FTD.pdb
     RDKit          3D

 27 27  0  0  1  0  0  0  0  0999 V2000
   21.1059  -10.8313    8.3245 N   0  0  0  0  0  0  0  0  0  0  0  0
   20.7836  -12.2456    8.2870 C   0  0  1  0  0  0  0  0  0  0  0  0
   21.2783  -12.8017    6.9874 C   0  0  0  0  0  0  0  0  0  0  0  0
   20.1638  -12.7295    5.9868 C   0  0  0  0  0  0  0  0  0  0  0  0
   19.1475  -13.6681    5.9715 C   0  0  0  0  0  0  0  0  0  0  0  0
   18.1232  -13.5949    5.0458 C   0  0  0  0  0  0  0  0  0  0  0  0
   18.0847  -12.5835    4.1100 C   0  0  0  0  0  0  0  0  0  0  0  0
   19.1064  -11.6531    4.1371 C   0  0  0  0  0  0  0  0  0  0  0  0
   20.1362  -11.7138    5.0563 C   0  0  0  0  0  0  0  0  0  0  0  0
   21.4117  -12.9734    9.4262 C   0  0  0  0  0  0  0  0  0  0  0  0
   22.6315  -12.9103    9.6989 O   0  0  0  0  0  0  0  0  0  0  0  0
   21.1195  -12.3751   12.7007 C   0  0  0  0  0  0  0  0  0  0  0  0
   20.5629  -13.7558   12.6110 C   0  0  1  0  0  0  0  0  0  0  0  0
   19.1977  -13.8228   12.5827 O   0  0  0  0  0  0  0  0  0  0  0  0
   21.1018  -14.5194   11.3981 C   0  0  2  0  0  0  0  0  0  0  0  0
   20.5915  -13.7845   10.2526 N   0  0  0  0  0  0  0  0  0  0  0  0
   20.7291  -15.9286   11.3872 C   0  0  0  0  0  0  0  0  0  0  0  0
   19.9538  -16.4040   10.5175 O   0  0  0  0  0  0  0  0  0  0  0  0
   21.2338  -16.8165   12.3647 N   0  0  0  0  0  0  0  0  0  0  0  0
   20.8492  -18.2314   12.4073 C   0  0  1  0  0  0  0  0  0  0  0  0
   21.2496  -18.9254   11.1481 C   0  0  0  0  0  0  0  0  0  0  0  0
   20.9900  -20.3709   11.1794 C   0  0  0  0  0  0  0  0  0  0  0  0
   19.9129  -20.8775   11.5304 O   0  0  0  0  0  0  0  0  0  0  0  0
   21.5511  -18.8687   13.5524 C   0  0  0  0  0  0  0  0  0  0  0  0
   22.7586  -18.6820   13.8219 O   0  0  0  0  0  0  0  0  0  0  0  0
   22.0113  -21.2286   10.7929 O   0  0  0  0  0  0  0  0  0  0  0  0
   20.8448  -19.7272   14.3878 O   0  0  0  0  0  0  0  0  0  0  0  0
  2 10  1  0
  2  1  1  1
  3  2  1  0
  4  9  2  0
  4  3  1  0
  5  4  1  0
  6  7  1  0
  6  5  2  0
  7  8  2  0
  8  9  1  0
 10 11  2  0
 13 12  1  6
 13 14  1  0
 15 13  1  0
 16 10  1  0
 15 16  1  6
 17 18  2  0
 17 15  1  0
 19 17  1  0
 20 19  1  0
 20 21  1  6
 22 26  1  0
 22 21  1  0
 23 22  2  0
 24 20  1  0
 24 27  1  0
 25 24  2  0
M  END
$$$$
