FTD.pdb
     RDKit          3D

 27 27  0  0  1  0  0  0  0  0999 V2000
   18.4654   -9.3139  -13.2898 N   0  0  0  0  0  0  0  0  0  0  0  0
   18.7388   -8.3287  -12.2603 C   0  0  1  0  0  0  0  0  0  0  0  0
   19.8686   -7.4652  -12.7304 C   0  0  0  0  0  0  0  0  0  0  0  0
   21.0350   -8.3488  -13.0583 C   0  0  0  0  0  0  0  0  0  0  0  0
   21.5699   -8.3917  -14.3335 C   0  0  0  0  0  0  0  0  0  0  0  0
   22.6455   -9.2089  -14.6283 C   0  0  0  0  0  0  0  0  0  0  0  0
   23.2167  -10.0056  -13.6592 C   0  0  0  0  0  0  0  0  0  0  0  0
   22.6719   -9.9524  -12.3901 C   0  0  0  0  0  0  0  0  0  0  0  0
   21.5974   -9.1406  -12.0812 C   0  0  0  0  0  0  0  0  0  0  0  0
   17.5378   -7.4911  -11.9811 C   0  0  0  0  0  0  0  0  0  0  0  0
   16.6862   -7.1925  -12.8480 O   0  0  0  0  0  0  0  0  0  0  0  0
   15.4481   -8.0197   -8.7380 C   0  0  0  0  0  0  0  0  0  0  0  0
   15.8991   -6.6018   -8.8397 C   0  0  1  0  0  0  0  0  0  0  0  0
   16.9915   -6.2918   -8.0785 O   0  0  0  0  0  0  0  0  0  0  0  0
   16.1940   -6.1905  -10.2848 C   0  0  2  0  0  0  0  0  0  0  0  0
   17.3396   -7.0007  -10.6643 N   0  0  0  0  0  0  0  0  0  0  0  0
   16.4252   -4.7602  -10.4453 C   0  0  0  0  0  0  0  0  0  0  0  0
   17.5843   -4.2704  -10.4442 O   0  0  0  0  0  0  0  0  0  0  0  0
   15.3413   -3.8677  -10.6102 N   0  0  0  0  0  0  0  0  0  0  0  0
   15.5396   -2.4324  -10.8395 C   0  0  1  0  0  0  0  0  0  0  0  0
   14.8287   -1.9924  -12.0759 C   0  0  0  0  0  0  0  0  0  0  0  0
   14.9235   -0.5455  -12.3109 C   0  0  0  0  0  0  0  0  0  0  0  0
   15.5887    0.2318  -11.6085 O   0  0  0  0  0  0  0  0  0  0  0  0
   14.9821   -1.6951   -9.6753 C   0  0  0  0  0  0  0  0  0  0  0  0
   15.1236   -0.4649   -9.4957 O   0  0  0  0  0  0  0  0  0  0  0  0
   14.2267   -0.0089  -13.3854 O   0  0  0  0  0  0  0  0  0  0  0  0
   14.2565   -2.3922   -8.7155 O   0  0  0  0  0  0  0  0  0  0  0  0
  2 10  1  0
  2  1  1  6
  3  2  1  0
  4  9  2  0
  4  3  1  0
  5  4  1  0
  6  7  1  0
  6  5  2  0
  7  8  2  0
  8  9  1  0
 10 11  2  0
 13 12  1  6
 13 14  1  0
 15 13  1  0
 16 10  1  0
 15 16  1  1
 17 18  2  0
 17 15  1  0
 19 17  1  0
 20 19  1  0
 20 21  1  6
 22 26  1  0
 22 21  1  0
 23 22  2  0
 24 20  1  0
 24 27  1  0
 25 24  2  0
M  END
$$$$
