FTD.pdb
     RDKit          3D

 27 27  0  0  1  0  0  0  0  0999 V2000
   37.7986  -11.2907   -5.1489 N   0  0  0  0  0  0  0  0  0  0  0  0
   38.4999  -11.6238   -6.3747 C   0  0  1  0  0  0  0  0  0  0  0  0
   37.5566  -11.4221   -7.5204 C   0  0  0  0  0  0  0  0  0  0  0  0
   36.4432  -12.4190   -7.3980 C   0  0  0  0  0  0  0  0  0  0  0  0
   36.4002  -13.3264   -6.3545 C   0  0  0  0  0  0  0  0  0  0  0  0
   35.3703  -14.2427   -6.2484 C   0  0  0  0  0  0  0  0  0  0  0  0
   34.3551  -14.2788   -7.1802 C   0  0  0  0  0  0  0  0  0  0  0  0
   34.4110  -13.3665   -8.2169 C   0  0  0  0  0  0  0  0  0  0  0  0
   35.4340  -12.4454   -8.3356 C   0  0  0  0  0  0  0  0  0  0  0  0
   39.7101  -10.7723   -6.5535 C   0  0  0  0  0  0  0  0  0  0  0  0
   39.7549   -9.5604   -6.2446 O   0  0  0  0  0  0  0  0  0  0  0  0
   44.5758  -11.1292   -7.4031 C   0  0  0  0  0  0  0  0  0  0  0  0
   43.2165  -11.6818   -7.1362 C   0  0  1  0  0  0  0  0  0  0  0  0
   43.0683  -12.2734   -5.9126 O   0  0  0  0  0  0  0  0  0  0  0  0
   42.1211  -10.6228   -7.2883 C   0  0  2  0  0  0  0  0  0  0  0  0
   40.8805  -11.3572   -7.1028 N   0  0  0  0  0  0  0  0  0  0  0  0
   42.1787   -9.9063   -8.5565 C   0  0  0  0  0  0  0  0  0  0  0  0
   41.7240  -10.4011   -9.6204 O   0  0  0  0  0  0  0  0  0  0  0  0
   42.7536   -8.6170   -8.6318 N   0  0  0  0  0  0  0  0  0  0  0  0
   42.8630   -7.8835   -9.8974 C   0  0  1  0  0  0  0  0  0  0  0  0
   43.2204   -6.4555   -9.6506 C   0  0  0  0  0  0  0  0  0  0  0  0
   43.2116   -5.6401  -10.8724 C   0  0  0  0  0  0  0  0  0  0  0  0
   43.5860   -6.0466  -11.9835 O   0  0  0  0  0  0  0  0  0  0  0  0
   43.9367   -8.5153  -10.7086 C   0  0  0  0  0  0  0  0  0  0  0  0
   45.1117   -8.6735  -10.3086 O   0  0  0  0  0  0  0  0  0  0  0  0
   42.7564   -4.3313  -10.7836 O   0  0  0  0  0  0  0  0  0  0  0  0
   43.6419   -8.9653  -11.9909 O   0  0  0  0  0  0  0  0  0  0  0  0
  2 10  1  0
  2  1  1  1
  3  2  1  0
  4  9  2  0
  4  3  1  0
  5  4  1  0
  6  7  1  0
  6  5  2  0
  7  8  2  0
  8  9  1  0
 10 11  2  0
 13 12  1  1
 13 14  1  0
 15 13  1  0
 16 10  1  0
 15 16  1  6
 17 18  2  0
 17 15  1  0
 19 17  1  0
 20 19  1  0
 20 21  1  1
 22 26  1  0
 22 21  1  0
 23 22  2  0
 24 20  1  0
 24 27  1  0
 25 24  2  0
M  END
$$$$
