FNY.pdb
     RDKit          3D

 32 33  0  0  1  0  0  0  0  0999 V2000
   26.7279  -25.0914  -18.5366 N   0  0  0  0  0  0  0  0  0  0  0  0
   25.4223  -24.7358  -18.0526 C   0  0  1  0  0  0  0  0  0  0  0  0
   24.3862  -25.8190  -18.3384 C   0  0  0  0  0  0  0  0  0  0  0  0
   24.0608  -25.9420  -19.7639 C   0  0  0  0  0  0  0  0  0  0  0  0
   23.0739  -25.1731  -20.3485 C   0  0  0  0  0  0  0  0  0  0  0  0
   22.7942  -25.3200  -21.6974 C   0  0  0  0  0  0  0  0  0  0  0  0
   23.4798  -26.2225  -22.4835 C   0  0  0  0  0  0  0  0  0  0  0  0
   24.4808  -27.0088  -21.9101 C   0  0  0  0  0  0  0  0  0  0  0  0
   24.7502  -26.8533  -20.5671 C   0  0  0  0  0  0  0  0  0  0  0  0
   25.4907  -24.5346  -16.5953 C   0  0  0  0  0  0  0  0  0  0  0  0
   26.5270  -24.8668  -15.9839 O   0  0  0  0  0  0  0  0  0  0  0  0
   25.3401  -22.4645  -11.9270 N   0  0  0  0  0  0  0  0  0  0  0  0
   25.8688  -21.9151  -13.1217 C   0  0  0  0  0  0  0  0  0  0  0  0
   26.6017  -20.8688  -12.9908 O   0  0  0  0  0  0  0  0  0  0  0  0
   25.6072  -22.4936  -14.4528 C   0  0  0  0  0  0  0  0  0  0  0  0
   24.5108  -23.4743  -14.5363 C   0  0  2  0  0  0  0  0  0  0  0  0
   24.4044  -23.9755  -15.8965 N   0  0  0  0  0  0  0  0  0  0  0  0
   23.1843  -23.0375  -14.0853 C   0  0  0  0  0  0  0  0  0  0  0  0
   23.0628  -22.6312  -12.9026 O   0  0  0  0  0  0  0  0  0  0  0  0
   17.6996  -28.1797  -13.9310 O   0  0  0  0  0  0  0  0  0  0  0  0
   18.3905  -27.0005  -13.6572 C   0  0  0  0  0  0  0  0  0  0  0  0
   18.3480  -26.3726  -12.4325 C   0  0  0  0  0  0  0  0  0  0  0  0
   19.0545  -25.2067  -12.2255 C   0  0  0  0  0  0  0  0  0  0  0  0
   19.8083  -24.6627  -13.2442 C   0  0  0  0  0  0  0  0  0  0  0  0
   20.5568  -23.3945  -12.9672 C   0  0  0  0  0  0  0  0  0  0  0  0
   20.7619  -22.6898  -14.2919 C   0  0  2  0  0  0  0  0  0  0  0  0
   22.0247  -23.0424  -14.8957 N   0  0  0  0  0  0  0  0  0  0  0  0
   20.6534  -21.2122  -14.1348 C   0  0  0  0  0  0  0  0  0  0  0  0
   21.5834  -20.4413  -14.4701 O   0  0  0  0  0  0  0  0  0  0  0  0
   19.8714  -25.2667  -14.4809 C   0  0  0  0  0  0  0  0  0  0  0  0
   19.1479  -26.4458  -14.6668 C   0  0  0  0  0  0  0  0  0  0  0  0
   19.4833  -20.6999  -13.6023 O   0  0  0  0  0  0  0  0  0  0  0  0
  2  1  1  1
  3  4  1  0
  3  2  1  0
  4  5  2  0
  5  6  1  0
  7  6  2  0
  8  7  1  0
  9  4  1  0
  9  8  2  0
 10  2  1  0
 10 17  1  0
 11 10  2  0
 12 13  1  0
 13 14  2  0
 15 13  1  0
 16 15  1  6
 16 17  1  0
 18 16  1  0
 18 27  1  0
 19 18  2  0
 20 21  1  0
 21 22  2  0
 21 31  1  0
 22 23  1  0
 23 24  2  0
 24 25  1  0
 26 25  1  1
 26 27  1  0
 26 28  1  0
 28 29  2  0
 28 32  1  0
 30 24  1  0
 31 30  2  0
M  END
$$$$
