FNY.pdb
     RDKit          3D

 32 33  0  0  1  0  0  0  0  0999 V2000
   22.7343  -15.4620  -21.7287 N   0  0  0  0  0  0  0  0  0  0  0  0
   22.6015  -15.7198  -20.3211 C   0  0  1  0  0  0  0  0  0  0  0  0
   21.1584  -16.0155  -19.9225 C   0  0  0  0  0  0  0  0  0  0  0  0
   20.2386  -14.9154  -20.2337 C   0  0  0  0  0  0  0  0  0  0  0  0
   19.4742  -14.9163  -21.3837 C   0  0  0  0  0  0  0  0  0  0  0  0
   18.6190  -13.8578  -21.6435 C   0  0  0  0  0  0  0  0  0  0  0  0
   18.5068  -12.7900  -20.7776 C   0  0  0  0  0  0  0  0  0  0  0  0
   19.2719  -12.7714  -19.6099 C   0  0  0  0  0  0  0  0  0  0  0  0
   20.1190  -13.8304  -19.3624 C   0  0  0  0  0  0  0  0  0  0  0  0
   23.4270  -16.8872  -19.9685 C   0  0  0  0  0  0  0  0  0  0  0  0
   23.5245  -17.8301  -20.7805 O   0  0  0  0  0  0  0  0  0  0  0  0
   27.3229  -17.8694  -19.8773 N   0  0  0  0  0  0  0  0  0  0  0  0
   27.3153  -17.4990  -18.5093 C   0  0  0  0  0  0  0  0  0  0  0  0
   28.4172  -17.0368  -18.0392 O   0  0  0  0  0  0  0  0  0  0  0  0
   26.1220  -17.6270  -17.6523 C   0  0  0  0  0  0  0  0  0  0  0  0
   24.8885  -18.0894  -18.3125 C   0  0  2  0  0  0  0  0  0  0  0  0
   24.0991  -16.9438  -18.7331 N   0  0  0  0  0  0  0  0  0  0  0  0
   24.0282  -19.0087  -17.5584 C   0  0  0  0  0  0  0  0  0  0  0  0
   24.3710  -20.2150  -17.4814 O   0  0  0  0  0  0  0  0  0  0  0  0
   17.6762  -23.2453  -13.5315 O   0  0  0  0  0  0  0  0  0  0  0  0
   18.5978  -22.2640  -13.8931 C   0  0  0  0  0  0  0  0  0  0  0  0
   19.9126  -22.2819  -13.4842 C   0  0  0  0  0  0  0  0  0  0  0  0
   20.7749  -21.2799  -13.8764 C   0  0  0  0  0  0  0  0  0  0  0  0
   20.3254  -20.2538  -14.6808 C   0  0  0  0  0  0  0  0  0  0  0  0
   21.3029  -19.1899  -15.0782 C   0  0  0  0  0  0  0  0  0  0  0  0
   21.9993  -19.6609  -16.3379 C   0  0  2  0  0  0  0  0  0  0  0  0
   22.8311  -18.6279  -16.9076 N   0  0  0  0  0  0  0  0  0  0  0  0
   21.0144  -20.1509  -17.3428 C   0  0  0  0  0  0  0  0  0  0  0  0
   20.6493  -21.3496  -17.3812 O   0  0  0  0  0  0  0  0  0  0  0  0
   19.0159  -20.2073  -15.1066 C   0  0  0  0  0  0  0  0  0  0  0  0
   18.1618  -21.2324  -14.6968 C   0  0  0  0  0  0  0  0  0  0  0  0
   20.5018  -19.2384  -18.2482 O   0  0  0  0  0  0  0  0  0  0  0  0
  2  1  1  6
  3  4  1  0
  3  2  1  0
  4  5  2  0
  5  6  1  0
  7  6  2  0
  8  7  1  0
  9  4  1  0
  9  8  2  0
 10  2  1  0
 10 17  1  0
 11 10  2  0
 12 13  1  0
 13 14  2  0
 15 13  1  0
 16 15  1  1
 16 17  1  0
 18 16  1  0
 18 27  1  0
 19 18  2  0
 20 21  1  0
 21 22  2  0
 21 31  1  0
 22 23  1  0
 23 24  2  0
 24 25  1  0
 26 25  1  1
 26 27  1  0
 26 28  1  0
 28 29  2  0
 28 32  1  0
 30 24  1  0
 31 30  2  0
M  END
$$$$
