FNY.pdb
     RDKit          3D

 32 33  0  0  1  0  0  0  0  0999 V2000
   26.3338  -20.4454  -16.1123 N   0  0  0  0  0  0  0  0  0  0  0  0
   25.3666  -19.3914  -16.2495 C   0  0  1  0  0  0  0  0  0  0  0  0
   25.4062  -18.7485  -17.6328 C   0  0  0  0  0  0  0  0  0  0  0  0
   26.7096  -18.1564  -17.9550 C   0  0  0  0  0  0  0  0  0  0  0  0
   27.6991  -18.8863  -18.5836 C   0  0  0  0  0  0  0  0  0  0  0  0
   28.9177  -18.2924  -18.8688 C   0  0  0  0  0  0  0  0  0  0  0  0
   29.1758  -16.9780  -18.5396 C   0  0  0  0  0  0  0  0  0  0  0  0
   28.1877  -16.2243  -17.9034 C   0  0  0  0  0  0  0  0  0  0  0  0
   26.9792  -16.8263  -17.6251 C   0  0  0  0  0  0  0  0  0  0  0  0
   24.0196  -19.9474  -16.0365 C   0  0  0  0  0  0  0  0  0  0  0  0
   23.9008  -21.1508  -15.7273 O   0  0  0  0  0  0  0  0  0  0  0  0
   21.6323  -21.7762  -13.8535 N   0  0  0  0  0  0  0  0  0  0  0  0
   22.0079  -20.5612  -13.2278 C   0  0  0  0  0  0  0  0  0  0  0  0
   22.3254  -20.6356  -11.9858 O   0  0  0  0  0  0  0  0  0  0  0  0
   22.0408  -19.2707  -13.9409 C   0  0  0  0  0  0  0  0  0  0  0  0
   21.6821  -19.3030  -15.3696 C   0  0  2  0  0  0  0  0  0  0  0  0
   22.8780  -19.1365  -16.1787 N   0  0  0  0  0  0  0  0  0  0  0  0
   20.6624  -18.3517  -15.8269 C   0  0  0  0  0  0  0  0  0  0  0  0
   19.5512  -18.3442  -15.2404 O   0  0  0  0  0  0  0  0  0  0  0  0
   24.6543  -17.1294  -22.7336 O   0  0  0  0  0  0  0  0  0  0  0  0
   23.7507  -17.5981  -21.7814 C   0  0  0  0  0  0  0  0  0  0  0  0
   22.4935  -18.0588  -22.1024 C   0  0  0  0  0  0  0  0  0  0  0  0
   21.6457  -18.5091  -21.1125 C   0  0  0  0  0  0  0  0  0  0  0  0
   22.0524  -18.5009  -19.7947 C   0  0  0  0  0  0  0  0  0  0  0  0
   21.0929  -19.0006  -18.7580 C   0  0  0  0  0  0  0  0  0  0  0  0
   20.3602  -17.7981  -18.2004 C   0  0  2  0  0  0  0  0  0  0  0  0
   20.8451  -17.4363  -16.8899 N   0  0  0  0  0  0  0  0  0  0  0  0
   18.8898  -18.0361  -18.1652 C   0  0  0  0  0  0  0  0  0  0  0  0
   18.2264  -17.9218  -17.1075 O   0  0  0  0  0  0  0  0  0  0  0  0
   23.3039  -18.0462  -19.4410 C   0  0  0  0  0  0  0  0  0  0  0  0
   24.1443  -17.5952  -20.4602 C   0  0  0  0  0  0  0  0  0  0  0  0
   18.2609  -18.3916  -19.3455 O   0  0  0  0  0  0  0  0  0  0  0  0
  2  1  1  6
  3  4  1  0
  3  2  1  0
  4  5  2  0
  5  6  1  0
  7  6  2  0
  8  7  1  0
  9  4  1  0
  9  8  2  0
 10  2  1  0
 10 17  1  0
 11 10  2  0
 12 13  1  0
 13 14  2  0
 15 13  1  0
 16 15  1  1
 16 17  1  0
 18 16  1  0
 18 27  1  0
 19 18  2  0
 20 21  1  0
 21 22  2  0
 21 31  1  0
 22 23  1  0
 23 24  2  0
 24 25  1  0
 26 25  1  1
 26 27  1  0
 26 28  1  0
 28 29  2  0
 28 32  1  0
 30 24  1  0
 31 30  2  0
M  END
$$$$
