FNY.pdb
     RDKit          3D

 32 33  0  0  1  0  0  0  0  0999 V2000
   21.4568  -21.6708  -13.5719 N   0  0  0  0  0  0  0  0  0  0  0  0
   20.4455  -21.3497  -12.6027 C   0  0  1  0  0  0  0  0  0  0  0  0
   19.2606  -20.6176  -13.2261 C   0  0  0  0  0  0  0  0  0  0  0  0
   19.4271  -19.1598  -13.2389 C   0  0  0  0  0  0  0  0  0  0  0  0
   18.8540  -18.3588  -12.2709 C   0  0  0  0  0  0  0  0  0  0  0  0
   19.0322  -16.9858  -12.3185 C   0  0  0  0  0  0  0  0  0  0  0  0
   19.7734  -16.3874  -13.3160 C   0  0  0  0  0  0  0  0  0  0  0  0
   20.3602  -17.1808  -14.3035 C   0  0  0  0  0  0  0  0  0  0  0  0
   20.1760  -18.5458  -14.2452 C   0  0  0  0  0  0  0  0  0  0  0  0
   19.9508  -22.5972  -11.9961 C   0  0  0  0  0  0  0  0  0  0  0  0
   20.6387  -23.6343  -12.0926 O   0  0  0  0  0  0  0  0  0  0  0  0
   18.8871  -25.0766   -7.1985 N   0  0  0  0  0  0  0  0  0  0  0  0
   18.9677  -25.2120   -8.6070 C   0  0  0  0  0  0  0  0  0  0  0  0
   18.7512  -26.3865   -9.0787 O   0  0  0  0  0  0  0  0  0  0  0  0
   19.2807  -24.0830   -9.5028 C   0  0  0  0  0  0  0  0  0  0  0  0
   18.2735  -23.7636  -10.5297 C   0  0  2  0  0  0  0  0  0  0  0  0
   18.7192  -22.6248  -11.3154 N   0  0  0  0  0  0  0  0  0  0  0  0
   16.9018  -23.5165  -10.0700 C   0  0  0  0  0  0  0  0  0  0  0  0
   16.7063  -22.5734   -9.2632 O   0  0  0  0  0  0  0  0  0  0  0  0
   15.1682  -18.4565  -12.8594 O   0  0  0  0  0  0  0  0  0  0  0  0
   14.7791  -19.7199  -12.4173 C   0  0  0  0  0  0  0  0  0  0  0  0
   15.2376  -20.8877  -12.9846 C   0  0  0  0  0  0  0  0  0  0  0  0
   14.8135  -22.1073  -12.5009 C   0  0  0  0  0  0  0  0  0  0  0  0
   13.9275  -22.1646  -11.4455 C   0  0  0  0  0  0  0  0  0  0  0  0
   13.4981  -23.5149  -10.9583 C   0  0  0  0  0  0  0  0  0  0  0  0
   14.4909  -23.9531   -9.9018 C   0  0  2  0  0  0  0  0  0  0  0  0
   15.7766  -24.2722  -10.4752 N   0  0  0  0  0  0  0  0  0  0  0  0
   13.9667  -25.1086   -9.1210 C   0  0  0  0  0  0  0  0  0  0  0  0
   14.5655  -26.2095   -9.0860 O   0  0  0  0  0  0  0  0  0  0  0  0
   13.4504  -21.0142  -10.8563 C   0  0  0  0  0  0  0  0  0  0  0  0
   13.8937  -19.7915  -11.3631 C   0  0  0  0  0  0  0  0  0  0  0  0
   12.7843  -24.9376   -8.4224 O   0  0  0  0  0  0  0  0  0  0  0  0
  2  1  1  6
  3  4  1  0
  3  2  1  0
  4  5  2  0
  5  6  1  0
  7  6  2  0
  8  7  1  0
  9  4  1  0
  9  8  2  0
 10  2  1  0
 10 17  1  0
 11 10  2  0
 12 13  1  0
 13 14  2  0
 15 13  1  0
 16 15  1  1
 16 17  1  0
 18 16  1  0
 18 27  1  0
 19 18  2  0
 20 21  1  0
 21 22  2  0
 21 31  1  0
 22 23  1  0
 23 24  2  0
 24 25  1  0
 26 25  1  6
 26 27  1  0
 26 28  1  0
 28 29  2  0
 28 32  1  0
 30 24  1  0
 31 30  2  0
M  END
$$$$
