FNY.pdb
     RDKit          3D

 32 33  0  0  1  0  0  0  0  0999 V2000
   25.5057  -16.9273  -16.7236 N   0  0  0  0  0  0  0  0  0  0  0  0
   26.2119  -17.8367  -15.8636 C   0  0  1  0  0  0  0  0  0  0  0  0
   27.4658  -17.2072  -15.2636 C   0  0  0  0  0  0  0  0  0  0  0  0
   28.5440  -17.0272  -16.2424 C   0  0  0  0  0  0  0  0  0  0  0  0
   29.2882  -18.0958  -16.7020 C   0  0  0  0  0  0  0  0  0  0  0  0
   30.2999  -17.8850  -17.6246 C   0  0  0  0  0  0  0  0  0  0  0  0
   30.5899  -16.6245  -18.1037 C   0  0  0  0  0  0  0  0  0  0  0  0
   29.8484  -15.5318  -17.6505 C   0  0  0  0  0  0  0  0  0  0  0  0
   28.8442  -15.7544  -16.7326 C   0  0  0  0  0  0  0  0  0  0  0  0
   25.3234  -18.2392  -14.7603 C   0  0  0  0  0  0  0  0  0  0  0  0
   24.6623  -17.3653  -14.1626 O   0  0  0  0  0  0  0  0  0  0  0  0
   22.4487  -20.8391  -11.2889 N   0  0  0  0  0  0  0  0  0  0  0  0
   22.3338  -21.2398  -12.6435 C   0  0  0  0  0  0  0  0  0  0  0  0
   21.3128  -21.9603  -12.9388 O   0  0  0  0  0  0  0  0  0  0  0  0
   23.3179  -20.8634  -13.6755 C   0  0  0  0  0  0  0  0  0  0  0  0
   24.4494  -20.0321  -13.2288 C   0  0  2  0  0  0  0  0  0  0  0  0
   25.2177  -19.5905  -14.3809 N   0  0  0  0  0  0  0  0  0  0  0  0
   25.3650  -20.6190  -12.2433 C   0  0  0  0  0  0  0  0  0  0  0  0
   26.1876  -21.4831  -12.6372 O   0  0  0  0  0  0  0  0  0  0  0  0
   28.1144  -18.5015   -4.7108 O   0  0  0  0  0  0  0  0  0  0  0  0
   27.9580  -19.1583   -5.9304 C   0  0  0  0  0  0  0  0  0  0  0  0
   28.4407  -20.4258   -6.1675 C   0  0  0  0  0  0  0  0  0  0  0  0
   28.2534  -21.0208   -7.3973 C   0  0  0  0  0  0  0  0  0  0  0  0
   27.5812  -20.3496   -8.3971 C   0  0  0  0  0  0  0  0  0  0  0  0
   27.4050  -21.0408   -9.7148 C   0  0  0  0  0  0  0  0  0  0  0  0
   25.9185  -21.2340   -9.9309 C   0  0  2  0  0  0  0  0  0  0  0  0
   25.3855  -20.2767  -10.8707 N   0  0  0  0  0  0  0  0  0  0  0  0
   25.1767  -21.1667   -8.6406 C   0  0  0  0  0  0  0  0  0  0  0  0
   24.2969  -20.2993   -8.4278 O   0  0  0  0  0  0  0  0  0  0  0  0
   27.0862  -19.0804   -8.1912 C   0  0  0  0  0  0  0  0  0  0  0  0
   27.2880  -18.4987   -6.9385 C   0  0  0  0  0  0  0  0  0  0  0  0
   25.4845  -22.0989   -7.6651 O   0  0  0  0  0  0  0  0  0  0  0  0
  2  1  1  6
  3  4  1  0
  3  2  1  0
  4  5  2  0
  5  6  1  0
  7  6  2  0
  8  7  1  0
  9  4  1  0
  9  8  2  0
 10  2  1  0
 10 17  1  0
 11 10  2  0
 12 13  1  0
 13 14  2  0
 15 13  1  0
 16 15  1  6
 16 17  1  0
 18 16  1  0
 18 27  1  0
 19 18  2  0
 20 21  1  0
 21 22  2  0
 21 31  1  0
 22 23  1  0
 23 24  2  0
 24 25  1  0
 26 25  1  1
 26 27  1  0
 26 28  1  0
 28 29  2  0
 28 32  1  0
 30 24  1  0
 31 30  2  0
M  END
$$$$
