FNY.pdb
     RDKit          3D

 32 33  0  0  1  0  0  0  0  0999 V2000
   27.7799  -20.0594  -15.4965 N   0  0  0  0  0  0  0  0  0  0  0  0
   26.9572  -19.2915  -14.6029 C   0  0  1  0  0  0  0  0  0  0  0  0
   26.1066  -18.2627  -15.3423 C   0  0  0  0  0  0  0  0  0  0  0  0
   26.8746  -17.0943  -15.7875 C   0  0  0  0  0  0  0  0  0  0  0  0
   27.2607  -16.1047  -14.9052 C   0  0  0  0  0  0  0  0  0  0  0  0
   27.9830  -15.0155  -15.3645 C   0  0  0  0  0  0  0  0  0  0  0  0
   28.3323  -14.8879  -16.6928 C   0  0  0  0  0  0  0  0  0  0  0  0
   27.9506  -15.8783  -17.5997 C   0  0  0  0  0  0  0  0  0  0  0  0
   27.2323  -16.9574  -17.1306 C   0  0  0  0  0  0  0  0  0  0  0  0
   26.0549  -20.2037  -13.8801 C   0  0  0  0  0  0  0  0  0  0  0  0
   25.6543  -21.2397  -14.4496 O   0  0  0  0  0  0  0  0  0  0  0  0
   27.2461  -21.6450  -10.7064 N   0  0  0  0  0  0  0  0  0  0  0  0
   26.2747  -21.0309   -9.8770 C   0  0  0  0  0  0  0  0  0  0  0  0
   26.5998  -20.8673   -8.6456 O   0  0  0  0  0  0  0  0  0  0  0  0
   24.9571  -20.5949  -10.3757 C   0  0  0  0  0  0  0  0  0  0  0  0
   24.7194  -20.7527  -11.8212 C   0  0  2  0  0  0  0  0  0  0  0  0
   25.6465  -19.9155  -12.5644 N   0  0  0  0  0  0  0  0  0  0  0  0
   23.3577  -20.5027  -12.3084 C   0  0  0  0  0  0  0  0  0  0  0  0
   22.9824  -19.3107  -12.4380 O   0  0  0  0  0  0  0  0  0  0  0  0
   16.2422  -19.7477  -16.8826 O   0  0  0  0  0  0  0  0  0  0  0  0
   17.4813  -20.1274  -16.3693 C   0  0  0  0  0  0  0  0  0  0  0  0
   17.8447  -21.4420  -16.1806 C   0  0  0  0  0  0  0  0  0  0  0  0
   19.0866  -21.7518  -15.6677 C   0  0  0  0  0  0  0  0  0  0  0  0
   19.9723  -20.7464  -15.3410 C   0  0  0  0  0  0  0  0  0  0  0  0
   21.3087  -21.1370  -14.7871 C   0  0  0  0  0  0  0  0  0  0  0  0
   21.1918  -21.1368  -13.2771 C   0  0  2  0  0  0  0  0  0  0  0  0
   22.4318  -21.5183  -12.6443 N   0  0  0  0  0  0  0  0  0  0  0  0
   20.0819  -22.0225  -12.8259 C   0  0  0  0  0  0  0  0  0  0  0  0
   18.9714  -21.5623  -12.4701 O   0  0  0  0  0  0  0  0  0  0  0  0
   19.6387  -19.4214  -15.5180 C   0  0  0  0  0  0  0  0  0  0  0  0
   18.3762  -19.1323  -16.0384 C   0  0  0  0  0  0  0  0  0  0  0  0
   20.3068  -23.3879  -12.8084 O   0  0  0  0  0  0  0  0  0  0  0  0
  2  1  1  6
  3  4  1  0
  3  2  1  0
  4  5  2  0
  5  6  1  0
  7  6  2  0
  8  7  1  0
  9  4  1  0
  9  8  2  0
 10  2  1  0
 10 17  1  0
 11 10  2  0
 12 13  1  0
 13 14  2  0
 15 13  1  0
 16 15  1  1
 16 17  1  0
 18 16  1  0
 18 27  1  0
 19 18  2  0
 20 21  1  0
 21 22  2  0
 21 31  1  0
 22 23  1  0
 23 24  2  0
 24 25  1  0
 26 25  1  6
 26 27  1  0
 26 28  1  0
 28 29  2  0
 28 32  1  0
 30 24  1  0
 31 30  2  0
M  END
$$$$
