FNY.pdb
     RDKit          3D

 32 33  0  0  1  0  0  0  0  0999 V2000
   27.1493  -21.7304  -11.7465 N   0  0  0  0  0  0  0  0  0  0  0  0
   25.7328  -21.5254  -11.8753 C   0  0  1  0  0  0  0  0  0  0  0  0
   25.2495  -20.3186  -11.0761 C   0  0  0  0  0  0  0  0  0  0  0  0
   25.5833  -20.4021   -9.6496 C   0  0  0  0  0  0  0  0  0  0  0  0
   26.6736  -19.7381   -9.1228 C   0  0  0  0  0  0  0  0  0  0  0  0
   26.9574  -19.8437   -7.7710 C   0  0  0  0  0  0  0  0  0  0  0  0
   26.1746  -20.6015   -6.9251 C   0  0  0  0  0  0  0  0  0  0  0  0
   25.0683  -21.2802   -7.4396 C   0  0  0  0  0  0  0  0  0  0  0  0
   24.7960  -21.1671   -8.7862 C   0  0  0  0  0  0  0  0  0  0  0  0
   25.4090  -21.2999  -13.2941 C   0  0  0  0  0  0  0  0  0  0  0  0
   26.0867  -20.4818  -13.9495 O   0  0  0  0  0  0  0  0  0  0  0  0
   25.7934  -24.7488  -15.5907 N   0  0  0  0  0  0  0  0  0  0  0  0
   26.1005  -23.3685  -15.4949 C   0  0  0  0  0  0  0  0  0  0  0  0
   27.1669  -23.0669  -14.8463 O   0  0  0  0  0  0  0  0  0  0  0  0
   25.2593  -22.3178  -16.0977 C   0  0  0  0  0  0  0  0  0  0  0  0
   24.0679  -21.9131  -15.3311 C   0  0  2  0  0  0  0  0  0  0  0  0
   24.3502  -21.9952  -13.9077 N   0  0  0  0  0  0  0  0  0  0  0  0
   22.8164  -22.6273  -15.6097 C   0  0  0  0  0  0  0  0  0  0  0  0
   22.7079  -23.8138  -15.2107 O   0  0  0  0  0  0  0  0  0  0  0  0
   15.4739  -20.7561  -11.9660 O   0  0  0  0  0  0  0  0  0  0  0  0
   16.7438  -20.8575  -12.5319 C   0  0  0  0  0  0  0  0  0  0  0  0
   17.7459  -21.6329  -11.9930 C   0  0  0  0  0  0  0  0  0  0  0  0
   18.9820  -21.6903  -12.6014 C   0  0  0  0  0  0  0  0  0  0  0  0
   19.2217  -20.9713  -13.7537 C   0  0  0  0  0  0  0  0  0  0  0  0
   20.5819  -21.0683  -14.3748 C   0  0  0  0  0  0  0  0  0  0  0  0
   20.4579  -21.9426  -15.6052 C   0  0  2  0  0  0  0  0  0  0  0  0
   21.7161  -22.0684  -16.3013 N   0  0  0  0  0  0  0  0  0  0  0  0
   19.4030  -21.4285  -16.5231 C   0  0  0  0  0  0  0  0  0  0  0  0
   19.5839  -20.4132  -17.2360 O   0  0  0  0  0  0  0  0  0  0  0  0
   18.2399  -20.1863  -14.3176 C   0  0  0  0  0  0  0  0  0  0  0  0
   16.9969  -20.1439  -13.6839 C   0  0  0  0  0  0  0  0  0  0  0  0
   18.1983  -22.1078  -16.5734 O   0  0  0  0  0  0  0  0  0  0  0  0
  2  1  1  6
  3  4  1  0
  3  2  1  0
  4  5  2  0
  5  6  1  0
  7  6  2  0
  8  7  1  0
  9  4  1  0
  9  8  2  0
 10  2  1  0
 10 17  1  0
 11 10  2  0
 12 13  1  0
 13 14  2  0
 15 13  1  0
 16 15  1  6
 16 17  1  0
 18 16  1  0
 18 27  1  0
 19 18  2  0
 20 21  1  0
 21 22  2  0
 21 31  1  0
 22 23  1  0
 23 24  2  0
 24 25  1  0
 26 25  1  1
 26 27  1  0
 26 28  1  0
 28 29  2  0
 28 32  1  0
 30 24  1  0
 31 30  2  0
M  END
$$$$
