CKC.pdb
     RDKit          3D

 22 21  0  0  1  0  0  0  0  0999 V2000
   23.6600  -11.2442  -17.5647 N   0  0  0  0  0  0  0  0  0  0  0  0
   23.0748  -10.8258  -16.2791 C   0  0  1  0  0  0  0  0  0  0  0  0
   24.2297  -10.4872  -15.3548 C   0  0  0  0  0  0  0  0  0  0  0  0
   25.0843  -11.9861  -14.8352 S   0  0  0  0  0  0  0  0  0  0  0  0
   22.1745   -9.6995  -16.5429 C   0  0  0  0  0  0  0  0  0  0  0  0
   22.5769   -8.7634  -17.3013 O   0  0  0  0  0  0  0  0  0  0  0  0
   20.8637   -9.5506  -16.0206 N   0  0  0  0  0  0  0  0  0  0  0  0
   20.0926   -8.3357  -16.3229 C   0  0  1  0  0  0  0  0  0  0  0  0
   18.5996   -8.6361  -16.2930 C   0  0  0  0  0  0  0  0  0  0  0  0
   18.1918   -9.3553  -17.5511 C   0  0  0  0  0  0  0  0  0  0  0  0
   16.6969   -9.5922  -17.4694 C   0  0  0  0  0  0  0  0  0  0  0  0
   16.2153  -10.3213  -18.7090 C   0  0  0  0  0  0  0  0  0  0  0  0
   14.7610  -10.3958  -18.6783 N   0  0  0  0  0  0  0  0  0  0  0  0
   20.3763   -7.3417  -15.2671 C   0  0  0  0  0  0  0  0  0  0  0  0
   20.4942   -7.6811  -14.0442 O   0  0  0  0  0  0  0  0  0  0  0  0
   20.5319   -5.9661  -15.5528 N   0  0  0  0  0  0  0  0  0  0  0  0
   20.7209   -4.9688  -14.4984 C   0  0  1  0  0  0  0  0  0  0  0  0
   22.2144   -4.6231  -14.5203 C   0  0  0  0  0  0  0  0  0  0  0  0
   22.4361   -3.2101  -13.3989 S   0  0  0  0  0  0  0  0  0  0  0  0
   19.9005   -3.7888  -14.8566 C   0  0  0  0  0  0  0  0  0  0  0  0
   19.7472   -3.5488  -16.0935 O   0  0  0  0  0  0  0  0  0  0  0  0
   19.3087   -2.9574  -13.9263 O   0  0  0  0  0  0  0  0  0  0  0  0
  2  1  1  6
  2  3  1  0
  2  5  1  0
  4  3  1  0
  5  6  2  0
  7  8  1  0
  7  5  1  0
  8  9  1  1
 10  9  1  0
 11 12  1  0
 11 10  1  0
 13 12  1  0
 14 15  2  0
 14  8  1  0
 16 14  1  0
 17 16  1  0
 17 20  1  0
 17 18  1  6
 19 18  1  0
 20 22  1  0
 21 20  2  0
M  END
$$$$
