CKC.pdb
     RDKit          3D

 22 21  0  0  1  0  0  0  0  0999 V2000
   14.1357  -10.5524  -10.8335 N   0  0  0  0  0  0  0  0  0  0  0  0
   15.3628  -10.1736  -10.1116 C   0  0  1  0  0  0  0  0  0  0  0  0
   16.4848  -11.0351  -10.6607 C   0  0  0  0  0  0  0  0  0  0  0  0
   16.4518  -12.6720   -9.9081 S   0  0  0  0  0  0  0  0  0  0  0  0
   15.5689   -8.7351  -10.3039 C   0  0  0  0  0  0  0  0  0  0  0  0
   15.4004   -8.2459  -11.4639 O   0  0  0  0  0  0  0  0  0  0  0  0
   15.9472   -7.8130   -9.2940 N   0  0  0  0  0  0  0  0  0  0  0  0
   16.1874   -6.4057   -9.6454 C   0  0  1  0  0  0  0  0  0  0  0  0
   15.7393   -5.4936   -8.5107 C   0  0  0  0  0  0  0  0  0  0  0  0
   14.2445   -5.3187   -8.5478 C   0  0  0  0  0  0  0  0  0  0  0  0
   13.8834   -4.3064   -7.4790 C   0  0  0  0  0  0  0  0  0  0  0  0
   12.3961   -4.0124   -7.5195 C   0  0  0  0  0  0  0  0  0  0  0  0
   12.0868   -3.0017   -6.5173 N   0  0  0  0  0  0  0  0  0  0  0  0
   17.6426   -6.2233   -9.8258 C   0  0  0  0  0  0  0  0  0  0  0  0
   18.4665   -6.4469   -8.8794 O   0  0  0  0  0  0  0  0  0  0  0  0
   18.1993   -5.7930  -11.0518 N   0  0  0  0  0  0  0  0  0  0  0  0
   19.6452   -5.7184  -11.2664 C   0  0  1  0  0  0  0  0  0  0  0  0
   20.1054   -7.1648  -11.4821 C   0  0  0  0  0  0  0  0  0  0  0  0
   21.8393   -7.0825  -12.0208 S   0  0  0  0  0  0  0  0  0  0  0  0
   19.8679   -4.9062  -12.4847 C   0  0  0  0  0  0  0  0  0  0  0  0
   21.0491   -4.4897  -12.6905 O   0  0  0  0  0  0  0  0  0  0  0  0
   18.8707   -4.5891  -13.3858 O   0  0  0  0  0  0  0  0  0  0  0  0
  2  1  1  6
  2  3  1  0
  2  5  1  0
  4  3  1  0
  5  6  2  0
  7  8  1  0
  7  5  1  0
  8  9  1  1
 10  9  1  0
 11 12  1  0
 11 10  1  0
 13 12  1  0
 14 15  2  0
 14  8  1  0
 16 14  1  0
 17 16  1  0
 17 20  1  0
 17 18  1  6
 19 18  1  0
 20 22  1  0
 21 20  2  0
M  END
$$$$
