CKC.pdb
     RDKit          3D

 22 21  0  0  1  0  0  0  0  0999 V2000
   25.8100  -11.8643  -17.7517 N   0  0  0  0  0  0  0  0  0  0  0  0
   25.5716  -11.2607  -16.4291 C   0  0  1  0  0  0  0  0  0  0  0  0
   26.8666  -10.5919  -16.0064 C   0  0  0  0  0  0  0  0  0  0  0  0
   28.0828  -11.8253  -15.5100 S   0  0  0  0  0  0  0  0  0  0  0  0
   24.4396  -10.3380  -16.5559 C   0  0  0  0  0  0  0  0  0  0  0  0
   24.4063   -9.5487  -17.5504 O   0  0  0  0  0  0  0  0  0  0  0  0
   23.3497  -10.2397  -15.6528 N   0  0  0  0  0  0  0  0  0  0  0  0
   22.2578   -9.2946  -15.9291 C   0  0  1  0  0  0  0  0  0  0  0  0
   20.9328   -9.8574  -15.4310 C   0  0  0  0  0  0  0  0  0  0  0  0
   20.3330  -10.7649  -16.4718 C   0  0  0  0  0  0  0  0  0  0  0  0
   19.0004  -11.2472  -15.9339 C   0  0  0  0  0  0  0  0  0  0  0  0
   18.3321  -12.1640  -16.9403 C   0  0  0  0  0  0  0  0  0  0  0  0
   17.0850  -12.6588  -16.3733 N   0  0  0  0  0  0  0  0  0  0  0  0
   22.5318   -8.0505  -15.1804 C   0  0  0  0  0  0  0  0  0  0  0  0
   22.8659   -8.0706  -13.9505 O   0  0  0  0  0  0  0  0  0  0  0  0
   22.4393   -6.7753  -15.7832 N   0  0  0  0  0  0  0  0  0  0  0  0
   22.7931   -5.5486  -15.0675 C   0  0  1  0  0  0  0  0  0  0  0  0
   23.6691   -4.7444  -16.0352 C   0  0  0  0  0  0  0  0  0  0  0  0
   25.2860   -5.5729  -16.0818 S   0  0  0  0  0  0  0  0  0  0  0  0
   21.5315   -4.8299  -14.7756 C   0  0  0  0  0  0  0  0  0  0  0  0
   20.5443   -5.0679  -15.5372 O   0  0  0  0  0  0  0  0  0  0  0  0
   21.3847   -3.9330  -13.7358 O   0  0  0  0  0  0  0  0  0  0  0  0
  2  1  1  6
  2  3  1  0
  2  5  1  0
  4  3  1  0
  5  6  2  0
  7  8  1  0
  7  5  1  0
  8  9  1  1
 10  9  1  0
 11 12  1  0
 11 10  1  0
 13 12  1  0
 14 15  2  0
 14  8  1  0
 16 14  1  0
 17 16  1  0
 17 20  1  0
 17 18  1  6
 19 18  1  0
 20 22  1  0
 21 20  2  0
M  END
$$$$
