CKC.pdb
     RDKit          3D

 22 21  0  0  1  0  0  0  0  0999 V2000
   12.7632  -12.7295   -9.6079 N   0  0  0  0  0  0  0  0  0  0  0  0
   12.4487  -11.3390   -9.9794 C   0  0  1  0  0  0  0  0  0  0  0  0
   11.4785  -10.8102   -8.9393 C   0  0  0  0  0  0  0  0  0  0  0  0
    9.8575  -11.5705   -9.1420 S   0  0  0  0  0  0  0  0  0  0  0  0
   13.7113  -10.5973  -10.0462 C   0  0  0  0  0  0  0  0  0  0  0  0
   14.6136  -10.8533   -9.1896 O   0  0  0  0  0  0  0  0  0  0  0  0
   14.0314   -9.5966  -10.9998 N   0  0  0  0  0  0  0  0  0  0  0  0
   15.3716   -8.9917  -10.9991 C   0  0  1  0  0  0  0  0  0  0  0  0
   16.0347   -9.1745  -12.3582 C   0  0  0  0  0  0  0  0  0  0  0  0
   17.3972   -8.5341  -12.3587 C   0  0  0  0  0  0  0  0  0  0  0  0
   18.0135   -8.7890  -13.7198 C   0  0  0  0  0  0  0  0  0  0  0  0
   19.3935   -8.1642  -13.7934 C   0  0  0  0  0  0  0  0  0  0  0  0
   19.9911   -8.4891  -15.0814 N   0  0  0  0  0  0  0  0  0  0  0  0
   15.2165   -7.5415  -10.7617 C   0  0  0  0  0  0  0  0  0  0  0  0
   14.4777   -6.8178  -11.5066 O   0  0  0  0  0  0  0  0  0  0  0  0
   15.8756   -6.8795   -9.7008 N   0  0  0  0  0  0  0  0  0  0  0  0
   15.6859   -5.4524   -9.4367 C   0  0  1  0  0  0  0  0  0  0  0  0
   15.7321   -5.3055   -7.9113 C   0  0  0  0  0  0  0  0  0  0  0  0
   14.0666   -5.7024   -7.3014 S   0  0  0  0  0  0  0  0  0  0  0  0
   16.8150   -4.7336  -10.0708 C   0  0  0  0  0  0  0  0  0  0  0  0
   16.7752   -3.4652  -10.0477 O   0  0  0  0  0  0  0  0  0  0  0  0
   17.8845   -5.3675  -10.6721 O   0  0  0  0  0  0  0  0  0  0  0  0
  2  1  1  1
  2  3  1  0
  2  5  1  0
  4  3  1  0
  5  6  2  0
  7  8  1  0
  7  5  1  0
  8  9  1  6
 10  9  1  0
 11 12  1  0
 11 10  1  0
 13 12  1  0
 14 15  2  0
 14  8  1  0
 16 14  1  0
 17 16  1  0
 17 20  1  0
 17 18  1  1
 19 18  1  0
 20 22  1  0
 21 20  2  0
M  END
$$$$
