CKC.pdb
     RDKit          3D

 22 21  0  0  1  0  0  0  0  0999 V2000
   18.7485   -9.6941  -14.8325 N   0  0  0  0  0  0  0  0  0  0  0  0
   18.9947   -9.4867  -13.3949 C   0  0  1  0  0  0  0  0  0  0  0  0
   20.0826   -8.4352  -13.2780 C   0  0  0  0  0  0  0  0  0  0  0  0
   21.7004   -9.1604  -13.6000 S   0  0  0  0  0  0  0  0  0  0  0  0
   17.7242   -9.0993  -12.7748 C   0  0  0  0  0  0  0  0  0  0  0  0
   16.9986   -8.2373  -13.3612 O   0  0  0  0  0  0  0  0  0  0  0  0
   17.2133   -9.6075  -11.5525 N   0  0  0  0  0  0  0  0  0  0  0  0
   15.8663   -9.2198  -11.1086 C   0  0  1  0  0  0  0  0  0  0  0  0
   15.0723  -10.4511  -10.6918 C   0  0  0  0  0  0  0  0  0  0  0  0
   13.7076  -10.0449  -10.2030 C   0  0  0  0  0  0  0  0  0  0  0  0
   12.9095  -11.3158   -9.9900 C   0  0  0  0  0  0  0  0  0  0  0  0
   11.4899  -10.9777   -9.5767 C   0  0  0  0  0  0  0  0  0  0  0  0
   10.7803  -12.2123   -9.2704 N   0  0  0  0  0  0  0  0  0  0  0  0
   16.0103   -8.3504   -9.9226 C   0  0  0  0  0  0  0  0  0  0  0  0
   16.9398   -8.5321   -9.0697 O   0  0  0  0  0  0  0  0  0  0  0  0
   15.1297   -7.2740   -9.6690 N   0  0  0  0  0  0  0  0  0  0  0  0
   15.3586   -6.3207   -8.5823 C   0  0  1  0  0  0  0  0  0  0  0  0
   16.4630   -5.3822   -9.0825 C   0  0  0  0  0  0  0  0  0  0  0  0
   16.5474   -4.0043   -7.9004 S   0  0  0  0  0  0  0  0  0  0  0  0
   14.0927   -5.5813   -8.3716 C   0  0  0  0  0  0  0  0  0  0  0  0
   13.3742   -5.3672   -9.3958 O   0  0  0  0  0  0  0  0  0  0  0  0
   13.6692   -5.1251   -7.1389 O   0  0  0  0  0  0  0  0  0  0  0  0
  2  1  1  6
  2  3  1  0
  2  5  1  0
  4  3  1  0
  5  6  2  0
  7  8  1  0
  7  5  1  0
  8  9  1  1
 10  9  1  0
 11 12  1  0
 11 10  1  0
 13 12  1  0
 14 15  2  0
 14  8  1  0
 16 14  1  0
 17 16  1  0
 17 20  1  0
 17 18  1  6
 19 18  1  0
 20 22  1  0
 21 20  2  0
M  END
$$$$
