TLW.pdb
     RDKit          3D

 30 31  0  0  1  0  0  0  0  0999 V2000
   24.6526  -15.9130  -15.5995 C   0  0  0  0  0  0  0  0  0  0  0  0
   25.0608  -17.2393  -14.9702 C   0  0  1  0  0  0  0  0  0  0  0  0
   23.9025  -17.9746  -14.8150 O   0  0  0  0  0  0  0  0  0  0  0  0
   26.0754  -17.8623  -15.8540 C   0  0  2  0  0  0  0  0  0  0  0  0
   25.6105  -18.0466  -17.2119 N   0  0  0  0  0  0  0  0  0  0  0  0
   26.6817  -19.1048  -15.3065 C   0  0  0  0  0  0  0  0  0  0  0  0
   26.2644  -20.2342  -15.6868 O   0  0  0  0  0  0  0  0  0  0  0  0
   31.1940  -20.4566  -11.3024 C   0  0  0  0  0  0  0  0  0  0  0  0
   30.0160  -21.0985  -12.0845 C   0  0  2  0  0  0  0  0  0  0  0  0
   30.6473  -22.0556  -13.0627 C   0  0  0  0  0  0  0  0  0  0  0  0
   29.3743  -19.9768  -12.8316 C   0  0  0  0  0  0  0  0  0  0  0  0
   28.1923  -20.3317  -13.6568 C   0  0  2  0  0  0  0  0  0  0  0  0
   27.7234  -19.0951  -14.3605 N   0  0  0  0  0  0  0  0  0  0  0  0
   27.0567  -20.9686  -12.9960 C   0  0  0  0  0  0  0  0  0  0  0  0
   27.0906  -22.2526  -12.8996 O   0  0  0  0  0  0  0  0  0  0  0  0
   25.9214  -20.3731  -12.4399 N   0  0  0  0  0  0  0  0  0  0  0  0
   24.8505  -21.0979  -11.7536 C   0  0  1  0  0  0  0  0  0  0  0  0
   25.4172  -21.5085  -10.4256 C   0  0  0  0  0  0  0  0  0  0  0  0
   25.8815  -20.4343   -9.5433 C   0  0  0  0  0  0  0  0  0  0  0  0
   25.6140  -19.0728   -9.7373 C   0  0  0  0  0  0  0  0  0  0  0  0
   26.1910  -18.3468   -8.7798 N   0  0  0  0  0  0  0  0  0  0  0  0
   26.8327  -19.1977   -7.9580 C   0  0  0  0  0  0  0  0  0  0  0  0
   27.5704  -18.9885   -6.8142 C   0  0  0  0  0  0  0  0  0  0  0  0
   28.1363  -20.0131   -6.1039 C   0  0  0  0  0  0  0  0  0  0  0  0
   27.9597  -21.3163   -6.5539 C   0  0  0  0  0  0  0  0  0  0  0  0
   27.2264  -21.5425   -7.6941 C   0  0  0  0  0  0  0  0  0  0  0  0
   26.6561  -20.4861   -8.4079 C   0  0  0  0  0  0  0  0  0  0  0  0
   23.6051  -20.3287  -11.7182 C   0  0  0  0  0  0  0  0  0  0  0  0
   22.5806  -20.8720  -11.1851 O   0  0  0  0  0  0  0  0  0  0  0  0
   23.4133  -19.0587  -12.2007 O   0  0  0  0  0  0  0  0  0  0  0  0
  2  1  1  6
  3  2  1  0
  4  6  1  0
  4  5  1  6
  4  2  1  0
  6  7  2  0
  9 11  1  0
  9  8  1  1
 10  9  1  0
 12 11  1  1
 12 14  1  0
 13 12  1  0
 13  6  1  0
 14 15  2  0
 16 17  1  0
 16 14  1  0
 17 28  1  0
 17 18  1  1
 19 18  1  0
 20 19  2  0
 21 22  1  0
 21 20  1  0
 22 27  2  0
 23 22  1  0
 23 24  2  0
 24 25  1  0
 25 26  2  0
 27 19  1  0
 27 26  1  0
 28 29  2  0
 28 30  1  0
M  END
$$$$
