TLW.pdb
     RDKit          3D

 30 31  0  0  1  0  0  0  0  0999 V2000
   21.5017  -18.6801  -18.0449 C   0  0  0  0  0  0  0  0  0  0  0  0
   22.9760  -19.0639  -18.0179 C   0  0  1  0  0  0  0  0  0  0  0  0
   23.6878  -17.9126  -18.2899 O   0  0  0  0  0  0  0  0  0  0  0  0
   23.2587  -19.6678  -16.6935 C   0  0  2  0  0  0  0  0  0  0  0  0
   22.8939  -18.8090  -15.5874 N   0  0  0  0  0  0  0  0  0  0  0  0
   24.6402  -20.1978  -16.5464 C   0  0  0  0  0  0  0  0  0  0  0  0
   25.1228  -20.9619  -17.4281 O   0  0  0  0  0  0  0  0  0  0  0  0
   28.1344  -18.8525  -17.5147 C   0  0  0  0  0  0  0  0  0  0  0  0
   27.6660  -18.2186  -16.1767 C   0  0  2  0  0  0  0  0  0  0  0  0
   28.6584  -17.1261  -15.8717 C   0  0  0  0  0  0  0  0  0  0  0  0
   27.7908  -19.3013  -15.1567 C   0  0  0  0  0  0  0  0  0  0  0  0
   26.8491  -20.4409  -15.2933 C   0  0  2  0  0  0  0  0  0  0  0  0
   25.4650  -19.8893  -15.4487 N   0  0  0  0  0  0  0  0  0  0  0  0
   26.8456  -21.4609  -14.2485 C   0  0  0  0  0  0  0  0  0  0  0  0
   27.9930  -21.9217  -13.8876 O   0  0  0  0  0  0  0  0  0  0  0  0
   25.7567  -22.0145  -13.5699 N   0  0  0  0  0  0  0  0  0  0  0  0
   25.5017  -21.8619  -12.1364 C   0  0  1  0  0  0  0  0  0  0  0  0
   26.7184  -21.1878  -11.5718 C   0  0  0  0  0  0  0  0  0  0  0  0
   26.6585  -20.7841  -10.1643 C   0  0  0  0  0  0  0  0  0  0  0  0
   25.5073  -20.3137   -9.5190 C   0  0  0  0  0  0  0  0  0  0  0  0
   25.7800  -20.0083   -8.2505 N   0  0  0  0  0  0  0  0  0  0  0  0
   27.0844  -20.2669   -8.0433 C   0  0  0  0  0  0  0  0  0  0  0  0
   27.8774  -20.1475   -6.9239 C   0  0  0  0  0  0  0  0  0  0  0  0
   29.2038  -20.4866   -6.9202 C   0  0  0  0  0  0  0  0  0  0  0  0
   29.7736  -20.9706   -8.0920 C   0  0  0  0  0  0  0  0  0  0  0  0
   28.9961  -21.0956   -9.2184 C   0  0  0  0  0  0  0  0  0  0  0  0
   27.6444  -20.7446   -9.2060 C   0  0  0  0  0  0  0  0  0  0  0  0
   24.2177  -21.2082  -11.8760 C   0  0  0  0  0  0  0  0  0  0  0  0
   23.9290  -20.1648  -12.5519 O   0  0  0  0  0  0  0  0  0  0  0  0
   23.2667  -21.6036  -10.9694 O   0  0  0  0  0  0  0  0  0  0  0  0
  2  1  1  1
  3  2  1  0
  4  6  1  0
  4  5  1  1
  4  2  1  0
  6  7  2  0
  9 11  1  0
  9  8  1  6
 10  9  1  0
 12 11  1  1
 12 14  1  0
 13 12  1  0
 13  6  1  0
 14 15  2  0
 16 17  1  0
 16 14  1  0
 17 28  1  0
 17 18  1  6
 19 18  1  0
 20 19  2  0
 21 22  1  0
 21 20  1  0
 22 27  2  0
 23 22  1  0
 23 24  2  0
 24 25  1  0
 25 26  2  0
 27 19  1  0
 27 26  1  0
 28 29  2  0
 28 30  1  0
M  END
$$$$
