TLW.pdb
     RDKit          3D

 30 31  0  0  1  0  0  0  0  0999 V2000
   29.1688  -18.2137  -16.8439 C   0  0  0  0  0  0  0  0  0  0  0  0
   28.5704  -18.8070  -15.5745 C   0  0  1  0  0  0  0  0  0  0  0  0
   27.1989  -18.7605  -15.7266 O   0  0  0  0  0  0  0  0  0  0  0  0
   29.1288  -20.1707  -15.4095 C   0  0  2  0  0  0  0  0  0  0  0  0
   28.8836  -21.0273  -16.5498 N   0  0  0  0  0  0  0  0  0  0  0  0
   28.7538  -20.8338  -14.1325 C   0  0  0  0  0  0  0  0  0  0  0  0
   27.8267  -21.6907  -14.1119 O   0  0  0  0  0  0  0  0  0  0  0  0
   30.8979  -23.2904  -10.7651 C   0  0  0  0  0  0  0  0  0  0  0  0
   31.2516  -21.7961  -10.9958 C   0  0  2  0  0  0  0  0  0  0  0  0
   32.3512  -21.4794  -10.0149 C   0  0  0  0  0  0  0  0  0  0  0  0
   30.0227  -21.0333  -10.6268 C   0  0  0  0  0  0  0  0  0  0  0  0
   28.9015  -21.0889  -11.5984 C   0  0  2  0  0  0  0  0  0  0  0  0
   29.3899  -20.5527  -12.9091 N   0  0  0  0  0  0  0  0  0  0  0  0
   27.6495  -20.4263  -11.2444 C   0  0  0  0  0  0  0  0  0  0  0  0
   27.4440  -19.2652  -11.7630 O   0  0  0  0  0  0  0  0  0  0  0  0
   26.6232  -20.8819  -10.4126 N   0  0  0  0  0  0  0  0  0  0  0  0
   25.2381  -20.4104  -10.4616 C   0  0  1  0  0  0  0  0  0  0  0  0
   24.7774  -20.6338  -11.8728 C   0  0  0  0  0  0  0  0  0  0  0  0
   23.3661  -20.3621  -12.1593 C   0  0  0  0  0  0  0  0  0  0  0  0
   22.4423  -19.8784  -11.2237 C   0  0  0  0  0  0  0  0  0  0  0  0
   21.2383  -19.7566  -11.7825 N   0  0  0  0  0  0  0  0  0  0  0  0
   21.3461  -20.1482  -13.0656 C   0  0  0  0  0  0  0  0  0  0  0  0
   20.4248  -20.2097  -14.0871 C   0  0  0  0  0  0  0  0  0  0  0  0
   20.7495  -20.6305  -15.3488 C   0  0  0  0  0  0  0  0  0  0  0  0
   22.0607  -21.0106  -15.6102 C   0  0  0  0  0  0  0  0  0  0  0  0
   22.9927  -20.9555  -14.6016 C   0  0  0  0  0  0  0  0  0  0  0  0
   22.6452  -20.5246  -13.3194 C   0  0  0  0  0  0  0  0  0  0  0  0
   24.4182  -21.0119   -9.4081 C   0  0  0  0  0  0  0  0  0  0  0  0
   23.2574  -20.5236   -9.2006 O   0  0  0  0  0  0  0  0  0  0  0  0
   24.7642  -22.0684   -8.6041 O   0  0  0  0  0  0  0  0  0  0  0  0
  2  1  1  6
  3  2  1  0
  4  6  1  0
  4  5  1  6
  4  2  1  0
  6  7  2  0
  9 11  1  0
  9  8  1  1
 10  9  1  0
 12 11  1  1
 12 14  1  0
 13 12  1  0
 13  6  1  0
 14 15  2  0
 16 17  1  0
 16 14  1  0
 17 28  1  0
 17 18  1  6
 19 18  1  0
 20 19  2  0
 21 22  1  0
 21 20  1  0
 22 27  2  0
 23 22  1  0
 23 24  2  0
 24 25  1  0
 25 26  2  0
 27 19  1  0
 27 26  1  0
 28 29  2  0
 28 30  1  0
M  END
$$$$
