TLW.pdb
     RDKit          3D

 30 31  0  0  1  0  0  0  0  0999 V2000
   26.4528  -27.9975  -16.3540 C   0  0  0  0  0  0  0  0  0  0  0  0
   27.3702  -27.8765  -17.5645 C   0  0  1  0  0  0  0  0  0  0  0  0
   27.8665  -26.5882  -17.5554 O   0  0  0  0  0  0  0  0  0  0  0  0
   28.4005  -28.9373  -17.4551 C   0  0  2  0  0  0  0  0  0  0  0  0
   29.4242  -28.8428  -18.4735 N   0  0  0  0  0  0  0  0  0  0  0  0
   27.8502  -30.3150  -17.3541 C   0  0  0  0  0  0  0  0  0  0  0  0
   27.3073  -30.8554  -18.3578 O   0  0  0  0  0  0  0  0  0  0  0  0
   28.8350  -34.9118  -16.7819 C   0  0  0  0  0  0  0  0  0  0  0  0
   29.3448  -33.8377  -15.7829 C   0  0  2  0  0  0  0  0  0  0  0  0
   30.1299  -34.5895  -14.7388 C   0  0  0  0  0  0  0  0  0  0  0  0
   28.1185  -33.2580  -15.1597 C   0  0  0  0  0  0  0  0  0  0  0  0
   27.2658  -32.4250  -16.0447 C   0  0  2  0  0  0  0  0  0  0  0  0
   27.8996  -31.0735  -16.1699 N   0  0  0  0  0  0  0  0  0  0  0  0
   25.8577  -32.2651  -15.6934 C   0  0  0  0  0  0  0  0  0  0  0  0
   25.5627  -31.2713  -14.9287 O   0  0  0  0  0  0  0  0  0  0  0  0
   24.7656  -33.0470  -16.0786 N   0  0  0  0  0  0  0  0  0  0  0  0
   23.3713  -32.7585  -15.7380 C   0  0  1  0  0  0  0  0  0  0  0  0
   23.1639  -31.3051  -16.0512 C   0  0  0  0  0  0  0  0  0  0  0  0
   21.8060  -30.7794  -15.8856 C   0  0  0  0  0  0  0  0  0  0  0  0
   21.2160  -30.4718  -14.6527 C   0  0  0  0  0  0  0  0  0  0  0  0
   19.9691  -30.0362  -14.8321 N   0  0  0  0  0  0  0  0  0  0  0  0
   19.7225  -30.0487  -16.1551 C   0  0  0  0  0  0  0  0  0  0  0  0
   18.6117  -29.6895  -16.8853 C   0  0  0  0  0  0  0  0  0  0  0  0
   18.5715  -29.7642  -18.2518 C   0  0  0  0  0  0  0  0  0  0  0  0
   19.6958  -30.2204  -18.9299 C   0  0  0  0  0  0  0  0  0  0  0  0
   20.8129  -30.5833  -18.2161 C   0  0  0  0  0  0  0  0  0  0  0  0
   20.8376  -30.5019  -16.8221 C   0  0  0  0  0  0  0  0  0  0  0  0
   22.4470  -33.6983  -16.3754 C   0  0  0  0  0  0  0  0  0  0  0  0
   22.8328  -34.2896  -17.4387 O   0  0  0  0  0  0  0  0  0  0  0  0
   21.1859  -34.0253  -15.9452 O   0  0  0  0  0  0  0  0  0  0  0  0
  2  1  1  1
  3  2  1  0
  4  6  1  0
  4  5  1  6
  4  2  1  0
  6  7  2  0
  9 11  1  0
  9  8  1  6
 10  9  1  0
 12 11  1  1
 12 14  1  0
 13 12  1  0
 13  6  1  0
 14 15  2  0
 16 17  1  0
 16 14  1  0
 17 28  1  0
 17 18  1  6
 19 18  1  0
 20 19  2  0
 21 22  1  0
 21 20  1  0
 22 27  2  0
 23 22  1  0
 23 24  2  0
 24 25  1  0
 25 26  2  0
 27 19  1  0
 27 26  1  0
 28 29  2  0
 28 30  1  0
M  END
$$$$
