TLW.pdb
     RDKit          3D

 30 31  0  0  1  0  0  0  0  0999 V2000
   15.4437  -18.9894  -21.5679 C   0  0  0  0  0  0  0  0  0  0  0  0
   14.1050  -18.9851  -22.2954 C   0  0  1  0  0  0  0  0  0  0  0  0
   14.3530  -19.4273  -23.5796 O   0  0  0  0  0  0  0  0  0  0  0  0
   13.1691  -19.8335  -21.5188 C   0  0  2  0  0  0  0  0  0  0  0  0
   11.8499  -19.9119  -22.1084 N   0  0  0  0  0  0  0  0  0  0  0  0
   13.1056  -19.5048  -20.0700 C   0  0  0  0  0  0  0  0  0  0  0  0
   12.0994  -19.8440  -19.3869 O   0  0  0  0  0  0  0  0  0  0  0  0
   15.4366  -20.6573  -15.1783 C   0  0  0  0  0  0  0  0  0  0  0  0
   14.4814  -19.5656  -15.7327 C   0  0  2  0  0  0  0  0  0  0  0  0
   13.0960  -20.1530  -15.6494 C   0  0  0  0  0  0  0  0  0  0  0  0
   14.8617  -19.3924  -17.1657 C   0  0  0  0  0  0  0  0  0  0  0  0
   14.0400  -18.4365  -17.9500 C   0  0  2  0  0  0  0  0  0  0  0  0
   14.1314  -18.8163  -19.3962 N   0  0  0  0  0  0  0  0  0  0  0  0
   14.3194  -17.0104  -17.8089 C   0  0  0  0  0  0  0  0  0  0  0  0
   15.4506  -16.5958  -18.2645 O   0  0  0  0  0  0  0  0  0  0  0  0
   13.5190  -16.0137  -17.2445 N   0  0  0  0  0  0  0  0  0  0  0  0
   13.9110  -14.6105  -17.1005 C   0  0  1  0  0  0  0  0  0  0  0  0
   13.0335  -13.8397  -18.0435 C   0  0  0  0  0  0  0  0  0  0  0  0
   13.1252  -12.3781  -17.9881 C   0  0  0  0  0  0  0  0  0  0  0  0
   14.2073  -11.6293  -18.4690 C   0  0  0  0  0  0  0  0  0  0  0  0
   14.0031  -10.3299  -18.2534 N   0  0  0  0  0  0  0  0  0  0  0  0
   12.8109  -10.2036  -17.6418 C   0  0  0  0  0  0  0  0  0  0  0  0
   12.1133   -9.0976  -17.2101 C   0  0  0  0  0  0  0  0  0  0  0  0
   10.8838   -9.1874  -16.6146 C   0  0  0  0  0  0  0  0  0  0  0  0
   10.3162  -10.4439  -16.4385 C   0  0  0  0  0  0  0  0  0  0  0  0
   10.9994  -11.5582  -16.8634 C   0  0  0  0  0  0  0  0  0  0  0  0
   12.2535  -11.4497  -17.4686 C   0  0  0  0  0  0  0  0  0  0  0  0
   13.8967  -14.1795  -15.7013 C   0  0  0  0  0  0  0  0  0  0  0  0
   13.1411  -14.8098  -14.8883 O   0  0  0  0  0  0  0  0  0  0  0  0
   14.6246  -13.1538  -15.1531 O   0  0  0  0  0  0  0  0  0  0  0  0
  2  1  1  1
  3  2  1  0
  4  6  1  0
  4  5  1  6
  4  2  1  0
  6  7  2  0
  9 11  1  0
  9  8  1  6
 10  9  1  0
 12 11  1  1
 12 14  1  0
 13 12  1  0
 13  6  1  0
 14 15  2  0
 16 17  1  0
 16 14  1  0
 17 28  1  0
 17 18  1  6
 19 18  1  0
 20 19  2  0
 21 22  1  0
 21 20  1  0
 22 27  2  0
 23 22  1  0
 23 24  2  0
 24 25  1  0
 25 26  2  0
 27 19  1  0
 27 26  1  0
 28 29  2  0
 28 30  1  0
M  END
$$$$
