TLW.pdb
     RDKit          3D

 30 31  0  0  1  0  0  0  0  0999 V2000
   32.6777  -23.7327  -11.4787 C   0  0  0  0  0  0  0  0  0  0  0  0
   31.2923  -23.1398  -11.2542 C   0  0  1  0  0  0  0  0  0  0  0  0
   30.8612  -23.5998  -10.0259 O   0  0  0  0  0  0  0  0  0  0  0  0
   31.4130  -21.6653  -11.3552 C   0  0  2  0  0  0  0  0  0  0  0  0
   32.4531  -21.1207  -10.5092 N   0  0  0  0  0  0  0  0  0  0  0  0
   30.1288  -20.9346  -11.1880 C   0  0  0  0  0  0  0  0  0  0  0  0
   29.9291  -20.2319  -10.1582 O   0  0  0  0  0  0  0  0  0  0  0  0
   28.0545  -17.6306  -13.6126 C   0  0  0  0  0  0  0  0  0  0  0  0
   28.1403  -19.0504  -14.2358 C   0  0  2  0  0  0  0  0  0  0  0  0
   27.5019  -18.9395  -15.5965 C   0  0  0  0  0  0  0  0  0  0  0  0
   27.2992  -19.9213  -13.3626 C   0  0  0  0  0  0  0  0  0  0  0  0
   27.8285  -20.1898  -12.0017 C   0  0  2  0  0  0  0  0  0  0  0  0
   29.0919  -20.9830  -12.1381 N   0  0  0  0  0  0  0  0  0  0  0  0
   26.9501  -20.8466  -11.0380 C   0  0  0  0  0  0  0  0  0  0  0  0
   26.9802  -22.1341  -11.0132 O   0  0  0  0  0  0  0  0  0  0  0  0
   26.0697  -20.2675  -10.1202 N   0  0  0  0  0  0  0  0  0  0  0  0
   24.9965  -20.9830   -9.4278 C   0  0  1  0  0  0  0  0  0  0  0  0
   25.1026  -20.5862   -7.9839 C   0  0  0  0  0  0  0  0  0  0  0  0
   26.3115  -19.8609   -7.5838 C   0  0  0  0  0  0  0  0  0  0  0  0
   26.8549  -18.7734   -8.2803 C   0  0  0  0  0  0  0  0  0  0  0  0
   27.9654  -18.3469   -7.6789 N   0  0  0  0  0  0  0  0  0  0  0  0
   28.1673  -19.1274   -6.6012 C   0  0  0  0  0  0  0  0  0  0  0  0
   29.1454  -19.1190   -5.6320 C   0  0  0  0  0  0  0  0  0  0  0  0
   29.1590  -20.0073   -4.5902 C   0  0  0  0  0  0  0  0  0  0  0  0
   28.1460  -20.9553   -4.5065 C   0  0  0  0  0  0  0  0  0  0  0  0
   27.1622  -20.9777   -5.4660 C   0  0  0  0  0  0  0  0  0  0  0  0
   27.1629  -20.0649   -6.5231 C   0  0  0  0  0  0  0  0  0  0  0  0
   23.6961  -20.7691  -10.0660 C   0  0  0  0  0  0  0  0  0  0  0  0
   23.6449  -19.9868  -11.0731 O   0  0  0  0  0  0  0  0  0  0  0  0
   22.5006  -21.3319   -9.6969 O   0  0  0  0  0  0  0  0  0  0  0  0
  2  1  1  1
  3  2  1  0
  4  6  1  0
  4  5  1  1
  4  2  1  0
  6  7  2  0
  9 11  1  0
  9  8  1  1
 10  9  1  0
 12 11  1  6
 12 14  1  0
 13 12  1  0
 13  6  1  0
 14 15  2  0
 16 17  1  0
 16 14  1  0
 17 28  1  0
 17 18  1  1
 19 18  1  0
 20 19  2  0
 21 22  1  0
 21 20  1  0
 22 27  2  0
 23 22  1  0
 23 24  2  0
 24 25  1  0
 25 26  2  0
 27 19  1  0
 27 26  1  0
 28 29  2  0
 28 30  1  0
M  END
$$$$
