TLW.pdb
     RDKit          3D

 30 31  0  0  1  0  0  0  0  0999 V2000
   19.7405  -11.4299  -22.0053 C   0  0  0  0  0  0  0  0  0  0  0  0
   20.0297  -10.7293  -20.6836 C   0  0  1  0  0  0  0  0  0  0  0  0
   18.8418  -10.1584  -20.2722 O   0  0  0  0  0  0  0  0  0  0  0  0
   20.5859  -11.7398  -19.7518 C   0  0  2  0  0  0  0  0  0  0  0  0
   19.7276  -12.8930  -19.5852 N   0  0  0  0  0  0  0  0  0  0  0  0
   21.0254  -11.1873  -18.4431 C   0  0  0  0  0  0  0  0  0  0  0  0
   20.1940  -11.0473  -17.5032 O   0  0  0  0  0  0  0  0  0  0  0  0
   26.3206  -10.4536  -15.4763 C   0  0  0  0  0  0  0  0  0  0  0  0
   24.8484   -9.9605  -15.4455 C   0  0  2  0  0  0  0  0  0  0  0  0
   24.2520  -10.5307  -14.1843 C   0  0  0  0  0  0  0  0  0  0  0  0
   24.1928  -10.5863  -16.6315 C   0  0  0  0  0  0  0  0  0  0  0  0
   22.7823  -10.1960  -16.8815 C   0  0  2  0  0  0  0  0  0  0  0  0
   22.3528  -10.7987  -18.1839 N   0  0  0  0  0  0  0  0  0  0  0  0
   22.4497   -8.7743  -16.8768 C   0  0  0  0  0  0  0  0  0  0  0  0
   22.4854   -8.1692  -18.0134 O   0  0  0  0  0  0  0  0  0  0  0  0
   22.0879   -7.9640  -15.7974 N   0  0  0  0  0  0  0  0  0  0  0  0
   21.6523   -6.5707  -15.9092 C   0  0  1  0  0  0  0  0  0  0  0  0
   20.5850   -6.5570  -16.9647 C   0  0  0  0  0  0  0  0  0  0  0  0
   19.9003   -5.2824  -17.1973 C   0  0  0  0  0  0  0  0  0  0  0  0
   20.5467   -4.0530  -17.3810 C   0  0  0  0  0  0  0  0  0  0  0  0
   19.6514   -3.0796  -17.5469 N   0  0  0  0  0  0  0  0  0  0  0  0
   18.4288   -3.6381  -17.4777 C   0  0  0  0  0  0  0  0  0  0  0  0
   17.1663   -3.1010  -17.5949 C   0  0  0  0  0  0  0  0  0  0  0  0
   16.0307   -3.8607  -17.5074 C   0  0  0  0  0  0  0  0  0  0  0  0
   16.1558   -5.2281  -17.2920 C   0  0  0  0  0  0  0  0  0  0  0  0
   17.4087   -5.7802  -17.1723 C   0  0  0  0  0  0  0  0  0  0  0  0
   18.5576   -4.9913  -17.2633 C   0  0  0  0  0  0  0  0  0  0  0  0
   21.2866   -6.0062  -14.6086 C   0  0  0  0  0  0  0  0  0  0  0  0
   20.8880   -6.8075  -13.6987 O   0  0  0  0  0  0  0  0  0  0  0  0
   21.3300   -4.6828  -14.2492 O   0  0  0  0  0  0  0  0  0  0  0  0
  2  1  1  6
  3  2  1  0
  4  6  1  0
  4  5  1  1
  4  2  1  0
  6  7  2  0
  9 11  1  0
  9  8  1  6
 10  9  1  0
 12 11  1  6
 12 14  1  0
 13 12  1  0
 13  6  1  0
 14 15  2  0
 16 17  1  0
 16 14  1  0
 17 28  1  0
 17 18  1  6
 19 18  1  0
 20 19  2  0
 21 22  1  0
 21 20  1  0
 22 27  2  0
 23 22  1  0
 23 24  2  0
 24 25  1  0
 25 26  2  0
 27 19  1  0
 27 26  1  0
 28 29  2  0
 28 30  1  0
M  END
$$$$
