TLW.pdb
     RDKit          3D

 30 31  0  0  1  0  0  0  0  0999 V2000
   27.4131  -18.2604  -12.2289 C   0  0  0  0  0  0  0  0  0  0  0  0
   27.3060  -18.7433  -13.6700 C   0  0  1  0  0  0  0  0  0  0  0  0
   27.2368  -17.6132  -14.4601 O   0  0  0  0  0  0  0  0  0  0  0  0
   28.4742  -19.6160  -13.9393 C   0  0  2  0  0  0  0  0  0  0  0  0
   28.6185  -19.9574  -15.3381 N   0  0  0  0  0  0  0  0  0  0  0  0
   28.5517  -20.8188  -13.0685 C   0  0  0  0  0  0  0  0  0  0  0  0
   27.8992  -21.8584  -13.3647 O   0  0  0  0  0  0  0  0  0  0  0  0
   32.0939  -23.4954  -12.0419 C   0  0  0  0  0  0  0  0  0  0  0  0
   32.0593  -22.0671  -11.4333 C   0  0  2  0  0  0  0  0  0  0  0  0
   33.3375  -21.9260  -10.6473 C   0  0  0  0  0  0  0  0  0  0  0  0
   30.8973  -22.0603  -10.4964 C   0  0  0  0  0  0  0  0  0  0  0  0
   29.5523  -22.1286  -11.1213 C   0  0  2  0  0  0  0  0  0  0  0  0
   29.3317  -20.8670  -11.8983 N   0  0  0  0  0  0  0  0  0  0  0  0
   28.4014  -22.3672  -10.2551 C   0  0  0  0  0  0  0  0  0  0  0  0
   28.4265  -23.4411   -9.5442 O   0  0  0  0  0  0  0  0  0  0  0  0
   27.2593  -21.5809  -10.0813 N   0  0  0  0  0  0  0  0  0  0  0  0
   26.8029  -21.0448   -8.7977 C   0  0  1  0  0  0  0  0  0  0  0  0
   28.0019  -20.3896   -8.1760 C   0  0  0  0  0  0  0  0  0  0  0  0
   27.7851  -19.6694   -6.9182 C   0  0  0  0  0  0  0  0  0  0  0  0
   26.9854  -18.5271   -6.7822 C   0  0  0  0  0  0  0  0  0  0  0  0
   27.0076  -18.0940   -5.5218 N   0  0  0  0  0  0  0  0  0  0  0  0
   27.8031  -18.9245   -4.8225 C   0  0  0  0  0  0  0  0  0  0  0  0
   28.1613  -18.9496   -3.4931 C   0  0  0  0  0  0  0  0  0  0  0  0
   28.9856  -19.9091   -2.9695 C   0  0  0  0  0  0  0  0  0  0  0  0
   29.4809  -20.8975   -3.8119 C   0  0  0  0  0  0  0  0  0  0  0  0
   29.1334  -20.8868   -5.1416 C   0  0  0  0  0  0  0  0  0  0  0  0
   28.2919  -19.9003   -5.6606 C   0  0  0  0  0  0  0  0  0  0  0  0
   25.6106  -20.2082   -8.9475 C   0  0  0  0  0  0  0  0  0  0  0  0
   24.9044  -19.9807   -7.9090 O   0  0  0  0  0  0  0  0  0  0  0  0
   25.1601  -19.6245  -10.1046 O   0  0  0  0  0  0  0  0  0  0  0  0
  2  1  1  1
  3  2  1  0
  4  6  1  0
  4  5  1  6
  4  2  1  0
  6  7  2  0
  9 11  1  0
  9  8  1  1
 10  9  1  0
 12 11  1  1
 12 14  1  0
 13 12  1  0
 13  6  1  0
 14 15  2  0
 16 17  1  0
 16 14  1  0
 17 28  1  0
 17 18  1  6
 19 18  1  0
 20 19  2  0
 21 22  1  0
 21 20  1  0
 22 27  2  0
 23 22  1  0
 23 24  2  0
 24 25  1  0
 25 26  2  0
 27 19  1  0
 27 26  1  0
 28 29  2  0
 28 30  1  0
M  END
$$$$
