CSY.pdb
     RDKit          3D

 25 25  0  0  1  0  0  0  0  0999 V2000
   11.9385  -14.7393   16.9167 N   0  0  0  0  0  0  0  0  0  0  0  0
   12.5530  -15.5868   17.8928 C   0  0  1  0  0  0  0  0  0  0  0  0
   13.9424  -15.1609   18.2831 C   0  0  0  0  0  0  0  0  0  0  0  0
   13.7690  -13.5745   19.1859 S   0  0  0  0  0  0  0  0  0  0  0  0
   11.6456  -15.7509   19.0417 C   0  0  0  0  0  0  0  0  0  0  0  0
   10.8436  -14.8551   19.4293 O   0  0  0  0  0  0  0  0  0  0  0  0
   11.6327  -19.3020   21.3070 O   0  0  0  0  0  0  0  0  0  0  0  0
   10.4531  -18.6479   21.0048 C   0  0  0  0  0  0  0  0  0  0  0  0
   10.7555  -17.1463   20.9151 C   0  0  2  0  0  0  0  0  0  0  0  0
   11.6283  -16.9664   19.7954 N   0  0  0  0  0  0  0  0  0  0  0  0
   11.2785  -16.6292   22.1758 C   0  0  0  0  0  0  0  0  0  0  0  0
   12.5040  -16.4309   22.3283 O   0  0  0  0  0  0  0  0  0  0  0  0
   10.6568  -14.7051   30.9019 O   0  0  0  0  0  0  0  0  0  0  0  0
   10.4016  -14.9345   29.5503 C   0  0  0  0  0  0  0  0  0  0  0  0
   10.1919  -16.2094   29.0677 C   0  0  0  0  0  0  0  0  0  0  0  0
    9.9407  -16.4190   27.7279 C   0  0  0  0  0  0  0  0  0  0  0  0
    9.8859  -15.3846   26.8120 C   0  0  0  0  0  0  0  0  0  0  0  0
    9.6170  -15.6721   25.4011 C   0  0  0  0  0  0  0  0  0  0  0  0
   10.8385  -15.9852   24.5791 C   0  0  2  0  0  0  0  0  0  0  0  0
   10.3969  -16.3450   23.2464 N   0  0  0  0  0  0  0  0  0  0  0  0
   11.7343  -16.9811   25.1695 C   0  0  0  0  0  0  0  0  0  0  0  0
   11.4747  -18.3432   25.1857 O   0  0  0  0  0  0  0  0  0  0  0  0
   10.0976  -14.1044   27.3035 C   0  0  0  0  0  0  0  0  0  0  0  0
   10.3492  -13.8953   28.6455 C   0  0  0  0  0  0  0  0  0  0  0  0
   12.8082  -16.5980   25.6983 O   0  0  0  0  0  0  0  0  0  0  0  0
  2  3  1  0
  2  1  1  6
  3  4  1  0
  5  2  1  0
  6  5  2  0
  7  8  1  0
  9  8  1  1
  9 11  1  0
  9 10  1  0
 10  5  1  0
 11 12  2  0
 14 13  1  0
 15 14  2  0
 16 15  1  0
 17 23  1  0
 17 16  2  0
 18 17  1  0
 19 18  1  1
 20 19  1  0
 20 11  1  0
 21 19  1  0
 22 21  1  0
 23 24  2  0
 24 14  1  0
 25 21  2  0
M  END
$$$$
