CSY.pdb
     RDKit          3D

 25 25  0  0  1  0  0  0  0  0999 V2000
    7.9681  -19.1876   20.6479 N   0  0  0  0  0  0  0  0  0  0  0  0
    9.1939  -18.6793   20.1116 C   0  0  1  0  0  0  0  0  0  0  0  0
    9.3309  -18.8601   18.6242 C   0  0  0  0  0  0  0  0  0  0  0  0
    8.4635  -20.4199   18.2046 S   0  0  0  0  0  0  0  0  0  0  0  0
    9.3827  -17.2864   20.5527 C   0  0  0  0  0  0  0  0  0  0  0  0
   10.4045  -16.5990   20.2709 O   0  0  0  0  0  0  0  0  0  0  0  0
    6.2534  -15.3087   22.3674 O   0  0  0  0  0  0  0  0  0  0  0  0
    7.1424  -14.6108   21.5716 C   0  0  0  0  0  0  0  0  0  0  0  0
    8.5256  -15.2554   21.7314 C   0  0  2  0  0  0  0  0  0  0  0  0
    8.3905  -16.6261   21.3435 N   0  0  0  0  0  0  0  0  0  0  0  0
    9.0552  -15.0595   23.0773 C   0  0  0  0  0  0  0  0  0  0  0  0
    9.4014  -13.9240   23.4712 O   0  0  0  0  0  0  0  0  0  0  0  0
    6.1768  -10.8663   26.6007 O   0  0  0  0  0  0  0  0  0  0  0  0
    6.7630  -12.1289   26.5170 C   0  0  0  0  0  0  0  0  0  0  0  0
    8.1097  -12.3099   26.7532 C   0  0  0  0  0  0  0  0  0  0  0  0
    8.6738  -13.5655   26.6663 C   0  0  0  0  0  0  0  0  0  0  0  0
    7.9366  -14.6900   26.3441 C   0  0  0  0  0  0  0  0  0  0  0  0
    8.5944  -15.9964   26.2653 C   0  0  0  0  0  0  0  0  0  0  0  0
    9.7400  -16.0660   25.2914 C   0  0  2  0  0  0  0  0  0  0  0  0
    9.1832  -16.1616   23.9567 N   0  0  0  0  0  0  0  0  0  0  0  0
   10.7210  -17.1150   25.5748 C   0  0  0  0  0  0  0  0  0  0  0  0
   11.5421  -17.1259   26.6921 O   0  0  0  0  0  0  0  0  0  0  0  0
    6.5824  -14.5015   26.1075 C   0  0  0  0  0  0  0  0  0  0  0  0
    6.0182  -13.2437   26.1948 C   0  0  0  0  0  0  0  0  0  0  0  0
   10.8408  -18.0716   24.7685 O   0  0  0  0  0  0  0  0  0  0  0  0
  2  3  1  0
  2  1  1  6
  3  4  1  0
  5  2  1  0
  6  5  2  0
  7  8  1  0
  9  8  1  1
  9 11  1  0
  9 10  1  0
 10  5  1  0
 11 12  2  0
 14 13  1  0
 15 14  2  0
 16 15  1  0
 17 23  1  0
 17 16  2  0
 18 17  1  0
 19 18  1  1
 20 19  1  0
 20 11  1  0
 21 19  1  0
 22 21  1  0
 23 24  2  0
 24 14  1  0
 25 21  2  0
M  END
$$$$
