CSY.pdb
     RDKit          3D

 25 25  0  0  1  0  0  0  0  0999 V2000
    7.4758  -14.4184   16.3879 N   0  0  0  0  0  0  0  0  0  0  0  0
    8.5624  -14.3596   17.3177 C   0  0  1  0  0  0  0  0  0  0  0  0
    8.9691  -12.9605   17.6937 C   0  0  0  0  0  0  0  0  0  0  0  0
    7.6436  -12.3037   18.7770 S   0  0  0  0  0  0  0  0  0  0  0  0
    8.2620  -15.2148   18.4790 C   0  0  0  0  0  0  0  0  0  0  0  0
    7.1083  -15.3274   18.9812 O   0  0  0  0  0  0  0  0  0  0  0  0
   10.9020  -18.0857   19.8705 O   0  0  0  0  0  0  0  0  0  0  0  0
    9.5425  -18.1247   20.1175 C   0  0  0  0  0  0  0  0  0  0  0  0
    9.0609  -16.6845   20.3366 C   0  0  2  0  0  0  0  0  0  0  0  0
    9.2907  -15.9808   19.1120 N   0  0  0  0  0  0  0  0  0  0  0  0
    9.6921  -16.0810   21.5060 C   0  0  0  0  0  0  0  0  0  0  0  0
   10.7257  -15.3861   21.3897 O   0  0  0  0  0  0  0  0  0  0  0  0
   10.6015  -14.4549   30.2674 O   0  0  0  0  0  0  0  0  0  0  0  0
   10.1313  -14.7327   28.9842 C   0  0  0  0  0  0  0  0  0  0  0  0
    9.9920  -16.0304   28.5383 C   0  0  0  0  0  0  0  0  0  0  0  0
    9.5256  -16.2879   27.2662 C   0  0  0  0  0  0  0  0  0  0  0  0
    9.1787  -15.2809   26.3845 C   0  0  0  0  0  0  0  0  0  0  0  0
    8.6913  -15.6189   25.0451 C   0  0  0  0  0  0  0  0  0  0  0  0
    9.7712  -15.8386   24.0198 C   0  0  2  0  0  0  0  0  0  0  0  0
    9.1363  -16.2777   22.7931 N   0  0  0  0  0  0  0  0  0  0  0  0
   10.8519  -16.7272   24.4503 C   0  0  0  0  0  0  0  0  0  0  0  0
   10.8002  -18.1099   24.3589 O   0  0  0  0  0  0  0  0  0  0  0  0
    9.3210  -13.9775   26.8388 C   0  0  0  0  0  0  0  0  0  0  0  0
    9.7882  -13.7205   28.1130 C   0  0  0  0  0  0  0  0  0  0  0  0
   11.8975  -16.2255   24.9346 O   0  0  0  0  0  0  0  0  0  0  0  0
  2  3  1  0
  2  1  1  6
  3  4  1  0
  5  2  1  0
  6  5  2  0
  7  8  1  0
  9  8  1  6
  9 11  1  0
  9 10  1  0
 10  5  1  0
 11 12  2  0
 14 13  1  0
 15 14  2  0
 16 15  1  0
 17 23  1  0
 17 16  2  0
 18 17  1  0
 19 18  1  1
 20 19  1  0
 20 11  1  0
 21 19  1  0
 22 21  1  0
 23 24  2  0
 24 14  1  0
 25 21  2  0
M  END
$$$$
