CSY.pdb
     RDKit          3D

 25 25  0  0  1  0  0  0  0  0999 V2000
   10.1518  -16.1227   16.9343 N   0  0  0  0  0  0  0  0  0  0  0  0
    9.7893  -16.9576   18.0389 C   0  0  1  0  0  0  0  0  0  0  0  0
   10.7174  -18.1222   18.2542 C   0  0  0  0  0  0  0  0  0  0  0  0
    9.9375  -19.1841   19.5292 S   0  0  0  0  0  0  0  0  0  0  0  0
    9.6019  -16.1274   19.2413 C   0  0  0  0  0  0  0  0  0  0  0  0
   10.5188  -15.4245   19.7523 O   0  0  0  0  0  0  0  0  0  0  0  0
    5.9904  -16.2178   21.3594 O   0  0  0  0  0  0  0  0  0  0  0  0
    6.6205  -15.0033   21.1624 C   0  0  0  0  0  0  0  0  0  0  0  0
    8.1295  -15.2643   21.0679 C   0  0  2  0  0  0  0  0  0  0  0  0
    8.3372  -16.0753   19.9074 N   0  0  0  0  0  0  0  0  0  0  0  0
    8.6523  -15.8369   22.3045 C   0  0  0  0  0  0  0  0  0  0  0  0
    8.8623  -17.0660   22.4033 O   0  0  0  0  0  0  0  0  0  0  0  0
   11.0462  -15.4892   30.9628 O   0  0  0  0  0  0  0  0  0  0  0  0
   10.6513  -15.2062   29.6555 C   0  0  0  0  0  0  0  0  0  0  0  0
    9.6418  -14.3041   29.3921 C   0  0  0  0  0  0  0  0  0  0  0  0
    9.2634  -14.0356   28.0933 C   0  0  0  0  0  0  0  0  0  0  0  0
    9.8621  -14.6427   27.0049 C   0  0  0  0  0  0  0  0  0  0  0  0
    9.4138  -14.3170   25.6489 C   0  0  0  0  0  0  0  0  0  0  0  0
    9.3229  -15.4951   24.7165 C   0  0  2  0  0  0  0  0  0  0  0  0
    8.9289  -15.0002   23.4125 N   0  0  0  0  0  0  0  0  0  0  0  0
    8.4712  -16.5869   25.1914 C   0  0  0  0  0  0  0  0  0  0  0  0
    7.0853  -16.5607   25.1526 O   0  0  0  0  0  0  0  0  0  0  0  0
   10.8770  -15.5493   27.2762 C   0  0  0  0  0  0  0  0  0  0  0  0
   11.2554  -15.8177   28.5774 C   0  0  0  0  0  0  0  0  0  0  0  0
    9.0100  -17.6183   25.6662 O   0  0  0  0  0  0  0  0  0  0  0  0
  2  3  1  0
  2  1  1  6
  3  4  1  0
  5  2  1  0
  6  5  2  0
  7  8  1  0
  9  8  1  1
  9 11  1  0
  9 10  1  0
 10  5  1  0
 11 12  2  0
 14 13  1  0
 15 14  2  0
 16 15  1  0
 17 23  1  0
 17 16  2  0
 18 17  1  0
 19 18  1  1
 20 19  1  0
 20 11  1  0
 21 19  1  0
 22 21  1  0
 23 24  2  0
 24 14  1  0
 25 21  2  0
M  END
$$$$
