CSY.pdb
     RDKit          3D

 25 25  0  0  1  0  0  0  0  0999 V2000
    7.3533  -13.6087   17.8884 N   0  0  0  0  0  0  0  0  0  0  0  0
    8.3389  -14.4226   18.5325 C   0  0  1  0  0  0  0  0  0  0  0  0
    9.7327  -13.8594   18.4681 C   0  0  0  0  0  0  0  0  0  0  0  0
   10.2133  -13.8534   16.6987 S   0  0  0  0  0  0  0  0  0  0  0  0
    7.8968  -14.7378   19.9020 C   0  0  0  0  0  0  0  0  0  0  0  0
    7.6395  -13.8576   20.7708 O   0  0  0  0  0  0  0  0  0  0  0  0
    7.8155  -18.7220   21.5091 O   0  0  0  0  0  0  0  0  0  0  0  0
    6.7465  -17.8501   21.5968 C   0  0  0  0  0  0  0  0  0  0  0  0
    7.3052  -16.4222   21.6519 C   0  0  2  0  0  0  0  0  0  0  0  0
    7.7327  -16.0939   20.3263 N   0  0  0  0  0  0  0  0  0  0  0  0
    8.3435  -16.2924   22.6693 C   0  0  0  0  0  0  0  0  0  0  0  0
    9.5308  -16.0643   22.3484 O   0  0  0  0  0  0  0  0  0  0  0  0
    5.2135  -11.6687   27.3964 O   0  0  0  0  0  0  0  0  0  0  0  0
    6.2408  -12.4552   26.8758 C   0  0  0  0  0  0  0  0  0  0  0  0
    5.9908  -13.7099   26.3608 C   0  0  0  0  0  0  0  0  0  0  0  0
    7.0182  -14.4750   25.8496 C   0  0  0  0  0  0  0  0  0  0  0  0
    8.3293  -14.0364   25.8250 C   0  0  0  0  0  0  0  0  0  0  0  0
    9.3769  -14.8971   25.2705 C   0  0  0  0  0  0  0  0  0  0  0  0
    8.9856  -16.3420   25.1126 C   0  0  2  0  0  0  0  0  0  0  0  0
    8.0144  -16.4245   24.0399 N   0  0  0  0  0  0  0  0  0  0  0  0
    8.5297  -16.9903   26.3434 C   0  0  0  0  0  0  0  0  0  0  0  0
    9.3279  -17.1763   27.4620 O   0  0  0  0  0  0  0  0  0  0  0  0
    8.5745  -12.7733   26.3445 C   0  0  0  0  0  0  0  0  0  0  0  0
    7.5449  -12.0078   26.8563 C   0  0  0  0  0  0  0  0  0  0  0  0
    7.3470  -17.4102   26.4094 O   0  0  0  0  0  0  0  0  0  0  0  0
  2  3  1  0
  2  1  1  1
  3  4  1  0
  5  2  1  0
  6  5  2  0
  7  8  1  0
  9  8  1  6
  9 11  1  0
  9 10  1  0
 10  5  1  0
 11 12  2  0
 14 13  1  0
 15 14  2  0
 16 15  1  0
 17 23  1  0
 17 16  2  0
 18 17  1  0
 19 18  1  1
 20 19  1  0
 20 11  1  0
 21 19  1  0
 22 21  1  0
 23 24  2  0
 24 14  1  0
 25 21  2  0
M  END
$$$$
