CSY.pdb
     RDKit          3D

 25 25  0  0  1  0  0  0  0  0999 V2000
    8.1957  -13.6060   16.7754 N   0  0  0  0  0  0  0  0  0  0  0  0
    8.2137  -14.9069   17.3718 C   0  0  1  0  0  0  0  0  0  0  0  0
    9.4359  -15.7168   17.0334 C   0  0  0  0  0  0  0  0  0  0  0  0
   10.8688  -14.8266   17.7515 S   0  0  0  0  0  0  0  0  0  0  0  0
    7.9728  -14.7866   18.8202 C   0  0  0  0  0  0  0  0  0  0  0  0
    8.2794  -13.7632   19.4946 O   0  0  0  0  0  0  0  0  0  0  0  0
    6.4968  -18.0221   21.1068 O   0  0  0  0  0  0  0  0  0  0  0  0
    5.9752  -16.7520   21.2672 C   0  0  0  0  0  0  0  0  0  0  0  0
    7.0869  -15.7421   20.9536 C   0  0  2  0  0  0  0  0  0  0  0  0
    7.3630  -15.8523   19.5538 N   0  0  0  0  0  0  0  0  0  0  0  0
    8.2488  -15.9404   21.8143 C   0  0  0  0  0  0  0  0  0  0  0  0
    9.2757  -16.5104   21.3840 O   0  0  0  0  0  0  0  0  0  0  0  0
    5.1965  -12.2754   27.7096 O   0  0  0  0  0  0  0  0  0  0  0  0
    6.2768  -12.7651   26.9762 C   0  0  0  0  0  0  0  0  0  0  0  0
    6.2922  -12.7061   25.5983 C   0  0  0  0  0  0  0  0  0  0  0  0
    7.3686  -13.1950   24.8880 C   0  0  0  0  0  0  0  0  0  0  0  0
    8.4699  -13.7600   25.5041 C   0  0  0  0  0  0  0  0  0  0  0  0
    9.5815  -14.2636   24.6939 C   0  0  0  0  0  0  0  0  0  0  0  0
    9.3432  -15.6116   24.0679 C   0  0  2  0  0  0  0  0  0  0  0  0
    8.2246  -15.4859   23.1549 N   0  0  0  0  0  0  0  0  0  0  0  0
    9.1772  -16.7088   25.0228 C   0  0  0  0  0  0  0  0  0  0  0  0
    8.0122  -17.4488   25.1570 O   0  0  0  0  0  0  0  0  0  0  0  0
    8.4486  -13.8165   26.8904 C   0  0  0  0  0  0  0  0  0  0  0  0
    7.3702  -13.3267   27.6011 C   0  0  0  0  0  0  0  0  0  0  0  0
   10.1372  -17.0132   25.7747 O   0  0  0  0  0  0  0  0  0  0  0  0
  2  3  1  0
  2  1  1  1
  3  4  1  0
  5  2  1  0
  6  5  2  0
  7  8  1  0
  9  8  1  1
  9 11  1  0
  9 10  1  0
 10  5  1  0
 11 12  2  0
 14 13  1  0
 15 14  2  0
 16 15  1  0
 17 23  1  0
 17 16  2  0
 18 17  1  0
 19 18  1  1
 20 19  1  0
 20 11  1  0
 21 19  1  0
 22 21  1  0
 23 24  2  0
 24 14  1  0
 25 21  2  0
M  END
$$$$
