CSY.pdb
     RDKit          3D

 25 25  0  0  1  0  0  0  0  0999 V2000
    6.8326  -15.4354   20.0873 N   0  0  0  0  0  0  0  0  0  0  0  0
    7.9490  -14.8813   20.7911 C   0  0  1  0  0  0  0  0  0  0  0  0
    7.7311  -13.4709   21.2679 C   0  0  0  0  0  0  0  0  0  0  0  0
    6.2762  -13.5145   22.3828 S   0  0  0  0  0  0  0  0  0  0  0  0
    8.3620  -15.8050   21.8619 C   0  0  0  0  0  0  0  0  0  0  0  0
    7.5600  -16.5663   22.4728 O   0  0  0  0  0  0  0  0  0  0  0  0
   12.3793  -16.3196   22.6265 O   0  0  0  0  0  0  0  0  0  0  0  0
   11.5104  -17.3831   22.7839 C   0  0  0  0  0  0  0  0  0  0  0  0
   10.1636  -16.8254   23.2627 C   0  0  2  0  0  0  0  0  0  0  0  0
    9.7293  -15.8869   22.2735 N   0  0  0  0  0  0  0  0  0  0  0  0
   10.2602  -16.2772   24.6119 C   0  0  0  0  0  0  0  0  0  0  0  0
   10.7208  -15.1307   24.8067 O   0  0  0  0  0  0  0  0  0  0  0  0
    6.2924  -11.5135   25.8854 O   0  0  0  0  0  0  0  0  0  0  0  0
    6.8877  -12.6925   26.3331 C   0  0  0  0  0  0  0  0  0  0  0  0
    6.3208  -13.9231   26.0755 C   0  0  0  0  0  0  0  0  0  0  0  0
    6.9224  -15.0798   26.5255 C   0  0  0  0  0  0  0  0  0  0  0  0
    8.1030  -15.0710   27.2451 C   0  0  0  0  0  0  0  0  0  0  0  0
    8.6918  -16.3338   27.6975 C   0  0  0  0  0  0  0  0  0  0  0  0
   10.0372  -16.6497   27.1010 C   0  0  2  0  0  0  0  0  0  0  0  0
    9.8301  -17.0437   25.7217 N   0  0  0  0  0  0  0  0  0  0  0  0
   10.8286  -17.6216   27.8573 C   0  0  0  0  0  0  0  0  0  0  0  0
   11.3218  -18.8023   27.3227 O   0  0  0  0  0  0  0  0  0  0  0  0
    8.6685  -13.8300   27.5012 C   0  0  0  0  0  0  0  0  0  0  0  0
    8.0653  -12.6721   27.0501 C   0  0  0  0  0  0  0  0  0  0  0  0
   11.0871  -17.3897   29.0652 O   0  0  0  0  0  0  0  0  0  0  0  0
  2  3  1  0
  2  1  1  1
  3  4  1  0
  5  2  1  0
  6  5  2  0
  7  8  1  0
  9  8  1  6
  9 11  1  0
  9 10  1  0
 10  5  1  0
 11 12  2  0
 14 13  1  0
 15 14  2  0
 16 15  1  0
 17 23  1  0
 17 16  2  0
 18 17  1  0
 19 18  1  1
 20 19  1  0
 20 11  1  0
 21 19  1  0
 22 21  1  0
 23 24  2  0
 24 14  1  0
 25 21  2  0
M  END
$$$$
