DST.pdb
     RDKit          3D

 22 21  0  0  1  0  0  0  0  0999 V2000
   12.4352  -18.1671   14.6329 N   0  0  0  0  0  0  0  0  0  0  0  0
   13.1544  -18.5638   15.8072 C   0  0  1  0  0  0  0  0  0  0  0  0
   14.4100  -17.7680   16.0165 C   0  0  0  0  0  0  0  0  0  0  0  0
   15.5007  -18.1962   15.1004 C   0  0  0  0  0  0  0  0  0  0  0  0
   15.2993  -19.1855   14.3549 O   0  0  0  0  0  0  0  0  0  0  0  0
   12.2830  -18.3803   17.0009 C   0  0  0  0  0  0  0  0  0  0  0  0
   11.8178  -17.2386   17.2600 O   0  0  0  0  0  0  0  0  0  0  0  0
   16.7197  -17.5467   15.0426 O   0  0  0  0  0  0  0  0  0  0  0  0
    9.6707  -21.2596   18.5172 O   0  0  0  0  0  0  0  0  0  0  0  0
   10.3852  -20.5287   19.4458 C   0  0  0  0  0  0  0  0  0  0  0  0
   10.9597  -19.2564   18.9003 C   0  0  2  0  0  0  0  0  0  0  0  0
   11.9361  -19.4318   17.8836 N   0  0  0  0  0  0  0  0  0  0  0  0
   11.5861  -18.5317   20.0680 C   0  0  0  0  0  0  0  0  0  0  0  0
   12.8302  -18.3600   20.0843 O   0  0  0  0  0  0  0  0  0  0  0  0
   10.8036  -15.5719   23.9421 C   0  0  0  0  0  0  0  0  0  0  0  0
   10.1791  -16.5377   22.9641 C   0  0  1  0  0  0  0  0  0  0  0  0
    9.4247  -15.8002   22.0475 O   0  0  0  0  0  0  0  0  0  0  0  0
   11.2654  -17.2531   22.2177 C   0  0  2  0  0  0  0  0  0  0  0  0
   10.7769  -18.0566   21.1235 N   0  0  0  0  0  0  0  0  0  0  0  0
   12.1779  -17.9992   23.1298 C   0  0  0  0  0  0  0  0  0  0  0  0
   11.8888  -19.1546   23.4970 O   0  0  0  0  0  0  0  0  0  0  0  0
   13.3561  -17.4622   23.6001 O   0  0  0  0  0  0  0  0  0  0  0  0
  2  1  1  6
  2  6  1  0
  2  3  1  0
  3  4  1  0
  4  8  1  0
  5  4  2  0
  6 12  1  0
  7  6  2  0
 10  9  1  0
 11 10  1  1
 11 13  1  0
 12 11  1  0
 13 14  2  0
 13 19  1  0
 16 15  1  1
 17 16  1  0
 18 16  1  0
 18 20  1  0
 18 19  1  6
 20 22  1  0
 21 20  2  0
M  END
$$$$
