DST.pdb
     RDKit          3D

 22 21  0  0  1  0  0  0  0  0999 V2000
    9.7697  -17.0615   16.4734 N   0  0  0  0  0  0  0  0  0  0  0  0
    9.2525  -17.6642   17.6661 C   0  0  1  0  0  0  0  0  0  0  0  0
    9.7220  -19.0777   17.8539 C   0  0  0  0  0  0  0  0  0  0  0  0
    9.2327  -19.9758   16.7739 C   0  0  0  0  0  0  0  0  0  0  0  0
    8.0339  -19.8792   16.4155 O   0  0  0  0  0  0  0  0  0  0  0  0
    9.6894  -16.8683   18.8466 C   0  0  0  0  0  0  0  0  0  0  0  0
   10.9057  -16.5663   18.9756 O   0  0  0  0  0  0  0  0  0  0  0  0
   10.0473  -20.9063   16.1561 O   0  0  0  0  0  0  0  0  0  0  0  0
    7.0310  -15.3871   21.8380 O   0  0  0  0  0  0  0  0  0  0  0  0
    8.2153  -14.7371   21.5516 C   0  0  0  0  0  0  0  0  0  0  0  0
    9.2588  -15.6239   20.9423 C   0  0  2  0  0  0  0  0  0  0  0  0
    8.8044  -16.4190   19.8565 N   0  0  0  0  0  0  0  0  0  0  0  0
    9.7519  -16.5292   22.0461 C   0  0  0  0  0  0  0  0  0  0  0  0
    9.2322  -17.6644   22.1832 O   0  0  0  0  0  0  0  0  0  0  0  0
   13.3817  -17.2516   22.5879 C   0  0  0  0  0  0  0  0  0  0  0  0
   12.8657  -16.8827   23.9580 C   0  0  1  0  0  0  0  0  0  0  0  0
   13.2765  -15.5769   24.2395 O   0  0  0  0  0  0  0  0  0  0  0  0
   11.3664  -16.9157   23.9442 C   0  0  2  0  0  0  0  0  0  0  0  0
   10.7837  -16.0977   22.9085 N   0  0  0  0  0  0  0  0  0  0  0  0
   10.7853  -16.6557   25.2917 C   0  0  0  0  0  0  0  0  0  0  0  0
   10.0294  -15.6809   25.4701 O   0  0  0  0  0  0  0  0  0  0  0  0
   11.0481  -17.4596   26.3790 O   0  0  0  0  0  0  0  0  0  0  0  0
  2  1  1  6
  2  6  1  0
  2  3  1  0
  3  4  1  0
  4  8  1  0
  5  4  2  0
  6 12  1  0
  7  6  2  0
 10  9  1  0
 11 10  1  1
 11 13  1  0
 12 11  1  0
 13 14  2  0
 13 19  1  0
 16 15  1  6
 17 16  1  0
 18 16  1  0
 18 20  1  0
 18 19  1  6
 20 22  1  0
 21 20  2  0
M  END
$$$$
