DST.pdb
     RDKit          3D

 22 21  0  0  1  0  0  0  0  0999 V2000
   10.2679  -18.1496   17.4033 N   0  0  0  0  0  0  0  0  0  0  0  0
   11.4157  -17.7668   18.1710 C   0  0  1  0  0  0  0  0  0  0  0  0
   12.4086  -16.9709   17.3746 C   0  0  0  0  0  0  0  0  0  0  0  0
   12.5953  -17.5217   16.0057 C   0  0  0  0  0  0  0  0  0  0  0  0
   11.9166  -18.5218   15.6677 O   0  0  0  0  0  0  0  0  0  0  0  0
   10.9773  -16.9390   19.3287 C   0  0  0  0  0  0  0  0  0  0  0  0
   11.8419  -16.3772   20.0526 O   0  0  0  0  0  0  0  0  0  0  0  0
   13.4841  -16.9738   15.0997 O   0  0  0  0  0  0  0  0  0  0  0  0
    6.9137  -16.5974   20.7317 O   0  0  0  0  0  0  0  0  0  0  0  0
    7.8160  -15.5603   20.8629 C   0  0  0  0  0  0  0  0  0  0  0  0
    9.2489  -15.9988   20.8304 C   0  0  2  0  0  0  0  0  0  0  0  0
    9.6191  -16.7384   19.6755 N   0  0  0  0  0  0  0  0  0  0  0  0
    9.4650  -16.8543   22.0561 C   0  0  0  0  0  0  0  0  0  0  0  0
    9.4651  -18.1046   21.9362 O   0  0  0  0  0  0  0  0  0  0  0  0
   12.2680  -16.9551   24.3222 C   0  0  0  0  0  0  0  0  0  0  0  0
   11.1139  -16.6811   25.2562 C   0  0  1  0  0  0  0  0  0  0  0  0
   11.1322  -15.3222   25.5819 O   0  0  0  0  0  0  0  0  0  0  0  0
    9.8264  -16.9820   24.5485 C   0  0  2  0  0  0  0  0  0  0  0  0
    9.6637  -16.2490   23.3165 N   0  0  0  0  0  0  0  0  0  0  0  0
    8.6476  -16.8735   25.4540 C   0  0  0  0  0  0  0  0  0  0  0  0
    7.7627  -16.0247   25.2308 O   0  0  0  0  0  0  0  0  0  0  0  0
    8.4822  -17.6854   26.5544 O   0  0  0  0  0  0  0  0  0  0  0  0
  2  1  1  6
  2  6  1  0
  2  3  1  0
  3  4  1  0
  4  8  1  0
  5  4  2  0
  6 12  1  0
  7  6  2  0
 10  9  1  0
 11 10  1  6
 11 13  1  0
 12 11  1  0
 13 14  2  0
 13 19  1  0
 16 15  1  6
 17 16  1  0
 18 16  1  0
 18 20  1  0
 18 19  1  6
 20 22  1  0
 21 20  2  0
M  END
$$$$
