DST.pdb
     RDKit          3D

 22 21  0  0  1  0  0  0  0  0999 V2000
   11.1403  -15.3528   18.9623 N   0  0  0  0  0  0  0  0  0  0  0  0
   11.8690  -15.4024   20.1952 C   0  0  1  0  0  0  0  0  0  0  0  0
   12.8881  -14.3063   20.3127 C   0  0  0  0  0  0  0  0  0  0  0  0
   14.1131  -14.5968   19.5207 C   0  0  0  0  0  0  0  0  0  0  0  0
   13.9792  -14.9611   18.3273 O   0  0  0  0  0  0  0  0  0  0  0  0
   10.9165  -15.2758   21.3330 C   0  0  0  0  0  0  0  0  0  0  0  0
    9.9629  -14.4561   21.2555 O   0  0  0  0  0  0  0  0  0  0  0  0
   15.3847  -14.4802   20.0504 O   0  0  0  0  0  0  0  0  0  0  0  0
    9.9494  -18.4070   23.8593 O   0  0  0  0  0  0  0  0  0  0  0  0
    9.1885  -17.2858   23.5929 C   0  0  0  0  0  0  0  0  0  0  0  0
    9.9877  -16.0210   23.5028 C   0  0  2  0  0  0  0  0  0  0  0  0
   11.0167  -16.0355   22.5237 N   0  0  0  0  0  0  0  0  0  0  0  0
   10.6034  -15.8031   24.8645 C   0  0  0  0  0  0  0  0  0  0  0  0
   11.8328  -16.0090   25.0192 O   0  0  0  0  0  0  0  0  0  0  0  0
    9.6136  -12.8119   27.4123 C   0  0  0  0  0  0  0  0  0  0  0  0
    9.4912  -14.1673   28.0660 C   0  0  1  0  0  0  0  0  0  0  0  0
    8.1478  -14.5500   28.0236 O   0  0  0  0  0  0  0  0  0  0  0  0
   10.2934  -15.1646   27.2842 C   0  0  2  0  0  0  0  0  0  0  0  0
    9.8009  -15.3736   25.9444 N   0  0  0  0  0  0  0  0  0  0  0  0
   10.5002  -16.4344   28.0365 C   0  0  0  0  0  0  0  0  0  0  0  0
   10.1255  -17.5187   27.5496 O   0  0  0  0  0  0  0  0  0  0  0  0
   11.1006  -16.4714   29.2757 O   0  0  0  0  0  0  0  0  0  0  0  0
  2  1  1  6
  2  6  1  0
  2  3  1  0
  3  4  1  0
  4  8  1  0
  5  4  2  0
  6 12  1  0
  7  6  2  0
 10  9  1  0
 11 10  1  1
 11 13  1  0
 12 11  1  0
 13 14  2  0
 13 19  1  0
 16 15  1  6
 17 16  1  0
 18 16  1  0
 18 20  1  0
 18 19  1  6
 20 22  1  0
 21 20  2  0
M  END
$$$$
