DST.pdb
     RDKit          3D

 22 21  0  0  1  0  0  0  0  0999 V2000
   11.5159  -17.5033   19.6915 N   0  0  0  0  0  0  0  0  0  0  0  0
   12.0404  -17.4745   21.0248 C   0  0  1  0  0  0  0  0  0  0  0  0
   13.2752  -16.6294   21.1456 C   0  0  0  0  0  0  0  0  0  0  0  0
   14.4257  -17.2145   20.4064 C   0  0  0  0  0  0  0  0  0  0  0  0
   14.7386  -18.4076   20.6379 O   0  0  0  0  0  0  0  0  0  0  0  0
   11.0078  -16.9236   21.9458 C   0  0  0  0  0  0  0  0  0  0  0  0
   10.3885  -15.8738   21.6269 O   0  0  0  0  0  0  0  0  0  0  0  0
   15.1566  -16.4944   19.4800 O   0  0  0  0  0  0  0  0  0  0  0  0
    9.2619  -19.1003   25.1683 O   0  0  0  0  0  0  0  0  0  0  0  0
    8.6474  -18.0821   24.4664 C   0  0  0  0  0  0  0  0  0  0  0  0
    9.5950  -17.0298   23.9753 C   0  0  2  0  0  0  0  0  0  0  0  0
   10.6700  -17.5183   23.1856 N   0  0  0  0  0  0  0  0  0  0  0  0
   10.1523  -16.3466   25.2014 C   0  0  0  0  0  0  0  0  0  0  0  0
   11.3625  -16.5107   25.4953 O   0  0  0  0  0  0  0  0  0  0  0  0
    9.4917  -12.9980   28.7677 C   0  0  0  0  0  0  0  0  0  0  0  0
    8.8483  -13.7502   27.6277 C   0  0  1  0  0  0  0  0  0  0  0  0
    8.7065  -12.8696   26.5518 O   0  0  0  0  0  0  0  0  0  0  0  0
    9.7509  -14.8716   27.2069 C   0  0  2  0  0  0  0  0  0  0  0  0
    9.3176  -15.5359   26.0018 N   0  0  0  0  0  0  0  0  0  0  0  0
   10.0355  -15.8149   28.3251 C   0  0  0  0  0  0  0  0  0  0  0  0
    9.4430  -16.9096   28.3869 O   0  0  0  0  0  0  0  0  0  0  0  0
   10.9445  -15.5305   29.3204 O   0  0  0  0  0  0  0  0  0  0  0  0
  2  1  1  6
  2  6  1  0
  2  3  1  0
  3  4  1  0
  4  8  1  0
  5  4  2  0
  6 12  1  0
  7  6  2  0
 10  9  1  0
 11 10  1  1
 11 13  1  0
 12 11  1  0
 13 14  2  0
 13 19  1  0
 16 15  1  1
 17 16  1  0
 18 16  1  0
 18 20  1  0
 18 19  1  6
 20 22  1  0
 21 20  2  0
M  END
$$$$
