MFS.pdb
     RDKit          3D

 26 26  0  0  1  0  0  0  0  0999 V2000
   10.6225  -21.4671   21.8576 C   0  0  0  0  0  0  0  0  0  0  0  0
    9.9714  -21.2155   20.1933 S   0  0  0  0  0  0  0  0  0  0  0  0
    9.8665  -19.4455   19.8000 C   0  0  0  0  0  0  0  0  0  0  0  0
    9.4894  -18.6414   21.0259 C   0  0  0  0  0  0  0  0  0  0  0  0
    9.3615  -17.1674   20.6529 C   0  0  2  0  0  0  0  0  0  0  0  0
   10.3530  -16.8566   19.6734 N   0  0  0  0  0  0  0  0  0  0  0  0
    9.3809  -16.3004   21.8307 C   0  0  0  0  0  0  0  0  0  0  0  0
   10.5032  -16.1304   22.4035 O   0  0  0  0  0  0  0  0  0  0  0  0
    8.2749  -15.6415   22.3832 N   0  0  0  0  0  0  0  0  0  0  0  0
    8.3331  -14.9454   23.6300 C   0  0  1  0  0  0  0  0  0  0  0  0
    7.1257  -14.0963   23.9157 C   0  0  0  0  0  0  0  0  0  0  0  0
    7.1974  -13.3609   25.1789 C   0  0  0  0  0  0  0  0  0  0  0  0
    8.1719  -12.4323   25.3881 C   0  0  0  0  0  0  0  0  0  0  0  0
    8.1819  -11.7752   26.6019 C   0  0  0  0  0  0  0  0  0  0  0  0
    7.2404  -12.0354   27.5917 C   0  0  0  0  0  0  0  0  0  0  0  0
    6.2692  -12.9639   27.3774 C   0  0  0  0  0  0  0  0  0  0  0  0
    6.2540  -13.6332   26.1488 C   0  0  0  0  0  0  0  0  0  0  0  0
    8.4628  -15.9052   24.7843 C   0  0  0  0  0  0  0  0  0  0  0  0
    7.5050  -16.6849   25.0709 O   0  0  0  0  0  0  0  0  0  0  0  0
   11.7964  -17.4719   25.6872 O   0  0  0  0  0  0  0  0  0  0  0  0
   10.6067  -18.0684   26.1462 C   0  0  0  0  0  0  0  0  0  0  0  0
    9.7438  -16.9269   26.6697 C   0  0  2  0  0  0  0  0  0  0  0  0
    9.6197  -15.9780   25.5741 N   0  0  0  0  0  0  0  0  0  0  0  0
   10.3507  -16.3290   27.8595 C   0  0  0  0  0  0  0  0  0  0  0  0
   10.5110  -17.0832   29.0048 O   0  0  0  0  0  0  0  0  0  0  0  0
   10.7338  -15.1381   27.8692 O   0  0  0  0  0  0  0  0  0  0  0  0
  2  1  1  0
  3  2  1  0
  4  3  1  0
  4  5  1  0
  5  7  1  0
  5  6  1  6
  7  8  2  0
  9 10  1  0
  9  7  1  0
 10 11  1  1
 11 12  1  0
 12 17  2  0
 13 12  1  0
 13 14  2  0
 14 15  1  0
 15 16  2  0
 17 16  1  0
 18 10  1  0
 19 18  2  0
 21 20  1  0
 22 23  1  0
 22 21  1  6
 23 18  1  0
 24 22  1  0
 25 24  1  0
 26 24  2  0
M  END
$$$$
