MFS.pdb
     RDKit          3D

 26 26  0  0  1  0  0  0  0  0999 V2000
    9.1187  -18.7654   18.5480 C   0  0  0  0  0  0  0  0  0  0  0  0
    7.6751  -17.9801   17.8019 S   0  0  0  0  0  0  0  0  0  0  0  0
    7.2019  -16.4878   18.7225 C   0  0  0  0  0  0  0  0  0  0  0  0
    8.1326  -16.2583   19.8942 C   0  0  0  0  0  0  0  0  0  0  0  0
    7.6987  -15.0101   20.6570 C   0  0  2  0  0  0  0  0  0  0  0  0
    7.9761  -13.8637   19.8521 N   0  0  0  0  0  0  0  0  0  0  0  0
    8.2749  -14.9608   22.0003 C   0  0  0  0  0  0  0  0  0  0  0  0
    9.4139  -14.4083   22.1197 O   0  0  0  0  0  0  0  0  0  0  0  0
    7.6849  -15.4674   23.1656 N   0  0  0  0  0  0  0  0  0  0  0  0
    8.3163  -15.3964   24.4458 C   0  0  1  0  0  0  0  0  0  0  0  0
    7.3651  -15.1684   25.5875 C   0  0  0  0  0  0  0  0  0  0  0  0
    7.2085  -13.7628   25.9636 C   0  0  0  0  0  0  0  0  0  0  0  0
    6.0026  -13.1410   25.8417 C   0  0  0  0  0  0  0  0  0  0  0  0
    5.9246  -11.8142   26.2142 C   0  0  0  0  0  0  0  0  0  0  0  0
    7.0249  -11.1162   26.6996 C   0  0  0  0  0  0  0  0  0  0  0  0
    8.2270  -11.7423   26.8193 C   0  0  0  0  0  0  0  0  0  0  0  0
    8.3122  -13.0872   26.4432 C   0  0  0  0  0  0  0  0  0  0  0  0
    9.0602  -16.6691   24.7576 C   0  0  0  0  0  0  0  0  0  0  0  0
    8.4250  -17.7583   24.8899 O   0  0  0  0  0  0  0  0  0  0  0  0
   12.9874  -16.5062   24.9087 O   0  0  0  0  0  0  0  0  0  0  0  0
   12.5423  -17.7962   24.5633 C   0  0  0  0  0  0  0  0  0  0  0  0
   11.1635  -17.9439   25.1947 C   0  0  2  0  0  0  0  0  0  0  0  0
   10.4539  -16.7059   24.9116 N   0  0  0  0  0  0  0  0  0  0  0  0
   11.2817  -18.2034   26.6301 C   0  0  0  0  0  0  0  0  0  0  0  0
   11.9380  -19.3338   27.0746 O   0  0  0  0  0  0  0  0  0  0  0  0
   10.7989  -17.4200   27.4776 O   0  0  0  0  0  0  0  0  0  0  0  0
  2  1  1  0
  3  2  1  0
  4  3  1  0
  4  5  1  0
  5  7  1  0
  5  6  1  6
  7  8  2  0
  9 10  1  0
  9  7  1  0
 10 11  1  1
 11 12  1  0
 12 17  2  0
 13 12  1  0
 13 14  2  0
 14 15  1  0
 15 16  2  0
 17 16  1  0
 18 10  1  0
 19 18  2  0
 21 20  1  0
 22 23  1  0
 22 21  1  1
 23 18  1  0
 24 22  1  0
 25 24  1  0
 26 24  2  0
M  END
$$$$
