MFS.pdb
     RDKit          3D

 26 26  0  0  1  0  0  0  0  0999 V2000
    8.3989  -12.0240   18.4775 C   0  0  0  0  0  0  0  0  0  0  0  0
    7.5523  -13.3763   17.6338 S   0  0  0  0  0  0  0  0  0  0  0  0
    7.9642  -14.9730   18.3949 C   0  0  0  0  0  0  0  0  0  0  0  0
    9.1642  -14.8421   19.3085 C   0  0  0  0  0  0  0  0  0  0  0  0
    9.2299  -16.0457   20.2441 C   0  0  2  0  0  0  0  0  0  0  0  0
    8.1501  -16.9263   19.9319 N   0  0  0  0  0  0  0  0  0  0  0  0
    9.2975  -15.6445   21.6490 C   0  0  0  0  0  0  0  0  0  0  0  0
   10.4025  -15.1690   22.0608 O   0  0  0  0  0  0  0  0  0  0  0  0
    8.2549  -15.7372   22.5801 N   0  0  0  0  0  0  0  0  0  0  0  0
    8.3759  -15.2707   23.9256 C   0  0  1  0  0  0  0  0  0  0  0  0
    7.1168  -14.6654   24.4809 C   0  0  0  0  0  0  0  0  0  0  0  0
    7.3042  -13.9484   25.7428 C   0  0  0  0  0  0  0  0  0  0  0  0
    7.8750  -12.7117   25.7614 C   0  0  0  0  0  0  0  0  0  0  0  0
    8.0221  -12.0915   26.9857 C   0  0  0  0  0  0  0  0  0  0  0  0
    7.6097  -12.6887   28.1718 C   0  0  0  0  0  0  0  0  0  0  0  0
    7.0402  -13.9241   28.1474 C   0  0  0  0  0  0  0  0  0  0  0  0
    6.8884  -14.5578   26.9093 C   0  0  0  0  0  0  0  0  0  0  0  0
    8.7585  -16.3907   24.8581 C   0  0  0  0  0  0  0  0  0  0  0  0
    8.0477  -17.4391   24.9146 O   0  0  0  0  0  0  0  0  0  0  0  0
   12.2593  -18.9090   26.4804 O   0  0  0  0  0  0  0  0  0  0  0  0
   11.7601  -17.7972   25.7760 C   0  0  0  0  0  0  0  0  0  0  0  0
   10.3969  -17.4955   26.3861 C   0  0  2  0  0  0  0  0  0  0  0  0
    9.8895  -16.3261   25.6852 N   0  0  0  0  0  0  0  0  0  0  0  0
   10.5179  -17.2731   27.8274 C   0  0  0  0  0  0  0  0  0  0  0  0
   10.1895  -16.0448   28.3654 O   0  0  0  0  0  0  0  0  0  0  0  0
   10.9155  -18.1759   28.5968 O   0  0  0  0  0  0  0  0  0  0  0  0
  2  1  1  0
  3  2  1  0
  4  3  1  0
  4  5  1  0
  5  7  1  0
  5  6  1  1
  7  8  2  0
  9 10  1  0
  9  7  1  0
 10 11  1  1
 11 12  1  0
 12 17  2  0
 13 12  1  0
 13 14  2  0
 14 15  1  0
 15 16  2  0
 17 16  1  0
 18 10  1  0
 19 18  2  0
 21 20  1  0
 22 23  1  0
 22 21  1  6
 23 18  1  0
 24 22  1  0
 25 24  1  0
 26 24  2  0
M  END
$$$$
