MFS.pdb
     RDKit          3D

 26 26  0  0  1  0  0  0  0  0999 V2000
    8.2393  -12.1069   18.1675 C   0  0  0  0  0  0  0  0  0  0  0  0
    8.0968  -13.6196   17.1934 S   0  0  0  0  0  0  0  0  0  0  0  0
    8.2812  -15.0875   18.2467 C   0  0  0  0  0  0  0  0  0  0  0  0
    8.7046  -14.6977   19.6470 C   0  0  0  0  0  0  0  0  0  0  0  0
    8.8151  -15.9472   20.5157 C   0  0  2  0  0  0  0  0  0  0  0  0
    7.7053  -16.7999   20.2324 N   0  0  0  0  0  0  0  0  0  0  0  0
    8.9799  -15.6175   21.9311 C   0  0  0  0  0  0  0  0  0  0  0  0
   10.0980  -15.1244   22.2824 O   0  0  0  0  0  0  0  0  0  0  0  0
    8.0171  -15.7963   22.9330 N   0  0  0  0  0  0  0  0  0  0  0  0
    8.1971  -15.3272   24.2710 C   0  0  1  0  0  0  0  0  0  0  0  0
    6.9354  -14.8347   24.9236 C   0  0  0  0  0  0  0  0  0  0  0  0
    7.1602  -13.9774   26.0882 C   0  0  0  0  0  0  0  0  0  0  0  0
    7.5754  -14.5082   27.2721 C   0  0  0  0  0  0  0  0  0  0  0  0
    7.7680  -13.6433   28.3304 C   0  0  0  0  0  0  0  0  0  0  0  0
    7.5520  -12.2744   28.2157 C   0  0  0  0  0  0  0  0  0  0  0  0
    7.1373  -11.7496   27.0308 C   0  0  0  0  0  0  0  0  0  0  0  0
    6.9404  -12.6215   25.9545 C   0  0  0  0  0  0  0  0  0  0  0  0
    8.7415  -16.4146   25.1607 C   0  0  0  0  0  0  0  0  0  0  0  0
    8.0221  -17.4183   25.4477 O   0  0  0  0  0  0  0  0  0  0  0  0
   12.6151  -16.8203   25.4861 O   0  0  0  0  0  0  0  0  0  0  0  0
   11.8091  -17.9570   25.6862 C   0  0  0  0  0  0  0  0  0  0  0  0
   10.5916  -17.4725   26.4638 C   0  0  2  0  0  0  0  0  0  0  0  0
   10.0362  -16.3670   25.6984 N   0  0  0  0  0  0  0  0  0  0  0  0
   10.9734  -17.0760   27.8197 C   0  0  0  0  0  0  0  0  0  0  0  0
   11.5098  -18.0082   28.6854 O   0  0  0  0  0  0  0  0  0  0  0  0
   10.8259  -15.9009   28.2228 O   0  0  0  0  0  0  0  0  0  0  0  0
  2  1  1  0
  3  2  1  0
  4  3  1  0
  4  5  1  0
  5  7  1  0
  5  6  1  1
  7  8  2  0
  9 10  1  0
  9  7  1  0
 10 11  1  1
 11 12  1  0
 12 17  2  0
 13 12  1  0
 13 14  2  0
 14 15  1  0
 15 16  2  0
 17 16  1  0
 18 10  1  0
 19 18  2  0
 21 20  1  0
 22 23  1  0
 22 21  1  6
 23 18  1  0
 24 22  1  0
 25 24  1  0
 26 24  2  0
M  END
$$$$
