MFS.pdb
     RDKit          3D

 26 26  0  0  1  0  0  0  0  0999 V2000
    8.3697  -11.5537   20.2811 C   0  0  0  0  0  0  0  0  0  0  0  0
    8.7711  -12.7816   19.0208 S   0  0  0  0  0  0  0  0  0  0  0  0
    7.7902  -14.2923   19.2533 C   0  0  0  0  0  0  0  0  0  0  0  0
    7.3555  -14.4372   20.6962 C   0  0  0  0  0  0  0  0  0  0  0  0
    7.7560  -15.8145   21.2165 C   0  0  2  0  0  0  0  0  0  0  0  0
    6.6026  -16.6564   21.2145 N   0  0  0  0  0  0  0  0  0  0  0  0
    8.4452  -15.7347   22.5040 C   0  0  0  0  0  0  0  0  0  0  0  0
    9.6405  -15.3010   22.4928 O   0  0  0  0  0  0  0  0  0  0  0  0
    7.9069  -16.0928   23.7468 N   0  0  0  0  0  0  0  0  0  0  0  0
    8.6152  -15.9176   24.9758 C   0  0  1  0  0  0  0  0  0  0  0  0
    7.7373  -15.5710   26.1460 C   0  0  0  0  0  0  0  0  0  0  0  0
    7.3233  -14.1679   26.1879 C   0  0  0  0  0  0  0  0  0  0  0  0
    8.2355  -13.1805   26.4086 C   0  0  0  0  0  0  0  0  0  0  0  0
    7.7776  -11.8787   26.4359 C   0  0  0  0  0  0  0  0  0  0  0  0
    6.4367  -11.5621   26.2474 C   0  0  0  0  0  0  0  0  0  0  0  0
    5.5299  -12.5523   26.0274 C   0  0  0  0  0  0  0  0  0  0  0  0
    5.9882  -13.8739   25.9986 C   0  0  0  0  0  0  0  0  0  0  0  0
    9.3612  -17.1697   25.3578 C   0  0  0  0  0  0  0  0  0  0  0  0
    8.7266  -18.2480   25.5627 O   0  0  0  0  0  0  0  0  0  0  0  0
   13.2577  -16.9962   25.3413 O   0  0  0  0  0  0  0  0  0  0  0  0
   12.8266  -18.3229   25.1522 C   0  0  0  0  0  0  0  0  0  0  0  0
   11.4692  -18.4212   25.8374 C   0  0  2  0  0  0  0  0  0  0  0  0
   10.7563  -17.1986   25.5006 N   0  0  0  0  0  0  0  0  0  0  0  0
   11.6346  -18.5908   27.2815 C   0  0  0  0  0  0  0  0  0  0  0  0
   12.2987  -19.6963   27.7742 O   0  0  0  0  0  0  0  0  0  0  0  0
   11.1857  -17.7517   28.0935 O   0  0  0  0  0  0  0  0  0  0  0  0
  2  1  1  0
  3  2  1  0
  4  3  1  0
  4  5  1  0
  5  7  1  0
  5  6  1  1
  7  8  2  0
  9 10  1  0
  9  7  1  0
 10 11  1  1
 11 12  1  0
 12 17  2  0
 13 12  1  0
 13 14  2  0
 14 15  1  0
 15 16  2  0
 17 16  1  0
 18 10  1  0
 19 18  2  0
 21 20  1  0
 22 23  1  0
 22 21  1  6
 23 18  1  0
 24 22  1  0
 25 24  1  0
 26 24  2  0
M  END
$$$$
