MFS.pdb
     RDKit          3D

 26 26  0  0  1  0  0  0  0  0999 V2000
   12.7770  -19.9564   20.7826 C   0  0  0  0  0  0  0  0  0  0  0  0
   11.2952  -19.8089   19.7630 S   0  0  0  0  0  0  0  0  0  0  0  0
   11.2907  -18.2383   18.8509 C   0  0  0  0  0  0  0  0  0  0  0  0
   11.1480  -17.0650   19.7968 C   0  0  0  0  0  0  0  0  0  0  0  0
    9.7734  -17.1037   20.4580 C   0  0  2  0  0  0  0  0  0  0  0  0
    8.7809  -16.8509   19.4630 N   0  0  0  0  0  0  0  0  0  0  0  0
    9.7010  -16.2227   21.6233 C   0  0  0  0  0  0  0  0  0  0  0  0
   10.7897  -15.6983   22.0188 O   0  0  0  0  0  0  0  0  0  0  0  0
    8.5408  -15.9056   22.3416 N   0  0  0  0  0  0  0  0  0  0  0  0
    8.5550  -15.0795   23.5078 C   0  0  1  0  0  0  0  0  0  0  0  0
    7.2734  -14.3300   23.7446 C   0  0  0  0  0  0  0  0  0  0  0  0
    7.2774  -13.5061   24.9541 C   0  0  0  0  0  0  0  0  0  0  0  0
    6.6087  -13.9080   26.0709 C   0  0  0  0  0  0  0  0  0  0  0  0
    6.6535  -13.0832   27.1768 C   0  0  0  0  0  0  0  0  0  0  0  0
    7.3501  -11.8798   27.1744 C   0  0  0  0  0  0  0  0  0  0  0  0
    8.0162  -11.4833   26.0562 C   0  0  0  0  0  0  0  0  0  0  0  0
    7.9745  -12.3152   24.9320 C   0  0  0  0  0  0  0  0  0  0  0  0
    8.8086  -15.8944   24.7496 C   0  0  0  0  0  0  0  0  0  0  0  0
    7.9861  -16.7951   25.0956 O   0  0  0  0  0  0  0  0  0  0  0  0
   12.4746  -16.0480   26.0368 O   0  0  0  0  0  0  0  0  0  0  0  0
   11.6627  -17.1708   26.2855 C   0  0  0  0  0  0  0  0  0  0  0  0
   10.2845  -16.6200   26.6299 C   0  0  2  0  0  0  0  0  0  0  0  0
    9.9376  -15.6987   25.5587 N   0  0  0  0  0  0  0  0  0  0  0  0
   10.3049  -15.9693   27.9405 C   0  0  0  0  0  0  0  0  0  0  0  0
   10.6118  -16.7024   29.0694 O   0  0  0  0  0  0  0  0  0  0  0  0
   10.0488  -14.7516   28.0694 O   0  0  0  0  0  0  0  0  0  0  0  0
  2  1  1  0
  3  2  1  0
  4  3  1  0
  4  5  1  0
  5  7  1  0
  5  6  1  6
  7  8  2  0
  9 10  1  0
  9  7  1  0
 10 11  1  1
 11 12  1  0
 12 17  2  0
 13 12  1  0
 13 14  2  0
 14 15  1  0
 15 16  2  0
 17 16  1  0
 18 10  1  0
 19 18  2  0
 21 20  1  0
 22 23  1  0
 22 21  1  6
 23 18  1  0
 24 22  1  0
 25 24  1  0
 26 24  2  0
M  END
$$$$
