WGM.pdb
     RDKit          3D

 27 28  0  0  1  0  0  0  0  0999 V2000
    7.5171  -17.5769   22.5465 N   0  0  0  0  0  0  0  0  0  0  0  0
    7.9460  -16.5063   21.6699 C   0  0  1  0  0  0  0  0  0  0  0  0
    7.2450  -15.2162   22.0256 C   0  0  0  0  0  0  0  0  0  0  0  0
    6.7362  -15.2165   23.4222 C   0  0  0  0  0  0  0  0  0  0  0  0
    6.2264  -16.2782   24.1364 C   0  0  0  0  0  0  0  0  0  0  0  0
    5.8705  -15.8782   25.3678 N   0  0  0  0  0  0  0  0  0  0  0  0
    6.1291  -14.5690   25.5001 C   0  0  0  0  0  0  0  0  0  0  0  0
    5.9507  -13.6955   26.5484 C   0  0  0  0  0  0  0  0  0  0  0  0
    6.3237  -12.3574   26.3847 C   0  0  0  0  0  0  0  0  0  0  0  0
    6.8588  -11.9167   25.2030 C   0  0  0  0  0  0  0  0  0  0  0  0
    7.0280  -12.8002   24.1732 C   0  0  0  0  0  0  0  0  0  0  0  0
    6.6716  -14.1409   24.2896 C   0  0  0  0  0  0  0  0  0  0  0  0
    9.3951  -16.2937   21.9058 C   0  0  0  0  0  0  0  0  0  0  0  0
    9.9553  -15.3528   21.2911 O   0  0  0  0  0  0  0  0  0  0  0  0
   10.1425  -17.1137   22.7916 N   0  0  0  0  0  0  0  0  0  0  0  0
   11.5478  -16.8703   22.9742 C   0  0  0  0  0  0  0  0  0  0  0  0
   11.9203  -16.7995   24.4078 C   0  0  0  0  0  0  0  0  0  0  0  0
   13.1187  -16.5654   24.6942 O   0  0  0  0  0  0  0  0  0  0  0  0
    9.7765  -12.0776   28.2126 C   0  0  0  0  0  0  0  0  0  0  0  0
   10.0093  -13.7566   28.8427 S   0  0  0  0  0  0  0  0  0  0  0  0
   10.8464  -14.7614   27.6123 C   0  0  0  0  0  0  0  0  0  0  0  0
   10.6915  -16.2255   27.8147 C   0  0  0  0  0  0  0  0  0  0  0  0
   11.4153  -17.1039   26.8368 C   0  0  2  0  0  0  0  0  0  0  0  0
   10.9929  -16.9830   25.4691 N   0  0  0  0  0  0  0  0  0  0  0  0
   11.3755  -18.5194   27.2908 C   0  0  0  0  0  0  0  0  0  0  0  0
   10.8409  -19.5317   26.5029 O   0  0  0  0  0  0  0  0  0  0  0  0
   11.8306  -18.8140   28.4037 O   0  0  0  0  0  0  0  0  0  0  0  0
  2 13  1  0
  2  1  1  1
  3  2  1  0
  4  3  1  0
  4  5  2  0
  6  5  1  0
  7  6  1  0
  8  7  2  0
  9  8  1  0
 10  9  2  0
 10 11  1  0
 11 12  2  0
 12  7  1  0
 12  4  1  0
 13 14  2  0
 15 16  1  0
 15 13  1  0
 17 18  2  0
 17 16  1  0
 19 20  1  0
 20 21  1  0
 23 22  1  1
 22 21  1  0
 23 24  1  0
 24 17  1  0
 25 23  1  0
 26 25  1  0
 27 25  2  0
M  END
$$$$
