WGM.pdb
     RDKit          3D

 27 28  0  0  1  0  0  0  0  0999 V2000
    6.1712  -18.9642   24.9173 N   0  0  0  0  0  0  0  0  0  0  0  0
    6.6922  -18.1182   23.8631 C   0  0  1  0  0  0  0  0  0  0  0  0
    7.7331  -17.1695   24.4096 C   0  0  0  0  0  0  0  0  0  0  0  0
    7.1392  -16.1177   25.2757 C   0  0  0  0  0  0  0  0  0  0  0  0
    6.2060  -16.2738   26.2768 C   0  0  0  0  0  0  0  0  0  0  0  0
    5.9185  -15.0844   26.8298 N   0  0  0  0  0  0  0  0  0  0  0  0
    6.6376  -14.1286   26.2232 C   0  0  0  0  0  0  0  0  0  0  0  0
    6.7081  -12.7675   26.4136 C   0  0  0  0  0  0  0  0  0  0  0  0
    7.5700  -12.0159   25.6082 C   0  0  0  0  0  0  0  0  0  0  0  0
    8.3345  -12.6181   24.6440 C   0  0  0  0  0  0  0  0  0  0  0  0
    8.2502  -13.9718   24.4704 C   0  0  0  0  0  0  0  0  0  0  0  0
    7.4068  -14.7608   25.2478 C   0  0  0  0  0  0  0  0  0  0  0  0
    7.3767  -18.9991   22.8852 C   0  0  0  0  0  0  0  0  0  0  0  0
    7.8826  -20.0656   23.3137 O   0  0  0  0  0  0  0  0  0  0  0  0
    7.4685  -18.6676   21.5078 N   0  0  0  0  0  0  0  0  0  0  0  0
    8.6869  -18.9300   20.7908 C   0  0  0  0  0  0  0  0  0  0  0  0
    9.5715  -17.7409   20.7394 C   0  0  0  0  0  0  0  0  0  0  0  0
   10.4116  -17.6713   19.8109 O   0  0  0  0  0  0  0  0  0  0  0  0
    7.3490  -12.5054   20.8155 C   0  0  0  0  0  0  0  0  0  0  0  0
    8.3018  -13.9744   20.3634 S   0  0  0  0  0  0  0  0  0  0  0  0
   10.0273  -13.7439   20.8035 C   0  0  0  0  0  0  0  0  0  0  0  0
   10.4241  -14.4028   22.0751 C   0  0  0  0  0  0  0  0  0  0  0  0
   10.6673  -15.8817   22.0004 C   0  0  2  0  0  0  0  0  0  0  0  0
    9.5162  -16.6810   21.6847 N   0  0  0  0  0  0  0  0  0  0  0  0
   11.3295  -16.3567   23.2444 C   0  0  0  0  0  0  0  0  0  0  0  0
   10.7393  -17.2961   24.0813 O   0  0  0  0  0  0  0  0  0  0  0  0
   12.4410  -15.9066   23.5514 O   0  0  0  0  0  0  0  0  0  0  0  0
  2 13  1  0
  2  1  1  1
  3  2  1  0
  4  3  1  0
  4  5  2  0
  6  5  1  0
  7  6  1  0
  8  7  2  0
  9  8  1  0
 10  9  2  0
 10 11  1  0
 11 12  2  0
 12  7  1  0
 12  4  1  0
 13 14  2  0
 15 16  1  0
 15 13  1  0
 17 18  2  0
 17 16  1  0
 19 20  1  0
 20 21  1  0
 23 22  1  1
 22 21  1  0
 23 24  1  0
 24 17  1  0
 25 23  1  0
 26 25  1  0
 27 25  2  0
M  END
$$$$
