WGM.pdb
     RDKit          3D

 27 28  0  0  1  0  0  0  0  0999 V2000
    6.7304  -17.6767   24.8935 N   0  0  0  0  0  0  0  0  0  0  0  0
    8.0122  -17.3596   24.2977 C   0  0  1  0  0  0  0  0  0  0  0  0
    8.5866  -16.1043   24.9111 C   0  0  0  0  0  0  0  0  0  0  0  0
    7.7247  -14.9161   24.6772 C   0  0  0  0  0  0  0  0  0  0  0  0
    6.8041  -14.3568   25.5358 C   0  0  0  0  0  0  0  0  0  0  0  0
    6.2239  -13.2912   24.9605 N   0  0  0  0  0  0  0  0  0  0  0  0
    6.7330  -13.1193   23.7317 C   0  0  0  0  0  0  0  0  0  0  0  0
    6.4791  -12.1882   22.7508 C   0  0  0  0  0  0  0  0  0  0  0  0
    7.1837  -12.2669   21.5451 C   0  0  0  0  0  0  0  0  0  0  0  0
    8.1129  -13.2520   21.3374 C   0  0  0  0  0  0  0  0  0  0  0  0
    8.3508  -14.1678   22.3244 C   0  0  0  0  0  0  0  0  0  0  0  0
    7.6741  -14.1295   23.5405 C   0  0  0  0  0  0  0  0  0  0  0  0
    8.9406  -18.4690   24.6268 C   0  0  0  0  0  0  0  0  0  0  0  0
    8.6247  -19.2346   25.5706 O   0  0  0  0  0  0  0  0  0  0  0  0
   10.1498  -18.6765   23.9123 N   0  0  0  0  0  0  0  0  0  0  0  0
   11.0770  -17.5898   23.7488 C   0  0  0  0  0  0  0  0  0  0  0  0
   11.6576  -17.1522   25.0413 C   0  0  0  0  0  0  0  0  0  0  0  0
   12.9048  -17.0467   25.1211 O   0  0  0  0  0  0  0  0  0  0  0  0
    7.9302  -12.4185   26.4148 C   0  0  0  0  0  0  0  0  0  0  0  0
    8.5223  -13.6450   27.6045 S   0  0  0  0  0  0  0  0  0  0  0  0
   10.1650  -14.2030   27.1418 C   0  0  0  0  0  0  0  0  0  0  0  0
   10.7430  -15.2196   28.0590 C   0  0  0  0  0  0  0  0  0  0  0  0
   11.4669  -16.3592   27.4039 C   0  0  2  0  0  0  0  0  0  0  0  0
   10.8765  -16.8481   26.1890 N   0  0  0  0  0  0  0  0  0  0  0  0
   11.6822  -17.4599   28.3804 C   0  0  0  0  0  0  0  0  0  0  0  0
   11.2456  -18.7568   28.1377 O   0  0  0  0  0  0  0  0  0  0  0  0
   12.2676  -17.2225   29.4450 O   0  0  0  0  0  0  0  0  0  0  0  0
  2 13  1  0
  2  1  1  1
  3  2  1  0
  4  3  1  0
  4  5  2  0
  6  5  1  0
  7  6  1  0
  8  7  2  0
  9  8  1  0
 10  9  2  0
 10 11  1  0
 11 12  2  0
 12  7  1  0
 12  4  1  0
 13 14  2  0
 15 16  1  0
 15 13  1  0
 17 18  2  0
 17 16  1  0
 19 20  1  0
 20 21  1  0
 23 22  1  1
 22 21  1  0
 23 24  1  0
 24 17  1  0
 25 23  1  0
 26 25  1  0
 27 25  2  0
M  END
$$$$
