WGM.pdb
     RDKit          3D

 27 28  0  0  1  0  0  0  0  0999 V2000
    6.9895  -17.8460   23.6893 N   0  0  0  0  0  0  0  0  0  0  0  0
    7.7927  -16.6456   23.5763 C   0  0  1  0  0  0  0  0  0  0  0  0
    8.1532  -16.1175   24.9448 C   0  0  0  0  0  0  0  0  0  0  0  0
    7.2038  -15.0755   25.4162 C   0  0  0  0  0  0  0  0  0  0  0  0
    6.0886  -15.2431   26.2072 C   0  0  0  0  0  0  0  0  0  0  0  0
    5.4877  -14.0603   26.4148 N   0  0  0  0  0  0  0  0  0  0  0  0
    6.1734  -13.0979   25.7808 C   0  0  0  0  0  0  0  0  0  0  0  0
    5.9773  -11.7395   25.6811 C   0  0  0  0  0  0  0  0  0  0  0  0
    6.8812  -10.9789   24.9322 C   0  0  0  0  0  0  0  0  0  0  0  0
    7.9466  -11.5699   24.3056 C   0  0  0  0  0  0  0  0  0  0  0  0
    8.1242  -12.9211   24.4167 C   0  0  0  0  0  0  0  0  0  0  0  0
    7.2508  -13.7187   25.1511 C   0  0  0  0  0  0  0  0  0  0  0  0
    9.0618  -17.0227   22.9069 C   0  0  0  0  0  0  0  0  0  0  0  0
    9.4268  -18.2220   22.9799 O   0  0  0  0  0  0  0  0  0  0  0  0
    9.8521  -16.0768   22.2026 N   0  0  0  0  0  0  0  0  0  0  0  0
   11.1875  -16.4236   21.7979 C   0  0  0  0  0  0  0  0  0  0  0  0
   12.0968  -16.5898   22.9575 C   0  0  0  0  0  0  0  0  0  0  0  0
   13.2757  -16.9547   22.7341 O   0  0  0  0  0  0  0  0  0  0  0  0
    9.1667  -14.2886   29.0312 C   0  0  0  0  0  0  0  0  0  0  0  0
   10.8974  -14.3964   28.5182 S   0  0  0  0  0  0  0  0  0  0  0  0
   11.0519  -15.5074   27.1160 C   0  0  0  0  0  0  0  0  0  0  0  0
   12.4239  -15.5857   26.5502 C   0  0  0  0  0  0  0  0  0  0  0  0
   12.6081  -16.5361   25.4036 C   0  0  2  0  0  0  0  0  0  0  0  0
   11.7022  -16.3579   24.3030 N   0  0  0  0  0  0  0  0  0  0  0  0
   12.5933  -17.9402   25.8930 C   0  0  0  0  0  0  0  0  0  0  0  0
   11.6620  -18.8683   25.4425 O   0  0  0  0  0  0  0  0  0  0  0  0
   13.4329  -18.3022   26.7275 O   0  0  0  0  0  0  0  0  0  0  0  0
  2 13  1  0
  2  1  1  1
  3  2  1  0
  4  3  1  0
  4  5  2  0
  6  5  1  0
  7  6  1  0
  8  7  2  0
  9  8  1  0
 10  9  2  0
 10 11  1  0
 11 12  2  0
 12  7  1  0
 12  4  1  0
 13 14  2  0
 15 16  1  0
 15 13  1  0
 17 18  2  0
 17 16  1  0
 19 20  1  0
 20 21  1  0
 23 22  1  1
 22 21  1  0
 23 24  1  0
 24 17  1  0
 25 23  1  0
 26 25  1  0
 27 25  2  0
M  END
$$$$
