SPY.pdb
     RDKit          3D

 26 27  0  0  1  0  0  0  0  0999 V2000
    8.9492  -17.3205   18.1885 O   0  0  0  0  0  0  0  0  0  0  0  0
   10.2415  -17.0237   17.7471 C   0  0  0  0  0  0  0  0  0  0  0  0
   10.4389  -15.5223   17.9435 C   0  0  2  0  0  0  0  0  0  0  0  0
   11.6914  -15.1815   17.3562 N   0  0  0  0  0  0  0  0  0  0  0  0
   10.2665  -15.1190   19.3346 C   0  0  0  0  0  0  0  0  0  0  0  0
   11.1494  -15.6353   20.1422 O   0  0  0  0  0  0  0  0  0  0  0  0
    9.3257  -14.2825   19.9131 N   0  0  0  0  0  0  0  0  0  0  0  0
    8.8872  -13.0088   19.2339 C   0  0  0  0  0  0  0  0  0  0  0  0
    7.3817  -13.0199   19.3983 C   0  0  0  0  0  0  0  0  0  0  0  0
    7.1200  -14.2288   20.3135 C   0  0  0  0  0  0  0  0  0  0  0  0
    8.4401  -14.2593   21.0414 C   0  0  1  0  0  0  0  0  0  0  0  0
    8.6276  -15.1165   22.1538 C   0  0  0  0  0  0  0  0  0  0  0  0
    8.6441  -16.3717   22.0375 O   0  0  0  0  0  0  0  0  0  0  0  0
    4.9453  -11.7021   27.3608 O   0  0  0  0  0  0  0  0  0  0  0  0
    6.0218  -12.4635   26.9540 C   0  0  0  0  0  0  0  0  0  0  0  0
    5.9253  -13.4327   25.9727 C   0  0  0  0  0  0  0  0  0  0  0  0
    7.0060  -14.1717   25.5891 C   0  0  0  0  0  0  0  0  0  0  0  0
    8.2176  -13.9246   26.2142 C   0  0  0  0  0  0  0  0  0  0  0  0
    9.3744  -14.7206   25.8048 C   0  0  0  0  0  0  0  0  0  0  0  0
    9.1177  -15.5897   24.5933 C   0  0  2  0  0  0  0  0  0  0  0  0
    8.8151  -14.6589   23.5100 N   0  0  0  0  0  0  0  0  0  0  0  0
    8.0582  -16.5825   24.7774 C   0  0  0  0  0  0  0  0  0  0  0  0
    8.2807  -17.7069   25.5539 O   0  0  0  0  0  0  0  0  0  0  0  0
    8.3497  -12.9767   27.1861 C   0  0  0  0  0  0  0  0  0  0  0  0
    7.2349  -12.2489   27.5478 C   0  0  0  0  0  0  0  0  0  0  0  0
    6.9233  -16.4612   24.2493 O   0  0  0  0  0  0  0  0  0  0  0  0
  2  1  1  0
  3  2  1  0
  3  4  1  1
  5  7  1  0
  5  3  1  0
  6  5  2  0
  7 11  1  0
  8  9  1  0
  8  7  1  0
  9 10  1  0
 10 11  1  0
 11 12  1  1
 12 21  1  0
 13 12  2  0
 15 14  1  0
 16 15  2  0
 17 16  1  0
 18 24  1  0
 18 17  2  0
 19 18  1  0
 20 22  1  0
 20 21  1  0
 20 19  1  1
 22 23  1  0
 24 25  2  0
 25 15  1  0
 26 22  2  0
M  END
$$$$
