SPY.pdb
     RDKit          3D

 26 27  0  0  1  0  0  0  0  0999 V2000
    9.7444  -17.2918   17.2229 O   0  0  0  0  0  0  0  0  0  0  0  0
    8.6174  -16.4729   17.3344 C   0  0  0  0  0  0  0  0  0  0  0  0
    9.1280  -15.0477   17.5344 C   0  0  2  0  0  0  0  0  0  0  0  0
   10.1368  -14.8200   16.5546 N   0  0  0  0  0  0  0  0  0  0  0  0
    9.5229  -14.7903   18.9147 C   0  0  0  0  0  0  0  0  0  0  0  0
   10.7864  -15.0089   19.1468 O   0  0  0  0  0  0  0  0  0  0  0  0
    8.7711  -14.3526   19.9930 N   0  0  0  0  0  0  0  0  0  0  0  0
    7.8440  -13.1686   19.8725 C   0  0  0  0  0  0  0  0  0  0  0  0
    6.5850  -13.6314   20.5757 C   0  0  0  0  0  0  0  0  0  0  0  0
    6.9804  -14.9885   21.1836 C   0  0  0  0  0  0  0  0  0  0  0  0
    8.4617  -14.7524   21.3356 C   0  0  1  0  0  0  0  0  0  0  0  0
    9.2682  -15.6787   22.0419 C   0  0  0  0  0  0  0  0  0  0  0  0
    9.3587  -16.8881   21.6974 O   0  0  0  0  0  0  0  0  0  0  0  0
    9.2743  -13.8880   29.4812 O   0  0  0  0  0  0  0  0  0  0  0  0
    9.9059  -14.3277   28.3359 C   0  0  0  0  0  0  0  0  0  0  0  0
   10.5502  -15.5484   28.2576 C   0  0  0  0  0  0  0  0  0  0  0  0
   11.1671  -15.9591   27.1121 C   0  0  0  0  0  0  0  0  0  0  0  0
   11.1321  -15.1128   26.0156 C   0  0  0  0  0  0  0  0  0  0  0  0
   11.7974  -15.5526   24.7895 C   0  0  0  0  0  0  0  0  0  0  0  0
   10.9019  -16.3423   23.8603 C   0  0  2  0  0  0  0  0  0  0  0  0
   10.0557  -15.3487   23.2060 N   0  0  0  0  0  0  0  0  0  0  0  0
   10.1156  -17.3842   24.5222 C   0  0  0  0  0  0  0  0  0  0  0  0
    8.7389  -17.2693   24.6142 O   0  0  0  0  0  0  0  0  0  0  0  0
   10.5061  -13.9016   26.0566 C   0  0  0  0  0  0  0  0  0  0  0  0
    9.8931  -13.5201   27.2322 C   0  0  0  0  0  0  0  0  0  0  0  0
   10.6442  -18.4080   25.0264 O   0  0  0  0  0  0  0  0  0  0  0  0
  2  1  1  0
  3  2  1  0
  3  4  1  6
  5  7  1  0
  5  3  1  0
  6  5  2  0
  7 11  1  0
  8  9  1  0
  8  7  1  0
  9 10  1  0
 10 11  1  0
 11 12  1  6
 12 21  1  0
 13 12  2  0
 15 14  1  0
 16 15  2  0
 17 16  1  0
 18 24  1  0
 18 17  2  0
 19 18  1  0
 20 22  1  0
 20 21  1  0
 20 19  1  1
 22 23  1  0
 24 25  2  0
 25 15  1  0
 26 22  2  0
M  END
$$$$
