SPY.pdb
     RDKit          3D

 26 27  0  0  1  0  0  0  0  0999 V2000
    6.9644  -18.4938   21.0601 O   0  0  0  0  0  0  0  0  0  0  0  0
    6.7014  -18.3051   19.7006 C   0  0  0  0  0  0  0  0  0  0  0  0
    7.7827  -17.3665   19.1699 C   0  0  2  0  0  0  0  0  0  0  0  0
    8.6405  -18.1403   18.3364 N   0  0  0  0  0  0  0  0  0  0  0  0
    8.4447  -16.6256   20.2378 C   0  0  0  0  0  0  0  0  0  0  0  0
    9.1237  -17.3803   21.0549 O   0  0  0  0  0  0  0  0  0  0  0  0
    8.4625  -15.2664   20.5051 N   0  0  0  0  0  0  0  0  0  0  0  0
    8.5724  -14.2511   19.3946 C   0  0  0  0  0  0  0  0  0  0  0  0
    7.5419  -13.2057   19.7671 C   0  0  0  0  0  0  0  0  0  0  0  0
    7.0567  -13.6464   21.1592 C   0  0  0  0  0  0  0  0  0  0  0  0
    8.2947  -14.3753   21.6168 C   0  0  1  0  0  0  0  0  0  0  0  0
    8.4107  -14.8240   22.9557 C   0  0  0  0  0  0  0  0  0  0  0  0
    7.4198  -14.8765   23.7334 O   0  0  0  0  0  0  0  0  0  0  0  0
    5.9455  -10.9921   27.3060 O   0  0  0  0  0  0  0  0  0  0  0  0
    6.5004  -12.1660   26.8392 C   0  0  0  0  0  0  0  0  0  0  0  0
    5.7500  -13.1668   26.2504 C   0  0  0  0  0  0  0  0  0  0  0  0
    6.3243  -14.3184   25.7971 C   0  0  0  0  0  0  0  0  0  0  0  0
    7.6946  -14.4626   25.9429 C   0  0  0  0  0  0  0  0  0  0  0  0
    8.3083  -15.6995   25.4602 C   0  0  0  0  0  0  0  0  0  0  0  0
    9.7377  -15.5287   24.9948 C   0  0  2  0  0  0  0  0  0  0  0  0
    9.6459  -15.2594   23.5628 N   0  0  0  0  0  0  0  0  0  0  0  0
   10.6066  -16.6700   25.2852 C   0  0  0  0  0  0  0  0  0  0  0  0
   10.8368  -17.0586   26.5939 O   0  0  0  0  0  0  0  0  0  0  0  0
    8.4662  -13.4964   26.5188 C   0  0  0  0  0  0  0  0  0  0  0  0
    7.8504  -12.3454   26.9653 C   0  0  0  0  0  0  0  0  0  0  0  0
   11.1710  -17.3340   24.3784 O   0  0  0  0  0  0  0  0  0  0  0  0
  2  1  1  0
  3  2  1  0
  3  4  1  1
  5  7  1  0
  5  3  1  0
  6  5  2  0
  7 11  1  0
  8  9  1  0
  8  7  1  0
  9 10  1  0
 10 11  1  0
 11 12  1  1
 12 21  1  0
 13 12  2  0
 15 14  1  0
 16 15  2  0
 17 16  1  0
 18 24  1  0
 18 17  2  0
 19 18  1  0
 20 22  1  0
 20 21  1  0
 20 19  1  6
 22 23  1  0
 24 25  2  0
 25 15  1  0
 26 22  2  0
M  END
$$$$
