SPY.pdb
     RDKit          3D

 26 27  0  0  1  0  0  0  0  0999 V2000
    7.9831  -18.6843   20.1665 O   0  0  0  0  0  0  0  0  0  0  0  0
    9.0484  -18.5732   19.2688 C   0  0  0  0  0  0  0  0  0  0  0  0
    9.3310  -17.0815   19.1047 C   0  0  2  0  0  0  0  0  0  0  0  0
   10.4082  -16.9558   18.1809 N   0  0  0  0  0  0  0  0  0  0  0  0
    9.5199  -16.4102   20.3858 C   0  0  0  0  0  0  0  0  0  0  0  0
   10.4502  -16.9455   21.1247 O   0  0  0  0  0  0  0  0  0  0  0  0
    8.8738  -15.3079   20.9215 N   0  0  0  0  0  0  0  0  0  0  0  0
    8.5014  -14.1245   20.0631 C   0  0  0  0  0  0  0  0  0  0  0  0
    7.0871  -13.8022   20.4982 C   0  0  0  0  0  0  0  0  0  0  0  0
    6.8479  -14.7382   21.6958 C   0  0  0  0  0  0  0  0  0  0  0  0
    8.2747  -14.8941   22.1575 C   0  0  1  0  0  0  0  0  0  0  0  0
    8.5667  -15.5448   23.3818 C   0  0  0  0  0  0  0  0  0  0  0  0
    7.9267  -16.5588   23.7714 O   0  0  0  0  0  0  0  0  0  0  0  0
    4.6693  -12.1251   26.5741 O   0  0  0  0  0  0  0  0  0  0  0  0
    5.9112  -12.7256   26.6015 C   0  0  0  0  0  0  0  0  0  0  0  0
    6.9999  -12.1656   27.2438 C   0  0  0  0  0  0  0  0  0  0  0  0
    8.2175  -12.7810   27.2556 C   0  0  0  0  0  0  0  0  0  0  0  0
    8.3383  -13.9957   26.6003 C   0  0  0  0  0  0  0  0  0  0  0  0
    9.6453  -14.6523   26.6102 C   0  0  0  0  0  0  0  0  0  0  0  0
    9.7736  -15.7688   25.5973 C   0  0  2  0  0  0  0  0  0  0  0  0
    9.6032  -15.1287   24.2964 N   0  0  0  0  0  0  0  0  0  0  0  0
    8.8330  -16.8726   25.7946 C   0  0  0  0  0  0  0  0  0  0  0  0
    7.9141  -17.1929   24.8099 O   0  0  0  0  0  0  0  0  0  0  0  0
    7.2861  -14.5777   25.9561 C   0  0  0  0  0  0  0  0  0  0  0  0
    6.0702  -13.9260   25.9656 C   0  0  0  0  0  0  0  0  0  0  0  0
    8.8177  -17.5640   26.8451 O   0  0  0  0  0  0  0  0  0  0  0  0
  2  1  1  0
  3  2  1  0
  3  4  1  6
  5  7  1  0
  5  3  1  0
  6  5  2  0
  7 11  1  0
  8  9  1  0
  8  7  1  0
  9 10  1  0
 10 11  1  0
 11 12  1  1
 12 21  1  0
 13 12  2  0
 15 14  1  0
 16 15  2  0
 17 16  1  0
 18 24  1  0
 18 17  2  0
 19 18  1  0
 20 22  1  0
 20 21  1  0
 20 19  1  1
 22 23  1  0
 24 25  2  0
 25 15  1  0
 26 22  2  0
M  END
$$$$
