SPY.pdb
     RDKit          3D

 26 27  0  0  1  0  0  0  0  0999 V2000
   10.1367  -15.1441   18.5809 O   0  0  0  0  0  0  0  0  0  0  0  0
    9.7316  -13.8133   18.4473 C   0  0  0  0  0  0  0  0  0  0  0  0
    8.2576  -13.7608   18.8432 C   0  0  2  0  0  0  0  0  0  0  0  0
    7.7658  -12.4777   18.4672 N   0  0  0  0  0  0  0  0  0  0  0  0
    8.0460  -14.1312   20.2380 C   0  0  0  0  0  0  0  0  0  0  0  0
    8.5745  -13.2957   21.0871 O   0  0  0  0  0  0  0  0  0  0  0  0
    7.3768  -15.2145   20.7838 N   0  0  0  0  0  0  0  0  0  0  0  0
    6.0856  -15.7186   20.1883 C   0  0  0  0  0  0  0  0  0  0  0  0
    6.2647  -17.2224   20.1754 C   0  0  0  0  0  0  0  0  0  0  0  0
    7.5878  -17.4422   20.9295 C   0  0  0  0  0  0  0  0  0  0  0  0
    7.5673  -16.2104   21.7986 C   0  0  1  0  0  0  0  0  0  0  0  0
    8.5198  -16.0461   22.8346 C   0  0  0  0  0  0  0  0  0  0  0  0
    9.7346  -15.8073   22.5966 O   0  0  0  0  0  0  0  0  0  0  0  0
    5.5988  -10.9277   26.3133 O   0  0  0  0  0  0  0  0  0  0  0  0
    6.2933  -12.1187   26.3689 C   0  0  0  0  0  0  0  0  0  0  0  0
    5.6660  -13.3499   26.4147 C   0  0  0  0  0  0  0  0  0  0  0  0
    6.3771  -14.5130   26.4692 C   0  0  0  0  0  0  0  0  0  0  0  0
    7.7601  -14.4296   26.4777 C   0  0  0  0  0  0  0  0  0  0  0  0
    8.5211  -15.6772   26.5403 C   0  0  0  0  0  0  0  0  0  0  0  0
    9.2534  -16.0088   25.2586 C   0  0  2  0  0  0  0  0  0  0  0  0
    8.2125  -16.1324   24.2425 N   0  0  0  0  0  0  0  0  0  0  0  0
   10.0917  -17.2060   25.3358 C   0  0  0  0  0  0  0  0  0  0  0  0
    9.7604  -18.3395   24.6133 O   0  0  0  0  0  0  0  0  0  0  0  0
    8.4127  -13.2326   26.4337 C   0  0  0  0  0  0  0  0  0  0  0  0
    7.6603  -12.0775   26.3791 C   0  0  0  0  0  0  0  0  0  0  0  0
   11.1277  -17.2573   26.0471 O   0  0  0  0  0  0  0  0  0  0  0  0
  2  1  1  0
  3  2  1  0
  3  4  1  1
  5  7  1  0
  5  3  1  0
  6  5  2  0
  7 11  1  0
  8  9  1  0
  8  7  1  0
  9 10  1  0
 10 11  1  0
 11 12  1  6
 12 21  1  0
 13 12  2  0
 15 14  1  0
 16 15  2  0
 17 16  1  0
 18 24  1  0
 18 17  2  0
 19 18  1  0
 20 22  1  0
 20 21  1  0
 20 19  1  1
 22 23  1  0
 24 25  2  0
 25 15  1  0
 26 22  2  0
M  END
$$$$
