SPY.pdb
     RDKit          3D

 26 27  0  0  1  0  0  0  0  0999 V2000
    7.9659  -17.1941   18.4946 O   0  0  0  0  0  0  0  0  0  0  0  0
    8.6657  -16.5750   17.4554 C   0  0  0  0  0  0  0  0  0  0  0  0
    8.9242  -15.1359   17.8958 C   0  0  2  0  0  0  0  0  0  0  0  0
    9.8308  -14.5643   16.9572 N   0  0  0  0  0  0  0  0  0  0  0  0
    9.3299  -15.0499   19.2942 C   0  0  0  0  0  0  0  0  0  0  0  0
   10.4974  -15.5770   19.5336 O   0  0  0  0  0  0  0  0  0  0  0  0
    8.6744  -14.4986   20.3832 N   0  0  0  0  0  0  0  0  0  0  0  0
    7.8525  -13.2407   20.2482 C   0  0  0  0  0  0  0  0  0  0  0  0
    6.5933  -13.5549   21.0286 C   0  0  0  0  0  0  0  0  0  0  0  0
    6.8946  -14.9149   21.6821 C   0  0  0  0  0  0  0  0  0  0  0  0
    8.3968  -14.8096   21.7558 C   0  0  1  0  0  0  0  0  0  0  0  0
    9.1507  -15.7746   22.4685 C   0  0  0  0  0  0  0  0  0  0  0  0
    9.0751  -17.0068   22.2128 O   0  0  0  0  0  0  0  0  0  0  0  0
    9.5735  -14.4284   30.0091 O   0  0  0  0  0  0  0  0  0  0  0  0
   10.1230  -14.7251   28.7787 C   0  0  0  0  0  0  0  0  0  0  0  0
   10.0409  -13.8694   27.6959 C   0  0  0  0  0  0  0  0  0  0  0  0
   10.5935  -14.1875   26.4897 C   0  0  0  0  0  0  0  0  0  0  0  0
   11.2471  -15.4037   26.3747 C   0  0  0  0  0  0  0  0  0  0  0  0
   11.8355  -15.7452   25.0798 C   0  0  0  0  0  0  0  0  0  0  0  0
   10.8936  -16.4916   24.1607 C   0  0  2  0  0  0  0  0  0  0  0  0
   10.0656  -15.4616   23.5404 N   0  0  0  0  0  0  0  0  0  0  0  0
   10.0890  -17.5173   24.8261 C   0  0  0  0  0  0  0  0  0  0  0  0
   10.6597  -18.7232   25.1957 O   0  0  0  0  0  0  0  0  0  0  0  0
   11.3475  -16.2726   27.4213 C   0  0  0  0  0  0  0  0  0  0  0  0
   10.7765  -15.9168   28.6257 C   0  0  0  0  0  0  0  0  0  0  0  0
    8.8695  -17.3524   25.0857 O   0  0  0  0  0  0  0  0  0  0  0  0
  2  1  1  0
  3  2  1  0
  3  4  1  6
  5  7  1  0
  5  3  1  0
  6  5  2  0
  7 11  1  0
  8  9  1  0
  8  7  1  0
  9 10  1  0
 10 11  1  0
 11 12  1  6
 12 21  1  0
 13 12  2  0
 15 14  1  0
 16 15  2  0
 17 16  1  0
 18 24  1  0
 18 17  2  0
 19 18  1  0
 20 22  1  0
 20 21  1  0
 20 19  1  1
 22 23  1  0
 24 25  2  0
 25 15  1  0
 26 22  2  0
M  END
$$$$
