SPY.pdb
     RDKit          3D

 26 27  0  0  1  0  0  0  0  0999 V2000
    6.7516  -17.8144   20.0030 O   0  0  0  0  0  0  0  0  0  0  0  0
    7.5849  -18.3313   19.0073 C   0  0  0  0  0  0  0  0  0  0  0  0
    8.3042  -17.1420   18.3750 C   0  0  2  0  0  0  0  0  0  0  0  0
    9.2119  -17.6636   17.4088 N   0  0  0  0  0  0  0  0  0  0  0  0
    8.8905  -16.2554   19.3740 C   0  0  0  0  0  0  0  0  0  0  0  0
    9.7767  -16.8358   20.1328 O   0  0  0  0  0  0  0  0  0  0  0  0
    8.6536  -14.9143   19.6284 N   0  0  0  0  0  0  0  0  0  0  0  0
    8.1483  -13.9896   18.5487 C   0  0  0  0  0  0  0  0  0  0  0  0
    7.0639  -13.1929   19.2436 C   0  0  0  0  0  0  0  0  0  0  0  0
    7.1724  -13.6286   20.7153 C   0  0  0  0  0  0  0  0  0  0  0  0
    8.6319  -14.0063   20.7388 C   0  0  1  0  0  0  0  0  0  0  0  0
    9.2755  -14.3115   21.9637 C   0  0  0  0  0  0  0  0  0  0  0  0
   10.4771  -14.0008   22.1851 O   0  0  0  0  0  0  0  0  0  0  0  0
   10.2996  -15.2111   30.6013 O   0  0  0  0  0  0  0  0  0  0  0  0
    9.8320  -15.0726   29.3105 C   0  0  0  0  0  0  0  0  0  0  0  0
    9.1412  -16.0735   28.6529 C   0  0  0  0  0  0  0  0  0  0  0  0
    8.6895  -15.9103   27.3758 C   0  0  0  0  0  0  0  0  0  0  0  0
    8.9430  -14.7025   26.7461 C   0  0  0  0  0  0  0  0  0  0  0  0
    8.4618  -14.5304   25.3756 C   0  0  0  0  0  0  0  0  0  0  0  0
    9.3343  -15.1982   24.3355 C   0  0  2  0  0  0  0  0  0  0  0  0
    8.6424  -14.9955   23.0661 N   0  0  0  0  0  0  0  0  0  0  0  0
    9.6054  -16.6129   24.5944 C   0  0  0  0  0  0  0  0  0  0  0  0
   10.7730  -16.9961   25.2320 O   0  0  0  0  0  0  0  0  0  0  0  0
    9.6213  -13.6931   27.3639 C   0  0  0  0  0  0  0  0  0  0  0  0
   10.0626  -13.8944   28.6554 C   0  0  0  0  0  0  0  0  0  0  0  0
    8.8070  -17.5239   24.2561 O   0  0  0  0  0  0  0  0  0  0  0  0
  2  1  1  0
  3  2  1  0
  3  4  1  6
  5  7  1  0
  5  3  1  0
  6  5  2  0
  7 11  1  0
  8  9  1  0
  8  7  1  0
  9 10  1  0
 10 11  1  0
 11 12  1  1
 12 21  1  0
 13 12  2  0
 15 14  1  0
 16 15  2  0
 17 16  1  0
 18 24  1  0
 18 17  2  0
 19 18  1  0
 20 22  1  0
 20 21  1  0
 20 19  1  1
 22 23  1  0
 24 25  2  0
 25 15  1  0
 26 22  2  0
M  END
$$$$
