SPY.pdb
     RDKit          3D

 26 27  0  0  1  0  0  0  0  0999 V2000
    9.1334  -14.8795   16.1510 O   0  0  0  0  0  0  0  0  0  0  0  0
    9.2978  -14.9459   17.5372 C   0  0  0  0  0  0  0  0  0  0  0  0
    8.1286  -14.1825   18.1554 C   0  0  2  0  0  0  0  0  0  0  0  0
    8.1915  -12.8463   17.6652 N   0  0  0  0  0  0  0  0  0  0  0  0
    8.0851  -14.3181   19.6070 C   0  0  0  0  0  0  0  0  0  0  0  0
    8.9301  -13.5461   20.2301 O   0  0  0  0  0  0  0  0  0  0  0  0
    7.2925  -15.1258   20.4063 N   0  0  0  0  0  0  0  0  0  0  0  0
    5.8307  -15.3381   20.0999 C   0  0  0  0  0  0  0  0  0  0  0  0
    5.6425  -16.8292   20.2858 C   0  0  0  0  0  0  0  0  0  0  0  0
    6.9929  -17.3032   20.8510 C   0  0  0  0  0  0  0  0  0  0  0  0
    7.4280  -16.0228   21.5177 C   0  0  1  0  0  0  0  0  0  0  0  0
    8.5690  -16.0017   22.3575 C   0  0  0  0  0  0  0  0  0  0  0  0
    9.6653  -16.5196   22.0122 O   0  0  0  0  0  0  0  0  0  0  0  0
   10.6419  -16.0820   30.6707 O   0  0  0  0  0  0  0  0  0  0  0  0
   10.3960  -15.6568   29.3813 C   0  0  0  0  0  0  0  0  0  0  0  0
   10.9805  -16.2443   28.2747 C   0  0  0  0  0  0  0  0  0  0  0  0
   10.7199  -15.8040   27.0099 C   0  0  0  0  0  0  0  0  0  0  0  0
    9.8444  -14.7407   26.8593 C   0  0  0  0  0  0  0  0  0  0  0  0
    9.5691  -14.2670   25.5031 C   0  0  0  0  0  0  0  0  0  0  0  0
    9.8431  -15.2984   24.4305 C   0  0  2  0  0  0  0  0  0  0  0  0
    8.6014  -15.4003   23.6695 N   0  0  0  0  0  0  0  0  0  0  0  0
   10.2831  -16.5972   24.9417 C   0  0  0  0  0  0  0  0  0  0  0  0
    9.3691  -17.6191   25.1345 O   0  0  0  0  0  0  0  0  0  0  0  0
    9.2496  -14.1367   27.9280 C   0  0  0  0  0  0  0  0  0  0  0  0
    9.5372  -14.6093   29.1918 C   0  0  0  0  0  0  0  0  0  0  0  0
   11.4852  -16.8375   25.2229 O   0  0  0  0  0  0  0  0  0  0  0  0
  2  1  1  0
  3  2  1  0
  3  4  1  1
  5  7  1  0
  5  3  1  0
  6  5  2  0
  7 11  1  0
  8  9  1  0
  8  7  1  0
  9 10  1  0
 10 11  1  0
 11 12  1  6
 12 21  1  0
 13 12  2  0
 15 14  1  0
 16 15  2  0
 17 16  1  0
 18 24  1  0
 18 17  2  0
 19 18  1  0
 20 22  1  0
 20 21  1  0
 20 19  1  1
 22 23  1  0
 24 25  2  0
 25 15  1  0
 26 22  2  0
M  END
$$$$
