SPY.pdb
     RDKit          3D

 26 27  0  0  1  0  0  0  0  0999 V2000
    7.8648  -18.9044   21.6389 O   0  0  0  0  0  0  0  0  0  0  0  0
    6.9237  -18.3616   20.7600 C   0  0  0  0  0  0  0  0  0  0  0  0
    7.7038  -17.5555   19.7238 C   0  0  2  0  0  0  0  0  0  0  0  0
    8.4520  -18.4838   18.9440 N   0  0  0  0  0  0  0  0  0  0  0  0
    8.4764  -16.4768   20.3295 C   0  0  0  0  0  0  0  0  0  0  0  0
    9.4940  -16.8916   21.0300 O   0  0  0  0  0  0  0  0  0  0  0  0
    8.2961  -15.1045   20.2688 N   0  0  0  0  0  0  0  0  0  0  0  0
    7.8272  -14.4314   19.0027 C   0  0  0  0  0  0  0  0  0  0  0  0
    6.7785  -13.4531   19.4891 C   0  0  0  0  0  0  0  0  0  0  0  0
    6.8721  -13.5447   21.0222 C   0  0  0  0  0  0  0  0  0  0  0  0
    8.3147  -13.9665   21.1420 C   0  0  1  0  0  0  0  0  0  0  0  0
    8.9478  -14.0095   22.4089 C   0  0  0  0  0  0  0  0  0  0  0  0
    8.7692  -13.1142   23.2783 O   0  0  0  0  0  0  0  0  0  0  0  0
   10.4987  -15.4295   30.5174 O   0  0  0  0  0  0  0  0  0  0  0  0
   10.1671  -15.3682   29.1794 C   0  0  0  0  0  0  0  0  0  0  0  0
    9.7114  -16.4638   28.4699 C   0  0  0  0  0  0  0  0  0  0  0  0
    9.3903  -16.3756   27.1468 C   0  0  0  0  0  0  0  0  0  0  0  0
    9.5336  -15.1464   26.5236 C   0  0  0  0  0  0  0  0  0  0  0  0
    9.1928  -15.0543   25.1042 C   0  0  0  0  0  0  0  0  0  0  0  0
   10.3948  -15.0883   24.1859 C   0  0  2  0  0  0  0  0  0  0  0  0
    9.8459  -15.0570   22.8335 N   0  0  0  0  0  0  0  0  0  0  0  0
   11.2798  -16.2352   24.3939 C   0  0  0  0  0  0  0  0  0  0  0  0
   12.4087  -16.1129   25.1860 O   0  0  0  0  0  0  0  0  0  0  0  0
    9.9803  -14.0445   27.1920 C   0  0  0  0  0  0  0  0  0  0  0  0
   10.2953  -14.1718   28.5291 C   0  0  0  0  0  0  0  0  0  0  0  0
   11.0592  -17.3586   23.8731 O   0  0  0  0  0  0  0  0  0  0  0  0
  2  1  1  0
  3  2  1  0
  3  4  1  1
  5  7  1  0
  5  3  1  0
  6  5  2  0
  7 11  1  0
  8  9  1  0
  8  7  1  0
  9 10  1  0
 10 11  1  0
 11 12  1  1
 12 21  1  0
 13 12  2  0
 15 14  1  0
 16 15  2  0
 17 16  1  0
 18 24  1  0
 18 17  2  0
 19 18  1  0
 20 22  1  0
 20 21  1  0
 20 19  1  1
 22 23  1  0
 24 25  2  0
 25 15  1  0
 26 22  2  0
M  END
$$$$
