TQF.pdb
     RDKit          3D

 28 28  0  0  1  0  0  0  0  0999 V2000
   27.0564  -15.5950  -17.0063 C   0  0  0  0  0  0  0  0  0  0  0  0
   26.9338  -16.4597  -18.2376 C   0  0  1  0  0  0  0  0  0  0  0  0
   27.3726  -17.7487  -18.0725 O   0  0  0  0  0  0  0  0  0  0  0  0
   25.5018  -16.3814  -18.7349 C   0  0  2  0  0  0  0  0  0  0  0  0
   25.4400  -17.1212  -20.0007 N   0  0  0  0  0  0  0  0  0  0  0  0
   25.0813  -14.9710  -18.9374 C   0  0  0  0  0  0  0  0  0  0  0  0
   25.1067  -14.4589  -20.0803 O   0  0  0  0  0  0  0  0  0  0  0  0
   20.9741  -11.0621  -19.7472 N   0  0  0  0  0  0  0  0  0  0  0  0
   20.6752  -12.1410  -18.8842 C   0  0  0  0  0  0  0  0  0  0  0  0
   19.4977  -12.2199  -18.4530 O   0  0  0  0  0  0  0  0  0  0  0  0
   21.6474  -13.1757  -18.4610 C   0  0  0  0  0  0  0  0  0  0  0  0
   23.0045  -12.9287  -19.0723 C   0  0  0  0  0  0  0  0  0  0  0  0
   24.1161  -12.8103  -18.0592 C   0  0  2  0  0  0  0  0  0  0  0  0
   24.6307  -14.1492  -17.8400 N   0  0  0  0  0  0  0  0  0  0  0  0
   23.7186  -12.1879  -16.8016 C   0  0  0  0  0  0  0  0  0  0  0  0
   23.0778  -12.7832  -15.8853 O   0  0  0  0  0  0  0  0  0  0  0  0
   24.0375  -10.8355  -16.5196 N   0  0  0  0  0  0  0  0  0  0  0  0
   23.7445  -10.2186  -15.2018 C   0  0  1  0  0  0  0  0  0  0  0  0
   25.0585  -10.1451  -14.4237 C   0  0  0  0  0  0  0  0  0  0  0  0
   26.1589   -9.8730  -15.3764 C   0  0  0  0  0  0  0  0  0  0  0  0
   26.2535   -8.7403  -16.1485 C   0  0  0  0  0  0  0  0  0  0  0  0
   27.3126   -8.5649  -16.9976 C   0  0  0  0  0  0  0  0  0  0  0  0
   28.3503   -9.4835  -17.1504 C   0  0  0  0  0  0  0  0  0  0  0  0
   28.2315  -10.6226  -16.3583 C   0  0  0  0  0  0  0  0  0  0  0  0
   27.1842  -10.8220  -15.5018 C   0  0  0  0  0  0  0  0  0  0  0  0
   23.2781   -8.8563  -15.4676 C   0  0  0  0  0  0  0  0  0  0  0  0
   22.9534   -8.1044  -14.5245 O   0  0  0  0  0  0  0  0  0  0  0  0
   23.1918   -8.3861  -16.7594 O   0  0  0  0  0  0  0  0  0  0  0  0
  2  1  1  1
  3  2  1  0
  4  2  1  0
  4  5  1  6
  6  4  1  0
  6 14  1  0
  7  6  2  0
  9 10  2  0
  9  8  1  0
 11  9  1  0
 13 12  1  6
 12 11  1  0
 14 13  1  0
 15 16  2  0
 15 13  1  0
 17 15  1  0
 18 17  1  0
 18 26  1  0
 18 19  1  1
 20 25  2  0
 20 19  1  0
 21 20  1  0
 22 23  1  0
 22 21  2  0
 23 24  2  0
 24 25  1  0
 26 28  1  0
 27 26  2  0
M  END
$$$$
