TQF.pdb
     RDKit          3D

 28 28  0  0  1  0  0  0  0  0999 V2000
   17.7637  -15.9840  -16.8006 C   0  0  0  0  0  0  0  0  0  0  0  0
   18.7438  -14.8398  -16.8958 C   0  0  1  0  0  0  0  0  0  0  0  0
   19.9644  -15.0881  -16.3215 O   0  0  0  0  0  0  0  0  0  0  0  0
   18.8489  -14.4215  -18.3512 C   0  0  2  0  0  0  0  0  0  0  0  0
   19.3520  -15.5784  -19.1009 N   0  0  0  0  0  0  0  0  0  0  0  0
   19.7643  -13.2622  -18.5106 C   0  0  0  0  0  0  0  0  0  0  0  0
   20.4597  -13.1402  -19.5453 O   0  0  0  0  0  0  0  0  0  0  0  0
   18.7807   -8.0396  -18.4564 N   0  0  0  0  0  0  0  0  0  0  0  0
   20.0306   -7.9944  -19.1151 C   0  0  0  0  0  0  0  0  0  0  0  0
   20.4645   -6.8616  -19.4424 O   0  0  0  0  0  0  0  0  0  0  0  0
   20.8556   -9.1814  -19.4392 C   0  0  0  0  0  0  0  0  0  0  0  0
   20.1558  -10.4560  -19.0365 C   0  0  0  0  0  0  0  0  0  0  0  0
   20.6387  -11.0279  -17.7266 C   0  0  2  0  0  0  0  0  0  0  0  0
   19.8830  -12.2447  -17.4941 N   0  0  0  0  0  0  0  0  0  0  0  0
   20.5256  -10.1150  -16.5949 C   0  0  0  0  0  0  0  0  0  0  0  0
   19.4353   -9.8351  -16.0137 O   0  0  0  0  0  0  0  0  0  0  0  0
   21.6668   -9.4664  -16.0589 N   0  0  0  0  0  0  0  0  0  0  0  0
   21.5701   -8.5283  -14.9128 C   0  0  1  0  0  0  0  0  0  0  0  0
   22.6419   -8.9269  -13.8979 C   0  0  0  0  0  0  0  0  0  0  0  0
   23.8534   -9.3571  -14.6324 C   0  0  0  0  0  0  0  0  0  0  0  0
   24.6008   -8.5370  -15.4429 C   0  0  0  0  0  0  0  0  0  0  0  0
   25.7148   -9.0159  -16.0778 C   0  0  0  0  0  0  0  0  0  0  0  0
   26.1740  -10.3275  -15.9646 C   0  0  0  0  0  0  0  0  0  0  0  0
   25.3998  -11.1387  -15.1389 C   0  0  0  0  0  0  0  0  0  0  0  0
   24.2831  -10.6852  -14.4928 C   0  0  0  0  0  0  0  0  0  0  0  0
   21.8846   -7.1952  -15.4305 C   0  0  0  0  0  0  0  0  0  0  0  0
   21.8023   -6.1937  -14.6885 O   0  0  0  0  0  0  0  0  0  0  0  0
   22.2756   -7.0280  -16.7406 O   0  0  0  0  0  0  0  0  0  0  0  0
  2  1  1  6
  3  2  1  0
  4  2  1  0
  4  5  1  6
  6  4  1  0
  6 14  1  0
  7  6  2  0
  9 10  2  0
  9  8  1  0
 11  9  1  0
 13 12  1  6
 12 11  1  0
 14 13  1  0
 15 16  2  0
 15 13  1  0
 17 15  1  0
 18 17  1  0
 18 26  1  0
 18 19  1  1
 20 25  2  0
 20 19  1  0
 21 20  1  0
 22 23  1  0
 22 21  2  0
 23 24  2  0
 24 25  1  0
 26 28  1  0
 27 26  2  0
M  END
$$$$
