TQF.pdb
     RDKit          3D

 28 28  0  0  1  0  0  0  0  0999 V2000
   18.5744  -12.5017  -15.0201 C   0  0  0  0  0  0  0  0  0  0  0  0
   18.5753  -13.8550  -15.6889 C   0  0  1  0  0  0  0  0  0  0  0  0
   17.5585  -14.6856  -15.2919 O   0  0  0  0  0  0  0  0  0  0  0  0
   18.6145  -13.6445  -17.1917 C   0  0  2  0  0  0  0  0  0  0  0  0
   18.6125  -14.9721  -17.8169 N   0  0  0  0  0  0  0  0  0  0  0  0
   19.8250  -12.8832  -17.5946 C   0  0  0  0  0  0  0  0  0  0  0  0
   20.9599  -13.4075  -17.5160 O   0  0  0  0  0  0  0  0  0  0  0  0
   23.1818  -10.6168  -21.2504 N   0  0  0  0  0  0  0  0  0  0  0  0
   22.0137  -11.3531  -21.5531 C   0  0  0  0  0  0  0  0  0  0  0  0
   22.0696  -12.1382  -22.5324 O   0  0  0  0  0  0  0  0  0  0  0  0
   20.7420  -11.2634  -20.7983 C   0  0  0  0  0  0  0  0  0  0  0  0
   20.8148  -10.1947  -19.7358 C   0  0  0  0  0  0  0  0  0  0  0  0
   20.9308  -10.7377  -18.3331 C   0  0  2  0  0  0  0  0  0  0  0  0
   19.7399  -11.5297  -18.0880 N   0  0  0  0  0  0  0  0  0  0  0  0
   21.1029   -9.7164  -17.3063 C   0  0  0  0  0  0  0  0  0  0  0  0
   21.7190   -9.9022  -16.2152 O   0  0  0  0  0  0  0  0  0  0  0  0
   20.5751   -8.4112  -17.4743 N   0  0  0  0  0  0  0  0  0  0  0  0
   20.7298   -7.3625  -16.4355 C   0  0  1  0  0  0  0  0  0  0  0  0
   22.2226   -7.0593  -16.3039 C   0  0  0  0  0  0  0  0  0  0  0  0
   22.3914   -5.8852  -15.4175 C   0  0  0  0  0  0  0  0  0  0  0  0
   22.6404   -4.6086  -15.8608 C   0  0  0  0  0  0  0  0  0  0  0  0
   22.7730   -3.5776  -14.9703 C   0  0  0  0  0  0  0  0  0  0  0  0
   22.6719   -3.7234  -13.5874 C   0  0  0  0  0  0  0  0  0  0  0  0
   22.4201   -5.0256  -13.1631 C   0  0  0  0  0  0  0  0  0  0  0  0
   22.2829   -6.0731  -14.0316 C   0  0  0  0  0  0  0  0  0  0  0  0
   20.0492   -6.1672  -16.9374 C   0  0  0  0  0  0  0  0  0  0  0  0
   20.0497   -5.9060  -18.1590 O   0  0  0  0  0  0  0  0  0  0  0  0
   19.3996   -5.3162  -16.0708 O   0  0  0  0  0  0  0  0  0  0  0  0
  2  1  1  1
  3  2  1  0
  4  2  1  0
  4  5  1  6
  6  4  1  0
  6 14  1  0
  7  6  2  0
  9 10  2  0
  9  8  1  0
 11  9  1  0
 13 12  1  6
 12 11  1  0
 14 13  1  0
 15 16  2  0
 15 13  1  0
 17 15  1  0
 18 17  1  0
 18 26  1  0
 18 19  1  6
 20 25  2  0
 20 19  1  0
 21 20  1  0
 22 23  1  0
 22 21  2  0
 23 24  2  0
 24 25  1  0
 26 28  1  0
 27 26  2  0
M  END
$$$$
