TQF.pdb
     RDKit          3D

 28 28  0  0  1  0  0  0  0  0999 V2000
   20.8672  -11.7555  -15.8442 C   0  0  0  0  0  0  0  0  0  0  0  0
   20.1505  -12.5165  -16.9333 C   0  0  1  0  0  0  0  0  0  0  0  0
   19.9060  -13.8338  -16.6394 O   0  0  0  0  0  0  0  0  0  0  0  0
   18.8936  -11.7499  -17.3031 C   0  0  2  0  0  0  0  0  0  0  0  0
   18.2784  -12.4456  -18.4392 N   0  0  0  0  0  0  0  0  0  0  0  0
   19.2104  -10.3444  -17.6654 C   0  0  0  0  0  0  0  0  0  0  0  0
   19.3894  -10.0224  -18.8626 O   0  0  0  0  0  0  0  0  0  0  0  0
   16.8296   -5.5417  -19.1435 N   0  0  0  0  0  0  0  0  0  0  0  0
   16.3691   -6.3195  -18.0567 C   0  0  0  0  0  0  0  0  0  0  0  0
   15.1922   -6.1172  -17.6660 O   0  0  0  0  0  0  0  0  0  0  0  0
   17.1728   -7.3486  -17.3568 C   0  0  0  0  0  0  0  0  0  0  0  0
   18.5334   -7.4998  -17.9911 C   0  0  0  0  0  0  0  0  0  0  0  0
   19.6095   -7.9350  -17.0274 C   0  0  2  0  0  0  0  0  0  0  0  0
   19.3196   -9.3099  -16.6651 N   0  0  0  0  0  0  0  0  0  0  0  0
   19.7300   -7.0936  -15.8423 C   0  0  0  0  0  0  0  0  0  0  0  0
   18.9678   -7.1732  -14.8336 O   0  0  0  0  0  0  0  0  0  0  0  0
   20.7418   -6.1052  -15.7443 N   0  0  0  0  0  0  0  0  0  0  0  0
   20.9348   -5.2993  -14.5130 C   0  0  1  0  0  0  0  0  0  0  0  0
   22.3553   -5.5573  -14.0098 C   0  0  0  0  0  0  0  0  0  0  0  0
   22.4691   -6.9816  -13.6213 C   0  0  0  0  0  0  0  0  0  0  0  0
   21.9285   -7.5188  -12.4780 C   0  0  0  0  0  0  0  0  0  0  0  0
   22.0734   -8.8513  -12.2007 C   0  0  0  0  0  0  0  0  0  0  0  0
   22.7562   -9.7489  -13.0207 C   0  0  0  0  0  0  0  0  0  0  0  0
   23.2952   -9.1807  -14.1720 C   0  0  0  0  0  0  0  0  0  0  0  0
   23.1645   -7.8530  -14.4727 C   0  0  0  0  0  0  0  0  0  0  0  0
   20.8230   -3.8934  -14.9067 C   0  0  0  0  0  0  0  0  0  0  0  0
   20.6769   -3.5834  -16.1080 O   0  0  0  0  0  0  0  0  0  0  0  0
   20.8766   -2.8952  -13.9592 O   0  0  0  0  0  0  0  0  0  0  0  0
  2  1  1  1
  3  2  1  0
  4  2  1  0
  4  5  1  6
  6  4  1  0
  6 14  1  0
  7  6  2  0
  9 10  2  0
  9  8  1  0
 11  9  1  0
 13 12  1  6
 12 11  1  0
 14 13  1  0
 15 16  2  0
 15 13  1  0
 17 15  1  0
 18 17  1  0
 18 26  1  0
 18 19  1  6
 20 25  2  0
 20 19  1  0
 21 20  1  0
 22 23  1  0
 22 21  2  0
 23 24  2  0
 24 25  1  0
 26 28  1  0
 27 26  2  0
M  END
$$$$
