KAW.pdb
     RDKit          3D

 29 30  0  0  1  0  0  0  0  0999 V2000
    5.8784  -16.2073   21.0576 N   0  0  0  0  0  0  0  0  0  0  0  0
    7.3048  -16.0350   21.0553 C   0  0  1  0  0  0  0  0  0  0  0  0
    7.7015  -14.5907   20.9766 C   0  0  0  0  0  0  0  0  0  0  0  0
    7.4106  -13.9798   19.6285 C   0  0  0  0  0  0  0  0  0  0  0  0
    8.5183  -13.1093   19.1270 C   0  0  0  0  0  0  0  0  0  0  0  0
    8.0563  -12.5407   17.7816 C   0  0  0  0  0  0  0  0  0  0  0  0
    9.0822  -11.7012   17.2069 N   0  0  0  0  0  0  0  0  0  0  0  0
    7.9359  -16.6061   22.2834 C   0  0  0  0  0  0  0  0  0  0  0  0
    7.3399  -16.5523   23.3881 O   0  0  0  0  0  0  0  0  0  0  0  0
   10.9800  -18.7403   23.0761 C   0  0  0  0  0  0  0  0  0  0  0  0
    9.7994  -17.8879   23.3935 C   0  0  2  0  0  0  0  0  0  0  0  0
    9.2110  -17.2249   22.2702 N   0  0  0  0  0  0  0  0  0  0  0  0
   10.0921  -16.9356   24.5149 C   0  0  0  0  0  0  0  0  0  0  0  0
   10.4821  -15.7867   24.2330 O   0  0  0  0  0  0  0  0  0  0  0  0
    9.9446  -17.2860   25.8682 N   0  0  0  0  0  0  0  0  0  0  0  0
   10.2763  -16.4152   26.9744 C   0  0  1  0  0  0  0  0  0  0  0  0
    9.0779  -16.2781   27.8906 C   0  0  0  0  0  0  0  0  0  0  0  0
    7.9435  -15.6084   27.2515 C   0  0  0  0  0  0  0  0  0  0  0  0
    6.8105  -16.1674   26.6967 C   0  0  0  0  0  0  0  0  0  0  0  0
    6.0409  -15.1549   26.2238 N   0  0  0  0  0  0  0  0  0  0  0  0
    6.6194  -13.9753   26.4454 C   0  0  0  0  0  0  0  0  0  0  0  0
    6.2333  -12.6974   26.1554 C   0  0  0  0  0  0  0  0  0  0  0  0
    7.0395  -11.6339   26.5046 C   0  0  0  0  0  0  0  0  0  0  0  0
    8.2282  -11.9146   27.1465 C   0  0  0  0  0  0  0  0  0  0  0  0
    8.6392  -13.1938   27.4497 C   0  0  0  0  0  0  0  0  0  0  0  0
    7.8070  -14.2438   27.0860 C   0  0  0  0  0  0  0  0  0  0  0  0
   11.4854  -16.8374   27.6897 C   0  0  0  0  0  0  0  0  0  0  0  0
   11.9905  -16.2107   28.6529 O   0  0  0  0  0  0  0  0  0  0  0  0
   12.1264  -18.0050   27.2876 O   0  0  0  0  0  0  0  0  0  0  0  0
  2  1  1  1
  2  8  1  0
  3  2  1  0
  4  3  1  0
  4  5  1  0
  6  5  1  0
  7  6  1  0
  8  9  2  0
 11 10  1  6
 11 13  1  0
 12  8  1  0
 12 11  1  0
 13 15  1  0
 13 14  2  0
 15 16  1  0
 16 27  1  0
 16 17  1  1
 18 19  2  0
 18 17  1  0
 20 19  1  0
 21 26  2  0
 21 20  1  0
 22 21  1  0
 23 22  2  0
 23 24  1  0
 24 25  2  0
 25 26  1  0
 26 18  1  0
 27 28  2  0
 27 29  1  0
M  END
$$$$
