KAW.pdb
     RDKit          3D

 29 30  0  0  1  0  0  0  0  0999 V2000
    8.7845  -17.2631   19.0970 N   0  0  0  0  0  0  0  0  0  0  0  0
    9.1199  -16.4205   20.2114 C   0  0  1  0  0  0  0  0  0  0  0  0
    8.2396  -15.2088   20.2914 C   0  0  0  0  0  0  0  0  0  0  0  0
    8.5193  -14.2126   19.1939 C   0  0  0  0  0  0  0  0  0  0  0  0
    7.6277  -13.0133   19.2484 C   0  0  0  0  0  0  0  0  0  0  0  0
    8.0733  -12.0821   18.1163 C   0  0  0  0  0  0  0  0  0  0  0  0
    7.8995  -12.7242   16.8338 N   0  0  0  0  0  0  0  0  0  0  0  0
    9.0020  -17.1459   21.5124 C   0  0  0  0  0  0  0  0  0  0  0  0
    8.3700  -18.2296   21.5808 O   0  0  0  0  0  0  0  0  0  0  0  0
   11.2456  -18.4196   23.1845 C   0  0  0  0  0  0  0  0  0  0  0  0
   10.2005  -17.4915   23.7015 C   0  0  2  0  0  0  0  0  0  0  0  0
    9.5822  -16.6631   22.7120 N   0  0  0  0  0  0  0  0  0  0  0  0
   10.7012  -16.6914   24.8674 C   0  0  0  0  0  0  0  0  0  0  0  0
   11.9028  -16.3643   24.8920 O   0  0  0  0  0  0  0  0  0  0  0  0
    9.8715  -16.2966   25.9312 N   0  0  0  0  0  0  0  0  0  0  0  0
   10.3504  -15.9566   27.2529 C   0  0  1  0  0  0  0  0  0  0  0  0
    9.1865  -15.5210   28.1189 C   0  0  0  0  0  0  0  0  0  0  0  0
    8.0196  -15.1026   27.3398 C   0  0  0  0  0  0  0  0  0  0  0  0
    6.9351  -15.8544   26.9361 C   0  0  0  0  0  0  0  0  0  0  0  0
    6.1066  -15.0391   26.2360 N   0  0  0  0  0  0  0  0  0  0  0  0
    6.6013  -13.8039   26.1685 C   0  0  0  0  0  0  0  0  0  0  0  0
    6.1348  -12.6616   25.5820 C   0  0  0  0  0  0  0  0  0  0  0  0
    6.8625  -11.4927   25.6660 C   0  0  0  0  0  0  0  0  0  0  0  0
    8.0574  -11.5299   26.3548 C   0  0  0  0  0  0  0  0  0  0  0  0
    8.5486  -12.6685   26.9544 C   0  0  0  0  0  0  0  0  0  0  0  0
    7.7943  -13.8296   26.8531 C   0  0  0  0  0  0  0  0  0  0  0  0
   11.1375  -17.0307   27.8680 C   0  0  0  0  0  0  0  0  0  0  0  0
   11.1915  -18.2057   27.4298 O   0  0  0  0  0  0  0  0  0  0  0  0
   11.8777  -16.7463   29.0114 O   0  0  0  0  0  0  0  0  0  0  0  0
  2  1  1  6
  2  8  1  0
  3  2  1  0
  4  3  1  0
  4  5  1  0
  6  5  1  0
  7  6  1  0
  8  9  2  0
 11 10  1  6
 11 13  1  0
 12  8  1  0
 12 11  1  0
 13 15  1  0
 13 14  2  0
 15 16  1  0
 16 27  1  0
 16 17  1  1
 18 19  2  0
 18 17  1  0
 20 19  1  0
 21 26  2  0
 21 20  1  0
 22 21  1  0
 23 22  2  0
 23 24  1  0
 24 25  2  0
 25 26  1  0
 26 18  1  0
 27 28  2  0
 27 29  1  0
M  END
$$$$
