KAW.pdb
     RDKit          3D

 29 30  0  0  1  0  0  0  0  0999 V2000
    8.3822  -13.2992   21.3002 N   0  0  0  0  0  0  0  0  0  0  0  0
    7.5130  -14.4166   21.5453 C   0  0  1  0  0  0  0  0  0  0  0  0
    6.7873  -14.8529   20.3074 C   0  0  0  0  0  0  0  0  0  0  0  0
    7.1761  -14.0498   19.0912 C   0  0  0  0  0  0  0  0  0  0  0  0
    8.2036  -14.7289   18.2431 C   0  0  0  0  0  0  0  0  0  0  0  0
    8.3702  -13.8728   16.9836 C   0  0  0  0  0  0  0  0  0  0  0  0
    9.3756  -14.4397   16.1146 N   0  0  0  0  0  0  0  0  0  0  0  0
    8.2621  -15.6003   22.0653 C   0  0  0  0  0  0  0  0  0  0  0  0
    7.6763  -16.6986   22.2359 O   0  0  0  0  0  0  0  0  0  0  0  0
   11.6162  -16.9966   22.0966 C   0  0  0  0  0  0  0  0  0  0  0  0
   10.3963  -16.6603   22.8838 C   0  0  2  0  0  0  0  0  0  0  0  0
    9.6415  -15.5505   22.3875 N   0  0  0  0  0  0  0  0  0  0  0  0
   10.7044  -16.5185   24.3450 C   0  0  0  0  0  0  0  0  0  0  0  0
   11.8868  -16.3281   24.6877 O   0  0  0  0  0  0  0  0  0  0  0  0
    9.7156  -16.5916   25.3413 N   0  0  0  0  0  0  0  0  0  0  0  0
    9.9842  -16.5174   26.7605 C   0  0  1  0  0  0  0  0  0  0  0  0
    8.6975  -16.2322   27.5072 C   0  0  0  0  0  0  0  0  0  0  0  0
    7.7505  -15.4315   26.7290 C   0  0  0  0  0  0  0  0  0  0  0  0
    6.7220  -15.8590   25.9144 C   0  0  0  0  0  0  0  0  0  0  0  0
    6.1174  -14.7576   25.4021 N   0  0  0  0  0  0  0  0  0  0  0  0
    6.7028  -13.6455   25.8443 C   0  0  0  0  0  0  0  0  0  0  0  0
    6.4513  -12.3233   25.6103 C   0  0  0  0  0  0  0  0  0  0  0  0
    7.2279  -11.3536   26.2098 C   0  0  0  0  0  0  0  0  0  0  0  0
    8.2484  -11.7719   27.0389 C   0  0  0  0  0  0  0  0  0  0  0  0
    8.5215  -13.0983   27.2906 C   0  0  0  0  0  0  0  0  0  0  0  0
    7.7231  -14.0515   26.6731 C   0  0  0  0  0  0  0  0  0  0  0  0
   10.6800  -17.7032   27.2720 C   0  0  0  0  0  0  0  0  0  0  0  0
   10.9134  -18.7323   26.5923 O   0  0  0  0  0  0  0  0  0  0  0  0
   11.1159  -17.7042   28.5933 O   0  0  0  0  0  0  0  0  0  0  0  0
  2  1  1  6
  2  8  1  0
  3  2  1  0
  4  3  1  0
  4  5  1  0
  6  5  1  0
  7  6  1  0
  8  9  2  0
 11 10  1  6
 11 13  1  0
 12  8  1  0
 12 11  1  0
 13 15  1  0
 13 14  2  0
 15 16  1  0
 16 27  1  0
 16 17  1  1
 18 19  2  0
 18 17  1  0
 20 19  1  0
 21 26  2  0
 21 20  1  0
 22 21  1  0
 23 22  2  0
 23 24  1  0
 24 25  2  0
 25 26  1  0
 26 18  1  0
 27 28  2  0
 27 29  1  0
M  END
$$$$
