KAW.pdb
     RDKit          3D

 29 30  0  0  1  0  0  0  0  0999 V2000
   10.1332  -15.0488   18.4775 N   0  0  0  0  0  0  0  0  0  0  0  0
    9.2179  -14.4806   19.4283 C   0  0  1  0  0  0  0  0  0  0  0  0
    7.8753  -14.1968   18.8232 C   0  0  0  0  0  0  0  0  0  0  0  0
    7.7811  -14.6363   17.3833 C   0  0  0  0  0  0  0  0  0  0  0  0
    7.8011  -13.4941   16.4183 C   0  0  0  0  0  0  0  0  0  0  0  0
    7.5401  -14.0866   15.0298 C   0  0  0  0  0  0  0  0  0  0  0  0
    7.5160  -13.0439   14.0301 N   0  0  0  0  0  0  0  0  0  0  0  0
    8.9995  -15.3839   20.5983 C   0  0  0  0  0  0  0  0  0  0  0  0
    8.2597  -15.0257   21.5485 O   0  0  0  0  0  0  0  0  0  0  0  0
   10.1871  -18.8305   21.7164 C   0  0  0  0  0  0  0  0  0  0  0  0
    9.5506  -17.4911   21.8649 C   0  0  2  0  0  0  0  0  0  0  0  0
    9.6005  -16.6636   20.6985 N   0  0  0  0  0  0  0  0  0  0  0  0
   10.0538  -16.7732   23.0820 C   0  0  0  0  0  0  0  0  0  0  0  0
   10.8488  -15.8267   22.9280 O   0  0  0  0  0  0  0  0  0  0  0  0
    9.6656  -17.1241   24.3867 N   0  0  0  0  0  0  0  0  0  0  0  0
   10.1225  -16.4475   25.5806 C   0  0  1  0  0  0  0  0  0  0  0  0
    9.8229  -14.9667   25.4719 C   0  0  0  0  0  0  0  0  0  0  0  0
    8.3928  -14.6649   25.5592 C   0  0  0  0  0  0  0  0  0  0  0  0
    7.3180  -15.5068   25.3589 C   0  0  0  0  0  0  0  0  0  0  0  0
    6.1865  -14.7821   25.5477 N   0  0  0  0  0  0  0  0  0  0  0  0
    6.4774  -13.5196   25.8586 C   0  0  0  0  0  0  0  0  0  0  0  0
    5.6879  -12.4392   26.1333 C   0  0  0  0  0  0  0  0  0  0  0  0
    6.2608  -11.2203   26.4315 C   0  0  0  0  0  0  0  0  0  0  0  0
    7.6385  -11.1446   26.4393 C   0  0  0  0  0  0  0  0  0  0  0  0
    8.4557  -12.2192   26.1660 C   0  0  0  0  0  0  0  0  0  0  0  0
    7.8504  -13.4329   25.8693 C   0  0  0  0  0  0  0  0  0  0  0  0
    9.5885  -17.0402   26.8116 C   0  0  0  0  0  0  0  0  0  0  0  0
    9.9207  -16.6836   27.9683 O   0  0  0  0  0  0  0  0  0  0  0  0
    8.6527  -18.0648   26.7087 O   0  0  0  0  0  0  0  0  0  0  0  0
  2  1  1  6
  2  8  1  0
  3  2  1  0
  4  3  1  0
  4  5  1  0
  6  5  1  0
  7  6  1  0
  8  9  2  0
 11 10  1  6
 11 13  1  0
 12  8  1  0
 12 11  1  0
 13 15  1  0
 13 14  2  0
 15 16  1  0
 16 27  1  0
 16 17  1  6
 18 19  2  0
 18 17  1  0
 20 19  1  0
 21 26  2  0
 21 20  1  0
 22 21  1  0
 23 22  2  0
 23 24  1  0
 24 25  2  0
 25 26  1  0
 26 18  1  0
 27 28  2  0
 27 29  1  0
M  END
$$$$
