KAW.pdb
     RDKit          3D

 29 30  0  0  1  0  0  0  0  0999 V2000
    8.2494  -19.1216   19.3841 N   0  0  0  0  0  0  0  0  0  0  0  0
    8.0333  -18.2463   20.5029 C   0  0  1  0  0  0  0  0  0  0  0  0
    7.4291  -18.9618   21.6744 C   0  0  0  0  0  0  0  0  0  0  0  0
    6.3932  -19.9787   21.2642 C   0  0  0  0  0  0  0  0  0  0  0  0
    5.6307  -20.5397   22.4218 C   0  0  0  0  0  0  0  0  0  0  0  0
    4.7327  -21.6474   21.8617 C   0  0  0  0  0  0  0  0  0  0  0  0
    3.9897  -22.2837   22.9250 N   0  0  0  0  0  0  0  0  0  0  0  0
    9.3054  -17.6170   20.9704 C   0  0  0  0  0  0  0  0  0  0  0  0
   10.3858  -18.2564   20.9227 O   0  0  0  0  0  0  0  0  0  0  0  0
   10.7814  -14.2814   21.5022 C   0  0  0  0  0  0  0  0  0  0  0  0
   10.5488  -15.6731   21.9819 C   0  0  2  0  0  0  0  0  0  0  0  0
    9.3618  -16.2962   21.4815 N   0  0  0  0  0  0  0  0  0  0  0  0
   10.6411  -15.7642   23.4763 C   0  0  0  0  0  0  0  0  0  0  0  0
   11.2323  -14.8570   24.0920 O   0  0  0  0  0  0  0  0  0  0  0  0
   10.0888  -16.8292   24.2088 N   0  0  0  0  0  0  0  0  0  0  0  0
   10.2101  -16.9793   25.6422 C   0  0  1  0  0  0  0  0  0  0  0  0
    9.6683  -15.7435   26.3305 C   0  0  0  0  0  0  0  0  0  0  0  0
    8.2421  -15.5281   26.0787 C   0  0  0  0  0  0  0  0  0  0  0  0
    7.2765  -16.4509   25.7321 C   0  0  0  0  0  0  0  0  0  0  0  0
    6.1000  -15.7873   25.6033 N   0  0  0  0  0  0  0  0  0  0  0  0
    6.2586  -14.4874   25.8488 C   0  0  0  0  0  0  0  0  0  0  0  0
    5.3805  -13.4409   25.8436 C   0  0  0  0  0  0  0  0  0  0  0  0
    5.8187  -12.1672   26.1416 C   0  0  0  0  0  0  0  0  0  0  0  0
    7.1561  -12.0029   26.4389 C   0  0  0  0  0  0  0  0  0  0  0  0
    8.0605  -13.0417   26.4508 C   0  0  0  0  0  0  0  0  0  0  0  0
    7.5902  -14.3121   26.1468 C   0  0  0  0  0  0  0  0  0  0  0  0
    9.5960  -18.2149   26.1401 C   0  0  0  0  0  0  0  0  0  0  0  0
    8.9214  -19.0024   25.4328 O   0  0  0  0  0  0  0  0  0  0  0  0
    9.7620  -18.5507   27.4801 O   0  0  0  0  0  0  0  0  0  0  0  0
  2  1  1  6
  2  8  1  0
  3  2  1  0
  4  3  1  0
  4  5  1  0
  6  5  1  0
  7  6  1  0
  8  9  2  0
 11 10  1  1
 11 13  1  0
 12  8  1  0
 12 11  1  0
 13 15  1  0
 13 14  2  0
 15 16  1  0
 16 27  1  0
 16 17  1  1
 18 19  2  0
 18 17  1  0
 20 19  1  0
 21 26  2  0
 21 20  1  0
 22 21  1  0
 23 22  2  0
 23 24  1  0
 24 25  2  0
 25 26  1  0
 26 18  1  0
 27 28  2  0
 27 29  1  0
M  END
$$$$
