KAW.pdb
     RDKit          3D

 29 30  0  0  1  0  0  0  0  0999 V2000
    8.4734  -20.9284   20.8330 N   0  0  0  0  0  0  0  0  0  0  0  0
    8.0344  -19.7275   21.4885 C   0  0  1  0  0  0  0  0  0  0  0  0
    7.2942  -20.0142   22.7610 C   0  0  0  0  0  0  0  0  0  0  0  0
    6.0091  -20.7694   22.5294 C   0  0  0  0  0  0  0  0  0  0  0  0
    5.1878  -20.9248   23.7694 C   0  0  0  0  0  0  0  0  0  0  0  0
    3.8900  -21.6241   23.3527 C   0  0  0  0  0  0  0  0  0  0  0  0
    3.0073  -21.7723   24.4869 N   0  0  0  0  0  0  0  0  0  0  0  0
    9.1791  -18.8297   21.8293 C   0  0  0  0  0  0  0  0  0  0  0  0
   10.2534  -19.3090   22.2706 O   0  0  0  0  0  0  0  0  0  0  0  0
   10.2007  -15.2446   21.2749 C   0  0  0  0  0  0  0  0  0  0  0  0
   10.1703  -16.5229   22.0403 C   0  0  2  0  0  0  0  0  0  0  0  0
    9.1177  -17.4219   21.6774 N   0  0  0  0  0  0  0  0  0  0  0  0
   10.2141  -16.2810   23.5201 C   0  0  0  0  0  0  0  0  0  0  0  0
   11.1389  -15.5860   23.9820 O   0  0  0  0  0  0  0  0  0  0  0  0
    9.2562  -16.8055   24.4051 N   0  0  0  0  0  0  0  0  0  0  0  0
    9.2680  -16.5924   25.8356 C   0  0  1  0  0  0  0  0  0  0  0  0
    7.9473  -15.9919   26.2711 C   0  0  0  0  0  0  0  0  0  0  0  0
    7.5050  -14.8960   25.4066 C   0  0  0  0  0  0  0  0  0  0  0  0
    7.5910  -14.7896   24.0335 C   0  0  0  0  0  0  0  0  0  0  0  0
    7.0519  -13.5962   23.6784 N   0  0  0  0  0  0  0  0  0  0  0  0
    6.6244  -12.9304   24.7503 C   0  0  0  0  0  0  0  0  0  0  0  0
    6.0233  -11.7117   24.8916 C   0  0  0  0  0  0  0  0  0  0  0  0
    5.6763  -11.2515   26.1448 C   0  0  0  0  0  0  0  0  0  0  0  0
    5.9582  -12.0615   27.2257 C   0  0  0  0  0  0  0  0  0  0  0  0
    6.5631  -13.2935   27.1090 C   0  0  0  0  0  0  0  0  0  0  0  0
    6.9008  -13.7300   25.8352 C   0  0  0  0  0  0  0  0  0  0  0  0
    9.6108  -17.8030   26.5896 C   0  0  0  0  0  0  0  0  0  0  0  0
    9.7344  -17.8455   27.8380 O   0  0  0  0  0  0  0  0  0  0  0  0
    9.8158  -18.9892   25.8920 O   0  0  0  0  0  0  0  0  0  0  0  0
  2  1  1  1
  2  8  1  0
  3  2  1  0
  4  3  1  0
  4  5  1  0
  6  5  1  0
  7  6  1  0
  8  9  2  0
 11 10  1  6
 11 13  1  0
 12  8  1  0
 12 11  1  0
 13 15  1  0
 13 14  2  0
 15 16  1  0
 16 27  1  0
 16 17  1  1
 18 19  2  0
 18 17  1  0
 20 19  1  0
 21 26  2  0
 21 20  1  0
 22 21  1  0
 23 22  2  0
 23 24  1  0
 24 25  2  0
 25 26  1  0
 26 18  1  0
 27 28  2  0
 27 29  1  0
M  END
$$$$
