KAW.pdb
     RDKit          3D

 29 30  0  0  1  0  0  0  0  0999 V2000
    9.9203  -14.1283   19.3689 N   0  0  0  0  0  0  0  0  0  0  0  0
    8.9255  -13.8006   20.3526 C   0  0  1  0  0  0  0  0  0  0  0  0
    7.5919  -13.5043   19.7336 C   0  0  0  0  0  0  0  0  0  0  0  0
    7.3668  -14.2588   18.4469 C   0  0  0  0  0  0  0  0  0  0  0  0
    8.0975  -13.6671   17.2840 C   0  0  0  0  0  0  0  0  0  0  0  0
    7.6650  -14.4571   16.0447 C   0  0  0  0  0  0  0  0  0  0  0  0
    8.4119  -14.0288   14.8845 N   0  0  0  0  0  0  0  0  0  0  0  0
    8.7269  -14.9101   21.3336 C   0  0  0  0  0  0  0  0  0  0  0  0
    7.7953  -14.8556   22.1748 O   0  0  0  0  0  0  0  0  0  0  0  0
   10.1223  -18.3790   21.9744 C   0  0  0  0  0  0  0  0  0  0  0  0
    9.4619  -17.0963   22.3477 C   0  0  2  0  0  0  0  0  0  0  0  0
    9.5586  -16.0573   21.3686 N   0  0  0  0  0  0  0  0  0  0  0  0
    9.8948  -16.6277   23.7053 C   0  0  0  0  0  0  0  0  0  0  0  0
   10.7662  -15.7405   23.7783 O   0  0  0  0  0  0  0  0  0  0  0  0
    9.3586  -17.1476   24.8961 N   0  0  0  0  0  0  0  0  0  0  0  0
    9.7421  -16.7093   26.2200 C   0  0  1  0  0  0  0  0  0  0  0  0
    8.5036  -16.5193   27.0713 C   0  0  0  0  0  0  0  0  0  0  0  0
    7.5126  -15.6387   26.4500 C   0  0  0  0  0  0  0  0  0  0  0  0
    6.3794  -15.9780   25.7393 C   0  0  0  0  0  0  0  0  0  0  0  0
    5.7724  -14.8262   25.3575 N   0  0  0  0  0  0  0  0  0  0  0  0
    6.4553  -13.7651   25.7850 C   0  0  0  0  0  0  0  0  0  0  0  0
    6.2406  -12.4228   25.6495 C   0  0  0  0  0  0  0  0  0  0  0  0
    7.1245  -11.5203   26.2037 C   0  0  0  0  0  0  0  0  0  0  0  0
    8.2120  -12.0253   26.8864 C   0  0  0  0  0  0  0  0  0  0  0  0
    8.4501  -13.3736   27.0367 C   0  0  0  0  0  0  0  0  0  0  0  0
    7.5432  -14.2577   26.4681 C   0  0  0  0  0  0  0  0  0  0  0  0
   10.7273  -17.5943   26.8506 C   0  0  0  0  0  0  0  0  0  0  0  0
   11.0917  -18.6972   26.3748 O   0  0  0  0  0  0  0  0  0  0  0  0
   11.3048  -17.2016   28.0541 O   0  0  0  0  0  0  0  0  0  0  0  0
  2  1  1  6
  2  8  1  0
  3  2  1  0
  4  3  1  0
  4  5  1  0
  6  5  1  0
  7  6  1  0
  8  9  2  0
 11 10  1  6
 11 13  1  0
 12  8  1  0
 12 11  1  0
 13 15  1  0
 13 14  2  0
 15 16  1  0
 16 27  1  0
 16 17  1  1
 18 19  2  0
 18 17  1  0
 20 19  1  0
 21 26  2  0
 21 20  1  0
 22 21  1  0
 23 22  2  0
 23 24  1  0
 24 25  2  0
 25 26  1  0
 26 18  1  0
 27 28  2  0
 27 29  1  0
M  END
$$$$
