KAW.pdb
     RDKit          3D

 29 30  0  0  1  0  0  0  0  0999 V2000
    6.5972  -18.7987   20.1365 N   0  0  0  0  0  0  0  0  0  0  0  0
    8.0326  -18.8546   20.1078 C   0  0  1  0  0  0  0  0  0  0  0  0
    8.5526  -19.4187   18.8191 C   0  0  0  0  0  0  0  0  0  0  0  0
    7.5630  -20.3351   18.1435 C   0  0  0  0  0  0  0  0  0  0  0  0
    7.4629  -21.6759   18.7980 C   0  0  0  0  0  0  0  0  0  0  0  0
    8.0304  -22.6941   17.8039 C   0  0  0  0  0  0  0  0  0  0  0  0
    6.9651  -23.4618   17.2010 N   0  0  0  0  0  0  0  0  0  0  0  0
    8.6455  -17.5034   20.2843 C   0  0  0  0  0  0  0  0  0  0  0  0
    9.8781  -17.3364   20.1076 O   0  0  0  0  0  0  0  0  0  0  0  0
    7.4609  -13.9420   20.8294 C   0  0  0  0  0  0  0  0  0  0  0  0
    8.4423  -15.0626   20.8757 C   0  0  2  0  0  0  0  0  0  0  0  0
    7.8884  -16.3630   20.6522 N   0  0  0  0  0  0  0  0  0  0  0  0
    9.2746  -15.0159   22.1227 C   0  0  0  0  0  0  0  0  0  0  0  0
   10.0410  -14.0482   22.2902 O   0  0  0  0  0  0  0  0  0  0  0  0
    9.2253  -16.0172   23.1080 N   0  0  0  0  0  0  0  0  0  0  0  0
    9.9757  -15.9795   24.3439 C   0  0  1  0  0  0  0  0  0  0  0  0
    9.5699  -14.7617   25.1481 C   0  0  0  0  0  0  0  0  0  0  0  0
    8.1488  -14.7572   25.5006 C   0  0  0  0  0  0  0  0  0  0  0  0
    7.2390  -15.7927   25.4364 C   0  0  0  0  0  0  0  0  0  0  0  0
    6.0424  -15.3167   25.8638 N   0  0  0  0  0  0  0  0  0  0  0  0
    6.1353  -14.0305   26.1990 C   0  0  0  0  0  0  0  0  0  0  0  0
    5.2151  -13.1396   26.6741 C   0  0  0  0  0  0  0  0  0  0  0  0
    5.5860  -11.8388   26.9453 C   0  0  0  0  0  0  0  0  0  0  0  0
    6.9009  -11.4871   26.7193 C   0  0  0  0  0  0  0  0  0  0  0  0
    7.8468  -12.3668   26.2411 C   0  0  0  0  0  0  0  0  0  0  0  0
    7.4440  -13.6690   25.9774 C   0  0  0  0  0  0  0  0  0  0  0  0
    9.8686  -17.2232   25.1142 C   0  0  0  0  0  0  0  0  0  0  0  0
    9.0896  -18.1652   24.8287 O   0  0  0  0  0  0  0  0  0  0  0  0
   10.6748  -17.3857   26.2365 O   0  0  0  0  0  0  0  0  0  0  0  0
  2  1  1  6
  2  8  1  0
  3  2  1  0
  4  3  1  0
  4  5  1  0
  6  5  1  0
  7  6  1  0
  8  9  2  0
 11 10  1  1
 11 13  1  0
 12  8  1  0
 12 11  1  0
 13 15  1  0
 13 14  2  0
 15 16  1  0
 16 27  1  0
 16 17  1  1
 18 19  2  0
 18 17  1  0
 20 19  1  0
 21 26  2  0
 21 20  1  0
 22 21  1  0
 23 22  2  0
 23 24  1  0
 24 25  2  0
 25 26  1  0
 26 18  1  0
 27 28  2  0
 27 29  1  0
M  END
$$$$
