KAW.pdb
     RDKit          3D

 29 30  0  0  1  0  0  0  0  0999 V2000
    6.7516  -16.9002   19.3694 N   0  0  0  0  0  0  0  0  0  0  0  0
    8.0630  -16.3954   19.6692 C   0  0  1  0  0  0  0  0  0  0  0  0
    8.0905  -14.8978   19.7451 C   0  0  0  0  0  0  0  0  0  0  0  0
    7.6129  -14.2416   18.4736 C   0  0  0  0  0  0  0  0  0  0  0  0
    8.7191  -13.9573   17.5083 C   0  0  0  0  0  0  0  0  0  0  0  0
    8.0653  -13.3884   16.2450 C   0  0  0  0  0  0  0  0  0  0  0  0
    9.0146  -13.3494   15.1566 N   0  0  0  0  0  0  0  0  0  0  0  0
    8.5763  -16.9189   20.9711 C   0  0  0  0  0  0  0  0  0  0  0  0
    7.8626  -16.8650   22.0036 O   0  0  0  0  0  0  0  0  0  0  0  0
   11.5702  -18.9122   22.1823 C   0  0  0  0  0  0  0  0  0  0  0  0
   10.3902  -18.0146   22.3339 C   0  0  2  0  0  0  0  0  0  0  0  0
    9.8655  -17.4912   21.1098 N   0  0  0  0  0  0  0  0  0  0  0  0
   10.6461  -16.9326   23.3409 C   0  0  0  0  0  0  0  0  0  0  0  0
   11.1760  -15.8737   22.9543 O   0  0  0  0  0  0  0  0  0  0  0  0
   10.3129  -17.0645   24.7001 N   0  0  0  0  0  0  0  0  0  0  0  0
   10.4630  -16.0113   25.6799 C   0  0  1  0  0  0  0  0  0  0  0  0
    9.7881  -14.7510   25.1791 C   0  0  0  0  0  0  0  0  0  0  0  0
    8.3721  -14.6773   25.5442 C   0  0  0  0  0  0  0  0  0  0  0  0
    7.4305  -15.6859   25.5626 C   0  0  0  0  0  0  0  0  0  0  0  0
    6.2542  -15.1438   25.9667 N   0  0  0  0  0  0  0  0  0  0  0  0
    6.3901  -13.8407   26.2087 C   0  0  0  0  0  0  0  0  0  0  0  0
    5.5031  -12.8901   26.6283 C   0  0  0  0  0  0  0  0  0  0  0  0
    5.9166  -11.5856   26.8027 C   0  0  0  0  0  0  0  0  0  0  0  0
    7.2388  -11.2919   26.5396 C   0  0  0  0  0  0  0  0  0  0  0  0
    8.1517  -12.2323   26.1159 C   0  0  0  0  0  0  0  0  0  0  0  0
    7.7065  -13.5366   25.9493 C   0  0  0  0  0  0  0  0  0  0  0  0
    9.9999  -16.4043   27.0151 C   0  0  0  0  0  0  0  0  0  0  0  0
    9.3110  -17.4269   27.2504 O   0  0  0  0  0  0  0  0  0  0  0  0
   10.3366  -15.6035   28.1019 O   0  0  0  0  0  0  0  0  0  0  0  0
  2  1  1  1
  2  8  1  0
  3  2  1  0
  4  3  1  0
  4  5  1  0
  6  5  1  0
  7  6  1  0
  8  9  2  0
 11 10  1  6
 11 13  1  0
 12  8  1  0
 12 11  1  0
 13 15  1  0
 13 14  2  0
 15 16  1  0
 16 27  1  0
 16 17  1  6
 18 19  2  0
 18 17  1  0
 20 19  1  0
 21 26  2  0
 21 20  1  0
 22 21  1  0
 23 22  2  0
 23 24  1  0
 24 25  2  0
 25 26  1  0
 26 18  1  0
 27 28  2  0
 27 29  1  0
M  END
$$$$
