KAW.pdb
     RDKit          3D

 29 30  0  0  1  0  0  0  0  0999 V2000
   10.4104  -13.8810   18.8261 N   0  0  0  0  0  0  0  0  0  0  0  0
    9.2405  -13.6353   19.6233 C   0  0  1  0  0  0  0  0  0  0  0  0
    8.0103  -13.4552   18.7846 C   0  0  0  0  0  0  0  0  0  0  0  0
    8.2773  -13.6423   17.3118 C   0  0  0  0  0  0  0  0  0  0  0  0
    7.2679  -14.5165   16.6385 C   0  0  0  0  0  0  0  0  0  0  0  0
    7.5825  -14.4778   15.1397 C   0  0  0  0  0  0  0  0  0  0  0  0
    6.6208  -15.2621   14.3996 N   0  0  0  0  0  0  0  0  0  0  0  0
    8.9722  -14.7541   20.5767 C   0  0  0  0  0  0  0  0  0  0  0  0
    7.9831  -14.7069   21.3499 O   0  0  0  0  0  0  0  0  0  0  0  0
   10.2537  -18.2498   21.2579 C   0  0  0  0  0  0  0  0  0  0  0  0
    9.6431  -16.9423   21.6301 C   0  0  2  0  0  0  0  0  0  0  0  0
    9.7989  -15.9024   20.6596 N   0  0  0  0  0  0  0  0  0  0  0  0
   10.0752  -16.5010   22.9971 C   0  0  0  0  0  0  0  0  0  0  0  0
   10.8961  -15.5687   23.0893 O   0  0  0  0  0  0  0  0  0  0  0  0
    9.5926  -17.0953   24.1760 N   0  0  0  0  0  0  0  0  0  0  0  0
   10.0298  -16.7342   25.5066 C   0  0  1  0  0  0  0  0  0  0  0  0
    9.7520  -15.2654   25.7518 C   0  0  0  0  0  0  0  0  0  0  0  0
    8.3221  -14.9565   25.8121 C   0  0  0  0  0  0  0  0  0  0  0  0
    7.2471  -15.7900   25.5803 C   0  0  0  0  0  0  0  0  0  0  0  0
    6.1159  -15.0609   25.7529 N   0  0  0  0  0  0  0  0  0  0  0  0
    6.4071  -13.8034   26.0832 C   0  0  0  0  0  0  0  0  0  0  0  0
    5.6179  -12.7214   26.3526 C   0  0  0  0  0  0  0  0  0  0  0  0
    6.1911  -11.5090   26.6756 C   0  0  0  0  0  0  0  0  0  0  0  0
    7.5687  -11.4413   26.7133 C   0  0  0  0  0  0  0  0  0  0  0  0
    8.3855  -12.5176   26.4459 C   0  0  0  0  0  0  0  0  0  0  0  0
    7.7800  -13.7247   26.1237 C   0  0  0  0  0  0  0  0  0  0  0  0
    9.4592  -17.5956   26.5477 C   0  0  0  0  0  0  0  0  0  0  0  0
    8.5526  -18.4401   26.3464 O   0  0  0  0  0  0  0  0  0  0  0  0
    9.9422  -17.4824   27.8477 O   0  0  0  0  0  0  0  0  0  0  0  0
  2  1  1  6
  2  8  1  0
  3  2  1  0
  4  3  1  0
  4  5  1  0
  6  5  1  0
  7  6  1  0
  8  9  2  0
 11 10  1  6
 11 13  1  0
 12  8  1  0
 12 11  1  0
 13 15  1  0
 13 14  2  0
 15 16  1  0
 16 27  1  0
 16 17  1  1
 18 19  2  0
 18 17  1  0
 20 19  1  0
 21 26  2  0
 21 20  1  0
 22 21  1  0
 23 22  2  0
 23 24  1  0
 24 25  2  0
 25 26  1  0
 26 18  1  0
 27 28  2  0
 27 29  1  0
M  END
$$$$
