KAW.pdb
     RDKit          3D

 29 30  0  0  1  0  0  0  0  0999 V2000
    8.6243  -17.2819   17.8083 N   0  0  0  0  0  0  0  0  0  0  0  0
    8.9405  -16.1425   18.6245 C   0  0  1  0  0  0  0  0  0  0  0  0
    8.0591  -14.9669   18.3233 C   0  0  0  0  0  0  0  0  0  0  0  0
    8.3234  -14.3753   16.9610 C   0  0  0  0  0  0  0  0  0  0  0  0
    7.4794  -13.1761   16.6681 C   0  0  0  0  0  0  0  0  0  0  0  0
    7.6981  -12.8345   15.1907 C   0  0  0  0  0  0  0  0  0  0  0  0
    6.8767  -11.7109   14.8032 N   0  0  0  0  0  0  0  0  0  0  0  0
    8.7998  -16.4455   20.0809 C   0  0  0  0  0  0  0  0  0  0  0  0
    7.8984  -15.8943   20.7607 O   0  0  0  0  0  0  0  0  0  0  0  0
    9.9568  -19.0722   22.4963 C   0  0  0  0  0  0  0  0  0  0  0  0
    9.5401  -17.6850   22.1458 C   0  0  2  0  0  0  0  0  0  0  0  0
    9.6550  -17.3494   20.7595 N   0  0  0  0  0  0  0  0  0  0  0  0
   10.2088  -16.6696   23.0244 C   0  0  0  0  0  0  0  0  0  0  0  0
   11.4047  -16.3939   22.8109 O   0  0  0  0  0  0  0  0  0  0  0  0
    9.5426  -16.0177   24.0766 N   0  0  0  0  0  0  0  0  0  0  0  0
    9.9971  -16.0163   25.4497 C   0  0  1  0  0  0  0  0  0  0  0  0
    8.8295  -16.3005   26.3719 C   0  0  0  0  0  0  0  0  0  0  0  0
    7.6578  -15.4715   26.0828 C   0  0  0  0  0  0  0  0  0  0  0  0
    6.3837  -15.8682   25.7315 C   0  0  0  0  0  0  0  0  0  0  0  0
    5.6357  -14.7487   25.5625 N   0  0  0  0  0  0  0  0  0  0  0  0
    6.3617  -13.6542   25.7865 C   0  0  0  0  0  0  0  0  0  0  0  0
    6.0514  -12.3246   25.7404 C   0  0  0  0  0  0  0  0  0  0  0  0
    7.0142  -11.3783   26.0239 C   0  0  0  0  0  0  0  0  0  0  0  0
    8.2778  -11.8272   26.3491 C   0  0  0  0  0  0  0  0  0  0  0  0
    8.6149  -13.1616   26.4023 C   0  0  0  0  0  0  0  0  0  0  0  0
    7.6251  -14.0908   26.1120 C   0  0  0  0  0  0  0  0  0  0  0  0
   11.1270  -16.9235   25.6774 C   0  0  0  0  0  0  0  0  0  0  0  0
   11.7574  -17.0078   26.7596 O   0  0  0  0  0  0  0  0  0  0  0  0
   11.5399  -17.7507   24.6376 O   0  0  0  0  0  0  0  0  0  0  0  0
  2  1  1  6
  2  8  1  0
  3  2  1  0
  4  3  1  0
  4  5  1  0
  6  5  1  0
  7  6  1  0
  8  9  2  0
 11 10  1  6
 11 13  1  0
 12  8  1  0
 12 11  1  0
 13 15  1  0
 13 14  2  0
 15 16  1  0
 16 27  1  0
 16 17  1  1
 18 19  2  0
 18 17  1  0
 20 19  1  0
 21 26  2  0
 21 20  1  0
 22 21  1  0
 23 22  2  0
 23 24  1  0
 24 25  2  0
 25 26  1  0
 26 18  1  0
 27 28  2  0
 27 29  1  0
M  END
$$$$
