VVH.pdb
     RDKit          3D

 25 25  0  0  1  0  0  0  0  0999 V2000
   17.3744   -2.9914  -17.9130 C   0  0  0  0  0  0  0  0  0  0  0  0
   18.1711   -2.1556  -16.9635 C   0  0  2  0  0  0  0  0  0  0  0  0
   17.9504   -0.6993  -17.2700 C   0  0  0  0  0  0  0  0  0  0  0  0
   19.6402   -2.4746  -16.9632 C   0  0  2  0  0  0  0  0  0  0  0  0
   20.1545   -2.1298  -18.2771 N   0  0  0  0  0  0  0  0  0  0  0  0
   19.9066   -3.9070  -16.6813 C   0  0  0  0  0  0  0  0  0  0  0  0
   20.0510   -4.7374  -17.6144 O   0  0  0  0  0  0  0  0  0  0  0  0
   22.6560   -5.6145  -15.5585 C   0  0  0  0  0  0  0  0  0  0  0  0
   21.6273   -5.9217  -14.4969 C   0  0  1  0  0  0  0  0  0  0  0  0
   21.8185   -5.0851  -13.2599 C   0  0  0  0  0  0  0  0  0  0  0  0
   20.2166   -5.8033  -15.0500 C   0  0  2  0  0  0  0  0  0  0  0  0
   20.0095   -4.3998  -15.3544 N   0  0  0  0  0  0  0  0  0  0  0  0
   19.2618   -6.2804  -14.0149 C   0  0  0  0  0  0  0  0  0  0  0  0
   18.9620   -5.5533  -13.0373 O   0  0  0  0  0  0  0  0  0  0  0  0
   18.6734   -7.5573  -14.1084 N   0  0  0  0  0  0  0  0  0  0  0  0
   17.7223   -7.9698  -13.0851 C   0  0  1  0  0  0  0  0  0  0  0  0
   16.7232   -8.9382  -13.6297 C   0  0  0  0  0  0  0  0  0  0  0  0
   15.7184   -9.2765  -12.6066 C   0  0  0  0  0  0  0  0  0  0  0  0
   15.2376   -8.5460  -11.5478 C   0  0  0  0  0  0  0  0  0  0  0  0
   14.3417   -9.2558  -10.8446 N   0  0  0  0  0  0  0  0  0  0  0  0
   14.2375  -10.4477  -11.4428 C   0  0  0  0  0  0  0  0  0  0  0  0
   15.0629  -10.4739  -12.5075 N   0  0  0  0  0  0  0  0  0  0  0  0
   18.4095   -8.4808  -11.8902 C   0  0  0  0  0  0  0  0  0  0  0  0
   17.9913   -8.1582  -10.5875 O   0  0  0  0  0  0  0  0  0  0  0  0
   19.3982   -9.2263  -11.9767 O   0  0  0  0  0  0  0  0  0  0  0  0
  2  1  1  6
  2  3  1  0
  4  2  1  0
  4  5  1  6
  6 12  1  0
  6  4  1  0
  7  6  2  0
  9 11  1  0
  9  8  1  6
 10  9  1  0
 11 12  1  1
 13 11  1  0
 14 13  2  0
 15 13  1  0
 16 15  1  0
 16 17  1  6
 18 17  1  0
 18 22  1  0
 19 20  1  0
 19 18  2  0
 20 21  1  0
 21 22  2  0
 23 16  1  0
 23 24  1  0
 25 23  2  0
M  END
$$$$
