VVH.pdb
     RDKit          3D

 25 25  0  0  1  0  0  0  0  0999 V2000
   16.4274  -14.5673  -17.8547 C   0  0  0  0  0  0  0  0  0  0  0  0
   17.4277  -13.7980  -17.0530 C   0  0  2  0  0  0  0  0  0  0  0  0
   16.8151  -12.5020  -16.5964 C   0  0  0  0  0  0  0  0  0  0  0  0
   18.7172  -13.5404  -17.7814 C   0  0  2  0  0  0  0  0  0  0  0  0
   19.3083  -14.8336  -18.0781 N   0  0  0  0  0  0  0  0  0  0  0  0
   19.6659  -12.7285  -16.9794 C   0  0  0  0  0  0  0  0  0  0  0  0
   20.2877  -13.2273  -16.0069 O   0  0  0  0  0  0  0  0  0  0  0  0
   22.7421  -11.2161  -18.0127 C   0  0  0  0  0  0  0  0  0  0  0  0
   21.8970  -10.0696  -17.5117 C   0  0  1  0  0  0  0  0  0  0  0  0
   21.2830   -9.2807  -18.6374 C   0  0  0  0  0  0  0  0  0  0  0  0
   20.8512  -10.5520  -16.5200 C   0  0  2  0  0  0  0  0  0  0  0  0
   19.9116  -11.3619  -17.2727 N   0  0  0  0  0  0  0  0  0  0  0  0
   20.1856   -9.3651  -15.9207 C   0  0  0  0  0  0  0  0  0  0  0  0
   19.2170   -8.8153  -16.4982 O   0  0  0  0  0  0  0  0  0  0  0  0
   20.6270   -8.8324  -14.6931 N   0  0  0  0  0  0  0  0  0  0  0  0
   20.0271   -7.5974  -14.2065 C   0  0  1  0  0  0  0  0  0  0  0  0
   19.8693   -7.6180  -12.7208 C   0  0  0  0  0  0  0  0  0  0  0  0
   18.7480   -8.4907  -12.3308 C   0  0  0  0  0  0  0  0  0  0  0  0
   17.8443   -9.1842  -13.0979 C   0  0  0  0  0  0  0  0  0  0  0  0
   16.9625   -9.8368  -12.3250 N   0  0  0  0  0  0  0  0  0  0  0  0
   17.2893   -9.5701  -11.0556 C   0  0  0  0  0  0  0  0  0  0  0  0
   18.3651   -8.7588  -11.0445 N   0  0  0  0  0  0  0  0  0  0  0  0
   20.7693   -6.4194  -14.6784 C   0  0  0  0  0  0  0  0  0  0  0  0
   20.2271   -5.1232  -14.6356 O   0  0  0  0  0  0  0  0  0  0  0  0
   21.9176   -6.5154  -15.1400 O   0  0  0  0  0  0  0  0  0  0  0  0
  2  1  1  6
  2  3  1  0
  4  2  1  0
  4  5  1  1
  6 12  1  0
  6  4  1  0
  7  6  2  0
  9 11  1  0
  9  8  1  6
 10  9  1  0
 11 12  1  6
 13 11  1  0
 14 13  2  0
 15 13  1  0
 16 15  1  0
 16 17  1  1
 18 17  1  0
 18 22  1  0
 19 20  1  0
 19 18  2  0
 20 21  1  0
 21 22  2  0
 23 16  1  0
 23 24  1  0
 25 23  2  0
M  END
$$$$
