VVH.pdb
     RDKit          3D

 25 25  0  0  1  0  0  0  0  0999 V2000
   27.4449  -19.3809  -18.6395 C   0  0  0  0  0  0  0  0  0  0  0  0
   28.1842  -19.7748  -17.4013 C   0  0  2  0  0  0  0  0  0  0  0  0
   29.3660  -20.6285  -17.7725 C   0  0  0  0  0  0  0  0  0  0  0  0
   27.3290  -20.4772  -16.3839 C   0  0  2  0  0  0  0  0  0  0  0  0
   26.8759  -21.7182  -16.9874 N   0  0  0  0  0  0  0  0  0  0  0  0
   26.1579  -19.6636  -15.9728 C   0  0  0  0  0  0  0  0  0  0  0  0
   26.3047  -18.5814  -15.3496 O   0  0  0  0  0  0  0  0  0  0  0  0
   21.4319  -18.5674  -16.5741 C   0  0  0  0  0  0  0  0  0  0  0  0
   22.7996  -19.0557  -16.9872 C   0  0  1  0  0  0  0  0  0  0  0  0
   23.4778  -18.1090  -17.9414 C   0  0  0  0  0  0  0  0  0  0  0  0
   23.6643  -19.3550  -15.7737 C   0  0  2  0  0  0  0  0  0  0  0  0
   24.8291  -20.0685  -16.2631 N   0  0  0  0  0  0  0  0  0  0  0  0
   22.8768  -20.1876  -14.8263 C   0  0  0  0  0  0  0  0  0  0  0  0
   22.4524  -21.3176  -15.1681 O   0  0  0  0  0  0  0  0  0  0  0  0
   22.5900  -19.7268  -13.5259 N   0  0  0  0  0  0  0  0  0  0  0  0
   21.8041  -20.5727  -12.6378 C   0  0  1  0  0  0  0  0  0  0  0  0
   22.1137  -20.2911  -11.2034 C   0  0  0  0  0  0  0  0  0  0  0  0
   21.3898  -21.2255  -10.3238 C   0  0  0  0  0  0  0  0  0  0  0  0
   20.4857  -22.2159  -10.6201 C   0  0  0  0  0  0  0  0  0  0  0  0
   20.0458  -22.8121   -9.5012 N   0  0  0  0  0  0  0  0  0  0  0  0
   20.6611  -22.2124   -8.4761 C   0  0  0  0  0  0  0  0  0  0  0  0
   21.4751  -21.2529   -8.9581 N   0  0  0  0  0  0  0  0  0  0  0  0
   20.3678  -20.4722  -12.9349 C   0  0  0  0  0  0  0  0  0  0  0  0
   19.5519  -21.6061  -13.0914 O   0  0  0  0  0  0  0  0  0  0  0  0
   19.8048  -19.3732  -13.0622 O   0  0  0  0  0  0  0  0  0  0  0  0
  2  1  1  6
  2  3  1  0
  4  2  1  0
  4  5  1  6
  6 12  1  0
  6  4  1  0
  7  6  2  0
  9 11  1  0
  9  8  1  1
 10  9  1  0
 11 12  1  6
 13 11  1  0
 14 13  2  0
 15 13  1  0
 16 15  1  0
 16 17  1  1
 18 17  1  0
 18 22  1  0
 19 20  1  0
 19 18  2  0
 20 21  1  0
 21 22  2  0
 23 16  1  0
 23 24  1  0
 25 23  2  0
M  END
$$$$
