VVH.pdb
     RDKit          3D

 25 25  0  0  1  0  0  0  0  0999 V2000
   24.1606  -13.7878  -16.0689 C   0  0  0  0  0  0  0  0  0  0  0  0
   23.0641  -14.4985  -15.3425 C   0  0  2  0  0  0  0  0  0  0  0  0
   23.6079  -15.7542  -14.7173 C   0  0  0  0  0  0  0  0  0  0  0  0
   21.8738  -14.8150  -16.2044 C   0  0  2  0  0  0  0  0  0  0  0  0
   22.3241  -15.7291  -17.2394 N   0  0  0  0  0  0  0  0  0  0  0  0
   21.2897  -13.6014  -16.8277 C   0  0  0  0  0  0  0  0  0  0  0  0
   21.6696  -13.2045  -17.9587 O   0  0  0  0  0  0  0  0  0  0  0  0
   17.2961  -10.8493  -17.1683 C   0  0  0  0  0  0  0  0  0  0  0  0
   18.1298  -12.0625  -16.8327 C   0  0  1  0  0  0  0  0  0  0  0  0
   17.8326  -13.2263  -17.7404 C   0  0  0  0  0  0  0  0  0  0  0  0
   19.6108  -11.7215  -16.8130 C   0  0  2  0  0  0  0  0  0  0  0  0
   20.2831  -12.8400  -16.1788 N   0  0  0  0  0  0  0  0  0  0  0  0
   19.7962  -10.4666  -16.0373 C   0  0  0  0  0  0  0  0  0  0  0  0
   19.5799  -10.4404  -14.8018 O   0  0  0  0  0  0  0  0  0  0  0  0
   20.2183   -9.2811  -16.6713 N   0  0  0  0  0  0  0  0  0  0  0  0
   20.3770   -8.0743  -15.8712 C   0  0  1  0  0  0  0  0  0  0  0  0
   21.2135   -7.0585  -16.5791 C   0  0  0  0  0  0  0  0  0  0  0  0
   21.4189   -5.8727  -15.7289 C   0  0  0  0  0  0  0  0  0  0  0  0
   20.9945   -5.6029  -14.4510 C   0  0  0  0  0  0  0  0  0  0  0  0
   21.3851   -4.3780  -14.0661 N   0  0  0  0  0  0  0  0  0  0  0  0
   22.0631   -3.8488  -15.0905 C   0  0  0  0  0  0  0  0  0  0  0  0
   22.0912   -4.7401  -16.1007 N   0  0  0  0  0  0  0  0  0  0  0  0
   19.0756   -7.5371  -15.4482 C   0  0  0  0  0  0  0  0  0  0  0  0
   18.7986   -7.2052  -14.1107 O   0  0  0  0  0  0  0  0  0  0  0  0
   18.1539   -7.3504  -16.2587 O   0  0  0  0  0  0  0  0  0  0  0  0
  2  1  1  6
  2  3  1  0
  4  2  1  0
  4  5  1  6
  6 12  1  0
  6  4  1  0
  7  6  2  0
  9 11  1  0
  9  8  1  6
 10  9  1  0
 11 12  1  1
 13 11  1  0
 14 13  2  0
 15 13  1  0
 16 15  1  0
 16 17  1  6
 18 17  1  0
 18 22  1  0
 19 20  1  0
 19 18  2  0
 20 21  1  0
 21 22  2  0
 23 16  1  0
 23 24  1  0
 25 23  2  0
M  END
$$$$
