VVH.pdb
     RDKit          3D

 25 25  0  0  1  0  0  0  0  0999 V2000
   17.5568  -20.7569    0.2121 C   0  0  0  0  0  0  0  0  0  0  0  0
   16.9747  -19.9158    1.3023 C   0  0  2  0  0  0  0  0  0  0  0  0
   18.0840  -19.3530    2.1485 C   0  0  0  0  0  0  0  0  0  0  0  0
   15.9779  -20.6433    2.1607 C   0  0  2  0  0  0  0  0  0  0  0  0
   14.9651  -21.1888    1.2739 N   0  0  0  0  0  0  0  0  0  0  0  0
   15.3397  -19.7532    3.1622 C   0  0  0  0  0  0  0  0  0  0  0  0
   14.0968  -19.5632    3.1646 O   0  0  0  0  0  0  0  0  0  0  0  0
   13.7701  -20.1956    5.3976 C   0  0  0  0  0  0  0  0  0  0  0  0
   14.8515  -19.4560    6.1480 C   0  0  1  0  0  0  0  0  0  0  0  0
   15.8752  -20.3891    6.7378 C   0  0  0  0  0  0  0  0  0  0  0  0
   15.4919  -18.3886    5.2759 C   0  0  2  0  0  0  0  0  0  0  0  0
   16.0993  -19.0816    4.1551 N   0  0  0  0  0  0  0  0  0  0  0  0
   16.5104  -17.6670    6.0838 C   0  0  0  0  0  0  0  0  0  0  0  0
   17.6444  -18.1673    6.2785 O   0  0  0  0  0  0  0  0  0  0  0  0
   16.2254  -16.4076    6.6478 N   0  0  0  0  0  0  0  0  0  0  0  0
   17.2950  -15.6779    7.3152 C   0  0  1  0  0  0  0  0  0  0  0  0
   17.1993  -14.2103    7.0511 C   0  0  0  0  0  0  0  0  0  0  0  0
   17.5815  -13.9080    5.6606 C   0  0  0  0  0  0  0  0  0  0  0  0
   17.9587  -14.7394    4.6347 C   0  0  0  0  0  0  0  0  0  0  0  0
   18.2515  -14.0345    3.5309 N   0  0  0  0  0  0  0  0  0  0  0  0
   18.0662  -12.7452    3.8352 C   0  0  0  0  0  0  0  0  0  0  0  0
   17.6618  -12.6544    5.1174 N   0  0  0  0  0  0  0  0  0  0  0  0
   17.3417  -15.9905    8.7509 C   0  0  0  0  0  0  0  0  0  0  0  0
   18.4717  -15.7206    9.5421 O   0  0  0  0  0  0  0  0  0  0  0  0
   16.3783  -16.5113    9.3354 O   0  0  0  0  0  0  0  0  0  0  0  0
  2  1  1  6
  2  3  1  0
  4  2  1  0
  4  5  1  6
  6 12  1  0
  6  4  1  0
  7  6  2  0
  9 11  1  0
  9  8  1  6
 10  9  1  0
 11 12  1  6
 13 11  1  0
 14 13  2  0
 15 13  1  0
 16 15  1  0
 16 17  1  1
 18 17  1  0
 18 22  1  0
 19 20  1  0
 19 18  2  0
 20 21  1  0
 21 22  2  0
 23 16  1  0
 23 24  1  0
 25 23  2  0
M  END
$$$$
