VVH.pdb
     RDKit          3D

 25 25  0  0  1  0  0  0  0  0999 V2000
   20.3927  -17.4270  -17.6423 C   0  0  0  0  0  0  0  0  0  0  0  0
   21.4853  -18.2468  -17.0347 C   0  0  2  0  0  0  0  0  0  0  0  0
   21.5581  -17.9704  -15.5577 C   0  0  0  0  0  0  0  0  0  0  0  0
   22.8286  -18.0337  -17.6749 C   0  0  2  0  0  0  0  0  0  0  0  0
   22.7029  -18.4099  -19.0721 N   0  0  0  0  0  0  0  0  0  0  0  0
   23.8945  -18.8423  -17.0326 C   0  0  0  0  0  0  0  0  0  0  0  0
   23.8877  -20.0979  -17.0998 O   0  0  0  0  0  0  0  0  0  0  0  0
   28.5153  -18.9448  -15.4228 C   0  0  0  0  0  0  0  0  0  0  0  0
   27.3342  -18.3564  -16.1565 C   0  0  1  0  0  0  0  0  0  0  0  0
   27.5061  -18.4145  -17.6511 C   0  0  0  0  0  0  0  0  0  0  0  0
   26.0335  -19.0027  -15.7090 C   0  0  2  0  0  0  0  0  0  0  0  0
   24.9618  -18.2379  -16.3187 N   0  0  0  0  0  0  0  0  0  0  0  0
   25.9640  -18.9458  -14.2248 C   0  0  0  0  0  0  0  0  0  0  0  0
   25.4484  -17.9594  -13.6458 O   0  0  0  0  0  0  0  0  0  0  0  0
   26.4748  -19.9965  -13.4368 N   0  0  0  0  0  0  0  0  0  0  0  0
   25.8582  -20.2708  -12.1459 C   0  0  1  0  0  0  0  0  0  0  0  0
   24.3757  -20.4107  -12.2700 C   0  0  0  0  0  0  0  0  0  0  0  0
   23.7674  -20.6673  -10.9528 C   0  0  0  0  0  0  0  0  0  0  0  0
   24.3323  -20.7311   -9.7027 C   0  0  0  0  0  0  0  0  0  0  0  0
   23.4075  -21.0207   -8.7743 N   0  0  0  0  0  0  0  0  0  0  0  0
   22.2409  -21.1460   -9.4166 C   0  0  0  0  0  0  0  0  0  0  0  0
   22.4435  -20.9353  -10.7320 N   0  0  0  0  0  0  0  0  0  0  0  0
   26.4810  -21.4301  -11.4906 C   0  0  0  0  0  0  0  0  0  0  0  0
   27.1571  -21.3254  -10.2628 O   0  0  0  0  0  0  0  0  0  0  0  0
   26.4383  -22.5636  -11.9949 O   0  0  0  0  0  0  0  0  0  0  0  0
  2  1  1  6
  2  3  1  0
  4  2  1  0
  4  5  1  6
  6 12  1  0
  6  4  1  0
  7  6  2  0
  9 11  1  0
  9  8  1  1
 10  9  1  0
 11 12  1  6
 13 11  1  0
 14 13  2  0
 15 13  1  0
 16 15  1  0
 16 17  1  6
 18 17  1  0
 18 22  1  0
 19 20  1  0
 19 18  2  0
 20 21  1  0
 21 22  2  0
 23 16  1  0
 23 24  1  0
 25 23  2  0
M  END
$$$$
