VVH.pdb
     RDKit          3D

 25 25  0  0  1  0  0  0  0  0999 V2000
   18.2717  -14.7689  -17.1063 C   0  0  0  0  0  0  0  0  0  0  0  0
   19.2323  -13.6445  -16.8875 C   0  0  2  0  0  0  0  0  0  0  0  0
   18.4979  -12.4599  -16.3211 C   0  0  0  0  0  0  0  0  0  0  0  0
   19.9918  -13.2488  -18.1230 C   0  0  2  0  0  0  0  0  0  0  0  0
   20.7714  -14.4028  -18.5356 N   0  0  0  0  0  0  0  0  0  0  0  0
   20.8935  -12.0943  -17.8856 C   0  0  0  0  0  0  0  0  0  0  0  0
   22.0179  -12.2481  -17.3440 O   0  0  0  0  0  0  0  0  0  0  0  0
   20.5405   -9.0591  -20.3808 C   0  0  0  0  0  0  0  0  0  0  0  0
   21.7779   -9.1935  -19.5262 C   0  0  1  0  0  0  0  0  0  0  0  0
   22.6085   -7.9378  -19.5257 C   0  0  0  0  0  0  0  0  0  0  0  0
   21.4251   -9.6414  -18.1174 C   0  0  2  0  0  0  0  0  0  0  0  0
   20.5290  -10.7740  -18.2570 N   0  0  0  0  0  0  0  0  0  0  0  0
   20.7642   -8.5104  -17.4137 C   0  0  0  0  0  0  0  0  0  0  0  0
   19.5817   -8.1914  -17.6854 O   0  0  0  0  0  0  0  0  0  0  0  0
   21.4500   -7.7732  -16.4280 N   0  0  0  0  0  0  0  0  0  0  0  0
   20.7721   -6.6532  -15.7893 C   0  0  1  0  0  0  0  0  0  0  0  0
   21.0353   -6.6251  -14.3187 C   0  0  0  0  0  0  0  0  0  0  0  0
   20.1990   -7.6193  -13.6235 C   0  0  0  0  0  0  0  0  0  0  0  0
   19.2983   -8.5322  -14.1147 C   0  0  0  0  0  0  0  0  0  0  0  0
   18.7313   -9.2288  -13.1176 N   0  0  0  0  0  0  0  0  0  0  0  0
   19.2604   -8.7716  -11.9772 C   0  0  0  0  0  0  0  0  0  0  0  0
   20.1476   -7.8000  -12.2679 N   0  0  0  0  0  0  0  0  0  0  0  0
   21.1050   -5.3808  -16.4460 C   0  0  0  0  0  0  0  0  0  0  0  0
   20.3356   -4.2184  -16.2656 O   0  0  0  0  0  0  0  0  0  0  0  0
   22.0885   -5.2730  -17.1959 O   0  0  0  0  0  0  0  0  0  0  0  0
  2  1  1  6
  2  3  1  0
  4  2  1  0
  4  5  1  1
  6 12  1  0
  6  4  1  0
  7  6  2  0
  9 11  1  0
  9  8  1  6
 10  9  1  0
 11 12  1  6
 13 11  1  0
 14 13  2  0
 15 13  1  0
 16 15  1  0
 16 17  1  1
 18 17  1  0
 18 22  1  0
 19 20  1  0
 19 18  2  0
 20 21  1  0
 21 22  2  0
 23 16  1  0
 23 24  1  0
 25 23  2  0
M  END
$$$$
