QGE.pdb
     RDKit          3D

 23 22  0  0  1  0  0  0  0  0999 V2000
   20.7431  -26.5173   11.9841 N   0  0  0  0  0  0  0  0  0  0  0  0
   20.5054  -26.9194   10.6324 C   0  0  0  0  0  0  0  0  0  0  0  0
   19.8285  -28.0002   10.5403 O   0  0  0  0  0  0  0  0  0  0  0  0
   20.9947  -26.1668    9.4803 C   0  0  0  0  0  0  0  0  0  0  0  0
   20.1769  -24.9906    9.0579 C   0  0  0  0  0  0  0  0  0  0  0  0
   19.0019  -25.3003    8.1797 C   0  0  2  0  0  0  0  0  0  0  0  0
   19.3564  -25.6961    6.8436 N   0  0  0  0  0  0  0  0  0  0  0  0
   18.0057  -24.2405    8.1548 C   0  0  0  0  0  0  0  0  0  0  0  0
   17.6367  -23.7652    9.2832 O   0  0  0  0  0  0  0  0  0  0  0  0
   17.4549  -23.7367    6.9724 N   0  0  0  0  0  0  0  0  0  0  0  0
   16.4640  -22.6790    6.9940 C   0  0  0  0  0  0  0  0  0  0  0  0
   17.0819  -21.4823    6.3183 C   0  0  0  0  0  0  0  0  0  0  0  0
   18.2066  -21.5497    5.7571 O   0  0  0  0  0  0  0  0  0  0  0  0
   16.3963  -20.2503    6.3058 N   0  0  0  0  0  0  0  0  0  0  0  0
   16.9060  -19.1078    5.5030 C   0  0  1  0  0  0  0  0  0  0  0  0
   16.7917  -19.5791    4.0972 C   0  0  0  0  0  0  0  0  0  0  0  0
   15.4600  -19.7622    3.4975 C   0  0  0  0  0  0  0  0  0  0  0  0
   15.4282  -20.2537    2.1239 C   0  0  0  0  0  0  0  0  0  0  0  0
   15.7005  -21.4406    1.8513 O   0  0  0  0  0  0  0  0  0  0  0  0
   16.1916  -17.9217    5.9275 C   0  0  0  0  0  0  0  0  0  0  0  0
   16.5769  -16.6677    5.4930 O   0  0  0  0  0  0  0  0  0  0  0  0
   15.0844  -19.3642    1.1115 O   0  0  0  0  0  0  0  0  0  0  0  0
   15.2063  -17.9989    6.6991 O   0  0  0  0  0  0  0  0  0  0  0  0
  1  2  1  0
  2  3  2  0
  4  2  1  0
  4  5  1  0
  6  5  1  0
  6  8  1  0
  6  7  1  6
  8 10  1  0
  9  8  2  0
 10 11  1  0
 12 11  1  0
 12 13  2  0
 14 12  1  0
 15 14  1  0
 15 20  1  0
 15 16  1  6
 17 18  1  0
 17 16  1  0
 18 22  1  0
 18 19  2  0
 20 23  2  0
 20 21  1  0
M  END
$$$$
