QGE.pdb
     RDKit          3D

 23 22  0  0  1  0  0  0  0  0999 V2000
   27.4473  -23.0334  -17.5790 N   0  0  0  0  0  0  0  0  0  0  0  0
   28.4494  -22.0131  -17.5749 C   0  0  0  0  0  0  0  0  0  0  0  0
   29.0399  -21.8830  -18.7016 O   0  0  0  0  0  0  0  0  0  0  0  0
   28.7624  -21.2095  -16.3962 C   0  0  0  0  0  0  0  0  0  0  0  0
   27.9144  -21.4410  -15.1888 C   0  0  0  0  0  0  0  0  0  0  0  0
   26.5170  -20.9030  -15.2657 C   0  0  2  0  0  0  0  0  0  0  0  0
   26.4459  -19.4758  -15.4252 N   0  0  0  0  0  0  0  0  0  0  0  0
   25.6697  -21.3404  -14.1672 C   0  0  0  0  0  0  0  0  0  0  0  0
   25.5667  -22.6015  -13.9812 O   0  0  0  0  0  0  0  0  0  0  0  0
   24.9849  -20.4541  -13.3301 N   0  0  0  0  0  0  0  0  0  0  0  0
   24.0446  -20.9316  -12.3357 C   0  0  0  0  0  0  0  0  0  0  0  0
   22.6749  -20.4784  -12.7707 C   0  0  0  0  0  0  0  0  0  0  0  0
   22.4706  -19.3113  -13.1957 O   0  0  0  0  0  0  0  0  0  0  0  0
   21.5857  -21.3714  -12.7062 N   0  0  0  0  0  0  0  0  0  0  0  0
   20.3048  -21.0547  -13.3908 C   0  0  1  0  0  0  0  0  0  0  0  0
   20.4195  -21.7462  -14.7024 C   0  0  0  0  0  0  0  0  0  0  0  0
   19.4623  -21.4328  -15.7758 C   0  0  0  0  0  0  0  0  0  0  0  0
   19.0267  -22.5521  -16.6048 C   0  0  0  0  0  0  0  0  0  0  0  0
   19.7835  -23.5136  -16.8491 O   0  0  0  0  0  0  0  0  0  0  0  0
   19.2282  -21.3978  -12.4850 C   0  0  0  0  0  0  0  0  0  0  0  0
   18.0992  -20.6062  -12.3925 O   0  0  0  0  0  0  0  0  0  0  0  0
   17.7366  -22.5271  -17.1238 O   0  0  0  0  0  0  0  0  0  0  0  0
   19.2900  -22.4198  -11.7612 O   0  0  0  0  0  0  0  0  0  0  0  0
  1  2  1  0
  2  3  2  0
  4  2  1  0
  4  5  1  0
  6  5  1  0
  6  8  1  0
  6  7  1  1
  8 10  1  0
  9  8  2  0
 10 11  1  0
 12 11  1  0
 12 13  2  0
 14 12  1  0
 15 14  1  0
 15 20  1  0
 15 16  1  6
 17 18  1  0
 17 16  1  0
 18 22  1  0
 18 19  2  0
 20 23  2  0
 20 21  1  0
M  END
$$$$
