QGE.pdb
     RDKit          3D

 23 22  0  0  1  0  0  0  0  0999 V2000
   21.3535  -17.4894  -14.3394 N   0  0  0  0  0  0  0  0  0  0  0  0
   20.3191  -18.0086  -15.1795 C   0  0  0  0  0  0  0  0  0  0  0  0
   19.7722  -19.0648  -14.7103 O   0  0  0  0  0  0  0  0  0  0  0  0
   19.9366  -17.3898  -16.4460 C   0  0  0  0  0  0  0  0  0  0  0  0
   20.6380  -16.1212  -16.8053 C   0  0  0  0  0  0  0  0  0  0  0  0
   20.0101  -14.8636  -16.2834 C   0  0  2  0  0  0  0  0  0  0  0  0
   18.6309  -14.6989  -16.6548 N   0  0  0  0  0  0  0  0  0  0  0  0
   20.7735  -13.6655  -16.5962 C   0  0  0  0  0  0  0  0  0  0  0  0
   22.0354  -13.7130  -16.3944 O   0  0  0  0  0  0  0  0  0  0  0  0
   20.1912  -12.4972  -17.0977 N   0  0  0  0  0  0  0  0  0  0  0  0
   20.9626  -11.2807  -17.2591 C   0  0  0  0  0  0  0  0  0  0  0  0
   20.3566  -10.2497  -16.3424 C   0  0  0  0  0  0  0  0  0  0  0  0
   19.3475  -10.5076  -15.6355 O   0  0  0  0  0  0  0  0  0  0  0  0
   20.9220   -8.9604  -16.2632 N   0  0  0  0  0  0  0  0  0  0  0  0
   20.2723   -7.8967  -15.4533 C   0  0  1  0  0  0  0  0  0  0  0  0
   21.3930   -6.9899  -15.0884 C   0  0  0  0  0  0  0  0  0  0  0  0
   21.1211   -5.7812  -14.2936 C   0  0  0  0  0  0  0  0  0  0  0  0
   22.2690   -4.9341  -13.9862 C   0  0  0  0  0  0  0  0  0  0  0  0
   23.4369   -5.3208  -14.1946 O   0  0  0  0  0  0  0  0  0  0  0  0
   19.1513   -7.3888  -16.2168 C   0  0  0  0  0  0  0  0  0  0  0  0
   17.9965   -6.9662  -15.5862 O   0  0  0  0  0  0  0  0  0  0  0  0
   22.0344   -3.6723  -13.4503 O   0  0  0  0  0  0  0  0  0  0  0  0
   19.1969   -7.3185  -17.4678 O   0  0  0  0  0  0  0  0  0  0  0  0
  1  2  1  0
  2  3  2  0
  4  2  1  0
  4  5  1  0
  6  5  1  0
  6  8  1  0
  6  7  1  6
  8 10  1  0
  9  8  2  0
 10 11  1  0
 12 11  1  0
 12 13  2  0
 14 12  1  0
 15 14  1  0
 15 20  1  0
 15 16  1  6
 17 18  1  0
 17 16  1  0
 18 22  1  0
 18 19  2  0
 20 23  2  0
 20 21  1  0
M  END
$$$$
