QGE.pdb
     RDKit          3D

 23 22  0  0  1  0  0  0  0  0999 V2000
   18.7043  -18.0565  -17.5015 N   0  0  0  0  0  0  0  0  0  0  0  0
   17.6512  -17.1879  -17.9277 C   0  0  0  0  0  0  0  0  0  0  0  0
   16.7286  -17.7942  -18.5728 O   0  0  0  0  0  0  0  0  0  0  0  0
   17.6419  -15.7535  -17.6526 C   0  0  0  0  0  0  0  0  0  0  0  0
   18.7937  -15.2195  -16.8659 C   0  0  0  0  0  0  0  0  0  0  0  0
   18.5251  -13.9602  -16.0977 C   0  0  2  0  0  0  0  0  0  0  0  0
   17.1750  -13.4794  -16.2131 N   0  0  0  0  0  0  0  0  0  0  0  0
   19.4758  -12.8969  -16.3835 C   0  0  0  0  0  0  0  0  0  0  0  0
   20.7115  -13.1531  -16.1766 O   0  0  0  0  0  0  0  0  0  0  0  0
   19.0955  -11.6403  -16.8649 N   0  0  0  0  0  0  0  0  0  0  0  0
   20.0514  -10.5568  -16.9795 C   0  0  0  0  0  0  0  0  0  0  0  0
   19.6941   -9.5405  -15.9259 C   0  0  0  0  0  0  0  0  0  0  0  0
   18.7758   -9.7511  -15.0911 O   0  0  0  0  0  0  0  0  0  0  0  0
   20.3959   -8.3193  -15.8605 N   0  0  0  0  0  0  0  0  0  0  0  0
   20.0149   -7.2787  -14.8699 C   0  0  1  0  0  0  0  0  0  0  0  0
   21.2230   -6.4169  -14.7735 C   0  0  0  0  0  0  0  0  0  0  0  0
   21.2088   -5.2412  -13.8880 C   0  0  0  0  0  0  0  0  0  0  0  0
   22.3899   -4.3850  -13.9262 C   0  0  0  0  0  0  0  0  0  0  0  0
   23.4390   -4.7491  -14.4952 O   0  0  0  0  0  0  0  0  0  0  0  0
   18.7536   -6.7093  -15.2969 C   0  0  0  0  0  0  0  0  0  0  0  0
   18.4511   -6.5811  -16.6392 O   0  0  0  0  0  0  0  0  0  0  0  0
   22.3239   -3.1402  -13.3092 O   0  0  0  0  0  0  0  0  0  0  0  0
   17.9030   -6.3177  -14.4631 O   0  0  0  0  0  0  0  0  0  0  0  0
  1  2  1  0
  2  3  2  0
  4  2  1  0
  4  5  1  0
  6  5  1  0
  6  8  1  0
  6  7  1  6
  8 10  1  0
  9  8  2  0
 10 11  1  0
 12 11  1  0
 12 13  2  0
 14 12  1  0
 15 14  1  0
 15 20  1  0
 15 16  1  6
 17 18  1  0
 17 16  1  0
 18 22  1  0
 18 19  2  0
 20 23  2  0
 20 21  1  0
M  END
$$$$
