PFR.pdb
     RDKit          3D

 30 31  0  0  1  0  0  0  0  0999 V2000
    7.7801  -15.3574   19.3159 N   0  0  0  0  0  0  0  0  0  0  0  0
    7.5100  -15.1562   17.8861 C   0  0  0  0  0  0  0  0  0  0  0  0
    7.8685  -13.7297   17.5920 C   0  0  0  0  0  0  0  0  0  0  0  0
    8.4040  -13.1833   18.9018 C   0  0  0  0  0  0  0  0  0  0  0  0
    8.8706  -14.4470   19.5883 C   0  0  1  0  0  0  0  0  0  0  0  0
    9.0325  -14.2859   21.0335 C   0  0  0  0  0  0  0  0  0  0  0  0
   10.0573  -13.7897   21.5759 O   0  0  0  0  0  0  0  0  0  0  0  0
    7.9946  -14.7020   21.9038 N   0  0  0  0  0  0  0  0  0  0  0  0
    8.0248  -14.4488   23.3345 C   0  0  1  0  0  0  0  0  0  0  0  0
    6.7561  -13.7663   23.7875 C   0  0  0  0  0  0  0  0  0  0  0  0
    6.7307  -13.3842   25.1941 C   0  0  0  0  0  0  0  0  0  0  0  0
    7.3488  -12.2415   25.6489 C   0  0  0  0  0  0  0  0  0  0  0  0
    7.3280  -11.8665   26.9702 C   0  0  0  0  0  0  0  0  0  0  0  0
    6.6687  -12.6521   27.8860 C   0  0  0  0  0  0  0  0  0  0  0  0
    6.0378  -13.8045   27.4666 C   0  0  0  0  0  0  0  0  0  0  0  0
    6.0742  -14.1626   26.1178 C   0  0  0  0  0  0  0  0  0  0  0  0
    8.3046  -15.6993   24.0913 C   0  0  0  0  0  0  0  0  0  0  0  0
    7.5597  -16.6969   24.0688 O   0  0  0  0  0  0  0  0  0  0  0  0
   10.3555  -18.0165   20.8210 N   0  0  0  0  0  0  0  0  0  0  0  0
   11.7523  -18.2489   20.9335 C   0  0  0  0  0  0  0  0  0  0  0  0
   12.2080  -19.3439   20.3794 N   0  0  0  0  0  0  0  0  0  0  0  0
   12.6393  -17.3626   21.6044 N   0  0  0  0  0  0  0  0  0  0  0  0
   12.1700  -16.7750   22.8414 C   0  0  0  0  0  0  0  0  0  0  0  0
   11.7226  -17.7185   23.8743 C   0  0  0  0  0  0  0  0  0  0  0  0
   11.2840  -17.3258   25.1950 C   0  0  0  0  0  0  0  0  0  0  0  0
    9.8472  -17.1218   25.4799 C   0  0  2  0  0  0  0  0  0  0  0  0
    9.4709  -15.7769   24.8814 N   0  0  0  0  0  0  0  0  0  0  0  0
    9.6029  -16.8752   26.9073 C   0  0  0  0  0  0  0  0  0  0  0  0
    9.4632  -17.8303   27.8692 O   0  0  0  0  0  0  0  0  0  0  0  0
    9.5018  -15.6692   27.3158 O   0  0  0  0  0  0  0  0  0  0  0  0
  1  5  1  0
  2  1  1  0
  2  3  1  0
  3  4  1  0
  5  6  1  1
  5  4  1  0
  6  7  2  0
  8  6  1  0
  8  9  1  0
  9 10  1  1
 11 10  1  0
 12 11  2  0
 13 12  1  0
 14 15  1  0
 14 13  2  0
 15 16  2  0
 16 11  1  0
 17 27  1  0
 17  9  1  0
 18 17  2  0
 19 20  1  0
 20 22  1  0
 21 20  2  0
 22 23  1  0
 23 24  1  0
 24 25  1  0
 26 25  1  1
 26 27  1  0
 28 29  1  0
 28 26  1  0
 30 28  2  0
M  END
$$$$
