PFR.pdb
     RDKit          3D

 30 31  0  0  1  0  0  0  0  0999 V2000
    9.4431  -15.2611   18.7962 N   0  0  0  0  0  0  0  0  0  0  0  0
    8.8380  -15.3378   17.4599 C   0  0  0  0  0  0  0  0  0  0  0  0
    7.3773  -15.0534   17.6479 C   0  0  0  0  0  0  0  0  0  0  0  0
    7.2243  -14.7561   19.1274 C   0  0  0  0  0  0  0  0  0  0  0  0
    8.6183  -14.2956   19.4890 C   0  0  1  0  0  0  0  0  0  0  0  0
    8.8854  -14.3562   20.9262 C   0  0  0  0  0  0  0  0  0  0  0  0
    9.9873  -14.7164   21.4228 O   0  0  0  0  0  0  0  0  0  0  0  0
    7.8663  -13.9952   21.8423 N   0  0  0  0  0  0  0  0  0  0  0  0
    8.0983  -13.9030   23.2740 C   0  0  1  0  0  0  0  0  0  0  0  0
    7.2619  -12.8043   23.8854 C   0  0  0  0  0  0  0  0  0  0  0  0
    7.4014  -12.6548   25.3288 C   0  0  0  0  0  0  0  0  0  0  0  0
    6.4909  -13.1964   26.2077 C   0  0  0  0  0  0  0  0  0  0  0  0
    6.6131  -13.0682   27.5699 C   0  0  0  0  0  0  0  0  0  0  0  0
    7.6801  -12.3752   28.0911 C   0  0  0  0  0  0  0  0  0  0  0  0
    8.6124  -11.8188   27.2407 C   0  0  0  0  0  0  0  0  0  0  0  0
    8.4646  -11.9639   25.8602 C   0  0  0  0  0  0  0  0  0  0  0  0
    7.8861  -15.2198   23.9341 C   0  0  0  0  0  0  0  0  0  0  0  0
    6.8092  -15.8435   23.8921 O   0  0  0  0  0  0  0  0  0  0  0  0
   12.5843  -17.4689   19.9859 N   0  0  0  0  0  0  0  0  0  0  0  0
   11.4777  -18.3410   19.8052 C   0  0  0  0  0  0  0  0  0  0  0  0
   11.4182  -18.9790   18.6637 N   0  0  0  0  0  0  0  0  0  0  0  0
   10.4691  -18.5361   20.7886 N   0  0  0  0  0  0  0  0  0  0  0  0
   10.7744  -18.1068   22.1370 C   0  0  0  0  0  0  0  0  0  0  0  0
    9.7817  -18.4506   23.1634 C   0  0  0  0  0  0  0  0  0  0  0  0
    9.8651  -18.0299   24.5443 C   0  0  0  0  0  0  0  0  0  0  0  0
    8.7796  -17.2314   25.1535 C   0  0  2  0  0  0  0  0  0  0  0  0
    8.9502  -15.8080   24.6500 N   0  0  0  0  0  0  0  0  0  0  0  0
    8.9806  -17.0475   26.5970 C   0  0  0  0  0  0  0  0  0  0  0  0
    8.6041  -17.9215   27.5724 O   0  0  0  0  0  0  0  0  0  0  0  0
    9.5512  -15.9815   27.0088 O   0  0  0  0  0  0  0  0  0  0  0  0
  1  5  1  0
  2  1  1  0
  2  3  1  0
  3  4  1  0
  5  6  1  1
  5  4  1  0
  6  7  2  0
  8  6  1  0
  8  9  1  0
  9 10  1  1
 11 10  1  0
 12 11  2  0
 13 12  1  0
 14 15  1  0
 14 13  2  0
 15 16  2  0
 16 11  1  0
 17 27  1  0
 17  9  1  0
 18 17  2  0
 19 20  1  0
 20 22  1  0
 21 20  2  0
 22 23  1  0
 23 24  1  0
 24 25  1  0
 26 25  1  6
 26 27  1  0
 28 29  1  0
 28 26  1  0
 30 28  2  0
M  END
$$$$
