PFR.pdb
     RDKit          3D

 30 31  0  0  1  0  0  0  0  0999 V2000
    7.7224  -15.1673   19.1833 N   0  0  0  0  0  0  0  0  0  0  0  0
    7.4542  -14.9270   17.7591 C   0  0  0  0  0  0  0  0  0  0  0  0
    7.8714  -13.5115   17.4906 C   0  0  0  0  0  0  0  0  0  0  0  0
    8.4358  -13.0138   18.8076 C   0  0  0  0  0  0  0  0  0  0  0  0
    8.8518  -14.3093   19.4670 C   0  0  1  0  0  0  0  0  0  0  0  0
    9.0273  -14.1833   20.9141 C   0  0  0  0  0  0  0  0  0  0  0  0
   10.1152  -13.8629   21.4659 O   0  0  0  0  0  0  0  0  0  0  0  0
    7.9293  -14.4292   21.7754 N   0  0  0  0  0  0  0  0  0  0  0  0
    7.9991  -14.2182   23.2115 C   0  0  1  0  0  0  0  0  0  0  0  0
    6.8168  -13.4129   23.6956 C   0  0  0  0  0  0  0  0  0  0  0  0
    6.8332  -13.0880   25.1167 C   0  0  0  0  0  0  0  0  0  0  0  0
    6.1125  -13.8143   26.0374 C   0  0  0  0  0  0  0  0  0  0  0  0
    6.1233  -13.5230   27.3798 C   0  0  0  0  0  0  0  0  0  0  0  0
    6.8779  -12.4685   27.8370 C   0  0  0  0  0  0  0  0  0  0  0  0
    7.6130  -11.7182   26.9433 C   0  0  0  0  0  0  0  0  0  0  0  0
    7.5844  -12.0358   25.5842 C   0  0  0  0  0  0  0  0  0  0  0  0
    8.1463  -15.5111   23.9336 C   0  0  0  0  0  0  0  0  0  0  0  0
    7.3367  -16.4516   23.8302 O   0  0  0  0  0  0  0  0  0  0  0  0
   14.4468  -19.3609   21.5753 N   0  0  0  0  0  0  0  0  0  0  0  0
   13.2760  -19.0044   20.8542 C   0  0  0  0  0  0  0  0  0  0  0  0
   13.2747  -19.2755   19.5735 N   0  0  0  0  0  0  0  0  0  0  0  0
   12.1466  -18.3852   21.4568 N   0  0  0  0  0  0  0  0  0  0  0  0
   12.1233  -18.3263   22.9030 C   0  0  0  0  0  0  0  0  0  0  0  0
   10.8814  -17.8272   23.5080 C   0  0  0  0  0  0  0  0  0  0  0  0
   10.6985  -17.6184   24.9271 C   0  0  0  0  0  0  0  0  0  0  0  0
    9.4336  -17.0553   25.4469 C   0  0  2  0  0  0  0  0  0  0  0  0
    9.2556  -15.6993   24.7849 N   0  0  0  0  0  0  0  0  0  0  0  0
    9.5475  -16.6684   26.8594 C   0  0  0  0  0  0  0  0  0  0  0  0
   10.0523  -15.4917   27.3259 O   0  0  0  0  0  0  0  0  0  0  0  0
    9.1521  -17.4874   27.7564 O   0  0  0  0  0  0  0  0  0  0  0  0
  1  5  1  0
  2  1  1  0
  2  3  1  0
  3  4  1  0
  5  6  1  1
  5  4  1  0
  6  7  2  0
  8  6  1  0
  8  9  1  0
  9 10  1  1
 11 10  1  0
 12 11  2  0
 13 12  1  0
 14 15  1  0
 14 13  2  0
 15 16  2  0
 16 11  1  0
 17 27  1  0
 17  9  1  0
 18 17  2  0
 19 20  1  0
 20 22  1  0
 21 20  2  0
 22 23  1  0
 23 24  1  0
 24 25  1  0
 26 25  1  6
 26 27  1  0
 28 29  1  0
 28 26  1  0
 30 28  2  0
M  END
$$$$
