PFR.pdb
     RDKit          3D

 30 31  0  0  1  0  0  0  0  0999 V2000
    7.4870  -15.0254   20.4941 N   0  0  0  0  0  0  0  0  0  0  0  0
    7.1838  -14.4873   19.1614 C   0  0  0  0  0  0  0  0  0  0  0  0
    7.8151  -13.1277   19.1083 C   0  0  0  0  0  0  0  0  0  0  0  0
    8.5269  -12.9752   20.4391 C   0  0  0  0  0  0  0  0  0  0  0  0
    8.7575  -14.4186   20.8258 C   0  0  1  0  0  0  0  0  0  0  0  0
    9.0317  -14.5912   22.2525 C   0  0  0  0  0  0  0  0  0  0  0  0
   10.1104  -14.2478   22.8085 O   0  0  0  0  0  0  0  0  0  0  0  0
    8.0476  -15.1759   23.0877 N   0  0  0  0  0  0  0  0  0  0  0  0
    8.2748  -15.4381   24.4990 C   0  0  1  0  0  0  0  0  0  0  0  0
    7.0365  -15.1362   25.3090 C   0  0  0  0  0  0  0  0  0  0  0  0
    6.9266  -13.7598   25.7765 C   0  0  0  0  0  0  0  0  0  0  0  0
    6.0423  -12.8683   25.2126 C   0  0  0  0  0  0  0  0  0  0  0  0
    5.9242  -11.5704   25.6468 C   0  0  0  0  0  0  0  0  0  0  0  0
    6.7127  -11.1296   26.6834 C   0  0  0  0  0  0  0  0  0  0  0  0
    7.6103  -11.9950   27.2728 C   0  0  0  0  0  0  0  0  0  0  0  0
    7.7102  -13.3090   26.8123 C   0  0  0  0  0  0  0  0  0  0  0  0
    8.7739  -16.8241   24.7100 C   0  0  0  0  0  0  0  0  0  0  0  0
    8.1859  -17.8375   24.2881 O   0  0  0  0  0  0  0  0  0  0  0  0
   14.3834  -15.5572   22.0634 N   0  0  0  0  0  0  0  0  0  0  0  0
   15.0245  -16.2423   23.1299 C   0  0  0  0  0  0  0  0  0  0  0  0
   16.1041  -15.6841   23.6164 N   0  0  0  0  0  0  0  0  0  0  0  0
   14.5488  -17.4703   23.6664 N   0  0  0  0  0  0  0  0  0  0  0  0
   13.2930  -17.9709   23.1487 C   0  0  0  0  0  0  0  0  0  0  0  0
   12.1138  -17.7546   23.9971 C   0  0  0  0  0  0  0  0  0  0  0  0
   11.6657  -18.6809   25.0130 C   0  0  0  0  0  0  0  0  0  0  0  0
   10.4006  -18.4434   25.7412 C   0  0  2  0  0  0  0  0  0  0  0  0
    9.9753  -17.0198   25.4234 N   0  0  0  0  0  0  0  0  0  0  0  0
   10.6130  -18.3586   27.1922 C   0  0  0  0  0  0  0  0  0  0  0  0
   10.8692  -19.4076   28.0235 O   0  0  0  0  0  0  0  0  0  0  0  0
   10.5536  -17.2149   27.7579 O   0  0  0  0  0  0  0  0  0  0  0  0
  1  5  1  0
  2  1  1  0
  2  3  1  0
  3  4  1  0
  5  6  1  1
  5  4  1  0
  6  7  2  0
  8  6  1  0
  8  9  1  0
  9 10  1  1
 11 10  1  0
 12 11  2  0
 13 12  1  0
 14 15  1  0
 14 13  2  0
 15 16  2  0
 16 11  1  0
 17 27  1  0
 17  9  1  0
 18 17  2  0
 19 20  1  0
 20 22  1  0
 21 20  2  0
 22 23  1  0
 23 24  1  0
 24 25  1  0
 26 25  1  6
 26 27  1  0
 28 29  1  0
 28 26  1  0
 30 28  2  0
M  END
$$$$
