PFR.pdb
     RDKit          3D

 30 31  0  0  1  0  0  0  0  0999 V2000
    7.5614  -15.0671   19.0010 N   0  0  0  0  0  0  0  0  0  0  0  0
    7.3820  -14.6128   17.6157 C   0  0  0  0  0  0  0  0  0  0  0  0
    8.1257  -13.3149   17.5041 C   0  0  0  0  0  0  0  0  0  0  0  0
    8.7689  -13.1150   18.8632 C   0  0  0  0  0  0  0  0  0  0  0  0
    8.8562  -14.5374   19.3686 C   0  0  1  0  0  0  0  0  0  0  0  0
    9.0316  -14.6188   20.8188 C   0  0  0  0  0  0  0  0  0  0  0  0
   10.1539  -14.6045   21.3940 O   0  0  0  0  0  0  0  0  0  0  0  0
    7.8928  -14.7208   21.6559 N   0  0  0  0  0  0  0  0  0  0  0  0
    7.9760  -14.6317   23.1041 C   0  0  1  0  0  0  0  0  0  0  0  0
    6.9372  -13.6786   23.6456 C   0  0  0  0  0  0  0  0  0  0  0  0
    7.0155  -13.4325   25.0803 C   0  0  0  0  0  0  0  0  0  0  0  0
    7.8683  -12.4916   25.6116 C   0  0  0  0  0  0  0  0  0  0  0  0
    7.9483  -12.2453   26.9606 C   0  0  0  0  0  0  0  0  0  0  0  0
    7.1524  -12.9576   27.8265 C   0  0  0  0  0  0  0  0  0  0  0  0
    6.2857  -13.9085   27.3301 C   0  0  0  0  0  0  0  0  0  0  0  0
    6.2242  -14.1390   25.9546 C   0  0  0  0  0  0  0  0  0  0  0  0
    7.8957  -15.9811   23.7265 C   0  0  0  0  0  0  0  0  0  0  0  0
    6.9513  -16.7701   23.5363 O   0  0  0  0  0  0  0  0  0  0  0  0
   10.6577  -18.8482   30.6833 N   0  0  0  0  0  0  0  0  0  0  0  0
   11.8300  -19.0825   29.9161 C   0  0  0  0  0  0  0  0  0  0  0  0
   12.8515  -19.5960   30.5538 N   0  0  0  0  0  0  0  0  0  0  0  0
   11.9262  -18.7881   28.5282 N   0  0  0  0  0  0  0  0  0  0  0  0
   10.7912  -18.1303   27.9159 C   0  0  0  0  0  0  0  0  0  0  0  0
   10.9867  -17.6545   26.5402 C   0  0  0  0  0  0  0  0  0  0  0  0
   10.3099  -18.2071   25.3880 C   0  0  0  0  0  0  0  0  0  0  0  0
    8.9093  -17.8371   25.0901 C   0  0  2  0  0  0  0  0  0  0  0  0
    8.9355  -16.4060   24.5802 N   0  0  0  0  0  0  0  0  0  0  0  0
    8.1116  -17.6873   26.3144 C   0  0  0  0  0  0  0  0  0  0  0  0
    7.4906  -18.6947   26.9900 O   0  0  0  0  0  0  0  0  0  0  0  0
    7.9623  -16.5211   26.8138 O   0  0  0  0  0  0  0  0  0  0  0  0
  1  5  1  0
  2  1  1  0
  2  3  1  0
  3  4  1  0
  5  6  1  1
  5  4  1  0
  6  7  2  0
  8  6  1  0
  8  9  1  0
  9 10  1  1
 11 10  1  0
 12 11  2  0
 13 12  1  0
 14 15  1  0
 14 13  2  0
 15 16  2  0
 16 11  1  0
 17 27  1  0
 17  9  1  0
 18 17  2  0
 19 20  1  0
 20 22  1  0
 21 20  2  0
 22 23  1  0
 23 24  1  0
 24 25  1  0
 26 25  1  1
 26 27  1  0
 28 29  1  0
 28 26  1  0
 30 28  2  0
M  END
$$$$
