PFR.pdb
     RDKit          3D

 30 31  0  0  1  0  0  0  0  0999 V2000
    7.6789  -14.9360   19.1425 N   0  0  0  0  0  0  0  0  0  0  0  0
    7.5069  -14.6065   17.7213 C   0  0  0  0  0  0  0  0  0  0  0  0
    8.2527  -13.3242   17.4987 C   0  0  0  0  0  0  0  0  0  0  0  0
    8.8892  -13.0047   18.8379 C   0  0  0  0  0  0  0  0  0  0  0  0
    8.9724  -14.3766   19.4681 C   0  0  1  0  0  0  0  0  0  0  0  0
    9.1404  -14.3290   20.9207 C   0  0  0  0  0  0  0  0  0  0  0  0
   10.2588  -14.2440   21.4975 O   0  0  0  0  0  0  0  0  0  0  0  0
    7.9986  -14.3794   21.7584 N   0  0  0  0  0  0  0  0  0  0  0  0
    8.0717  -14.1656   23.1940 C   0  0  1  0  0  0  0  0  0  0  0  0
    6.9961  -13.2092   23.6514 C   0  0  0  0  0  0  0  0  0  0  0  0
    7.0650  -12.8319   25.0579 C   0  0  0  0  0  0  0  0  0  0  0  0
    8.0437  -11.9919   25.5387 C   0  0  0  0  0  0  0  0  0  0  0  0
    8.1171  -11.6236   26.8601 C   0  0  0  0  0  0  0  0  0  0  0  0
    7.1846  -12.1040   27.7489 C   0  0  0  0  0  0  0  0  0  0  0  0
    6.1892  -12.9481   27.3029 C   0  0  0  0  0  0  0  0  0  0  0  0
    6.1375  -13.3066   25.9548 C   0  0  0  0  0  0  0  0  0  0  0  0
    8.0379  -15.4597   23.9279 C   0  0  0  0  0  0  0  0  0  0  0  0
    7.0995  -16.2738   23.8420 O   0  0  0  0  0  0  0  0  0  0  0  0
   13.4289  -21.0236   25.5530 N   0  0  0  0  0  0  0  0  0  0  0  0
   13.5192  -20.4284   24.2665 C   0  0  0  0  0  0  0  0  0  0  0  0
   14.7246  -20.1673   23.8278 N   0  0  0  0  0  0  0  0  0  0  0  0
   12.3836  -20.1183   23.4687 N   0  0  0  0  0  0  0  0  0  0  0  0
   11.0828  -20.3146   24.0729 C   0  0  0  0  0  0  0  0  0  0  0  0
   10.6243  -19.2510   24.9761 C   0  0  0  0  0  0  0  0  0  0  0  0
   10.1390  -17.9636   24.5313 C   0  0  0  0  0  0  0  0  0  0  0  0
    9.1669  -17.2041   25.3471 C   0  0  2  0  0  0  0  0  0  0  0  0
    9.1175  -15.7992   24.7705 N   0  0  0  0  0  0  0  0  0  0  0  0
    9.6777  -16.9381   26.6984 C   0  0  0  0  0  0  0  0  0  0  0  0
   10.4843  -15.8996   27.0561 O   0  0  0  0  0  0  0  0  0  0  0  0
    9.3607  -17.7350   27.6450 O   0  0  0  0  0  0  0  0  0  0  0  0
  1  5  1  0
  2  1  1  0
  2  3  1  0
  3  4  1  0
  5  6  1  1
  5  4  1  0
  6  7  2  0
  8  6  1  0
  8  9  1  0
  9 10  1  1
 11 10  1  0
 12 11  2  0
 13 12  1  0
 14 15  1  0
 14 13  2  0
 15 16  2  0
 16 11  1  0
 17 27  1  0
 17  9  1  0
 18 17  2  0
 19 20  1  0
 20 22  1  0
 21 20  2  0
 22 23  1  0
 23 24  1  0
 24 25  1  0
 26 25  1  6
 26 27  1  0
 28 29  1  0
 28 26  1  0
 30 28  2  0
M  END
$$$$
