NDE.pdb
     RDKit          3D

 26 25  0  0  1  0  0  0  0  0999 V2000
   19.7397  -14.3429  -15.9240 N   0  0  0  0  0  0  0  0  0  0  0  0
   18.4314  -13.8361  -16.1517 C   0  0  0  0  0  0  0  0  0  0  0  0
   17.4350  -14.5801  -16.0133 O   0  0  0  0  0  0  0  0  0  0  0  0
   18.2552  -12.4099  -16.5576 C   0  0  0  0  0  0  0  0  0  0  0  0
   17.5145  -11.7454  -15.4091 C   0  0  2  0  0  0  0  0  0  0  0  0
   16.2142  -12.3159  -15.3005 N   0  0  0  0  0  0  0  0  0  0  0  0
   17.4591  -10.2613  -15.6832 C   0  0  0  0  0  0  0  0  0  0  0  0
   18.4471   -9.6843  -16.1830 O   0  0  0  0  0  0  0  0  0  0  0  0
   16.3111   -9.5059  -15.3867 N   0  0  0  0  0  0  0  0  0  0  0  0
   15.9959   -8.1461  -15.5466 C   0  0  1  0  0  0  0  0  0  0  0  0
   14.5402   -7.7426  -15.6279 C   0  0  0  0  0  0  0  0  0  0  0  0
   13.7264   -8.6621  -16.4546 C   0  0  0  0  0  0  0  0  0  0  0  0
   14.1058   -8.8845  -17.6561 O   0  0  0  0  0  0  0  0  0  0  0  0
   16.8408   -7.1696  -14.8377 C   0  0  0  0  0  0  0  0  0  0  0  0
   16.9455   -7.2964  -13.5632 O   0  0  0  0  0  0  0  0  0  0  0  0
   12.5898   -9.2885  -16.0031 O   0  0  0  0  0  0  0  0  0  0  0  0
   17.5390   -6.1174  -15.4354 N   0  0  0  0  0  0  0  0  0  0  0  0
   18.4850   -5.3376  -14.6349 C   0  0  1  0  0  0  0  0  0  0  0  0
   19.8477   -5.9974  -14.6816 C   0  0  0  0  0  0  0  0  0  0  0  0
   20.9149   -5.2275  -14.0018 C   0  0  0  0  0  0  0  0  0  0  0  0
   22.2428   -5.8686  -14.0189 C   0  0  0  0  0  0  0  0  0  0  0  0
   23.2517   -5.1114  -13.8602 O   0  0  0  0  0  0  0  0  0  0  0  0
   18.4775   -3.9590  -15.1554 C   0  0  0  0  0  0  0  0  0  0  0  0
   18.0304   -3.7260  -16.2954 O   0  0  0  0  0  0  0  0  0  0  0  0
   22.4834   -7.2179  -14.1917 O   0  0  0  0  0  0  0  0  0  0  0  0
   18.9603   -2.9259  -14.3913 O   0  0  0  0  0  0  0  0  0  0  0  0
  2  1  1  0
  2  3  2  0
  4  2  1  0
  5  4  1  0
  5  7  1  0
  5  6  1  6
  7  8  2  0
  9 10  1  0
  9  7  1  0
 10 11  1  1
 11 12  1  0
 12 16  1  0
 13 12  2  0
 14 10  1  0
 14 17  1  0
 15 14  2  0
 18 17  1  0
 18 19  1  6
 20 19  1  0
 20 21  1  0
 21 25  1  0
 21 22  2  0
 23 18  1  0
 24 23  2  0
 26 23  1  0
M  END
$$$$
