NDE.pdb
     RDKit          3D

 26 25  0  0  1  0  0  0  0  0999 V2000
   12.7503  -12.5337  -14.0712 N   0  0  0  0  0  0  0  0  0  0  0  0
   13.7538  -11.9891  -14.9177 C   0  0  0  0  0  0  0  0  0  0  0  0
   13.6433  -12.0747  -16.1611 O   0  0  0  0  0  0  0  0  0  0  0  0
   14.9405  -11.3146  -14.3123 C   0  0  0  0  0  0  0  0  0  0  0  0
   16.1262  -11.7223  -15.1710 C   0  0  2  0  0  0  0  0  0  0  0  0
   16.3667  -13.1157  -15.0026 N   0  0  0  0  0  0  0  0  0  0  0  0
   17.3151  -10.8894  -14.7545 C   0  0  0  0  0  0  0  0  0  0  0  0
   17.7247  -10.9365  -13.5760 O   0  0  0  0  0  0  0  0  0  0  0  0
   17.9788  -10.0543  -15.6701 N   0  0  0  0  0  0  0  0  0  0  0  0
   19.0630   -9.1698  -15.5427 C   0  0  1  0  0  0  0  0  0  0  0  0
   20.4628   -9.7006  -15.7605 C   0  0  0  0  0  0  0  0  0  0  0  0
   21.5152   -8.6948  -15.4918 C   0  0  0  0  0  0  0  0  0  0  0  0
   22.1142   -8.1701  -16.4933 O   0  0  0  0  0  0  0  0  0  0  0  0
   18.8713   -7.7926  -16.0289 C   0  0  0  0  0  0  0  0  0  0  0  0
   18.5094   -7.6448  -17.2531 O   0  0  0  0  0  0  0  0  0  0  0  0
   21.8821   -8.2947  -14.2295 O   0  0  0  0  0  0  0  0  0  0  0  0
   19.0490   -6.6332  -15.2700 N   0  0  0  0  0  0  0  0  0  0  0  0
   18.8929   -5.3256  -15.9100 C   0  0  1  0  0  0  0  0  0  0  0  0
   17.7720   -4.5642  -15.2331 C   0  0  0  0  0  0  0  0  0  0  0  0
   16.4155   -5.0084  -15.6288 C   0  0  0  0  0  0  0  0  0  0  0  0
   15.3136   -4.2668  -14.9882 C   0  0  0  0  0  0  0  0  0  0  0  0
   14.2115   -4.8834  -14.8406 O   0  0  0  0  0  0  0  0  0  0  0  0
   20.1960   -4.6405  -15.8457 C   0  0  0  0  0  0  0  0  0  0  0  0
   21.1547   -5.1792  -15.2587 O   0  0  0  0  0  0  0  0  0  0  0  0
   15.3764   -2.9631  -14.5355 O   0  0  0  0  0  0  0  0  0  0  0  0
   20.3627   -3.4095  -16.4298 O   0  0  0  0  0  0  0  0  0  0  0  0
  2  1  1  0
  2  3  2  0
  4  2  1  0
  5  4  1  0
  5  7  1  0
  5  6  1  1
  7  8  2  0
  9 10  1  0
  9  7  1  0
 10 11  1  6
 11 12  1  0
 12 16  1  0
 13 12  2  0
 14 10  1  0
 14 17  1  0
 15 14  2  0
 18 17  1  0
 18 19  1  1
 20 19  1  0
 20 21  1  0
 21 25  1  0
 21 22  2  0
 23 18  1  0
 24 23  2  0
 26 23  1  0
M  END
$$$$
