NDE.pdb
     RDKit          3D

 26 25  0  0  1  0  0  0  0  0999 V2000
   15.7780  -15.9486  -14.3458 N   0  0  0  0  0  0  0  0  0  0  0  0
   15.9510  -14.6054  -14.7774 C   0  0  0  0  0  0  0  0  0  0  0  0
   14.9651  -13.8400  -14.8643 O   0  0  0  0  0  0  0  0  0  0  0  0
   17.3176  -14.1151  -15.1265 C   0  0  0  0  0  0  0  0  0  0  0  0
   17.1040  -12.9418  -16.0684 C   0  0  2  0  0  0  0  0  0  0  0  0
   16.7818  -13.4367  -17.3642 N   0  0  0  0  0  0  0  0  0  0  0  0
   18.3662  -12.1126  -16.0781 C   0  0  0  0  0  0  0  0  0  0  0  0
   18.9550  -11.8646  -15.0055 O   0  0  0  0  0  0  0  0  0  0  0  0
   18.8998  -11.6084  -17.2770 N   0  0  0  0  0  0  0  0  0  0  0  0
   19.9967  -10.7766  -17.5579 C   0  0  1  0  0  0  0  0  0  0  0  0
   20.7448  -10.9753  -18.8577 C   0  0  0  0  0  0  0  0  0  0  0  0
   21.9969  -10.1895  -18.9348 C   0  0  0  0  0  0  0  0  0  0  0  0
   22.0746   -9.2688  -19.8198 O   0  0  0  0  0  0  0  0  0  0  0  0
   19.8986   -9.3668  -17.1424 C   0  0  0  0  0  0  0  0  0  0  0  0
   18.8683   -8.7069  -17.5356 O   0  0  0  0  0  0  0  0  0  0  0  0
   23.0766  -10.3938  -18.1097 O   0  0  0  0  0  0  0  0  0  0  0  0
   20.8316   -8.6870  -16.3556 N   0  0  0  0  0  0  0  0  0  0  0  0
   20.5964   -7.2823  -16.0162 C   0  0  1  0  0  0  0  0  0  0  0  0
   21.4154   -6.9151  -14.7960 C   0  0  0  0  0  0  0  0  0  0  0  0
   21.3056   -5.4918  -14.4011 C   0  0  0  0  0  0  0  0  0  0  0  0
   22.0877   -5.1221  -13.2069 C   0  0  0  0  0  0  0  0  0  0  0  0
   22.6056   -6.0719  -12.5388 O   0  0  0  0  0  0  0  0  0  0  0  0
   20.9176   -6.4771  -17.2079 C   0  0  0  0  0  0  0  0  0  0  0  0
   20.1146   -5.6129  -17.6107 O   0  0  0  0  0  0  0  0  0  0  0  0
   22.3056   -3.8355  -12.7535 O   0  0  0  0  0  0  0  0  0  0  0  0
   22.0987   -6.6721  -17.8797 O   0  0  0  0  0  0  0  0  0  0  0  0
  2  1  1  0
  2  3  2  0
  4  2  1  0
  5  4  1  0
  5  7  1  0
  5  6  1  6
  7  8  2  0
  9 10  1  0
  9  7  1  0
 10 11  1  6
 11 12  1  0
 12 16  1  0
 13 12  2  0
 14 10  1  0
 14 17  1  0
 15 14  2  0
 18 17  1  0
 18 19  1  1
 20 19  1  0
 20 21  1  0
 21 25  1  0
 21 22  2  0
 23 18  1  0
 24 23  2  0
 26 23  1  0
M  END
$$$$
