NDE.pdb
     RDKit          3D

 26 25  0  0  1  0  0  0  0  0999 V2000
   16.0158  -14.7639  -13.1286 N   0  0  0  0  0  0  0  0  0  0  0  0
   17.2662  -14.0978  -13.0138 C   0  0  0  0  0  0  0  0  0  0  0  0
   18.3327  -14.7517  -13.0387 O   0  0  0  0  0  0  0  0  0  0  0  0
   17.2974  -12.6125  -12.8632 C   0  0  0  0  0  0  0  0  0  0  0  0
   15.8483  -12.1869  -12.6953 C   0  0  2  0  0  0  0  0  0  0  0  0
   15.1644  -12.3624  -13.9320 N   0  0  0  0  0  0  0  0  0  0  0  0
   15.8323  -10.7469  -12.2402 C   0  0  0  0  0  0  0  0  0  0  0  0
   16.0158   -9.8313  -13.0689 O   0  0  0  0  0  0  0  0  0  0  0  0
   15.6134  -10.4088  -10.8934 N   0  0  0  0  0  0  0  0  0  0  0  0
   15.4779   -9.1786  -10.2282 C   0  0  1  0  0  0  0  0  0  0  0  0
   14.4764   -9.0696   -9.0996 C   0  0  0  0  0  0  0  0  0  0  0  0
   13.0961   -9.4112   -9.5111 C   0  0  0  0  0  0  0  0  0  0  0  0
   12.5597   -8.7208  -10.4452 O   0  0  0  0  0  0  0  0  0  0  0  0
   16.7035   -8.3916  -10.0084 C   0  0  0  0  0  0  0  0  0  0  0  0
   17.5961   -8.8952   -9.2331 O   0  0  0  0  0  0  0  0  0  0  0  0
   12.3621  -10.4265   -8.9467 O   0  0  0  0  0  0  0  0  0  0  0  0
   16.9774   -7.1435  -10.5732 N   0  0  0  0  0  0  0  0  0  0  0  0
   18.2753   -6.5128  -10.3253 C   0  0  1  0  0  0  0  0  0  0  0  0
   19.2046   -6.7999  -11.4865 C   0  0  0  0  0  0  0  0  0  0  0  0
   20.5421   -6.1769  -11.3577 C   0  0  0  0  0  0  0  0  0  0  0  0
   21.4745   -6.4876  -12.4571 C   0  0  0  0  0  0  0  0  0  0  0  0
   21.5829   -7.7086  -12.7948 O   0  0  0  0  0  0  0  0  0  0  0  0
   18.0360   -5.0762  -10.1007 C   0  0  0  0  0  0  0  0  0  0  0  0
   17.0220   -4.5313  -10.5790 O   0  0  0  0  0  0  0  0  0  0  0  0
   22.2377   -5.5679  -13.1499 O   0  0  0  0  0  0  0  0  0  0  0  0
   18.9243   -4.3312   -9.3658 O   0  0  0  0  0  0  0  0  0  0  0  0
  2  1  1  0
  2  3  2  0
  4  2  1  0
  5  4  1  0
  5  7  1  0
  5  6  1  6
  7  8  2  0
  9 10  1  0
  9  7  1  0
 10 11  1  1
 11 12  1  0
 12 16  1  0
 13 12  2  0
 14 10  1  0
 14 17  1  0
 15 14  2  0
 18 17  1  0
 18 19  1  6
 20 19  1  0
 20 21  1  0
 21 25  1  0
 21 22  2  0
 23 18  1  0
 24 23  2  0
 26 23  1  0
M  END
$$$$
