NDE.pdb
     RDKit          3D

 26 25  0  0  1  0  0  0  0  0999 V2000
   15.1553  -13.1373  -14.3168 N   0  0  0  0  0  0  0  0  0  0  0  0
   16.5732  -13.1724  -14.2247 C   0  0  0  0  0  0  0  0  0  0  0  0
   17.1431  -14.1225  -13.6433 O   0  0  0  0  0  0  0  0  0  0  0  0
   17.3771  -12.0673  -14.8264 C   0  0  0  0  0  0  0  0  0  0  0  0
   16.3651  -11.0556  -15.3379 C   0  0  2  0  0  0  0  0  0  0  0  0
   15.7300  -11.5782  -16.5004 N   0  0  0  0  0  0  0  0  0  0  0  0
   17.0959   -9.7655  -15.6251 C   0  0  0  0  0  0  0  0  0  0  0  0
   17.8714   -9.6946  -16.6010 O   0  0  0  0  0  0  0  0  0  0  0  0
   16.9225   -8.6312  -14.8130 N   0  0  0  0  0  0  0  0  0  0  0  0
   17.4943   -7.3480  -14.8313 C   0  0  1  0  0  0  0  0  0  0  0  0
   16.6549   -6.1723  -14.3822 C   0  0  0  0  0  0  0  0  0  0  0  0
   17.3143   -4.8663  -14.6077 C   0  0  0  0  0  0  0  0  0  0  0  0
   17.7878   -4.2493  -13.5917 O   0  0  0  0  0  0  0  0  0  0  0  0
   18.9148   -7.2367  -14.4573 C   0  0  0  0  0  0  0  0  0  0  0  0
   19.2435   -7.6114  -13.2729 O   0  0  0  0  0  0  0  0  0  0  0  0
   17.4458   -4.2827  -15.8447 O   0  0  0  0  0  0  0  0  0  0  0  0
   19.9351   -6.7586  -15.2832 N   0  0  0  0  0  0  0  0  0  0  0  0
   21.3243   -6.8398  -14.8278 C   0  0  1  0  0  0  0  0  0  0  0  0
   22.1823   -7.4245  -15.9307 C   0  0  0  0  0  0  0  0  0  0  0  0
   23.6170   -7.5415  -15.5816 C   0  0  0  0  0  0  0  0  0  0  0  0
   24.4546   -8.1670  -16.6217 C   0  0  0  0  0  0  0  0  0  0  0  0
   25.7129   -8.0187  -16.5163 O   0  0  0  0  0  0  0  0  0  0  0  0
   21.7360   -5.4871  -14.4127 C   0  0  0  0  0  0  0  0  0  0  0  0
   22.3832   -5.3288  -13.3592 O   0  0  0  0  0  0  0  0  0  0  0  0
   23.9902   -8.8988  -17.6974 O   0  0  0  0  0  0  0  0  0  0  0  0
   21.4113   -4.3965  -15.1804 O   0  0  0  0  0  0  0  0  0  0  0  0
  2  1  1  0
  2  3  2  0
  4  2  1  0
  5  4  1  0
  5  7  1  0
  5  6  1  6
  7  8  2  0
  9 10  1  0
  9  7  1  0
 10 11  1  1
 11 12  1  0
 12 16  1  0
 13 12  2  0
 14 10  1  0
 14 17  1  0
 15 14  2  0
 18 17  1  0
 18 19  1  6
 20 19  1  0
 20 21  1  0
 21 25  1  0
 21 22  2  0
 23 18  1  0
 24 23  2  0
 26 23  1  0
M  END
$$$$
