NDE.pdb
     RDKit          3D

 26 25  0  0  1  0  0  0  0  0999 V2000
   23.4412  -21.0846  -16.1236 N   0  0  0  0  0  0  0  0  0  0  0  0
   23.4728  -20.0860  -15.1127 C   0  0  0  0  0  0  0  0  0  0  0  0
   24.3800  -19.2243  -15.1068 O   0  0  0  0  0  0  0  0  0  0  0  0
   22.4158  -20.0730  -14.0580 C   0  0  0  0  0  0  0  0  0  0  0  0
   21.4867  -21.2276  -14.3945 C   0  0  2  0  0  0  0  0  0  0  0  0
   20.6780  -20.8657  -15.5094 N   0  0  0  0  0  0  0  0  0  0  0  0
   20.6569  -21.5337  -13.1704 C   0  0  0  0  0  0  0  0  0  0  0  0
   21.2132  -21.9332  -12.1265 O   0  0  0  0  0  0  0  0  0  0  0  0
   19.2597  -21.3781  -13.1773 N   0  0  0  0  0  0  0  0  0  0  0  0
   18.2616  -21.6767  -12.2346 C   0  0  1  0  0  0  0  0  0  0  0  0
   16.8949  -21.0496  -12.4004 C   0  0  0  0  0  0  0  0  0  0  0  0
   16.9258  -19.5700  -12.3714 C   0  0  0  0  0  0  0  0  0  0  0  0
   17.5142  -19.0008  -11.3881 O   0  0  0  0  0  0  0  0  0  0  0  0
   18.2206  -23.0517  -11.7076 C   0  0  0  0  0  0  0  0  0  0  0  0
   18.4469  -24.0074  -12.5363 O   0  0  0  0  0  0  0  0  0  0  0  0
   16.3595  -18.7770  -13.3402 O   0  0  0  0  0  0  0  0  0  0  0  0
   17.9572  -23.4037  -10.3815 N   0  0  0  0  0  0  0  0  0  0  0  0
   18.0700  -24.8059   -9.9754 C   0  0  1  0  0  0  0  0  0  0  0  0
   18.4372  -24.8771   -8.5076 C   0  0  0  0  0  0  0  0  0  0  0  0
   17.2827  -24.7437   -7.5893 C   0  0  0  0  0  0  0  0  0  0  0  0
   17.6234  -24.8217   -6.1567 C   0  0  0  0  0  0  0  0  0  0  0  0
   18.7092  -25.4090   -5.8523 O   0  0  0  0  0  0  0  0  0  0  0  0
   16.7928  -25.4664  -10.2981 C   0  0  0  0  0  0  0  0  0  0  0  0
   15.7436  -24.7964  -10.3617 O   0  0  0  0  0  0  0  0  0  0  0  0
   16.8659  -24.3121   -5.1199 O   0  0  0  0  0  0  0  0  0  0  0  0
   16.7499  -26.8187  -10.5303 O   0  0  0  0  0  0  0  0  0  0  0  0
  2  1  1  0
  2  3  2  0
  4  2  1  0
  5  4  1  0
  5  7  1  0
  5  6  1  6
  7  8  2  0
  9 10  1  0
  9  7  1  0
 10 11  1  6
 11 12  1  0
 12 16  1  0
 13 12  2  0
 14 10  1  0
 14 17  1  0
 15 14  2  0
 18 17  1  0
 18 19  1  1
 20 19  1  0
 20 21  1  0
 21 25  1  0
 21 22  2  0
 23 18  1  0
 24 23  2  0
 26 23  1  0
M  END
$$$$
