NDE.pdb
     RDKit          3D

 26 25  0  0  1  0  0  0  0  0999 V2000
   25.1341  -14.7261  -14.9221 N   0  0  0  0  0  0  0  0  0  0  0  0
   25.9267  -13.6851  -15.4775 C   0  0  0  0  0  0  0  0  0  0  0  0
   27.1746  -13.7750  -15.4767 O   0  0  0  0  0  0  0  0  0  0  0  0
   25.2590  -12.4838  -16.0613 C   0  0  0  0  0  0  0  0  0  0  0  0
   23.7687  -12.7073  -15.8657 C   0  0  2  0  0  0  0  0  0  0  0  0
   23.3203  -13.6954  -16.7880 N   0  0  0  0  0  0  0  0  0  0  0  0
   23.0659  -11.3859  -16.0674 C   0  0  0  0  0  0  0  0  0  0  0  0
   23.5189  -10.5598  -16.8866 O   0  0  0  0  0  0  0  0  0  0  0  0
   21.9025  -11.0600  -15.3486 N   0  0  0  0  0  0  0  0  0  0  0  0
   21.0338   -9.9565  -15.3886 C   0  0  1  0  0  0  0  0  0  0  0  0
   19.5949  -10.1491  -14.9633 C   0  0  0  0  0  0  0  0  0  0  0  0
   18.7713   -8.9299  -15.1267 C   0  0  0  0  0  0  0  0  0  0  0  0
   18.9916   -7.9463  -14.3387 O   0  0  0  0  0  0  0  0  0  0  0  0
   21.5904   -8.6454  -15.0129 C   0  0  0  0  0  0  0  0  0  0  0  0
   22.2831   -8.5871  -13.9320 O   0  0  0  0  0  0  0  0  0  0  0  0
   17.7868   -8.7972  -16.0760 O   0  0  0  0  0  0  0  0  0  0  0  0
   21.4291   -7.4597  -15.7340 N   0  0  0  0  0  0  0  0  0  0  0  0
   22.1499   -6.2580  -15.3097 C   0  0  1  0  0  0  0  0  0  0  0  0
   22.1836   -5.2619  -16.4503 C   0  0  0  0  0  0  0  0  0  0  0  0
   22.8163   -3.9684  -16.1038 C   0  0  0  0  0  0  0  0  0  0  0  0
   22.8136   -2.9711  -17.1900 C   0  0  0  0  0  0  0  0  0  0  0  0
   23.3109   -3.3291  -18.3040 O   0  0  0  0  0  0  0  0  0  0  0  0
   21.4866   -5.7464  -14.0973 C   0  0  0  0  0  0  0  0  0  0  0  0
   22.1659   -5.2466  -13.1794 O   0  0  0  0  0  0  0  0  0  0  0  0
   22.3177   -1.6848  -17.1010 O   0  0  0  0  0  0  0  0  0  0  0  0
   20.1215   -5.8159  -13.9711 O   0  0  0  0  0  0  0  0  0  0  0  0
  2  1  1  0
  2  3  2  0
  4  2  1  0
  5  4  1  0
  5  7  1  0
  5  6  1  6
  7  8  2  0
  9 10  1  0
  9  7  1  0
 10 11  1  1
 11 12  1  0
 12 16  1  0
 13 12  2  0
 14 10  1  0
 14 17  1  0
 15 14  2  0
 18 17  1  0
 18 19  1  6
 20 19  1  0
 20 21  1  0
 21 25  1  0
 21 22  2  0
 23 18  1  0
 24 23  2  0
 26 23  1  0
M  END
$$$$
