NDE.pdb
     RDKit          3D

 26 25  0  0  1  0  0  0  0  0999 V2000
   26.3324  -22.6267  -15.2070 N   0  0  0  0  0  0  0  0  0  0  0  0
   26.2843  -21.2222  -14.9944 C   0  0  0  0  0  0  0  0  0  0  0  0
   27.2591  -20.5038  -15.3095 O   0  0  0  0  0  0  0  0  0  0  0  0
   25.0623  -20.6107  -14.3922 C   0  0  0  0  0  0  0  0  0  0  0  0
   24.1335  -21.7724  -14.0807 C   0  0  2  0  0  0  0  0  0  0  0  0
   23.6123  -22.2925  -15.2996 N   0  0  0  0  0  0  0  0  0  0  0  0
   23.0406  -21.2674  -13.1689 C   0  0  0  0  0  0  0  0  0  0  0  0
   23.3362  -20.7494  -12.0721 O   0  0  0  0  0  0  0  0  0  0  0  0
   21.6852  -21.3668  -13.5285 N   0  0  0  0  0  0  0  0  0  0  0  0
   20.4925  -21.0840  -12.8418 C   0  0  1  0  0  0  0  0  0  0  0  0
   19.5516  -20.0482  -13.4165 C   0  0  0  0  0  0  0  0  0  0  0  0
   18.3570  -19.8155  -12.5738 C   0  0  0  0  0  0  0  0  0  0  0  0
   18.5309  -19.3066  -11.4129 O   0  0  0  0  0  0  0  0  0  0  0  0
   19.8032  -22.2128  -12.1931 C   0  0  0  0  0  0  0  0  0  0  0  0
   19.3484  -23.1422  -12.9552 O   0  0  0  0  0  0  0  0  0  0  0  0
   17.0756  -20.1146  -12.9695 O   0  0  0  0  0  0  0  0  0  0  0  0
   19.6034  -22.3581  -10.8180 N   0  0  0  0  0  0  0  0  0  0  0  0
   18.8185  -23.4904  -10.3226 C   0  0  1  0  0  0  0  0  0  0  0  0
   19.0654  -23.6633   -8.8382 C   0  0  0  0  0  0  0  0  0  0  0  0
   18.3209  -24.7897   -8.2295 C   0  0  0  0  0  0  0  0  0  0  0  0
   18.6087  -25.0178   -6.8013 C   0  0  0  0  0  0  0  0  0  0  0  0
   19.4308  -24.2240   -6.2439 O   0  0  0  0  0  0  0  0  0  0  0  0
   17.4072  -23.2354  -10.6615 C   0  0  0  0  0  0  0  0  0  0  0  0
   16.9178  -22.1035  -10.4803 O   0  0  0  0  0  0  0  0  0  0  0  0
   18.0627  -26.0171   -6.0194 O   0  0  0  0  0  0  0  0  0  0  0  0
   16.6251  -24.2386  -11.1775 O   0  0  0  0  0  0  0  0  0  0  0  0
  2  1  1  0
  2  3  2  0
  4  2  1  0
  5  4  1  0
  5  7  1  0
  5  6  1  6
  7  8  2  0
  9 10  1  0
  9  7  1  0
 10 11  1  6
 11 12  1  0
 12 16  1  0
 13 12  2  0
 14 10  1  0
 14 17  1  0
 15 14  2  0
 18 17  1  0
 18 19  1  1
 20 19  1  0
 20 21  1  0
 21 25  1  0
 21 22  2  0
 23 18  1  0
 24 23  2  0
 26 23  1  0
M  END
$$$$
