NDE.pdb
     RDKit          3D

 26 25  0  0  1  0  0  0  0  0999 V2000
   24.7419  -15.5164  -17.4761 N   0  0  0  0  0  0  0  0  0  0  0  0
   24.8981  -14.2986  -18.1922 C   0  0  0  0  0  0  0  0  0  0  0  0
   25.9734  -14.0475  -18.7807 O   0  0  0  0  0  0  0  0  0  0  0  0
   23.7699  -13.3214  -18.2367 C   0  0  0  0  0  0  0  0  0  0  0  0
   24.1261  -12.2378  -17.2327 C   0  0  2  0  0  0  0  0  0  0  0  0
   24.1487  -12.8024  -15.9255 N   0  0  0  0  0  0  0  0  0  0  0  0
   23.1039  -11.1326  -17.3531 C   0  0  0  0  0  0  0  0  0  0  0  0
   23.2197  -10.2743  -18.2524 O   0  0  0  0  0  0  0  0  0  0  0  0
   22.0143  -11.0458  -16.4691 N   0  0  0  0  0  0  0  0  0  0  0  0
   20.9587  -10.1272  -16.3428 C   0  0  1  0  0  0  0  0  0  0  0  0
   19.5601  -10.6552  -16.1113 C   0  0  0  0  0  0  0  0  0  0  0  0
   18.5323   -9.5902  -16.0871 C   0  0  0  0  0  0  0  0  0  0  0  0
   18.3281   -8.9281  -17.1627 O   0  0  0  0  0  0  0  0  0  0  0  0
   21.2405   -8.8691  -15.6303 C   0  0  0  0  0  0  0  0  0  0  0  0
   21.5787   -8.9552  -14.3935 O   0  0  0  0  0  0  0  0  0  0  0  0
   17.7875   -9.2753  -14.9761 O   0  0  0  0  0  0  0  0  0  0  0  0
   21.1720   -7.5896  -16.1871 N   0  0  0  0  0  0  0  0  0  0  0  0
   21.4334   -6.4237  -15.3408 C   0  0  1  0  0  0  0  0  0  0  0  0
   21.5101   -5.1816  -16.2043 C   0  0  0  0  0  0  0  0  0  0  0  0
   21.8093   -3.9411  -15.4524 C   0  0  0  0  0  0  0  0  0  0  0  0
   21.8131   -2.7126  -16.2680 C   0  0  0  0  0  0  0  0  0  0  0  0
   21.6783   -2.8530  -17.5245 O   0  0  0  0  0  0  0  0  0  0  0  0
   20.3728   -6.3690  -14.3192 C   0  0  0  0  0  0  0  0  0  0  0  0
   19.2325   -6.7989  -14.5814 O   0  0  0  0  0  0  0  0  0  0  0  0
   21.9496   -1.4256  -15.7848 O   0  0  0  0  0  0  0  0  0  0  0  0
   20.6323   -5.8468  -13.0765 O   0  0  0  0  0  0  0  0  0  0  0  0
  2  1  1  0
  2  3  2  0
  4  2  1  0
  5  4  1  0
  5  7  1  0
  5  6  1  1
  7  8  2  0
  9 10  1  0
  9  7  1  0
 10 11  1  1
 11 12  1  0
 12 16  1  0
 13 12  2  0
 14 10  1  0
 14 17  1  0
 15 14  2  0
 18 17  1  0
 18 19  1  6
 20 19  1  0
 20 21  1  0
 21 25  1  0
 21 22  2  0
 23 18  1  0
 24 23  2  0
 26 23  1  0
M  END
$$$$
