NDE.pdb
     RDKit          3D

 26 25  0  0  1  0  0  0  0  0999 V2000
   17.1292  -13.6647  -14.4892 N   0  0  0  0  0  0  0  0  0  0  0  0
   17.7394  -13.4743  -15.7587 C   0  0  0  0  0  0  0  0  0  0  0  0
   18.1046  -14.4608  -16.4362 O   0  0  0  0  0  0  0  0  0  0  0  0
   17.9415  -12.0887  -16.2773 C   0  0  0  0  0  0  0  0  0  0  0  0
   17.3929  -11.1646  -15.2029 C   0  0  2  0  0  0  0  0  0  0  0  0
   15.9752  -11.1019  -15.3211 N   0  0  0  0  0  0  0  0  0  0  0  0
   18.0349   -9.8089  -15.3779 C   0  0  0  0  0  0  0  0  0  0  0  0
   19.0159   -9.6795  -16.1392 O   0  0  0  0  0  0  0  0  0  0  0  0
   17.5500   -8.6777  -14.6984 N   0  0  0  0  0  0  0  0  0  0  0  0
   17.9808   -7.3417  -14.6408 C   0  0  1  0  0  0  0  0  0  0  0  0
   17.0261   -6.2927  -14.1148 C   0  0  0  0  0  0  0  0  0  0  0  0
   15.6977   -6.3353  -14.7664 C   0  0  0  0  0  0  0  0  0  0  0  0
   15.6535   -6.2827  -16.0440 O   0  0  0  0  0  0  0  0  0  0  0  0
   19.3859   -7.1009  -14.2695 C   0  0  0  0  0  0  0  0  0  0  0  0
   19.7819   -7.5562  -13.1349 O   0  0  0  0  0  0  0  0  0  0  0  0
   14.5132   -6.4286  -14.0762 O   0  0  0  0  0  0  0  0  0  0  0  0
   20.3246   -6.4197  -15.0483 N   0  0  0  0  0  0  0  0  0  0  0  0
   21.7166   -6.3531  -14.5994 C   0  0  1  0  0  0  0  0  0  0  0  0
   22.6382   -6.5127  -15.7910 C   0  0  0  0  0  0  0  0  0  0  0  0
   24.0788   -6.4476  -15.4531 C   0  0  0  0  0  0  0  0  0  0  0  0
   24.9883   -6.5816  -16.6060 C   0  0  0  0  0  0  0  0  0  0  0  0
   25.6855   -7.6428  -16.6714 O   0  0  0  0  0  0  0  0  0  0  0  0
   21.8923   -5.0775  -13.8828 C   0  0  0  0  0  0  0  0  0  0  0  0
   21.1417   -4.1142  -14.1326 O   0  0  0  0  0  0  0  0  0  0  0  0
   25.1466   -5.6555  -17.6187 O   0  0  0  0  0  0  0  0  0  0  0  0
   22.8794   -4.9420  -12.9386 O   0  0  0  0  0  0  0  0  0  0  0  0
  2  1  1  0
  2  3  2  0
  4  2  1  0
  5  4  1  0
  5  7  1  0
  5  6  1  6
  7  8  2  0
  9 10  1  0
  9  7  1  0
 10 11  1  1
 11 12  1  0
 12 16  1  0
 13 12  2  0
 14 10  1  0
 14 17  1  0
 15 14  2  0
 18 17  1  0
 18 19  1  6
 20 19  1  0
 20 21  1  0
 21 25  1  0
 21 22  2  0
 23 18  1  0
 24 23  2  0
 26 23  1  0
M  END
$$$$
