TKT.pdb
     RDKit          3D

 24 23  0  0  1  0  0  0  0  0999 V2000
   10.0745  -13.5415   18.2071 C   0  0  0  0  0  0  0  0  0  0  0  0
    9.4769  -14.0242   19.5084 C   0  0  1  0  0  0  0  0  0  0  0  0
    9.9120  -13.2166   20.5426 O   0  0  0  0  0  0  0  0  0  0  0  0
    7.9669  -14.0577   19.4001 C   0  0  2  0  0  0  0  0  0  0  0  0
    7.5227  -12.7282   19.0922 N   0  0  0  0  0  0  0  0  0  0  0  0
    7.4122  -14.5696   20.6596 C   0  0  0  0  0  0  0  0  0  0  0  0
    6.7656  -13.7941   21.4011 O   0  0  0  0  0  0  0  0  0  0  0  0
    7.5832  -15.9166   21.0688 N   0  0  0  0  0  0  0  0  0  0  0  0
    6.9444  -16.4366   22.3070 C   0  0  1  0  0  0  0  0  0  0  0  0
    6.9291  -17.9234   22.1491 C   0  0  0  0  0  0  0  0  0  0  0  0
    6.3909  -18.6701   23.3294 C   0  0  0  0  0  0  0  0  0  0  0  0
    6.3655  -20.1776   23.0499 C   0  0  0  0  0  0  0  0  0  0  0  0
    5.6801  -20.8706   24.2101 C   0  0  0  0  0  0  0  0  0  0  0  0
    5.5618  -22.3079   23.9514 N   0  0  0  0  0  0  0  0  0  0  0  0
    7.7013  -15.9359   23.4609 C   0  0  0  0  0  0  0  0  0  0  0  0
    8.9396  -15.7477   23.3072 O   0  0  0  0  0  0  0  0  0  0  0  0
    7.0097  -12.6001   25.2700 C   0  0  0  0  0  0  0  0  0  0  0  0
    7.2081  -13.7030   26.2898 C   0  0  1  0  0  0  0  0  0  0  0  0
    6.0506  -14.0248   26.9525 O   0  0  0  0  0  0  0  0  0  0  0  0
    7.9127  -14.8605   25.6755 C   0  0  2  0  0  0  0  0  0  0  0  0
    7.1767  -15.6353   24.7425 N   0  0  0  0  0  0  0  0  0  0  0  0
    8.6424  -15.6566   26.7115 C   0  0  0  0  0  0  0  0  0  0  0  0
    8.4989  -17.0296   26.7703 O   0  0  0  0  0  0  0  0  0  0  0  0
    9.3896  -15.1002   27.5369 O   0  0  0  0  0  0  0  0  0  0  0  0
  2  1  1  6
  2  3  1  0
  4  2  1  0
  4  5  1  1
  6  4  1  0
  7  6  2  0
  8  6  1  0
  9  8  1  0
  9 10  1  6
 10 11  1  0
 11 12  1  0
 12 13  1  0
 13 14  1  0
 15 21  1  0
 15  9  1  0
 16 15  2  0
 18 20  1  0
 18 17  1  6
 19 18  1  0
 20 22  1  0
 20 21  1  1
 22 23  1  0
 24 22  2  0
M  END
$$$$
