TKT.pdb
     RDKit          3D

 24 23  0  0  1  0  0  0  0  0999 V2000
    8.7670  -12.6630   20.3186 C   0  0  0  0  0  0  0  0  0  0  0  0
    7.9470  -13.4276   19.3055 C   0  0  1  0  0  0  0  0  0  0  0  0
    8.2245  -12.9540   18.0367 O   0  0  0  0  0  0  0  0  0  0  0  0
    8.2182  -14.9115   19.4383 C   0  0  2  0  0  0  0  0  0  0  0  0
    7.5437  -15.5758   18.3596 N   0  0  0  0  0  0  0  0  0  0  0  0
    7.7642  -15.3602   20.7606 C   0  0  0  0  0  0  0  0  0  0  0  0
    6.5414  -15.5534   20.9525 O   0  0  0  0  0  0  0  0  0  0  0  0
    8.6645  -15.5837   21.8332 N   0  0  0  0  0  0  0  0  0  0  0  0
    8.2096  -16.1922   23.1117 C   0  0  1  0  0  0  0  0  0  0  0  0
    8.9958  -17.4566   23.2491 C   0  0  0  0  0  0  0  0  0  0  0  0
    8.4428  -18.6203   22.4875 C   0  0  0  0  0  0  0  0  0  0  0  0
    9.3481  -19.8482   22.6435 C   0  0  0  0  0  0  0  0  0  0  0  0
    8.8181  -20.9532   21.7523 C   0  0  0  0  0  0  0  0  0  0  0  0
    9.6696  -22.1417   21.8476 N   0  0  0  0  0  0  0  0  0  0  0  0
    8.4075  -15.2105   24.1851 C   0  0  0  0  0  0  0  0  0  0  0  0
    9.4820  -14.5489   24.1777 O   0  0  0  0  0  0  0  0  0  0  0  0
    7.0308  -11.7944   27.2989 C   0  0  0  0  0  0  0  0  0  0  0  0
    6.5952  -12.9417   26.4103 C   0  0  1  0  0  0  0  0  0  0  0  0
    5.9244  -12.5183   25.2909 O   0  0  0  0  0  0  0  0  0  0  0  0
    7.7386  -13.8544   26.1394 C   0  0  2  0  0  0  0  0  0  0  0  0
    7.5032  -14.9242   25.2379 N   0  0  0  0  0  0  0  0  0  0  0  0
    8.4252  -14.2470   27.4098 C   0  0  0  0  0  0  0  0  0  0  0  0
    8.9053  -13.2819   28.2744 O   0  0  0  0  0  0  0  0  0  0  0  0
    8.5768  -15.4450   27.7114 O   0  0  0  0  0  0  0  0  0  0  0  0
  2  1  1  1
  2  3  1  0
  4  2  1  0
  4  5  1  6
  6  4  1  0
  7  6  2  0
  8  6  1  0
  9  8  1  0
  9 10  1  1
 10 11  1  0
 11 12  1  0
 12 13  1  0
 13 14  1  0
 15 21  1  0
 15  9  1  0
 16 15  2  0
 18 20  1  0
 18 17  1  6
 19 18  1  0
 20 22  1  0
 20 21  1  1
 22 23  1  0
 24 22  2  0
M  END
$$$$
