TKT.pdb
     RDKit          3D

 24 23  0  0  1  0  0  0  0  0999 V2000
   11.8664  -22.2667   11.2882 C   0  0  0  0  0  0  0  0  0  0  0  0
   11.4281  -22.2435   12.7342 C   0  0  1  0  0  0  0  0  0  0  0  0
   12.4039  -21.6348   13.5014 O   0  0  0  0  0  0  0  0  0  0  0  0
   10.0863  -21.5520   12.8543 C   0  0  2  0  0  0  0  0  0  0  0  0
   10.2398  -20.2142   12.3578 N   0  0  0  0  0  0  0  0  0  0  0  0
    9.6536  -21.5964   14.2567 C   0  0  0  0  0  0  0  0  0  0  0  0
    9.7493  -20.5625   14.9575 O   0  0  0  0  0  0  0  0  0  0  0  0
    9.1290  -22.7732   14.8490 N   0  0  0  0  0  0  0  0  0  0  0  0
    8.6241  -22.7769   16.2479 C   0  0  1  0  0  0  0  0  0  0  0  0
    7.6188  -23.8825   16.3020 C   0  0  0  0  0  0  0  0  0  0  0  0
    7.7901  -24.8249   17.4521 C   0  0  0  0  0  0  0  0  0  0  0  0
    6.7132  -25.9162   17.4221 C   0  0  0  0  0  0  0  0  0  0  0  0
    6.8667  -26.7779   18.6590 C   0  0  0  0  0  0  0  0  0  0  0  0
    5.9748  -27.9382   18.5896 N   0  0  0  0  0  0  0  0  0  0  0  0
    9.7714  -22.9274   17.1512 C   0  0  0  0  0  0  0  0  0  0  0  0
   10.8178  -23.4524   16.6802 O   0  0  0  0  0  0  0  0  0  0  0  0
   12.1192  -21.2536   21.0903 C   0  0  0  0  0  0  0  0  0  0  0  0
   11.4153  -21.1029   19.7570 C   0  0  1  0  0  0  0  0  0  0  0  0
   12.0938  -20.2835   18.8907 O   0  0  0  0  0  0  0  0  0  0  0  0
   11.0620  -22.4367   19.2004 C   0  0  2  0  0  0  0  0  0  0  0  0
    9.8256  -22.5351   18.5118 N   0  0  0  0  0  0  0  0  0  0  0  0
   11.3067  -23.5195   20.2039 C   0  0  0  0  0  0  0  0  0  0  0  0
   10.2529  -24.2530   20.7148 O   0  0  0  0  0  0  0  0  0  0  0  0
   12.4588  -23.7797   20.5965 O   0  0  0  0  0  0  0  0  0  0  0  0
  2  1  1  6
  2  3  1  0
  4  2  1  0
  4  5  1  1
  6  4  1  0
  7  6  2  0
  8  6  1  0
  9  8  1  0
  9 10  1  6
 10 11  1  0
 11 12  1  0
 12 13  1  0
 13 14  1  0
 15 21  1  0
 15  9  1  0
 16 15  2  0
 18 20  1  0
 18 17  1  1
 19 18  1  0
 20 22  1  0
 20 21  1  1
 22 23  1  0
 24 22  2  0
M  END
$$$$
