TKT.pdb
     RDKit          3D

 24 23  0  0  1  0  0  0  0  0999 V2000
    7.0797  -11.5212   27.6623 C   0  0  0  0  0  0  0  0  0  0  0  0
    7.4586  -12.6466   26.7277 C   0  0  1  0  0  0  0  0  0  0  0  0
    7.8729  -13.7391   27.4666 O   0  0  0  0  0  0  0  0  0  0  0  0
    6.2931  -12.9749   25.8184 C   0  0  2  0  0  0  0  0  0  0  0  0
    5.2426  -13.5142   26.6342 N   0  0  0  0  0  0  0  0  0  0  0  0
    6.7492  -13.9085   24.7809 C   0  0  0  0  0  0  0  0  0  0  0  0
    6.5690  -15.1374   24.9443 O   0  0  0  0  0  0  0  0  0  0  0  0
    7.3893  -13.4669   23.5951 N   0  0  0  0  0  0  0  0  0  0  0  0
    7.6898  -14.4060   22.4817 C   0  0  1  0  0  0  0  0  0  0  0  0
    7.7955  -13.5498   21.2605 C   0  0  0  0  0  0  0  0  0  0  0  0
    8.0742  -14.2999   19.9956 C   0  0  0  0  0  0  0  0  0  0  0  0
    8.0570  -13.3524   18.7900 C   0  0  0  0  0  0  0  0  0  0  0  0
    8.2684  -14.1704   17.5321 C   0  0  0  0  0  0  0  0  0  0  0  0
    8.3436  -13.2963   16.3586 N   0  0  0  0  0  0  0  0  0  0  0  0
    8.9024  -15.1576   22.8279 C   0  0  0  0  0  0  0  0  0  0  0  0
    9.8012  -14.5481   23.4706 O   0  0  0  0  0  0  0  0  0  0  0  0
   11.5554  -19.1390   23.8075 C   0  0  0  0  0  0  0  0  0  0  0  0
   10.2013  -18.5548   23.4598 C   0  0  1  0  0  0  0  0  0  0  0  0
    9.2824  -18.7149   24.4659 O   0  0  0  0  0  0  0  0  0  0  0  0
   10.3467  -17.1574   22.9698 C   0  0  2  0  0  0  0  0  0  0  0  0
    9.1676  -16.5137   22.5140 N   0  0  0  0  0  0  0  0  0  0  0  0
   11.5231  -17.0291   22.0539 C   0  0  0  0  0  0  0  0  0  0  0  0
   12.7981  -16.8832   22.5663 O   0  0  0  0  0  0  0  0  0  0  0  0
   11.3772  -17.0512   20.8180 O   0  0  0  0  0  0  0  0  0  0  0  0
  2  1  1  1
  2  3  1  0
  4  2  1  0
  4  5  1  1
  6  4  1  0
  7  6  2  0
  8  6  1  0
  9  8  1  0
  9 10  1  6
 10 11  1  0
 11 12  1  0
 12 13  1  0
 13 14  1  0
 15 21  1  0
 15  9  1  0
 16 15  2  0
 18 20  1  0
 18 17  1  1
 19 18  1  0
 20 22  1  0
 20 21  1  6
 22 23  1  0
 24 22  2  0
M  END
$$$$
