STC.pdb
     RDKit          3D

 20 19  0  0  1  0  0  0  0  0999 V2000
    7.9455  -16.7150   16.1920 O   0  0  0  0  0  0  0  0  0  0  0  0
    8.9989  -17.5585   16.4703 C   0  0  0  0  0  0  0  0  0  0  0  0
    8.9281  -18.1564   17.8540 C   0  0  2  0  0  0  0  0  0  0  0  0
    7.6423  -18.7271   18.1024 N   0  0  0  0  0  0  0  0  0  0  0  0
    9.3641  -17.2064   18.8988 C   0  0  0  0  0  0  0  0  0  0  0  0
   10.5060  -16.7022   18.8072 O   0  0  0  0  0  0  0  0  0  0  0  0
    6.9023  -14.4429   20.6964 C   0  0  0  0  0  0  0  0  0  0  0  0
    7.7590  -15.2087   21.6627 C   0  0  1  0  0  0  0  0  0  0  0  0
    6.9469  -16.1514   22.2895 O   0  0  0  0  0  0  0  0  0  0  0  0
    8.9398  -15.8710   20.9927 C   0  0  2  0  0  0  0  0  0  0  0  0
    8.5469  -16.8328   20.0113 N   0  0  0  0  0  0  0  0  0  0  0  0
    9.8484  -16.5215   21.9605 C   0  0  0  0  0  0  0  0  0  0  0  0
    9.8739  -17.7674   22.1350 O   0  0  0  0  0  0  0  0  0  0  0  0
   10.7522  -15.7633   22.7544 N   0  0  0  0  0  0  0  0  0  0  0  0
   11.6829  -16.4001   23.6428 C   0  0  1  0  0  0  0  0  0  0  0  0
   13.0315  -15.7327   23.6641 C   0  0  0  0  0  0  0  0  0  0  0  0
   14.2118  -16.8777   24.4330 S   0  0  0  0  0  0  0  0  0  0  0  0
   11.1308  -16.5005   25.0356 C   0  0  0  0  0  0  0  0  0  0  0  0
   11.7177  -17.1740   25.9333 O   0  0  0  0  0  0  0  0  0  0  0  0
    9.9588  -15.8608   25.3925 O   0  0  0  0  0  0  0  0  0  0  0  0
  1  2  1  0
  3  5  1  0
  3  4  1  1
  3  2  1  0
  5  6  2  0
  8  7  1  6
  8 10  1  0
  9  8  1  0
 10 12  1  0
 10 11  1  6
 11  5  1  0
 12 13  2  0
 12 14  1  0
 14 15  1  0
 15 18  1  0
 15 16  1  1
 16 17  1  0
 18 19  2  0
 18 20  1  0
M  END
$$$$
