STC.pdb
     RDKit          3D

 20 19  0  0  1  0  0  0  0  0999 V2000
   12.9305  -17.5621   21.4479 O   0  0  0  0  0  0  0  0  0  0  0  0
   12.0105  -17.6124   20.4234 C   0  0  0  0  0  0  0  0  0  0  0  0
   11.6711  -16.2518   19.8661 C   0  0  2  0  0  0  0  0  0  0  0  0
   12.8267  -15.6197   19.3130 N   0  0  0  0  0  0  0  0  0  0  0  0
   10.9481  -15.4100   20.8422 C   0  0  0  0  0  0  0  0  0  0  0  0
   11.5650  -14.4685   21.3898 O   0  0  0  0  0  0  0  0  0  0  0  0
    7.2384  -13.8054   20.5096 C   0  0  0  0  0  0  0  0  0  0  0  0
    7.4175  -14.6161   21.7606 C   0  0  1  0  0  0  0  0  0  0  0  0
    6.7947  -15.8457   21.5580 O   0  0  0  0  0  0  0  0  0  0  0  0
    8.8706  -14.7994   22.1303 C   0  0  2  0  0  0  0  0  0  0  0  0
    9.5774  -15.6159   21.1940 N   0  0  0  0  0  0  0  0  0  0  0  0
    9.0431  -15.3680   23.4838 C   0  0  0  0  0  0  0  0  0  0  0  0
    9.5671  -16.4943   23.6846 O   0  0  0  0  0  0  0  0  0  0  0  0
    8.6206  -14.6627   24.6440 N   0  0  0  0  0  0  0  0  0  0  0  0
    8.6846  -15.2604   25.9476 C   0  0  1  0  0  0  0  0  0  0  0  0
    8.2963  -14.3146   27.0518 C   0  0  0  0  0  0  0  0  0  0  0  0
    9.0077  -12.6881   26.6730 S   0  0  0  0  0  0  0  0  0  0  0  0
    7.8559  -16.5107   26.0189 C   0  0  0  0  0  0  0  0  0  0  0  0
    7.8590  -17.2490   27.0480 O   0  0  0  0  0  0  0  0  0  0  0  0
    7.0565  -16.9049   24.9627 O   0  0  0  0  0  0  0  0  0  0  0  0
  1  2  1  0
  3  5  1  0
  3  4  1  1
  3  2  1  0
  5  6  2  0
  8  7  1  6
  8 10  1  0
  9  8  1  0
 10 12  1  0
 10 11  1  6
 11  5  1  0
 12 13  2  0
 12 14  1  0
 14 15  1  0
 15 18  1  0
 15 16  1  1
 16 17  1  0
 18 19  2  0
 18 20  1  0
M  END
$$$$
