STC.pdb
     RDKit          3D

 20 19  0  0  1  0  0  0  0  0999 V2000
    8.7219  -11.4702   17.4687 O   0  0  0  0  0  0  0  0  0  0  0  0
    8.4550  -12.5795   18.2411 C   0  0  0  0  0  0  0  0  0  0  0  0
    8.5367  -13.8724   17.4673 C   0  0  2  0  0  0  0  0  0  0  0  0
    7.5247  -13.9342   16.4608 N   0  0  0  0  0  0  0  0  0  0  0  0
    8.5619  -15.0556   18.3524 C   0  0  0  0  0  0  0  0  0  0  0  0
    7.4723  -15.5710   18.6900 O   0  0  0  0  0  0  0  0  0  0  0  0
   10.2028  -18.3066   17.7391 C   0  0  0  0  0  0  0  0  0  0  0  0
   10.6331  -17.9152   19.1232 C   0  0  1  0  0  0  0  0  0  0  0  0
   11.9781  -17.5574   19.0603 O   0  0  0  0  0  0  0  0  0  0  0  0
    9.8000  -16.7920   19.6941 C   0  0  2  0  0  0  0  0  0  0  0  0
    9.7693  -15.6433   18.8442 N   0  0  0  0  0  0  0  0  0  0  0  0
   10.2533  -16.3778   21.0388 C   0  0  0  0  0  0  0  0  0  0  0  0
   10.6041  -15.1986   21.3030 O   0  0  0  0  0  0  0  0  0  0  0  0
   10.3172  -17.3023   22.1173 N   0  0  0  0  0  0  0  0  0  0  0  0
   10.7408  -16.8955   23.4273 C   0  0  1  0  0  0  0  0  0  0  0  0
    9.6153  -16.3681   24.2757 C   0  0  0  0  0  0  0  0  0  0  0  0
   10.2947  -15.9353   25.9025 S   0  0  0  0  0  0  0  0  0  0  0  0
   11.4542  -18.0065   24.1426 C   0  0  0  0  0  0  0  0  0  0  0  0
   11.3532  -19.2105   23.7628 O   0  0  0  0  0  0  0  0  0  0  0  0
   12.2499  -17.7579   25.2449 O   0  0  0  0  0  0  0  0  0  0  0  0
  1  2  1  0
  3  5  1  0
  3  4  1  6
  3  2  1  0
  5  6  2  0
  8  7  1  6
  8 10  1  0
  9  8  1  0
 10 12  1  0
 10 11  1  6
 11  5  1  0
 12 13  2  0
 12 14  1  0
 14 15  1  0
 15 18  1  0
 15 16  1  1
 16 17  1  0
 18 19  2  0
 18 20  1  0
M  END
$$$$
