STC.pdb
     RDKit          3D

 20 19  0  0  1  0  0  0  0  0999 V2000
    7.2917  -19.4357   18.8802 O   0  0  0  0  0  0  0  0  0  0  0  0
    6.3388  -18.5858   18.3624 C   0  0  0  0  0  0  0  0  0  0  0  0
    6.9326  -17.3990   17.6440 C   0  0  2  0  0  0  0  0  0  0  0  0
    7.4058  -17.7668   16.3472 N   0  0  0  0  0  0  0  0  0  0  0  0
    7.9416  -16.6948   18.4626 C   0  0  0  0  0  0  0  0  0  0  0  0
    9.1442  -16.7736   18.1246 O   0  0  0  0  0  0  0  0  0  0  0  0
    7.6822  -12.9746   19.8344 C   0  0  0  0  0  0  0  0  0  0  0  0
    8.0776  -13.9146   20.9363 C   0  0  1  0  0  0  0  0  0  0  0  0
    6.9655  -14.0934   21.7563 O   0  0  0  0  0  0  0  0  0  0  0  0
    8.5849  -15.2387   20.4156 C   0  0  2  0  0  0  0  0  0  0  0  0
    7.6141  -15.9263   19.6234 N   0  0  0  0  0  0  0  0  0  0  0  0
    9.0389  -16.1366   21.4985 C   0  0  0  0  0  0  0  0  0  0  0  0
    8.4912  -17.2445   21.7353 O   0  0  0  0  0  0  0  0  0  0  0  0
   10.1321  -15.7906   22.3395 N   0  0  0  0  0  0  0  0  0  0  0  0
   10.8807  -16.7929   23.0436 C   0  0  1  0  0  0  0  0  0  0  0  0
   11.3639  -17.9051   22.1526 C   0  0  0  0  0  0  0  0  0  0  0  0
   12.2024  -19.1335   23.1934 S   0  0  0  0  0  0  0  0  0  0  0  0
   12.0335  -16.1902   23.7940 C   0  0  0  0  0  0  0  0  0  0  0  0
   12.9242  -15.5101   23.2039 O   0  0  0  0  0  0  0  0  0  0  0  0
   12.1674  -16.3546   25.1597 O   0  0  0  0  0  0  0  0  0  0  0  0
  1  2  1  0
  3  5  1  0
  3  4  1  6
  3  2  1  0
  5  6  2  0
  8  7  1  6
  8 10  1  0
  9  8  1  0
 10 12  1  0
 10 11  1  1
 11  5  1  0
 12 13  2  0
 12 14  1  0
 14 15  1  0
 15 18  1  0
 15 16  1  6
 16 17  1  0
 18 19  2  0
 18 20  1  0
M  END
$$$$
