STC.pdb
     RDKit          3D

 20 19  0  0  1  0  0  0  0  0999 V2000
   10.2514  -18.4771   15.3410 O   0  0  0  0  0  0  0  0  0  0  0  0
    9.4501  -17.7808   16.2194 C   0  0  0  0  0  0  0  0  0  0  0  0
    9.5051  -16.2870   16.0128 C   0  0  2  0  0  0  0  0  0  0  0  0
   10.3433  -15.9514   14.9057 N   0  0  0  0  0  0  0  0  0  0  0  0
    9.8475  -15.5610   17.2537 C   0  0  0  0  0  0  0  0  0  0  0  0
   11.0002  -15.0871   17.3684 O   0  0  0  0  0  0  0  0  0  0  0  0
    7.5932  -12.8329   19.1433 C   0  0  0  0  0  0  0  0  0  0  0  0
    8.0815  -13.8928   20.0879 C   0  0  1  0  0  0  0  0  0  0  0  0
    7.0082  -14.7372   20.3640 O   0  0  0  0  0  0  0  0  0  0  0  0
    9.2528  -14.6692   19.5338 C   0  0  2  0  0  0  0  0  0  0  0  0
    8.9278  -15.3718   18.3323 N   0  0  0  0  0  0  0  0  0  0  0  0
    9.8094  -15.6286   20.5111 C   0  0  0  0  0  0  0  0  0  0  0  0
    9.6539  -16.8727   20.4043 O   0  0  0  0  0  0  0  0  0  0  0  0
   10.5590  -15.1896   21.6369 N   0  0  0  0  0  0  0  0  0  0  0  0
   11.0631  -16.1187   22.6083 C   0  0  1  0  0  0  0  0  0  0  0  0
   12.4296  -15.7537   23.1223 C   0  0  0  0  0  0  0  0  0  0  0  0
   12.9420  -17.0296   24.3076 S   0  0  0  0  0  0  0  0  0  0  0  0
   10.1058  -16.2890   23.7527 C   0  0  0  0  0  0  0  0  0  0  0  0
    9.2495  -15.4002   24.0371 O   0  0  0  0  0  0  0  0  0  0  0  0
   10.1221  -17.4239   24.5412 O   0  0  0  0  0  0  0  0  0  0  0  0
  1  2  1  0
  3  5  1  0
  3  4  1  6
  3  2  1  0
  5  6  2  0
  8  7  1  6
  8 10  1  0
  9  8  1  0
 10 12  1  0
 10 11  1  6
 11  5  1  0
 12 13  2  0
 12 14  1  0
 14 15  1  0
 15 18  1  0
 15 16  1  1
 16 17  1  0
 18 19  2  0
 18 20  1  0
M  END
$$$$
