STC.pdb
     RDKit          3D

 20 19  0  0  1  0  0  0  0  0999 V2000
    8.1894  -20.0592   16.8896 O   0  0  0  0  0  0  0  0  0  0  0  0
    8.2485  -19.1117   17.8882 C   0  0  0  0  0  0  0  0  0  0  0  0
    8.2233  -17.6971   17.3635 C   0  0  2  0  0  0  0  0  0  0  0  0
    8.7730  -17.6272   16.0467 N   0  0  0  0  0  0  0  0  0  0  0  0
    8.8309  -16.7370   18.3085 C   0  0  0  0  0  0  0  0  0  0  0  0
   10.0254  -16.4053   18.1358 O   0  0  0  0  0  0  0  0  0  0  0  0
    7.1815  -13.3733   19.9317 C   0  0  0  0  0  0  0  0  0  0  0  0
    7.7442  -14.3105   20.9608 C   0  0  1  0  0  0  0  0  0  0  0  0
    6.6730  -14.9694   21.5603 O   0  0  0  0  0  0  0  0  0  0  0  0
    8.7261  -15.2964   20.3729 C   0  0  2  0  0  0  0  0  0  0  0  0
    8.1232  -16.1664   19.4124 N   0  0  0  0  0  0  0  0  0  0  0  0
    9.3926  -16.1165   21.4065 C   0  0  0  0  0  0  0  0  0  0  0  0
    9.0695  -17.3106   21.6374 O   0  0  0  0  0  0  0  0  0  0  0  0
   10.4469  -15.5920   22.2036 N   0  0  0  0  0  0  0  0  0  0  0  0
   11.0998  -16.3919   23.2009 C   0  0  1  0  0  0  0  0  0  0  0  0
   12.4621  -15.8740   23.5758 C   0  0  0  0  0  0  0  0  0  0  0  0
   13.1976  -17.0367   24.7601 S   0  0  0  0  0  0  0  0  0  0  0  0
   10.2463  -16.5442   24.4270 C   0  0  0  0  0  0  0  0  0  0  0  0
    9.3859  -15.6716   24.7471 O   0  0  0  0  0  0  0  0  0  0  0  0
   10.3666  -17.6442   25.2550 O   0  0  0  0  0  0  0  0  0  0  0  0
  1  2  1  0
  3  5  1  0
  3  4  1  6
  3  2  1  0
  5  6  2  0
  8  7  1  6
  8 10  1  0
  9  8  1  0
 10 12  1  0
 10 11  1  6
 11  5  1  0
 12 13  2  0
 12 14  1  0
 14 15  1  0
 15 18  1  0
 15 16  1  1
 16 17  1  0
 18 19  2  0
 18 20  1  0
M  END
$$$$
