STC.pdb
     RDKit          3D

 20 19  0  0  1  0  0  0  0  0999 V2000
    7.9478  -19.3004   19.0831 O   0  0  0  0  0  0  0  0  0  0  0  0
    8.5854  -18.9823   17.9038 C   0  0  0  0  0  0  0  0  0  0  0  0
    8.6389  -17.4970   17.6425 C   0  0  2  0  0  0  0  0  0  0  0  0
    9.3344  -17.2133   16.4273 N   0  0  0  0  0  0  0  0  0  0  0  0
    9.1494  -16.7407   18.8051 C   0  0  0  0  0  0  0  0  0  0  0  0
   10.3874  -16.6788   18.9792 O   0  0  0  0  0  0  0  0  0  0  0  0
    7.5888  -13.2642   20.1995 C   0  0  0  0  0  0  0  0  0  0  0  0
    7.8597  -14.2435   21.3049 C   0  0  1  0  0  0  0  0  0  0  0  0
    6.6329  -14.7498   21.7286 O   0  0  0  0  0  0  0  0  0  0  0  0
    8.7874  -15.3571   20.8793 C   0  0  2  0  0  0  0  0  0  0  0  0
    8.3002  -16.0746   19.7433 N   0  0  0  0  0  0  0  0  0  0  0  0
    9.0566  -16.3177   21.9701 C   0  0  0  0  0  0  0  0  0  0  0  0
    8.5902  -17.4864   21.9752 O   0  0  0  0  0  0  0  0  0  0  0  0
    9.8670  -15.9664   23.0846 N   0  0  0  0  0  0  0  0  0  0  0  0
   10.5440  -16.9657   23.8618 C   0  0  1  0  0  0  0  0  0  0  0  0
   11.5103  -17.7892   23.0539 C   0  0  0  0  0  0  0  0  0  0  0  0
   12.2442  -19.0323   24.1545 S   0  0  0  0  0  0  0  0  0  0  0  0
   11.2410  -16.3601   25.0461 C   0  0  0  0  0  0  0  0  0  0  0  0
   11.3033  -16.9642   26.1575 O   0  0  0  0  0  0  0  0  0  0  0  0
   11.8425  -15.1182   24.9691 O   0  0  0  0  0  0  0  0  0  0  0  0
  1  2  1  0
  3  5  1  0
  3  4  1  6
  3  2  1  0
  5  6  2  0
  8  7  1  6
  8 10  1  0
  9  8  1  0
 10 12  1  0
 10 11  1  6
 11  5  1  0
 12 13  2  0
 12 14  1  0
 14 15  1  0
 15 18  1  0
 15 16  1  6
 16 17  1  0
 18 19  2  0
 18 20  1  0
M  END
$$$$
