STC.pdb
     RDKit          3D

 20 19  0  0  1  0  0  0  0  0999 V2000
    9.3782  -12.2369   18.6342 O   0  0  0  0  0  0  0  0  0  0  0  0
    8.4659  -12.6761   19.5687 C   0  0  0  0  0  0  0  0  0  0  0  0
    8.3552  -14.1799   19.6257 C   0  0  2  0  0  0  0  0  0  0  0  0
    7.6868  -14.6906   18.4710 N   0  0  0  0  0  0  0  0  0  0  0  0
    7.7751  -14.6520   20.9004 C   0  0  0  0  0  0  0  0  0  0  0  0
    6.5292  -14.7170   21.0006 O   0  0  0  0  0  0  0  0  0  0  0  0
    7.8054  -17.8922   22.2402 C   0  0  0  0  0  0  0  0  0  0  0  0
    8.3326  -17.0662   23.3777 C   0  0  1  0  0  0  0  0  0  0  0  0
    9.7080  -17.2765   23.4483 O   0  0  0  0  0  0  0  0  0  0  0  0
    8.0166  -15.5971   23.2234 C   0  0  2  0  0  0  0  0  0  0  0  0
    8.5656  -15.0392   22.0275 N   0  0  0  0  0  0  0  0  0  0  0  0
    8.4750  -14.7951   24.3775 C   0  0  0  0  0  0  0  0  0  0  0  0
    9.6102  -14.2538   24.4192 O   0  0  0  0  0  0  0  0  0  0  0  0
    7.6464  -14.5912   25.5149 N   0  0  0  0  0  0  0  0  0  0  0  0
    8.1335  -13.9150   26.6838 C   0  0  1  0  0  0  0  0  0  0  0  0
    7.0774  -13.0977   27.3777 C   0  0  0  0  0  0  0  0  0  0  0  0
    6.3852  -11.9335   26.1691 S   0  0  0  0  0  0  0  0  0  0  0  0
    8.7653  -14.8756   27.6498 C   0  0  0  0  0  0  0  0  0  0  0  0
    9.3004  -14.4761   28.7260 O   0  0  0  0  0  0  0  0  0  0  0  0
    8.7873  -16.2350   27.4016 O   0  0  0  0  0  0  0  0  0  0  0  0
  1  2  1  0
  3  5  1  0
  3  4  1  6
  3  2  1  0
  5  6  2  0
  8  7  1  6
  8 10  1  0
  9  8  1  0
 10 12  1  0
 10 11  1  6
 11  5  1  0
 12 13  2  0
 12 14  1  0
 14 15  1  0
 15 18  1  0
 15 16  1  1
 16 17  1  0
 18 19  2  0
 18 20  1  0
M  END
$$$$
