KEA.pdb
     RDKit          3D

 24 23  0  0  1  0  0  0  0  0999 V2000
   16.8319  -19.3174    1.5347 N   0  0  0  0  0  0  0  0  0  0  0  0
   16.5937  -19.4905    2.9225 C   0  0  1  0  0  0  0  0  0  0  0  0
   16.7967  -20.8434    3.4921 C   0  0  0  0  0  0  0  0  0  0  0  0
   15.9671  -21.9184    2.9002 C   0  0  0  0  0  0  0  0  0  0  0  0
   16.2712  -23.2807    3.4293 C   0  0  0  0  0  0  0  0  0  0  0  0
   15.3866  -24.2975    2.6982 C   0  0  0  0  0  0  0  0  0  0  0  0
   15.7421  -25.6152    3.1576 N   0  0  0  0  0  0  0  0  0  0  0  0
   17.2820  -18.4325    3.7505 C   0  0  0  0  0  0  0  0  0  0  0  0
   18.3315  -17.9719    3.2821 O   0  0  0  0  0  0  0  0  0  0  0  0
   16.8054  -17.9604    4.9860 N   0  0  0  0  0  0  0  0  0  0  0  0
   17.4727  -16.8822    5.6249 C   0  0  1  0  0  0  0  0  0  0  0  0
   16.5044  -15.8804    6.2628 C   0  0  0  0  0  0  0  0  0  0  0  0
   17.2831  -14.6749    6.7872 C   0  0  0  0  0  0  0  0  0  0  0  0
   16.4093  -13.6890    7.4251 C   0  0  0  0  0  0  0  0  0  0  0  0
   15.1699  -13.8679    7.5399 O   0  0  0  0  0  0  0  0  0  0  0  0
   18.4422  -17.2435    6.6632 C   0  0  0  0  0  0  0  0  0  0  0  0
   18.1294  -18.2723    7.3586 O   0  0  0  0  0  0  0  0  0  0  0  0
   16.9468  -12.5168    7.9229 O   0  0  0  0  0  0  0  0  0  0  0  0
   21.8239  -16.3319    7.9422 C   0  0  0  0  0  0  0  0  0  0  0  0
   20.4720  -17.0249    8.0309 C   0  0  2  0  0  0  0  0  0  0  0  0
   19.6403  -16.5674    6.9357 N   0  0  0  0  0  0  0  0  0  0  0  0
   19.8374  -16.6327    9.3183 C   0  0  0  0  0  0  0  0  0  0  0  0
   18.8645  -15.8482    9.3268 O   0  0  0  0  0  0  0  0  0  0  0  0
   20.2906  -17.1127   10.5387 O   0  0  0  0  0  0  0  0  0  0  0  0
  2  1  1  6
  3  2  1  0
  4  3  1  0
  5  4  1  0
  6  5  1  0
  7  6  1  0
  8  2  1  0
  8  9  2  0
 10  8  1  0
 11 10  1  0
 11 12  1  1
 12 13  1  0
 14 13  1  0
 15 14  2  0
 16 11  1  0
 17 16  2  0
 18 14  1  0
 20 19  1  6
 20 21  1  0
 21 16  1  0
 22 24  1  0
 22 20  1  0
 23 22  2  0
M  END
$$$$
