KEA.pdb
     RDKit          3D

 24 23  0  0  1  0  0  0  0  0999 V2000
   19.3046  -11.8424  -15.4201 N   0  0  0  0  0  0  0  0  0  0  0  0
   19.6109  -10.9174  -16.4512 C   0  0  1  0  0  0  0  0  0  0  0  0
   18.6690  -10.8207  -17.5912 C   0  0  0  0  0  0  0  0  0  0  0  0
   17.8134  -12.0087  -17.8173 C   0  0  0  0  0  0  0  0  0  0  0  0
   17.0383  -11.9646  -19.0923 C   0  0  0  0  0  0  0  0  0  0  0  0
   16.2032  -13.2457  -19.2010 C   0  0  0  0  0  0  0  0  0  0  0  0
   15.5308  -13.2377  -20.4744 N   0  0  0  0  0  0  0  0  0  0  0  0
   19.9581   -9.5544  -15.9033 C   0  0  0  0  0  0  0  0  0  0  0  0
   19.4086   -9.2392  -14.8394 O   0  0  0  0  0  0  0  0  0  0  0  0
   20.8451   -8.6556  -16.5211 N   0  0  0  0  0  0  0  0  0  0  0  0
   21.1030   -7.3998  -15.9108 C   0  0  1  0  0  0  0  0  0  0  0  0
   22.5704   -6.9740  -16.0280 C   0  0  0  0  0  0  0  0  0  0  0  0
   22.8092   -5.7164  -15.1938 C   0  0  0  0  0  0  0  0  0  0  0  0
   24.1855   -5.2317  -15.3085 C   0  0  0  0  0  0  0  0  0  0  0  0
   25.1761   -6.0006  -15.2145 O   0  0  0  0  0  0  0  0  0  0  0  0
   20.3018   -6.2695  -16.3893 C   0  0  0  0  0  0  0  0  0  0  0  0
   20.4815   -5.9638  -17.6198 O   0  0  0  0  0  0  0  0  0  0  0  0
   24.4231   -3.8875  -15.5268 O   0  0  0  0  0  0  0  0  0  0  0  0
   17.2357   -4.4360  -15.6782 C   0  0  0  0  0  0  0  0  0  0  0  0
   18.6430   -4.4615  -16.2568 C   0  0  2  0  0  0  0  0  0  0  0  0
   19.3888   -5.5305  -15.6232 N   0  0  0  0  0  0  0  0  0  0  0  0
   19.2943   -3.1618  -15.9398 C   0  0  0  0  0  0  0  0  0  0  0  0
   18.8063   -2.0930  -16.3660 O   0  0  0  0  0  0  0  0  0  0  0  0
   20.4477   -3.0841  -15.1723 O   0  0  0  0  0  0  0  0  0  0  0  0
  2  1  1  1
  3  2  1  0
  4  3  1  0
  5  4  1  0
  6  5  1  0
  7  6  1  0
  8  2  1  0
  8  9  2  0
 10  8  1  0
 11 10  1  0
 11 12  1  6
 12 13  1  0
 14 13  1  0
 15 14  2  0
 16 11  1  0
 17 16  2  0
 18 14  1  0
 20 19  1  1
 20 21  1  0
 21 16  1  0
 22 24  1  0
 22 20  1  0
 23 22  2  0
M  END
$$$$
