KEA.pdb
     RDKit          3D

 24 23  0  0  1  0  0  0  0  0999 V2000
   17.1410  -12.3014  -15.9665 N   0  0  0  0  0  0  0  0  0  0  0  0
   18.5561  -12.3432  -15.8756 C   0  0  1  0  0  0  0  0  0  0  0  0
   19.2472  -13.5275  -16.4377 C   0  0  0  0  0  0  0  0  0  0  0  0
   18.3814  -14.6912  -16.7383 C   0  0  0  0  0  0  0  0  0  0  0  0
   18.2618  -15.6653  -15.6136 C   0  0  0  0  0  0  0  0  0  0  0  0
   17.3673  -16.8258  -16.0653 C   0  0  0  0  0  0  0  0  0  0  0  0
   17.3806  -17.8314  -15.0347 N   0  0  0  0  0  0  0  0  0  0  0  0
   19.1912  -11.0571  -16.3459 C   0  0  0  0  0  0  0  0  0  0  0  0
   20.4284  -11.0466  -16.3940 O   0  0  0  0  0  0  0  0  0  0  0  0
   18.4707   -9.9091  -16.7194 N   0  0  0  0  0  0  0  0  0  0  0  0
   19.1745   -8.7221  -17.0536 C   0  0  1  0  0  0  0  0  0  0  0  0
   18.4482   -7.8791  -18.1072 C   0  0  0  0  0  0  0  0  0  0  0  0
   19.2992   -6.6627  -18.4685 C   0  0  0  0  0  0  0  0  0  0  0  0
   18.6038   -5.7548  -19.3820 C   0  0  0  0  0  0  0  0  0  0  0  0
   18.2189   -4.6119  -19.0257 O   0  0  0  0  0  0  0  0  0  0  0  0
   19.4884   -7.8196  -15.9420 C   0  0  0  0  0  0  0  0  0  0  0  0
   18.5317   -7.6343  -15.1112 O   0  0  0  0  0  0  0  0  0  0  0  0
   18.3525   -6.1503  -20.6825 O   0  0  0  0  0  0  0  0  0  0  0  0
   22.3299   -6.3977  -14.1129 C   0  0  0  0  0  0  0  0  0  0  0  0
   20.8777   -6.3339  -14.5633 C   0  0  2  0  0  0  0  0  0  0  0  0
   20.7150   -7.1722  -15.7344 N   0  0  0  0  0  0  0  0  0  0  0  0
   20.5711   -4.9246  -14.9294 C   0  0  0  0  0  0  0  0  0  0  0  0
   20.6238   -4.5591  -16.1234 O   0  0  0  0  0  0  0  0  0  0  0  0
   20.2203   -3.9767  -13.9788 O   0  0  0  0  0  0  0  0  0  0  0  0
  2  1  1  6
  3  2  1  0
  4  3  1  0
  5  4  1  0
  6  5  1  0
  7  6  1  0
  8  2  1  0
  8  9  2  0
 10  8  1  0
 11 10  1  0
 11 12  1  6
 12 13  1  0
 14 13  1  0
 15 14  2  0
 16 11  1  0
 17 16  2  0
 18 14  1  0
 20 19  1  6
 20 21  1  0
 21 16  1  0
 22 24  1  0
 22 20  1  0
 23 22  2  0
M  END
$$$$
