KEA.pdb
     RDKit          3D

 24 23  0  0  1  0  0  0  0  0999 V2000
   28.6677  -21.6446  -16.5714 N   0  0  0  0  0  0  0  0  0  0  0  0
   27.3172  -22.0724  -16.4947 C   0  0  1  0  0  0  0  0  0  0  0  0
   26.9653  -23.0553  -15.4431 C   0  0  0  0  0  0  0  0  0  0  0  0
   26.8898  -24.4670  -15.8857 C   0  0  0  0  0  0  0  0  0  0  0  0
   28.0780  -24.9229  -16.6657 C   0  0  0  0  0  0  0  0  0  0  0  0
   27.8037  -26.3364  -17.1926 C   0  0  0  0  0  0  0  0  0  0  0  0
   28.9223  -26.7384  -18.0054 N   0  0  0  0  0  0  0  0  0  0  0  0
   26.3542  -20.9101  -16.5102 C   0  0  0  0  0  0  0  0  0  0  0  0
   26.7217  -19.8906  -15.9111 O   0  0  0  0  0  0  0  0  0  0  0  0
   25.1026  -20.9278  -17.1500 N   0  0  0  0  0  0  0  0  0  0  0  0
   24.2750  -19.7754  -17.0954 C   0  0  1  0  0  0  0  0  0  0  0  0
   23.8152  -19.3096  -18.4810 C   0  0  0  0  0  0  0  0  0  0  0  0
   23.0520  -17.9921  -18.3536 C   0  0  0  0  0  0  0  0  0  0  0  0
   22.4942  -17.5519  -19.6332 C   0  0  0  0  0  0  0  0  0  0  0  0
   23.2202  -17.2992  -20.6285 O   0  0  0  0  0  0  0  0  0  0  0  0
   23.0683  -19.8821  -16.2701 C   0  0  0  0  0  0  0  0  0  0  0  0
   22.4555  -21.0035  -16.3535 O   0  0  0  0  0  0  0  0  0  0  0  0
   21.1268  -17.4029  -19.7703 O   0  0  0  0  0  0  0  0  0  0  0  0
   21.0359  -17.9298  -13.8144 C   0  0  0  0  0  0  0  0  0  0  0  0
   21.3459  -19.1410  -14.6819 C   0  0  2  0  0  0  0  0  0  0  0  0
   22.5601  -18.8813  -15.4294 N   0  0  0  0  0  0  0  0  0  0  0  0
   20.2189  -19.3241  -15.6360 C   0  0  0  0  0  0  0  0  0  0  0  0
   20.1920  -18.6828  -16.7085 O   0  0  0  0  0  0  0  0  0  0  0  0
   19.1718  -20.1977  -15.3797 O   0  0  0  0  0  0  0  0  0  0  0  0
  2  1  1  1
  3  2  1  0
  4  3  1  0
  5  4  1  0
  6  5  1  0
  7  6  1  0
  8  2  1  0
  8  9  2  0
 10  8  1  0
 11 10  1  0
 11 12  1  6
 12 13  1  0
 14 13  1  0
 15 14  2  0
 16 11  1  0
 17 16  2  0
 18 14  1  0
 20 19  1  1
 20 21  1  0
 21 16  1  0
 22 24  1  0
 22 20  1  0
 23 22  2  0
M  END
$$$$
