KEA.pdb
     RDKit          3D

 24 23  0  0  1  0  0  0  0  0999 V2000
   23.6529  -20.2403  -16.5624 N   0  0  0  0  0  0  0  0  0  0  0  0
   23.4760  -18.9686  -15.9590 C   0  0  1  0  0  0  0  0  0  0  0  0
   24.4477  -17.9034  -16.3011 C   0  0  0  0  0  0  0  0  0  0  0  0
   24.9590  -17.9255  -17.6912 C   0  0  0  0  0  0  0  0  0  0  0  0
   26.0910  -16.9840  -17.9367 C   0  0  0  0  0  0  0  0  0  0  0  0
   26.4522  -17.0317  -19.4260 C   0  0  0  0  0  0  0  0  0  0  0  0
   27.4792  -16.0526  -19.6713 N   0  0  0  0  0  0  0  0  0  0  0  0
   22.0532  -18.4788  -16.0789 C   0  0  0  0  0  0  0  0  0  0  0  0
   21.5262  -18.6045  -17.1922 O   0  0  0  0  0  0  0  0  0  0  0  0
   21.3218  -17.9063  -15.0236 N   0  0  0  0  0  0  0  0  0  0  0  0
   20.0106  -17.4193  -15.2675 C   0  0  1  0  0  0  0  0  0  0  0  0
   18.9970  -17.8966  -14.2221 C   0  0  0  0  0  0  0  0  0  0  0  0
   18.7811  -19.4024  -14.3650 C   0  0  0  0  0  0  0  0  0  0  0  0
   17.6570  -19.8775  -13.5570 C   0  0  0  0  0  0  0  0  0  0  0  0
   17.2472  -21.0651  -13.6127 O   0  0  0  0  0  0  0  0  0  0  0  0
   19.8653  -15.9633  -15.3543 C   0  0  0  0  0  0  0  0  0  0  0  0
   20.4816  -15.3048  -14.4452 O   0  0  0  0  0  0  0  0  0  0  0  0
   17.0120  -19.0059  -12.6995 O   0  0  0  0  0  0  0  0  0  0  0  0
   19.0821  -13.2668  -17.6746 C   0  0  0  0  0  0  0  0  0  0  0  0
   19.0626  -13.8241  -16.2586 C   0  0  2  0  0  0  0  0  0  0  0  0
   19.1280  -15.2704  -16.3254 N   0  0  0  0  0  0  0  0  0  0  0  0
   17.7766  -13.4257  -15.6251 C   0  0  0  0  0  0  0  0  0  0  0  0
   17.5233  -12.2190  -15.4206 O   0  0  0  0  0  0  0  0  0  0  0  0
   16.8237  -14.3592  -15.2430 O   0  0  0  0  0  0  0  0  0  0  0  0
  2  1  1  6
  3  2  1  0
  4  3  1  0
  5  4  1  0
  6  5  1  0
  7  6  1  0
  8  2  1  0
  8  9  2  0
 10  8  1  0
 11 10  1  0
 11 12  1  1
 12 13  1  0
 14 13  1  0
 15 14  2  0
 16 11  1  0
 17 16  2  0
 18 14  1  0
 20 19  1  6
 20 21  1  0
 21 16  1  0
 22 24  1  0
 22 20  1  0
 23 22  2  0
M  END
$$$$
