KEA.pdb
     RDKit          3D

 24 23  0  0  1  0  0  0  0  0999 V2000
   17.9643  -11.4733  -17.9352 N   0  0  0  0  0  0  0  0  0  0  0  0
   18.8258  -11.6105  -16.8165 C   0  0  1  0  0  0  0  0  0  0  0  0
   19.4196  -12.9447  -16.5646 C   0  0  0  0  0  0  0  0  0  0  0  0
   18.4524  -14.0511  -16.3781 C   0  0  0  0  0  0  0  0  0  0  0  0
   18.0028  -14.2326  -14.9663 C   0  0  0  0  0  0  0  0  0  0  0  0
   16.9192  -15.3169  -14.9341 C   0  0  0  0  0  0  0  0  0  0  0  0
   15.8097  -14.8212  -14.1616 N   0  0  0  0  0  0  0  0  0  0  0  0
   19.8709  -10.5223  -16.7708 C   0  0  0  0  0  0  0  0  0  0  0  0
   20.9547  -10.7854  -17.3086 O   0  0  0  0  0  0  0  0  0  0  0  0
   19.6802   -9.2668  -16.1678 N   0  0  0  0  0  0  0  0  0  0  0  0
   20.6578   -8.2524  -16.3448 C   0  0  1  0  0  0  0  0  0  0  0  0
   20.6441   -7.6557  -17.7562 C   0  0  0  0  0  0  0  0  0  0  0  0
   21.7655   -8.2763  -18.5879 C   0  0  0  0  0  0  0  0  0  0  0  0
   21.8328   -7.7075  -19.9348 C   0  0  0  0  0  0  0  0  0  0  0  0
   21.5185   -8.3687  -20.9572 O   0  0  0  0  0  0  0  0  0  0  0  0
   20.5951   -7.1218  -15.4140 C   0  0  0  0  0  0  0  0  0  0  0  0
   19.4702   -6.5107  -15.3830 O   0  0  0  0  0  0  0  0  0  0  0  0
   22.2540   -6.4022  -20.1078 O   0  0  0  0  0  0  0  0  0  0  0  0
   22.1872   -5.8832  -12.3750 C   0  0  0  0  0  0  0  0  0  0  0  0
   21.3851   -5.6158  -13.6403 C   0  0  2  0  0  0  0  0  0  0  0  0
   21.6399   -6.6819  -14.5885 N   0  0  0  0  0  0  0  0  0  0  0  0
   21.8556   -4.3287  -14.2199 C   0  0  0  0  0  0  0  0  0  0  0  0
   21.6996   -3.2607  -13.5897 O   0  0  0  0  0  0  0  0  0  0  0  0
   22.4755   -4.2624  -15.4595 O   0  0  0  0  0  0  0  0  0  0  0  0
  2  1  1  6
  3  2  1  0
  4  3  1  0
  5  4  1  0
  6  5  1  0
  7  6  1  0
  8  2  1  0
  8  9  2  0
 10  8  1  0
 11 10  1  0
 11 12  1  6
 12 13  1  0
 14 13  1  0
 15 14  2  0
 16 11  1  0
 17 16  2  0
 18 14  1  0
 20 19  1  1
 20 21  1  0
 21 16  1  0
 22 24  1  0
 22 20  1  0
 23 22  2  0
M  END
$$$$
