KEA.pdb
     RDKit          3D

 24 23  0  0  1  0  0  0  0  0999 V2000
   18.6463  -12.0346  -15.2186 N   0  0  0  0  0  0  0  0  0  0  0  0
   19.2644  -11.2716  -16.2426 C   0  0  1  0  0  0  0  0  0  0  0  0
   18.8496  -11.5328  -17.6411 C   0  0  0  0  0  0  0  0  0  0  0  0
   19.3318  -12.8061  -18.2248 C   0  0  0  0  0  0  0  0  0  0  0  0
   18.4645  -13.9815  -17.9176 C   0  0  0  0  0  0  0  0  0  0  0  0
   19.0761  -15.2249  -18.5739 C   0  0  0  0  0  0  0  0  0  0  0  0
   18.2214  -16.3489  -18.2916 N   0  0  0  0  0  0  0  0  0  0  0  0
   19.2571   -9.7949  -15.9300 C   0  0  0  0  0  0  0  0  0  0  0  0
   18.2151   -9.3491  -15.4314 O   0  0  0  0  0  0  0  0  0  0  0  0
   20.3393   -8.9300  -16.1693 N   0  0  0  0  0  0  0  0  0  0  0  0
   20.2322   -7.5617  -15.8056 C   0  0  1  0  0  0  0  0  0  0  0  0
   21.3204   -7.1234  -14.8199 C   0  0  0  0  0  0  0  0  0  0  0  0
   21.0984   -5.6644  -14.4240 C   0  0  0  0  0  0  0  0  0  0  0  0
   22.1039   -5.1925  -13.4709 C   0  0  0  0  0  0  0  0  0  0  0  0
   22.5051   -5.9032  -12.5142 O   0  0  0  0  0  0  0  0  0  0  0  0
   20.2535   -6.5945  -16.9068 C   0  0  0  0  0  0  0  0  0  0  0  0
   21.2327   -6.7264  -17.7215 O   0  0  0  0  0  0  0  0  0  0  0  0
   22.6407   -3.9263  -13.6111 O   0  0  0  0  0  0  0  0  0  0  0  0
   18.1593   -3.9843  -18.5247 C   0  0  0  0  0  0  0  0  0  0  0  0
   19.4787   -4.6945  -18.2588 C   0  0  2  0  0  0  0  0  0  0  0  0
   19.3130   -5.5765  -17.1208 N   0  0  0  0  0  0  0  0  0  0  0  0
   20.4983   -3.6624  -17.9281 C   0  0  0  0  0  0  0  0  0  0  0  0
   20.9201   -2.8882  -18.8139 O   0  0  0  0  0  0  0  0  0  0  0  0
   21.0124   -3.5194  -16.6472 O   0  0  0  0  0  0  0  0  0  0  0  0
  2  1  1  1
  3  2  1  0
  4  3  1  0
  5  4  1  0
  6  5  1  0
  7  6  1  0
  8  2  1  0
  8  9  2  0
 10  8  1  0
 11 10  1  0
 11 12  1  1
 12 13  1  0
 14 13  1  0
 15 14  2  0
 16 11  1  0
 17 16  2  0
 18 14  1  0
 20 19  1  1
 20 21  1  0
 21 16  1  0
 22 24  1  0
 22 20  1  0
 23 22  2  0
M  END
$$$$
