KEA.pdb
     RDKit          3D

 24 23  0  0  1  0  0  0  0  0999 V2000
   17.0017  -11.5978  -10.1611 N   0  0  0  0  0  0  0  0  0  0  0  0
   16.3263  -10.7731  -11.0973 C   0  0  1  0  0  0  0  0  0  0  0  0
   14.8938  -11.0530  -11.3533 C   0  0  0  0  0  0  0  0  0  0  0  0
   14.5088  -12.4834  -11.3413 C   0  0  0  0  0  0  0  0  0  0  0  0
   13.3007  -12.7798  -10.5160 C   0  0  0  0  0  0  0  0  0  0  0  0
   13.0131  -14.2838  -10.5934 C   0  0  0  0  0  0  0  0  0  0  0  0
   11.8985  -14.5736   -9.7290 N   0  0  0  0  0  0  0  0  0  0  0  0
   16.5649   -9.3061  -10.8339 C   0  0  0  0  0  0  0  0  0  0  0  0
   16.8972   -9.0073   -9.6791 O   0  0  0  0  0  0  0  0  0  0  0  0
   16.4329   -8.2964  -11.8031 N   0  0  0  0  0  0  0  0  0  0  0  0
   16.7521   -6.9557  -11.4615 C   0  0  1  0  0  0  0  0  0  0  0  0
   17.1010   -6.0996  -12.6836 C   0  0  0  0  0  0  0  0  0  0  0  0
   17.6273   -4.7402  -12.2259 C   0  0  0  0  0  0  0  0  0  0  0  0
   18.0283   -3.8963  -13.3526 C   0  0  0  0  0  0  0  0  0  0  0  0
   17.9636   -4.2946  -14.5436 O   0  0  0  0  0  0  0  0  0  0  0  0
   15.7314   -6.2166  -10.7128 C   0  0  0  0  0  0  0  0  0  0  0  0
   14.5738   -6.1920  -11.2597 O   0  0  0  0  0  0  0  0  0  0  0  0
   18.4965   -2.6169  -13.1185 O   0  0  0  0  0  0  0  0  0  0  0  0
   15.1457   -4.6934   -7.3739 C   0  0  0  0  0  0  0  0  0  0  0  0
   14.7936   -4.9411   -8.8335 C   0  0  2  0  0  0  0  0  0  0  0  0
   15.9278   -5.5619   -9.4883 N   0  0  0  0  0  0  0  0  0  0  0  0
   14.5261   -3.6241   -9.4722 C   0  0  0  0  0  0  0  0  0  0  0  0
   13.4202   -3.0628   -9.3173 O   0  0  0  0  0  0  0  0  0  0  0  0
   15.4752   -2.9771  -10.2505 O   0  0  0  0  0  0  0  0  0  0  0  0
  2  1  1  1
  3  2  1  0
  4  3  1  0
  5  4  1  0
  6  5  1  0
  7  6  1  0
  8  2  1  0
  8  9  2  0
 10  8  1  0
 11 10  1  0
 11 12  1  6
 12 13  1  0
 14 13  1  0
 15 14  2  0
 16 11  1  0
 17 16  2  0
 18 14  1  0
 20 19  1  1
 20 21  1  0
 21 16  1  0
 22 24  1  0
 22 20  1  0
 23 22  2  0
M  END
$$$$
