GQT.pdb
     RDKit          3D

 21 20  0  0  1  0  0  0  0  0999 V2000
   -1.5791  -26.8098   26.8219 N   0  0  0  0  0  0  0  0  0  0  0  0
   -2.9687  -26.9389   26.4455 C   0  0  0  0  0  0  0  0  0  0  0  0
   -3.6385  -25.6234   26.6468 C   0  0  0  0  0  0  0  0  0  0  0  0
   -3.0713  -24.6713   27.2313 O   0  0  0  0  0  0  0  0  0  0  0  0
   -8.3403  -23.1471   23.2977 N   0  0  0  0  0  0  0  0  0  0  0  0
   -8.0905  -22.2028   24.3093 C   0  0  0  0  0  0  0  0  0  0  0  0
   -8.6270  -21.0698   24.2948 O   0  0  0  0  0  0  0  0  0  0  0  0
   -7.1792  -22.5384   25.4188 C   0  0  0  0  0  0  0  0  0  0  0  0
   -6.5819  -23.9233   25.2381 C   0  0  0  0  0  0  0  0  0  0  0  0
   -5.6450  -24.1563   26.4312 C   0  0  2  0  0  0  0  0  0  0  0  0
   -4.9576  -25.3800   26.1854 N   0  0  0  0  0  0  0  0  0  0  0  0
   -6.4140  -24.1253   27.6781 C   0  0  0  0  0  0  0  0  0  0  0  0
   -7.1866  -25.0626   27.9834 O   0  0  0  0  0  0  0  0  0  0  0  0
   -4.8650  -22.6646   31.1453 C   0  0  0  0  0  0  0  0  0  0  0  0
   -6.0457  -23.5571   30.9818 C   0  0  1  0  0  0  0  0  0  0  0  0
   -6.8196  -23.5667   32.1629 O   0  0  0  0  0  0  0  0  0  0  0  0
   -6.9777  -23.1400   29.8700 C   0  0  2  0  0  0  0  0  0  0  0  0
   -6.3324  -23.0564   28.5946 N   0  0  0  0  0  0  0  0  0  0  0  0
   -7.6634  -21.8813   30.2494 C   0  0  0  0  0  0  0  0  0  0  0  0
   -7.4610  -20.8204   29.6005 O   0  0  0  0  0  0  0  0  0  0  0  0
   -8.5449  -21.8065   31.3154 O   0  0  0  0  0  0  0  0  0  0  0  0
  2  1  1  0
  2  3  1  0
  3  4  2  0
  3 11  1  0
  6  5  1  0
  7  6  2  0
  8  6  1  0
  9  8  1  0
 10 12  1  0
 10  9  1  6
 11 10  1  0
 12 18  1  0
 13 12  2  0
 15 14  1  1
 15 16  1  0
 17 19  1  0
 17 15  1  0
 17 18  1  6
 19 21  1  0
 20 19  2  0
M  END
$$$$
