GQT.pdb
     RDKit          3D

 21 20  0  0  1  0  0  0  0  0999 V2000
    4.3120  -22.2349   23.2370 N   0  0  0  0  0  0  0  0  0  0  0  0
    5.6931  -21.8681   23.4545 C   0  0  0  0  0  0  0  0  0  0  0  0
    5.7390  -20.4595   23.9375 C   0  0  0  0  0  0  0  0  0  0  0  0
    4.7702  -19.6771   23.7981 O   0  0  0  0  0  0  0  0  0  0  0  0
    9.3005  -19.5866   28.2957 N   0  0  0  0  0  0  0  0  0  0  0  0
    7.9108  -19.7836   28.3806 C   0  0  0  0  0  0  0  0  0  0  0  0
    7.3934  -20.3930   29.3463 O   0  0  0  0  0  0  0  0  0  0  0  0
    7.0293  -19.2676   27.3172 C   0  0  0  0  0  0  0  0  0  0  0  0
    7.8251  -18.5256   26.2572 C   0  0  0  0  0  0  0  0  0  0  0  0
    6.9861  -18.5625   24.9725 C   0  0  2  0  0  0  0  0  0  0  0  0
    6.8859  -19.9293   24.5824 N   0  0  0  0  0  0  0  0  0  0  0  0
    7.5825  -17.6802   23.9661 C   0  0  0  0  0  0  0  0  0  0  0  0
    8.5195  -18.0756   23.2350 O   0  0  0  0  0  0  0  0  0  0  0  0
    7.3994  -13.6426   21.1343 C   0  0  0  0  0  0  0  0  0  0  0  0
    6.7822  -14.5346   22.1545 C   0  0  1  0  0  0  0  0  0  0  0  0
    5.7313  -15.2825   21.5796 O   0  0  0  0  0  0  0  0  0  0  0  0
    7.7400  -15.5396   22.7472 C   0  0  2  0  0  0  0  0  0  0  0  0
    7.1452  -16.3548   23.7628 N   0  0  0  0  0  0  0  0  0  0  0  0
    8.9601  -14.8392   23.2155 C   0  0  0  0  0  0  0  0  0  0  0  0
    9.2103  -14.7412   24.4465 O   0  0  0  0  0  0  0  0  0  0  0  0
    9.8709  -14.2672   22.3425 O   0  0  0  0  0  0  0  0  0  0  0  0
  2  1  1  0
  2  3  1  0
  3  4  2  0
  3 11  1  0
  6  5  1  0
  7  6  2  0
  8  6  1  0
  9  8  1  0
 10 12  1  0
 10  9  1  1
 11 10  1  0
 12 18  1  0
 13 12  2  0
 15 14  1  6
 15 16  1  0
 17 19  1  0
 17 15  1  0
 17 18  1  1
 19 21  1  0
 20 19  2  0
M  END
$$$$
