GQT.pdb
     RDKit          3D

 21 20  0  0  1  0  0  0  0  0999 V2000
    7.7035  -16.8864   19.2750 N   0  0  0  0  0  0  0  0  0  0  0  0
    8.4873  -17.0366   20.4801 C   0  0  0  0  0  0  0  0  0  0  0  0
    7.7115  -16.4785   21.6229 C   0  0  0  0  0  0  0  0  0  0  0  0
    6.6786  -15.7900   21.4519 O   0  0  0  0  0  0  0  0  0  0  0  0
    6.2715  -19.4958   26.3358 N   0  0  0  0  0  0  0  0  0  0  0  0
    6.9609  -19.6918   25.1259 C   0  0  0  0  0  0  0  0  0  0  0  0
    7.2521  -20.8404   24.7165 O   0  0  0  0  0  0  0  0  0  0  0  0
    7.3570  -18.5296   24.3095 C   0  0  0  0  0  0  0  0  0  0  0  0
    6.8553  -17.2330   24.9214 C   0  0  0  0  0  0  0  0  0  0  0  0
    7.4359  -16.0936   24.0726 C   0  0  2  0  0  0  0  0  0  0  0  0
    8.1033  -16.6983   22.9684 N   0  0  0  0  0  0  0  0  0  0  0  0
    8.2833  -15.2372   24.9065 C   0  0  0  0  0  0  0  0  0  0  0  0
    9.1698  -15.7273   25.6431 O   0  0  0  0  0  0  0  0  0  0  0  0
    6.3005  -11.5964   25.3666 C   0  0  0  0  0  0  0  0  0  0  0  0
    6.7892  -12.4814   26.4600 C   0  0  1  0  0  0  0  0  0  0  0  0
    5.8793  -13.5392   26.6773 O   0  0  0  0  0  0  0  0  0  0  0  0
    8.1243  -13.1252   26.1743 C   0  0  2  0  0  0  0  0  0  0  0  0
    8.1546  -13.8328   24.9300 N   0  0  0  0  0  0  0  0  0  0  0  0
    8.5181  -13.9724   27.3256 C   0  0  0  0  0  0  0  0  0  0  0  0
    8.5520  -15.2272   27.2161 O   0  0  0  0  0  0  0  0  0  0  0  0
    8.8627  -13.4404   28.5573 O   0  0  0  0  0  0  0  0  0  0  0  0
  2  1  1  0
  2  3  1  0
  3  4  2  0
  3 11  1  0
  6  5  1  0
  7  6  2  0
  8  6  1  0
  9  8  1  0
 10 12  1  0
 10  9  1  1
 11 10  1  0
 12 18  1  0
 13 12  2  0
 15 14  1  6
 15 16  1  0
 17 19  1  0
 17 15  1  0
 17 18  1  6
 19 21  1  0
 20 19  2  0
M  END
$$$$
