GQT.pdb
     RDKit          3D

 21 20  0  0  1  0  0  0  0  0999 V2000
    3.0814  -21.1893   22.3296 N   0  0  0  0  0  0  0  0  0  0  0  0
    4.4742  -20.8730   22.1077 C   0  0  0  0  0  0  0  0  0  0  0  0
    4.8519  -19.7426   23.0016 C   0  0  0  0  0  0  0  0  0  0  0  0
    4.2230  -18.6588   23.0046 O   0  0  0  0  0  0  0  0  0  0  0  0
    9.5980  -17.8070   28.2122 N   0  0  0  0  0  0  0  0  0  0  0  0
    8.4652  -18.5482   27.8316 C   0  0  0  0  0  0  0  0  0  0  0  0
    8.1210  -19.5827   28.4505 O   0  0  0  0  0  0  0  0  0  0  0  0
    7.6539  -18.1111   26.6806 C   0  0  0  0  0  0  0  0  0  0  0  0
    7.1992  -19.2975   25.8481 C   0  0  0  0  0  0  0  0  0  0  0  0
    6.4126  -18.7250   24.6610 C   0  0  2  0  0  0  0  0  0  0  0  0
    5.9469  -19.8350   23.8986 N   0  0  0  0  0  0  0  0  0  0  0  0
    7.2530  -17.7815   23.9190 C   0  0  0  0  0  0  0  0  0  0  0  0
    8.2323  -18.1795   23.2473 O   0  0  0  0  0  0  0  0  0  0  0  0
    7.7995  -13.5265   21.5727 C   0  0  0  0  0  0  0  0  0  0  0  0
    6.9862  -14.5272   22.3175 C   0  0  1  0  0  0  0  0  0  0  0  0
    6.2044  -15.2879   21.4206 O   0  0  0  0  0  0  0  0  0  0  0  0
    7.8082  -15.5180   23.1055 C   0  0  2  0  0  0  0  0  0  0  0  0
    7.0144  -16.3914   23.9161 N   0  0  0  0  0  0  0  0  0  0  0  0
    8.8394  -14.7917   23.8850 C   0  0  0  0  0  0  0  0  0  0  0  0
    8.8693  -14.8747   25.1419 O   0  0  0  0  0  0  0  0  0  0  0  0
    9.8047  -13.9997   23.2852 O   0  0  0  0  0  0  0  0  0  0  0  0
  2  1  1  0
  2  3  1  0
  3  4  2  0
  3 11  1  0
  6  5  1  0
  7  6  2  0
  8  6  1  0
  9  8  1  0
 10 12  1  0
 10  9  1  1
 11 10  1  0
 12 18  1  0
 13 12  2  0
 15 14  1  6
 15 16  1  0
 17 19  1  0
 17 15  1  0
 17 18  1  1
 19 21  1  0
 20 19  2  0
M  END
$$$$
