GQT.pdb
     RDKit          3D

 21 20  0  0  1  0  0  0  0  0999 V2000
    5.9497  -19.7010   18.6453 N   0  0  0  0  0  0  0  0  0  0  0  0
    5.4247  -18.6056   19.4287 C   0  0  0  0  0  0  0  0  0  0  0  0
    6.5512  -17.7021   19.7950 C   0  0  0  0  0  0  0  0  0  0  0  0
    7.7489  -18.0431   19.6561 O   0  0  0  0  0  0  0  0  0  0  0  0
    8.0829  -12.5708   18.3846 N   0  0  0  0  0  0  0  0  0  0  0  0
    8.7075  -13.1099   19.5234 C   0  0  0  0  0  0  0  0  0  0  0  0
    9.8779  -13.5571   19.4787 O   0  0  0  0  0  0  0  0  0  0  0  0
    7.9821  -13.1570   20.8062 C   0  0  0  0  0  0  0  0  0  0  0  0
    6.8023  -14.1111   20.7343 C   0  0  0  0  0  0  0  0  0  0  0  0
    7.3869  -15.5296   20.6932 C   0  0  2  0  0  0  0  0  0  0  0  0
    6.3253  -16.4045   20.3217 N   0  0  0  0  0  0  0  0  0  0  0  0
    8.0176  -15.8427   21.9782 C   0  0  0  0  0  0  0  0  0  0  0  0
    7.4032  -15.6752   23.0566 O   0  0  0  0  0  0  0  0  0  0  0  0
    9.0403  -19.1129   23.3386 C   0  0  0  0  0  0  0  0  0  0  0  0
   10.2195  -18.2061   23.4090 C   0  0  1  0  0  0  0  0  0  0  0  0
   11.0907  -18.4508   22.3250 O   0  0  0  0  0  0  0  0  0  0  0  0
    9.8673  -16.7397   23.3447 C   0  0  2  0  0  0  0  0  0  0  0  0
    9.3326  -16.3431   22.0771 N   0  0  0  0  0  0  0  0  0  0  0  0
   11.0441  -15.9331   23.7484 C   0  0  0  0  0  0  0  0  0  0  0  0
   11.6456  -15.2120   22.9083 O   0  0  0  0  0  0  0  0  0  0  0  0
   11.5346  -15.9296   25.0439 O   0  0  0  0  0  0  0  0  0  0  0  0
  2  1  1  0
  2  3  1  0
  3  4  2  0
  3 11  1  0
  6  5  1  0
  7  6  2  0
  8  6  1  0
  9  8  1  0
 10 12  1  0
 10  9  1  1
 11 10  1  0
 12 18  1  0
 13 12  2  0
 15 14  1  6
 15 16  1  0
 17 19  1  0
 17 15  1  0
 17 18  1  6
 19 21  1  0
 20 19  2  0
M  END
$$$$
