GQT.pdb
     RDKit          3D

 21 20  0  0  1  0  0  0  0  0999 V2000
    8.6346  -15.4209   16.8948 N   0  0  0  0  0  0  0  0  0  0  0  0
    9.0924  -14.6155   18.0044 C   0  0  0  0  0  0  0  0  0  0  0  0
   10.1256  -15.3842   18.7535 C   0  0  0  0  0  0  0  0  0  0  0  0
   10.7172  -16.3676   18.2505 O   0  0  0  0  0  0  0  0  0  0  0  0
   15.2857  -14.7992   18.4938 N   0  0  0  0  0  0  0  0  0  0  0  0
   15.3278  -15.1571   19.8530 C   0  0  0  0  0  0  0  0  0  0  0  0
   16.3873  -15.0783   20.5186 O   0  0  0  0  0  0  0  0  0  0  0  0
   14.1062  -15.6377   20.5244 C   0  0  0  0  0  0  0  0  0  0  0  0
   12.8684  -14.9612   19.9608 C   0  0  0  0  0  0  0  0  0  0  0  0
   11.6659  -15.5527   20.7090 C   0  0  2  0  0  0  0  0  0  0  0  0
   10.4942  -15.0414   20.0798 N   0  0  0  0  0  0  0  0  0  0  0  0
   11.7749  -15.2509   22.1387 C   0  0  0  0  0  0  0  0  0  0  0  0
   11.7500  -14.0691   22.5526 O   0  0  0  0  0  0  0  0  0  0  0  0
    9.6944  -18.1780   23.6874 C   0  0  0  0  0  0  0  0  0  0  0  0
    9.7346  -16.7589   24.1369 C   0  0  1  0  0  0  0  0  0  0  0  0
    9.0926  -16.6229   25.3872 O   0  0  0  0  0  0  0  0  0  0  0  0
   11.1309  -16.2147   24.3180 C   0  0  2  0  0  0  0  0  0  0  0  0
   11.9123  -16.2556   23.1190 N   0  0  0  0  0  0  0  0  0  0  0  0
   11.7856  -16.9083   25.4532 C   0  0  0  0  0  0  0  0  0  0  0  0
   12.8050  -17.6245   25.2648 O   0  0  0  0  0  0  0  0  0  0  0  0
   11.3209  -16.8080   26.7543 O   0  0  0  0  0  0  0  0  0  0  0  0
  2  1  1  0
  2  3  1  0
  3  4  2  0
  3 11  1  0
  6  5  1  0
  7  6  2  0
  8  6  1  0
  9  8  1  0
 10 12  1  0
 10  9  1  6
 11 10  1  0
 12 18  1  0
 13 12  2  0
 15 14  1  1
 15 16  1  0
 17 19  1  0
 17 15  1  0
 17 18  1  6
 19 21  1  0
 20 19  2  0
M  END
$$$$
