GRC.pdb
     RDKit          3D

 22 21  0  0  1  0  0  0  0  0999 V2000
   24.1052  -20.5024   -8.7803 N   0  0  0  0  0  0  0  0  0  0  0  0
   24.9137  -21.2617   -9.7257 C   0  0  0  0  0  0  0  0  0  0  0  0
   25.1797  -20.4723  -10.9586 C   0  0  0  0  0  0  0  0  0  0  0  0
   24.5159  -19.4154  -11.1153 O   0  0  0  0  0  0  0  0  0  0  0  0
   29.5026  -21.9231  -10.2608 N   0  0  0  0  0  0  0  0  0  0  0  0
   30.7818  -21.9066  -10.8687 C   0  0  0  0  0  0  0  0  0  0  0  0
   31.8332  -22.0982  -10.1238 N   0  0  0  0  0  0  0  0  0  0  0  0
   30.8778  -21.6821  -12.2648 N   0  0  0  0  0  0  0  0  0  0  0  0
   29.6988  -21.6427  -13.0597 C   0  0  0  0  0  0  0  0  0  0  0  0
   28.8872  -20.3634  -12.8221 C   0  0  0  0  0  0  0  0  0  0  0  0
   27.6993  -20.4505  -13.7471 C   0  0  0  0  0  0  0  0  0  0  0  0
   26.4058  -20.1042  -13.0567 C   0  0  2  0  0  0  0  0  0  0  0  0
   26.1440  -20.9070  -11.9056 N   0  0  0  0  0  0  0  0  0  0  0  0
   25.3154  -20.3866  -14.0505 C   0  0  0  0  0  0  0  0  0  0  0  0
   24.6735  -21.4702  -14.0512 O   0  0  0  0  0  0  0  0  0  0  0  0
   32.7913  -22.1723  -10.5176 N   0  0  0  0  0  0  0  0  0  0  0  0
   25.0354  -19.3663  -15.0029 C   0  0  1  0  0  0  0  0  0  0  0  0
   23.7117  -19.2377  -15.5783 C   0  0  0  0  0  0  0  0  0  0  0  0
   22.6963  -18.9107  -14.4856 S   0  0  0  0  0  0  0  0  0  0  0  0
   21.0910  -18.6634  -15.3085 C   0  0  0  0  0  0  0  0  0  0  0  0
   23.7501  -18.1498  -16.5811 O   0  0  0  0  0  0  0  0  0  0  0  0
   23.0870  -18.2447  -17.8074 O   0  0  0  0  0  0  0  0  0  0  0  0
  1  2  1  0
  2  3  1  0
  3  4  2  0
  3 13  1  0
  6  5  1  0
  7  6  2  0
  8  6  1  0
  9  8  1  0
 10  9  1  0
 10 11  1  0
 12 11  1  6
 12 14  1  0
 13 12  1  0
 14 15  2  0
 14 16  1  0
 16 17  1  0
 17 20  1  0
 17 18  1  6
 18 19  1  0
 20 21  1  0
 22 20  2  0
M  END
$$$$
