GRC.pdb
     RDKit          3D

 22 21  0  0  1  0  0  0  0  0999 V2000
   14.8505  -21.1165  -11.6607 N   0  0  0  0  0  0  0  0  0  0  0  0
   16.0179  -21.2437  -10.7975 C   0  0  0  0  0  0  0  0  0  0  0  0
   16.3389  -22.6730  -10.5370 C   0  0  0  0  0  0  0  0  0  0  0  0
   15.4859  -23.3439   -9.9009 O   0  0  0  0  0  0  0  0  0  0  0  0
   21.8002  -28.4697  -10.4907 N   0  0  0  0  0  0  0  0  0  0  0  0
   21.1831  -29.1699  -11.5560 C   0  0  0  0  0  0  0  0  0  0  0  0
   21.3538  -30.4585  -11.6424 N   0  0  0  0  0  0  0  0  0  0  0  0
   20.4015  -28.4486  -12.4928 N   0  0  0  0  0  0  0  0  0  0  0  0
   20.2682  -27.0378  -12.3685 C   0  0  0  0  0  0  0  0  0  0  0  0
   19.1278  -26.6491  -11.4198 C   0  0  0  0  0  0  0  0  0  0  0  0
   19.0091  -25.1484  -11.5103 C   0  0  0  0  0  0  0  0  0  0  0  0
   17.8292  -24.6170  -10.7388 C   0  0  2  0  0  0  0  0  0  0  0  0
   17.5583  -23.2388  -10.9938 N   0  0  0  0  0  0  0  0  0  0  0  0
   18.1947  -24.7348   -9.2866 C   0  0  0  0  0  0  0  0  0  0  0  0
   18.8322  -23.8334   -8.6807 O   0  0  0  0  0  0  0  0  0  0  0  0
   20.9587  -31.0239  -12.4187 N   0  0  0  0  0  0  0  0  0  0  0  0
   17.7861  -25.9224   -8.6165 C   0  0  1  0  0  0  0  0  0  0  0  0
   17.9238  -26.0429   -7.1791 C   0  0  0  0  0  0  0  0  0  0  0  0
   17.0682  -24.9876   -6.4817 S   0  0  0  0  0  0  0  0  0  0  0  0
   17.4385  -25.0941   -4.7022 C   0  0  0  0  0  0  0  0  0  0  0  0
   17.4808  -27.3995   -6.7868 O   0  0  0  0  0  0  0  0  0  0  0  0
   17.9860  -28.0496   -5.6579 O   0  0  0  0  0  0  0  0  0  0  0  0
  1  2  1  0
  2  3  1  0
  3  4  2  0
  3 13  1  0
  6  5  1  0
  7  6  2  0
  8  6  1  0
  9  8  1  0
 10  9  1  0
 10 11  1  0
 12 11  1  6
 12 14  1  0
 13 12  1  0
 14 15  2  0
 14 16  1  0
 16 17  1  0
 17 20  1  0
 17 18  1  1
 18 19  1  0
 20 21  1  0
 22 20  2  0
M  END
$$$$
