GRC.pdb
     RDKit          3D

 22 21  0  0  1  0  0  0  0  0999 V2000
   28.3974  -22.6987  -17.2947 N   0  0  0  0  0  0  0  0  0  0  0  0
   27.9443  -21.5017  -16.5977 C   0  0  0  0  0  0  0  0  0  0  0  0
   26.7420  -21.7868  -15.7687 C   0  0  0  0  0  0  0  0  0  0  0  0
   25.9600  -22.6804  -16.1836 O   0  0  0  0  0  0  0  0  0  0  0  0
   26.1349  -19.9681   -7.6539 N   0  0  0  0  0  0  0  0  0  0  0  0
   25.1085  -20.7149   -8.2823 C   0  0  0  0  0  0  0  0  0  0  0  0
   23.9894  -20.9050   -7.6432 N   0  0  0  0  0  0  0  0  0  0  0  0
   25.3306  -21.2312   -9.5833 N   0  0  0  0  0  0  0  0  0  0  0  0
   26.5724  -20.9977  -10.2368 C   0  0  0  0  0  0  0  0  0  0  0  0
   26.5867  -21.5607  -11.6632 C   0  0  0  0  0  0  0  0  0  0  0  0
   25.4174  -20.9229  -12.3704 C   0  0  0  0  0  0  0  0  0  0  0  0
   25.3198  -21.3422  -13.8141 C   0  0  2  0  0  0  0  0  0  0  0  0
   26.5037  -21.0729  -14.5648 N   0  0  0  0  0  0  0  0  0  0  0  0
   24.2180  -20.5156  -14.4136 C   0  0  0  0  0  0  0  0  0  0  0  0
   24.4412  -19.4179  -14.9893 O   0  0  0  0  0  0  0  0  0  0  0  0
   23.1915  -21.4261   -8.0558 N   0  0  0  0  0  0  0  0  0  0  0  0
   22.8958  -21.0309  -14.3017 C   0  0  2  0  0  0  0  0  0  0  0  0
   21.8110  -20.4512  -15.0677 C   0  0  0  0  0  0  0  0  0  0  0  0
   22.0370  -20.6918  -16.5587 S   0  0  0  0  0  0  0  0  0  0  0  0
   20.4354  -20.4381  -17.3868 C   0  0  0  0  0  0  0  0  0  0  0  0
   20.5487  -21.0903  -14.6334 O   0  0  0  0  0  0  0  0  0  0  0  0
   19.3043  -20.4835  -14.8221 O   0  0  0  0  0  0  0  0  0  0  0  0
  1  2  1  0
  2  3  1  0
  3  4  2  0
  3 13  1  0
  6  5  1  0
  7  6  2  0
  8  6  1  0
  9  8  1  0
 10  9  1  0
 10 11  1  0
 12 11  1  1
 12 14  1  0
 13 12  1  0
 14 15  2  0
 14 16  1  0
 16 17  1  0
 17 20  1  0
 17 18  1  6
 18 19  1  0
 20 21  1  0
 22 20  2  0
M  END
$$$$
