GRC.pdb
     RDKit          3D

 22 21  0  0  1  0  0  0  0  0999 V2000
   21.7049  -13.5359  -18.0856 N   0  0  0  0  0  0  0  0  0  0  0  0
   21.8751  -12.7164  -16.8925 C   0  0  0  0  0  0  0  0  0  0  0  0
   20.7192  -11.7986  -16.7033 C   0  0  0  0  0  0  0  0  0  0  0  0
   20.6106  -10.8414  -17.5121 O   0  0  0  0  0  0  0  0  0  0  0  0
   13.0892  -12.5133  -12.4998 N   0  0  0  0  0  0  0  0  0  0  0  0
   13.0181  -11.1922  -13.0053 C   0  0  0  0  0  0  0  0  0  0  0  0
   11.8910  -10.5452  -12.9145 N   0  0  0  0  0  0  0  0  0  0  0  0
   14.1722  -10.6168  -13.5932 N   0  0  0  0  0  0  0  0  0  0  0  0
   15.3703  -11.3769  -13.6951 C   0  0  0  0  0  0  0  0  0  0  0  0
   16.4338  -10.6641  -14.5393 C   0  0  0  0  0  0  0  0  0  0  0  0
   17.6154  -11.5996  -14.5904 C   0  0  0  0  0  0  0  0  0  0  0  0
   18.7300  -11.0721  -15.4559 C   0  0  2  0  0  0  0  0  0  0  0  0
   19.7892  -12.0090  -15.6514 N   0  0  0  0  0  0  0  0  0  0  0  0
   19.3084   -9.8977  -14.7191 C   0  0  0  0  0  0  0  0  0  0  0  0
   19.8216  -10.0113  -13.5746 O   0  0  0  0  0  0  0  0  0  0  0  0
   11.7626   -9.5893  -13.2994 N   0  0  0  0  0  0  0  0  0  0  0  0
   19.2506   -8.6363  -15.3763 C   0  0  1  0  0  0  0  0  0  0  0  0
   19.7402   -7.4402  -14.7211 C   0  0  0  0  0  0  0  0  0  0  0  0
   20.8536   -6.8071  -15.5528 S   0  0  0  0  0  0  0  0  0  0  0  0
   22.3280   -7.8568  -15.3538 C   0  0  0  0  0  0  0  0  0  0  0  0
   18.6086   -6.4966  -14.5812 O   0  0  0  0  0  0  0  0  0  0  0  0
   18.6518   -5.4075  -13.7069 O   0  0  0  0  0  0  0  0  0  0  0  0
  1  2  1  0
  2  3  1  0
  3  4  2  0
  3 13  1  0
  6  5  1  0
  7  6  2  0
  8  6  1  0
  9  8  1  0
 10  9  1  0
 10 11  1  0
 12 11  1  1
 12 14  1  0
 13 12  1  0
 14 15  2  0
 14 16  1  0
 16 17  1  0
 17 20  1  0
 17 18  1  6
 18 19  1  0
 20 21  1  0
 22 20  2  0
M  END
$$$$
