GRC.pdb
     RDKit          3D

 22 21  0  0  1  0  0  0  0  0999 V2000
   26.7440  -23.9632  -16.4091 N   0  0  0  0  0  0  0  0  0  0  0  0
   26.9243  -22.6912  -15.7209 C   0  0  0  0  0  0  0  0  0  0  0  0
   25.9417  -22.5366  -14.6142 C   0  0  0  0  0  0  0  0  0  0  0  0
   24.9149  -23.2620  -14.6556 O   0  0  0  0  0  0  0  0  0  0  0  0
   23.3979  -21.9798   -8.2151 N   0  0  0  0  0  0  0  0  0  0  0  0
   22.3511  -21.0864   -8.5498 C   0  0  0  0  0  0  0  0  0  0  0  0
   21.1400  -21.3636   -8.1580 N   0  0  0  0  0  0  0  0  0  0  0  0
   22.6530  -19.9218   -9.2989 N   0  0  0  0  0  0  0  0  0  0  0  0
   23.4759  -20.0157  -10.4554 C   0  0  0  0  0  0  0  0  0  0  0  0
   24.7876  -20.7570  -10.1695 C   0  0  0  0  0  0  0  0  0  0  0  0
   25.6388  -20.5798  -11.4017 C   0  0  0  0  0  0  0  0  0  0  0  0
   25.1828  -21.4473  -12.5458 C   0  0  2  0  0  0  0  0  0  0  0  0
   26.1690  -21.6069  -13.5655 N   0  0  0  0  0  0  0  0  0  0  0  0
   24.0148  -20.7359  -13.1673 C   0  0  0  0  0  0  0  0  0  0  0  0
   24.0999  -19.5540  -13.5940 O   0  0  0  0  0  0  0  0  0  0  0  0
   20.3249  -20.7656   -8.3957 N   0  0  0  0  0  0  0  0  0  0  0  0
   22.7935  -21.4620  -13.2539 C   0  0  2  0  0  0  0  0  0  0  0  0
   21.6215  -20.8642  -13.8611 C   0  0  0  0  0  0  0  0  0  0  0  0
   21.1801  -21.6887  -15.0683 S   0  0  0  0  0  0  0  0  0  0  0  0
   21.1063  -23.4257  -14.5273 C   0  0  0  0  0  0  0  0  0  0  0  0
   20.5449  -20.8293  -12.8460 O   0  0  0  0  0  0  0  0  0  0  0  0
   20.6624  -21.4788  -11.6144 O   0  0  0  0  0  0  0  0  0  0  0  0
  1  2  1  0
  2  3  1  0
  3  4  2  0
  3 13  1  0
  6  5  1  0
  7  6  2  0
  8  6  1  0
  9  8  1  0
 10  9  1  0
 10 11  1  0
 12 11  1  1
 12 14  1  0
 13 12  1  0
 14 15  2  0
 14 16  1  0
 16 17  1  0
 17 20  1  0
 17 18  1  1
 18 19  1  0
 20 21  1  0
 22 20  2  0
M  END
$$$$
