GRC.pdb
     RDKit          3D

 22 21  0  0  1  0  0  0  0  0999 V2000
   31.3904  -22.3583  -10.7787 N   0  0  0  0  0  0  0  0  0  0  0  0
   30.6596  -21.1066  -10.6266 C   0  0  0  0  0  0  0  0  0  0  0  0
   29.2605  -21.2400  -11.1150 C   0  0  0  0  0  0  0  0  0  0  0  0
   29.0713  -21.9827  -12.1124 O   0  0  0  0  0  0  0  0  0  0  0  0
   20.7943  -22.2863   -9.9732 N   0  0  0  0  0  0  0  0  0  0  0  0
   21.6521  -21.6907   -9.0164 C   0  0  0  0  0  0  0  0  0  0  0  0
   21.5350  -22.0376   -7.7662 N   0  0  0  0  0  0  0  0  0  0  0  0
   22.6086  -20.7379   -9.4478 N   0  0  0  0  0  0  0  0  0  0  0  0
   23.7674  -21.1655  -10.1535 C   0  0  0  0  0  0  0  0  0  0  0  0
   25.0545  -20.8897   -9.3668 C   0  0  0  0  0  0  0  0  0  0  0  0
   25.8454  -19.9119  -10.1991 C   0  0  0  0  0  0  0  0  0  0  0  0
   26.8911  -20.5905  -11.0451 C   0  0  2  0  0  0  0  0  0  0  0  0
   28.1977  -20.5528  -10.4715 N   0  0  0  0  0  0  0  0  0  0  0  0
   26.9503  -19.8180  -12.3321 C   0  0  0  0  0  0  0  0  0  0  0  0
   27.4808  -18.6782  -12.4057 O   0  0  0  0  0  0  0  0  0  0  0  0
   22.1098  -21.6138   -7.0122 N   0  0  0  0  0  0  0  0  0  0  0  0
   26.3741  -20.4354  -13.4780 C   0  0  2  0  0  0  0  0  0  0  0  0
   26.3718  -19.7571  -14.7585 C   0  0  0  0  0  0  0  0  0  0  0  0
   27.0685  -20.6201  -15.8084 S   0  0  0  0  0  0  0  0  0  0  0  0
   26.9068  -19.7532  -17.4014 C   0  0  0  0  0  0  0  0  0  0  0  0
   24.9646  -19.5159  -15.1485 O   0  0  0  0  0  0  0  0  0  0  0  0
   24.6133  -18.5812  -16.1259 O   0  0  0  0  0  0  0  0  0  0  0  0
  1  2  1  0
  2  3  1  0
  3  4  2  0
  3 13  1  0
  6  5  1  0
  7  6  2  0
  8  6  1  0
  9  8  1  0
 10  9  1  0
 10 11  1  0
 12 11  1  1
 12 14  1  0
 13 12  1  0
 14 15  2  0
 14 16  1  0
 16 17  1  0
 17 20  1  0
 17 18  1  6
 18 19  1  0
 20 21  1  0
 22 20  2  0
M  END
$$$$
