GRC.pdb
     RDKit          3D

 22 21  0  0  1  0  0  0  0  0999 V2000
   27.8405  -22.0388  -16.8406 N   0  0  0  0  0  0  0  0  0  0  0  0
   28.4021  -22.2345  -15.5100 C   0  0  0  0  0  0  0  0  0  0  0  0
   27.7882  -21.3017  -14.5266 C   0  0  0  0  0  0  0  0  0  0  0  0
   28.3975  -20.2242  -14.3029 O   0  0  0  0  0  0  0  0  0  0  0  0
   21.1249  -17.8296  -15.1884 N   0  0  0  0  0  0  0  0  0  0  0  0
   21.3817  -19.2069  -15.3965 C   0  0  0  0  0  0  0  0  0  0  0  0
   20.3731  -20.0189  -15.5392 N   0  0  0  0  0  0  0  0  0  0  0  0
   22.7246  -19.6576  -15.4424 N   0  0  0  0  0  0  0  0  0  0  0  0
   23.7906  -18.7273  -15.2947 C   0  0  0  0  0  0  0  0  0  0  0  0
   24.4314  -18.8028  -13.9035 C   0  0  0  0  0  0  0  0  0  0  0  0
   24.5461  -20.2716  -13.5812 C   0  0  0  0  0  0  0  0  0  0  0  0
   25.9157  -20.6446  -13.0765 C   0  0  2  0  0  0  0  0  0  0  0  0
   26.5679  -21.6289  -13.8788 N   0  0  0  0  0  0  0  0  0  0  0  0
   25.7076  -21.2490  -11.7170 C   0  0  0  0  0  0  0  0  0  0  0  0
   25.2995  -22.4306  -11.5643 O   0  0  0  0  0  0  0  0  0  0  0  0
   20.4921  -21.0195  -15.7904 N   0  0  0  0  0  0  0  0  0  0  0  0
   25.9935  -20.4199  -10.5958 C   0  0  1  0  0  0  0  0  0  0  0  0
   25.7220  -20.8811   -9.2492 C   0  0  0  0  0  0  0  0  0  0  0  0
   26.4762  -20.0188   -8.2394 S   0  0  0  0  0  0  0  0  0  0  0  0
   28.2526  -20.2470   -8.5673 C   0  0  0  0  0  0  0  0  0  0  0  0
   24.2639  -20.7835   -9.0150 O   0  0  0  0  0  0  0  0  0  0  0  0
   23.6373  -21.4291   -7.9458 O   0  0  0  0  0  0  0  0  0  0  0  0
  1  2  1  0
  2  3  1  0
  3  4  2  0
  3 13  1  0
  6  5  1  0
  7  6  2  0
  8  6  1  0
  9  8  1  0
 10  9  1  0
 10 11  1  0
 12 11  1  6
 12 14  1  0
 13 12  1  0
 14 15  2  0
 14 16  1  0
 16 17  1  0
 17 20  1  0
 17 18  1  1
 18 19  1  0
 20 21  1  0
 22 20  2  0
M  END
$$$$
