GRC.pdb
     RDKit          3D

 22 21  0  0  1  0  0  0  0  0999 V2000
   19.4499  -19.9102  -15.6019 N   0  0  0  0  0  0  0  0  0  0  0  0
   20.6491  -19.7471  -16.4138 C   0  0  0  0  0  0  0  0  0  0  0  0
   21.7172  -19.0403  -15.6565 C   0  0  0  0  0  0  0  0  0  0  0  0
   21.4053  -17.9517  -15.1088 O   0  0  0  0  0  0  0  0  0  0  0  0
   24.6879  -20.5293   -8.9806 N   0  0  0  0  0  0  0  0  0  0  0  0
   25.3702  -20.8832  -10.1702 C   0  0  0  0  0  0  0  0  0  0  0  0
   26.6556  -20.6835  -10.2398 N   0  0  0  0  0  0  0  0  0  0  0  0
   24.6349  -21.4418  -11.2454 N   0  0  0  0  0  0  0  0  0  0  0  0
   25.2545  -21.6154  -12.5141 C   0  0  0  0  0  0  0  0  0  0  0  0
   24.3698  -21.1103  -13.6604 C   0  0  0  0  0  0  0  0  0  0  0  0
   25.0067  -19.8303  -14.1402 C   0  0  0  0  0  0  0  0  0  0  0  0
   24.0148  -18.9041  -14.7943 C   0  0  2  0  0  0  0  0  0  0  0  0
   23.0252  -19.5850  -15.5655 N   0  0  0  0  0  0  0  0  0  0  0  0
   24.8063  -18.0509  -15.7441 C   0  0  0  0  0  0  0  0  0  0  0  0
   24.9734  -18.3696  -16.9510 O   0  0  0  0  0  0  0  0  0  0  0  0
   27.2106  -20.9050  -11.0891 N   0  0  0  0  0  0  0  0  0  0  0  0
   25.3666  -16.8534  -15.2162 C   0  0  2  0  0  0  0  0  0  0  0  0
   26.1482  -15.9709  -16.0587 C   0  0  0  0  0  0  0  0  0  0  0  0
   26.5108  -14.7013  -15.2914 S   0  0  0  0  0  0  0  0  0  0  0  0
   27.5683  -13.7022  -16.3864 C   0  0  0  0  0  0  0  0  0  0  0  0
   27.3764  -16.6905  -16.4638 O   0  0  0  0  0  0  0  0  0  0  0  0
   27.9310  -16.5562  -17.7393 O   0  0  0  0  0  0  0  0  0  0  0  0
  1  2  1  0
  2  3  1  0
  3  4  2  0
  3 13  1  0
  6  5  1  0
  7  6  2  0
  8  6  1  0
  9  8  1  0
 10  9  1  0
 10 11  1  0
 12 11  1  6
 12 14  1  0
 13 12  1  0
 14 15  2  0
 14 16  1  0
 16 17  1  0
 17 20  1  0
 17 18  1  1
 18 19  1  0
 20 21  1  0
 22 20  2  0
M  END
$$$$
