GRC.pdb
     RDKit          3D

 22 21  0  0  1  0  0  0  0  0999 V2000
   18.5713  -17.7227  -13.8651 N   0  0  0  0  0  0  0  0  0  0  0  0
   19.4115  -18.4397  -14.8158 C   0  0  0  0  0  0  0  0  0  0  0  0
   20.8542  -18.1885  -14.5521 C   0  0  0  0  0  0  0  0  0  0  0  0
   21.1407  -17.1872  -13.8467 O   0  0  0  0  0  0  0  0  0  0  0  0
   26.2219  -21.1052  -11.2325 N   0  0  0  0  0  0  0  0  0  0  0  0
   27.1938  -21.1039  -12.2628 C   0  0  0  0  0  0  0  0  0  0  0  0
   28.4178  -20.7668  -11.9707 N   0  0  0  0  0  0  0  0  0  0  0  0
   26.8052  -21.4679  -13.5763 N   0  0  0  0  0  0  0  0  0  0  0  0
   25.4325  -21.6936  -13.8731 C   0  0  0  0  0  0  0  0  0  0  0  0
   24.5735  -20.4526  -13.6013 C   0  0  0  0  0  0  0  0  0  0  0  0
   24.1273  -19.9553  -14.9532 C   0  0  0  0  0  0  0  0  0  0  0  0
   23.2275  -18.7509  -14.8551 C   0  0  2  0  0  0  0  0  0  0  0  0
   21.8503  -19.0513  -15.0805 N   0  0  0  0  0  0  0  0  0  0  0  0
   23.6616  -17.8173  -15.9489 C   0  0  0  0  0  0  0  0  0  0  0  0
   23.2219  -17.9128  -17.1252 O   0  0  0  0  0  0  0  0  0  0  0  0
   29.1593  -20.6741  -12.6918 N   0  0  0  0  0  0  0  0  0  0  0  0
   24.6022  -16.8089  -15.5959 C   0  0  2  0  0  0  0  0  0  0  0  0
   25.0755  -15.8626  -16.5860 C   0  0  0  0  0  0  0  0  0  0  0  0
   25.7416  -14.6739  -15.8965 S   0  0  0  0  0  0  0  0  0  0  0  0
   26.9459  -15.3531  -14.7118 C   0  0  0  0  0  0  0  0  0  0  0  0
   26.0488  -16.5576  -17.4578 O   0  0  0  0  0  0  0  0  0  0  0  0
   26.4619  -16.0268  -18.6826 O   0  0  0  0  0  0  0  0  0  0  0  0
  1  2  1  0
  2  3  1  0
  3  4  2  0
  3 13  1  0
  6  5  1  0
  7  6  2  0
  8  6  1  0
  9  8  1  0
 10  9  1  0
 10 11  1  0
 12 11  1  6
 12 14  1  0
 13 12  1  0
 14 15  2  0
 14 16  1  0
 16 17  1  0
 17 20  1  0
 17 18  1  1
 18 19  1  0
 20 21  1  0
 22 20  2  0
M  END
$$$$
