GRC.pdb
     RDKit          3D

 22 21  0  0  1  0  0  0  0  0999 V2000
   30.7775  -21.7409  -11.1142 N   0  0  0  0  0  0  0  0  0  0  0  0
   29.8323  -20.6671  -10.8359 C   0  0  0  0  0  0  0  0  0  0  0  0
   28.5803  -20.8380  -11.6217 C   0  0  0  0  0  0  0  0  0  0  0  0
   28.6983  -21.2596  -12.8009 O   0  0  0  0  0  0  0  0  0  0  0  0
   20.4559  -21.9537   -9.0341 N   0  0  0  0  0  0  0  0  0  0  0  0
   21.8130  -21.8369   -8.6459 C   0  0  0  0  0  0  0  0  0  0  0  0
   22.1129  -21.9147   -7.3805 N   0  0  0  0  0  0  0  0  0  0  0  0
   22.8000  -21.6393   -9.6436 N   0  0  0  0  0  0  0  0  0  0  0  0
   22.4622  -20.9709  -10.8531 C   0  0  0  0  0  0  0  0  0  0  0  0
   23.6361  -20.9376  -11.8393 C   0  0  0  0  0  0  0  0  0  0  0  0
   24.8693  -20.6978  -11.0050 C   0  0  0  0  0  0  0  0  0  0  0  0
   26.1333  -20.7298  -11.8242 C   0  0  2  0  0  0  0  0  0  0  0  0
   27.3166  -20.5344  -11.0501 N   0  0  0  0  0  0  0  0  0  0  0  0
   26.0366  -19.5775  -12.7831 C   0  0  0  0  0  0  0  0  0  0  0  0
   25.9726  -18.3825  -12.3906 O   0  0  0  0  0  0  0  0  0  0  0  0
   23.0871  -21.8309   -7.0307 N   0  0  0  0  0  0  0  0  0  0  0  0
   26.0193  -19.8970  -14.1702 C   0  0  1  0  0  0  0  0  0  0  0  0
   26.0111  -18.8470  -15.1688 C   0  0  0  0  0  0  0  0  0  0  0  0
   27.4003  -18.7022  -15.7864 S   0  0  0  0  0  0  0  0  0  0  0  0
   28.4249  -17.7973  -14.5837 C   0  0  0  0  0  0  0  0  0  0  0  0
   25.0251  -19.2112  -16.2108 O   0  0  0  0  0  0  0  0  0  0  0  0
   24.4227  -18.2544  -17.0318 O   0  0  0  0  0  0  0  0  0  0  0  0
  1  2  1  0
  2  3  1  0
  3  4  2  0
  3 13  1  0
  6  5  1  0
  7  6  2  0
  8  6  1  0
  9  8  1  0
 10  9  1  0
 10 11  1  0
 12 11  1  1
 12 14  1  0
 13 12  1  0
 14 15  2  0
 14 16  1  0
 16 17  1  0
 17 20  1  0
 17 18  1  6
 18 19  1  0
 20 21  1  0
 22 20  2  0
M  END
$$$$
