VGG.pdb
     RDKit          3D

 16 15  0  0  1  0  0  0  0  0999 V2000
    8.1266  -12.9321   21.1956 C   0  0  0  0  0  0  0  0  0  0  0  0
    7.9299  -13.5202   19.8143 C   0  0  2  0  0  0  0  0  0  0  0  0
    6.9741  -12.6851   19.0244 C   0  0  0  0  0  0  0  0  0  0  0  0
    7.4829  -14.9579   19.9546 C   0  0  2  0  0  0  0  0  0  0  0  0
    6.1144  -14.9620   20.4357 N   0  0  0  0  0  0  0  0  0  0  0  0
    8.3772  -15.7464   20.8153 C   0  0  0  0  0  0  0  0  0  0  0  0
    8.1435  -15.9234   22.0370 O   0  0  0  0  0  0  0  0  0  0  0  0
    9.5535  -16.3431   20.2830 N   0  0  0  0  0  0  0  0  0  0  0  0
   10.3743  -17.2498   21.0894 C   0  0  0  0  0  0  0  0  0  0  0  0
   11.2601  -16.4577   21.9715 C   0  0  0  0  0  0  0  0  0  0  0  0
   11.5040  -15.2483   21.7426 O   0  0  0  0  0  0  0  0  0  0  0  0
   11.8445  -17.0867   23.1015 N   0  0  0  0  0  0  0  0  0  0  0  0
   12.3661  -16.2673   24.1656 C   0  0  0  0  0  0  0  0  0  0  0  0
   12.9594  -17.1194   25.2296 C   0  0  0  0  0  0  0  0  0  0  0  0
   14.2333  -17.6728   25.0979 O   0  0  0  0  0  0  0  0  0  0  0  0
   12.2946  -17.3419   26.2668 O   0  0  0  0  0  0  0  0  0  0  0  0
  2  1  1  1
  2  3  1  0
  4  2  1  0
  4  5  1  1
  6  4  1  0
  6  8  1  0
  7  6  2  0
  9  8  1  0
 10  9  1  0
 11 10  2  0
 12 10  1  0
 13 14  1  0
 13 12  1  0
 14 15  1  0
 16 14  2  0
M  END
$$$$
