VGG.pdb
     RDKit          3D

 16 15  0  0  1  0  0  0  0  0999 V2000
    7.9637  -14.3118   16.5900 C   0  0  0  0  0  0  0  0  0  0  0  0
    8.4387  -14.5712   18.0041 C   0  0  2  0  0  0  0  0  0  0  0  0
    8.7484  -16.0217   18.1912 C   0  0  0  0  0  0  0  0  0  0  0  0
    7.3953  -14.0595   18.9715 C   0  0  2  0  0  0  0  0  0  0  0  0
    7.0175  -12.7197   18.5636 N   0  0  0  0  0  0  0  0  0  0  0  0
    7.8487  -14.1080   20.3695 C   0  0  0  0  0  0  0  0  0  0  0  0
    8.6098  -13.2344   20.8554 O   0  0  0  0  0  0  0  0  0  0  0  0
    7.4331  -15.1622   21.2291 N   0  0  0  0  0  0  0  0  0  0  0  0
    7.8620  -15.2119   22.6290 C   0  0  0  0  0  0  0  0  0  0  0  0
    9.2913  -15.5902   22.6920 C   0  0  0  0  0  0  0  0  0  0  0  0
    9.9233  -15.9427   21.6669 O   0  0  0  0  0  0  0  0  0  0  0  0
    9.9573  -15.5514   23.9447 N   0  0  0  0  0  0  0  0  0  0  0  0
   11.3953  -15.4665   23.9693 C   0  0  0  0  0  0  0  0  0  0  0  0
   11.9929  -16.8277   23.9560 C   0  0  0  0  0  0  0  0  0  0  0  0
   13.2051  -17.1004   24.5904 O   0  0  0  0  0  0  0  0  0  0  0  0
   11.3887  -17.7474   23.3591 O   0  0  0  0  0  0  0  0  0  0  0  0
  2  1  1  6
  2  3  1  0
  4  2  1  0
  4  5  1  6
  6  4  1  0
  6  8  1  0
  7  6  2  0
  9  8  1  0
 10  9  1  0
 11 10  2  0
 12 10  1  0
 13 14  1  0
 13 12  1  0
 14 15  1  0
 16 14  2  0
M  END
$$$$
