VGG.pdb
     RDKit          3D

 16 15  0  0  1  0  0  0  0  0999 V2000
    7.9899  -12.6166   20.6510 C   0  0  0  0  0  0  0  0  0  0  0  0
    7.9582  -13.7728   19.6740 C   0  0  2  0  0  0  0  0  0  0  0  0
    7.3578  -13.3401   18.3750 C   0  0  0  0  0  0  0  0  0  0  0  0
    7.2211  -14.9297   20.3100 C   0  0  2  0  0  0  0  0  0  0  0  0
    5.8200  -14.5699   20.4179 N   0  0  0  0  0  0  0  0  0  0  0  0
    7.7956  -15.3224   21.6054 C   0  0  0  0  0  0  0  0  0  0  0  0
    7.4042  -14.8213   22.6890 O   0  0  0  0  0  0  0  0  0  0  0  0
    8.8289  -16.2974   21.6732 N   0  0  0  0  0  0  0  0  0  0  0  0
    9.3187  -16.7937   22.9615 C   0  0  0  0  0  0  0  0  0  0  0  0
   10.6409  -16.1941   23.2488 C   0  0  0  0  0  0  0  0  0  0  0  0
   11.2127  -15.4394   22.4254 O   0  0  0  0  0  0  0  0  0  0  0  0
   11.2719  -16.4834   24.4867 N   0  0  0  0  0  0  0  0  0  0  0  0
   12.5381  -15.8653   24.7869 C   0  0  0  0  0  0  0  0  0  0  0  0
   13.6461  -16.6200   24.1442 C   0  0  0  0  0  0  0  0  0  0  0  0
   14.9828  -16.3450   24.4339 O   0  0  0  0  0  0  0  0  0  0  0  0
   13.3661  -17.5232   23.3238 O   0  0  0  0  0  0  0  0  0  0  0  0
  2  1  1  1
  2  3  1  0
  4  2  1  0
  4  5  1  1
  6  4  1  0
  6  8  1  0
  7  6  2  0
  9  8  1  0
 10  9  1  0
 11 10  2  0
 12 10  1  0
 13 14  1  0
 13 12  1  0
 14 15  1  0
 16 14  2  0
M  END
$$$$
