VGG.pdb
     RDKit          3D

 16 15  0  0  1  0  0  0  0  0999 V2000
   -1.4268  -19.8333   22.2202 C   0  0  0  0  0  0  0  0  0  0  0  0
   -0.0150  -20.2851   22.5285 C   0  0  2  0  0  0  0  0  0  0  0  0
    0.3423  -19.9489   23.9407 C   0  0  0  0  0  0  0  0  0  0  0  0
    0.9264  -19.6701   21.5177 C   0  0  2  0  0  0  0  0  0  0  0  0
    0.4569  -20.0189   20.1903 N   0  0  0  0  0  0  0  0  0  0  0  0
    2.3258  -20.0664   21.7344 C   0  0  0  0  0  0  0  0  0  0  0  0
    2.8196  -21.0918   21.2022 O   0  0  0  0  0  0  0  0  0  0  0  0
    3.1778  -19.2887   22.5666 N   0  0  0  0  0  0  0  0  0  0  0  0
    4.5943  -19.6264   22.7266 C   0  0  0  0  0  0  0  0  0  0  0  0
    5.3124  -18.4706   23.3087 C   0  0  0  0  0  0  0  0  0  0  0  0
    5.8144  -17.5770   22.5849 O   0  0  0  0  0  0  0  0  0  0  0  0
    5.4326  -18.3765   24.7197 N   0  0  0  0  0  0  0  0  0  0  0  0
    6.2941  -17.3680   25.2820 C   0  0  0  0  0  0  0  0  0  0  0  0
    7.5498  -17.9844   25.7856 C   0  0  0  0  0  0  0  0  0  0  0  0
    8.4916  -17.2447   26.5013 O   0  0  0  0  0  0  0  0  0  0  0  0
    7.7613  -19.1972   25.5587 O   0  0  0  0  0  0  0  0  0  0  0  0
  2  1  1  6
  2  3  1  0
  4  2  1  0
  4  5  1  6
  6  4  1  0
  6  8  1  0
  7  6  2  0
  9  8  1  0
 10  9  1  0
 11 10  2  0
 12 10  1  0
 13 14  1  0
 13 12  1  0
 14 15  1  0
 16 14  2  0
M  END
$$$$
