VGG.pdb
     RDKit          3D

 16 15  0  0  1  0  0  0  0  0999 V2000
    9.8400  -13.8278   18.7711 C   0  0  0  0  0  0  0  0  0  0  0  0
    8.3654  -14.1129   18.9630 C   0  0  2  0  0  0  0  0  0  0  0  0
    7.5670  -13.4853   17.8659 C   0  0  0  0  0  0  0  0  0  0  0  0
    7.9519  -13.6421   20.3392 C   0  0  2  0  0  0  0  0  0  0  0  0
    8.0765  -12.1975   20.3803 N   0  0  0  0  0  0  0  0  0  0  0  0
    8.7139  -14.2967   21.4131 C   0  0  0  0  0  0  0  0  0  0  0  0
    9.6398  -13.7108   22.0277 O   0  0  0  0  0  0  0  0  0  0  0  0
    8.4217  -15.6351   21.7957 N   0  0  0  0  0  0  0  0  0  0  0  0
    9.2203  -16.3237   22.8126 C   0  0  0  0  0  0  0  0  0  0  0  0
   10.6145  -16.4580   22.3349 C   0  0  0  0  0  0  0  0  0  0  0  0
   10.8793  -16.6254   21.1199 O   0  0  0  0  0  0  0  0  0  0  0  0
   11.6728  -16.3952   23.2785 N   0  0  0  0  0  0  0  0  0  0  0  0
   13.0294  -16.5487   22.8184 C   0  0  0  0  0  0  0  0  0  0  0  0
   13.9803  -16.3749   23.9479 C   0  0  0  0  0  0  0  0  0  0  0  0
   15.3610  -16.4355   23.7575 O   0  0  0  0  0  0  0  0  0  0  0  0
   13.5245  -16.1694   25.0956 O   0  0  0  0  0  0  0  0  0  0  0  0
  2  1  1  6
  2  3  1  0
  4  2  1  0
  4  5  1  6
  6  4  1  0
  6  8  1  0
  7  6  2  0
  9  8  1  0
 10  9  1  0
 11 10  2  0
 12 10  1  0
 13 14  1  0
 13 12  1  0
 14 15  1  0
 16 14  2  0
M  END
$$$$
