VGG.pdb
     RDKit          3D

 16 15  0  0  1  0  0  0  0  0999 V2000
    7.1646  -16.3371   18.9286 C   0  0  0  0  0  0  0  0  0  0  0  0
    7.9944  -17.6033   18.9495 C   0  0  2  0  0  0  0  0  0  0  0  0
    7.2835  -18.7035   18.2290 C   0  0  0  0  0  0  0  0  0  0  0  0
    8.3203  -17.9501   20.3848 C   0  0  2  0  0  0  0  0  0  0  0  0
    7.1095  -18.4348   21.0199 N   0  0  0  0  0  0  0  0  0  0  0  0
    8.9194  -16.8240   21.1164 C   0  0  0  0  0  0  0  0  0  0  0  0
   10.0826  -16.4146   20.8760 O   0  0  0  0  0  0  0  0  0  0  0  0
    8.1889  -16.1523   22.1354 N   0  0  0  0  0  0  0  0  0  0  0  0
    8.7626  -15.0099   22.8509 C   0  0  0  0  0  0  0  0  0  0  0  0
    9.6054  -15.5002   23.9642 C   0  0  0  0  0  0  0  0  0  0  0  0
    9.1070  -16.0787   24.9599 O   0  0  0  0  0  0  0  0  0  0  0  0
   11.0101  -15.3083   23.8982 N   0  0  0  0  0  0  0  0  0  0  0  0
   11.8263  -15.7324   25.0071 C   0  0  0  0  0  0  0  0  0  0  0  0
   12.6820  -16.8810   24.6085 C   0  0  0  0  0  0  0  0  0  0  0  0
   12.8144  -18.0097   25.4177 O   0  0  0  0  0  0  0  0  0  0  0  0
   13.2960  -16.8279   23.5189 O   0  0  0  0  0  0  0  0  0  0  0  0
  2  1  1  1
  2  3  1  0
  4  2  1  0
  4  5  1  1
  6  4  1  0
  6  8  1  0
  7  6  2  0
  9  8  1  0
 10  9  1  0
 11 10  2  0
 12 10  1  0
 13 14  1  0
 13 12  1  0
 14 15  1  0
 16 14  2  0
M  END
$$$$
