VAA.pdb
     RDKit          3D

 18 17  0  0  1  0  0  0  0  0999 V2000
    7.9442  -17.7605   19.3732 C   0  0  0  0  0  0  0  0  0  0  0  0
    8.7140  -17.6663   18.0995 C   0  0  1  0  0  0  0  0  0  0  0  0
    8.4612  -18.8397   17.1781 C   0  0  0  0  0  0  0  0  0  0  0  0
    8.3484  -16.3946   17.3640 C   0  0  2  0  0  0  0  0  0  0  0  0
    9.1575  -16.4305   16.1228 N   0  0  0  0  0  0  0  0  0  0  0  0
    8.7830  -15.2355   18.1596 C   0  0  0  0  0  0  0  0  0  0  0  0
   10.0429  -15.0919   18.3526 O   0  0  0  0  0  0  0  0  0  0  0  0
    7.3636  -12.1387   19.6347 C   0  0  0  0  0  0  0  0  0  0  0  0
    8.4864  -13.1724   19.4613 C   0  0  2  0  0  0  0  0  0  0  0  0
    7.9181  -14.2669   18.7262 N   0  0  0  0  0  0  0  0  0  0  0  0
    8.9587  -13.5715   20.8052 C   0  0  0  0  0  0  0  0  0  0  0  0
    9.6997  -12.8506   21.5291 O   0  0  0  0  0  0  0  0  0  0  0  0
    8.0643  -16.3119   23.2150 C   0  0  0  0  0  0  0  0  0  0  0  0
    9.0301  -15.3108   22.6256 C   0  0  2  0  0  0  0  0  0  0  0  0
    8.5675  -14.8306   21.3259 N   0  0  0  0  0  0  0  0  0  0  0  0
   10.3801  -15.8931   22.4294 C   0  0  0  0  0  0  0  0  0  0  0  0
   10.9618  -16.0244   21.1748 O   0  0  0  0  0  0  0  0  0  0  0  0
   11.0446  -16.2890   23.4009 O   0  0  0  0  0  0  0  0  0  0  0  0
  2  1  1  1
  2  4  1  0
  3  2  1  0
  4  5  1  6
  4  6  1  0
  6 10  1  0
  6  7  2  0
  9  8  1  1
 10  9  1  0
 11  9  1  0
 11 12  2  0
 14 13  1  6
 14 15  1  0
 15 11  1  0
 16 14  1  0
 17 16  1  0
 18 16  2  0
M  END
$$$$
