VAA.pdb
     RDKit          3D

 18 17  0  0  1  0  0  0  0  0999 V2000
    7.0478  -15.8305   20.3440 C   0  0  0  0  0  0  0  0  0  0  0  0
    7.6854  -14.7018   19.6069 C   0  0  1  0  0  0  0  0  0  0  0  0
    7.1328  -14.5338   18.2082 C   0  0  0  0  0  0  0  0  0  0  0  0
    7.4780  -13.4055   20.3608 C   0  0  2  0  0  0  0  0  0  0  0  0
    8.2945  -12.4085   19.6289 N   0  0  0  0  0  0  0  0  0  0  0  0
    8.0317  -13.5428   21.7173 C   0  0  0  0  0  0  0  0  0  0  0  0
    9.3038  -13.6661   21.8251 O   0  0  0  0  0  0  0  0  0  0  0  0
    6.9624  -13.3588   25.2633 C   0  0  0  0  0  0  0  0  0  0  0  0
    7.9309  -13.8065   24.1584 C   0  0  2  0  0  0  0  0  0  0  0  0
    7.2688  -13.5474   22.9111 N   0  0  0  0  0  0  0  0  0  0  0  0
    8.2291  -15.2415   24.3589 C   0  0  0  0  0  0  0  0  0  0  0  0
    7.3846  -16.1628   24.1837 O   0  0  0  0  0  0  0  0  0  0  0  0
   11.2818  -17.3181   24.4967 C   0  0  0  0  0  0  0  0  0  0  0  0
    9.8927  -17.0176   25.0089 C   0  0  2  0  0  0  0  0  0  0  0  0
    9.5310  -15.6224   24.7709 N   0  0  0  0  0  0  0  0  0  0  0  0
    9.7745  -17.2647   26.4666 C   0  0  0  0  0  0  0  0  0  0  0  0
    9.9386  -18.5255   27.0262 O   0  0  0  0  0  0  0  0  0  0  0  0
    9.5201  -16.3327   27.2468 O   0  0  0  0  0  0  0  0  0  0  0  0
  2  1  1  1
  2  4  1  0
  3  2  1  0
  4  5  1  6
  4  6  1  0
  6 10  1  0
  6  7  2  0
  9  8  1  1
 10  9  1  0
 11  9  1  0
 11 12  2  0
 14 13  1  1
 14 15  1  0
 15 11  1  0
 16 14  1  0
 17 16  1  0
 18 16  2  0
M  END
$$$$
