VAA.pdb
     RDKit          3D

 18 17  0  0  1  0  0  0  0  0999 V2000
    7.8950  -12.1086   25.5928 C   0  0  0  0  0  0  0  0  0  0  0  0
    6.6272  -12.7137   26.0931 C   0  0  1  0  0  0  0  0  0  0  0  0
    5.4808  -11.7264   26.1180 C   0  0  0  0  0  0  0  0  0  0  0  0
    6.2298  -13.8844   25.2193 C   0  0  2  0  0  0  0  0  0  0  0  0
    5.0357  -14.4611   25.8812 N   0  0  0  0  0  0  0  0  0  0  0  0
    7.3006  -14.8933   25.2486 C   0  0  0  0  0  0  0  0  0  0  0  0
    7.4534  -15.5595   26.3340 O   0  0  0  0  0  0  0  0  0  0  0  0
    9.9850  -16.2304   23.0367 C   0  0  0  0  0  0  0  0  0  0  0  0
    9.2468  -16.1157   24.3788 C   0  0  2  0  0  0  0  0  0  0  0  0
    8.1730  -15.1857   24.1712 N   0  0  0  0  0  0  0  0  0  0  0  0
   10.2128  -15.6537   25.3995 C   0  0  0  0  0  0  0  0  0  0  0  0
   11.2166  -14.9347   25.1382 O   0  0  0  0  0  0  0  0  0  0  0  0
   10.4826  -14.2795   28.4065 C   0  0  0  0  0  0  0  0  0  0  0  0
   10.9203  -15.5995   27.8163 C   0  0  2  0  0  0  0  0  0  0  0  0
   10.0165  -16.0294   26.7522 N   0  0  0  0  0  0  0  0  0  0  0  0
   10.9528  -16.6777   28.8343 C   0  0  0  0  0  0  0  0  0  0  0  0
   11.7770  -16.6259   29.9512 O   0  0  0  0  0  0  0  0  0  0  0  0
   10.2290  -17.6800   28.7162 O   0  0  0  0  0  0  0  0  0  0  0  0
  2  1  1  6
  2  4  1  0
  3  2  1  0
  4  5  1  1
  4  6  1  0
  6 10  1  0
  6  7  2  0
  9  8  1  6
 10  9  1  0
 11  9  1  0
 11 12  2  0
 14 13  1  1
 14 15  1  0
 15 11  1  0
 16 14  1  0
 17 16  1  0
 18 16  2  0
M  END
$$$$
