VAA.pdb
     RDKit          3D

 18 17  0  0  1  0  0  0  0  0999 V2000
    9.0121  -13.3296   18.5368 C   0  0  0  0  0  0  0  0  0  0  0  0
    8.5167  -13.5603   19.9243 C   0  0  1  0  0  0  0  0  0  0  0  0
    7.2616  -12.7733   20.2330 C   0  0  0  0  0  0  0  0  0  0  0  0
    8.2214  -15.0305   20.1331 C   0  0  2  0  0  0  0  0  0  0  0  0
    7.1969  -15.3582   19.1136 N   0  0  0  0  0  0  0  0  0  0  0  0
    7.6193  -15.2172   21.4628 C   0  0  0  0  0  0  0  0  0  0  0  0
    6.3831  -14.9040   21.5994 O   0  0  0  0  0  0  0  0  0  0  0  0
    7.9659  -17.1372   24.4810 C   0  0  0  0  0  0  0  0  0  0  0  0
    7.6012  -15.7833   23.8540 C   0  0  2  0  0  0  0  0  0  0  0  0
    8.2990  -15.7170   22.6010 N   0  0  0  0  0  0  0  0  0  0  0  0
    8.0097  -14.7147   24.7920 C   0  0  0  0  0  0  0  0  0  0  0  0
    9.1939  -14.2909   24.8969 O   0  0  0  0  0  0  0  0  0  0  0  0
    6.0785  -12.3303   27.0067 C   0  0  0  0  0  0  0  0  0  0  0  0
    7.3389  -12.9982   26.5089 C   0  0  2  0  0  0  0  0  0  0  0  0
    7.0303  -14.1216   25.6277 N   0  0  0  0  0  0  0  0  0  0  0  0
    8.1654  -13.5218   27.6236 C   0  0  0  0  0  0  0  0  0  0  0  0
    8.3710  -14.8805   27.8268 O   0  0  0  0  0  0  0  0  0  0  0  0
    8.7098  -12.7452   28.4254 O   0  0  0  0  0  0  0  0  0  0  0  0
  2  1  1  6
  2  4  1  0
  3  2  1  0
  4  5  1  6
  4  6  1  0
  6 10  1  0
  6  7  2  0
  9  8  1  1
 10  9  1  0
 11  9  1  0
 11 12  2  0
 14 13  1  1
 14 15  1  0
 15 11  1  0
 16 14  1  0
 17 16  1  0
 18 16  2  0
M  END
$$$$
