VAA.pdb
     RDKit          3D

 18 17  0  0  1  0  0  0  0  0999 V2000
    8.3169  -19.2835   18.3889 C   0  0  0  0  0  0  0  0  0  0  0  0
    7.1006  -18.6057   17.8549 C   0  0  1  0  0  0  0  0  0  0  0  0
    6.0227  -18.4329   18.9028 C   0  0  0  0  0  0  0  0  0  0  0  0
    7.4627  -17.2392   17.3130 C   0  0  2  0  0  0  0  0  0  0  0  0
    8.4522  -17.5076   16.2429 N   0  0  0  0  0  0  0  0  0  0  0  0
    8.1312  -16.4632   18.3696 C   0  0  0  0  0  0  0  0  0  0  0  0
    9.2806  -16.8730   18.7644 O   0  0  0  0  0  0  0  0  0  0  0  0
    7.5626  -13.4087   20.4261 C   0  0  0  0  0  0  0  0  0  0  0  0
    8.3538  -14.6637   20.0282 C   0  0  2  0  0  0  0  0  0  0  0  0
    7.6040  -15.2993   18.9818 N   0  0  0  0  0  0  0  0  0  0  0  0
    8.4982  -15.5183   21.2270 C   0  0  0  0  0  0  0  0  0  0  0  0
    7.5238  -16.0430   21.8337 O   0  0  0  0  0  0  0  0  0  0  0  0
   10.2652  -18.0117   22.6242 C   0  0  0  0  0  0  0  0  0  0  0  0
   10.0123  -16.5584   22.9504 C   0  0  2  0  0  0  0  0  0  0  0  0
    9.7958  -15.7735   21.7376 N   0  0  0  0  0  0  0  0  0  0  0  0
   11.1516  -15.9477   23.6775 C   0  0  0  0  0  0  0  0  0  0  0  0
   11.4630  -16.2775   24.9905 O   0  0  0  0  0  0  0  0  0  0  0  0
   11.8766  -15.1057   23.1228 O   0  0  0  0  0  0  0  0  0  0  0  0
  2  1  1  1
  2  4  1  0
  3  2  1  0
  4  5  1  6
  4  6  1  0
  6 10  1  0
  6  7  2  0
  9  8  1  1
 10  9  1  0
 11  9  1  0
 11 12  2  0
 14 13  1  6
 14 15  1  0
 15 11  1  0
 16 14  1  0
 17 16  1  0
 18 16  2  0
M  END
$$$$
