VAA.pdb
     RDKit          3D

 18 17  0  0  1  0  0  0  0  0999 V2000
   10.4824  -21.2009   13.8743 C   0  0  0  0  0  0  0  0  0  0  0  0
   10.6153  -20.0895   12.8890 C   0  0  1  0  0  0  0  0  0  0  0  0
    9.9292  -20.3914   11.5745 C   0  0  0  0  0  0  0  0  0  0  0  0
   10.0211  -18.8179   13.4564 C   0  0  2  0  0  0  0  0  0  0  0  0
   10.4634  -17.7487   12.5304 N   0  0  0  0  0  0  0  0  0  0  0  0
   10.6162  -18.5548   14.7763 C   0  0  0  0  0  0  0  0  0  0  0  0
   11.8042  -18.0719   14.8016 O   0  0  0  0  0  0  0  0  0  0  0  0
    9.6154  -18.3063   18.3198 C   0  0  0  0  0  0  0  0  0  0  0  0
   10.6840  -18.4904   17.2319 C   0  0  2  0  0  0  0  0  0  0  0  0
    9.9779  -18.7919   16.0187 N   0  0  0  0  0  0  0  0  0  0  0  0
   11.5882  -19.5830   17.6526 C   0  0  0  0  0  0  0  0  0  0  0  0
   11.3243  -20.8077   17.4997 O   0  0  0  0  0  0  0  0  0  0  0  0
   15.0532  -20.2114   17.8934 C   0  0  0  0  0  0  0  0  0  0  0  0
   13.7735  -20.2799   18.6934 C   0  0  2  0  0  0  0  0  0  0  0  0
   12.8248  -19.2557   18.2634 N   0  0  0  0  0  0  0  0  0  0  0  0
   14.0154  -20.0811   20.1431 C   0  0  0  0  0  0  0  0  0  0  0  0
   13.3803  -20.8406   21.1175 O   0  0  0  0  0  0  0  0  0  0  0  0
   14.8094  -19.2115   20.5376 O   0  0  0  0  0  0  0  0  0  0  0  0
  2  1  1  1
  2  4  1  0
  3  2  1  0
  4  5  1  6
  4  6  1  0
  6 10  1  0
  6  7  2  0
  9  8  1  1
 10  9  1  0
 11  9  1  0
 11 12  2  0
 14 13  1  6
 14 15  1  0
 15 11  1  0
 16 14  1  0
 17 16  1  0
 18 16  2  0
M  END
$$$$
