VAA.pdb
     RDKit          3D

 18 17  0  0  1  0  0  0  0  0999 V2000
   12.7104  -18.1041   14.1818 C   0  0  0  0  0  0  0  0  0  0  0  0
   11.9098  -17.3432   13.1799 C   0  0  1  0  0  0  0  0  0  0  0  0
   12.0695  -17.8830   11.7753 C   0  0  0  0  0  0  0  0  0  0  0  0
   10.4412  -17.3895   13.5447 C   0  0  2  0  0  0  0  0  0  0  0  0
    9.8038  -16.3733   12.6742 N   0  0  0  0  0  0  0  0  0  0  0  0
   10.2780  -16.9608   14.9430 C   0  0  0  0  0  0  0  0  0  0  0  0
   10.4616  -15.7185   15.2040 O   0  0  0  0  0  0  0  0  0  0  0  0
    9.1606  -18.3579   18.2045 C   0  0  0  0  0  0  0  0  0  0  0  0
    9.7521  -17.2450   17.3266 C   0  0  2  0  0  0  0  0  0  0  0  0
    9.9325  -17.8133   16.0205 N   0  0  0  0  0  0  0  0  0  0  0  0
   11.0247  -16.8021   17.9370 C   0  0  0  0  0  0  0  0  0  0  0  0
   12.1306  -17.3797   17.7463 O   0  0  0  0  0  0  0  0  0  0  0  0
   12.1212  -13.6901   19.7345 C   0  0  0  0  0  0  0  0  0  0  0  0
   12.2423  -15.1604   19.4091 C   0  0  2  0  0  0  0  0  0  0  0  0
   11.0219  -15.6673   18.7865 N   0  0  0  0  0  0  0  0  0  0  0  0
   12.4949  -15.9769   20.6213 C   0  0  0  0  0  0  0  0  0  0  0  0
   11.5729  -16.8942   21.1095 O   0  0  0  0  0  0  0  0  0  0  0  0
   13.5602  -15.8627   21.2492 O   0  0  0  0  0  0  0  0  0  0  0  0
  2  1  1  1
  2  4  1  0
  3  2  1  0
  4  5  1  6
  4  6  1  0
  6 10  1  0
  6  7  2  0
  9  8  1  1
 10  9  1  0
 11  9  1  0
 11 12  2  0
 14 13  1  1
 14 15  1  0
 15 11  1  0
 16 14  1  0
 17 16  1  0
 18 16  2  0
M  END
$$$$
