VAA.pdb
     RDKit          3D

 18 17  0  0  1  0  0  0  0  0999 V2000
    8.1101  -12.4842   20.0882 C   0  0  0  0  0  0  0  0  0  0  0  0
    8.2543  -13.7840   20.8048 C   0  0  1  0  0  0  0  0  0  0  0  0
    7.7804  -13.7134   22.2402 C   0  0  0  0  0  0  0  0  0  0  0  0
    7.4623  -14.8605   20.0933 C   0  0  2  0  0  0  0  0  0  0  0  0
    6.0521  -14.4137   20.1840 N   0  0  0  0  0  0  0  0  0  0  0  0
    7.5903  -16.1240   20.8367 C   0  0  0  0  0  0  0  0  0  0  0  0
    6.7189  -16.3632   21.7470 O   0  0  0  0  0  0  0  0  0  0  0  0
    8.9951  -19.4369   20.4730 C   0  0  0  0  0  0  0  0  0  0  0  0
    8.5902  -18.2931   21.4147 C   0  0  2  0  0  0  0  0  0  0  0  0
    8.5992  -17.0954   20.6230 N   0  0  0  0  0  0  0  0  0  0  0  0
    9.5608  -18.2473   22.5301 C   0  0  0  0  0  0  0  0  0  0  0  0
    9.8293  -19.2376   23.2650 O   0  0  0  0  0  0  0  0  0  0  0  0
   12.0119  -15.6281   23.7503 C   0  0  0  0  0  0  0  0  0  0  0  0
   11.2414  -16.9231   23.8592 C   0  0  2  0  0  0  0  0  0  0  0  0
   10.2369  -17.0318   22.8042 N   0  0  0  0  0  0  0  0  0  0  0  0
   10.5355  -17.0399   25.1585 C   0  0  0  0  0  0  0  0  0  0  0  0
   11.2076  -17.2296   26.3593 O   0  0  0  0  0  0  0  0  0  0  0  0
    9.2968  -16.9701   25.2130 O   0  0  0  0  0  0  0  0  0  0  0  0
  2  1  1  6
  2  4  1  0
  3  2  1  0
  4  5  1  1
  4  6  1  0
  6 10  1  0
  6  7  2  0
  9  8  1  6
 10  9  1  0
 11  9  1  0
 11 12  2  0
 14 13  1  1
 14 15  1  0
 15 11  1  0
 16 14  1  0
 17 16  1  0
 18 16  2  0
M  END
$$$$
