VAA.pdb
     RDKit          3D

 18 17  0  0  1  0  0  0  0  0999 V2000
    8.7886  -18.6347   25.9684 C   0  0  0  0  0  0  0  0  0  0  0  0
    7.3014  -18.6786   25.8678 C   0  0  1  0  0  0  0  0  0  0  0  0
    6.6372  -17.4955   26.5379 C   0  0  0  0  0  0  0  0  0  0  0  0
    6.8792  -18.7025   24.4141 C   0  0  2  0  0  0  0  0  0  0  0  0
    7.4888  -19.9365   23.8644 N   0  0  0  0  0  0  0  0  0  0  0  0
    7.4750  -17.5498   23.7200 C   0  0  0  0  0  0  0  0  0  0  0  0
    8.7439  -17.5655   23.5334 O   0  0  0  0  0  0  0  0  0  0  0  0
    6.4900  -14.6609   21.6691 C   0  0  0  0  0  0  0  0  0  0  0  0
    7.4768  -15.3511   22.6226 C   0  0  2  0  0  0  0  0  0  0  0  0
    6.7554  -16.4272   23.2414 N   0  0  0  0  0  0  0  0  0  0  0  0
    7.9540  -14.3478   23.5994 C   0  0  0  0  0  0  0  0  0  0  0  0
    8.7638  -13.4230   23.3135 O   0  0  0  0  0  0  0  0  0  0  0  0
    6.6223  -12.8785   26.6436 C   0  0  0  0  0  0  0  0  0  0  0  0
    7.8463  -13.4082   25.9339 C   0  0  2  0  0  0  0  0  0  0  0  0
    7.4866  -14.4127   24.9361 N   0  0  0  0  0  0  0  0  0  0  0  0
    8.8024  -14.0398   26.8756 C   0  0  0  0  0  0  0  0  0  0  0  0
    9.2031  -15.3645   26.7568 O   0  0  0  0  0  0  0  0  0  0  0  0
    9.2835  -13.3898   27.8181 O   0  0  0  0  0  0  0  0  0  0  0  0
  2  1  1  6
  2  4  1  0
  3  2  1  0
  4  5  1  6
  4  6  1  0
  6 10  1  0
  6  7  2  0
  9  8  1  6
 10  9  1  0
 11  9  1  0
 11 12  2  0
 14 13  1  1
 14 15  1  0
 15 11  1  0
 16 14  1  0
 17 16  1  0
 18 16  2  0
M  END
$$$$
