TMR.pdb
     RDKit          3D

 27 26  0  0  1  0  0  0  0  0999 V2000
   26.8223  -18.6774  -15.2695 C   0  0  0  0  0  0  0  0  0  0  0  0
   27.2988  -19.8948  -16.0254 C   0  0  1  0  0  0  0  0  0  0  0  0
   28.3889  -19.5169  -16.8408 O   0  0  0  0  0  0  0  0  0  0  0  0
   27.8675  -20.9165  -15.0432 C   0  0  2  0  0  0  0  0  0  0  0  0
   28.2242  -22.1327  -15.7999 N   0  0  0  0  0  0  0  0  0  0  0  0
   26.8223  -21.3220  -14.1041 C   0  0  0  0  0  0  0  0  0  0  0  0
   26.0760  -22.3108  -14.3818 O   0  0  0  0  0  0  0  0  0  0  0  0
   26.6285  -19.0801   -8.0427 C   0  0  0  0  0  0  0  0  0  0  0  0
   25.6307  -20.5635   -7.9379 S   0  0  0  0  0  0  0  0  0  0  0  0
   24.8764  -21.0083   -9.5438 C   0  0  0  0  0  0  0  0  0  0  0  0
   25.9104  -20.7871  -10.5937 C   0  0  0  0  0  0  0  0  0  0  0  0
   25.5088  -21.1192  -12.0075 C   0  0  2  0  0  0  0  0  0  0  0  0
   26.6018  -20.6674  -12.8930 N   0  0  0  0  0  0  0  0  0  0  0  0
   24.2894  -20.4449  -12.4777 C   0  0  0  0  0  0  0  0  0  0  0  0
   24.2407  -19.1724  -12.6221 O   0  0  0  0  0  0  0  0  0  0  0  0
   19.9809  -26.0958  -13.3873 N   0  0  0  0  0  0  0  0  0  0  0  0
   18.9895  -25.3726  -12.6848 C   0  0  0  0  0  0  0  0  0  0  0  0
   18.3160  -25.9580  -11.7420 N   0  0  0  0  0  0  0  0  0  0  0  0
   18.6821  -24.0125  -12.9605 N   0  0  0  0  0  0  0  0  0  0  0  0
   19.4310  -23.2121  -13.9018 C   0  0  0  0  0  0  0  0  0  0  0  0
   20.2812  -22.1699  -13.1808 C   0  0  0  0  0  0  0  0  0  0  0  0
   21.0800  -21.3490  -14.1138 C   0  0  0  0  0  0  0  0  0  0  0  0
   21.9708  -20.3948  -13.3162 C   0  0  2  0  0  0  0  0  0  0  0  0
   23.1148  -21.1636  -12.7995 N   0  0  0  0  0  0  0  0  0  0  0  0
   21.1975  -19.8996  -12.1685 C   0  0  0  0  0  0  0  0  0  0  0  0
   21.2502  -20.2949  -10.9912 O   0  0  0  0  0  0  0  0  0  0  0  0
   20.2793  -18.8546  -12.3871 O   0  0  0  0  0  0  0  0  0  0  0  0
  2  1  1  1
  3  2  1  0
  4  2  1  0
  4  5  1  6
  6  4  1  0
  7  6  2  0
  9 10  1  0
  9  8  1  0
 12 11  1  1
 11 10  1  0
 12 13  1  0
 13  6  1  0
 14 15  2  0
 14 12  1  0
 16 17  1  0
 17 18  2  0
 19 20  1  0
 19 17  1  0
 21 20  1  0
 23 22  1  6
 22 21  1  0
 23 24  1  0
 24 14  1  0
 25 23  1  0
 26 25  2  0
 27 25  1  0
M  END
$$$$
