TMR.pdb
     RDKit          3D

 27 26  0  0  1  0  0  0  0  0999 V2000
   31.0040  -19.6008  -12.7758 C   0  0  0  0  0  0  0  0  0  0  0  0
   29.6835  -20.0326  -12.1840 C   0  0  1  0  0  0  0  0  0  0  0  0
   29.1365  -21.0459  -13.0024 O   0  0  0  0  0  0  0  0  0  0  0  0
   29.9226  -20.6959  -10.8295 C   0  0  2  0  0  0  0  0  0  0  0  0
   30.6049  -21.9840  -11.0623 N   0  0  0  0  0  0  0  0  0  0  0  0
   28.6367  -21.0294  -10.2179 C   0  0  0  0  0  0  0  0  0  0  0  0
   28.1252  -22.1749  -10.4133 O   0  0  0  0  0  0  0  0  0  0  0  0
   28.8217  -19.1655   -5.0378 C   0  0  0  0  0  0  0  0  0  0  0  0
   27.1012  -19.6625   -5.0200 S   0  0  0  0  0  0  0  0  0  0  0  0
   26.6781  -20.7515   -6.4274 C   0  0  0  0  0  0  0  0  0  0  0  0
   26.3817  -19.8717   -7.5930 C   0  0  0  0  0  0  0  0  0  0  0  0
   26.5692  -20.4839   -8.9570 C   0  0  2  0  0  0  0  0  0  0  0  0
   27.9316  -20.1372   -9.4114 N   0  0  0  0  0  0  0  0  0  0  0  0
   25.6486  -19.9851   -9.9896 C   0  0  0  0  0  0  0  0  0  0  0  0
   25.9997  -19.0688  -10.8140 O   0  0  0  0  0  0  0  0  0  0  0  0
   23.6945  -25.6038  -13.7922 N   0  0  0  0  0  0  0  0  0  0  0  0
   22.9006  -24.8322  -14.6719 C   0  0  0  0  0  0  0  0  0  0  0  0
   21.8101  -25.3380  -15.1619 N   0  0  0  0  0  0  0  0  0  0  0  0
   23.2381  -23.5068  -15.0586 N   0  0  0  0  0  0  0  0  0  0  0  0
   24.1832  -22.6917  -14.3304 C   0  0  0  0  0  0  0  0  0  0  0  0
   23.4789  -21.8512  -13.2692 C   0  0  0  0  0  0  0  0  0  0  0  0
   24.4178  -21.0064  -12.5029 C   0  0  0  0  0  0  0  0  0  0  0  0
   23.6520  -20.2568  -11.4112 C   0  0  2  0  0  0  0  0  0  0  0  0
   24.3365  -20.4933  -10.1297 N   0  0  0  0  0  0  0  0  0  0  0  0
   22.3028  -20.8332  -11.3215 C   0  0  0  0  0  0  0  0  0  0  0  0
   21.8395  -21.5410  -10.4108 O   0  0  0  0  0  0  0  0  0  0  0  0
   21.3991  -20.5755  -12.3702 O   0  0  0  0  0  0  0  0  0  0  0  0
  2  1  1  6
  3  2  1  0
  4  2  1  0
  4  5  1  6
  6  4  1  0
  7  6  2  0
  9 10  1  0
  9  8  1  0
 12 11  1  1
 11 10  1  0
 12 13  1  0
 13  6  1  0
 14 15  2  0
 14 12  1  0
 16 17  1  0
 17 18  2  0
 19 20  1  0
 19 17  1  0
 21 20  1  0
 23 22  1  6
 22 21  1  0
 23 24  1  0
 24 14  1  0
 25 23  1  0
 26 25  2  0
 27 25  1  0
M  END
$$$$
