TMR.pdb
     RDKit          3D

 27 26  0  0  1  0  0  0  0  0999 V2000
   26.5949  -18.1945  -15.1475 C   0  0  0  0  0  0  0  0  0  0  0  0
   27.1894  -19.3110  -15.9724 C   0  0  1  0  0  0  0  0  0  0  0  0
   28.1373  -18.7553  -16.8605 O   0  0  0  0  0  0  0  0  0  0  0  0
   27.9876  -20.2464  -15.0671 C   0  0  2  0  0  0  0  0  0  0  0  0
   28.4616  -21.3819  -15.8826 N   0  0  0  0  0  0  0  0  0  0  0  0
   27.0989  -20.8221  -14.0583 C   0  0  0  0  0  0  0  0  0  0  0  0
   26.3734  -21.8208  -14.3552 O   0  0  0  0  0  0  0  0  0  0  0  0
   25.4606  -20.7882   -6.2932 C   0  0  0  0  0  0  0  0  0  0  0  0
   26.4062  -20.3366   -7.7454 S   0  0  0  0  0  0  0  0  0  0  0  0
   25.6146  -20.9035   -9.2939 C   0  0  0  0  0  0  0  0  0  0  0  0
   26.5272  -20.5410  -10.4147 C   0  0  0  0  0  0  0  0  0  0  0  0
   26.0901  -20.9603  -11.7944 C   0  0  2  0  0  0  0  0  0  0  0  0
   27.0089  -20.3226  -12.7598 N   0  0  0  0  0  0  0  0  0  0  0  0
   24.7338  -20.5330  -12.1691 C   0  0  0  0  0  0  0  0  0  0  0  0
   24.4540  -19.3001  -12.3795 O   0  0  0  0  0  0  0  0  0  0  0  0
   18.1692  -25.0643  -15.8983 N   0  0  0  0  0  0  0  0  0  0  0  0
   18.6886  -24.9936  -14.5850 C   0  0  0  0  0  0  0  0  0  0  0  0
   18.5309  -25.9983  -13.7783 N   0  0  0  0  0  0  0  0  0  0  0  0
   19.3869  -23.8595  -14.0886 N   0  0  0  0  0  0  0  0  0  0  0  0
   19.6550  -22.6878  -14.8906 C   0  0  0  0  0  0  0  0  0  0  0  0
   20.3849  -21.6224  -14.0777 C   0  0  0  0  0  0  0  0  0  0  0  0
   21.6969  -22.0888  -13.5841 C   0  0  0  0  0  0  0  0  0  0  0  0
   22.4000  -20.9448  -12.8511 C   0  0  2  0  0  0  0  0  0  0  0  0
   23.6746  -21.4572  -12.3224 N   0  0  0  0  0  0  0  0  0  0  0  0
   21.5601  -20.5471  -11.7124 C   0  0  0  0  0  0  0  0  0  0  0  0
   21.5466  -21.0398  -10.5713 O   0  0  0  0  0  0  0  0  0  0  0  0
   20.6517  -19.4867  -11.8951 O   0  0  0  0  0  0  0  0  0  0  0  0
  2  1  1  1
  3  2  1  0
  4  2  1  0
  4  5  1  6
  6  4  1  0
  7  6  2  0
  9 10  1  0
  9  8  1  0
 12 11  1  1
 11 10  1  0
 12 13  1  0
 13  6  1  0
 14 15  2  0
 14 12  1  0
 16 17  1  0
 17 18  2  0
 19 20  1  0
 19 17  1  0
 21 20  1  0
 23 22  1  1
 22 21  1  0
 23 24  1  0
 24 14  1  0
 25 23  1  0
 26 25  2  0
 27 25  1  0
M  END
$$$$
