TMR.pdb
     RDKit          3D

 27 26  0  0  1  0  0  0  0  0999 V2000
   26.8050  -18.0720  -14.9097 C   0  0  0  0  0  0  0  0  0  0  0  0
   27.4890  -19.1871  -15.6640 C   0  0  1  0  0  0  0  0  0  0  0  0
   28.4924  -18.6233  -16.4834 O   0  0  0  0  0  0  0  0  0  0  0  0
   28.2330  -20.0882  -14.6810 C   0  0  2  0  0  0  0  0  0  0  0  0
   28.9354  -21.1312  -15.4542 N   0  0  0  0  0  0  0  0  0  0  0  0
   27.2660  -20.7953  -13.8422 C   0  0  0  0  0  0  0  0  0  0  0  0
   26.8012  -21.9135  -14.2236 O   0  0  0  0  0  0  0  0  0  0  0  0
   26.7925  -19.2706   -7.8369 C   0  0  0  0  0  0  0  0  0  0  0  0
   25.6058  -20.6074   -7.7268 S   0  0  0  0  0  0  0  0  0  0  0  0
   25.1344  -21.2551   -9.3712 C   0  0  0  0  0  0  0  0  0  0  0  0
   26.0881  -20.6811  -10.3619 C   0  0  0  0  0  0  0  0  0  0  0  0
   25.8927  -21.0980  -11.7966 C   0  0  2  0  0  0  0  0  0  0  0  0
   26.8225  -20.2961  -12.6183 N   0  0  0  0  0  0  0  0  0  0  0  0
   24.5463  -20.8503  -12.3337 C   0  0  0  0  0  0  0  0  0  0  0  0
   24.2239  -19.7168  -12.8373 O   0  0  0  0  0  0  0  0  0  0  0  0
   17.1320  -25.7520  -14.3948 N   0  0  0  0  0  0  0  0  0  0  0  0
   16.9504  -24.3698  -14.6318 C   0  0  0  0  0  0  0  0  0  0  0  0
   15.8138  -23.9419  -15.0902 N   0  0  0  0  0  0  0  0  0  0  0  0
   17.9647  -23.4033  -14.3921 N   0  0  0  0  0  0  0  0  0  0  0  0
   19.2733  -23.7459  -13.8842 C   0  0  0  0  0  0  0  0  0  0  0  0
   20.1241  -22.4967  -13.6741 C   0  0  0  0  0  0  0  0  0  0  0  0
   21.4559  -22.8077  -13.1156 C   0  0  0  0  0  0  0  0  0  0  0  0
   22.2504  -21.5117  -12.9441 C   0  0  2  0  0  0  0  0  0  0  0  0
   23.5443  -21.8482  -12.3283 N   0  0  0  0  0  0  0  0  0  0  0  0
   21.5139  -20.6438  -12.0142 C   0  0  0  0  0  0  0  0  0  0  0  0
   21.5430  -20.6660  -10.7717 O   0  0  0  0  0  0  0  0  0  0  0  0
   20.6661  -19.6583  -12.5552 O   0  0  0  0  0  0  0  0  0  0  0  0
  2  1  1  1
  3  2  1  0
  4  2  1  0
  4  5  1  6
  6  4  1  0
  7  6  2  0
  9 10  1  0
  9  8  1  0
 12 11  1  1
 11 10  1  0
 12 13  1  0
 13  6  1  0
 14 15  2  0
 14 12  1  0
 16 17  1  0
 17 18  2  0
 19 20  1  0
 19 17  1  0
 21 20  1  0
 23 22  1  1
 22 21  1  0
 23 24  1  0
 24 14  1  0
 25 23  1  0
 26 25  2  0
 27 25  1  0
M  END
$$$$
