TMR.pdb
     RDKit          3D

 27 26  0  0  1  0  0  0  0  0999 V2000
   26.6922  -10.4174  -22.9638 C   0  0  0  0  0  0  0  0  0  0  0  0
   26.6293  -11.9021  -22.6955 C   0  0  1  0  0  0  0  0  0  0  0  0
   26.7328  -12.5843  -23.9283 O   0  0  0  0  0  0  0  0  0  0  0  0
   27.8578  -12.3298  -21.8956 C   0  0  2  0  0  0  0  0  0  0  0  0
   27.7555  -13.7792  -21.6356 N   0  0  0  0  0  0  0  0  0  0  0  0
   27.8319  -11.6853  -20.5831 C   0  0  0  0  0  0  0  0  0  0  0  0
   27.2239  -12.2449  -19.6192 O   0  0  0  0  0  0  0  0  0  0  0  0
   32.0051   -6.9721  -15.9058 C   0  0  0  0  0  0  0  0  0  0  0  0
   31.5619   -7.6606  -17.4985 S   0  0  0  0  0  0  0  0  0  0  0  0
   29.8994   -8.4233  -17.4873 C   0  0  0  0  0  0  0  0  0  0  0  0
   29.7363   -9.1459  -18.7803 C   0  0  0  0  0  0  0  0  0  0  0  0
   28.4516   -9.9123  -18.9600 C   0  0  2  0  0  0  0  0  0  0  0  0
   28.4569  -10.4650  -20.3301 N   0  0  0  0  0  0  0  0  0  0  0  0
   27.2287   -9.1037  -18.8443 C   0  0  0  0  0  0  0  0  0  0  0  0
   26.8809   -8.2798  -19.7623 O   0  0  0  0  0  0  0  0  0  0  0  0
   19.0480  -10.1399  -15.2619 N   0  0  0  0  0  0  0  0  0  0  0  0
   19.2503   -8.8042  -15.6797 C   0  0  0  0  0  0  0  0  0  0  0  0
   18.2573   -7.9684  -15.6584 N   0  0  0  0  0  0  0  0  0  0  0  0
   20.5062   -8.3164  -16.1325 N   0  0  0  0  0  0  0  0  0  0  0  0
   21.6743   -9.1563  -16.2662 C   0  0  0  0  0  0  0  0  0  0  0  0
   22.8089   -8.4105  -16.9628 C   0  0  0  0  0  0  0  0  0  0  0  0
   24.0231   -9.2391  -17.1097 C   0  0  0  0  0  0  0  0  0  0  0  0
   25.1353   -8.4029  -17.7454 C   0  0  2  0  0  0  0  0  0  0  0  0
   26.3738   -9.1980  -17.7218 N   0  0  0  0  0  0  0  0  0  0  0  0
   25.3427   -7.2096  -16.9125 C   0  0  0  0  0  0  0  0  0  0  0  0
   26.2735   -6.9917  -16.1181 O   0  0  0  0  0  0  0  0  0  0  0  0
   24.3984   -6.1684  -16.9965 O   0  0  0  0  0  0  0  0  0  0  0  0
  2  1  1  6
  3  2  1  0
  4  2  1  0
  4  5  1  1
  6  4  1  0
  7  6  2  0
  9 10  1  0
  9  8  1  0
 12 11  1  6
 11 10  1  0
 12 13  1  0
 13  6  1  0
 14 15  2  0
 14 12  1  0
 16 17  1  0
 17 18  2  0
 19 20  1  0
 19 17  1  0
 21 20  1  0
 23 22  1  1
 22 21  1  0
 23 24  1  0
 24 14  1  0
 25 23  1  0
 26 25  2  0
 27 25  1  0
M  END
$$$$
