TMR.pdb
     RDKit          3D

 27 26  0  0  1  0  0  0  0  0999 V2000
   29.4582  -20.5621  -12.3966 C   0  0  0  0  0  0  0  0  0  0  0  0
   30.3458  -21.7627  -12.1704 C   0  0  1  0  0  0  0  0  0  0  0  0
   31.4583  -21.6661  -13.0359 O   0  0  0  0  0  0  0  0  0  0  0  0
   30.9287  -21.7093  -10.7600 C   0  0  2  0  0  0  0  0  0  0  0  0
   31.7190  -22.9369  -10.5422 N   0  0  0  0  0  0  0  0  0  0  0  0
   29.8417  -21.7549   -9.7828 C   0  0  0  0  0  0  0  0  0  0  0  0
   29.3065  -22.8679   -9.4884 O   0  0  0  0  0  0  0  0  0  0  0  0
   28.8526  -20.0015   -3.4494 C   0  0  0  0  0  0  0  0  0  0  0  0
   27.9952  -18.9134   -4.5844 S   0  0  0  0  0  0  0  0  0  0  0  0
   27.3430  -19.8048   -6.0424 C   0  0  0  0  0  0  0  0  0  0  0  0
   28.4682  -19.9554   -7.0077 C   0  0  0  0  0  0  0  0  0  0  0  0
   28.1671  -20.7196   -8.2709 C   0  0  2  0  0  0  0  0  0  0  0  0
   29.3561  -20.6160   -9.1417 N   0  0  0  0  0  0  0  0  0  0  0  0
   27.0349  -20.1997   -9.0522 C   0  0  0  0  0  0  0  0  0  0  0  0
   27.1864  -19.2536   -9.9033 O   0  0  0  0  0  0  0  0  0  0  0  0
   20.4299  -21.9422  -12.8924 N   0  0  0  0  0  0  0  0  0  0  0  0
   21.1608  -21.3727  -13.9605 C   0  0  0  0  0  0  0  0  0  0  0  0
   20.5266  -20.8775  -14.9791 N   0  0  0  0  0  0  0  0  0  0  0  0
   22.5807  -21.3123  -13.9816 N   0  0  0  0  0  0  0  0  0  0  0  0
   23.4023  -21.7280  -12.8680 C   0  0  0  0  0  0  0  0  0  0  0  0
   24.2110  -20.5574  -12.3164 C   0  0  0  0  0  0  0  0  0  0  0  0
   25.1538  -20.9715  -11.2571 C   0  0  0  0  0  0  0  0  0  0  0  0
   24.7340  -20.3410   -9.9281 C   0  0  2  0  0  0  0  0  0  0  0  0
   25.7274  -20.7193   -8.9099 N   0  0  0  0  0  0  0  0  0  0  0  0
   23.4387  -20.9162   -9.5383 C   0  0  0  0  0  0  0  0  0  0  0  0
   23.2339  -21.8764   -8.7760 O   0  0  0  0  0  0  0  0  0  0  0  0
   22.2689  -20.3393  -10.0688 O   0  0  0  0  0  0  0  0  0  0  0  0
  2  1  1  6
  3  2  1  0
  4  2  1  0
  4  5  1  1
  6  4  1  0
  7  6  2  0
  9 10  1  0
  9  8  1  0
 12 11  1  1
 11 10  1  0
 12 13  1  0
 13  6  1  0
 14 15  2  0
 14 12  1  0
 16 17  1  0
 17 18  2  0
 19 20  1  0
 19 17  1  0
 21 20  1  0
 23 22  1  6
 22 21  1  0
 23 24  1  0
 24 14  1  0
 25 23  1  0
 26 25  2  0
 27 25  1  0
M  END
$$$$
