TMR.pdb
     RDKit          3D

 27 26  0  0  1  0  0  0  0  0999 V2000
   26.6936  -17.6957  -14.8633 C   0  0  0  0  0  0  0  0  0  0  0  0
   27.2277  -18.8605  -15.6622 C   0  0  1  0  0  0  0  0  0  0  0  0
   28.0447  -18.3554  -16.6982 O   0  0  0  0  0  0  0  0  0  0  0  0
   28.1594  -19.6963  -14.7875 C   0  0  2  0  0  0  0  0  0  0  0  0
   28.8783  -20.6467  -15.6586 N   0  0  0  0  0  0  0  0  0  0  0  0
   27.3637  -20.5149  -13.8735 C   0  0  0  0  0  0  0  0  0  0  0  0
   27.9066  -21.4886  -13.2661 O   0  0  0  0  0  0  0  0  0  0  0  0
   24.4749  -20.4539   -8.0075 C   0  0  0  0  0  0  0  0  0  0  0  0
   26.1815  -20.4380   -8.5499 S   0  0  0  0  0  0  0  0  0  0  0  0
   26.4132  -21.3117  -10.1401 C   0  0  0  0  0  0  0  0  0  0  0  0
   26.1484  -20.3277  -11.2273 C   0  0  0  0  0  0  0  0  0  0  0  0
   25.3790  -20.8384  -12.4180 C   0  0  2  0  0  0  0  0  0  0  0  0
   26.0129  -20.2731  -13.6268 N   0  0  0  0  0  0  0  0  0  0  0  0
   23.9667  -20.4308  -12.4617 C   0  0  0  0  0  0  0  0  0  0  0  0
   23.6277  -19.2060  -12.6267 O   0  0  0  0  0  0  0  0  0  0  0  0
   20.3305  -25.8620  -14.3949 N   0  0  0  0  0  0  0  0  0  0  0  0
   19.0648  -25.3948  -14.8183 C   0  0  0  0  0  0  0  0  0  0  0  0
   18.0137  -26.1335  -14.6325 N   0  0  0  0  0  0  0  0  0  0  0  0
   18.8760  -24.1358  -15.4504 N   0  0  0  0  0  0  0  0  0  0  0  0
   19.8347  -23.0586  -15.3598 C   0  0  0  0  0  0  0  0  0  0  0  0
   19.7306  -22.3436  -14.0157 C   0  0  0  0  0  0  0  0  0  0  0  0
   20.9488  -22.5029  -13.1953 C   0  0  0  0  0  0  0  0  0  0  0  0
   21.7446  -21.1965  -13.2082 C   0  0  2  0  0  0  0  0  0  0  0  0
   22.9145  -21.3665  -12.3312 N   0  0  0  0  0  0  0  0  0  0  0  0
   20.8968  -20.1393  -12.6390 C   0  0  0  0  0  0  0  0  0  0  0  0
   20.9474  -19.6615  -11.4926 O   0  0  0  0  0  0  0  0  0  0  0  0
   19.8989  -19.5753  -13.4569 O   0  0  0  0  0  0  0  0  0  0  0  0
  2  1  1  1
  3  2  1  0
  4  2  1  0
  4  5  1  6
  6  4  1  0
  7  6  2  0
  9 10  1  0
  9  8  1  0
 12 11  1  1
 11 10  1  0
 12 13  1  0
 13  6  1  0
 14 15  2  0
 14 12  1  0
 16 17  1  0
 17 18  2  0
 19 20  1  0
 19 17  1  0
 21 20  1  0
 23 22  1  1
 22 21  1  0
 23 24  1  0
 24 14  1  0
 25 23  1  0
 26 25  2  0
 27 25  1  0
M  END
$$$$
