GSV.pdb
     RDKit          3D

 18 17  0  0  1  0  0  0  0  0999 V2000
   21.8387  -14.1668  -19.8808 N   0  0  0  0  0  0  0  0  0  0  0  0
   22.6284  -13.0506  -19.5180 C   0  0  0  0  0  0  0  0  0  0  0  0
   22.1308  -12.2706  -18.3755 C   0  0  0  0  0  0  0  0  0  0  0  0
   20.9716  -11.7996  -18.4408 O   0  0  0  0  0  0  0  0  0  0  0  0
   24.4852  -11.2650  -15.0077 O   0  0  0  0  0  0  0  0  0  0  0  0
   23.1077  -11.3801  -14.8273 C   0  0  0  0  0  0  0  0  0  0  0  0
   22.3458  -11.2497  -16.1124 C   0  0  2  0  0  0  0  0  0  0  0  0
   22.8662  -12.0067  -17.1943 N   0  0  0  0  0  0  0  0  0  0  0  0
   22.3392   -9.8118  -16.4879 C   0  0  0  0  0  0  0  0  0  0  0  0
   23.2421   -9.3246  -17.1954 O   0  0  0  0  0  0  0  0  0  0  0  0
   19.8823   -8.0491  -18.4838 C   0  0  0  0  0  0  0  0  0  0  0  0
   19.9747   -7.2377  -17.2274 C   0  0  1  0  0  0  0  0  0  0  0  0
   18.7720   -7.5210  -16.3741 C   0  0  0  0  0  0  0  0  0  0  0  0
   21.2196   -7.5467  -16.4281 C   0  0  2  0  0  0  0  0  0  0  0  0
   21.2845   -8.9372  -16.0427 N   0  0  0  0  0  0  0  0  0  0  0  0
   21.3513   -6.7007  -15.2352 C   0  0  0  0  0  0  0  0  0  0  0  0
   21.6451   -5.4897  -15.3310 O   0  0  0  0  0  0  0  0  0  0  0  0
   21.1552   -7.2097  -13.9497 O   0  0  0  0  0  0  0  0  0  0  0  0
  2  3  1  0
  2  1  1  0
  3  4  2  0
  6  5  1  0
  7  6  1  1
  7  9  1  0
  8  7  1  0
  8  3  1  0
  9 15  1  0
 10  9  2  0
 12 11  1  6
 12 14  1  0
 13 12  1  0
 14 16  1  0
 14 15  1  1
 16 17  2  0
 16 18  1  0
M  END
$$$$
