GSV.pdb
     RDKit          3D

 18 17  0  0  1  0  0  0  0  0999 V2000
   21.6794  -19.3293  -17.2322 N   0  0  0  0  0  0  0  0  0  0  0  0
   21.8620  -18.3167  -16.2612 C   0  0  0  0  0  0  0  0  0  0  0  0
   20.6675  -17.5181  -15.9505 C   0  0  0  0  0  0  0  0  0  0  0  0
   19.9174  -17.1829  -16.8965 O   0  0  0  0  0  0  0  0  0  0  0  0
   18.6648  -17.5182  -12.3230 O   0  0  0  0  0  0  0  0  0  0  0  0
   18.7290  -16.2702  -12.9410 C   0  0  0  0  0  0  0  0  0  0  0  0
   19.1047  -16.3639  -14.3898 C   0  0  2  0  0  0  0  0  0  0  0  0
   20.2937  -17.0931  -14.6523 N   0  0  0  0  0  0  0  0  0  0  0  0
   19.2641  -14.9786  -14.9040 C   0  0  0  0  0  0  0  0  0  0  0  0
   20.3182  -14.3392  -14.7221 O   0  0  0  0  0  0  0  0  0  0  0  0
   18.1869  -13.8048  -18.5595 C   0  0  0  0  0  0  0  0  0  0  0  0
   17.6315  -12.8797  -17.5197 C   0  0  1  0  0  0  0  0  0  0  0  0
   16.1750  -13.1869  -17.3214 C   0  0  0  0  0  0  0  0  0  0  0  0
   18.3395  -13.0096  -16.1908 C   0  0  2  0  0  0  0  0  0  0  0  0
   18.2002  -14.3335  -15.6300 N   0  0  0  0  0  0  0  0  0  0  0  0
   17.8915  -12.0124  -15.2105 C   0  0  0  0  0  0  0  0  0  0  0  0
   18.1295  -10.7959  -15.3711 O   0  0  0  0  0  0  0  0  0  0  0  0
   17.1843  -12.3778  -14.0631 O   0  0  0  0  0  0  0  0  0  0  0  0
  2  3  1  0
  2  1  1  0
  3  4  2  0
  6  5  1  0
  7  6  1  1
  7  9  1  0
  8  7  1  0
  8  3  1  0
  9 15  1  0
 10  9  2  0
 12 11  1  6
 12 14  1  0
 13 12  1  0
 14 16  1  0
 14 15  1  1
 16 17  2  0
 16 18  1  0
M  END
$$$$
