GSV.pdb
     RDKit          3D

 18 17  0  0  1  0  0  0  0  0999 V2000
   15.0989  -11.6438  -14.7029 N   0  0  0  0  0  0  0  0  0  0  0  0
   16.1284  -12.3770  -15.3383 C   0  0  0  0  0  0  0  0  0  0  0  0
   17.2976  -11.5899  -15.7563 C   0  0  0  0  0  0  0  0  0  0  0  0
   18.4359  -12.0844  -15.5841 O   0  0  0  0  0  0  0  0  0  0  0  0
   19.2701   -7.8616  -18.2061 O   0  0  0  0  0  0  0  0  0  0  0  0
   18.1068   -8.4796  -17.7497 C   0  0  0  0  0  0  0  0  0  0  0  0
   18.3878   -9.6090  -16.8040 C   0  0  2  0  0  0  0  0  0  0  0  0
   17.2382  -10.3030  -16.3445 N   0  0  0  0  0  0  0  0  0  0  0  0
   19.1124   -9.0470  -15.6345 C   0  0  0  0  0  0  0  0  0  0  0  0
   18.4983   -8.5295  -14.6816 O   0  0  0  0  0  0  0  0  0  0  0  0
   22.1409  -10.8377  -13.7856 C   0  0  0  0  0  0  0  0  0  0  0  0
   22.4992   -9.4218  -14.1204 C   0  0  1  0  0  0  0  0  0  0  0  0
   23.4115   -9.4184  -15.3132 C   0  0  0  0  0  0  0  0  0  0  0  0
   21.2868   -8.5761  -14.4352 C   0  0  2  0  0  0  0  0  0  0  0  0
   20.5511   -9.0851  -15.5693 N   0  0  0  0  0  0  0  0  0  0  0  0
   21.6239   -7.1652  -14.6628 C   0  0  0  0  0  0  0  0  0  0  0  0
   22.0874   -6.4552  -13.7445 O   0  0  0  0  0  0  0  0  0  0  0  0
   21.4424   -6.5592  -15.9077 O   0  0  0  0  0  0  0  0  0  0  0  0
  2  3  1  0
  2  1  1  0
  3  4  2  0
  6  5  1  0
  7  6  1  6
  7  9  1  0
  8  7  1  0
  8  3  1  0
  9 15  1  0
 10  9  2  0
 12 11  1  6
 12 14  1  0
 13 12  1  0
 14 16  1  0
 14 15  1  6
 16 17  2  0
 16 18  1  0
M  END
$$$$
