GSV.pdb
     RDKit          3D

 18 17  0  0  1  0  0  0  0  0999 V2000
   14.4222  -13.3746  -19.3120 N   0  0  0  0  0  0  0  0  0  0  0  0
   15.4766  -12.4323  -19.3527 C   0  0  0  0  0  0  0  0  0  0  0  0
   15.6288  -11.6038  -18.1479 C   0  0  0  0  0  0  0  0  0  0  0  0
   14.8344  -10.6492  -17.9820 O   0  0  0  0  0  0  0  0  0  0  0  0
   17.0331  -12.6537  -14.2879 O   0  0  0  0  0  0  0  0  0  0  0  0
   17.5912  -11.5362  -14.9070 C   0  0  0  0  0  0  0  0  0  0  0  0
   16.7178  -10.9839  -15.9938 C   0  0  2  0  0  0  0  0  0  0  0  0
   16.6132  -11.8016  -17.1491 N   0  0  0  0  0  0  0  0  0  0  0  0
   17.2701   -9.6612  -16.3865 C   0  0  0  0  0  0  0  0  0  0  0  0
   18.1768   -9.5660  -17.2361 O   0  0  0  0  0  0  0  0  0  0  0  0
   15.4870   -6.0029  -14.7998 C   0  0  0  0  0  0  0  0  0  0  0  0
   16.0623   -6.1321  -16.1774 C   0  0  1  0  0  0  0  0  0  0  0  0
   16.5871   -4.7947  -16.6143 C   0  0  0  0  0  0  0  0  0  0  0  0
   17.1873   -7.1392  -16.2435 C   0  0  2  0  0  0  0  0  0  0  0  0
   16.7706   -8.4470  -15.7935 N   0  0  0  0  0  0  0  0  0  0  0  0
   18.3723   -6.7151  -15.4871 C   0  0  0  0  0  0  0  0  0  0  0  0
   18.5708   -7.1146  -14.3195 O   0  0  0  0  0  0  0  0  0  0  0  0
   19.3230   -5.8523  -16.0363 O   0  0  0  0  0  0  0  0  0  0  0  0
  2  3  1  0
  2  1  1  0
  3  4  2  0
  6  5  1  0
  7  6  1  1
  7  9  1  0
  8  7  1  0
  8  3  1  0
  9 15  1  0
 10  9  2  0
 12 11  1  1
 12 14  1  0
 13 12  1  0
 14 16  1  0
 14 15  1  1
 16 17  2  0
 16 18  1  0
M  END
$$$$
