GSV.pdb
     RDKit          3D

 18 17  0  0  1  0  0  0  0  0999 V2000
   17.1528  -11.8958  -15.7559 N   0  0  0  0  0  0  0  0  0  0  0  0
   17.3037  -11.0827  -14.6080 C   0  0  0  0  0  0  0  0  0  0  0  0
   17.7837   -9.7166  -14.8616 C   0  0  0  0  0  0  0  0  0  0  0  0
   18.7636   -9.5665  -15.6278 O   0  0  0  0  0  0  0  0  0  0  0  0
   15.4881   -6.3060  -14.7990 O   0  0  0  0  0  0  0  0  0  0  0  0
   16.7546   -6.1287  -14.2440 C   0  0  0  0  0  0  0  0  0  0  0  0
   17.6979   -7.2402  -14.5953 C   0  0  2  0  0  0  0  0  0  0  0  0
   17.2199   -8.5440  -14.3021 N   0  0  0  0  0  0  0  0  0  0  0  0
   18.9625   -7.0102  -13.8492 C   0  0  0  0  0  0  0  0  0  0  0  0
   19.0616   -7.2992  -12.6410 O   0  0  0  0  0  0  0  0  0  0  0  0
   22.4034   -8.3538  -14.6925 C   0  0  0  0  0  0  0  0  0  0  0  0
   22.5276   -6.8652  -14.5727 C   0  0  1  0  0  0  0  0  0  0  0  0
   22.5832   -6.2679  -15.9493 C   0  0  0  0  0  0  0  0  0  0  0  0
   21.3714   -6.2458  -13.8220 C   0  0  2  0  0  0  0  0  0  0  0  0
   20.1139   -6.4443  -14.5045 N   0  0  0  0  0  0  0  0  0  0  0  0
   21.5671   -4.8140  -13.5617 C   0  0  0  0  0  0  0  0  0  0  0  0
   22.4664   -4.4142  -12.7912 O   0  0  0  0  0  0  0  0  0  0  0  0
   20.7618   -3.8428  -14.1603 O   0  0  0  0  0  0  0  0  0  0  0  0
  2  3  1  0
  2  1  1  0
  3  4  2  0
  6  5  1  0
  7  6  1  1
  7  9  1  0
  8  7  1  0
  8  3  1  0
  9 15  1  0
 10  9  2  0
 12 11  1  6
 12 14  1  0
 13 12  1  0
 14 16  1  0
 14 15  1  6
 16 17  2  0
 16 18  1  0
M  END
$$$$
