GSV.pdb
     RDKit          3D

 18 17  0  0  1  0  0  0  0  0999 V2000
   16.1751  -12.5622  -14.0246 N   0  0  0  0  0  0  0  0  0  0  0  0
   15.2988  -11.5138  -13.6584 C   0  0  0  0  0  0  0  0  0  0  0  0
   15.8519  -10.5293  -12.7171 C   0  0  0  0  0  0  0  0  0  0  0  0
   15.7588  -10.7664  -11.4903 O   0  0  0  0  0  0  0  0  0  0  0  0
   18.6661   -6.6777  -11.7394 O   0  0  0  0  0  0  0  0  0  0  0  0
   18.1576   -7.5573  -12.6941 C   0  0  0  0  0  0  0  0  0  0  0  0
   17.0616   -8.4252  -12.1514 C   0  0  2  0  0  0  0  0  0  0  0  0
   16.4885   -9.3209  -13.0915 N   0  0  0  0  0  0  0  0  0  0  0  0
   15.9977   -7.5308  -11.6256 C   0  0  0  0  0  0  0  0  0  0  0  0
   15.1455   -7.0262  -12.3820 O   0  0  0  0  0  0  0  0  0  0  0  0
   13.5275   -8.1133   -8.7063 C   0  0  0  0  0  0  0  0  0  0  0  0
   14.2752   -6.8413   -8.4448 C   0  0  1  0  0  0  0  0  0  0  0  0
   15.3246   -7.0977   -7.4018 C   0  0  0  0  0  0  0  0  0  0  0  0
   14.9471   -6.2985   -9.6850 C   0  0  2  0  0  0  0  0  0  0  0  0
   15.9213   -7.2206  -10.2208 N   0  0  0  0  0  0  0  0  0  0  0  0
   15.5796   -4.9925   -9.4610 C   0  0  0  0  0  0  0  0  0  0  0  0
   14.8965   -3.9815   -9.1899 O   0  0  0  0  0  0  0  0  0  0  0  0
   16.9636   -4.8244   -9.5408 O   0  0  0  0  0  0  0  0  0  0  0  0
  2  3  1  0
  2  1  1  0
  3  4  2  0
  6  5  1  0
  7  6  1  6
  7  9  1  0
  8  7  1  0
  8  3  1  0
  9 15  1  0
 10  9  2  0
 12 11  1  6
 12 14  1  0
 13 12  1  0
 14 16  1  0
 14 15  1  1
 16 17  2  0
 16 18  1  0
M  END
$$$$
