DLM.pdb
     RDKit          3D

 25 24  0  0  1  0  0  0  0  0999 V2000
   25.5783  -21.4836  -16.7735 N   0  0  0  0  0  0  0  0  0  0  0  0
   25.8465  -22.8541  -16.4067 C   0  0  1  0  0  0  0  0  0  0  0  0
   27.3085  -23.1416  -16.4962 C   0  0  0  0  0  0  0  0  0  0  0  0
   28.0275  -21.9500  -16.9885 C   0  0  0  0  0  0  0  0  0  0  0  0
   27.7176  -20.8268  -16.5392 O   0  0  0  0  0  0  0  0  0  0  0  0
   25.4072  -23.0911  -14.9967 C   0  0  0  0  0  0  0  0  0  0  0  0
   25.3459  -24.2735  -14.5487 O   0  0  0  0  0  0  0  0  0  0  0  0
   29.0153  -22.0927  -17.9226 O   0  0  0  0  0  0  0  0  0  0  0  0
   26.2260  -20.2673  -10.0706 C   0  0  0  0  0  0  0  0  0  0  0  0
   26.1344  -20.6393  -11.5440 C   0  0  1  0  0  0  0  0  0  0  0  0
   27.4196  -20.3125  -12.2118 C   0  0  0  0  0  0  0  0  0  0  0  0
   25.6200  -22.0100  -11.7385 C   0  0  0  0  0  0  0  0  0  0  0  0
   24.5959  -22.1912  -12.8023 C   0  0  2  0  0  0  0  0  0  0  0  0
   25.0527  -22.0154  -14.1374 N   0  0  0  0  0  0  0  0  0  0  0  0
   23.3987  -21.3149  -12.5381 C   0  0  0  0  0  0  0  0  0  0  0  0
   22.7943  -21.3333  -11.4434 O   0  0  0  0  0  0  0  0  0  0  0  0
   20.8482  -17.7773  -17.5164 C   0  0  0  0  0  0  0  0  0  0  0  0
   19.3517  -18.5352  -16.8296 S   0  0  0  0  0  0  0  0  0  0  0  0
   19.6922  -19.3295  -15.2430 C   0  0  0  0  0  0  0  0  0  0  0  0
   21.1896  -19.5886  -15.0713 C   0  0  0  0  0  0  0  0  0  0  0  0
   21.4825  -20.2621  -13.7720 C   0  0  2  0  0  0  0  0  0  0  0  0
   22.9015  -20.4227  -13.5307 N   0  0  0  0  0  0  0  0  0  0  0  0
   20.7751  -21.5686  -13.7603 C   0  0  0  0  0  0  0  0  0  0  0  0
   19.7970  -21.7075  -12.9830 O   0  0  0  0  0  0  0  0  0  0  0  0
   21.1548  -22.6249  -14.5685 O   0  0  0  0  0  0  0  0  0  0  0  0
  2  1  1  1
  2  3  1  0
  2  6  1  0
  4  8  1  0
  4  3  1  0
  5  4  2  0
  6  7  2  0
 10  9  1  1
 10 11  1  0
 12 10  1  0
 13 12  1  1
 14 13  1  0
 14  6  1  0
 15 13  1  0
 15 22  1  0
 16 15  2  0
 17 18  1  0
 18 19  1  0
 19 20  1  0
 21 22  1  0
 21 20  1  6
 23 21  1  0
 24 23  2  0
 25 23  1  0
M  END
$$$$
