DLM.pdb
     RDKit          3D

 25 24  0  0  1  0  0  0  0  0999 V2000
   17.8091  -11.2099  -15.4869 N   0  0  0  0  0  0  0  0  0  0  0  0
   17.2907   -9.8796  -15.2724 C   0  0  1  0  0  0  0  0  0  0  0  0
   15.7993   -9.8846  -15.3331 C   0  0  0  0  0  0  0  0  0  0  0  0
   15.3522   -9.9809  -16.7367 C   0  0  0  0  0  0  0  0  0  0  0  0
   15.8261   -9.1902  -17.5792 O   0  0  0  0  0  0  0  0  0  0  0  0
   17.7036   -9.3924  -13.9198 C   0  0  0  0  0  0  0  0  0  0  0  0
   17.6188  -10.1660  -12.9213 O   0  0  0  0  0  0  0  0  0  0  0  0
   14.4322  -10.9279  -17.0912 O   0  0  0  0  0  0  0  0  0  0  0  0
   21.9738   -5.8899  -12.9652 C   0  0  0  0  0  0  0  0  0  0  0  0
   20.9656   -7.0247  -12.8484 C   0  0  1  0  0  0  0  0  0  0  0  0
   21.5546   -8.1206  -12.0382 C   0  0  0  0  0  0  0  0  0  0  0  0
   19.6329   -6.5413  -12.4343 C   0  0  0  0  0  0  0  0  0  0  0  0
   18.5300   -7.5396  -12.4474 C   0  0  2  0  0  0  0  0  0  0  0  0
   18.1926   -8.0723  -13.7220 N   0  0  0  0  0  0  0  0  0  0  0  0
   17.3043   -6.9821  -11.7710 C   0  0  0  0  0  0  0  0  0  0  0  0
   16.5880   -6.1118  -12.3128 O   0  0  0  0  0  0  0  0  0  0  0  0
   11.1975   -7.7306   -7.2571 C   0  0  0  0  0  0  0  0  0  0  0  0
   12.7036   -8.3803   -8.0286 S   0  0  0  0  0  0  0  0  0  0  0  0
   14.0256   -7.1488   -8.0171 C   0  0  0  0  0  0  0  0  0  0  0  0
   15.3001   -7.7087   -8.6503 C   0  0  0  0  0  0  0  0  0  0  0  0
   15.7516   -6.8726   -9.8012 C   0  0  2  0  0  0  0  0  0  0  0  0
   16.9069   -7.4257  -10.4772 N   0  0  0  0  0  0  0  0  0  0  0  0
   16.0184   -5.5005   -9.2977 C   0  0  0  0  0  0  0  0  0  0  0  0
   17.2118   -5.1676   -9.0848 O   0  0  0  0  0  0  0  0  0  0  0  0
   15.0065   -4.5883   -9.0584 O   0  0  0  0  0  0  0  0  0  0  0  0
  2  1  1  1
  2  3  1  0
  2  6  1  0
  4  8  1  0
  4  3  1  0
  5  4  2  0
  6  7  2  0
 10  9  1  1
 10 11  1  0
 12 10  1  0
 13 12  1  6
 14 13  1  0
 14  6  1  0
 15 13  1  0
 15 22  1  0
 16 15  2  0
 17 18  1  0
 18 19  1  0
 19 20  1  0
 21 22  1  0
 21 20  1  1
 23 21  1  0
 24 23  2  0
 25 23  1  0
M  END
$$$$
