DLM.pdb
     RDKit          3D

 25 24  0  0  1  0  0  0  0  0999 V2000
   12.4111  -12.1393    5.0685 N   0  0  0  0  0  0  0  0  0  0  0  0
   13.0100  -13.0507    6.0147 C   0  0  1  0  0  0  0  0  0  0  0  0
   11.9576  -13.8568    6.7007 C   0  0  0  0  0  0  0  0  0  0  0  0
   12.5289  -14.5289    7.8844 C   0  0  0  0  0  0  0  0  0  0  0  0
   13.6832  -14.2278    8.2539 O   0  0  0  0  0  0  0  0  0  0  0  0
   13.9259  -13.9897    5.2957 C   0  0  0  0  0  0  0  0  0  0  0  0
   13.5028  -14.6326    4.2906 O   0  0  0  0  0  0  0  0  0  0  0  0
   11.7909  -15.4646    8.5541 O   0  0  0  0  0  0  0  0  0  0  0  0
   19.1343  -12.8011    3.8554 C   0  0  0  0  0  0  0  0  0  0  0  0
   17.8700  -13.6339    3.6944 C   0  0  1  0  0  0  0  0  0  0  0  0
   17.9263  -14.3638    2.4027 C   0  0  0  0  0  0  0  0  0  0  0  0
   17.5821  -14.4421    4.8966 C   0  0  0  0  0  0  0  0  0  0  0  0
   16.2053  -14.9936    5.0129 C   0  0  2  0  0  0  0  0  0  0  0  0
   15.2709  -14.1826    5.7138 N   0  0  0  0  0  0  0  0  0  0  0  0
   16.2395  -16.3810    5.6000 C   0  0  0  0  0  0  0  0  0  0  0  0
   16.3035  -16.5757    6.8337 O   0  0  0  0  0  0  0  0  0  0  0  0
   17.4076  -23.4221    3.3427 C   0  0  0  0  0  0  0  0  0  0  0  0
   15.8240  -22.6110    3.6895 S   0  0  0  0  0  0  0  0  0  0  0  0
   16.0116  -21.3233    4.9428 C   0  0  0  0  0  0  0  0  0  0  0  0
   16.0683  -19.9374    4.2988 C   0  0  0  0  0  0  0  0  0  0  0  0
   16.3281  -18.8735    5.3128 C   0  0  2  0  0  0  0  0  0  0  0  0
   16.2002  -17.5372    4.7692 N   0  0  0  0  0  0  0  0  0  0  0  0
   17.6796  -19.1030    5.8857 C   0  0  0  0  0  0  0  0  0  0  0  0
   18.6430  -18.4452    5.4170 O   0  0  0  0  0  0  0  0  0  0  0  0
   17.9086  -20.0074    6.9069 O   0  0  0  0  0  0  0  0  0  0  0  0
  2  1  1  6
  2  3  1  0
  2  6  1  0
  4  8  1  0
  4  3  1  0
  5  4  2  0
  6  7  2  0
 10  9  1  1
 10 11  1  0
 12 10  1  0
 13 12  1  1
 14 13  1  0
 14  6  1  0
 15 13  1  0
 15 22  1  0
 16 15  2  0
 17 18  1  0
 18 19  1  0
 19 20  1  0
 21 22  1  0
 21 20  1  6
 23 21  1  0
 24 23  2  0
 25 23  1  0
M  END
$$$$
