DLM.pdb
     RDKit          3D

 25 24  0  0  1  0  0  0  0  0999 V2000
   21.3135   -4.9142  -17.0809 N   0  0  0  0  0  0  0  0  0  0  0  0
   20.8015   -5.9016  -18.0015 C   0  0  1  0  0  0  0  0  0  0  0  0
   21.7083   -6.0365  -19.1794 C   0  0  0  0  0  0  0  0  0  0  0  0
   21.6514   -4.8122  -20.0024 C   0  0  0  0  0  0  0  0  0  0  0  0
   21.5158   -4.9193  -21.2392 O   0  0  0  0  0  0  0  0  0  0  0  0
   20.7194   -7.2296  -17.3181 C   0  0  0  0  0  0  0  0  0  0  0  0
   20.2800   -8.2346  -17.9502 O   0  0  0  0  0  0  0  0  0  0  0  0
   21.7473   -3.5876  -19.4024 O   0  0  0  0  0  0  0  0  0  0  0  0
   22.5264  -11.2360  -14.4454 C   0  0  0  0  0  0  0  0  0  0  0  0
   22.0749  -10.1269  -13.5053 C   0  0  1  0  0  0  0  0  0  0  0  0
   22.8438  -10.2164  -12.2384 C   0  0  0  0  0  0  0  0  0  0  0  0
   22.0539   -8.8094  -14.1724 C   0  0  0  0  0  0  0  0  0  0  0  0
   21.0685   -8.6373  -15.2736 C   0  0  2  0  0  0  0  0  0  0  0  0
   21.1241   -7.3962  -15.9656 N   0  0  0  0  0  0  0  0  0  0  0  0
   19.6699   -8.8984  -14.7770 C   0  0  0  0  0  0  0  0  0  0  0  0
   19.2107  -10.0570  -14.6724 O   0  0  0  0  0  0  0  0  0  0  0  0
   14.3168   -9.9638   -9.8518 C   0  0  0  0  0  0  0  0  0  0  0  0
   15.9933   -9.4974  -10.3592 S   0  0  0  0  0  0  0  0  0  0  0  0
   16.0053   -8.8348  -12.0400 C   0  0  0  0  0  0  0  0  0  0  0  0
   17.4349   -8.5633  -12.5107 C   0  0  0  0  0  0  0  0  0  0  0  0
   17.4622   -8.0673  -13.9180 C   0  0  2  0  0  0  0  0  0  0  0  0
   18.8060   -7.8296  -14.4031 N   0  0  0  0  0  0  0  0  0  0  0  0
   16.6303   -6.8383  -13.9898 C   0  0  0  0  0  0  0  0  0  0  0  0
   17.2120   -5.7360  -14.1539 O   0  0  0  0  0  0  0  0  0  0  0  0
   15.2515   -6.8685  -13.8830 O   0  0  0  0  0  0  0  0  0  0  0  0
  2  1  1  1
  2  3  1  0
  2  6  1  0
  4  8  1  0
  4  3  1  0
  5  4  2  0
  6  7  2  0
 10  9  1  6
 10 11  1  0
 12 10  1  0
 13 12  1  1
 14 13  1  0
 14  6  1  0
 15 13  1  0
 15 22  1  0
 16 15  2  0
 17 18  1  0
 18 19  1  0
 19 20  1  0
 21 22  1  0
 21 20  1  1
 23 21  1  0
 24 23  2  0
 25 23  1  0
M  END
$$$$
