DLM.pdb
     RDKit          3D

 25 24  0  0  1  0  0  0  0  0999 V2000
   21.5874   -4.9356  -18.5357 N   0  0  0  0  0  0  0  0  0  0  0  0
   21.0097   -5.1859  -17.2365 C   0  0  1  0  0  0  0  0  0  0  0  0
   19.7498   -4.4039  -17.0661 C   0  0  0  0  0  0  0  0  0  0  0  0
   20.0589   -2.9631  -16.9768 C   0  0  0  0  0  0  0  0  0  0  0  0
   19.2774   -2.1421  -17.5010 O   0  0  0  0  0  0  0  0  0  0  0  0
   20.6811   -6.6393  -17.1053 C   0  0  0  0  0  0  0  0  0  0  0  0
   20.3210   -7.2959  -18.1259 O   0  0  0  0  0  0  0  0  0  0  0  0
   21.1884   -2.5517  -16.3258 O   0  0  0  0  0  0  0  0  0  0  0  0
   23.2729  -10.0526  -13.3692 C   0  0  0  0  0  0  0  0  0  0  0  0
   22.6583   -9.5072  -14.6507 C   0  0  1  0  0  0  0  0  0  0  0  0
   23.1549  -10.2968  -15.8059 C   0  0  0  0  0  0  0  0  0  0  0  0
   21.1939   -9.3502  -14.5399 C   0  0  0  0  0  0  0  0  0  0  0  0
   20.5064   -8.6989  -15.6872 C   0  0  2  0  0  0  0  0  0  0  0  0
   20.7621   -7.3101  -15.8545 N   0  0  0  0  0  0  0  0  0  0  0  0
   19.0226   -8.9556  -15.6291 C   0  0  0  0  0  0  0  0  0  0  0  0
   18.2583   -8.2605  -14.9244 O   0  0  0  0  0  0  0  0  0  0  0  0
   12.6088  -12.4275  -18.7898 C   0  0  0  0  0  0  0  0  0  0  0  0
   14.4081  -12.2138  -18.8406 S   0  0  0  0  0  0  0  0  0  0  0  0
   14.9889  -11.2377  -17.4355 C   0  0  0  0  0  0  0  0  0  0  0  0
   16.5067  -11.0573  -17.4850 C   0  0  0  0  0  0  0  0  0  0  0  0
   17.0039  -10.2842  -16.3092 C   0  0  2  0  0  0  0  0  0  0  0  0
   18.4239  -10.0079  -16.3793 N   0  0  0  0  0  0  0  0  0  0  0  0
   16.6549  -11.0408  -15.0790 C   0  0  0  0  0  0  0  0  0  0  0  0
   17.5294  -11.7894  -14.5740 O   0  0  0  0  0  0  0  0  0  0  0  0
   15.4121  -10.9484  -14.4789 O   0  0  0  0  0  0  0  0  0  0  0  0
  2  1  1  6
  2  3  1  0
  2  6  1  0
  4  8  1  0
  4  3  1  0
  5  4  2  0
  6  7  2  0
 10  9  1  1
 10 11  1  0
 12 10  1  0
 13 12  1  1
 14 13  1  0
 14  6  1  0
 15 13  1  0
 15 22  1  0
 16 15  2  0
 17 18  1  0
 18 19  1  0
 19 20  1  0
 21 22  1  0
 21 20  1  6
 23 21  1  0
 24 23  2  0
 25 23  1  0
M  END
$$$$
