DLM.pdb
     RDKit          3D

 25 24  0  0  1  0  0  0  0  0999 V2000
   22.4334  -11.3618  -21.9236 N   0  0  0  0  0  0  0  0  0  0  0  0
   23.0961  -10.3370  -21.1522 C   0  0  1  0  0  0  0  0  0  0  0  0
   22.8137   -8.9879  -21.7251 C   0  0  0  0  0  0  0  0  0  0  0  0
   23.5646   -8.8072  -22.9832 C   0  0  0  0  0  0  0  0  0  0  0  0
   24.7453   -9.2088  -23.0471 O   0  0  0  0  0  0  0  0  0  0  0  0
   22.5914  -10.3638  -19.7443 C   0  0  0  0  0  0  0  0  0  0  0  0
   21.3448  -10.3596  -19.5243 O   0  0  0  0  0  0  0  0  0  0  0  0
   22.9603   -8.2070  -24.0526 O   0  0  0  0  0  0  0  0  0  0  0  0
   23.6406  -13.2029  -17.0090 C   0  0  0  0  0  0  0  0  0  0  0  0
   23.8179  -12.2519  -15.8335 C   0  0  1  0  0  0  0  0  0  0  0  0
   24.8365  -12.8055  -14.9059 C   0  0  0  0  0  0  0  0  0  0  0  0
   24.0168  -10.8565  -16.2747 C   0  0  0  0  0  0  0  0  0  0  0  0
   23.0538  -10.3337  -17.2808 C   0  0  2  0  0  0  0  0  0  0  0  0
   23.4810  -10.3936  -18.6359 N   0  0  0  0  0  0  0  0  0  0  0  0
   22.6283   -8.9322  -16.9267 C   0  0  0  0  0  0  0  0  0  0  0  0
   23.3163   -7.9343  -17.2347 O   0  0  0  0  0  0  0  0  0  0  0  0
   17.3837   -6.1889  -18.4133 C   0  0  0  0  0  0  0  0  0  0  0  0
   17.7399   -5.0903  -17.0161 S   0  0  0  0  0  0  0  0  0  0  0  0
   19.3091   -5.5213  -16.2312 C   0  0  0  0  0  0  0  0  0  0  0  0
   19.7040   -6.9631  -16.5537 C   0  0  0  0  0  0  0  0  0  0  0  0
   20.9870   -7.3398  -15.8906 C   0  0  2  0  0  0  0  0  0  0  0  0
   21.4162   -8.6829  -16.2215 N   0  0  0  0  0  0  0  0  0  0  0  0
   20.8167   -7.1663  -14.4249 C   0  0  0  0  0  0  0  0  0  0  0  0
   20.6175   -8.1912  -13.7247 O   0  0  0  0  0  0  0  0  0  0  0  0
   20.8698   -5.9267  -13.8135 O   0  0  0  0  0  0  0  0  0  0  0  0
  2  1  1  6
  2  3  1  0
  2  6  1  0
  4  8  1  0
  4  3  1  0
  5  4  2  0
  6  7  2  0
 10  9  1  6
 10 11  1  0
 12 10  1  0
 13 12  1  1
 14 13  1  0
 14  6  1  0
 15 13  1  0
 15 22  1  0
 16 15  2  0
 17 18  1  0
 18 19  1  0
 19 20  1  0
 21 22  1  0
 21 20  1  6
 23 21  1  0
 24 23  2  0
 25 23  1  0
M  END
$$$$
