DLM.pdb
     RDKit          3D

 25 24  0  0  1  0  0  0  0  0999 V2000
   28.1121  -20.6091  -15.0985 N   0  0  0  0  0  0  0  0  0  0  0  0
   26.9038  -20.4483  -15.8722 C   0  0  1  0  0  0  0  0  0  0  0  0
   26.9745  -21.2574  -17.1246 C   0  0  0  0  0  0  0  0  0  0  0  0
   28.1266  -20.8246  -17.9400 C   0  0  0  0  0  0  0  0  0  0  0  0
   28.3717  -19.6045  -18.0431 O   0  0  0  0  0  0  0  0  0  0  0  0
   25.7305  -20.9211  -15.0739 C   0  0  0  0  0  0  0  0  0  0  0  0
   25.0388  -21.8956  -15.4917 O   0  0  0  0  0  0  0  0  0  0  0  0
   28.9029  -21.7597  -18.5658 O   0  0  0  0  0  0  0  0  0  0  0  0
   25.8345  -20.1802   -9.4937 C   0  0  0  0  0  0  0  0  0  0  0  0
   25.7293  -20.7848  -10.8870 C   0  0  1  0  0  0  0  0  0  0  0  0
   26.0455  -22.2338  -10.8165 C   0  0  0  0  0  0  0  0  0  0  0  0
   24.4651  -20.4175  -11.5564 C   0  0  0  0  0  0  0  0  0  0  0  0
   24.3409  -20.7880  -12.9919 C   0  0  2  0  0  0  0  0  0  0  0  0
   25.3665  -20.3005  -13.8478 N   0  0  0  0  0  0  0  0  0  0  0  0
   22.9856  -20.3983  -13.5229 C   0  0  0  0  0  0  0  0  0  0  0  0
   22.5241  -19.2453  -13.3760 O   0  0  0  0  0  0  0  0  0  0  0  0
   22.0552  -20.9454  -18.5686 C   0  0  0  0  0  0  0  0  0  0  0  0
   20.2671  -20.6505  -18.5292 S   0  0  0  0  0  0  0  0  0  0  0  0
   19.6349  -20.7009  -16.8375 C   0  0  0  0  0  0  0  0  0  0  0  0
   20.4771  -21.6341  -15.9665 C   0  0  0  0  0  0  0  0  0  0  0  0
   20.8309  -20.9957  -14.6647 C   0  0  2  0  0  0  0  0  0  0  0  0
   22.1671  -21.3331  -14.2193 N   0  0  0  0  0  0  0  0  0  0  0  0
   19.8059  -21.3902  -13.6641 C   0  0  0  0  0  0  0  0  0  0  0  0
   20.1459  -22.1756  -12.7434 O   0  0  0  0  0  0  0  0  0  0  0  0
   18.5039  -20.9257  -13.7133 O   0  0  0  0  0  0  0  0  0  0  0  0
  2  1  1  1
  2  3  1  0
  2  6  1  0
  4  8  1  0
  4  3  1  0
  5  4  2  0
  6  7  2  0
 10  9  1  1
 10 11  1  0
 12 10  1  0
 13 12  1  1
 14 13  1  0
 14  6  1  0
 15 13  1  0
 15 22  1  0
 16 15  2  0
 17 18  1  0
 18 19  1  0
 19 20  1  0
 21 22  1  0
 21 20  1  6
 23 21  1  0
 24 23  2  0
 25 23  1  0
M  END
$$$$
