DLM.pdb
     RDKit          3D

 25 24  0  0  1  0  0  0  0  0999 V2000
   25.7719  -20.4047  -16.9217 N   0  0  0  0  0  0  0  0  0  0  0  0
   24.8825  -19.6141  -16.1042 C   0  0  1  0  0  0  0  0  0  0  0  0
   23.8505  -18.9463  -16.9511 C   0  0  0  0  0  0  0  0  0  0  0  0
   24.4324  -17.7638  -17.6163 C   0  0  0  0  0  0  0  0  0  0  0  0
   25.5544  -17.8629  -18.1556 O   0  0  0  0  0  0  0  0  0  0  0  0
   24.1826  -20.5001  -15.1231 C   0  0  0  0  0  0  0  0  0  0  0  0
   23.6743  -21.5914  -15.5144 O   0  0  0  0  0  0  0  0  0  0  0  0
   23.7390  -16.5858  -17.6321 O   0  0  0  0  0  0  0  0  0  0  0  0
   25.6628  -20.4664   -9.6353 C   0  0  0  0  0  0  0  0  0  0  0  0
   25.3379  -20.8396  -11.0751 C   0  0  1  0  0  0  0  0  0  0  0  0
   25.9851  -22.1351  -11.4026 C   0  0  0  0  0  0  0  0  0  0  0  0
   23.8931  -20.7329  -11.3626 C   0  0  0  0  0  0  0  0  0  0  0  0
   23.4745  -20.9846  -12.7678 C   0  0  2  0  0  0  0  0  0  0  0  0
   24.0706  -20.1473  -13.7505 N   0  0  0  0  0  0  0  0  0  0  0  0
   21.9728  -20.9457  -12.8869 C   0  0  0  0  0  0  0  0  0  0  0  0
   21.3396  -19.8678  -12.9193 O   0  0  0  0  0  0  0  0  0  0  0  0
   15.5304  -24.4803  -15.7484 C   0  0  0  0  0  0  0  0  0  0  0  0
   17.2415  -24.6770  -15.1832 S   0  0  0  0  0  0  0  0  0  0  0  0
   17.8100  -23.2065  -14.3008 C   0  0  0  0  0  0  0  0  0  0  0  0
   19.3157  -23.2724  -14.0413 C   0  0  0  0  0  0  0  0  0  0  0  0
   19.7783  -22.1212  -13.2118 C   0  0  2  0  0  0  0  0  0  0  0  0
   21.2059  -22.1431  -12.9682 N   0  0  0  0  0  0  0  0  0  0  0  0
   19.0075  -22.1289  -11.9416 C   0  0  0  0  0  0  0  0  0  0  0  0
   19.5792  -22.5452  -10.9024 O   0  0  0  0  0  0  0  0  0  0  0  0
   17.6954  -21.6974  -11.8676 O   0  0  0  0  0  0  0  0  0  0  0  0
  2  1  1  6
  2  3  1  0
  2  6  1  0
  4  8  1  0
  4  3  1  0
  5  4  2  0
  6  7  2  0
 10  9  1  1
 10 11  1  0
 12 10  1  0
 13 12  1  1
 14 13  1  0
 14  6  1  0
 15 13  1  0
 15 22  1  0
 16 15  2  0
 17 18  1  0
 18 19  1  0
 19 20  1  0
 21 22  1  0
 21 20  1  6
 23 21  1  0
 24 23  2  0
 25 23  1  0
M  END
$$$$
