DLM.pdb
     RDKit          3D

 25 24  0  0  1  0  0  0  0  0999 V2000
   21.7026  -12.8121  -17.9463 N   0  0  0  0  0  0  0  0  0  0  0  0
   20.7067  -12.0779  -17.2023 C   0  0  1  0  0  0  0  0  0  0  0  0
   20.1978  -12.8969  -16.0628 C   0  0  0  0  0  0  0  0  0  0  0  0
   19.4302  -14.0497  -16.5737 C   0  0  0  0  0  0  0  0  0  0  0  0
   19.3023  -14.1937  -17.8075 O   0  0  0  0  0  0  0  0  0  0  0  0
   21.3146  -10.8289  -16.6477 C   0  0  0  0  0  0  0  0  0  0  0  0
   20.6665  -10.1328  -15.8122 O   0  0  0  0  0  0  0  0  0  0  0  0
   18.8745  -14.9367  -15.6944 O   0  0  0  0  0  0  0  0  0  0  0  0
   26.9433  -10.3560  -16.1397 C   0  0  0  0  0  0  0  0  0  0  0  0
   25.4416  -10.3834  -15.8912 C   0  0  1  0  0  0  0  0  0  0  0  0
   25.1894  -10.5451  -14.4370 C   0  0  0  0  0  0  0  0  0  0  0  0
   24.7486   -9.2638  -16.5603 C   0  0  0  0  0  0  0  0  0  0  0  0
   23.2630   -9.2603  -16.4834 C   0  0  2  0  0  0  0  0  0  0  0  0
   22.6120  -10.3970  -17.0367 N   0  0  0  0  0  0  0  0  0  0  0  0
   22.7057   -7.9942  -17.0812 C   0  0  0  0  0  0  0  0  0  0  0  0
   22.8275   -7.7275  -18.2970 O   0  0  0  0  0  0  0  0  0  0  0  0
   16.9996   -5.4427  -15.8559 C   0  0  0  0  0  0  0  0  0  0  0  0
   17.5867   -4.5019  -17.2898 S   0  0  0  0  0  0  0  0  0  0  0  0
   19.3905   -4.5241  -17.3903 C   0  0  0  0  0  0  0  0  0  0  0  0
   19.9548   -5.8199  -16.8062 C   0  0  0  0  0  0  0  0  0  0  0  0
   21.4466   -5.8347  -16.8489 C   0  0  2  0  0  0  0  0  0  0  0  0
   22.0122   -7.0413  -16.2815 N   0  0  0  0  0  0  0  0  0  0  0  0
   21.9398   -4.6196  -16.1506 C   0  0  0  0  0  0  0  0  0  0  0  0
   22.3438   -4.7380  -14.9661 O   0  0  0  0  0  0  0  0  0  0  0  0
   21.9682   -3.3762  -16.7559 O   0  0  0  0  0  0  0  0  0  0  0  0
  2  1  1  1
  2  3  1  0
  2  6  1  0
  4  8  1  0
  4  3  1  0
  5  4  2  0
  6  7  2  0
 10  9  1  1
 10 11  1  0
 12 10  1  0
 13 12  1  6
 14 13  1  0
 14  6  1  0
 15 13  1  0
 15 22  1  0
 16 15  2  0
 17 18  1  0
 18 19  1  0
 19 20  1  0
 21 22  1  0
 21 20  1  1
 23 21  1  0
 24 23  2  0
 25 23  1  0
M  END
$$$$
