KQK.pdb
     RDKit          3D

 28 27  0  0  1  0  0  0  0  0999 V2000
   10.2866  -14.6957   17.7294 N   0  0  0  0  0  0  0  0  0  0  0  0
    9.0630  -14.2633   18.3292 C   0  0  1  0  0  0  0  0  0  0  0  0
    7.8647  -14.3906   17.3549 C   0  0  0  0  0  0  0  0  0  0  0  0
    8.4133  -14.0314   16.0130 C   0  0  0  0  0  0  0  0  0  0  0  0
    7.3580  -14.0327   14.9654 C   0  0  0  0  0  0  0  0  0  0  0  0
    7.8042  -13.7593   13.5654 C   0  0  0  0  0  0  0  0  0  0  0  0
    6.7718  -13.7010   12.5776 N   0  0  0  0  0  0  0  0  0  0  0  0
    8.6731  -15.0056   19.5480 C   0  0  0  0  0  0  0  0  0  0  0  0
    7.5548  -14.7687   20.0576 O   0  0  0  0  0  0  0  0  0  0  0  0
    9.8793  -21.5630   20.0409 N   0  0  0  0  0  0  0  0  0  0  0  0
   10.2209  -20.2960   20.5882 C   0  0  0  0  0  0  0  0  0  0  0  0
   11.3420  -20.1607   21.1370 O   0  0  0  0  0  0  0  0  0  0  0  0
    9.2407  -19.1344   20.5053 C   0  0  0  0  0  0  0  0  0  0  0  0
    9.8180  -18.0266   21.3013 C   0  0  0  0  0  0  0  0  0  0  0  0
    9.0701  -16.7489   21.3391 C   0  0  2  0  0  0  0  0  0  0  0  0
    9.5003  -15.9549   20.1486 N   0  0  0  0  0  0  0  0  0  0  0  0
    9.2451  -15.8779   22.5022 C   0  0  0  0  0  0  0  0  0  0  0  0
   10.2372  -15.0559   22.4838 O   0  0  0  0  0  0  0  0  0  0  0  0
    8.4580  -15.8068   23.6633 N   0  0  0  0  0  0  0  0  0  0  0  0
    8.6507  -14.6913   24.6611 C   0  0  1  0  0  0  0  0  0  0  0  0
    7.4286  -13.8926   24.7327 C   0  0  0  0  0  0  0  0  0  0  0  0
    7.2868  -12.8145   25.6854 C   0  0  0  0  0  0  0  0  0  0  0  0
    6.0756  -12.1997   26.2033 C   0  0  0  0  0  0  0  0  0  0  0  0
    6.2270  -11.0708   27.1828 C   0  0  0  0  0  0  0  0  0  0  0  0
    4.9309  -10.5831   27.6356 N   0  0  0  0  0  0  0  0  0  0  0  0
    8.7861  -15.5564   25.9149 C   0  0  0  0  0  0  0  0  0  0  0  0
    8.2997  -16.7488   25.8792 O   0  0  0  0  0  0  0  0  0  0  0  0
    9.3586  -15.2319   27.0951 O   0  0  0  0  0  0  0  0  0  0  0  0
  2  1  1  6
  2  3  1  0
  3  4  1  0
  4  5  1  0
  5  6  1  0
  7  6  1  0
  8  2  1  0
  8  9  2  0
 10 11  1  0
 11 13  1  0
 11 12  2  0
 13 14  1  0
 15 14  1  1
 15 16  1  0
 16  8  1  0
 17 15  1  0
 18 17  2  0
 19 17  1  0
 20 19  1  0
 20 26  1  0
 20 21  1  1
 22 23  1  0
 22 21  1  0
 23 24  1  0
 24 25  1  0
 26 28  1  0
 27 26  2  0
M  END
$$$$
