KQK.pdb
     RDKit          3D

 28 27  0  0  1  0  0  0  0  0999 V2000
    9.0590  -19.7601   16.6567 N   0  0  0  0  0  0  0  0  0  0  0  0
    8.2935  -19.2830   17.7660 C   0  0  1  0  0  0  0  0  0  0  0  0
    7.8395  -20.4376   18.6947 C   0  0  0  0  0  0  0  0  0  0  0  0
    9.0336  -21.3252   18.8256 C   0  0  0  0  0  0  0  0  0  0  0  0
    8.7665  -22.4838   19.7186 C   0  0  0  0  0  0  0  0  0  0  0  0
    9.9140  -23.4045   19.9819 C   0  0  0  0  0  0  0  0  0  0  0  0
    9.6581  -24.4845   20.8836 N   0  0  0  0  0  0  0  0  0  0  0  0
    8.9987  -18.3175   18.6372 C   0  0  0  0  0  0  0  0  0  0  0  0
   10.2406  -18.4186   18.7555 O   0  0  0  0  0  0  0  0  0  0  0  0
    6.7283  -12.8738   19.4615 N   0  0  0  0  0  0  0  0  0  0  0  0
    7.8217  -12.6600   20.3449 C   0  0  0  0  0  0  0  0  0  0  0  0
    8.0137  -11.5037   20.7948 O   0  0  0  0  0  0  0  0  0  0  0  0
    8.7342  -13.8155   20.7309 C   0  0  0  0  0  0  0  0  0  0  0  0
    8.2504  -15.0089   19.9989 C   0  0  0  0  0  0  0  0  0  0  0  0
    9.0682  -16.2407   20.0818 C   0  0  2  0  0  0  0  0  0  0  0  0
    8.3358  -17.3036   19.3289 N   0  0  0  0  0  0  0  0  0  0  0  0
    9.3543  -16.7946   21.4060 C   0  0  0  0  0  0  0  0  0  0  0  0
    8.4784  -17.5884   21.9188 O   0  0  0  0  0  0  0  0  0  0  0  0
   10.4829  -16.5809   22.2142 N   0  0  0  0  0  0  0  0  0  0  0  0
   10.6522  -17.3221   23.5177 C   0  0  1  0  0  0  0  0  0  0  0  0
   11.4949  -18.4962   23.2983 C   0  0  0  0  0  0  0  0  0  0  0  0
   11.4153  -19.6535   24.1610 C   0  0  0  0  0  0  0  0  0  0  0  0
   12.0850  -20.9379   24.0389 C   0  0  0  0  0  0  0  0  0  0  0  0
   11.7465  -22.0024   25.0435 C   0  0  0  0  0  0  0  0  0  0  0  0
   12.6105  -23.1662   24.8957 N   0  0  0  0  0  0  0  0  0  0  0  0
   11.4380  -16.2452   24.2673 C   0  0  0  0  0  0  0  0  0  0  0  0
   12.1995  -15.4667   23.5792 O   0  0  0  0  0  0  0  0  0  0  0  0
   11.4492  -15.9919   25.5945 O   0  0  0  0  0  0  0  0  0  0  0  0
  2  1  1  6
  2  3  1  0
  3  4  1  0
  4  5  1  0
  5  6  1  0
  7  6  1  0
  8  2  1  0
  8  9  2  0
 10 11  1  0
 11 13  1  0
 11 12  2  0
 13 14  1  0
 15 14  1  1
 15 16  1  0
 16  8  1  0
 17 15  1  0
 18 17  2  0
 19 17  1  0
 20 19  1  0
 20 26  1  0
 20 21  1  6
 22 23  1  0
 22 21  1  0
 23 24  1  0
 24 25  1  0
 26 28  1  0
 27 26  2  0
M  END
$$$$
