KQK.pdb
     RDKit          3D

 28 27  0  0  1  0  0  0  0  0999 V2000
   15.2770  -21.4365   25.8385 N   0  0  0  0  0  0  0  0  0  0  0  0
   15.7932  -22.4450   26.7106 C   0  0  1  0  0  0  0  0  0  0  0  0
   17.2323  -22.8665   26.3195 C   0  0  0  0  0  0  0  0  0  0  0  0
   17.0663  -23.7848   25.1533 C   0  0  0  0  0  0  0  0  0  0  0  0
   18.3680  -24.3398   24.6965 C   0  0  0  0  0  0  0  0  0  0  0  0
   18.3274  -25.2592   23.5189 C   0  0  0  0  0  0  0  0  0  0  0  0
   19.5762  -25.8383   23.1312 N   0  0  0  0  0  0  0  0  0  0  0  0
   15.8594  -22.0575   28.1367 C   0  0  0  0  0  0  0  0  0  0  0  0
   16.7689  -21.2786   28.5008 O   0  0  0  0  0  0  0  0  0  0  0  0
   11.0780  -21.0182   31.3089 N   0  0  0  0  0  0  0  0  0  0  0  0
   11.9516  -20.8682   32.4206 C   0  0  0  0  0  0  0  0  0  0  0  0
   11.4847  -20.4176   33.4954 O   0  0  0  0  0  0  0  0  0  0  0  0
   13.4204  -21.2488   32.2996 C   0  0  0  0  0  0  0  0  0  0  0  0
   13.6416  -21.6700   30.8968 C   0  0  0  0  0  0  0  0  0  0  0  0
   15.0069  -22.1019   30.5192 C   0  0  2  0  0  0  0  0  0  0  0  0
   14.9514  -22.5249   29.0871 N   0  0  0  0  0  0  0  0  0  0  0  0
   15.6104  -23.2135   31.2556 C   0  0  0  0  0  0  0  0  0  0  0  0
   15.0155  -24.3550   31.1989 O   0  0  0  0  0  0  0  0  0  0  0  0
   16.7819  -23.2109   32.0304 N   0  0  0  0  0  0  0  0  0  0  0  0
   17.2572  -24.4673   32.7179 C   0  0  1  0  0  0  0  0  0  0  0  0
   18.5902  -24.8106   32.2261 C   0  0  0  0  0  0  0  0  0  0  0  0
   18.7720  -25.6484   31.0621 C   0  0  0  0  0  0  0  0  0  0  0  0
   20.0034  -26.0464   30.4000 C   0  0  0  0  0  0  0  0  0  0  0  0
   19.8934  -26.9220   29.1842 C   0  0  0  0  0  0  0  0  0  0  0  0
   21.1925  -27.1243   28.5561 N   0  0  0  0  0  0  0  0  0  0  0  0
   17.3505  -23.9040   34.1367 C   0  0  0  0  0  0  0  0  0  0  0  0
   17.6129  -22.6499   34.2706 O   0  0  0  0  0  0  0  0  0  0  0  0
   17.1965  -24.5610   35.3073 O   0  0  0  0  0  0  0  0  0  0  0  0
  2  1  1  6
  2  3  1  0
  3  4  1  0
  4  5  1  0
  5  6  1  0
  7  6  1  0
  8  2  1  0
  8  9  2  0
 10 11  1  0
 11 13  1  0
 11 12  2  0
 13 14  1  0
 15 14  1  1
 15 16  1  0
 16  8  1  0
 17 15  1  0
 18 17  2  0
 19 17  1  0
 20 19  1  0
 20 26  1  0
 20 21  1  6
 22 23  1  0
 22 21  1  0
 23 24  1  0
 24 25  1  0
 26 28  1  0
 27 26  2  0
M  END
$$$$
