KQK.pdb
     RDKit          3D

 28 27  0  0  1  0  0  0  0  0999 V2000
    5.6460  -17.7034   20.3398 N   0  0  0  0  0  0  0  0  0  0  0  0
    6.6261  -17.0559   21.1548 C   0  0  1  0  0  0  0  0  0  0  0  0
    6.6212  -15.5192   20.9544 C   0  0  0  0  0  0  0  0  0  0  0  0
    7.3373  -15.2921   19.6636 C   0  0  0  0  0  0  0  0  0  0  0  0
    7.3740  -13.8514   19.2972 C   0  0  0  0  0  0  0  0  0  0  0  0
    7.9530  -13.5150   17.9611 C   0  0  0  0  0  0  0  0  0  0  0  0
    7.9511  -12.1295   17.6070 N   0  0  0  0  0  0  0  0  0  0  0  0
    6.4658  -17.2740   22.6092 C   0  0  0  0  0  0  0  0  0  0  0  0
    5.3255  -17.1453   23.1089 O   0  0  0  0  0  0  0  0  0  0  0  0
    8.2669  -21.6361   25.7951 N   0  0  0  0  0  0  0  0  0  0  0  0
    8.1600  -20.8058   26.9444 C   0  0  0  0  0  0  0  0  0  0  0  0
    8.3271  -21.3221   28.0766 O   0  0  0  0  0  0  0  0  0  0  0  0
    7.8493  -19.3233   26.7942 C   0  0  0  0  0  0  0  0  0  0  0  0
    7.7274  -19.0540   25.3428 C   0  0  0  0  0  0  0  0  0  0  0  0
    7.3971  -17.6710   24.9287 C   0  0  2  0  0  0  0  0  0  0  0  0
    7.5320  -17.6157   23.4415 N   0  0  0  0  0  0  0  0  0  0  0  0
    8.2112  -16.5761   25.4586 C   0  0  0  0  0  0  0  0  0  0  0  0
    9.3969  -16.4312   24.9758 O   0  0  0  0  0  0  0  0  0  0  0  0
    7.8686  -15.6328   26.4411 N   0  0  0  0  0  0  0  0  0  0  0  0
    8.8839  -14.6358   26.9434 C   0  0  1  0  0  0  0  0  0  0  0  0
    8.1991  -13.4025   27.3268 C   0  0  0  0  0  0  0  0  0  0  0  0
    7.6079  -12.5294   26.3378 C   0  0  0  0  0  0  0  0  0  0  0  0
    6.7990  -11.3372   26.5312 C   0  0  0  0  0  0  0  0  0  0  0  0
    6.3048  -10.6201   25.3071 C   0  0  0  0  0  0  0  0  0  0  0  0
    5.4603   -9.4865   25.6602 N   0  0  0  0  0  0  0  0  0  0  0  0
    9.3249  -15.4008   28.1920 C   0  0  0  0  0  0  0  0  0  0  0  0
    8.5315  -16.3030   28.6570 O   0  0  0  0  0  0  0  0  0  0  0  0
   10.4653  -15.2537   28.9016 O   0  0  0  0  0  0  0  0  0  0  0  0
  2  1  1  6
  2  3  1  0
  3  4  1  0
  4  5  1  0
  5  6  1  0
  7  6  1  0
  8  2  1  0
  8  9  2  0
 10 11  1  0
 11 13  1  0
 11 12  2  0
 13 14  1  0
 15 14  1  1
 15 16  1  0
 16  8  1  0
 17 15  1  0
 18 17  2  0
 19 17  1  0
 20 19  1  0
 20 26  1  0
 20 21  1  1
 22 23  1  0
 22 21  1  0
 23 24  1  0
 24 25  1  0
 26 28  1  0
 27 26  2  0
M  END
$$$$
