KQK.pdb
     RDKit          3D

 28 27  0  0  1  0  0  0  0  0999 V2000
    4.5314  -19.7223   21.1487 N   0  0  0  0  0  0  0  0  0  0  0  0
    4.9953  -18.8265   22.1617 C   0  0  1  0  0  0  0  0  0  0  0  0
    5.2954  -19.5630   23.4918 C   0  0  0  0  0  0  0  0  0  0  0  0
    4.8974  -20.9822   23.2500 C   0  0  0  0  0  0  0  0  0  0  0  0
    5.0548  -21.8166   24.4707 C   0  0  0  0  0  0  0  0  0  0  0  0
    4.5946  -23.2353   24.3757 C   0  0  0  0  0  0  0  0  0  0  0  0
    4.7830  -24.0361   25.5455 N   0  0  0  0  0  0  0  0  0  0  0  0
    6.2320  -18.0902   21.8199 C   0  0  0  0  0  0  0  0  0  0  0  0
    7.2415  -18.7469   21.4791 O   0  0  0  0  0  0  0  0  0  0  0  0
    7.4618  -11.7253   19.2337 N   0  0  0  0  0  0  0  0  0  0  0  0
    7.8598  -13.0899   19.2018 C   0  0  0  0  0  0  0  0  0  0  0  0
    7.8403  -13.6963   18.1026 O   0  0  0  0  0  0  0  0  0  0  0  0
    8.2987  -13.7916   20.4793 C   0  0  0  0  0  0  0  0  0  0  0  0
    7.2080  -14.7199   20.8568 C   0  0  0  0  0  0  0  0  0  0  0  0
    7.5837  -15.9660   21.5634 C   0  0  2  0  0  0  0  0  0  0  0  0
    6.3161  -16.6983   21.8629 N   0  0  0  0  0  0  0  0  0  0  0  0
    8.3053  -15.8527   22.8317 C   0  0  0  0  0  0  0  0  0  0  0  0
    7.6234  -15.9899   23.9163 O   0  0  0  0  0  0  0  0  0  0  0  0
    9.6743  -15.6153   23.0367 N   0  0  0  0  0  0  0  0  0  0  0  0
   10.4106  -16.2718   24.1786 C   0  0  1  0  0  0  0  0  0  0  0  0
   10.2392  -17.7209   24.0925 C   0  0  0  0  0  0  0  0  0  0  0  0
    9.8927  -18.5097   25.2534 C   0  0  0  0  0  0  0  0  0  0  0  0
    9.6932  -19.9455   25.3622 C   0  0  0  0  0  0  0  0  0  0  0  0
    9.4430  -20.5161   26.7292 C   0  0  0  0  0  0  0  0  0  0  0  0
    9.2892  -21.9642   26.6802 N   0  0  0  0  0  0  0  0  0  0  0  0
   11.8296  -15.8856   23.7590 C   0  0  0  0  0  0  0  0  0  0  0  0
   12.6485  -15.5094   24.6796 O   0  0  0  0  0  0  0  0  0  0  0  0
   12.3597  -15.8786   22.5161 O   0  0  0  0  0  0  0  0  0  0  0  0
  2  1  1  6
  2  3  1  0
  3  4  1  0
  4  5  1  0
  5  6  1  0
  7  6  1  0
  8  2  1  0
  8  9  2  0
 10 11  1  0
 11 13  1  0
 11 12  2  0
 13 14  1  0
 15 14  1  1
 15 16  1  0
 16  8  1  0
 17 15  1  0
 18 17  2  0
 19 17  1  0
 20 19  1  0
 20 26  1  0
 20 21  1  6
 22 23  1  0
 22 21  1  0
 23 24  1  0
 24 25  1  0
 26 28  1  0
 27 26  2  0
M  END
$$$$
