KQK.pdb
     RDKit          3D

 28 27  0  0  1  0  0  0  0  0999 V2000
    5.7440  -17.0395   19.6612 N   0  0  0  0  0  0  0  0  0  0  0  0
    7.0766  -16.5548   19.8432 C   0  0  1  0  0  0  0  0  0  0  0  0
    7.1873  -15.0392   19.5397 C   0  0  0  0  0  0  0  0  0  0  0  0
    6.6848  -14.8838   18.1418 C   0  0  0  0  0  0  0  0  0  0  0  0
    7.5638  -13.9979   17.3332 C   0  0  0  0  0  0  0  0  0  0  0  0
    7.1582  -13.7678   15.9133 C   0  0  0  0  0  0  0  0  0  0  0  0
    7.9782  -12.8671   15.1642 N   0  0  0  0  0  0  0  0  0  0  0  0
    7.6213  -16.7343   21.2069 C   0  0  0  0  0  0  0  0  0  0  0  0
    6.9074  -16.4071   22.1814 O   0  0  0  0  0  0  0  0  0  0  0  0
    6.3519  -21.4303   22.9544 N   0  0  0  0  0  0  0  0  0  0  0  0
    7.0426  -20.3161   23.5049 C   0  0  0  0  0  0  0  0  0  0  0  0
    6.7351  -19.9285   24.6588 O   0  0  0  0  0  0  0  0  0  0  0  0
    8.1305  -19.6150   22.7037 C   0  0  0  0  0  0  0  0  0  0  0  0
    8.5585  -18.4392   23.4964 C   0  0  0  0  0  0  0  0  0  0  0  0
    9.4293  -17.4443   22.8292 C   0  0  2  0  0  0  0  0  0  0  0  0
    8.8944  -17.2517   21.4473 N   0  0  0  0  0  0  0  0  0  0  0  0
   10.8516  -17.7566   22.6822 C   0  0  0  0  0  0  0  0  0  0  0  0
   11.1727  -18.6782   21.8410 O   0  0  0  0  0  0  0  0  0  0  0  0
   11.9445  -17.1718   23.3428 N   0  0  0  0  0  0  0  0  0  0  0  0
   13.2014  -16.8120   22.5892 C   0  0  1  0  0  0  0  0  0  0  0  0
   13.2958  -15.3576   22.4767 C   0  0  0  0  0  0  0  0  0  0  0  0
   14.0676  -14.7308   21.4273 C   0  0  0  0  0  0  0  0  0  0  0  0
   13.7032  -14.4828   20.0420 C   0  0  0  0  0  0  0  0  0  0  0  0
   14.7565  -13.9195   19.1309 C   0  0  0  0  0  0  0  0  0  0  0  0
   15.5262  -14.9779   18.4905 N   0  0  0  0  0  0  0  0  0  0  0  0
   14.2121  -17.3254   23.6157 C   0  0  0  0  0  0  0  0  0  0  0  0
   13.8264  -17.4297   24.8404 O   0  0  0  0  0  0  0  0  0  0  0  0
   15.4966  -17.6917   23.4113 O   0  0  0  0  0  0  0  0  0  0  0  0
  2  1  1  1
  2  3  1  0
  3  4  1  0
  4  5  1  0
  5  6  1  0
  7  6  1  0
  8  2  1  0
  8  9  2  0
 10 11  1  0
 11 13  1  0
 11 12  2  0
 13 14  1  0
 15 14  1  6
 15 16  1  0
 16  8  1  0
 17 15  1  0
 18 17  2  0
 19 17  1  0
 20 19  1  0
 20 26  1  0
 20 21  1  1
 22 23  1  0
 22 21  1  0
 23 24  1  0
 24 25  1  0
 26 28  1  0
 27 26  2  0
M  END
$$$$
