KQK.pdb
     RDKit          3D

 28 27  0  0  1  0  0  0  0  0999 V2000
    8.2067  -13.1871   17.4632 N   0  0  0  0  0  0  0  0  0  0  0  0
    8.2333  -14.6005   17.6765 C   0  0  1  0  0  0  0  0  0  0  0  0
    8.0038  -15.3882   16.3618 C   0  0  0  0  0  0  0  0  0  0  0  0
    8.7364  -14.6178   15.3127 C   0  0  0  0  0  0  0  0  0  0  0  0
    8.4230  -15.1097   13.9449 C   0  0  0  0  0  0  0  0  0  0  0  0
    9.0850  -14.3981   12.8095 C   0  0  0  0  0  0  0  0  0  0  0  0
    8.7734  -14.8797   11.4996 N   0  0  0  0  0  0  0  0  0  0  0  0
    9.4980  -15.1190   18.2423 C   0  0  0  0  0  0  0  0  0  0  0  0
    9.7041  -16.3530   18.2086 O   0  0  0  0  0  0  0  0  0  0  0  0
   14.5284  -14.1308   17.1850 N   0  0  0  0  0  0  0  0  0  0  0  0
   15.0315  -14.2456   18.5099 C   0  0  0  0  0  0  0  0  0  0  0  0
   16.2329  -14.5732   18.6703 O   0  0  0  0  0  0  0  0  0  0  0  0
   14.1243  -13.9747   19.7018 C   0  0  0  0  0  0  0  0  0  0  0  0
   12.7655  -13.7359   19.1628 C   0  0  0  0  0  0  0  0  0  0  0  0
   11.7652  -14.8158   19.3253 C   0  0  2  0  0  0  0  0  0  0  0  0
   10.4653  -14.2892   18.8098 N   0  0  0  0  0  0  0  0  0  0  0  0
   11.5017  -15.3187   20.6744 C   0  0  0  0  0  0  0  0  0  0  0  0
   10.7266  -14.6175   21.4279 O   0  0  0  0  0  0  0  0  0  0  0  0
   11.9834  -16.4931   21.2755 N   0  0  0  0  0  0  0  0  0  0  0  0
   11.5662  -16.8726   22.6752 C   0  0  1  0  0  0  0  0  0  0  0  0
   11.1549  -18.2752   22.6916 C   0  0  0  0  0  0  0  0  0  0  0  0
   10.9404  -18.9839   23.9332 C   0  0  0  0  0  0  0  0  0  0  0  0
   10.5115  -20.3565   24.1452 C   0  0  0  0  0  0  0  0  0  0  0  0
   10.3138  -20.8177   25.5612 C   0  0  0  0  0  0  0  0  0  0  0  0
   10.0048  -22.2405   25.6182 N   0  0  0  0  0  0  0  0  0  0  0  0
   12.9314  -16.7185   23.3469 C   0  0  0  0  0  0  0  0  0  0  0  0
   12.9599  -16.5726   24.6266 O   0  0  0  0  0  0  0  0  0  0  0  0
   14.1512  -16.7081   22.7657 O   0  0  0  0  0  0  0  0  0  0  0  0
  2  1  1  6
  2  3  1  0
  3  4  1  0
  4  5  1  0
  5  6  1  0
  7  6  1  0
  8  2  1  0
  8  9  2  0
 10 11  1  0
 11 13  1  0
 11 12  2  0
 13 14  1  0
 15 14  1  1
 15 16  1  0
 16  8  1  0
 17 15  1  0
 18 17  2  0
 19 17  1  0
 20 19  1  0
 20 26  1  0
 20 21  1  6
 22 23  1  0
 22 21  1  0
 23 24  1  0
 24 25  1  0
 26 28  1  0
 27 26  2  0
M  END
$$$$
