KQK.pdb
     RDKit          3D

 28 27  0  0  1  0  0  0  0  0999 V2000
   11.5405  -22.2950   12.0645 N   0  0  0  0  0  0  0  0  0  0  0  0
   11.9454  -21.3015   13.0095 C   0  0  1  0  0  0  0  0  0  0  0  0
   10.8111  -20.2878   13.3049 C   0  0  0  0  0  0  0  0  0  0  0  0
   10.3473  -19.8201   11.9644 C   0  0  0  0  0  0  0  0  0  0  0  0
    9.1859  -18.8977   12.0716 C   0  0  0  0  0  0  0  0  0  0  0  0
    8.6421  -18.3543   10.7900 C   0  0  0  0  0  0  0  0  0  0  0  0
    7.5919  -17.3914   10.9118 N   0  0  0  0  0  0  0  0  0  0  0  0
   12.3661  -21.8315   14.3251 C   0  0  0  0  0  0  0  0  0  0  0  0
   11.5016  -22.3643   15.0568 O   0  0  0  0  0  0  0  0  0  0  0  0
   17.8609  -23.9582   15.4585 N   0  0  0  0  0  0  0  0  0  0  0  0
   16.8025  -24.7011   14.8674 C   0  0  0  0  0  0  0  0  0  0  0  0
   17.0838  -25.7471   14.2325 O   0  0  0  0  0  0  0  0  0  0  0  0
   15.3621  -24.2295   15.0072 C   0  0  0  0  0  0  0  0  0  0  0  0
   15.3839  -23.0326   15.8796 C   0  0  0  0  0  0  0  0  0  0  0  0
   14.1032  -22.3221   16.0989 C   0  0  2  0  0  0  0  0  0  0  0  0
   13.6831  -21.7604   14.7795 N   0  0  0  0  0  0  0  0  0  0  0  0
   14.0827  -21.2081   17.0480 C   0  0  0  0  0  0  0  0  0  0  0  0
   14.2146  -20.0189   16.5697 O   0  0  0  0  0  0  0  0  0  0  0  0
   13.9288  -21.2553   18.4432 N   0  0  0  0  0  0  0  0  0  0  0  0
   13.8152  -19.9865   19.2522 C   0  0  1  0  0  0  0  0  0  0  0  0
   13.0665  -20.2617   20.4772 C   0  0  0  0  0  0  0  0  0  0  0  0
   11.6268  -20.1407   20.5244 C   0  0  0  0  0  0  0  0  0  0  0  0
   10.7213  -20.3741   21.6374 C   0  0  0  0  0  0  0  0  0  0  0  0
    9.2786  -19.9959   21.4577 C   0  0  0  0  0  0  0  0  0  0  0  0
    8.4723  -20.4219   22.5941 N   0  0  0  0  0  0  0  0  0  0  0  0
   15.3003  -19.8123   19.5731 C   0  0  0  0  0  0  0  0  0  0  0  0
   16.0276  -20.8726   19.6527 O   0  0  0  0  0  0  0  0  0  0  0  0
   15.9766  -18.6642   19.7973 O   0  0  0  0  0  0  0  0  0  0  0  0
  2  1  1  6
  2  3  1  0
  3  4  1  0
  4  5  1  0
  5  6  1  0
  7  6  1  0
  8  2  1  0
  8  9  2  0
 10 11  1  0
 11 13  1  0
 11 12  2  0
 13 14  1  0
 15 14  1  6
 15 16  1  0
 16  8  1  0
 17 15  1  0
 18 17  2  0
 19 17  1  0
 20 19  1  0
 20 26  1  0
 20 21  1  1
 22 23  1  0
 22 21  1  0
 23 24  1  0
 24 25  1  0
 26 28  1  0
 27 26  2  0
M  END
$$$$
