KQK.pdb
     RDKit          3D

 28 27  0  0  1  0  0  0  0  0999 V2000
    9.5089  -15.6545   16.7645 N   0  0  0  0  0  0  0  0  0  0  0  0
   10.2183  -14.7563   17.6212 C   0  0  1  0  0  0  0  0  0  0  0  0
    9.4377  -14.4655   18.9279 C   0  0  0  0  0  0  0  0  0  0  0  0
    8.1380  -13.8791   18.4833 C   0  0  0  0  0  0  0  0  0  0  0  0
    7.2077  -13.6671   19.6239 C   0  0  0  0  0  0  0  0  0  0  0  0
    5.8872  -13.0446   19.3039 C   0  0  0  0  0  0  0  0  0  0  0  0
    5.0221  -12.8007   20.4162 N   0  0  0  0  0  0  0  0  0  0  0  0
   11.5544  -15.2288   18.0456 C   0  0  0  0  0  0  0  0  0  0  0  0
   11.7450  -16.4614   18.1498 O   0  0  0  0  0  0  0  0  0  0  0  0
   17.6671  -12.4169   17.0665 N   0  0  0  0  0  0  0  0  0  0  0  0
   17.1581  -13.7411   17.1601 C   0  0  0  0  0  0  0  0  0  0  0  0
   17.3641  -14.5330   16.2078 O   0  0  0  0  0  0  0  0  0  0  0  0
   16.3812  -14.1796   18.3934 C   0  0  0  0  0  0  0  0  0  0  0  0
   14.9485  -13.9324   18.1098 C   0  0  0  0  0  0  0  0  0  0  0  0
   13.9608  -14.8455   18.7293 C   0  0  2  0  0  0  0  0  0  0  0  0
   12.6052  -14.3574   18.3331 N   0  0  0  0  0  0  0  0  0  0  0  0
   13.9472  -14.9648   20.1880 C   0  0  0  0  0  0  0  0  0  0  0  0
   13.7182  -13.8949   20.8685 O   0  0  0  0  0  0  0  0  0  0  0  0
   14.1480  -16.1142   20.9697 N   0  0  0  0  0  0  0  0  0  0  0  0
   14.0724  -16.0484   22.4754 C   0  0  1  0  0  0  0  0  0  0  0  0
   13.3337  -17.2081   22.9717 C   0  0  0  0  0  0  0  0  0  0  0  0
   11.8885  -17.2256   23.0011 C   0  0  0  0  0  0  0  0  0  0  0  0
   10.9887  -18.3338   23.2756 C   0  0  0  0  0  0  0  0  0  0  0  0
    9.5114  -18.0651   23.2262 C   0  0  0  0  0  0  0  0  0  0  0  0
    8.7428  -19.2677   23.5193 N   0  0  0  0  0  0  0  0  0  0  0  0
   15.5649  -16.2141   22.7648 C   0  0  0  0  0  0  0  0  0  0  0  0
   16.2953  -16.7711   21.8614 O   0  0  0  0  0  0  0  0  0  0  0  0
   16.2454  -15.8509   23.8743 O   0  0  0  0  0  0  0  0  0  0  0  0
  2  1  1  1
  2  3  1  0
  3  4  1  0
  4  5  1  0
  5  6  1  0
  7  6  1  0
  8  2  1  0
  8  9  2  0
 10 11  1  0
 11 13  1  0
 11 12  2  0
 13 14  1  0
 15 14  1  1
 15 16  1  0
 16  8  1  0
 17 15  1  0
 18 17  2  0
 19 17  1  0
 20 19  1  0
 20 26  1  0
 20 21  1  1
 22 23  1  0
 22 21  1  0
 23 24  1  0
 24 25  1  0
 26 28  1  0
 27 26  2  0
M  END
$$$$
