KQK.pdb
     RDKit          3D

 28 27  0  0  1  0  0  0  0  0999 V2000
    8.9911  -16.9594   17.7822 N   0  0  0  0  0  0  0  0  0  0  0  0
   10.3857  -17.1968   17.9891 C   0  0  1  0  0  0  0  0  0  0  0  0
   11.2059  -16.9938   16.6900 C   0  0  0  0  0  0  0  0  0  0  0  0
   11.7576  -18.3426   16.3625 C   0  0  0  0  0  0  0  0  0  0  0  0
   12.6045  -18.3121   15.1406 C   0  0  0  0  0  0  0  0  0  0  0  0
   13.2332  -19.6041   14.7295 C   0  0  0  0  0  0  0  0  0  0  0  0
   14.0019  -19.5727   13.5240 N   0  0  0  0  0  0  0  0  0  0  0  0
   11.0187  -16.3287   19.0060 C   0  0  0  0  0  0  0  0  0  0  0  0
   10.6323  -15.1420   19.1001 O   0  0  0  0  0  0  0  0  0  0  0  0
   10.4994  -17.2116   24.3035 N   0  0  0  0  0  0  0  0  0  0  0  0
   11.5705  -16.3244   24.5985 C   0  0  0  0  0  0  0  0  0  0  0  0
   11.7834  -16.0167   25.7970 O   0  0  0  0  0  0  0  0  0  0  0  0
   12.4351  -15.7650   23.4776 C   0  0  0  0  0  0  0  0  0  0  0  0
   11.9628  -16.3868   22.2188 C   0  0  0  0  0  0  0  0  0  0  0  0
   12.5835  -15.9291   20.9545 C   0  0  2  0  0  0  0  0  0  0  0  0
   12.0252  -16.7798   19.8602 N   0  0  0  0  0  0  0  0  0  0  0  0
   14.0402  -16.0013   20.8321 C   0  0  0  0  0  0  0  0  0  0  0  0
   14.5616  -17.1620   20.6295 O   0  0  0  0  0  0  0  0  0  0  0  0
   14.9729  -14.9534   20.8999 N   0  0  0  0  0  0  0  0  0  0  0  0
   16.4459  -15.2150   20.7026 C   0  0  1  0  0  0  0  0  0  0  0  0
   17.0858  -14.0044   20.1911 C   0  0  0  0  0  0  0  0  0  0  0  0
   17.2512  -13.7805   18.7726 C   0  0  0  0  0  0  0  0  0  0  0  0
   17.8703  -12.6589   18.0857 C   0  0  0  0  0  0  0  0  0  0  0  0
   18.0957  -12.7822   16.6055 C   0  0  0  0  0  0  0  0  0  0  0  0
   18.7880  -11.6153   16.0747 N   0  0  0  0  0  0  0  0  0  0  0  0
   16.8172  -15.4242   22.1713 C   0  0  0  0  0  0  0  0  0  0  0  0
   16.0844  -14.8547   23.0648 O   0  0  0  0  0  0  0  0  0  0  0  0
   17.8435  -16.1419   22.6787 O   0  0  0  0  0  0  0  0  0  0  0  0
  2  1  1  6
  2  3  1  0
  3  4  1  0
  4  5  1  0
  5  6  1  0
  7  6  1  0
  8  2  1  0
  8  9  2  0
 10 11  1  0
 11 13  1  0
 11 12  2  0
 13 14  1  0
 15 14  1  1
 15 16  1  0
 16  8  1  0
 17 15  1  0
 18 17  2  0
 19 17  1  0
 20 19  1  0
 20 26  1  0
 20 21  1  1
 22 23  1  0
 22 21  1  0
 23 24  1  0
 24 25  1  0
 26 28  1  0
 27 26  2  0
M  END
$$$$
