KQK.pdb
     RDKit          3D

 28 27  0  0  1  0  0  0  0  0999 V2000
    7.3500  -19.9823   19.8818 N   0  0  0  0  0  0  0  0  0  0  0  0
    7.3205  -19.0982   21.0050 C   0  0  1  0  0  0  0  0  0  0  0  0
    7.3948  -19.8672   22.3484 C   0  0  0  0  0  0  0  0  0  0  0  0
    6.3989  -20.9729   22.2203 C   0  0  0  0  0  0  0  0  0  0  0  0
    6.2378  -21.7227   23.4943 C   0  0  0  0  0  0  0  0  0  0  0  0
    5.3357  -22.9138   23.4606 C   0  0  0  0  0  0  0  0  0  0  0  0
    5.2067  -23.6385   24.6866 N   0  0  0  0  0  0  0  0  0  0  0  0
    8.4194  -18.1087   21.0448 C   0  0  0  0  0  0  0  0  0  0  0  0
    9.5429  -18.4482   20.6101 O   0  0  0  0  0  0  0  0  0  0  0  0
    8.7891  -12.7959   18.7906 N   0  0  0  0  0  0  0  0  0  0  0  0
    7.5815  -13.3566   19.2893 C   0  0  0  0  0  0  0  0  0  0  0  0
    6.4892  -12.8922   18.8800 O   0  0  0  0  0  0  0  0  0  0  0  0
    7.6231  -14.4957   20.2980 C   0  0  0  0  0  0  0  0  0  0  0  0
    9.0516  -14.7946   20.5509 C   0  0  0  0  0  0  0  0  0  0  0  0
    9.3659  -15.8212   21.5709 C   0  0  2  0  0  0  0  0  0  0  0  0
    8.2525  -16.8176   21.5463 N   0  0  0  0  0  0  0  0  0  0  0  0
    9.5072  -15.3936   22.9636 C   0  0  0  0  0  0  0  0  0  0  0  0
   10.3892  -14.4900   23.2200 O   0  0  0  0  0  0  0  0  0  0  0  0
    8.7923  -15.8379   24.0878 N   0  0  0  0  0  0  0  0  0  0  0  0
    9.0889  -15.2861   25.4607 C   0  0  1  0  0  0  0  0  0  0  0  0
    7.8387  -14.8672   26.0918 C   0  0  0  0  0  0  0  0  0  0  0  0
    7.3936  -13.4926   26.0445 C   0  0  0  0  0  0  0  0  0  0  0  0
    6.2047  -12.8915   26.6263 C   0  0  0  0  0  0  0  0  0  0  0  0
    6.0076  -11.4132   26.4458 C   0  0  0  0  0  0  0  0  0  0  0  0
    4.7590  -10.9663   27.0492 N   0  0  0  0  0  0  0  0  0  0  0  0
    9.5909  -16.5814   26.1002 C   0  0  0  0  0  0  0  0  0  0  0  0
    9.9703  -16.5379   27.3306 O   0  0  0  0  0  0  0  0  0  0  0  0
    9.7008  -17.8035   25.5345 O   0  0  0  0  0  0  0  0  0  0  0  0
  2  1  1  6
  2  3  1  0
  3  4  1  0
  4  5  1  0
  5  6  1  0
  7  6  1  0
  8  2  1  0
  8  9  2  0
 10 11  1  0
 11 13  1  0
 11 12  2  0
 13 14  1  0
 15 14  1  6
 15 16  1  0
 16  8  1  0
 17 15  1  0
 18 17  2  0
 19 17  1  0
 20 19  1  0
 20 26  1  0
 20 21  1  1
 22 23  1  0
 22 21  1  0
 23 24  1  0
 24 25  1  0
 26 28  1  0
 27 26  2  0
M  END
$$$$
