DHT.pdb
     RDKit          3D

 26 26  0  0  1  0  0  0  0  0999 V2000
   17.2964  -12.2961  -15.4694 N   0  0  0  0  0  0  0  0  0  0  0  0
   16.4034  -11.2404  -15.1131 C   0  0  1  0  0  0  0  0  0  0  0  0
   15.0279  -11.7261  -14.7261 C   0  0  0  0  0  0  0  0  0  0  0  0
   14.3007  -12.3196  -15.8689 C   0  0  0  0  0  0  0  0  0  0  0  0
   14.4963  -11.8309  -17.0026 O   0  0  0  0  0  0  0  0  0  0  0  0
   16.9524  -10.5375  -13.8936 C   0  0  0  0  0  0  0  0  0  0  0  0
   17.2473  -11.1860  -12.8627 O   0  0  0  0  0  0  0  0  0  0  0  0
   13.4301  -13.3811  -15.6999 O   0  0  0  0  0  0  0  0  0  0  0  0
   17.1401   -9.1375  -13.9009 N   0  0  0  0  0  0  0  0  0  0  0  0
   17.5406   -8.3350  -12.7966 C   0  0  1  0  0  0  0  0  0  0  0  0
   18.6947   -7.3801  -13.0615 C   0  0  0  0  0  0  0  0  0  0  0  0
   19.9084   -8.0695  -13.5316 C   0  0  0  0  0  0  0  0  0  0  0  0
   20.2205   -9.3678  -13.8072 C   0  0  0  0  0  0  0  0  0  0  0  0
   21.5034   -9.4442  -14.2261 N   0  0  0  0  0  0  0  0  0  0  0  0
   22.0148   -8.2157  -14.2223 C   0  0  0  0  0  0  0  0  0  0  0  0
   21.0561   -7.3829  -13.8041 N   0  0  0  0  0  0  0  0  0  0  0  0
   16.4603   -7.6788  -12.0517 C   0  0  0  0  0  0  0  0  0  0  0  0
   15.5387   -7.1283  -12.7027 O   0  0  0  0  0  0  0  0  0  0  0  0
   14.2088   -6.6415   -7.7654 C   0  0  0  0  0  0  0  0  0  0  0  0
   15.4519   -7.2099   -8.4150 C   0  0  1  0  0  0  0  0  0  0  0  0
   15.4579   -8.5917   -8.1535 O   0  0  0  0  0  0  0  0  0  0  0  0
   15.3478   -6.9473   -9.8991 C   0  0  2  0  0  0  0  0  0  0  0  0
   16.3930   -7.6280  -10.6393 N   0  0  0  0  0  0  0  0  0  0  0  0
   15.4180   -5.4752  -10.1022 C   0  0  0  0  0  0  0  0  0  0  0  0
   16.5172   -4.8846  -10.2272 O   0  0  0  0  0  0  0  0  0  0  0  0
   14.2709   -4.6812  -10.1637 O   0  0  0  0  0  0  0  0  0  0  0  0
  2  3  1  0
  2  1  1  1
  3  4  1  0
  4  5  2  0
  4  8  1  0
  6  7  2  0
  6  2  1  0
  9  6  1  0
 10  9  1  0
 10 11  1  6
 12 11  1  0
 12 13  2  0
 14 13  1  0
 15 16  2  0
 15 14  1  0
 16 12  1  0
 17 10  1  0
 17 23  1  0
 18 17  2  0
 20 19  1  1
 21 20  1  0
 22 20  1  0
 22 23  1  6
 24 22  1  0
 25 24  2  0
 26 24  1  0
M  END
$$$$
