DHT.pdb
     RDKit          3D

 26 26  0  0  1  0  0  0  0  0999 V2000
   15.2199  -10.8962  -13.6847 N   0  0  0  0  0  0  0  0  0  0  0  0
   16.6358  -10.7825  -13.5387 C   0  0  1  0  0  0  0  0  0  0  0  0
   17.3925  -11.0617  -14.8142 C   0  0  0  0  0  0  0  0  0  0  0  0
   17.4863  -12.5086  -15.1053 C   0  0  0  0  0  0  0  0  0  0  0  0
   16.4500  -13.1968  -14.9843 O   0  0  0  0  0  0  0  0  0  0  0  0
   16.9674   -9.3569  -13.1643 C   0  0  0  0  0  0  0  0  0  0  0  0
   16.3849   -8.3988  -13.7239 O   0  0  0  0  0  0  0  0  0  0  0  0
   18.6772  -13.0916  -15.4994 O   0  0  0  0  0  0  0  0  0  0  0  0
   17.9404   -9.0863  -12.1767 N   0  0  0  0  0  0  0  0  0  0  0  0
   18.4475   -7.8053  -11.8218 C   0  0  1  0  0  0  0  0  0  0  0  0
   18.2907   -7.4179  -10.3591 C   0  0  0  0  0  0  0  0  0  0  0  0
   16.8813   -7.2893   -9.9515 C   0  0  0  0  0  0  0  0  0  0  0  0
   15.6873   -7.4101  -10.5987 C   0  0  0  0  0  0  0  0  0  0  0  0
   14.6775   -7.1953   -9.7263 N   0  0  0  0  0  0  0  0  0  0  0  0
   15.2077   -6.9396   -8.5330 C   0  0  0  0  0  0  0  0  0  0  0  0
   16.5371   -6.9953   -8.6638 N   0  0  0  0  0  0  0  0  0  0  0  0
   19.7879   -7.4816  -12.3228 C   0  0  0  0  0  0  0  0  0  0  0  0
   20.7549   -8.1763  -11.9249 O   0  0  0  0  0  0  0  0  0  0  0  0
   21.1643   -7.6199  -15.6935 C   0  0  0  0  0  0  0  0  0  0  0  0
   21.3825   -6.1810  -15.2782 C   0  0  1  0  0  0  0  0  0  0  0  0
   20.3123   -5.4344  -15.8026 O   0  0  0  0  0  0  0  0  0  0  0  0
   21.3740   -6.1392  -13.7681 C   0  0  2  0  0  0  0  0  0  0  0  0
   20.0587   -6.4304  -13.2304 N   0  0  0  0  0  0  0  0  0  0  0  0
   21.8366   -4.7878  -13.3521 C   0  0  0  0  0  0  0  0  0  0  0  0
   21.0569   -3.9685  -12.8103 O   0  0  0  0  0  0  0  0  0  0  0  0
   23.1539   -4.3656  -13.5425 O   0  0  0  0  0  0  0  0  0  0  0  0
  2  3  1  0
  2  1  1  6
  3  4  1  0
  4  5  2  0
  4  8  1  0
  6  7  2  0
  6  2  1  0
  9  6  1  0
 10  9  1  0
 10 11  1  1
 12 11  1  0
 12 13  2  0
 14 13  1  0
 15 16  2  0
 15 14  1  0
 16 12  1  0
 17 10  1  0
 17 23  1  0
 18 17  2  0
 20 19  1  1
 21 20  1  0
 22 20  1  0
 22 23  1  6
 24 22  1  0
 25 24  2  0
 26 24  1  0
M  END
$$$$
