DHT.pdb
     RDKit          3D

 26 26  0  0  1  0  0  0  0  0999 V2000
   22.4268  -11.4676  -18.6180 N   0  0  0  0  0  0  0  0  0  0  0  0
   21.7695  -10.4153  -19.3249 C   0  0  1  0  0  0  0  0  0  0  0  0
   20.6223  -10.8952  -20.1799 C   0  0  0  0  0  0  0  0  0  0  0  0
   19.8039  -11.9200  -19.4964 C   0  0  0  0  0  0  0  0  0  0  0  0
   20.1149  -12.2303  -18.3263 O   0  0  0  0  0  0  0  0  0  0  0  0
   21.1658   -9.4640  -18.3183 C   0  0  0  0  0  0  0  0  0  0  0  0
   20.5463   -8.4431  -18.6978 O   0  0  0  0  0  0  0  0  0  0  0  0
   18.7273  -12.5218  -20.1225 O   0  0  0  0  0  0  0  0  0  0  0  0
   21.2928   -9.7149  -16.9340 N   0  0  0  0  0  0  0  0  0  0  0  0
   20.7760   -8.9102  -15.8807 C   0  0  1  0  0  0  0  0  0  0  0  0
   20.1774   -9.6691  -14.7060 C   0  0  0  0  0  0  0  0  0  0  0  0
   18.8282  -10.1870  -14.9901 C   0  0  0  0  0  0  0  0  0  0  0  0
   17.9993  -10.1443  -16.0718 C   0  0  0  0  0  0  0  0  0  0  0  0
   16.8546  -10.8053  -15.7894 N   0  0  0  0  0  0  0  0  0  0  0  0
   16.9398  -11.2692  -14.5451 C   0  0  0  0  0  0  0  0  0  0  0  0
   18.1288  -10.8987  -14.0588 N   0  0  0  0  0  0  0  0  0  0  0  0
   21.6360   -7.8110  -15.4284 C   0  0  0  0  0  0  0  0  0  0  0  0
   22.8597   -8.0410  -15.2684 O   0  0  0  0  0  0  0  0  0  0  0  0
   22.5295   -3.0295  -14.7942 C   0  0  0  0  0  0  0  0  0  0  0  0
   21.5745   -4.0892  -15.2994 C   0  0  1  0  0  0  0  0  0  0  0  0
   21.6790   -4.1026  -16.7018 O   0  0  0  0  0  0  0  0  0  0  0  0
   22.0164   -5.4116  -14.7179 C   0  0  2  0  0  0  0  0  0  0  0  0
   21.1690   -6.5025  -15.1602 N   0  0  0  0  0  0  0  0  0  0  0  0
   21.9947   -5.2821  -13.2360 C   0  0  0  0  0  0  0  0  0  0  0  0
   20.9532   -5.5096  -12.5756 O   0  0  0  0  0  0  0  0  0  0  0  0
   23.1255   -4.9029  -12.5098 O   0  0  0  0  0  0  0  0  0  0  0  0
  2  3  1  0
  2  1  1  1
  3  4  1  0
  4  5  2  0
  4  8  1  0
  6  7  2  0
  6  2  1  0
  9  6  1  0
 10  9  1  0
 10 11  1  1
 12 11  1  0
 12 13  2  0
 14 13  1  0
 15 16  2  0
 15 14  1  0
 16 12  1  0
 17 10  1  0
 17 23  1  0
 18 17  2  0
 20 19  1  1
 21 20  1  0
 22 20  1  0
 22 23  1  1
 24 22  1  0
 25 24  2  0
 26 24  1  0
M  END
$$$$
