DHT.pdb
     RDKit          3D

 26 26  0  0  1  0  0  0  0  0999 V2000
   18.7237  -11.4005  -18.1625 N   0  0  0  0  0  0  0  0  0  0  0  0
   17.8191  -11.3088  -17.0614 C   0  0  1  0  0  0  0  0  0  0  0  0
   18.0354  -12.3790  -16.0195 C   0  0  0  0  0  0  0  0  0  0  0  0
   17.6816  -13.7259  -16.5173 C   0  0  0  0  0  0  0  0  0  0  0  0
   17.3197  -13.8314  -17.7090 O   0  0  0  0  0  0  0  0  0  0  0  0
   18.0512   -9.9926  -16.3570 C   0  0  0  0  0  0  0  0  0  0  0  0
   17.3663   -9.6753  -15.3568 O   0  0  0  0  0  0  0  0  0  0  0  0
   17.7457  -14.8395  -15.6993 O   0  0  0  0  0  0  0  0  0  0  0  0
   19.0455   -9.1017  -16.8187 N   0  0  0  0  0  0  0  0  0  0  0  0
   19.4766   -7.9107  -16.1710 C   0  0  1  0  0  0  0  0  0  0  0  0
   20.9720   -7.8074  -15.9112 C   0  0  0  0  0  0  0  0  0  0  0  0
   21.4539   -8.8123  -14.9484 C   0  0  0  0  0  0  0  0  0  0  0  0
   20.8584   -9.8074  -14.2312 C   0  0  0  0  0  0  0  0  0  0  0  0
   21.7900  -10.4507  -13.4927 N   0  0  0  0  0  0  0  0  0  0  0  0
   22.9701   -9.8823  -13.7270 C   0  0  0  0  0  0  0  0  0  0  0  0
   22.7724   -8.8933  -14.6047 N   0  0  0  0  0  0  0  0  0  0  0  0
   18.9358   -6.6554  -16.7040 C   0  0  0  0  0  0  0  0  0  0  0  0
   18.8424   -6.5300  -17.9497 O   0  0  0  0  0  0  0  0  0  0  0  0
   16.6309   -2.3350  -16.0458 C   0  0  0  0  0  0  0  0  0  0  0  0
   17.1766   -3.5823  -15.3848 C   0  0  1  0  0  0  0  0  0  0  0  0
   16.0707   -4.3482  -14.9745 O   0  0  0  0  0  0  0  0  0  0  0  0
   17.9872   -4.3260  -16.4203 C   0  0  2  0  0  0  0  0  0  0  0  0
   18.5113   -5.5732  -15.8973 N   0  0  0  0  0  0  0  0  0  0  0  0
   19.0857   -3.4263  -16.8639 C   0  0  0  0  0  0  0  0  0  0  0  0
   18.8725   -2.4740  -17.6516 O   0  0  0  0  0  0  0  0  0  0  0  0
   20.4018   -3.5952  -16.4287 O   0  0  0  0  0  0  0  0  0  0  0  0
  2  3  1  0
  2  1  1  6
  3  4  1  0
  4  5  2  0
  4  8  1  0
  6  7  2  0
  6  2  1  0
  9  6  1  0
 10  9  1  0
 10 11  1  6
 12 11  1  0
 12 13  2  0
 14 13  1  0
 15 16  2  0
 15 14  1  0
 16 12  1  0
 17 10  1  0
 17 23  1  0
 18 17  2  0
 20 19  1  6
 21 20  1  0
 22 20  1  0
 22 23  1  1
 24 22  1  0
 25 24  2  0
 26 24  1  0
M  END
$$$$
