DHT.pdb
     RDKit          3D

 26 26  0  0  1  0  0  0  0  0999 V2000
   24.6915  -20.1418  -18.5530 N   0  0  0  0  0  0  0  0  0  0  0  0
   25.2755  -19.2755  -17.5797 C   0  0  1  0  0  0  0  0  0  0  0  0
   24.3468  -18.1769  -17.1234 C   0  0  0  0  0  0  0  0  0  0  0  0
   24.0159  -17.2337  -18.2134 C   0  0  0  0  0  0  0  0  0  0  0  0
   22.8261  -16.8681  -18.3278 O   0  0  0  0  0  0  0  0  0  0  0  0
   25.5956  -20.0859  -16.3455 C   0  0  0  0  0  0  0  0  0  0  0  0
   24.7692  -20.9121  -15.8932 O   0  0  0  0  0  0  0  0  0  0  0  0
   24.9837  -16.7652  -19.0834 O   0  0  0  0  0  0  0  0  0  0  0  0
   26.8335  -19.9215  -15.6850 N   0  0  0  0  0  0  0  0  0  0  0  0
   27.2498  -20.5850  -14.4974 C   0  0  1  0  0  0  0  0  0  0  0  0
   28.7464  -20.8250  -14.3680 C   0  0  0  0  0  0  0  0  0  0  0  0
   29.2249  -21.9185  -15.2309 C   0  0  0  0  0  0  0  0  0  0  0  0
   28.6263  -22.7662  -16.1153 C   0  0  0  0  0  0  0  0  0  0  0  0
   29.5555  -23.5879  -16.6522 N   0  0  0  0  0  0  0  0  0  0  0  0
   30.7373  -23.2782  -16.1249 C   0  0  0  0  0  0  0  0  0  0  0  0
   30.5429  -22.2715  -15.2668 N   0  0  0  0  0  0  0  0  0  0  0  0
   26.6757  -20.0832  -13.2441 C   0  0  0  0  0  0  0  0  0  0  0  0
   26.4739  -18.8489  -13.1349 O   0  0  0  0  0  0  0  0  0  0  0  0
   23.2469  -20.1700  -10.1541 C   0  0  0  0  0  0  0  0  0  0  0  0
   24.0279  -20.5742  -11.3858 C   0  0  1  0  0  0  0  0  0  0  0  0
   23.6985  -19.6586  -12.4011 O   0  0  0  0  0  0  0  0  0  0  0  0
   25.4960  -20.4845  -11.0409 C   0  0  2  0  0  0  0  0  0  0  0  0
   26.3340  -20.9081  -12.1464 N   0  0  0  0  0  0  0  0  0  0  0  0
   25.7285  -21.3277   -9.8375 C   0  0  0  0  0  0  0  0  0  0  0  0
   26.3980  -22.3862   -9.9008 O   0  0  0  0  0  0  0  0  0  0  0  0
   25.2165  -20.9856   -8.5842 O   0  0  0  0  0  0  0  0  0  0  0  0
  2  3  1  0
  2  1  1  6
  3  4  1  0
  4  5  2  0
  4  8  1  0
  6  7  2  0
  6  2  1  0
  9  6  1  0
 10  9  1  0
 10 11  1  1
 12 11  1  0
 12 13  2  0
 14 13  1  0
 15 16  2  0
 15 14  1  0
 16 12  1  0
 17 10  1  0
 17 23  1  0
 18 17  2  0
 20 19  1  1
 21 20  1  0
 22 20  1  0
 22 23  1  6
 24 22  1  0
 25 24  2  0
 26 24  1  0
M  END
$$$$
