DHT.pdb
     RDKit          3D

 26 26  0  0  1  0  0  0  0  0999 V2000
   17.7224  -10.9056  -15.2190 N   0  0  0  0  0  0  0  0  0  0  0  0
   18.8942  -10.9708  -16.0324 C   0  0  1  0  0  0  0  0  0  0  0  0
   18.5972  -10.9414  -17.5118 C   0  0  0  0  0  0  0  0  0  0  0  0
   18.2748  -12.2824  -18.0457 C   0  0  0  0  0  0  0  0  0  0  0  0
   19.0998  -13.2013  -17.8529 O   0  0  0  0  0  0  0  0  0  0  0  0
   19.7398   -9.7498  -15.7557 C   0  0  0  0  0  0  0  0  0  0  0  0
   19.6988   -9.1859  -14.6374 O   0  0  0  0  0  0  0  0  0  0  0  0
   17.1012  -12.5227  -18.7373 O   0  0  0  0  0  0  0  0  0  0  0  0
   20.5887   -9.2279  -16.7569 N   0  0  0  0  0  0  0  0  0  0  0  0
   21.4207   -8.0796  -16.6421 C   0  0  1  0  0  0  0  0  0  0  0  0
   22.8382   -8.2386  -17.1708 C   0  0  0  0  0  0  0  0  0  0  0  0
   23.6495   -7.0211  -17.0015 C   0  0  0  0  0  0  0  0  0  0  0  0
   23.4111   -5.7809  -16.4876 C   0  0  0  0  0  0  0  0  0  0  0  0
   24.5346   -5.0340  -16.5720 N   0  0  0  0  0  0  0  0  0  0  0  0
   25.4859   -5.7776  -17.1312 C   0  0  0  0  0  0  0  0  0  0  0  0
   24.9567   -6.9774  -17.3921 N   0  0  0  0  0  0  0  0  0  0  0  0
   20.8268   -6.8083  -17.0704 C   0  0  0  0  0  0  0  0  0  0  0  0
   20.5432   -6.6641  -18.2849 O   0  0  0  0  0  0  0  0  0  0  0  0
   17.6929   -5.1464  -15.9124 C   0  0  0  0  0  0  0  0  0  0  0  0
   18.7781   -4.1110  -15.7105 C   0  0  1  0  0  0  0  0  0  0  0  0
   19.1586   -4.1719  -14.3579 O   0  0  0  0  0  0  0  0  0  0  0  0
   19.9340   -4.4853  -16.6083 C   0  0  2  0  0  0  0  0  0  0  0  0
   20.5530   -5.7305  -16.1955 N   0  0  0  0  0  0  0  0  0  0  0  0
   20.9110   -3.3639  -16.5762 C   0  0  0  0  0  0  0  0  0  0  0  0
   22.0572   -3.5098  -16.0887 O   0  0  0  0  0  0  0  0  0  0  0  0
   20.6036   -2.1000  -17.0840 O   0  0  0  0  0  0  0  0  0  0  0  0
  2  3  1  0
  2  1  1  1
  3  4  1  0
  4  5  2  0
  4  8  1  0
  6  7  2  0
  6  2  1  0
  9  6  1  0
 10  9  1  0
 10 11  1  6
 12 11  1  0
 12 13  2  0
 14 13  1  0
 15 16  2  0
 15 14  1  0
 16 12  1  0
 17 10  1  0
 17 23  1  0
 18 17  2  0
 20 19  1  1
 21 20  1  0
 22 20  1  0
 22 23  1  1
 24 22  1  0
 25 24  2  0
 26 24  1  0
M  END
$$$$
