DHT.pdb
     RDKit          3D

 26 26  0  0  1  0  0  0  0  0999 V2000
   33.2462  -26.9146  -18.6322 N   0  0  0  0  0  0  0  0  0  0  0  0
   34.1095  -26.5635  -19.7140 C   0  0  1  0  0  0  0  0  0  0  0  0
   34.3195  -25.0754  -19.8524 C   0  0  0  0  0  0  0  0  0  0  0  0
   33.0924  -24.3740  -20.2875 C   0  0  0  0  0  0  0  0  0  0  0  0
   32.0612  -25.0576  -20.4653 O   0  0  0  0  0  0  0  0  0  0  0  0
   35.4758  -27.1513  -19.4488 C   0  0  0  0  0  0  0  0  0  0  0  0
   36.4567  -26.8309  -20.1597 O   0  0  0  0  0  0  0  0  0  0  0  0
   33.0753  -23.0064  -20.4938 O   0  0  0  0  0  0  0  0  0  0  0  0
   35.6642  -28.0714  -18.3936 N   0  0  0  0  0  0  0  0  0  0  0  0
   36.8963  -28.6666  -18.0043 C   0  0  1  0  0  0  0  0  0  0  0  0
   36.9802  -29.1164  -16.5534 C   0  0  0  0  0  0  0  0  0  0  0  0
   36.7895  -28.0089  -15.6015 C   0  0  0  0  0  0  0  0  0  0  0  0
   36.5644  -26.6703  -15.7296 C   0  0  0  0  0  0  0  0  0  0  0  0
   36.4536  -26.1121  -14.5035 N   0  0  0  0  0  0  0  0  0  0  0  0
   36.6042  -27.0728  -13.5953 C   0  0  0  0  0  0  0  0  0  0  0  0
   36.8070  -28.2191  -14.2529 N   0  0  0  0  0  0  0  0  0  0  0  0
   37.4369  -29.6827  -18.9141 C   0  0  0  0  0  0  0  0  0  0  0  0
   36.6279  -30.3916  -19.5614 O   0  0  0  0  0  0  0  0  0  0  0  0
   41.2876  -31.6945  -21.2851 C   0  0  0  0  0  0  0  0  0  0  0  0
   40.8572  -30.7737  -20.1639 C   0  0  1  0  0  0  0  0  0  0  0  0
   41.2121  -29.4672  -20.5449 O   0  0  0  0  0  0  0  0  0  0  0  0
   39.3584  -30.9008  -20.0233 C   0  0  2  0  0  0  0  0  0  0  0  0
   38.8194  -29.9136  -19.1075 N   0  0  0  0  0  0  0  0  0  0  0  0
   39.0652  -32.2826  -19.5563 C   0  0  0  0  0  0  0  0  0  0  0  0
   39.2760  -32.6297  -18.3699 O   0  0  0  0  0  0  0  0  0  0  0  0
   38.5437  -33.2570  -20.4098 O   0  0  0  0  0  0  0  0  0  0  0  0
  2  3  1  0
  2  1  1  1
  3  4  1  0
  4  5  2  0
  4  8  1  0
  6  7  2  0
  6  2  1  0
  9  6  1  0
 10  9  1  0
 10 11  1  1
 12 11  1  0
 12 13  2  0
 14 13  1  0
 15 16  2  0
 15 14  1  0
 16 12  1  0
 17 10  1  0
 17 23  1  0
 18 17  2  0
 20 19  1  6
 21 20  1  0
 22 20  1  0
 22 23  1  1
 24 22  1  0
 25 24  2  0
 26 24  1  0
M  END
$$$$
