DHT.pdb
     RDKit          3D

 26 26  0  0  1  0  0  0  0  0999 V2000
   26.9331  -26.3826  -19.0141 N   0  0  0  0  0  0  0  0  0  0  0  0
   28.2392  -26.6392  -18.4972 C   0  0  1  0  0  0  0  0  0  0  0  0
   28.3687  -26.3383  -17.0240 C   0  0  0  0  0  0  0  0  0  0  0  0
   27.0979  -25.8640  -16.4347 C   0  0  0  0  0  0  0  0  0  0  0  0
   26.0655  -26.5321  -16.6582 O   0  0  0  0  0  0  0  0  0  0  0  0
   28.5339  -28.1134  -18.6460 C   0  0  0  0  0  0  0  0  0  0  0  0
   29.6365  -28.5833  -18.2802 O   0  0  0  0  0  0  0  0  0  0  0  0
   27.0424  -24.7195  -15.6599 O   0  0  0  0  0  0  0  0  0  0  0  0
   27.5677  -28.9819  -19.2006 N   0  0  0  0  0  0  0  0  0  0  0  0
   27.6753  -30.3953  -19.3213 C   0  0  1  0  0  0  0  0  0  0  0  0
   26.7796  -31.2047  -18.3956 C   0  0  0  0  0  0  0  0  0  0  0  0
   27.3285  -31.3261  -17.0343 C   0  0  0  0  0  0  0  0  0  0  0  0
   28.4940  -30.9436  -16.4391 C   0  0  0  0  0  0  0  0  0  0  0  0
   28.4745  -31.3032  -15.1363 N   0  0  0  0  0  0  0  0  0  0  0  0
   27.3153  -31.9087  -14.8905 C   0  0  0  0  0  0  0  0  0  0  0  0
   26.6205  -31.9248  -16.0326 N   0  0  0  0  0  0  0  0  0  0  0  0
   27.6572  -30.9284  -20.6880 C   0  0  0  0  0  0  0  0  0  0  0  0
   26.7702  -30.5163  -21.4751 O   0  0  0  0  0  0  0  0  0  0  0  0
   30.9324  -31.8505  -22.8892 C   0  0  0  0  0  0  0  0  0  0  0  0
   29.9238  -32.9786  -22.9090 C   0  0  1  0  0  0  0  0  0  0  0  0
   30.3416  -33.9211  -21.9525 O   0  0  0  0  0  0  0  0  0  0  0  0
   28.5826  -32.3938  -22.5328 C   0  0  2  0  0  0  0  0  0  0  0  0
   28.5817  -31.8823  -21.1755 N   0  0  0  0  0  0  0  0  0  0  0  0
   27.5612  -33.4617  -22.7044 C   0  0  0  0  0  0  0  0  0  0  0  0
   26.9442  -33.9395  -21.7228 O   0  0  0  0  0  0  0  0  0  0  0  0
   27.2396  -33.9831  -23.9593 O   0  0  0  0  0  0  0  0  0  0  0  0
  2  3  1  0
  2  1  1  1
  3  4  1  0
  4  5  2  0
  4  8  1  0
  6  7  2  0
  6  2  1  0
  9  6  1  0
 10  9  1  0
 10 11  1  1
 12 11  1  0
 12 13  2  0
 14 13  1  0
 15 16  2  0
 15 14  1  0
 16 12  1  0
 17 10  1  0
 17 23  1  0
 18 17  2  0
 20 19  1  1
 21 20  1  0
 22 20  1  0
 22 23  1  1
 24 22  1  0
 25 24  2  0
 26 24  1  0
M  END
$$$$
