DHT.pdb
     RDKit          3D

 26 26  0  0  1  0  0  0  0  0999 V2000
   24.0725  -10.9152  -18.7195 N   0  0  0  0  0  0  0  0  0  0  0  0
   23.6734   -9.6296  -19.1958 C   0  0  1  0  0  0  0  0  0  0  0  0
   23.1540   -9.6520  -20.6126 C   0  0  0  0  0  0  0  0  0  0  0  0
   24.1953  -10.0474  -21.5854 C   0  0  0  0  0  0  0  0  0  0  0  0
   25.3352  -10.3109  -21.1456 O   0  0  0  0  0  0  0  0  0  0  0  0
   22.5285   -9.1352  -18.3430 C   0  0  0  0  0  0  0  0  0  0  0  0
   21.3963   -8.9438  -18.8446 O   0  0  0  0  0  0  0  0  0  0  0  0
   23.9272  -10.1264  -22.9401 O   0  0  0  0  0  0  0  0  0  0  0  0
   22.7212   -8.8823  -16.9667 N   0  0  0  0  0  0  0  0  0  0  0  0
   21.7168   -8.5147  -16.0286 C   0  0  1  0  0  0  0  0  0  0  0  0
   21.8290   -9.1627  -14.6568 C   0  0  0  0  0  0  0  0  0  0  0  0
   20.6691   -8.8772  -13.7951 C   0  0  0  0  0  0  0  0  0  0  0  0
   19.3969   -9.3617  -13.7181 C   0  0  0  0  0  0  0  0  0  0  0  0
   18.7383   -8.7422  -12.7135 N   0  0  0  0  0  0  0  0  0  0  0  0
   19.5696   -7.8704  -12.1481 C   0  0  0  0  0  0  0  0  0  0  0  0
   20.7358   -7.9483  -12.7973 N   0  0  0  0  0  0  0  0  0  0  0  0
   21.4277   -7.0802  -15.9232 C   0  0  0  0  0  0  0  0  0  0  0  0
   22.3481   -6.3146  -15.5452 O   0  0  0  0  0  0  0  0  0  0  0  0
   20.6974   -4.3442  -18.1686 C   0  0  0  0  0  0  0  0  0  0  0  0
   19.4570   -4.4243  -17.3054 C   0  0  1  0  0  0  0  0  0  0  0  0
   18.5143   -5.1943  -18.0099 O   0  0  0  0  0  0  0  0  0  0  0  0
   19.8465   -5.1059  -16.0147 C   0  0  2  0  0  0  0  0  0  0  0  0
   20.1705   -6.5043  -16.2226 N   0  0  0  0  0  0  0  0  0  0  0  0
   18.7121   -4.9534  -15.0644 C   0  0  0  0  0  0  0  0  0  0  0  0
   17.9924   -5.9291  -14.7442 O   0  0  0  0  0  0  0  0  0  0  0  0
   18.3931   -3.7239  -14.4842 O   0  0  0  0  0  0  0  0  0  0  0  0
  2  3  1  0
  2  1  1  1
  3  4  1  0
  4  5  2  0
  4  8  1  0
  6  7  2  0
  6  2  1  0
  9  6  1  0
 10  9  1  0
 10 11  1  1
 12 11  1  0
 12 13  2  0
 14 13  1  0
 15 16  2  0
 15 14  1  0
 16 12  1  0
 17 10  1  0
 17 23  1  0
 18 17  2  0
 20 19  1  6
 21 20  1  0
 22 20  1  0
 22 23  1  6
 24 22  1  0
 25 24  2  0
 26 24  1  0
M  END
$$$$
