DHT.pdb
     RDKit          3D

 26 26  0  0  1  0  0  0  0  0999 V2000
   13.1205  -10.3883  -10.7762 N   0  0  0  0  0  0  0  0  0  0  0  0
   14.4616  -10.3644  -10.2865 C   0  0  1  0  0  0  0  0  0  0  0  0
   15.3880  -11.2907  -11.0357 C   0  0  0  0  0  0  0  0  0  0  0  0
   14.9853  -12.7082  -10.9109 C   0  0  0  0  0  0  0  0  0  0  0  0
   15.3621  -13.5025  -11.7993 O   0  0  0  0  0  0  0  0  0  0  0  0
   15.0198   -8.9741  -10.4814 C   0  0  0  0  0  0  0  0  0  0  0  0
   14.7873   -8.3356  -11.5342 O   0  0  0  0  0  0  0  0  0  0  0  0
   14.2167  -13.1511   -9.8495 O   0  0  0  0  0  0  0  0  0  0  0  0
   15.8124   -8.3760   -9.4767 N   0  0  0  0  0  0  0  0  0  0  0  0
   16.3958   -7.0794   -9.5238 C   0  0  1  0  0  0  0  0  0  0  0  0
   16.1985   -6.2236   -8.2816 C   0  0  0  0  0  0  0  0  0  0  0  0
   14.7921   -5.8404   -8.0712 C   0  0  0  0  0  0  0  0  0  0  0  0
   14.0995   -4.6695   -8.1621 C   0  0  0  0  0  0  0  0  0  0  0  0
   12.7994   -4.8901   -7.8654 N   0  0  0  0  0  0  0  0  0  0  0  0
   12.6511   -6.1827   -7.5868 C   0  0  0  0  0  0  0  0  0  0  0  0
   13.8507   -6.7603   -7.7097 N   0  0  0  0  0  0  0  0  0  0  0  0
   17.7790   -7.0125  -10.0083 C   0  0  0  0  0  0  0  0  0  0  0  0
   18.7054   -7.2576   -9.1972 O   0  0  0  0  0  0  0  0  0  0  0  0
   21.2117   -7.7844  -13.1734 C   0  0  0  0  0  0  0  0  0  0  0  0
   19.7486   -7.8272  -12.7891 C   0  0  1  0  0  0  0  0  0  0  0  0
   19.5263   -9.0609  -12.1515 O   0  0  0  0  0  0  0  0  0  0  0  0
   19.4963   -6.6809  -11.8380 C   0  0  2  0  0  0  0  0  0  0  0  0
   18.1345   -6.6874  -11.3387 N   0  0  0  0  0  0  0  0  0  0  0  0
   19.7953   -5.4179  -12.5650 C   0  0  0  0  0  0  0  0  0  0  0  0
   18.8784   -4.6922  -13.0182 O   0  0  0  0  0  0  0  0  0  0  0  0
   21.1036   -4.9790  -12.7785 O   0  0  0  0  0  0  0  0  0  0  0  0
  2  3  1  0
  2  1  1  6
  3  4  1  0
  4  5  2  0
  4  8  1  0
  6  7  2  0
  6  2  1  0
  9  6  1  0
 10  9  1  0
 10 11  1  1
 12 11  1  0
 12 13  2  0
 14 13  1  0
 15 16  2  0
 15 14  1  0
 16 12  1  0
 17 10  1  0
 17 23  1  0
 18 17  2  0
 20 19  1  1
 21 20  1  0
 22 20  1  0
 22 23  1  6
 24 22  1  0
 25 24  2  0
 26 24  1  0
M  END
$$$$
