DHT.pdb
     RDKit          3D

 26 26  0  0  1  0  0  0  0  0999 V2000
   17.4867  -11.7028  -17.0665 N   0  0  0  0  0  0  0  0  0  0  0  0
   17.7553  -11.3217  -15.7169 C   0  0  1  0  0  0  0  0  0  0  0  0
   18.0331  -12.4946  -14.8087 C   0  0  0  0  0  0  0  0  0  0  0  0
   16.8768  -13.4109  -14.7064 C   0  0  0  0  0  0  0  0  0  0  0  0
   15.8386  -13.1130  -15.3353 O   0  0  0  0  0  0  0  0  0  0  0  0
   19.0075  -10.4766  -15.6962 C   0  0  0  0  0  0  0  0  0  0  0  0
   19.5360  -10.1466  -14.6091 O   0  0  0  0  0  0  0  0  0  0  0  0
   16.9318  -14.5627  -13.9426 O   0  0  0  0  0  0  0  0  0  0  0  0
   19.5987  -10.0474  -16.9052 N   0  0  0  0  0  0  0  0  0  0  0  0
   20.7199   -9.1812  -17.0341 C   0  0  1  0  0  0  0  0  0  0  0  0
   21.4941   -9.2969  -18.3386 C   0  0  0  0  0  0  0  0  0  0  0  0
   22.7146   -8.4726  -18.3519 C   0  0  0  0  0  0  0  0  0  0  0  0
   23.3291   -7.6650  -17.4413 C   0  0  0  0  0  0  0  0  0  0  0  0
   24.4535   -7.1470  -17.9840 N   0  0  0  0  0  0  0  0  0  0  0  0
   24.5664   -7.6112  -19.2260 C   0  0  0  0  0  0  0  0  0  0  0  0
   23.5196   -8.4114  -19.4525 N   0  0  0  0  0  0  0  0  0  0  0  0
   20.4968   -7.7791  -16.6642 C   0  0  0  0  0  0  0  0  0  0  0  0
   19.5305   -7.1727  -17.1883 O   0  0  0  0  0  0  0  0  0  0  0  0
   22.0269   -6.1416  -13.1481 C   0  0  0  0  0  0  0  0  0  0  0  0
   20.8067   -5.5928  -13.8552 C   0  0  1  0  0  0  0  0  0  0  0  0
   20.6750   -4.2480  -13.4652 O   0  0  0  0  0  0  0  0  0  0  0  0
   21.0594   -5.6960  -15.3410 C   0  0  2  0  0  0  0  0  0  0  0  0
   21.3069   -7.0656  -15.7495 N   0  0  0  0  0  0  0  0  0  0  0  0
   22.2196   -4.8222  -15.6626 C   0  0  0  0  0  0  0  0  0  0  0  0
   23.3223   -5.3039  -16.0158 O   0  0  0  0  0  0  0  0  0  0  0  0
   22.1404   -3.4300  -15.5881 O   0  0  0  0  0  0  0  0  0  0  0  0
  2  3  1  0
  2  1  1  6
  3  4  1  0
  4  5  2  0
  4  8  1  0
  6  7  2  0
  6  2  1  0
  9  6  1  0
 10  9  1  0
 10 11  1  6
 12 11  1  0
 12 13  2  0
 14 13  1  0
 15 16  2  0
 15 14  1  0
 16 12  1  0
 17 10  1  0
 17 23  1  0
 18 17  2  0
 20 19  1  1
 21 20  1  0
 22 20  1  0
 22 23  1  1
 24 22  1  0
 25 24  2  0
 26 24  1  0
M  END
$$$$
