DHT.pdb
     RDKit          3D

 26 26  0  0  1  0  0  0  0  0999 V2000
   17.0650   -9.8613  -15.6030 N   0  0  0  0  0  0  0  0  0  0  0  0
   17.7051   -9.0938  -14.5831 C   0  0  1  0  0  0  0  0  0  0  0  0
   18.0446   -7.6887  -15.0167 C   0  0  0  0  0  0  0  0  0  0  0  0
   19.0822   -7.6623  -16.0702 C   0  0  0  0  0  0  0  0  0  0  0  0
   19.5372   -8.7559  -16.4690 O   0  0  0  0  0  0  0  0  0  0  0  0
   16.7513   -8.9490  -13.4205 C   0  0  0  0  0  0  0  0  0  0  0  0
   15.5355   -8.7187  -13.6181 O   0  0  0  0  0  0  0  0  0  0  0  0
   19.5413   -6.4715  -16.6038 O   0  0  0  0  0  0  0  0  0  0  0  0
   17.2197   -9.0719  -12.0935 N   0  0  0  0  0  0  0  0  0  0  0  0
   16.4346   -8.9803  -10.9106 C   0  0  1  0  0  0  0  0  0  0  0  0
   16.5078  -10.1799   -9.9780 C   0  0  0  0  0  0  0  0  0  0  0  0
   16.1431  -11.4422  -10.6434 C   0  0  0  0  0  0  0  0  0  0  0  0
   14.9685  -12.0984  -10.8642 C   0  0  0  0  0  0  0  0  0  0  0  0
   15.2102  -13.2376  -11.5503 N   0  0  0  0  0  0  0  0  0  0  0  0
   16.5199  -13.3189  -11.7709 C   0  0  0  0  0  0  0  0  0  0  0  0
   17.0870  -12.2379  -11.2257 N   0  0  0  0  0  0  0  0  0  0  0  0
   16.5299   -7.7174  -10.1703 C   0  0  0  0  0  0  0  0  0  0  0  0
   17.6624   -7.3409   -9.7805 O   0  0  0  0  0  0  0  0  0  0  0  0
   15.0829   -3.1763   -9.5532 C   0  0  0  0  0  0  0  0  0  0  0  0
   14.8184   -4.5364  -10.1620 C   0  0  1  0  0  0  0  0  0  0  0  0
   15.3564   -4.5175  -11.4613 O   0  0  0  0  0  0  0  0  0  0  0  0
   15.5251   -5.5610   -9.3059 C   0  0  2  0  0  0  0  0  0  0  0  0
   15.4196   -6.8943   -9.8673 N   0  0  0  0  0  0  0  0  0  0  0  0
   14.9253   -5.5026   -7.9457 C   0  0  0  0  0  0  0  0  0  0  0  0
   14.0068   -6.2844   -7.6025 O   0  0  0  0  0  0  0  0  0  0  0  0
   15.3518   -4.5800   -6.9881 O   0  0  0  0  0  0  0  0  0  0  0  0
  2  3  1  0
  2  1  1  6
  3  4  1  0
  4  5  2  0
  4  8  1  0
  6  7  2  0
  6  2  1  0
  9  6  1  0
 10  9  1  0
 10 11  1  1
 12 11  1  0
 12 13  2  0
 14 13  1  0
 15 16  2  0
 15 14  1  0
 16 12  1  0
 17 10  1  0
 17 23  1  0
 18 17  2  0
 20 19  1  1
 21 20  1  0
 22 20  1  0
 22 23  1  6
 24 22  1  0
 25 24  2  0
 26 24  1  0
M  END
$$$$
