GFC.pdb
     RDKit          3D

 22 22  0  0  1  0  0  0  0  0999 V2000
   25.0105  -11.8568  -16.0073 N   0  0  0  0  0  0  0  0  0  0  0  0
   24.8447  -10.7354  -15.1356 C   0  0  0  0  0  0  0  0  0  0  0  0
   23.7496   -9.8302  -15.5801 C   0  0  0  0  0  0  0  0  0  0  0  0
   23.5733   -9.5627  -16.8078 O   0  0  0  0  0  0  0  0  0  0  0  0
   22.8841   -9.2537  -14.6120 N   0  0  0  0  0  0  0  0  0  0  0  0
   21.7692   -8.4144  -14.9359 C   0  0  1  0  0  0  0  0  0  0  0  0
   20.5070   -9.0914  -14.3890 C   0  0  0  0  0  0  0  0  0  0  0  0
   20.1764  -10.2992  -15.1537 C   0  0  0  0  0  0  0  0  0  0  0  0
   20.5297  -11.5320  -14.6758 C   0  0  0  0  0  0  0  0  0  0  0  0
   20.2037  -12.6624  -15.4216 C   0  0  0  0  0  0  0  0  0  0  0  0
   19.5333  -12.5149  -16.6231 C   0  0  0  0  0  0  0  0  0  0  0  0
   19.1835  -11.2569  -17.0911 C   0  0  0  0  0  0  0  0  0  0  0  0
   19.5052  -10.1420  -16.3551 C   0  0  0  0  0  0  0  0  0  0  0  0
   21.8740   -7.0524  -14.3792 C   0  0  0  0  0  0  0  0  0  0  0  0
   22.2634   -6.7775  -13.2344 O   0  0  0  0  0  0  0  0  0  0  0  0
   21.4999   -5.9677  -15.2187 N   0  0  0  0  0  0  0  0  0  0  0  0
   21.5580   -4.5901  -14.8283 C   0  0  1  0  0  0  0  0  0  0  0  0
   22.9030   -3.9564  -15.0526 C   0  0  0  0  0  0  0  0  0  0  0  0
   23.0152   -2.2939  -14.3891 S   0  0  0  0  0  0  0  0  0  0  0  0
   20.4510   -3.8137  -15.4114 C   0  0  0  0  0  0  0  0  0  0  0  0
   20.1932   -2.6844  -14.9195 O   0  0  0  0  0  0  0  0  0  0  0  0
   19.6727   -4.2355  -16.4616 O   0  0  0  0  0  0  0  0  0  0  0  0
  2  1  1  0
  2  3  1  0
  3  5  1  0
  3  4  2  0
  5  6  1  0
  6 14  1  0
  6  7  1  1
  8  7  1  0
  8 13  2  0
  9  8  1  0
 10  9  2  0
 10 11  1  0
 11 12  2  0
 12 13  1  0
 14 15  2  0
 14 16  1  0
 16 17  1  0
 17 20  1  0
 17 18  1  6
 19 18  1  0
 20 22  1  0
 21 20  2  0
M  END
$$$$
