GFC.pdb
     RDKit          3D

 22 22  0  0  1  0  0  0  0  0999 V2000
   25.7878  -24.8901  -15.1945 N   0  0  0  0  0  0  0  0  0  0  0  0
   25.8191  -23.6119  -15.8349 C   0  0  0  0  0  0  0  0  0  0  0  0
   25.0993  -22.5695  -15.0530 C   0  0  0  0  0  0  0  0  0  0  0  0
   24.1996  -22.8793  -14.2137 O   0  0  0  0  0  0  0  0  0  0  0  0
   25.4248  -21.2005  -15.2492 N   0  0  0  0  0  0  0  0  0  0  0  0
   24.7295  -20.1161  -14.6223 C   0  0  1  0  0  0  0  0  0  0  0  0
   25.7804  -19.2056  -13.9761 C   0  0  0  0  0  0  0  0  0  0  0  0
   26.5004  -19.9009  -12.9033 C   0  0  0  0  0  0  0  0  0  0  0  0
   25.9035  -20.0888  -11.6861 C   0  0  0  0  0  0  0  0  0  0  0  0
   26.6094  -20.7520  -10.6851 C   0  0  0  0  0  0  0  0  0  0  0  0
   27.8918  -21.2039  -10.9418 C   0  0  0  0  0  0  0  0  0  0  0  0
   28.4800  -21.0040  -12.1819 C   0  0  0  0  0  0  0  0  0  0  0  0
   27.7835  -20.3498  -13.1692 C   0  0  0  0  0  0  0  0  0  0  0  0
   23.9045  -19.3255  -15.5552 C   0  0  0  0  0  0  0  0  0  0  0  0
   24.2074  -19.0628  -16.7287 O   0  0  0  0  0  0  0  0  0  0  0  0
   22.6642  -18.8240  -15.0740 N   0  0  0  0  0  0  0  0  0  0  0  0
   21.6877  -18.1700  -15.8938 C   0  0  1  0  0  0  0  0  0  0  0  0
   20.2690  -18.4587  -15.4876 C   0  0  0  0  0  0  0  0  0  0  0  0
   20.1017  -19.9820  -14.5557 S   0  0  0  0  0  0  0  0  0  0  0  0
   21.9672  -16.7303  -16.0266 C   0  0  0  0  0  0  0  0  0  0  0  0
   22.8664  -16.2300  -15.3020 O   0  0  0  0  0  0  0  0  0  0  0  0
   21.3130  -15.8865  -16.8907 O   0  0  0  0  0  0  0  0  0  0  0  0
  2  1  1  0
  2  3  1  0
  3  5  1  0
  3  4  2  0
  5  6  1  0
  6 14  1  0
  6  7  1  6
  8  7  1  0
  8 13  2  0
  9  8  1  0
 10  9  2  0
 10 11  1  0
 11 12  2  0
 12 13  1  0
 14 15  2  0
 14 16  1  0
 16 17  1  0
 17 20  1  0
 17 18  1  1
 19 18  1  0
 20 22  1  0
 21 20  2  0
M  END
$$$$
