GFC.pdb
     RDKit          3D

 22 22  0  0  1  0  0  0  0  0999 V2000
   13.0656  -12.7473    4.8326 N   0  0  0  0  0  0  0  0  0  0  0  0
   13.8491  -13.3594    5.8604 C   0  0  0  0  0  0  0  0  0  0  0  0
   14.6393  -14.5160    5.3565 C   0  0  0  0  0  0  0  0  0  0  0  0
   14.3379  -15.0962    4.2691 O   0  0  0  0  0  0  0  0  0  0  0  0
   15.7530  -14.9806    6.1065 N   0  0  0  0  0  0  0  0  0  0  0  0
   16.5491  -16.1127    5.7367 C   0  0  1  0  0  0  0  0  0  0  0  0
   18.0207  -15.6917    5.8258 C   0  0  0  0  0  0  0  0  0  0  0  0
   18.3689  -14.7434    4.7617 C   0  0  0  0  0  0  0  0  0  0  0  0
   18.5883  -15.1923    3.4875 C   0  0  0  0  0  0  0  0  0  0  0  0
   18.9174  -14.2709    2.4961 C   0  0  0  0  0  0  0  0  0  0  0  0
   19.0148  -12.9289    2.8194 C   0  0  0  0  0  0  0  0  0  0  0  0
   18.7888  -12.4931    4.1167 C   0  0  0  0  0  0  0  0  0  0  0  0
   18.4641  -13.4023    5.0945 C   0  0  0  0  0  0  0  0  0  0  0  0
   16.3262  -17.2953    6.5898 C   0  0  0  0  0  0  0  0  0  0  0  0
   16.1462  -17.2666    7.8164 O   0  0  0  0  0  0  0  0  0  0  0  0
   16.3165  -18.5694    5.9590 N   0  0  0  0  0  0  0  0  0  0  0  0
   16.0837  -19.8058    6.6451 C   0  0  1  0  0  0  0  0  0  0  0  0
   15.6056  -20.9128    5.7468 C   0  0  0  0  0  0  0  0  0  0  0  0
   16.4697  -20.9650    4.1760 S   0  0  0  0  0  0  0  0  0  0  0  0
   17.2389  -20.1933    7.4720 C   0  0  0  0  0  0  0  0  0  0  0  0
   18.3274  -19.5869    7.2942 O   0  0  0  0  0  0  0  0  0  0  0  0
   17.2153  -21.1762    8.4312 O   0  0  0  0  0  0  0  0  0  0  0  0
  2  1  1  0
  2  3  1  0
  3  5  1  0
  3  4  2  0
  5  6  1  0
  6 14  1  0
  6  7  1  1
  8  7  1  0
  8 13  2  0
  9  8  1  0
 10  9  2  0
 10 11  1  0
 11 12  2  0
 12 13  1  0
 14 15  2  0
 14 16  1  0
 16 17  1  0
 17 20  1  0
 17 18  1  6
 19 18  1  0
 20 22  1  0
 21 20  2  0
M  END
$$$$
