GFC.pdb
     RDKit          3D

 22 22  0  0  1  0  0  0  0  0999 V2000
   22.6598  -12.8615  -17.5804 N   0  0  0  0  0  0  0  0  0  0  0  0
   22.3249  -11.5989  -18.1620 C   0  0  0  0  0  0  0  0  0  0  0  0
   21.9286  -10.5921  -17.1395 C   0  0  0  0  0  0  0  0  0  0  0  0
   21.2131  -10.9127  -16.1419 O   0  0  0  0  0  0  0  0  0  0  0  0
   22.3589   -9.2456  -17.2820 N   0  0  0  0  0  0  0  0  0  0  0  0
   22.0803   -8.2127  -16.3292 C   0  0  1  0  0  0  0  0  0  0  0  0
   23.3971   -7.4815  -16.0421 C   0  0  0  0  0  0  0  0  0  0  0  0
   24.4571   -8.4223  -15.6627 C   0  0  0  0  0  0  0  0  0  0  0  0
   24.3260   -9.1847  -14.5337 C   0  0  0  0  0  0  0  0  0  0  0  0
   25.3472  -10.0700  -14.1964 C   0  0  0  0  0  0  0  0  0  0  0  0
   26.4660  -10.1587  -15.0059 C   0  0  0  0  0  0  0  0  0  0  0  0
   26.5808   -9.3776  -16.1463 C   0  0  0  0  0  0  0  0  0  0  0  0
   25.5732   -8.5044  -16.4788 C   0  0  0  0  0  0  0  0  0  0  0  0
   21.0714   -7.2404  -16.7903 C   0  0  0  0  0  0  0  0  0  0  0  0
   20.9548   -6.8313  -17.9552 O   0  0  0  0  0  0  0  0  0  0  0  0
   20.1598   -6.7305  -15.8258 N   0  0  0  0  0  0  0  0  0  0  0  0
   19.1082   -5.8035  -16.1230 C   0  0  1  0  0  0  0  0  0  0  0  0
   17.7668   -6.2218  -15.5876 C   0  0  0  0  0  0  0  0  0  0  0  0
   16.5456   -4.9098  -15.6503 S   0  0  0  0  0  0  0  0  0  0  0  0
   19.4751   -4.4279  -15.7467 C   0  0  0  0  0  0  0  0  0  0  0  0
   20.0215   -4.2432  -14.6281 O   0  0  0  0  0  0  0  0  0  0  0  0
   19.2628   -3.3224  -16.5338 O   0  0  0  0  0  0  0  0  0  0  0  0
  2  1  1  0
  2  3  1  0
  3  5  1  0
  3  4  2  0
  5  6  1  0
  6 14  1  0
  6  7  1  6
  8  7  1  0
  8 13  2  0
  9  8  1  0
 10  9  2  0
 10 11  1  0
 11 12  2  0
 12 13  1  0
 14 15  2  0
 14 16  1  0
 16 17  1  0
 17 20  1  0
 17 18  1  1
 19 18  1  0
 20 22  1  0
 21 20  2  0
M  END
$$$$
