GFC.pdb
     RDKit          3D

 22 22  0  0  1  0  0  0  0  0999 V2000
   27.0336  -24.4232  -16.9178 N   0  0  0  0  0  0  0  0  0  0  0  0
   27.0436  -23.0822  -16.4211 C   0  0  0  0  0  0  0  0  0  0  0  0
   26.2559  -22.9377  -15.1662 C   0  0  0  0  0  0  0  0  0  0  0  0
   25.2820  -23.7086  -14.9070 O   0  0  0  0  0  0  0  0  0  0  0  0
   26.6001  -21.9173  -14.2394 N   0  0  0  0  0  0  0  0  0  0  0  0
   25.8342  -21.6099  -13.0684 C   0  0  1  0  0  0  0  0  0  0  0  0
   26.7658  -20.8973  -12.0810 C   0  0  0  0  0  0  0  0  0  0  0  0
   26.0913  -20.6389  -10.8039 C   0  0  0  0  0  0  0  0  0  0  0  0
   26.1817  -21.5472   -9.7841 C   0  0  0  0  0  0  0  0  0  0  0  0
   25.5317  -21.2773   -8.5821 C   0  0  0  0  0  0  0  0  0  0  0  0
   24.8126  -20.1029   -8.4460 C   0  0  0  0  0  0  0  0  0  0  0  0
   24.7325  -19.1944   -9.4910 C   0  0  0  0  0  0  0  0  0  0  0  0
   25.3738  -19.4609  -10.6767 C   0  0  0  0  0  0  0  0  0  0  0  0
   24.6613  -20.7567  -13.3371 C   0  0  0  0  0  0  0  0  0  0  0  0
   24.7005  -19.6355  -13.8655 O   0  0  0  0  0  0  0  0  0  0  0  0
   23.3842  -21.2563  -12.9619 N   0  0  0  0  0  0  0  0  0  0  0  0
   22.1548  -20.5436  -13.1465 C   0  0  1  0  0  0  0  0  0  0  0  0
   21.4682  -20.8533  -14.4480 C   0  0  0  0  0  0  0  0  0  0  0  0
   19.7856  -20.2364  -14.5183 S   0  0  0  0  0  0  0  0  0  0  0  0
   21.2670  -20.6818  -11.9798 C   0  0  0  0  0  0  0  0  0  0  0  0
   21.3255  -21.7465  -11.3111 O   0  0  0  0  0  0  0  0  0  0  0  0
   20.3725  -19.7259  -11.5644 O   0  0  0  0  0  0  0  0  0  0  0  0
  2  1  1  0
  2  3  1  0
  3  5  1  0
  3  4  2  0
  5  6  1  0
  6 14  1  0
  6  7  1  1
  8  7  1  0
  8 13  2  0
  9  8  1  0
 10  9  2  0
 10 11  1  0
 11 12  2  0
 12 13  1  0
 14 15  2  0
 14 16  1  0
 16 17  1  0
 17 20  1  0
 17 18  1  6
 19 18  1  0
 20 22  1  0
 21 20  2  0
M  END
$$$$
