GFC.pdb
     RDKit          3D

 22 22  0  0  1  0  0  0  0  0999 V2000
   23.4172  -16.7907  -16.4815 N   0  0  0  0  0  0  0  0  0  0  0  0
   22.7120  -17.5453  -15.4925 C   0  0  0  0  0  0  0  0  0  0  0  0
   21.5399  -18.2664  -16.0602 C   0  0  0  0  0  0  0  0  0  0  0  0
   20.9722  -17.8676  -17.1225 O   0  0  0  0  0  0  0  0  0  0  0  0
   21.0459  -19.4240  -15.4008 N   0  0  0  0  0  0  0  0  0  0  0  0
   19.8400  -20.1019  -15.7727 C   0  0  1  0  0  0  0  0  0  0  0  0
   20.2259  -21.5131  -16.2313 C   0  0  0  0  0  0  0  0  0  0  0  0
   20.9352  -21.4807  -17.5153 C   0  0  0  0  0  0  0  0  0  0  0  0
   20.2322  -21.3773  -18.6851 C   0  0  0  0  0  0  0  0  0  0  0  0
   20.9303  -21.3487  -19.8901 C   0  0  0  0  0  0  0  0  0  0  0  0
   22.3119  -21.4250  -19.8782 C   0  0  0  0  0  0  0  0  0  0  0  0
   23.0069  -21.5294  -18.6824 C   0  0  0  0  0  0  0  0  0  0  0  0
   22.3180  -21.5576  -17.4938 C   0  0  0  0  0  0  0  0  0  0  0  0
   18.8539  -20.1954  -14.6796 C   0  0  0  0  0  0  0  0  0  0  0  0
   19.1307  -20.2629  -13.4727 O   0  0  0  0  0  0  0  0  0  0  0  0
   17.4772  -20.2094  -15.0346 N   0  0  0  0  0  0  0  0  0  0  0  0
   16.4021  -20.2535  -14.0882 C   0  0  1  0  0  0  0  0  0  0  0  0
   15.0953  -19.7514  -14.6368 C   0  0  0  0  0  0  0  0  0  0  0  0
   13.7489  -19.8645  -13.4573 S   0  0  0  0  0  0  0  0  0  0  0  0
   16.2902  -21.5786  -13.4555 C   0  0  0  0  0  0  0  0  0  0  0  0
   15.7277  -21.6555  -12.3323 O   0  0  0  0  0  0  0  0  0  0  0  0
   16.7588  -22.7464  -14.0061 O   0  0  0  0  0  0  0  0  0  0  0  0
  2  1  1  0
  2  3  1  0
  3  5  1  0
  3  4  2  0
  5  6  1  0
  6 14  1  0
  6  7  1  1
  8  7  1  0
  8 13  2  0
  9  8  1  0
 10  9  2  0
 10 11  1  0
 11 12  2  0
 12 13  1  0
 14 15  2  0
 14 16  1  0
 16 17  1  0
 17 20  1  0
 17 18  1  6
 19 18  1  0
 20 22  1  0
 21 20  2  0
M  END
$$$$
