GFC.pdb
     RDKit          3D

 22 22  0  0  1  0  0  0  0  0999 V2000
   29.4939  -23.7623  -17.6559 N   0  0  0  0  0  0  0  0  0  0  0  0
   28.8508  -22.5384  -17.2907 C   0  0  0  0  0  0  0  0  0  0  0  0
   27.9662  -22.6963  -16.1038 C   0  0  0  0  0  0  0  0  0  0  0  0
   27.6919  -23.8426  -15.6342 O   0  0  0  0  0  0  0  0  0  0  0  0
   27.4176  -21.5418  -15.4835 N   0  0  0  0  0  0  0  0  0  0  0  0
   26.4979  -21.5852  -14.3859 C   0  0  1  0  0  0  0  0  0  0  0  0
   26.8046  -20.3879  -13.4786 C   0  0  0  0  0  0  0  0  0  0  0  0
   26.0168  -20.4411  -12.2419 C   0  0  0  0  0  0  0  0  0  0  0  0
   26.5621  -20.9700  -11.1034 C   0  0  0  0  0  0  0  0  0  0  0  0
   25.7924  -21.0084   -9.9430 C   0  0  0  0  0  0  0  0  0  0  0  0
   24.5004  -20.5137   -9.9666 C   0  0  0  0  0  0  0  0  0  0  0  0
   23.9651  -19.9815  -11.1303 C   0  0  0  0  0  0  0  0  0  0  0  0
   24.7246  -19.9437  -12.2748 C   0  0  0  0  0  0  0  0  0  0  0  0
   25.0828  -21.5361  -14.7990 C   0  0  0  0  0  0  0  0  0  0  0  0
   24.5971  -20.7090  -15.5851 O   0  0  0  0  0  0  0  0  0  0  0  0
   24.2040  -22.5124  -14.2549 N   0  0  0  0  0  0  0  0  0  0  0  0
   22.8263  -22.6505  -14.6238 C   0  0  1  0  0  0  0  0  0  0  0  0
   22.3757  -24.0798  -14.7468 C   0  0  0  0  0  0  0  0  0  0  0  0
   23.6466  -25.1628  -15.4015 S   0  0  0  0  0  0  0  0  0  0  0  0
   21.9495  -21.8424  -13.7597 C   0  0  0  0  0  0  0  0  0  0  0  0
   22.1820  -21.8294  -12.5229 O   0  0  0  0  0  0  0  0  0  0  0  0
   20.8877  -21.0956  -14.2085 O   0  0  0  0  0  0  0  0  0  0  0  0
  2  1  1  0
  2  3  1  0
  3  5  1  0
  3  4  2  0
  5  6  1  0
  6 14  1  0
  6  7  1  1
  8  7  1  0
  8 13  2  0
  9  8  1  0
 10  9  2  0
 10 11  1  0
 11 12  2  0
 12 13  1  0
 14 15  2  0
 14 16  1  0
 16 17  1  0
 17 20  1  0
 17 18  1  1
 19 18  1  0
 20 22  1  0
 21 20  2  0
M  END
$$$$
