GFC.pdb
     RDKit          3D

 22 22  0  0  1  0  0  0  0  0999 V2000
   26.9207  -16.0497  -16.1131 N   0  0  0  0  0  0  0  0  0  0  0  0
   26.5970  -16.8038  -14.9420 C   0  0  0  0  0  0  0  0  0  0  0  0
   26.9216  -18.2489  -15.0919 C   0  0  0  0  0  0  0  0  0  0  0  0
   27.3507  -18.7174  -16.1902 O   0  0  0  0  0  0  0  0  0  0  0  0
   26.7482  -19.1219  -13.9845 N   0  0  0  0  0  0  0  0  0  0  0  0
   26.9777  -20.5350  -14.0374 C   0  0  1  0  0  0  0  0  0  0  0  0
   27.7461  -20.9261  -12.7696 C   0  0  0  0  0  0  0  0  0  0  0  0
   26.9428  -20.6882  -11.5650 C   0  0  0  0  0  0  0  0  0  0  0  0
   26.7993  -19.4180  -11.0759 C   0  0  0  0  0  0  0  0  0  0  0  0
   26.0313  -19.2200   -9.9308 C   0  0  0  0  0  0  0  0  0  0  0  0
   25.4334  -20.3061   -9.3161 C   0  0  0  0  0  0  0  0  0  0  0  0
   25.5904  -21.5861   -9.8269 C   0  0  0  0  0  0  0  0  0  0  0  0
   26.3481  -21.7811  -10.9565 C   0  0  0  0  0  0  0  0  0  0  0  0
   25.7392  -21.3316  -14.1240 C   0  0  0  0  0  0  0  0  0  0  0  0
   25.6904  -22.5676  -14.2111 O   0  0  0  0  0  0  0  0  0  0  0  0
   24.5028  -20.6299  -14.1065 N   0  0  0  0  0  0  0  0  0  0  0  0
   23.2174  -21.2631  -14.1160 C   0  0  1  0  0  0  0  0  0  0  0  0
   22.8808  -21.9631  -12.8285 C   0  0  0  0  0  0  0  0  0  0  0  0
   21.8182  -20.9922  -11.7584 S   0  0  0  0  0  0  0  0  0  0  0  0
   22.1609  -20.3398  -14.5629 C   0  0  0  0  0  0  0  0  0  0  0  0
   22.4581  -19.1267  -14.7180 O   0  0  0  0  0  0  0  0  0  0  0  0
   20.8640  -20.7086  -14.8250 O   0  0  0  0  0  0  0  0  0  0  0  0
  2  1  1  0
  2  3  1  0
  3  5  1  0
  3  4  2  0
  5  6  1  0
  6 14  1  0
  6  7  1  1
  8  7  1  0
  8 13  2  0
  9  8  1  0
 10  9  2  0
 10 11  1  0
 11 12  2  0
 12 13  1  0
 14 15  2  0
 14 16  1  0
 16 17  1  0
 17 20  1  0
 17 18  1  1
 19 18  1  0
 20 22  1  0
 21 20  2  0
M  END
$$$$
