GFC.pdb
     RDKit          3D

 22 22  0  0  1  0  0  0  0  0999 V2000
   24.7962  -25.4739  -14.8365 N   0  0  0  0  0  0  0  0  0  0  0  0
   25.1272  -24.1110  -15.1155 C   0  0  0  0  0  0  0  0  0  0  0  0
   24.0732  -23.1667  -14.6534 C   0  0  0  0  0  0  0  0  0  0  0  0
   22.9617  -23.5865  -14.2082 O   0  0  0  0  0  0  0  0  0  0  0  0
   24.3150  -21.7679  -14.7114 N   0  0  0  0  0  0  0  0  0  0  0  0
   23.3313  -20.7735  -14.4018 C   0  0  1  0  0  0  0  0  0  0  0  0
   24.0243  -19.6767  -13.5848 C   0  0  0  0  0  0  0  0  0  0  0  0
   24.4045  -20.1634  -12.2539 C   0  0  0  0  0  0  0  0  0  0  0  0
   23.4881  -20.1676  -11.2373 C   0  0  0  0  0  0  0  0  0  0  0  0
   23.8753  -20.6351   -9.9835 C   0  0  0  0  0  0  0  0  0  0  0  0
   25.1710  -21.0825   -9.7943 C   0  0  0  0  0  0  0  0  0  0  0  0
   26.0856  -21.0705  -10.8370 C   0  0  0  0  0  0  0  0  0  0  0  0
   25.7034  -20.6094  -12.0737 C   0  0  0  0  0  0  0  0  0  0  0  0
   22.7034  -20.1727  -15.5937 C   0  0  0  0  0  0  0  0  0  0  0  0
   23.3173  -19.6786  -16.5512 O   0  0  0  0  0  0  0  0  0  0  0  0
   21.2829  -20.1575  -15.6522 N   0  0  0  0  0  0  0  0  0  0  0  0
   20.5279  -19.6287  -16.7494 C   0  0  1  0  0  0  0  0  0  0  0  0
   19.2139  -20.3263  -16.9685 C   0  0  0  0  0  0  0  0  0  0  0  0
   18.2458  -19.6002  -18.2923 S   0  0  0  0  0  0  0  0  0  0  0  0
   20.3952  -18.1648  -16.6613 C   0  0  0  0  0  0  0  0  0  0  0  0
   20.0376  -17.6653  -15.5628 O   0  0  0  0  0  0  0  0  0  0  0  0
   20.6352  -17.2973  -17.6988 O   0  0  0  0  0  0  0  0  0  0  0  0
  2  1  1  0
  2  3  1  0
  3  5  1  0
  3  4  2  0
  5  6  1  0
  6 14  1  0
  6  7  1  6
  8  7  1  0
  8 13  2  0
  9  8  1  0
 10  9  2  0
 10 11  1  0
 11 12  2  0
 12 13  1  0
 14 15  2  0
 14 16  1  0
 16 17  1  0
 17 20  1  0
 17 18  1  1
 19 18  1  0
 20 22  1  0
 21 20  2  0
M  END
$$$$
