GFC.pdb
     RDKit          3D

 22 22  0  0  1  0  0  0  0  0999 V2000
   21.7827  -11.6828  -17.9580 N   0  0  0  0  0  0  0  0  0  0  0  0
   20.9062  -10.6463  -18.4077 C   0  0  0  0  0  0  0  0  0  0  0  0
   20.6059   -9.6555  -17.3380 C   0  0  0  0  0  0  0  0  0  0  0  0
   19.7764   -9.9149  -16.4136 O   0  0  0  0  0  0  0  0  0  0  0  0
   21.2600   -8.3943  -17.3509 N   0  0  0  0  0  0  0  0  0  0  0  0
   20.9863   -7.3427  -16.4174 C   0  0  1  0  0  0  0  0  0  0  0  0
   22.3083   -6.9780  -15.7317 C   0  0  0  0  0  0  0  0  0  0  0  0
   22.8349   -8.1062  -14.9555 C   0  0  0  0  0  0  0  0  0  0  0  0
   23.9324   -8.7923  -15.4005 C   0  0  0  0  0  0  0  0  0  0  0  0
   24.4118   -9.8594  -14.6444 C   0  0  0  0  0  0  0  0  0  0  0  0
   23.7713  -10.2007  -13.4661 C   0  0  0  0  0  0  0  0  0  0  0  0
   22.6602   -9.4933  -13.0315 C   0  0  0  0  0  0  0  0  0  0  0  0
   22.1875   -8.4407  -13.7776 C   0  0  0  0  0  0  0  0  0  0  0  0
   20.4088   -6.1363  -17.0394 C   0  0  0  0  0  0  0  0  0  0  0  0
   20.8290   -5.5958  -18.0734 O   0  0  0  0  0  0  0  0  0  0  0  0
   19.2819   -5.5444  -16.4060 N   0  0  0  0  0  0  0  0  0  0  0  0
   18.5564   -4.4270  -16.9336 C   0  0  1  0  0  0  0  0  0  0  0  0
   17.0682   -4.6385  -16.9721 C   0  0  0  0  0  0  0  0  0  0  0  0
   16.5988   -6.1855  -17.7488 S   0  0  0  0  0  0  0  0  0  0  0  0
   18.9425   -3.1687  -16.2732 C   0  0  0  0  0  0  0  0  0  0  0  0
   18.4532   -2.0941  -16.7089 O   0  0  0  0  0  0  0  0  0  0  0  0
   19.8047   -3.0813  -15.2076 O   0  0  0  0  0  0  0  0  0  0  0  0
  2  1  1  0
  2  3  1  0
  3  5  1  0
  3  4  2  0
  5  6  1  0
  6 14  1  0
  6  7  1  6
  8  7  1  0
  8 13  2  0
  9  8  1  0
 10  9  2  0
 10 11  1  0
 11 12  2  0
 12 13  1  0
 14 15  2  0
 14 16  1  0
 16 17  1  0
 17 20  1  0
 17 18  1  1
 19 18  1  0
 20 22  1  0
 21 20  2  0
M  END
$$$$
