GFC.pdb
     RDKit          3D

 22 22  0  0  1  0  0  0  0  0999 V2000
   28.7098  -19.0169  -14.8539 N   0  0  0  0  0  0  0  0  0  0  0  0
   28.5881  -20.3938  -15.2203 C   0  0  0  0  0  0  0  0  0  0  0  0
   27.7427  -21.1610  -14.2649 C   0  0  0  0  0  0  0  0  0  0  0  0
   27.1637  -22.2350  -14.6130 O   0  0  0  0  0  0  0  0  0  0  0  0
   27.5799  -20.6827  -12.9370 N   0  0  0  0  0  0  0  0  0  0  0  0
   26.7406  -21.3089  -11.9594 C   0  0  1  0  0  0  0  0  0  0  0  0
   27.6174  -21.6522  -10.7494 C   0  0  0  0  0  0  0  0  0  0  0  0
   27.0548  -21.1027   -9.5107 C   0  0  0  0  0  0  0  0  0  0  0  0
   25.7227  -21.2546   -9.2356 C   0  0  0  0  0  0  0  0  0  0  0  0
   25.2144  -20.7232   -8.0527 C   0  0  0  0  0  0  0  0  0  0  0  0
   26.0628  -20.0568   -7.1861 C   0  0  0  0  0  0  0  0  0  0  0  0
   27.4102  -19.9129   -7.4823 C   0  0  0  0  0  0  0  0  0  0  0  0
   27.9114  -20.4372   -8.6494 C   0  0  0  0  0  0  0  0  0  0  0  0
   25.6123  -20.4653  -11.5222 C   0  0  0  0  0  0  0  0  0  0  0  0
   25.7128  -19.3076  -11.0891 O   0  0  0  0  0  0  0  0  0  0  0  0
   24.3058  -21.0201  -11.6027 N   0  0  0  0  0  0  0  0  0  0  0  0
   23.2152  -20.4133  -12.3069 C   0  0  1  0  0  0  0  0  0  0  0  0
   23.5475  -20.0382  -13.7246 C   0  0  0  0  0  0  0  0  0  0  0  0
   22.3007  -18.9978  -14.4862 S   0  0  0  0  0  0  0  0  0  0  0  0
   21.9848  -21.2148  -12.1963 C   0  0  0  0  0  0  0  0  0  0  0  0
   22.0085  -22.4012  -12.6157 O   0  0  0  0  0  0  0  0  0  0  0  0
   20.8034  -20.7586  -11.6646 O   0  0  0  0  0  0  0  0  0  0  0  0
  2  1  1  0
  2  3  1  0
  3  5  1  0
  3  4  2  0
  5  6  1  0
  6 14  1  0
  6  7  1  1
  8  7  1  0
  8 13  2  0
  9  8  1  0
 10  9  2  0
 10 11  1  0
 11 12  2  0
 12 13  1  0
 14 15  2  0
 14 16  1  0
 16 17  1  0
 17 20  1  0
 17 18  1  6
 19 18  1  0
 20 22  1  0
 21 20  2  0
M  END
$$$$
