MIE.pdb
     RDKit          3D

 26 25  0  0  1  0  0  0  0  0999 V2000
    7.8574  -11.2298   19.4587 C   0  0  0  0  0  0  0  0  0  0  0  0
    7.3445  -12.5592   18.3470 S   0  0  0  0  0  0  0  0  0  0  0  0
    7.2227  -14.0890   19.2924 C   0  0  0  0  0  0  0  0  0  0  0  0
    7.8986  -13.8998   20.6148 C   0  0  0  0  0  0  0  0  0  0  0  0
    7.8760  -15.2032   21.3851 C   0  0  2  0  0  0  0  0  0  0  0  0
    6.5253  -15.6575   21.5899 N   0  0  0  0  0  0  0  0  0  0  0  0
    8.5349  -15.0579   22.6985 C   0  0  0  0  0  0  0  0  0  0  0  0
    9.8023  -14.9660   22.6873 O   0  0  0  0  0  0  0  0  0  0  0  0
    5.9840  -12.0395   26.2851 C   0  0  0  0  0  0  0  0  0  0  0  0
    7.0689  -12.7019   25.4349 C   0  0  0  0  0  0  0  0  0  0  0  0
    7.5365  -13.9796   26.0629 C   0  0  2  0  0  0  0  0  0  0  0  0
    8.2888  -13.5688   27.3372 C   0  0  0  0  0  0  0  0  0  0  0  0
    8.4200  -14.7838   25.1815 C   0  0  2  0  0  0  0  0  0  0  0  0
    7.7814  -15.0255   23.8806 N   0  0  0  0  0  0  0  0  0  0  0  0
    8.7695  -16.0976   25.8002 C   0  0  0  0  0  0  0  0  0  0  0  0
    7.9210  -16.9655   26.1013 O   0  0  0  0  0  0  0  0  0  0  0  0
   10.1269  -16.4347   26.0856 N   0  0  0  0  0  0  0  0  0  0  0  0
   10.5389  -17.7591   26.5068 C   0  0  1  0  0  0  0  0  0  0  0  0
   11.5682  -18.3338   25.6089 C   0  0  0  0  0  0  0  0  0  0  0  0
   12.1730  -19.6315   25.9277 C   0  0  0  0  0  0  0  0  0  0  0  0
   13.1847  -20.1760   25.0246 C   0  0  0  0  0  0  0  0  0  0  0  0
   13.1402  -21.2776   24.4573 O   0  0  0  0  0  0  0  0  0  0  0  0
   10.7533  -17.7853   27.9381 C   0  0  0  0  0  0  0  0  0  0  0  0
   10.8157  -18.9728   28.6576 O   0  0  0  0  0  0  0  0  0  0  0  0
   14.3273  -19.4069   24.7510 O   0  0  0  0  0  0  0  0  0  0  0  0
   10.8869  -16.7225   28.5884 O   0  0  0  0  0  0  0  0  0  0  0  0
  2  1  1  0
  3  2  1  0
  3  4  1  0
  4  5  1  0
  5  6  1  1
  7  5  1  0
  7  8  2  0
 10  9  1  0
 11 10  1  0
 11 13  1  0
 11 12  1  1
 13 14  1  6
 14  7  1  0
 15 13  1  0
 16 15  2  0
 17 15  1  0
 18 19  1  6
 18 17  1  0
 19 20  1  0
 21 20  1  0
 21 22  2  0
 23 18  1  0
 24 23  1  0
 25 21  1  0
 26 23  2  0
M  END
$$$$
