MIE.pdb
     RDKit          3D

 26 25  0  0  1  0  0  0  0  0999 V2000
   11.0287  -15.8414   28.5348 C   0  0  0  0  0  0  0  0  0  0  0  0
    9.4018  -16.1750   29.2474 S   0  0  0  0  0  0  0  0  0  0  0  0
    9.0045  -17.9147   28.9928 C   0  0  0  0  0  0  0  0  0  0  0  0
    8.8082  -18.1605   27.5292 C   0  0  0  0  0  0  0  0  0  0  0  0
    7.3764  -17.8444   27.1512 C   0  0  2  0  0  0  0  0  0  0  0  0
    6.6460  -19.0472   26.8471 N   0  0  0  0  0  0  0  0  0  0  0  0
    7.3199  -16.9435   25.9826 C   0  0  0  0  0  0  0  0  0  0  0  0
    7.2356  -17.5007   24.8436 O   0  0  0  0  0  0  0  0  0  0  0  0
    5.8387  -11.7106   26.6699 C   0  0  0  0  0  0  0  0  0  0  0  0
    5.9191  -12.9967   25.8463 C   0  0  0  0  0  0  0  0  0  0  0  0
    7.3197  -13.2448   25.3751 C   0  0  2  0  0  0  0  0  0  0  0  0
    7.5210  -12.3277   24.1598 C   0  0  0  0  0  0  0  0  0  0  0  0
    7.5765  -14.6582   25.0001 C   0  0  2  0  0  0  0  0  0  0  0  0
    7.3586  -15.5515   26.1462 N   0  0  0  0  0  0  0  0  0  0  0  0
    8.9685  -14.8513   24.4944 C   0  0  0  0  0  0  0  0  0  0  0  0
    9.9886  -14.5317   25.1433 O   0  0  0  0  0  0  0  0  0  0  0  0
    9.2079  -15.4259   23.2097 N   0  0  0  0  0  0  0  0  0  0  0  0
   10.4945  -15.9630   22.8133 C   0  0  1  0  0  0  0  0  0  0  0  0
   11.0736  -16.8459   23.8532 C   0  0  0  0  0  0  0  0  0  0  0  0
   12.3599  -17.5090   23.6145 C   0  0  0  0  0  0  0  0  0  0  0  0
   12.9030  -18.3830   24.6522 C   0  0  0  0  0  0  0  0  0  0  0  0
   12.3410  -18.6939   25.7128 O   0  0  0  0  0  0  0  0  0  0  0  0
   10.4442  -16.4229   21.4416 C   0  0  0  0  0  0  0  0  0  0  0  0
    9.2441  -16.6440   20.7766 O   0  0  0  0  0  0  0  0  0  0  0  0
   14.1781  -18.9403   24.4640 O   0  0  0  0  0  0  0  0  0  0  0  0
   11.4965  -16.6458   20.7987 O   0  0  0  0  0  0  0  0  0  0  0  0
  2  1  1  0
  3  2  1  0
  3  4  1  0
  4  5  1  0
  5  6  1  6
  7  5  1  0
  7  8  2  0
 10  9  1  0
 11 10  1  0
 11 13  1  0
 11 12  1  6
 13 14  1  1
 14  7  1  0
 15 13  1  0
 16 15  2  0
 17 15  1  0
 18 19  1  1
 18 17  1  0
 19 20  1  0
 21 20  1  0
 21 22  2  0
 23 18  1  0
 24 23  1  0
 25 21  1  0
 26 23  2  0
M  END
$$$$
