MIE.pdb
     RDKit          3D

 26 25  0  0  1  0  0  0  0  0999 V2000
    7.3167  -12.3095   19.5259 C   0  0  0  0  0  0  0  0  0  0  0  0
    5.9963  -13.5421   19.4683 S   0  0  0  0  0  0  0  0  0  0  0  0
    6.7351  -15.1848   19.5377 C   0  0  0  0  0  0  0  0  0  0  0  0
    7.2206  -15.4423   20.9303 C   0  0  0  0  0  0  0  0  0  0  0  0
    8.2496  -14.3976   21.3080 C   0  0  2  0  0  0  0  0  0  0  0  0
    9.3978  -14.4685   20.4424 N   0  0  0  0  0  0  0  0  0  0  0  0
    8.6945  -14.5683   22.7057 C   0  0  0  0  0  0  0  0  0  0  0  0
    9.8658  -15.0320   22.8727 O   0  0  0  0  0  0  0  0  0  0  0  0
    5.8856  -11.6759   26.4806 C   0  0  0  0  0  0  0  0  0  0  0  0
    7.1234  -12.2048   25.7548 C   0  0  0  0  0  0  0  0  0  0  0  0
    7.3627  -13.6469   26.0844 C   0  0  2  0  0  0  0  0  0  0  0  0
    7.9072  -13.6632   27.5203 C   0  0  0  0  0  0  0  0  0  0  0  0
    8.3188  -14.3136   25.1648 C   0  0  2  0  0  0  0  0  0  0  0  0
    7.8520  -14.2299   23.7742 N   0  0  0  0  0  0  0  0  0  0  0  0
    8.5185  -15.7500   25.5222 C   0  0  0  0  0  0  0  0  0  0  0  0
    7.6058  -16.6040   25.4823 O   0  0  0  0  0  0  0  0  0  0  0  0
    9.7968  -16.2302   25.9383 N   0  0  0  0  0  0  0  0  0  0  0  0
   10.0654  -17.6296   26.2041 C   0  0  1  0  0  0  0  0  0  0  0  0
   11.1353  -18.1668   25.3307 C   0  0  0  0  0  0  0  0  0  0  0  0
   11.6236  -19.5352   25.5316 C   0  0  0  0  0  0  0  0  0  0  0  0
   13.0653  -19.7741   25.5296 C   0  0  0  0  0  0  0  0  0  0  0  0
   13.9408  -18.9549   25.2135 O   0  0  0  0  0  0  0  0  0  0  0  0
   10.1311  -17.8648   27.6309 C   0  0  0  0  0  0  0  0  0  0  0  0
    9.8139  -19.0944   28.1958 O   0  0  0  0  0  0  0  0  0  0  0  0
   13.5391  -21.0383   25.9161 O   0  0  0  0  0  0  0  0  0  0  0  0
   10.4765  -16.9531   28.4181 O   0  0  0  0  0  0  0  0  0  0  0  0
  2  1  1  0
  3  2  1  0
  3  4  1  0
  4  5  1  0
  5  6  1  6
  7  5  1  0
  7  8  2  0
 10  9  1  0
 11 10  1  0
 11 13  1  0
 11 12  1  1
 13 14  1  6
 14  7  1  0
 15 13  1  0
 16 15  2  0
 17 15  1  0
 18 19  1  6
 18 17  1  0
 19 20  1  0
 21 20  1  0
 21 22  2  0
 23 18  1  0
 24 23  1  0
 25 21  1  0
 26 23  2  0
M  END
$$$$
