MIE.pdb
     RDKit          3D

 26 25  0  0  1  0  0  0  0  0999 V2000
    8.0329  -12.4330   28.2134 C   0  0  0  0  0  0  0  0  0  0  0  0
    6.3543  -12.1571   27.6032 S   0  0  0  0  0  0  0  0  0  0  0  0
    5.7672  -13.6711   26.8208 C   0  0  0  0  0  0  0  0  0  0  0  0
    6.8108  -14.1630   25.8668 C   0  0  0  0  0  0  0  0  0  0  0  0
    6.2721  -15.3501   25.0964 C   0  0  2  0  0  0  0  0  0  0  0  0
    5.9583  -16.4404   25.9827 N   0  0  0  0  0  0  0  0  0  0  0  0
    7.2454  -15.8186   24.0896 C   0  0  0  0  0  0  0  0  0  0  0  0
    7.8608  -16.8974   24.3585 O   0  0  0  0  0  0  0  0  0  0  0  0
    8.5837  -12.4995   19.5662 C   0  0  0  0  0  0  0  0  0  0  0  0
    8.7029  -13.2706   20.8815 C   0  0  0  0  0  0  0  0  0  0  0  0
    8.3745  -14.7194   20.6852 C   0  0  2  0  0  0  0  0  0  0  0  0
    6.9386  -14.7530   20.1415 C   0  0  0  0  0  0  0  0  0  0  0  0
    8.4713  -15.5223   21.9302 C   0  0  2  0  0  0  0  0  0  0  0  0
    7.4615  -15.0949   22.9083 N   0  0  0  0  0  0  0  0  0  0  0  0
    9.8243  -15.4141   22.5535 C   0  0  0  0  0  0  0  0  0  0  0  0
   10.0241  -14.9278   23.6882 O   0  0  0  0  0  0  0  0  0  0  0  0
   10.9870  -15.8733   21.8641 N   0  0  0  0  0  0  0  0  0  0  0  0
   12.1096  -16.4948   22.5383 C   0  0  1  0  0  0  0  0  0  0  0  0
   11.6720  -17.4743   23.5607 C   0  0  0  0  0  0  0  0  0  0  0  0
   11.8370  -17.1658   24.9852 C   0  0  0  0  0  0  0  0  0  0  0  0
   11.4681  -18.1797   25.9709 C   0  0  0  0  0  0  0  0  0  0  0  0
   11.1473  -19.3523   25.7273 O   0  0  0  0  0  0  0  0  0  0  0  0
   13.1211  -16.8790   21.5768 C   0  0  0  0  0  0  0  0  0  0  0  0
   14.4669  -16.9699   21.9116 O   0  0  0  0  0  0  0  0  0  0  0  0
   11.4659  -17.8280   27.3304 O   0  0  0  0  0  0  0  0  0  0  0  0
   12.8145  -17.1418   20.3905 O   0  0  0  0  0  0  0  0  0  0  0  0
  2  1  1  0
  3  2  1  0
  3  4  1  0
  4  5  1  0
  5  6  1  1
  7  5  1  0
  7  8  2  0
 10  9  1  0
 11 10  1  0
 11 13  1  0
 11 12  1  1
 13 14  1  1
 14  7  1  0
 15 13  1  0
 16 15  2  0
 17 15  1  0
 18 19  1  6
 18 17  1  0
 19 20  1  0
 21 20  1  0
 21 22  2  0
 23 18  1  0
 24 23  1  0
 25 21  1  0
 26 23  2  0
M  END
$$$$
