MIE.pdb
     RDKit          3D

 26 25  0  0  1  0  0  0  0  0999 V2000
    4.6034  -18.4441   22.3583 C   0  0  0  0  0  0  0  0  0  0  0  0
    5.7831  -18.5580   20.9939 S   0  0  0  0  0  0  0  0  0  0  0  0
    6.9297  -17.1714   21.1035 C   0  0  0  0  0  0  0  0  0  0  0  0
    6.1474  -15.8986   21.1983 C   0  0  0  0  0  0  0  0  0  0  0  0
    7.1000  -14.7230   21.2563 C   0  0  2  0  0  0  0  0  0  0  0  0
    8.0436  -14.7701   20.1700 N   0  0  0  0  0  0  0  0  0  0  0  0
    7.8425  -14.7008   22.5326 C   0  0  0  0  0  0  0  0  0  0  0  0
    9.0564  -15.0738   22.4861 O   0  0  0  0  0  0  0  0  0  0  0  0
    5.9634  -11.4535   26.6464 C   0  0  0  0  0  0  0  0  0  0  0  0
    6.9347  -12.1068   25.6623 C   0  0  0  0  0  0  0  0  0  0  0  0
    7.1923  -13.5358   26.0322 C   0  0  2  0  0  0  0  0  0  0  0  0
    7.9919  -13.4913   27.3427 C   0  0  0  0  0  0  0  0  0  0  0  0
    7.9442  -14.2891   24.9970 C   0  0  2  0  0  0  0  0  0  0  0  0
    7.2200  -14.2864   23.7186 N   0  0  0  0  0  0  0  0  0  0  0  0
    8.1887  -15.7031   25.4114 C   0  0  0  0  0  0  0  0  0  0  0  0
    7.5078  -16.6691   25.0026 O   0  0  0  0  0  0  0  0  0  0  0  0
    9.2409  -16.0286   26.3195 N   0  0  0  0  0  0  0  0  0  0  0  0
    9.9947  -17.2643   26.2430 C   0  0  1  0  0  0  0  0  0  0  0  0
   10.4986  -17.5251   24.8740 C   0  0  0  0  0  0  0  0  0  0  0  0
   11.3290  -18.7060   24.6142 C   0  0  0  0  0  0  0  0  0  0  0  0
   12.3117  -18.6500   23.5341 C   0  0  0  0  0  0  0  0  0  0  0  0
   13.5292  -18.4543   23.6640 O   0  0  0  0  0  0  0  0  0  0  0  0
   10.9048  -17.3661   27.3640 C   0  0  0  0  0  0  0  0  0  0  0  0
   11.2827  -18.5895   27.9045 O   0  0  0  0  0  0  0  0  0  0  0  0
   11.8715  -18.8302   22.2129 O   0  0  0  0  0  0  0  0  0  0  0  0
   11.3865  -16.3394   27.8971 O   0  0  0  0  0  0  0  0  0  0  0  0
  2  1  1  0
  3  2  1  0
  3  4  1  0
  4  5  1  0
  5  6  1  6
  7  5  1  0
  7  8  2  0
 10  9  1  0
 11 10  1  0
 11 13  1  0
 11 12  1  1
 13 14  1  6
 14  7  1  0
 15 13  1  0
 16 15  2  0
 17 15  1  0
 18 19  1  6
 18 17  1  0
 19 20  1  0
 21 20  1  0
 21 22  2  0
 23 18  1  0
 24 23  1  0
 25 21  1  0
 26 23  2  0
M  END
$$$$
