MIE.pdb
     RDKit          3D

 26 25  0  0  1  0  0  0  0  0999 V2000
    4.3518  -20.0485   22.1802 C   0  0  0  0  0  0  0  0  0  0  0  0
    5.9750  -19.3893   21.7367 S   0  0  0  0  0  0  0  0  0  0  0  0
    5.8961  -17.5888   21.7674 C   0  0  0  0  0  0  0  0  0  0  0  0
    7.2686  -17.0369   21.5380 C   0  0  0  0  0  0  0  0  0  0  0  0
    7.2321  -15.5274   21.6527 C   0  0  2  0  0  0  0  0  0  0  0  0
    7.7434  -14.9072   20.4582 N   0  0  0  0  0  0  0  0  0  0  0  0
    8.0236  -15.0612   22.8087 C   0  0  0  0  0  0  0  0  0  0  0  0
    9.2665  -14.8875   22.6089 O   0  0  0  0  0  0  0  0  0  0  0  0
    5.7937  -11.6540   26.3656 C   0  0  0  0  0  0  0  0  0  0  0  0
    6.8549  -12.3159   25.4856 C   0  0  0  0  0  0  0  0  0  0  0  0
    7.3809  -13.5638   26.1270 C   0  0  2  0  0  0  0  0  0  0  0  0
    8.2252  -13.0963   27.3217 C   0  0  0  0  0  0  0  0  0  0  0  0
    8.2014  -14.3984   25.2135 C   0  0  2  0  0  0  0  0  0  0  0  0
    7.4143  -14.8295   24.0501 N   0  0  0  0  0  0  0  0  0  0  0  0
    8.7427  -15.6063   25.9055 C   0  0  0  0  0  0  0  0  0  0  0  0
    8.0354  -16.5779   26.2515 O   0  0  0  0  0  0  0  0  0  0  0  0
   10.1324  -15.7123   26.2139 N   0  0  0  0  0  0  0  0  0  0  0  0
   10.7719  -16.9689   26.5505 C   0  0  1  0  0  0  0  0  0  0  0  0
   11.9813  -17.2152   25.7302 C   0  0  0  0  0  0  0  0  0  0  0  0
   11.9735  -18.2773   24.7185 C   0  0  0  0  0  0  0  0  0  0  0  0
   13.1728  -18.4861   23.9099 C   0  0  0  0  0  0  0  0  0  0  0  0
   14.2308  -17.8452   23.9940 O   0  0  0  0  0  0  0  0  0  0  0  0
   10.8477  -17.1232   27.9878 C   0  0  0  0  0  0  0  0  0  0  0  0
   10.4518  -16.1195   28.8638 O   0  0  0  0  0  0  0  0  0  0  0  0
   13.1612  -19.4987   22.9370 O   0  0  0  0  0  0  0  0  0  0  0  0
   11.2839  -18.1807   28.4993 O   0  0  0  0  0  0  0  0  0  0  0  0
  2  1  1  0
  3  2  1  0
  3  4  1  0
  4  5  1  0
  5  6  1  6
  7  5  1  0
  7  8  2  0
 10  9  1  0
 11 10  1  0
 11 13  1  0
 11 12  1  1
 13 14  1  6
 14  7  1  0
 15 13  1  0
 16 15  2  0
 17 15  1  0
 18 19  1  1
 18 17  1  0
 19 20  1  0
 21 20  1  0
 21 22  2  0
 23 18  1  0
 24 23  1  0
 25 21  1  0
 26 23  2  0
M  END
$$$$
