MIE.pdb
     RDKit          3D

 26 25  0  0  1  0  0  0  0  0999 V2000
    6.7764  -20.8998   26.1225 C   0  0  0  0  0  0  0  0  0  0  0  0
    6.0550  -21.3389   24.5247 S   0  0  0  0  0  0  0  0  0  0  0  0
    5.4442  -19.8385   23.7340 C   0  0  0  0  0  0  0  0  0  0  0  0
    6.2811  -18.6790   24.1771 C   0  0  0  0  0  0  0  0  0  0  0  0
    5.7438  -17.4038   23.5622 C   0  0  2  0  0  0  0  0  0  0  0  0
    5.5835  -17.5457   22.1385 N   0  0  0  0  0  0  0  0  0  0  0  0
    6.6423  -16.2630   23.8298 C   0  0  0  0  0  0  0  0  0  0  0  0
    7.3720  -15.8800   22.8625 O   0  0  0  0  0  0  0  0  0  0  0  0
    5.8344  -11.7491   25.2909 C   0  0  0  0  0  0  0  0  0  0  0  0
    5.6404  -13.0254   26.1108 C   0  0  0  0  0  0  0  0  0  0  0  0
    6.9592  -13.6525   26.4467 C   0  0  2  0  0  0  0  0  0  0  0  0
    7.9063  -12.4876   26.7702 C   0  0  0  0  0  0  0  0  0  0  0  0
    7.5187  -14.4792   25.3476 C   0  0  2  0  0  0  0  0  0  0  0  0
    6.6710  -15.6517   25.0913 N   0  0  0  0  0  0  0  0  0  0  0  0
    8.9047  -14.9427   25.6557 C   0  0  0  0  0  0  0  0  0  0  0  0
    9.5403  -14.5884   26.6728 O   0  0  0  0  0  0  0  0  0  0  0  0
    9.5895  -15.8373   24.7791 N   0  0  0  0  0  0  0  0  0  0  0  0
   10.7820  -16.5640   25.1679 C   0  0  1  0  0  0  0  0  0  0  0  0
   10.5941  -17.3028   26.4387 C   0  0  0  0  0  0  0  0  0  0  0  0
   11.6275  -18.2355   26.9008 C   0  0  0  0  0  0  0  0  0  0  0  0
   11.4124  -18.9587   28.1523 C   0  0  0  0  0  0  0  0  0  0  0  0
   10.3932  -18.9118   28.8569 O   0  0  0  0  0  0  0  0  0  0  0  0
   11.3442  -17.2521   24.0252 C   0  0  0  0  0  0  0  0  0  0  0  0
   12.6775  -17.6409   23.9752 O   0  0  0  0  0  0  0  0  0  0  0  0
   12.4343  -19.7940   28.6318 O   0  0  0  0  0  0  0  0  0  0  0  0
   10.6389  -17.5204   23.0247 O   0  0  0  0  0  0  0  0  0  0  0  0
  2  1  1  0
  3  2  1  0
  3  4  1  0
  4  5  1  0
  5  6  1  6
  7  5  1  0
  7  8  2  0
 10  9  1  0
 11 10  1  0
 11 13  1  0
 11 12  1  6
 13 14  1  1
 14  7  1  0
 15 13  1  0
 16 15  2  0
 17 15  1  0
 18 19  1  1
 18 17  1  0
 19 20  1  0
 21 20  1  0
 21 22  2  0
 23 18  1  0
 24 23  1  0
 25 21  1  0
 26 23  2  0
M  END
$$$$
