MIE.pdb
     RDKit          3D

 26 25  0  0  1  0  0  0  0  0999 V2000
    5.1696  -20.2918   24.2140 C   0  0  0  0  0  0  0  0  0  0  0  0
    4.2555  -20.0776   22.6697 S   0  0  0  0  0  0  0  0  0  0  0  0
    4.6412  -18.4533   21.9899 C   0  0  0  0  0  0  0  0  0  0  0  0
    5.7601  -17.8480   22.7790 C   0  0  0  0  0  0  0  0  0  0  0  0
    5.9823  -16.4199   22.3273 C   0  0  2  0  0  0  0  0  0  0  0  0
    6.3561  -16.3709   20.9379 N   0  0  0  0  0  0  0  0  0  0  0  0
    7.0359  -15.7651   23.1283 C   0  0  0  0  0  0  0  0  0  0  0  0
    8.2183  -15.8303   22.6672 O   0  0  0  0  0  0  0  0  0  0  0  0
    5.7334  -11.7971   26.7270 C   0  0  0  0  0  0  0  0  0  0  0  0
    6.6176  -12.4992   25.6954 C   0  0  0  0  0  0  0  0  0  0  0  0
    7.2325  -13.7384   26.2711 C   0  0  2  0  0  0  0  0  0  0  0  0
    8.3526  -13.2552   27.2041 C   0  0  0  0  0  0  0  0  0  0  0  0
    7.7811  -14.6593   25.2438 C   0  0  2  0  0  0  0  0  0  0  0  0
    6.7240  -15.1126   24.3295 N   0  0  0  0  0  0  0  0  0  0  0  0
    8.4300  -15.8537   25.8628 C   0  0  0  0  0  0  0  0  0  0  0  0
    7.8160  -16.6847   26.5674 O   0  0  0  0  0  0  0  0  0  0  0  0
    9.8215  -16.1110   25.6746 N   0  0  0  0  0  0  0  0  0  0  0  0
   10.4459  -17.3699   26.0301 C   0  0  1  0  0  0  0  0  0  0  0  0
   11.5284  -17.7399   25.0881 C   0  0  0  0  0  0  0  0  0  0  0  0
   12.7902  -16.9920   25.0956 C   0  0  0  0  0  0  0  0  0  0  0  0
   13.7925  -17.2949   24.0761 C   0  0  0  0  0  0  0  0  0  0  0  0
   14.8786  -16.7161   23.9253 O   0  0  0  0  0  0  0  0  0  0  0  0
   10.6993  -17.4187   27.4545 C   0  0  0  0  0  0  0  0  0  0  0  0
   10.5149  -16.3155   28.2794 O   0  0  0  0  0  0  0  0  0  0  0  0
   13.5348  -18.3322   23.1654 O   0  0  0  0  0  0  0  0  0  0  0  0
   11.1044  -18.4715   28.0002 O   0  0  0  0  0  0  0  0  0  0  0  0
  2  1  1  0
  3  2  1  0
  3  4  1  0
  4  5  1  0
  5  6  1  6
  7  5  1  0
  7  8  2  0
 10  9  1  0
 11 10  1  0
 11 13  1  0
 11 12  1  1
 13 14  1  6
 14  7  1  0
 15 13  1  0
 16 15  2  0
 17 15  1  0
 18 19  1  6
 18 17  1  0
 19 20  1  0
 21 20  1  0
 21 22  2  0
 23 18  1  0
 24 23  1  0
 25 21  1  0
 26 23  2  0
M  END
$$$$
