MIE.pdb
     RDKit          3D

 26 25  0  0  1  0  0  0  0  0999 V2000
    6.9459  -19.4553   20.7601 C   0  0  0  0  0  0  0  0  0  0  0  0
    5.7034  -18.5223   19.8373 S   0  0  0  0  0  0  0  0  0  0  0  0
    6.1518  -16.7767   19.8657 C   0  0  0  0  0  0  0  0  0  0  0  0
    6.8468  -16.4731   21.1564 C   0  0  0  0  0  0  0  0  0  0  0  0
    7.1001  -14.9835   21.2558 C   0  0  2  0  0  0  0  0  0  0  0  0
    7.8129  -14.5037   20.1006 N   0  0  0  0  0  0  0  0  0  0  0  0
    7.8781  -14.6546   22.4670 C   0  0  0  0  0  0  0  0  0  0  0  0
    9.1418  -14.7456   22.3684 O   0  0  0  0  0  0  0  0  0  0  0  0
    5.7048  -11.3475   26.2896 C   0  0  0  0  0  0  0  0  0  0  0  0
    6.7838  -11.9541   25.3915 C   0  0  0  0  0  0  0  0  0  0  0  0
    7.1942  -13.3077   25.8860 C   0  0  2  0  0  0  0  0  0  0  0  0
    8.0232  -13.0565   27.1542 C   0  0  0  0  0  0  0  0  0  0  0  0
    7.9872  -14.0832   24.8991 C   0  0  2  0  0  0  0  0  0  0  0  0
    7.2347  -14.2653   23.6504 N   0  0  0  0  0  0  0  0  0  0  0  0
    8.3724  -15.4244   25.4316 C   0  0  0  0  0  0  0  0  0  0  0  0
    7.5545  -16.3504   25.6254 O   0  0  0  0  0  0  0  0  0  0  0  0
    9.7308  -15.7219   25.7540 N   0  0  0  0  0  0  0  0  0  0  0  0
   10.1912  -17.0588   26.0733 C   0  0  1  0  0  0  0  0  0  0  0  0
   11.3101  -17.4855   25.2004 C   0  0  0  0  0  0  0  0  0  0  0  0
   12.0268  -18.7323   25.4889 C   0  0  0  0  0  0  0  0  0  0  0  0
   13.1605  -19.1026   24.6444 C   0  0  0  0  0  0  0  0  0  0  0  0
   13.6202  -18.4357   23.7056 O   0  0  0  0  0  0  0  0  0  0  0  0
   10.3109  -17.2182   27.5070 C   0  0  0  0  0  0  0  0  0  0  0  0
   10.5385  -16.1425   28.3570 O   0  0  0  0  0  0  0  0  0  0  0  0
   13.8142  -20.3208   24.8906 O   0  0  0  0  0  0  0  0  0  0  0  0
   10.2173  -18.3491   28.0387 O   0  0  0  0  0  0  0  0  0  0  0  0
  2  1  1  0
  3  2  1  0
  3  4  1  0
  4  5  1  0
  5  6  1  6
  7  5  1  0
  7  8  2  0
 10  9  1  0
 11 10  1  0
 11 13  1  0
 11 12  1  1
 13 14  1  6
 14  7  1  0
 15 13  1  0
 16 15  2  0
 17 15  1  0
 18 19  1  6
 18 17  1  0
 19 20  1  0
 21 20  1  0
 21 22  2  0
 23 18  1  0
 24 23  1  0
 25 21  1  0
 26 23  2  0
M  END
$$$$
