MIE.pdb
     RDKit          3D

 26 25  0  0  1  0  0  0  0  0999 V2000
    5.9549  -11.7440   27.5421 C   0  0  0  0  0  0  0  0  0  0  0  0
    7.4579  -12.6245   27.0607 S   0  0  0  0  0  0  0  0  0  0  0  0
    7.1061  -13.6098   25.5929 C   0  0  0  0  0  0  0  0  0  0  0  0
    6.3918  -14.8595   26.0046 C   0  0  0  0  0  0  0  0  0  0  0  0
    6.0160  -15.6559   24.7729 C   0  0  2  0  0  0  0  0  0  0  0  0
    5.4598  -16.9335   25.1350 N   0  0  0  0  0  0  0  0  0  0  0  0
    7.1878  -15.8753   23.9016 C   0  0  0  0  0  0  0  0  0  0  0  0
    7.8971  -16.8986   24.1563 O   0  0  0  0  0  0  0  0  0  0  0  0
    7.2784  -12.7322   19.4271 C   0  0  0  0  0  0  0  0  0  0  0  0
    7.3716  -14.0783   20.1469 C   0  0  0  0  0  0  0  0  0  0  0  0
    8.6700  -14.2031   20.8843 C   0  0  2  0  0  0  0  0  0  0  0  0
    9.7143  -14.5972   19.8294 C   0  0  0  0  0  0  0  0  0  0  0  0
    8.6369  -15.2095   21.9754 C   0  0  2  0  0  0  0  0  0  0  0  0
    7.4817  -14.9886   22.8560 N   0  0  0  0  0  0  0  0  0  0  0  0
    9.8842  -15.1754   22.7962 C   0  0  0  0  0  0  0  0  0  0  0  0
   10.0235  -14.4563   23.8098 O   0  0  0  0  0  0  0  0  0  0  0  0
   11.0089  -15.9850   22.4533 N   0  0  0  0  0  0  0  0  0  0  0  0
   12.0055  -16.4008   23.4202 C   0  0  1  0  0  0  0  0  0  0  0  0
   11.3923  -16.8674   24.6861 C   0  0  0  0  0  0  0  0  0  0  0  0
   12.2313  -17.4797   25.7217 C   0  0  0  0  0  0  0  0  0  0  0  0
   11.6530  -18.5192   26.5706 C   0  0  0  0  0  0  0  0  0  0  0  0
   10.6678  -18.3917   27.3125 O   0  0  0  0  0  0  0  0  0  0  0  0
   13.0152  -17.2167   22.7796 C   0  0  0  0  0  0  0  0  0  0  0  0
   12.7036  -18.1435   21.7920 O   0  0  0  0  0  0  0  0  0  0  0  0
   12.2428  -19.7936   26.5714 O   0  0  0  0  0  0  0  0  0  0  0  0
   14.2221  -17.1176   23.1017 O   0  0  0  0  0  0  0  0  0  0  0  0
  2  1  1  0
  3  2  1  0
  3  4  1  0
  4  5  1  0
  5  6  1  1
  7  5  1  0
  7  8  2  0
 10  9  1  0
 11 10  1  0
 11 13  1  0
 11 12  1  6
 13 14  1  1
 14  7  1  0
 15 13  1  0
 16 15  2  0
 17 15  1  0
 18 19  1  1
 18 17  1  0
 19 20  1  0
 21 20  1  0
 21 22  2  0
 23 18  1  0
 24 23  1  0
 25 21  1  0
 26 23  2  0
M  END
$$$$
