RRT.pdb
     RDKit          3D

 30 29  0  0  1  0  0  0  0  0999 V2000
    7.4793  -13.4239   14.6121 N   0  0  0  0  0  0  0  0  0  0  0  0
    7.9851  -13.4579   15.9480 C   0  0  0  0  0  0  0  0  0  0  0  0
    8.0977  -12.3831   16.6448 N   0  0  0  0  0  0  0  0  0  0  0  0
    8.3781  -14.6785   16.5468 N   0  0  0  0  0  0  0  0  0  0  0  0
    8.4481  -14.7881   17.9690 C   0  0  0  0  0  0  0  0  0  0  0  0
    7.1751  -14.5158   18.6785 C   0  0  0  0  0  0  0  0  0  0  0  0
    7.3756  -14.6002   20.1652 C   0  0  0  0  0  0  0  0  0  0  0  0
    7.8343  -15.9454   20.5950 C   0  0  2  0  0  0  0  0  0  0  0  0
    6.9053  -16.9437   20.1307 N   0  0  0  0  0  0  0  0  0  0  0  0
    7.9481  -16.0626   22.0777 C   0  0  0  0  0  0  0  0  0  0  0  0
    6.8854  -16.0555   22.7410 O   0  0  0  0  0  0  0  0  0  0  0  0
    8.5542  -12.4111   17.5691 N   0  0  0  0  0  0  0  0  0  0  0  0
   14.2130  -19.4529   22.8757 C   0  0  0  0  0  0  0  0  0  0  0  0
   13.0539  -20.2643   22.7309 N   0  0  0  0  0  0  0  0  0  0  0  0
   13.1461  -21.5437   22.8172 N   0  0  0  0  0  0  0  0  0  0  0  0
   11.7668  -19.7242   22.4919 C   0  0  0  0  0  0  0  0  0  0  0  0
   11.4723  -18.3859   22.9213 C   0  0  0  0  0  0  0  0  0  0  0  0
   10.6952  -18.3137   24.1807 C   0  0  0  0  0  0  0  0  0  0  0  0
   10.4229  -16.9475   24.6954 C   0  0  2  0  0  0  0  0  0  0  0  0
    9.2270  -16.2254   24.2209 N   0  0  0  0  0  0  0  0  0  0  0  0
    9.1692  -16.1790   22.7493 C   0  0  0  0  0  0  0  0  0  0  0  0
    8.9603  -14.8934   24.7850 O   0  0  0  0  0  0  0  0  0  0  0  0
    9.6210  -13.8796   24.3627 C   0  0  0  0  0  0  0  0  0  0  0  0
   12.2737  -22.1059   22.7546 C   0  0  2  0  0  0  0  0  0  0  0  0
    6.4033  -12.1489   25.1985 O   0  0  0  0  0  0  0  0  0  0  0  0
    6.6808  -12.7526   26.5584 C   0  0  1  0  0  0  0  0  0  0  0  0
    5.7282  -13.7223   26.8738 N   0  0  0  0  0  0  0  0  0  0  0  0
    8.0782  -13.3724   26.5851 C   0  0  0  0  0  0  0  0  0  0  0  0
    8.0037  -14.5994   25.7904 O   0  0  0  0  0  0  0  0  0  0  0  0
    8.5425  -13.5889   27.9571 O   0  0  0  0  0  0  0  0  0  0  0  0
  2  3  2  0
  2  1  1  0
  4  2  1  0
  5  4  1  0
  6  5  1  0
  7  6  1  0
  8  7  1  0
  8  9  1  1
 10  8  1  0
 11 10  2  0
 13 12  1  0
 14 13  2  0
 15 13  1  0
 16 15  1  0
 17 16  1  0
 17 18  1  0
 19 18  1  6
 19 21  1  0
 19 20  1  0
 20 10  1  0
 21 22  2  0
 24 23  1  6
 24 26  1  0
 25 24  1  0
 26 28  1  0
 26 27  1  6
 27 21  1  0
 28 29  2  0
 28 30  1  0
M  END
$$$$
