RRT.pdb
     RDKit          3D

 30 29  0  0  1  0  0  0  0  0999 V2000
    8.9673  -12.9932   16.4668 N   0  0  0  0  0  0  0  0  0  0  0  0
    8.5743  -13.5725   15.2211 C   0  0  0  0  0  0  0  0  0  0  0  0
    8.0060  -12.8670   14.3087 N   0  0  0  0  0  0  0  0  0  0  0  0
    8.7996  -14.9436   14.9527 N   0  0  0  0  0  0  0  0  0  0  0  0
    9.6165  -15.7198   15.8300 C   0  0  0  0  0  0  0  0  0  0  0  0
    8.9159  -16.2585   17.0204 C   0  0  0  0  0  0  0  0  0  0  0  0
    9.6548  -15.8882   18.2752 C   0  0  0  0  0  0  0  0  0  0  0  0
    9.4814  -16.8992   19.3487 C   0  0  2  0  0  0  0  0  0  0  0  0
    8.1770  -17.5008   19.2396 N   0  0  0  0  0  0  0  0  0  0  0  0
    9.6153  -16.3114   20.7131 C   0  0  0  0  0  0  0  0  0  0  0  0
   10.6884  -15.7259   20.9870 O   0  0  0  0  0  0  0  0  0  0  0  0
    7.8448  -13.2659   13.3714 N   0  0  0  0  0  0  0  0  0  0  0  0
    5.4117  -12.7578   27.6041 C   0  0  0  0  0  0  0  0  0  0  0  0
    6.2661  -11.8837   26.8769 N   0  0  0  0  0  0  0  0  0  0  0  0
    6.6715  -10.7859   27.4091 N   0  0  0  0  0  0  0  0  0  0  0  0
    6.7089  -12.1659   25.5616 C   0  0  0  0  0  0  0  0  0  0  0  0
    6.3858  -13.4314   24.9646 C   0  0  0  0  0  0  0  0  0  0  0  0
    7.5622  -14.2939   24.7050 C   0  0  0  0  0  0  0  0  0  0  0  0
    7.6556  -14.8661   23.3377 C   0  0  1  0  0  0  0  0  0  0  0  0
    8.7851  -15.7554   23.0060 N   0  0  0  0  0  0  0  0  0  0  0  0
    8.6116  -16.3832   21.6843 C   0  0  0  0  0  0  0  0  0  0  0  0
    9.1817  -16.7624   24.0019 O   0  0  0  0  0  0  0  0  0  0  0  0
    8.3398  -17.6535   24.3759 C   0  0  0  0  0  0  0  0  0  0  0  0
    7.3130  -10.1795   26.8597 C   0  0  2  0  0  0  0  0  0  0  0  0
   12.0591  -19.1166   23.9210 O   0  0  0  0  0  0  0  0  0  0  0  0
   12.1089  -18.4615   25.2845 C   0  0  1  0  0  0  0  0  0  0  0  0
   13.0805  -17.4605   25.3182 N   0  0  0  0  0  0  0  0  0  0  0  0
   10.7437  -17.8691   25.6351 C   0  0  0  0  0  0  0  0  0  0  0  0
   10.4562  -16.8570   24.6175 O   0  0  0  0  0  0  0  0  0  0  0  0
   10.7207  -17.3487   27.0038 O   0  0  0  0  0  0  0  0  0  0  0  0
  2  3  2  0
  2  1  1  0
  4  2  1  0
  5  4  1  0
  6  5  1  0
  7  6  1  0
  8  7  1  0
  8  9  1  1
 10  8  1  0
 11 10  2  0
 13 12  1  0
 14 13  2  0
 15 13  1  0
 16 15  1  0
 17 16  1  0
 17 18  1  0
 19 18  1  6
 19 21  1  0
 19 20  1  0
 20 10  1  0
 21 22  2  0
 24 23  1  6
 24 26  1  0
 25 24  1  0
 26 28  1  0
 26 27  1  6
 27 21  1  0
 28 29  2  0
 28 30  1  0
M  END
$$$$
