RRT.pdb
     RDKit          3D

 30 29  0  0  1  0  0  0  0  0999 V2000
    9.0346  -14.2786   14.0245 N   0  0  0  0  0  0  0  0  0  0  0  0
   10.0144  -15.3120   14.1420 C   0  0  0  0  0  0  0  0  0  0  0  0
   11.2681  -15.0587   14.0105 N   0  0  0  0  0  0  0  0  0  0  0  0
    9.6340  -16.6489   14.4080 N   0  0  0  0  0  0  0  0  0  0  0  0
   10.6318  -17.6465   14.6284 C   0  0  0  0  0  0  0  0  0  0  0  0
   10.4228  -18.4811   15.8359 C   0  0  0  0  0  0  0  0  0  0  0  0
   10.6176  -17.6609   17.0796 C   0  0  0  0  0  0  0  0  0  0  0  0
   10.5237  -18.4807   18.3140 C   0  0  2  0  0  0  0  0  0  0  0  0
    9.2227  -19.0948   18.3883 N   0  0  0  0  0  0  0  0  0  0  0  0
   10.7345  -17.6750   19.5515 C   0  0  0  0  0  0  0  0  0  0  0  0
   11.9158  -17.4843   19.9224 O   0  0  0  0  0  0  0  0  0  0  0  0
   11.9645  -15.8065   14.1498 N   0  0  0  0  0  0  0  0  0  0  0  0
    6.7043  -15.0068   17.6950 C   0  0  0  0  0  0  0  0  0  0  0  0
    7.1403  -13.6594   17.8256 N   0  0  0  0  0  0  0  0  0  0  0  0
    7.5888  -13.0234   16.8022 N   0  0  0  0  0  0  0  0  0  0  0  0
    7.1044  -12.9595   19.0562 C   0  0  0  0  0  0  0  0  0  0  0  0
    7.3777  -13.6644   20.2771 C   0  0  0  0  0  0  0  0  0  0  0  0
    8.6789  -14.3731   20.2862 C   0  0  0  0  0  0  0  0  0  0  0  0
    8.9912  -15.1360   21.5215 C   0  0  2  0  0  0  0  0  0  0  0  0
    9.9561  -16.2501   21.4540 N   0  0  0  0  0  0  0  0  0  0  0  0
    9.6884  -17.1310   20.3036 C   0  0  0  0  0  0  0  0  0  0  0  0
   10.1689  -17.0489   22.6706 O   0  0  0  0  0  0  0  0  0  0  0  0
    9.2097  -17.7549   23.1441 C   0  0  0  0  0  0  0  0  0  0  0  0
    7.9835  -12.0725   16.9472 C   0  0  2  0  0  0  0  0  0  0  0  0
   12.7092  -19.6441   23.2466 O   0  0  0  0  0  0  0  0  0  0  0  0
   12.7842  -18.7535   24.4680 C   0  0  1  0  0  0  0  0  0  0  0  0
   13.8751  -17.8874   24.3836 N   0  0  0  0  0  0  0  0  0  0  0  0
   11.4934  -17.9468   24.6126 C   0  0  0  0  0  0  0  0  0  0  0  0
   11.3794  -17.1256   23.4062 O   0  0  0  0  0  0  0  0  0  0  0  0
   11.4826  -17.1705   25.8543 O   0  0  0  0  0  0  0  0  0  0  0  0
  2  3  2  0
  2  1  1  0
  4  2  1  0
  5  4  1  0
  6  5  1  0
  7  6  1  0
  8  7  1  0
  8  9  1  1
 10  8  1  0
 11 10  2  0
 13 12  1  0
 14 13  2  0
 15 13  1  0
 16 15  1  0
 17 16  1  0
 17 18  1  0
 19 18  1  6
 19 21  1  0
 19 20  1  0
 20 10  1  0
 21 22  2  0
 24 23  1  6
 24 26  1  0
 25 24  1  0
 26 28  1  0
 26 27  1  6
 27 21  1  0
 28 29  2  0
 28 30  1  0
M  END
$$$$
