RRT.pdb
     RDKit          3D

 30 29  0  0  1  0  0  0  0  0999 V2000
    8.6661  -12.4152   17.8288 N   0  0  0  0  0  0  0  0  0  0  0  0
    8.7711  -13.6453   17.1095 C   0  0  0  0  0  0  0  0  0  0  0  0
    9.2263  -13.6768   15.9074 N   0  0  0  0  0  0  0  0  0  0  0  0
    8.3768  -14.8696   17.6998 N   0  0  0  0  0  0  0  0  0  0  0  0
    7.1506  -14.9513   18.4272 C   0  0  0  0  0  0  0  0  0  0  0  0
    7.0738  -14.0739   19.6199 C   0  0  0  0  0  0  0  0  0  0  0  0
    6.4041  -14.7927   20.7567 C   0  0  0  0  0  0  0  0  0  0  0  0
    6.9573  -16.1549   20.9641 C   0  0  2  0  0  0  0  0  0  0  0  0
    5.9344  -17.1361   20.7066 N   0  0  0  0  0  0  0  0  0  0  0  0
    7.4659  -16.3590   22.3514 C   0  0  0  0  0  0  0  0  0  0  0  0
    6.6179  -16.4915   23.2639 O   0  0  0  0  0  0  0  0  0  0  0  0
    9.3479  -14.5795   15.4236 N   0  0  0  0  0  0  0  0  0  0  0  0
   10.9264  -21.7160   25.8146 C   0  0  0  0  0  0  0  0  0  0  0  0
   12.0492  -21.1736   26.4986 N   0  0  0  0  0  0  0  0  0  0  0  0
   12.8035  -21.9356   27.2080 N   0  0  0  0  0  0  0  0  0  0  0  0
   12.3924  -19.8010   26.4375 C   0  0  0  0  0  0  0  0  0  0  0  0
   12.1211  -19.0585   25.2386 C   0  0  0  0  0  0  0  0  0  0  0  0
   10.9335  -18.1773   25.3305 C   0  0  0  0  0  0  0  0  0  0  0  0
   10.3626  -17.7243   24.0365 C   0  0  2  0  0  0  0  0  0  0  0  0
    9.2733  -16.7292   24.0402 N   0  0  0  0  0  0  0  0  0  0  0  0
    8.8260  -16.4091   22.6732 C   0  0  0  0  0  0  0  0  0  0  0  0
    9.4735  -15.4948   24.8145 O   0  0  0  0  0  0  0  0  0  0  0  0
   10.4093  -14.6826   24.4866 C   0  0  0  0  0  0  0  0  0  0  0  0
   13.6558  -21.5232   27.6375 C   0  0  2  0  0  0  0  0  0  0  0  0
    7.5114  -12.4771   25.3046 O   0  0  0  0  0  0  0  0  0  0  0  0
    7.7749  -13.0131   26.6953 C   0  0  1  0  0  0  0  0  0  0  0  0
    6.6867  -13.7562   27.1544 N   0  0  0  0  0  0  0  0  0  0  0  0
    9.0323  -13.8829   26.6958 C   0  0  0  0  0  0  0  0  0  0  0  0
    8.7033  -15.0892   25.9346 O   0  0  0  0  0  0  0  0  0  0  0  0
    9.4945  -14.1563   28.0583 O   0  0  0  0  0  0  0  0  0  0  0  0
  2  3  2  0
  2  1  1  0
  4  2  1  0
  5  4  1  0
  6  5  1  0
  7  6  1  0
  8  7  1  0
  8  9  1  1
 10  8  1  0
 11 10  2  0
 13 12  1  0
 14 13  2  0
 15 13  1  0
 16 15  1  0
 17 16  1  0
 17 18  1  0
 19 18  1  1
 19 21  1  0
 19 20  1  0
 20 10  1  0
 21 22  2  0
 24 23  1  6
 24 26  1  0
 25 24  1  0
 26 28  1  0
 26 27  1  6
 27 21  1  0
 28 29  2  0
 28 30  1  0
M  END
$$$$
