RRT.pdb
     RDKit          3D

 30 29  0  0  1  0  0  0  0  0999 V2000
    8.3855  -14.0733   14.6679 N   0  0  0  0  0  0  0  0  0  0  0  0
    8.7680  -15.1520   15.5232 C   0  0  0  0  0  0  0  0  0  0  0  0
    8.4032  -16.3598   15.2753 N   0  0  0  0  0  0  0  0  0  0  0  0
    9.5624  -14.9237   16.6720 N   0  0  0  0  0  0  0  0  0  0  0  0
    9.2488  -13.8472   17.5565 C   0  0  0  0  0  0  0  0  0  0  0  0
    7.8042  -13.6764   17.8428 C   0  0  0  0  0  0  0  0  0  0  0  0
    7.4794  -14.1842   19.2191 C   0  0  0  0  0  0  0  0  0  0  0  0
    8.3955  -13.6362   20.2511 C   0  0  2  0  0  0  0  0  0  0  0  0
    9.7552  -13.7173   19.7823 N   0  0  0  0  0  0  0  0  0  0  0  0
    8.3003  -14.3701   21.5462 C   0  0  0  0  0  0  0  0  0  0  0  0
    7.1960  -14.3574   22.1377 O   0  0  0  0  0  0  0  0  0  0  0  0
    8.7401  -17.1340   15.8675 N   0  0  0  0  0  0  0  0  0  0  0  0
    8.9432  -20.3704   21.2832 C   0  0  0  0  0  0  0  0  0  0  0  0
   10.3061  -20.7769   21.2956 N   0  0  0  0  0  0  0  0  0  0  0  0
   10.6105  -22.0205   21.1783 N   0  0  0  0  0  0  0  0  0  0  0  0
   11.3768  -19.8600   21.4321 C   0  0  0  0  0  0  0  0  0  0  0  0
   11.3534  -18.9021   22.5016 C   0  0  0  0  0  0  0  0  0  0  0  0
   10.2092  -17.9624   22.4450 C   0  0  0  0  0  0  0  0  0  0  0  0
   10.1859  -16.9079   23.4905 C   0  0  2  0  0  0  0  0  0  0  0  0
    9.2094  -15.8075   23.3802 N   0  0  0  0  0  0  0  0  0  0  0  0
    9.3721  -15.0615   22.1200 C   0  0  0  0  0  0  0  0  0  0  0  0
    9.0925  -14.8770   24.5134 O   0  0  0  0  0  0  0  0  0  0  0  0
   10.0575  -14.0775   24.7823 C   0  0  0  0  0  0  0  0  0  0  0  0
   11.6090  -22.2944   21.2730 C   0  0  2  0  0  0  0  0  0  0  0  0
    6.8225  -12.0733   25.3352 O   0  0  0  0  0  0  0  0  0  0  0  0
    6.7369  -13.0407   26.4959 C   0  0  1  0  0  0  0  0  0  0  0  0
    5.6127  -13.8589   26.3772 N   0  0  0  0  0  0  0  0  0  0  0  0
    7.9987  -13.9018   26.5590 C   0  0  0  0  0  0  0  0  0  0  0  0
    7.9726  -14.7645   25.3767 O   0  0  0  0  0  0  0  0  0  0  0  0
    8.0823  -14.6387   27.8218 O   0  0  0  0  0  0  0  0  0  0  0  0
  2  3  2  0
  2  1  1  0
  4  2  1  0
  5  4  1  0
  6  5  1  0
  7  6  1  0
  8  7  1  0
  8  9  1  6
 10  8  1  0
 11 10  2  0
 13 12  1  0
 14 13  2  0
 15 13  1  0
 16 15  1  0
 17 16  1  0
 17 18  1  0
 19 18  1  6
 19 21  1  0
 19 20  1  0
 20 10  1  0
 21 22  2  0
 24 23  1  6
 24 26  1  0
 25 24  1  0
 26 28  1  0
 26 27  1  6
 27 21  1  0
 28 29  2  0
 28 30  1  0
M  END
$$$$
