RRT.pdb
     RDKit          3D

 30 29  0  0  1  0  0  0  0  0999 V2000
    9.7527  -14.6901   17.5997 N   0  0  0  0  0  0  0  0  0  0  0  0
    8.5875  -14.0440   17.0833 C   0  0  0  0  0  0  0  0  0  0  0  0
    8.4301  -13.8654   15.8197 N   0  0  0  0  0  0  0  0  0  0  0  0
    7.5685  -13.5802   17.9488 N   0  0  0  0  0  0  0  0  0  0  0  0
    7.6459  -13.8422   19.3506 C   0  0  0  0  0  0  0  0  0  0  0  0
    7.4596  -15.2632   19.7302 C   0  0  0  0  0  0  0  0  0  0  0  0
    6.4961  -15.3768   20.8776 C   0  0  0  0  0  0  0  0  0  0  0  0
    6.3251  -16.7802   21.3311 C   0  0  2  0  0  0  0  0  0  0  0  0
    5.0690  -17.2943   20.8483 N   0  0  0  0  0  0  0  0  0  0  0  0
    6.3443  -16.9060   22.8173 C   0  0  0  0  0  0  0  0  0  0  0  0
    5.2667  -16.7156   23.4272 O   0  0  0  0  0  0  0  0  0  0  0  0
    7.5800  -13.4020   15.4645 N   0  0  0  0  0  0  0  0  0  0  0  0
   11.2602  -18.2462   28.7052 C   0  0  0  0  0  0  0  0  0  0  0  0
   10.3962  -19.0652   29.4835 N   0  0  0  0  0  0  0  0  0  0  0  0
   10.6041  -19.2083   30.7442 N   0  0  0  0  0  0  0  0  0  0  0  0
    9.2868  -19.7495   28.9301 C   0  0  0  0  0  0  0  0  0  0  0  0
    9.0694  -19.7098   27.5112 C   0  0  0  0  0  0  0  0  0  0  0  0
    8.3722  -18.4897   27.0415 C   0  0  0  0  0  0  0  0  0  0  0  0
    8.0915  -18.4254   25.5846 C   0  0  1  0  0  0  0  0  0  0  0  0
    7.4882  -17.2023   25.0218 N   0  0  0  0  0  0  0  0  0  0  0  0
    7.4937  -17.2228   23.5485 C   0  0  0  0  0  0  0  0  0  0  0  0
    7.9757  -15.9058   25.5166 O   0  0  0  0  0  0  0  0  0  0  0  0
    9.0756  -15.4258   25.0666 C   0  0  0  0  0  0  0  0  0  0  0  0
    9.9945  -19.8642   31.2727 C   0  0  2  0  0  0  0  0  0  0  0  0
    6.5360  -12.3212   25.6576 O   0  0  0  0  0  0  0  0  0  0  0  0
    6.8503  -12.8136   27.0538 C   0  0  2  0  0  0  0  0  0  0  0  0
    5.7104  -13.3414   27.6615 N   0  0  0  0  0  0  0  0  0  0  0  0
    7.9486  -13.8761   27.0037 C   0  0  0  0  0  0  0  0  0  0  0  0
    7.3257  -15.0931   26.4806 O   0  0  0  0  0  0  0  0  0  0  0  0
    8.5806  -14.0560   28.3124 O   0  0  0  0  0  0  0  0  0  0  0  0
  2  3  2  0
  2  1  1  0
  4  2  1  0
  5  4  1  0
  6  5  1  0
  7  6  1  0
  8  7  1  0
  8  9  1  1
 10  8  1  0
 11 10  2  0
 13 12  1  0
 14 13  2  0
 15 13  1  0
 16 15  1  0
 17 16  1  0
 17 18  1  0
 19 18  1  1
 19 21  1  0
 19 20  1  0
 20 10  1  0
 21 22  2  0
 24 23  1  1
 24 26  1  0
 25 24  1  0
 26 28  1  0
 26 27  1  6
 27 21  1  0
 28 29  2  0
 28 30  1  0
M  END
$$$$
