RRT.pdb
     RDKit          3D

 30 29  0  0  1  0  0  0  0  0999 V2000
   10.0931  -15.9794   15.6989 N   0  0  0  0  0  0  0  0  0  0  0  0
   11.2257  -15.8640   16.5623 C   0  0  0  0  0  0  0  0  0  0  0  0
   12.3171  -16.4980   16.3171 N   0  0  0  0  0  0  0  0  0  0  0  0
   11.1809  -15.0461   17.7163 N   0  0  0  0  0  0  0  0  0  0  0  0
    9.9414  -14.4814   18.1457 C   0  0  0  0  0  0  0  0  0  0  0  0
   10.0292  -13.6362   19.3606 C   0  0  0  0  0  0  0  0  0  0  0  0
    8.6620  -13.1703   19.7744 C   0  0  0  0  0  0  0  0  0  0  0  0
    7.6914  -14.2900   19.8686 C   0  0  2  0  0  0  0  0  0  0  0  0
    6.5211  -13.9819   19.0870 N   0  0  0  0  0  0  0  0  0  0  0  0
    7.2624  -14.5567   21.2721 C   0  0  0  0  0  0  0  0  0  0  0  0
    6.4773  -13.7367   21.8020 O   0  0  0  0  0  0  0  0  0  0  0  0
   13.1231  -16.4065   16.9541 N   0  0  0  0  0  0  0  0  0  0  0  0
    9.5014  -19.5522   25.3754 C   0  0  0  0  0  0  0  0  0  0  0  0
    8.6622  -19.8344   26.4885 N   0  0  0  0  0  0  0  0  0  0  0  0
    9.1755  -20.2098   27.6058 N   0  0  0  0  0  0  0  0  0  0  0  0
    7.2518  -19.7193   26.4319 C   0  0  0  0  0  0  0  0  0  0  0  0
    6.6279  -19.2806   25.2152 C   0  0  0  0  0  0  0  0  0  0  0  0
    6.6768  -17.8145   25.0067 C   0  0  0  0  0  0  0  0  0  0  0  0
    7.1195  -17.3668   23.6617 C   0  0  1  0  0  0  0  0  0  0  0  0
    7.1716  -15.9224   23.3656 N   0  0  0  0  0  0  0  0  0  0  0  0
    7.6904  -15.6644   22.0108 C   0  0  0  0  0  0  0  0  0  0  0  0
    7.8343  -15.0447   24.3422 O   0  0  0  0  0  0  0  0  0  0  0  0
    9.1139  -14.9770   24.3714 C   0  0  0  0  0  0  0  0  0  0  0  0
    8.5330  -20.4862   28.3751 C   0  0  2  0  0  0  0  0  0  0  0  0
    6.8538  -11.3255   25.6195 O   0  0  0  0  0  0  0  0  0  0  0  0
    7.0162  -12.3231   26.7460 C   0  0  2  0  0  0  0  0  0  0  0  0
    5.7772  -12.8250   27.1460 N   0  0  0  0  0  0  0  0  0  0  0  0
    7.9223  -13.4731   26.3054 C   0  0  0  0  0  0  0  0  0  0  0  0
    7.1764  -14.2264   25.2960 O   0  0  0  0  0  0  0  0  0  0  0  0
    8.3509  -14.2852   27.4463 O   0  0  0  0  0  0  0  0  0  0  0  0
  2  3  2  0
  2  1  1  0
  4  2  1  0
  5  4  1  0
  6  5  1  0
  7  6  1  0
  8  7  1  0
  8  9  1  6
 10  8  1  0
 11 10  2  0
 13 12  1  0
 14 13  2  0
 15 13  1  0
 16 15  1  0
 17 16  1  0
 17 18  1  0
 19 18  1  6
 19 21  1  0
 19 20  1  0
 20 10  1  0
 21 22  2  0
 24 23  1  6
 24 26  1  0
 25 24  1  0
 26 28  1  0
 26 27  1  6
 27 21  1  0
 28 29  2  0
 28 30  1  0
M  END
$$$$
