RRT.pdb
     RDKit          3D

 30 29  0  0  1  0  0  0  0  0999 V2000
    7.2499  -14.5258   14.7711 N   0  0  0  0  0  0  0  0  0  0  0  0
    8.5495  -14.1651   15.2428 C   0  0  0  0  0  0  0  0  0  0  0  0
    9.5482  -14.0736   14.4382 N   0  0  0  0  0  0  0  0  0  0  0  0
    8.7777  -13.8964   16.6134 N   0  0  0  0  0  0  0  0  0  0  0  0
    7.6765  -13.8089   17.5186 C   0  0  0  0  0  0  0  0  0  0  0  0
    8.0465  -13.5132   18.9235 C   0  0  0  0  0  0  0  0  0  0  0  0
    7.1448  -14.2544   19.8697 C   0  0  0  0  0  0  0  0  0  0  0  0
    7.6646  -15.6056   20.1992 C   0  0  2  0  0  0  0  0  0  0  0  0
    6.7607  -16.6073   19.6943 N   0  0  0  0  0  0  0  0  0  0  0  0
    7.8237  -15.8134   21.6677 C   0  0  0  0  0  0  0  0  0  0  0  0
    6.7812  -15.9609   22.3465 O   0  0  0  0  0  0  0  0  0  0  0  0
   10.4771  -13.8030   14.7950 N   0  0  0  0  0  0  0  0  0  0  0  0
   12.4916  -20.6999   27.2420 C   0  0  0  0  0  0  0  0  0  0  0  0
   11.6654  -20.8462   26.0936 N   0  0  0  0  0  0  0  0  0  0  0  0
   11.1153  -21.9787   25.8336 N   0  0  0  0  0  0  0  0  0  0  0  0
   11.4068  -19.7814   25.1965 C   0  0  0  0  0  0  0  0  0  0  0  0
   11.7100  -18.4350   25.5933 C   0  0  0  0  0  0  0  0  0  0  0  0
   10.5870  -17.4855   25.4128 C   0  0  0  0  0  0  0  0  0  0  0  0
   10.2555  -17.1350   24.0082 C   0  0  1  0  0  0  0  0  0  0  0  0
    9.1711  -16.1701   23.7445 N   0  0  0  0  0  0  0  0  0  0  0  0
    9.0655  -15.8509   22.3099 C   0  0  0  0  0  0  0  0  0  0  0  0
    9.1389  -14.9373   24.5461 O   0  0  0  0  0  0  0  0  0  0  0  0
   10.0517  -14.0516   24.3882 C   0  0  0  0  0  0  0  0  0  0  0  0
   10.5093  -22.0504   24.9917 C   0  0  2  0  0  0  0  0  0  0  0  0
    6.6313  -12.0898   25.1245 O   0  0  0  0  0  0  0  0  0  0  0  0
    6.9306  -12.7694   26.4433 C   0  0  1  0  0  0  0  0  0  0  0  0
    5.9510  -13.7157   26.7468 N   0  0  0  0  0  0  0  0  0  0  0  0
    8.3019  -13.4435   26.3900 C   0  0  0  0  0  0  0  0  0  0  0  0
    8.1579  -14.6096   25.5170 O   0  0  0  0  0  0  0  0  0  0  0  0
    8.7908  -13.7709   27.7311 O   0  0  0  0  0  0  0  0  0  0  0  0
  2  3  2  0
  2  1  1  0
  4  2  1  0
  5  4  1  0
  6  5  1  0
  7  6  1  0
  8  7  1  0
  8  9  1  1
 10  8  1  0
 11 10  2  0
 13 12  1  0
 14 13  2  0
 15 13  1  0
 16 15  1  0
 17 16  1  0
 17 18  1  0
 19 18  1  6
 19 21  1  0
 19 20  1  0
 20 10  1  0
 21 22  2  0
 24 23  1  1
 24 26  1  0
 25 24  1  0
 26 28  1  0
 26 27  1  6
 27 21  1  0
 28 29  2  0
 28 30  1  0
M  END
$$$$
