LVT.pdb
     RDKit          3D

 23 22  0  0  1  0  0  0  0  0999 V2000
    7.8039  -20.7142   18.9418 C   0  0  0  0  0  0  0  0  0  0  0  0
    7.5965  -19.2455   18.6806 C   0  0  2  0  0  0  0  0  0  0  0  0
    6.1318  -18.8543   18.8046 C   0  0  0  0  0  0  0  0  0  0  0  0
    8.0358  -18.8555   17.2831 C   0  0  0  0  0  0  0  0  0  0  0  0
    7.8609  -17.3828   17.0114 C   0  0  2  0  0  0  0  0  0  0  0  0
    8.4258  -17.1011   15.7094 N   0  0  0  0  0  0  0  0  0  0  0  0
    8.4778  -16.5335   18.0475 C   0  0  0  0  0  0  0  0  0  0  0  0
    9.7321  -16.4899   18.1218 O   0  0  0  0  0  0  0  0  0  0  0  0
    7.3770  -12.7495   19.0561 C   0  0  0  0  0  0  0  0  0  0  0  0
    7.4830  -13.7352   20.1585 C   0  0  2  0  0  0  0  0  0  0  0  0
    7.8658  -12.9694   21.4312 C   0  0  0  0  0  0  0  0  0  0  0  0
    8.3958  -14.9016   19.9366 C   0  0  2  0  0  0  0  0  0  0  0  0
    7.7111  -15.7663   18.9606 N   0  0  0  0  0  0  0  0  0  0  0  0
    8.7207  -15.6745   21.1485 C   0  0  0  0  0  0  0  0  0  0  0  0
    7.7815  -16.1101   21.8979 O   0  0  0  0  0  0  0  0  0  0  0  0
    9.9248  -18.9618   21.5072 C   0  0  0  0  0  0  0  0  0  0  0  0
   10.8688  -18.1539   22.3410 C   0  0  1  0  0  0  0  0  0  0  0  0
   12.0254  -17.9590   21.5604 O   0  0  0  0  0  0  0  0  0  0  0  0
   10.2875  -16.8136   22.7389 C   0  0  2  0  0  0  0  0  0  0  0  0
   10.0368  -15.9856   21.5619 N   0  0  0  0  0  0  0  0  0  0  0  0
   11.1165  -16.1104   23.7303 C   0  0  0  0  0  0  0  0  0  0  0  0
   11.2470  -16.5222   25.0448 O   0  0  0  0  0  0  0  0  0  0  0  0
   11.7427  -15.0810   23.3757 O   0  0  0  0  0  0  0  0  0  0  0  0
  2  1  1  6
  2  3  1  0
  2  4  1  0
  4  5  1  0
  5  6  1  6
  7  8  2  0
  7  5  1  0
 10  9  1  6
 10 11  1  0
 10 12  1  0
 12 13  1  6
 12 14  1  0
 13  7  1  0
 14 20  1  0
 15 14  2  0
 17 16  1  6
 17 18  1  0
 19 21  1  0
 19 17  1  0
 19 20  1  6
 21 22  1  0
 23 21  2  0
M  END
$$$$
