LVT.pdb
     RDKit          3D

 23 22  0  0  1  0  0  0  0  0999 V2000
    9.1637  -13.7882   19.4314 C   0  0  0  0  0  0  0  0  0  0  0  0
    7.7220  -13.4862   19.7452 C   0  0  2  0  0  0  0  0  0  0  0  0
    7.4672  -11.9890   19.8294 C   0  0  0  0  0  0  0  0  0  0  0  0
    7.3009  -14.0764   21.0767 C   0  0  0  0  0  0  0  0  0  0  0  0
    7.5394  -15.5633   21.1518 C   0  0  2  0  0  0  0  0  0  0  0  0
    6.5334  -16.2160   20.3422 N   0  0  0  0  0  0  0  0  0  0  0  0
    7.5165  -16.0764   22.5344 C   0  0  0  0  0  0  0  0  0  0  0  0
    6.4370  -16.0264   23.1771 O   0  0  0  0  0  0  0  0  0  0  0  0
   10.2673  -18.8955   23.9126 C   0  0  0  0  0  0  0  0  0  0  0  0
    8.9376  -18.5716   24.4826 C   0  0  2  0  0  0  0  0  0  0  0  0
    7.8898  -19.3778   23.7048 C   0  0  0  0  0  0  0  0  0  0  0  0
    8.5641  -17.1226   24.5459 C   0  0  2  0  0  0  0  0  0  0  0  0
    8.6633  -16.6227   23.1641 N   0  0  0  0  0  0  0  0  0  0  0  0
    9.4056  -16.3033   25.4361 C   0  0  0  0  0  0  0  0  0  0  0  0
    9.9343  -15.2248   24.9994 O   0  0  0  0  0  0  0  0  0  0  0  0
   10.1538  -13.4538   28.7912 C   0  0  0  0  0  0  0  0  0  0  0  0
    9.5820  -14.3859   27.7698 C   0  0  1  0  0  0  0  0  0  0  0  0
    9.6269  -13.7049   26.5373 O   0  0  0  0  0  0  0  0  0  0  0  0
   10.3602  -15.6809   27.6683 C   0  0  2  0  0  0  0  0  0  0  0  0
    9.6828  -16.6264   26.7846 N   0  0  0  0  0  0  0  0  0  0  0  0
   10.6422  -16.2749   28.9844 C   0  0  0  0  0  0  0  0  0  0  0  0
   10.2146  -17.5364   29.3590 O   0  0  0  0  0  0  0  0  0  0  0  0
   11.3048  -15.6108   29.8195 O   0  0  0  0  0  0  0  0  0  0  0  0
  2  1  1  1
  2  3  1  0
  2  4  1  0
  4  5  1  0
  5  6  1  6
  7  8  2  0
  7  5  1  0
 10  9  1  6
 10 11  1  0
 10 12  1  0
 12 13  1  6
 12 14  1  0
 13  7  1  0
 14 20  1  0
 15 14  2  0
 17 16  1  1
 17 18  1  0
 19 21  1  0
 19 17  1  0
 19 20  1  6
 21 22  1  0
 23 21  2  0
M  END
$$$$
