LVT.pdb
     RDKit          3D

 23 22  0  0  1  0  0  0  0  0999 V2000
    7.1835  -13.2687   27.2481 C   0  0  0  0  0  0  0  0  0  0  0  0
    8.2178  -14.1468   27.9019 C   0  0  2  0  0  0  0  0  0  0  0  0
    9.5297  -13.4068   28.1140 C   0  0  0  0  0  0  0  0  0  0  0  0
    8.5354  -15.3655   27.0579 C   0  0  0  0  0  0  0  0  0  0  0  0
    7.3078  -15.9605   26.4159 C   0  0  2  0  0  0  0  0  0  0  0  0
    6.8704  -17.0692   27.2365 N   0  0  0  0  0  0  0  0  0  0  0  0
    7.5435  -16.3953   25.0264 C   0  0  0  0  0  0  0  0  0  0  0  0
    7.5126  -17.6252   24.7671 O   0  0  0  0  0  0  0  0  0  0  0  0
    6.5499  -14.0966   21.7371 C   0  0  0  0  0  0  0  0  0  0  0  0
    7.8559  -14.7976   21.7069 C   0  0  2  0  0  0  0  0  0  0  0  0
    8.1499  -15.1696   20.2481 C   0  0  0  0  0  0  0  0  0  0  0  0
    8.0062  -15.9856   22.6064 C   0  0  2  0  0  0  0  0  0  0  0  0
    7.8029  -15.4804   23.9748 N   0  0  0  0  0  0  0  0  0  0  0  0
    9.3066  -16.6728   22.5147 C   0  0  0  0  0  0  0  0  0  0  0  0
    9.5494  -17.4494   21.5291 O   0  0  0  0  0  0  0  0  0  0  0  0
   11.1950  -17.0461   20.8279 C   0  0  0  0  0  0  0  0  0  0  0  0
   12.2094  -16.9112   21.9196 C   0  0  1  0  0  0  0  0  0  0  0  0
   12.6710  -15.5809   21.8746 O   0  0  0  0  0  0  0  0  0  0  0  0
   11.6304  -17.2067   23.2872 C   0  0  2  0  0  0  0  0  0  0  0  0
   10.3456  -16.5344   23.4640 N   0  0  0  0  0  0  0  0  0  0  0  0
   12.5649  -16.8861   24.3774 C   0  0  0  0  0  0  0  0  0  0  0  0
   13.8024  -17.4878   24.5224 O   0  0  0  0  0  0  0  0  0  0  0  0
   12.2320  -16.0227   25.2266 O   0  0  0  0  0  0  0  0  0  0  0  0
  2  1  1  6
  2  3  1  0
  2  4  1  0
  4  5  1  0
  5  6  1  1
  7  8  2  0
  7  5  1  0
 10  9  1  6
 10 11  1  0
 10 12  1  0
 12 13  1  1
 12 14  1  0
 13  7  1  0
 14 20  1  0
 15 14  2  0
 17 16  1  6
 17 18  1  0
 19 21  1  0
 19 17  1  0
 19 20  1  1
 21 22  1  0
 23 21  2  0
M  END
$$$$
