LVT.pdb
     RDKit          3D

 23 22  0  0  1  0  0  0  0  0999 V2000
    7.7166  -20.6825   19.5662 C   0  0  0  0  0  0  0  0  0  0  0  0
    7.4807  -19.2580   19.1379 C   0  0  2  0  0  0  0  0  0  0  0  0
    5.9967  -18.9330   19.0613 C   0  0  0  0  0  0  0  0  0  0  0  0
    8.0600  -18.9805   17.7647 C   0  0  0  0  0  0  0  0  0  0  0  0
    7.8940  -17.5414   17.3467 C   0  0  2  0  0  0  0  0  0  0  0  0
    8.4483  -17.3981   16.0177 N   0  0  0  0  0  0  0  0  0  0  0  0
    8.5276  -16.5969   18.2857 C   0  0  0  0  0  0  0  0  0  0  0  0
    9.7827  -16.5311   18.3180 O   0  0  0  0  0  0  0  0  0  0  0  0
    7.3219  -12.8356   19.2237 C   0  0  0  0  0  0  0  0  0  0  0  0
    7.5700  -13.7419   20.3705 C   0  0  2  0  0  0  0  0  0  0  0  0
    8.0761  -12.8858   21.5383 C   0  0  0  0  0  0  0  0  0  0  0  0
    8.4763  -14.9089   20.1259 C   0  0  2  0  0  0  0  0  0  0  0  0
    7.7760  -15.7626   19.1512 N   0  0  0  0  0  0  0  0  0  0  0  0
    8.8149  -15.6938   21.3262 C   0  0  0  0  0  0  0  0  0  0  0  0
    7.8884  -16.0831   22.1159 O   0  0  0  0  0  0  0  0  0  0  0  0
    9.6376  -18.9940   21.8702 C   0  0  0  0  0  0  0  0  0  0  0  0
   10.7576  -18.2707   22.5495 C   0  0  1  0  0  0  0  0  0  0  0  0
   11.8450  -18.2859   21.6539 O   0  0  0  0  0  0  0  0  0  0  0  0
   10.3979  -16.8409   22.8946 C   0  0  2  0  0  0  0  0  0  0  0  0
   10.1311  -16.0658   21.6856 N   0  0  0  0  0  0  0  0  0  0  0  0
   11.4109  -16.1927   23.7421 C   0  0  0  0  0  0  0  0  0  0  0  0
   11.6501  -16.5540   25.0562 O   0  0  0  0  0  0  0  0  0  0  0  0
   12.1001  -15.2612   23.2576 O   0  0  0  0  0  0  0  0  0  0  0  0
  2  1  1  6
  2  3  1  0
  2  4  1  0
  4  5  1  0
  5  6  1  6
  7  8  2  0
  7  5  1  0
 10  9  1  6
 10 11  1  0
 10 12  1  0
 12 13  1  6
 12 14  1  0
 13  7  1  0
 14 20  1  0
 15 14  2  0
 17 16  1  6
 17 18  1  0
 19 21  1  0
 19 17  1  0
 19 20  1  6
 21 22  1  0
 23 21  2  0
M  END
$$$$
