LVT.pdb
     RDKit          3D

 23 22  0  0  1  0  0  0  0  0999 V2000
    4.9928  -16.3652   20.6916 C   0  0  0  0  0  0  0  0  0  0  0  0
    6.2748  -17.1012   20.9794 C   0  0  2  0  0  0  0  0  0  0  0  0
    6.0294  -18.5822   21.2246 C   0  0  0  0  0  0  0  0  0  0  0  0
    6.9669  -16.5627   22.2161 C   0  0  0  0  0  0  0  0  0  0  0  0
    7.1709  -15.0698   22.1611 C   0  0  2  0  0  0  0  0  0  0  0  0
    7.8553  -14.7603   20.9243 N   0  0  0  0  0  0  0  0  0  0  0  0
    7.9207  -14.5524   23.3210 C   0  0  0  0  0  0  0  0  0  0  0  0
    9.1769  -14.5454   23.2711 O   0  0  0  0  0  0  0  0  0  0  0  0
    5.9907  -12.9694   26.8972 C   0  0  0  0  0  0  0  0  0  0  0  0
    7.2888  -12.5548   26.3134 C   0  0  2  0  0  0  0  0  0  0  0  0
    7.0185  -11.3763   25.3695 C   0  0  0  0  0  0  0  0  0  0  0  0
    8.0932  -13.6179   25.6308 C   0  0  2  0  0  0  0  0  0  0  0  0
    7.2793  -14.0640   24.4873 N   0  0  0  0  0  0  0  0  0  0  0  0
    8.4413  -14.7724   26.4779 C   0  0  0  0  0  0  0  0  0  0  0  0
    7.5588  -15.6582   26.7426 O   0  0  0  0  0  0  0  0  0  0  0  0
   10.5469  -17.5442   25.8746 C   0  0  0  0  0  0  0  0  0  0  0  0
   11.0046  -17.0658   27.2165 C   0  0  1  0  0  0  0  0  0  0  0  0
   12.2118  -16.3715   27.0032 O   0  0  0  0  0  0  0  0  0  0  0  0
    9.9970  -16.1502   27.8791 C   0  0  2  0  0  0  0  0  0  0  0  0
    9.7212  -14.9868   27.0397 N   0  0  0  0  0  0  0  0  0  0  0  0
   10.4005  -15.7554   29.2377 C   0  0  0  0  0  0  0  0  0  0  0  0
   10.5986  -16.6587   30.2670 O   0  0  0  0  0  0  0  0  0  0  0  0
   10.5769  -14.5372   29.4875 O   0  0  0  0  0  0  0  0  0  0  0  0
  2  1  1  1
  2  3  1  0
  2  4  1  0
  4  5  1  0
  5  6  1  6
  7  8  2  0
  7  5  1  0
 10  9  1  6
 10 11  1  0
 10 12  1  0
 12 13  1  6
 12 14  1  0
 13  7  1  0
 14 20  1  0
 15 14  2  0
 17 16  1  6
 17 18  1  0
 19 21  1  0
 19 17  1  0
 19 20  1  6
 21 22  1  0
 23 21  2  0
M  END
$$$$
