LVT.pdb
     RDKit          3D

 23 22  0  0  1  0  0  0  0  0999 V2000
    5.9425  -12.1346   26.2183 C   0  0  0  0  0  0  0  0  0  0  0  0
    6.6929  -13.0218   27.1764 C   0  0  2  0  0  0  0  0  0  0  0  0
    7.8252  -12.2746   27.8643 C   0  0  0  0  0  0  0  0  0  0  0  0
    7.3182  -14.2091   26.4710 C   0  0  0  0  0  0  0  0  0  0  0  0
    6.3755  -14.8631   25.4927 C   0  0  2  0  0  0  0  0  0  0  0  0
    5.5013  -15.7426   26.2383 N   0  0  0  0  0  0  0  0  0  0  0  0
    7.0795  -15.6007   24.4270 C   0  0  0  0  0  0  0  0  0  0  0  0
    7.2266  -16.8432   24.5511 O   0  0  0  0  0  0  0  0  0  0  0  0
    7.0011  -14.6822   20.4863 C   0  0  0  0  0  0  0  0  0  0  0  0
    8.3498  -14.9802   21.0251 C   0  0  2  0  0  0  0  0  0  0  0  0
    9.1395  -15.7032   19.9268 C   0  0  0  0  0  0  0  0  0  0  0  0
    8.4096  -15.7350   22.3173 C   0  0  2  0  0  0  0  0  0  0  0  0
    7.5951  -14.9626   23.2706 N   0  0  0  0  0  0  0  0  0  0  0  0
    9.7658  -15.9292   22.8602 C   0  0  0  0  0  0  0  0  0  0  0  0
   10.4229  -14.9284   23.3075 O   0  0  0  0  0  0  0  0  0  0  0  0
   11.2473  -18.3893   25.5993 C   0  0  0  0  0  0  0  0  0  0  0  0
   11.9569  -18.5204   24.2885 C   0  0  1  0  0  0  0  0  0  0  0  0
   11.3999  -19.6417   23.6425 O   0  0  0  0  0  0  0  0  0  0  0  0
   11.7935  -17.2932   23.4167 C   0  0  2  0  0  0  0  0  0  0  0  0
   10.4208  -17.1805   22.9299 N   0  0  0  0  0  0  0  0  0  0  0  0
   12.7656  -17.2509   22.3131 C   0  0  0  0  0  0  0  0  0  0  0  0
   14.0969  -16.9144   22.4824 O   0  0  0  0  0  0  0  0  0  0  0  0
   12.3773  -17.5330   21.1525 O   0  0  0  0  0  0  0  0  0  0  0  0
  2  1  1  6
  2  3  1  0
  2  4  1  0
  4  5  1  0
  5  6  1  1
  7  8  2  0
  7  5  1  0
 10  9  1  6
 10 11  1  0
 10 12  1  0
 12 13  1  1
 12 14  1  0
 13  7  1  0
 14 20  1  0
 15 14  2  0
 17 16  1  1
 17 18  1  0
 19 21  1  0
 19 17  1  0
 19 20  1  6
 21 22  1  0
 23 21  2  0
M  END
$$$$
