LWF.pdb
     RDKit          3D

 34 36  0  0  1  0  0  0  0  0999 V2000
    9.4620  -22.1218   19.7549 C   0  0  0  0  0  0  0  0  0  0  0  0
    9.1371  -20.7560   19.2151 C   0  0  2  0  0  0  0  0  0  0  0  0
    9.3329  -20.7157   17.7178 C   0  0  0  0  0  0  0  0  0  0  0  0
    9.7746  -19.6374   19.9413 C   0  0  0  0  0  0  0  0  0  0  0  0
    9.7240  -19.6438   21.4306 C   0  0  2  0  0  0  0  0  0  0  0  0
    8.3883  -19.5146   21.9723 N   0  0  0  0  0  0  0  0  0  0  0  0
   10.5027  -18.4407   21.8669 C   0  0  0  0  0  0  0  0  0  0  0  0
   11.6925  -18.2945   21.4858 O   0  0  0  0  0  0  0  0  0  0  0  0
    9.9241  -17.4771   22.6902 N   0  0  0  0  0  0  0  0  0  0  0  0
   10.6900  -16.2730   23.1095 C   0  0  1  0  0  0  0  0  0  0  0  0
   10.3357  -15.1494   22.2084 C   0  0  0  0  0  0  0  0  0  0  0  0
    8.9487  -14.8422   21.9439 C   0  0  0  0  0  0  0  0  0  0  0  0
    7.7805  -15.3658   22.4870 C   0  0  0  0  0  0  0  0  0  0  0  0
    6.7095  -14.7881   21.9562 N   0  0  0  0  0  0  0  0  0  0  0  0
    7.1472  -13.8955   21.0753 C   0  0  0  0  0  0  0  0  0  0  0  0
    6.3796  -13.0305   20.2844 C   0  0  0  0  0  0  0  0  0  0  0  0
    6.9831  -12.1402   19.4288 C   0  0  0  0  0  0  0  0  0  0  0  0
    8.3784  -12.1306   19.3776 C   0  0  0  0  0  0  0  0  0  0  0  0
    9.1276  -12.9991   20.1720 C   0  0  0  0  0  0  0  0  0  0  0  0
    8.5236  -13.8910   21.0299 C   0  0  0  0  0  0  0  0  0  0  0  0
   10.5475  -16.0615   24.5514 C   0  0  0  0  0  0  0  0  0  0  0  0
   11.3263  -15.2448   25.1579 O   0  0  0  0  0  0  0  0  0  0  0  0
    9.5774  -16.7070   25.3383 N   0  0  0  0  0  0  0  0  0  0  0  0
    9.5137  -16.5031   26.8017 C   0  0  1  0  0  0  0  0  0  0  0  0
    8.0037  -16.2812   27.0723 C   0  0  0  0  0  0  0  0  0  0  0  0
    7.6066  -14.9194   26.6627 C   0  0  0  0  0  0  0  0  0  0  0  0
    8.4791  -13.8494   26.8892 C   0  0  0  0  0  0  0  0  0  0  0  0
    8.1169  -12.5982   26.4932 C   0  0  0  0  0  0  0  0  0  0  0  0
    6.9084  -12.3703   25.8745 C   0  0  0  0  0  0  0  0  0  0  0  0
    6.0516  -13.4503   25.6571 C   0  0  0  0  0  0  0  0  0  0  0  0
    6.3937  -14.7262   26.0480 C   0  0  0  0  0  0  0  0  0  0  0  0
    9.9190  -17.6962   27.5348 C   0  0  0  0  0  0  0  0  0  0  0  0
   10.0312  -17.6461   28.9083 O   0  0  0  0  0  0  0  0  0  0  0  0
   10.1699  -18.7763   26.9106 O   0  0  0  0  0  0  0  0  0  0  0  0
  2  1  1  1
  2  3  1  0
  4  2  1  0
  5  4  1  0
  5  6  1  6
  7  9  1  0
  7  5  1  0
  8  7  2  0
 10 21  1  0
 10  9  1  0
 10 11  1  6
 12 11  1  0
 12 20  1  0
 13 12  2  0
 14 13  1  0
 14 15  1  0
 15 16  1  0
 15 20  2  0
 16 17  2  0
 17 18  1  0
 19 18  2  0
 20 19  1  0
 21 22  2  0
 23 24  1  0
 23 21  1  0
 24 25  1  1
 26 27  2  0
 26 25  1  0
 28 27  1  0
 29 28  2  0
 30 29  1  0
 30 31  2  0
 31 26  1  0
 32 24  1  0
 33 32  1  0
 34 32  2  0
M  END
$$$$
