LWF.pdb
     RDKit          3D

 34 36  0  0  1  0  0  0  0  0999 V2000
    8.8270  -14.1706   16.8913 C   0  0  0  0  0  0  0  0  0  0  0  0
    8.0614  -13.5995   18.0533 C   0  0  2  0  0  0  0  0  0  0  0  0
    7.6857  -12.1608   17.7868 C   0  0  0  0  0  0  0  0  0  0  0  0
    8.6820  -13.8303   19.3749 C   0  0  0  0  0  0  0  0  0  0  0  0
    9.0836  -15.2203   19.7320 C   0  0  2  0  0  0  0  0  0  0  0  0
    8.0522  -16.2075   19.4958 N   0  0  0  0  0  0  0  0  0  0  0  0
    9.3528  -15.1975   21.2055 C   0  0  0  0  0  0  0  0  0  0  0  0
   10.1578  -14.3558   21.6807 O   0  0  0  0  0  0  0  0  0  0  0  0
    8.7197  -16.0976   22.0599 N   0  0  0  0  0  0  0  0  0  0  0  0
    8.9292  -16.0289   23.5308 C   0  0  1  0  0  0  0  0  0  0  0  0
    7.7375  -16.5988   24.2056 C   0  0  0  0  0  0  0  0  0  0  0  0
    6.8475  -15.7396   24.9524 C   0  0  0  0  0  0  0  0  0  0  0  0
    5.6592  -16.0183   25.6187 C   0  0  0  0  0  0  0  0  0  0  0  0
    5.1634  -14.9238   26.1834 N   0  0  0  0  0  0  0  0  0  0  0  0
    5.9995  -13.9305   25.9034 C   0  0  0  0  0  0  0  0  0  0  0  0
    5.8995  -12.5923   26.3061 C   0  0  0  0  0  0  0  0  0  0  0  0
    6.8635  -11.6788   25.9523 C   0  0  0  0  0  0  0  0  0  0  0  0
    7.9370  -12.1308   25.1825 C   0  0  0  0  0  0  0  0  0  0  0  0
    8.0210  -13.4670   24.7897 C   0  0  0  0  0  0  0  0  0  0  0  0
    7.0558  -14.3829   25.1444 C   0  0  0  0  0  0  0  0  0  0  0  0
   10.2395  -16.5811   23.8800 C   0  0  0  0  0  0  0  0  0  0  0  0
   10.7747  -17.4767   23.1366 O   0  0  0  0  0  0  0  0  0  0  0  0
   10.9776  -16.1754   25.0060 N   0  0  0  0  0  0  0  0  0  0  0  0
   12.2667  -16.8126   25.3512 C   0  0  1  0  0  0  0  0  0  0  0  0
   12.8952  -15.8310   26.3730 C   0  0  0  0  0  0  0  0  0  0  0  0
   11.8989  -15.4505   27.3942 C   0  0  0  0  0  0  0  0  0  0  0  0
   11.2131  -16.4492   28.0940 C   0  0  0  0  0  0  0  0  0  0  0  0
   10.3088  -16.0941   29.0478 C   0  0  0  0  0  0  0  0  0  0  0  0
   10.0598  -14.7707   29.3336 C   0  0  0  0  0  0  0  0  0  0  0  0
   10.7538  -13.7889   28.6250 C   0  0  0  0  0  0  0  0  0  0  0  0
   11.6738  -14.1209   27.6550 C   0  0  0  0  0  0  0  0  0  0  0  0
   12.0776  -18.0889   26.0298 C   0  0  0  0  0  0  0  0  0  0  0  0
   10.8039  -18.5038   26.3573 O   0  0  0  0  0  0  0  0  0  0  0  0
   13.0819  -18.8142   26.3202 O   0  0  0  0  0  0  0  0  0  0  0  0
  2  1  1  6
  2  3  1  0
  4  2  1  0
  5  4  1  0
  5  6  1  1
  7  9  1  0
  7  5  1  0
  8  7  2  0
 10 21  1  0
 10  9  1  0
 10 11  1  1
 12 11  1  0
 12 20  1  0
 13 12  2  0
 14 13  1  0
 14 15  1  0
 15 16  1  0
 15 20  2  0
 16 17  2  0
 17 18  1  0
 19 18  2  0
 20 19  1  0
 21 22  2  0
 23 24  1  0
 23 21  1  0
 24 25  1  1
 26 27  2  0
 26 25  1  0
 28 27  1  0
 29 28  2  0
 30 29  1  0
 30 31  2  0
 31 26  1  0
 32 24  1  0
 33 32  1  0
 34 32  2  0
M  END
$$$$
