LWF.pdb
     RDKit          3D

 34 36  0  0  1  0  0  0  0  0999 V2000
    8.3954  -14.7849   16.9407 C   0  0  0  0  0  0  0  0  0  0  0  0
    7.5837  -14.1845   18.0556 C   0  0  2  0  0  0  0  0  0  0  0  0
    7.0935  -12.8074   17.6744 C   0  0  0  0  0  0  0  0  0  0  0  0
    8.2180  -14.2559   19.3889 C   0  0  0  0  0  0  0  0  0  0  0  0
    8.8182  -15.5514   19.8156 C   0  0  2  0  0  0  0  0  0  0  0  0
    7.9268  -16.6834   19.6796 N   0  0  0  0  0  0  0  0  0  0  0  0
    9.1240  -15.3947   21.2737 C   0  0  0  0  0  0  0  0  0  0  0  0
    9.8792  -14.4648   21.6573 O   0  0  0  0  0  0  0  0  0  0  0  0
    8.5796  -16.2668   22.2141 N   0  0  0  0  0  0  0  0  0  0  0  0
    8.8426  -16.0830   23.6664 C   0  0  1  0  0  0  0  0  0  0  0  0
    7.6815  -16.6056   24.4273 C   0  0  0  0  0  0  0  0  0  0  0  0
    6.8260  -15.6984   25.1575 C   0  0  0  0  0  0  0  0  0  0  0  0
    5.6921  -15.9362   25.9264 C   0  0  0  0  0  0  0  0  0  0  0  0
    5.2123  -14.8044   26.4279 N   0  0  0  0  0  0  0  0  0  0  0  0
    6.0059  -13.8264   26.0058 C   0  0  0  0  0  0  0  0  0  0  0  0
    5.9047  -12.4599   26.2978 C   0  0  0  0  0  0  0  0  0  0  0  0
    6.8224  -11.5659   25.8003 C   0  0  0  0  0  0  0  0  0  0  0  0
    7.8506  -12.0667   24.9995 C   0  0  0  0  0  0  0  0  0  0  0  0
    7.9365  -13.4306   24.7184 C   0  0  0  0  0  0  0  0  0  0  0  0
    7.0176  -14.3270   25.2169 C   0  0  0  0  0  0  0  0  0  0  0  0
   10.1696  -16.5991   24.0079 C   0  0  0  0  0  0  0  0  0  0  0  0
   10.6912  -17.5360   23.3069 O   0  0  0  0  0  0  0  0  0  0  0  0
   10.9383  -16.1144   25.0810 N   0  0  0  0  0  0  0  0  0  0  0  0
   12.2404  -16.7219   25.4306 C   0  0  1  0  0  0  0  0  0  0  0  0
   12.8063  -15.7695   26.5148 C   0  0  0  0  0  0  0  0  0  0  0  0
   11.7793  -15.4953   27.5395 C   0  0  0  0  0  0  0  0  0  0  0  0
   11.7041  -16.3090   28.6752 C   0  0  0  0  0  0  0  0  0  0  0  0
   10.7677  -16.0414   29.6265 C   0  0  0  0  0  0  0  0  0  0  0  0
    9.8960  -14.9849   29.4886 C   0  0  0  0  0  0  0  0  0  0  0  0
    9.9865  -14.1845   28.3489 C   0  0  0  0  0  0  0  0  0  0  0  0
   10.9247  -14.4334   27.3713 C   0  0  0  0  0  0  0  0  0  0  0  0
   12.0805  -18.0354   26.0425 C   0  0  0  0  0  0  0  0  0  0  0  0
   10.8143  -18.5169   26.3004 O   0  0  0  0  0  0  0  0  0  0  0  0
   13.1033  -18.7320   26.3388 O   0  0  0  0  0  0  0  0  0  0  0  0
  2  1  1  6
  2  3  1  0
  4  2  1  0
  5  4  1  0
  5  6  1  1
  7  9  1  0
  7  5  1  0
  8  7  2  0
 10 21  1  0
 10  9  1  0
 10 11  1  1
 12 11  1  0
 12 20  1  0
 13 12  2  0
 14 13  1  0
 14 15  1  0
 15 16  1  0
 15 20  2  0
 16 17  2  0
 17 18  1  0
 19 18  2  0
 20 19  1  0
 21 22  2  0
 23 24  1  0
 23 21  1  0
 24 25  1  1
 26 27  2  0
 26 25  1  0
 28 27  1  0
 29 28  2  0
 30 29  1  0
 30 31  2  0
 31 26  1  0
 32 24  1  0
 33 32  1  0
 34 32  2  0
M  END
$$$$
