LWF.pdb
     RDKit          3D

 34 36  0  0  1  0  0  0  0  0999 V2000
    8.1257  -14.1827   17.2648 C   0  0  0  0  0  0  0  0  0  0  0  0
    7.6514  -13.6458   18.5874 C   0  0  2  0  0  0  0  0  0  0  0  0
    7.4878  -12.1454   18.5242 C   0  0  0  0  0  0  0  0  0  0  0  0
    8.4161  -14.1246   19.7583 C   0  0  0  0  0  0  0  0  0  0  0  0
    8.5820  -15.5945   19.9388 C   0  0  2  0  0  0  0  0  0  0  0  0
    7.3335  -16.3120   20.0832 N   0  0  0  0  0  0  0  0  0  0  0  0
    9.3450  -15.7614   21.2171 C   0  0  0  0  0  0  0  0  0  0  0  0
   10.4958  -15.2657   21.3272 O   0  0  0  0  0  0  0  0  0  0  0  0
    8.7944  -16.4588   22.2902 N   0  0  0  0  0  0  0  0  0  0  0  0
    9.6069  -16.7657   23.4976 C   0  0  1  0  0  0  0  0  0  0  0  0
    9.3885  -15.6942   24.4998 C   0  0  0  0  0  0  0  0  0  0  0  0
    8.0576  -15.4237   24.9932 C   0  0  0  0  0  0  0  0  0  0  0  0
    7.0227  -16.2852   25.3405 C   0  0  0  0  0  0  0  0  0  0  0  0
    5.9594  -15.6071   25.7555 N   0  0  0  0  0  0  0  0  0  0  0  0
    6.2717  -14.3178   25.6889 C   0  0  0  0  0  0  0  0  0  0  0  0
    5.4689  -13.2263   26.0453 C   0  0  0  0  0  0  0  0  0  0  0  0
    5.9444  -11.9412   25.9399 C   0  0  0  0  0  0  0  0  0  0  0  0
    7.2467  -11.7657   25.4680 C   0  0  0  0  0  0  0  0  0  0  0  0
    8.0326  -12.8640   25.1173 C   0  0  0  0  0  0  0  0  0  0  0  0
    7.5570  -14.1519   25.2231 C   0  0  0  0  0  0  0  0  0  0  0  0
    9.3810  -18.1496   23.9192 C   0  0  0  0  0  0  0  0  0  0  0  0
    8.8356  -18.9827   23.1130 O   0  0  0  0  0  0  0  0  0  0  0  0
    9.7422  -18.6441   25.1849 N   0  0  0  0  0  0  0  0  0  0  0  0
   10.5507  -17.8372   26.1241 C   0  0  1  0  0  0  0  0  0  0  0  0
    9.6368  -16.6265   26.4429 C   0  0  0  0  0  0  0  0  0  0  0  0
   10.2352  -15.8031   27.5125 C   0  0  0  0  0  0  0  0  0  0  0  0
   11.2627  -16.3352   28.2990 C   0  0  0  0  0  0  0  0  0  0  0  0
   11.8243  -15.5662   29.2719 C   0  0  0  0  0  0  0  0  0  0  0  0
   11.3980  -14.2760   29.4929 C   0  0  0  0  0  0  0  0  0  0  0  0
   10.3720  -13.7628   28.6981 C   0  0  0  0  0  0  0  0  0  0  0  0
    9.7866  -14.5197   27.7071 C   0  0  0  0  0  0  0  0  0  0  0  0
   10.7947  -18.5430   27.3762 C   0  0  0  0  0  0  0  0  0  0  0  0
   12.0027  -18.3855   28.0224 O   0  0  0  0  0  0  0  0  0  0  0  0
    9.8993  -19.3014   27.8682 O   0  0  0  0  0  0  0  0  0  0  0  0
  2  1  1  6
  2  3  1  0
  4  2  1  0
  5  4  1  0
  5  6  1  1
  7  9  1  0
  7  5  1  0
  8  7  2  0
 10 21  1  0
 10  9  1  0
 10 11  1  1
 12 11  1  0
 12 20  1  0
 13 12  2  0
 14 13  1  0
 14 15  1  0
 15 16  1  0
 15 20  2  0
 16 17  2  0
 17 18  1  0
 19 18  2  0
 20 19  1  0
 21 22  2  0
 23 24  1  0
 23 21  1  0
 24 25  1  1
 26 27  2  0
 26 25  1  0
 28 27  1  0
 29 28  2  0
 30 29  1  0
 30 31  2  0
 31 26  1  0
 32 24  1  0
 33 32  1  0
 34 32  2  0
M  END
$$$$
