LWF.pdb
     RDKit          3D

 34 36  0  0  1  0  0  0  0  0999 V2000
   10.5025  -22.3337   19.2894 C   0  0  0  0  0  0  0  0  0  0  0  0
   11.6664  -21.3904   19.1551 C   0  0  2  0  0  0  0  0  0  0  0  0
   12.9678  -22.1109   19.4182 C   0  0  0  0  0  0  0  0  0  0  0  0
   11.5175  -20.1172   19.8912 C   0  0  0  0  0  0  0  0  0  0  0  0
   10.2043  -19.4156   19.8277 C   0  0  2  0  0  0  0  0  0  0  0  0
    9.8932  -18.8709   18.5235 N   0  0  0  0  0  0  0  0  0  0  0  0
   10.3147  -18.2639   20.7794 C   0  0  0  0  0  0  0  0  0  0  0  0
   11.2777  -17.4608   20.6795 O   0  0  0  0  0  0  0  0  0  0  0  0
    9.3607  -18.0685   21.7757 N   0  0  0  0  0  0  0  0  0  0  0  0
    9.4394  -16.8958   22.6873 C   0  0  1  0  0  0  0  0  0  0  0  0
    8.1491  -16.1662   22.6321 C   0  0  0  0  0  0  0  0  0  0  0  0
    8.0606  -14.8122   23.1288 C   0  0  0  0  0  0  0  0  0  0  0  0
    8.5128  -13.6129   22.5893 C   0  0  0  0  0  0  0  0  0  0  0  0
    8.2131  -12.5920   23.3833 N   0  0  0  0  0  0  0  0  0  0  0  0
    7.5733  -13.0930   24.4340 C   0  0  0  0  0  0  0  0  0  0  0  0
    7.0459  -12.3910   25.5258 C   0  0  0  0  0  0  0  0  0  0  0  0
    6.3858  -13.0529   26.5333 C   0  0  0  0  0  0  0  0  0  0  0  0
    6.2618  -14.4397   26.4288 C   0  0  0  0  0  0  0  0  0  0  0  0
    6.7933  -15.1232   25.3347 C   0  0  0  0  0  0  0  0  0  0  0  0
    7.4544  -14.4606   24.3246 C   0  0  0  0  0  0  0  0  0  0  0  0
    9.9320  -17.3112   24.0021 C   0  0  0  0  0  0  0  0  0  0  0  0
    9.5472  -18.4242   24.5067 O   0  0  0  0  0  0  0  0  0  0  0  0
   10.8344  -16.5522   24.7681 N   0  0  0  0  0  0  0  0  0  0  0  0
   11.5659  -17.1467   25.9075 C   0  0  1  0  0  0  0  0  0  0  0  0
   12.2354  -15.9249   26.5869 C   0  0  0  0  0  0  0  0  0  0  0  0
   11.2071  -15.0254   27.1467 C   0  0  0  0  0  0  0  0  0  0  0  0
   10.8284  -15.1607   28.4867 C   0  0  0  0  0  0  0  0  0  0  0  0
    9.8933  -14.3171   29.0039 C   0  0  0  0  0  0  0  0  0  0  0  0
    9.3162  -13.3353   28.2305 C   0  0  0  0  0  0  0  0  0  0  0  0
    9.7070  -13.2159   26.8960 C   0  0  0  0  0  0  0  0  0  0  0  0
   10.6508  -14.0564   26.3479 C   0  0  0  0  0  0  0  0  0  0  0  0
   10.6613  -17.7471   26.8804 C   0  0  0  0  0  0  0  0  0  0  0  0
    9.2984  -17.6408   26.6991 O   0  0  0  0  0  0  0  0  0  0  0  0
   11.1268  -18.3631   27.8918 O   0  0  0  0  0  0  0  0  0  0  0  0
  2  1  1  1
  2  3  1  0
  4  2  1  0
  5  4  1  0
  5  6  1  6
  7  9  1  0
  7  5  1  0
  8  7  2  0
 10 21  1  0
 10  9  1  0
 10 11  1  1
 12 11  1  0
 12 20  1  0
 13 12  2  0
 14 13  1  0
 14 15  1  0
 15 16  1  0
 15 20  2  0
 16 17  2  0
 17 18  1  0
 19 18  2  0
 20 19  1  0
 21 22  2  0
 23 24  1  0
 23 21  1  0
 24 25  1  1
 26 27  2  0
 26 25  1  0
 28 27  1  0
 29 28  2  0
 30 29  1  0
 30 31  2  0
 31 26  1  0
 32 24  1  0
 33 32  1  0
 34 32  2  0
M  END
$$$$
