LWF.pdb
     RDKit          3D

 34 36  0  0  1  0  0  0  0  0999 V2000
    7.2895  -12.1399   19.1411 C   0  0  0  0  0  0  0  0  0  0  0  0
    8.2329  -13.2549   19.5004 C   0  0  2  0  0  0  0  0  0  0  0  0
    9.6071  -12.9930   18.9304 C   0  0  0  0  0  0  0  0  0  0  0  0
    7.7138  -14.6131   19.2340 C   0  0  0  0  0  0  0  0  0  0  0  0
    8.4989  -15.7780   19.7312 C   0  0  2  0  0  0  0  0  0  0  0  0
    7.9059  -17.0607   19.4193 N   0  0  0  0  0  0  0  0  0  0  0  0
    8.5194  -15.6448   21.2232 C   0  0  0  0  0  0  0  0  0  0  0  0
    7.6530  -14.9380   21.7993 O   0  0  0  0  0  0  0  0  0  0  0  0
    9.4871  -16.2973   21.9840 N   0  0  0  0  0  0  0  0  0  0  0  0
    9.5057  -16.1699   23.4658 C   0  0  1  0  0  0  0  0  0  0  0  0
    8.2634  -16.7722   24.0081 C   0  0  0  0  0  0  0  0  0  0  0  0
    7.3082  -15.9500   24.7149 C   0  0  0  0  0  0  0  0  0  0  0  0
    6.1297  -16.2845   25.3729 C   0  0  0  0  0  0  0  0  0  0  0  0
    5.5557  -15.2077   25.8959 N   0  0  0  0  0  0  0  0  0  0  0  0
    6.3307  -14.1713   25.5965 C   0  0  0  0  0  0  0  0  0  0  0  0
    6.1385  -12.8308   25.9555 C   0  0  0  0  0  0  0  0  0  0  0  0
    7.0474  -11.8681   25.5866 C   0  0  0  0  0  0  0  0  0  0  0  0
    8.1600  -12.2729   24.8466 C   0  0  0  0  0  0  0  0  0  0  0  0
    8.3359  -13.6123   24.4973 C   0  0  0  0  0  0  0  0  0  0  0  0
    7.4259  -14.5774   24.8670 C   0  0  0  0  0  0  0  0  0  0  0  0
   10.7835  -16.6484   23.9971 C   0  0  0  0  0  0  0  0  0  0  0  0
   11.4010  -17.6063   23.4118 O   0  0  0  0  0  0  0  0  0  0  0  0
   11.4029  -16.1044   25.1362 N   0  0  0  0  0  0  0  0  0  0  0  0
   12.1481  -16.9566   26.0876 C   0  0  1  0  0  0  0  0  0  0  0  0
   11.1786  -17.0936   27.2892 C   0  0  0  0  0  0  0  0  0  0  0  0
   10.8689  -15.7630   27.8493 C   0  0  0  0  0  0  0  0  0  0  0  0
   11.4779  -14.6272   27.3049 C   0  0  0  0  0  0  0  0  0  0  0  0
   11.1755  -13.4005   27.8121 C   0  0  0  0  0  0  0  0  0  0  0  0
   10.2816  -13.2609   28.8496 C   0  0  0  0  0  0  0  0  0  0  0  0
    9.6842  -14.4056   29.3794 C   0  0  0  0  0  0  0  0  0  0  0  0
    9.9727  -15.6585   28.8848 C   0  0  0  0  0  0  0  0  0  0  0  0
   12.3766  -18.2944   25.5551 C   0  0  0  0  0  0  0  0  0  0  0  0
   13.3077  -19.1161   26.1547 O   0  0  0  0  0  0  0  0  0  0  0  0
   11.7227  -18.6999   24.5417 O   0  0  0  0  0  0  0  0  0  0  0  0
  2  1  1  6
  2  3  1  0
  4  2  1  0
  5  4  1  0
  5  6  1  1
  7  9  1  0
  7  5  1  0
  8  7  2  0
 10 21  1  0
 10  9  1  0
 10 11  1  1
 12 11  1  0
 12 20  1  0
 13 12  2  0
 14 13  1  0
 14 15  1  0
 15 16  1  0
 15 20  2  0
 16 17  2  0
 17 18  1  0
 19 18  2  0
 20 19  1  0
 21 22  2  0
 23 24  1  0
 23 21  1  0
 24 25  1  1
 26 27  2  0
 26 25  1  0
 28 27  1  0
 29 28  2  0
 30 29  1  0
 30 31  2  0
 31 26  1  0
 32 24  1  0
 33 32  1  0
 34 32  2  0
M  END
$$$$
