LWF.pdb
     RDKit          3D

 34 36  0  0  1  0  0  0  0  0999 V2000
   11.3489  -18.6163   18.4982 C   0  0  0  0  0  0  0  0  0  0  0  0
   11.8479  -17.1979   18.5370 C   0  0  2  0  0  0  0  0  0  0  0  0
   13.3421  -17.1539   18.3191 C   0  0  0  0  0  0  0  0  0  0  0  0
   11.3799  -16.4101   19.6969 C   0  0  0  0  0  0  0  0  0  0  0  0
    9.9331  -16.4659   20.0494 C   0  0  2  0  0  0  0  0  0  0  0  0
    9.1082  -15.5539   19.2865 N   0  0  0  0  0  0  0  0  0  0  0  0
    9.8505  -16.0496   21.4861 C   0  0  0  0  0  0  0  0  0  0  0  0
    9.9696  -14.8355   21.7927 O   0  0  0  0  0  0  0  0  0  0  0  0
    9.6408  -16.9920   22.4906 N   0  0  0  0  0  0  0  0  0  0  0  0
    9.5243  -16.5764   23.9138 C   0  0  1  0  0  0  0  0  0  0  0  0
    8.1891  -16.9812   24.4172 C   0  0  0  0  0  0  0  0  0  0  0  0
    7.2414  -15.9780   24.8458 C   0  0  0  0  0  0  0  0  0  0  0  0
    5.9747  -16.1022   25.4058 C   0  0  0  0  0  0  0  0  0  0  0  0
    5.4468  -14.9099   25.6555 N   0  0  0  0  0  0  0  0  0  0  0  0
    6.3386  -14.0033   25.2720 C   0  0  0  0  0  0  0  0  0  0  0  0
    6.2298  -12.6093   25.3605 C   0  0  0  0  0  0  0  0  0  0  0  0
    7.2549  -11.7969   24.9385 C   0  0  0  0  0  0  0  0  0  0  0  0
    8.3991  -12.4081   24.4221 C   0  0  0  0  0  0  0  0  0  0  0  0
    8.4909  -13.7980   24.3408 C   0  0  0  0  0  0  0  0  0  0  0  0
    7.4644  -14.6125   24.7640 C   0  0  0  0  0  0  0  0  0  0  0  0
   10.6996  -17.0192   24.6664 C   0  0  0  0  0  0  0  0  0  0  0  0
   11.4701  -17.9187   24.1779 O   0  0  0  0  0  0  0  0  0  0  0  0
   11.0564  -16.5012   25.9240 N   0  0  0  0  0  0  0  0  0  0  0  0
   12.1827  -17.0668   26.6977 C   0  0  1  0  0  0  0  0  0  0  0  0
   12.1417  -16.2761   28.0302 C   0  0  0  0  0  0  0  0  0  0  0  0
   10.9848  -15.3588   28.0438 C   0  0  0  0  0  0  0  0  0  0  0  0
   11.0660  -14.1365   27.3679 C   0  0  0  0  0  0  0  0  0  0  0  0
    9.9904  -13.3019   27.3675 C   0  0  0  0  0  0  0  0  0  0  0  0
    8.8268  -13.6416   28.0200 C   0  0  0  0  0  0  0  0  0  0  0  0
    8.7649  -14.8651   28.6886 C   0  0  0  0  0  0  0  0  0  0  0  0
    9.8387  -15.7279   28.7046 C   0  0  0  0  0  0  0  0  0  0  0  0
   11.9706  -18.4734   27.0169 C   0  0  0  0  0  0  0  0  0  0  0  0
   10.7510  -19.0569   26.7453 O   0  0  0  0  0  0  0  0  0  0  0  0
   12.9045  -19.1575   27.5451 O   0  0  0  0  0  0  0  0  0  0  0  0
  2  1  1  1
  2  3  1  0
  4  2  1  0
  5  4  1  0
  5  6  1  6
  7  9  1  0
  7  5  1  0
  8  7  2  0
 10 21  1  0
 10  9  1  0
 10 11  1  1
 12 11  1  0
 12 20  1  0
 13 12  2  0
 14 13  1  0
 14 15  1  0
 15 16  1  0
 15 20  2  0
 16 17  2  0
 17 18  1  0
 19 18  2  0
 20 19  1  0
 21 22  2  0
 23 24  1  0
 23 21  1  0
 24 25  1  1
 26 27  2  0
 26 25  1  0
 28 27  1  0
 29 28  2  0
 30 29  1  0
 30 31  2  0
 31 26  1  0
 32 24  1  0
 33 32  1  0
 34 32  2  0
M  END
$$$$
