LWF.pdb
     RDKit          3D

 34 36  0  0  1  0  0  0  0  0999 V2000
    8.6451  -13.9984   16.9149 C   0  0  0  0  0  0  0  0  0  0  0  0
    7.7700  -13.5981   18.0710 C   0  0  2  0  0  0  0  0  0  0  0  0
    7.1416  -12.2476   17.8193 C   0  0  0  0  0  0  0  0  0  0  0  0
    8.4018  -13.7357   19.4002 C   0  0  0  0  0  0  0  0  0  0  0  0
    9.0029  -15.0503   19.7623 C   0  0  2  0  0  0  0  0  0  0  0  0
    8.1346  -16.1808   19.5124 N   0  0  0  0  0  0  0  0  0  0  0  0
    9.2467  -14.9905   21.2392 C   0  0  0  0  0  0  0  0  0  0  0  0
    9.8519  -14.0047   21.7332 O   0  0  0  0  0  0  0  0  0  0  0  0
    8.8086  -16.0146   22.0761 N   0  0  0  0  0  0  0  0  0  0  0  0
    9.1011  -15.9856   23.5341 C   0  0  1  0  0  0  0  0  0  0  0  0
    7.9357  -16.5447   24.2617 C   0  0  0  0  0  0  0  0  0  0  0  0
    7.0121  -15.6624   24.9375 C   0  0  0  0  0  0  0  0  0  0  0  0
    5.8499  -15.9342   25.6510 C   0  0  0  0  0  0  0  0  0  0  0  0
    5.3048  -14.8160   26.1148 N   0  0  0  0  0  0  0  0  0  0  0  0
    6.0830  -13.8138   25.7221 C   0  0  0  0  0  0  0  0  0  0  0  0
    5.9178  -12.4491   25.9929 C   0  0  0  0  0  0  0  0  0  0  0  0
    6.8267  -11.5269   25.5322 C   0  0  0  0  0  0  0  0  0  0  0  0
    7.9117  -11.9974   24.7899 C   0  0  0  0  0  0  0  0  0  0  0  0
    8.0609  -13.3599   24.5290 C   0  0  0  0  0  0  0  0  0  0  0  0
    7.1508  -14.2844   24.9909 C   0  0  0  0  0  0  0  0  0  0  0  0
   10.4154  -16.5750   23.7967 C   0  0  0  0  0  0  0  0  0  0  0  0
   10.7734  -17.6397   23.1805 O   0  0  0  0  0  0  0  0  0  0  0  0
   11.3442  -16.0293   24.7005 N   0  0  0  0  0  0  0  0  0  0  0  0
   12.0720  -16.8825   25.6645 C   0  0  1  0  0  0  0  0  0  0  0  0
   10.9891  -17.2563   26.7087 C   0  0  0  0  0  0  0  0  0  0  0  0
   10.5382  -16.0497   27.4304 C   0  0  0  0  0  0  0  0  0  0  0  0
   11.3275  -14.8949   27.4034 C   0  0  0  0  0  0  0  0  0  0  0  0
   10.8990  -13.7788   28.0548 C   0  0  0  0  0  0  0  0  0  0  0  0
    9.7037  -13.7691   28.7377 C   0  0  0  0  0  0  0  0  0  0  0  0
    8.9302  -14.9307   28.7532 C   0  0  0  0  0  0  0  0  0  0  0  0
    9.3406  -16.0734   28.1025 C   0  0  0  0  0  0  0  0  0  0  0  0
   12.5354  -18.1215   25.0519 C   0  0  0  0  0  0  0  0  0  0  0  0
   11.9707  -18.5486   23.8684 O   0  0  0  0  0  0  0  0  0  0  0  0
   13.4533  -18.8057   25.6072 O   0  0  0  0  0  0  0  0  0  0  0  0
  2  1  1  6
  2  3  1  0
  4  2  1  0
  5  4  1  0
  5  6  1  1
  7  9  1  0
  7  5  1  0
  8  7  2  0
 10 21  1  0
 10  9  1  0
 10 11  1  1
 12 11  1  0
 12 20  1  0
 13 12  2  0
 14 13  1  0
 14 15  1  0
 15 16  1  0
 15 20  2  0
 16 17  2  0
 17 18  1  0
 19 18  2  0
 20 19  1  0
 21 22  2  0
 23 24  1  0
 23 21  1  0
 24 25  1  1
 26 27  2  0
 26 25  1  0
 28 27  1  0
 29 28  2  0
 30 29  1  0
 30 31  2  0
 31 26  1  0
 32 24  1  0
 33 32  1  0
 34 32  2  0
M  END
$$$$
