LWF.pdb
     RDKit          3D

 34 36  0  0  1  0  0  0  0  0999 V2000
    9.3092  -14.4492   16.8575 C   0  0  0  0  0  0  0  0  0  0  0  0
    8.5285  -13.9424   18.0392 C   0  0  2  0  0  0  0  0  0  0  0  0
    7.8787  -12.6170   17.7182 C   0  0  0  0  0  0  0  0  0  0  0  0
    9.2650  -13.9632   19.3206 C   0  0  0  0  0  0  0  0  0  0  0  0
    9.8674  -15.2512   19.7668 C   0  0  2  0  0  0  0  0  0  0  0  0
    9.1389  -16.4222   19.3280 N   0  0  0  0  0  0  0  0  0  0  0  0
    9.8143  -15.2255   21.2636 C   0  0  0  0  0  0  0  0  0  0  0  0
   10.3104  -14.2539   21.8899 O   0  0  0  0  0  0  0  0  0  0  0  0
    9.2187  -16.2657   21.9739 N   0  0  0  0  0  0  0  0  0  0  0  0
    8.9781  -16.1501   23.4371 C   0  0  1  0  0  0  0  0  0  0  0  0
    7.5230  -16.2880   23.6897 C   0  0  0  0  0  0  0  0  0  0  0  0
    6.9319  -15.6913   24.8655 C   0  0  0  0  0  0  0  0  0  0  0  0
    6.1986  -16.2568   25.9029 C   0  0  0  0  0  0  0  0  0  0  0  0
    5.8477  -15.3366   26.7932 N   0  0  0  0  0  0  0  0  0  0  0  0
    6.3341  -14.1773   26.3645 C   0  0  0  0  0  0  0  0  0  0  0  0
    6.2323  -12.9269   26.9880 C   0  0  0  0  0  0  0  0  0  0  0  0
    6.8119  -11.8138   26.4277 C   0  0  0  0  0  0  0  0  0  0  0  0
    7.5000  -11.9747   25.2236 C   0  0  0  0  0  0  0  0  0  0  0  0
    7.5916  -13.2274   24.6159 C   0  0  0  0  0  0  0  0  0  0  0  0
    7.0115  -14.3431   25.1770 C   0  0  0  0  0  0  0  0  0  0  0  0
    9.8841  -17.0375   24.1689 C   0  0  0  0  0  0  0  0  0  0  0  0
   10.4190  -18.0378   23.5731 O   0  0  0  0  0  0  0  0  0  0  0  0
   10.2251  -16.8552   25.5208 N   0  0  0  0  0  0  0  0  0  0  0  0
   11.1470  -17.7812   26.2133 C   0  0  1  0  0  0  0  0  0  0  0  0
   11.0417  -17.3547   27.6998 C   0  0  0  0  0  0  0  0  0  0  0  0
   10.6189  -15.9434   27.7969 C   0  0  0  0  0  0  0  0  0  0  0  0
   10.8585  -15.0766   26.7252 C   0  0  0  0  0  0  0  0  0  0  0  0
   10.4505  -13.7806   26.8115 C   0  0  0  0  0  0  0  0  0  0  0  0
    9.8072  -13.3112   27.9344 C   0  0  0  0  0  0  0  0  0  0  0  0
    9.5771  -14.1909   28.9932 C   0  0  0  0  0  0  0  0  0  0  0  0
    9.9797  -15.5069   28.9316 C   0  0  0  0  0  0  0  0  0  0  0  0
   10.6974  -19.1649   26.1222 C   0  0  0  0  0  0  0  0  0  0  0  0
   11.5184  -20.1786   26.5696 O   0  0  0  0  0  0  0  0  0  0  0  0
    9.5554  -19.4356   25.6304 O   0  0  0  0  0  0  0  0  0  0  0  0
  2  1  1  6
  2  3  1  0
  4  2  1  0
  5  4  1  0
  5  6  1  6
  7  9  1  0
  7  5  1  0
  8  7  2  0
 10 21  1  0
 10  9  1  0
 10 11  1  6
 12 11  1  0
 12 20  1  0
 13 12  2  0
 14 13  1  0
 14 15  1  0
 15 16  1  0
 15 20  2  0
 16 17  2  0
 17 18  1  0
 19 18  2  0
 20 19  1  0
 21 22  2  0
 23 24  1  0
 23 21  1  0
 24 25  1  1
 26 27  2  0
 26 25  1  0
 28 27  1  0
 29 28  2  0
 30 29  1  0
 30 31  2  0
 31 26  1  0
 32 24  1  0
 33 32  1  0
 34 32  2  0
M  END
$$$$
