LFF.pdb
     RDKit          3D

 31 32  0  0  1  0  0  0  0  0999 V2000
   27.9501  -15.7708  -16.6088 C   0  0  0  0  0  0  0  0  0  0  0  0
   27.7424  -17.2724  -16.3465 C   0  0  1  0  0  0  0  0  0  0  0  0
   28.8902  -17.9771  -16.9832 C   0  0  0  0  0  0  0  0  0  0  0  0
   27.6083  -17.4184  -14.8774 C   0  0  0  0  0  0  0  0  0  0  0  0
   27.5269  -18.8163  -14.3492 C   0  0  2  0  0  0  0  0  0  0  0  0
   27.1619  -19.8208  -15.2854 N   0  0  0  0  0  0  0  0  0  0  0  0
   26.6968  -18.9368  -13.1390 C   0  0  0  0  0  0  0  0  0  0  0  0
   26.1585  -17.9606  -12.5582 O   0  0  0  0  0  0  0  0  0  0  0  0
   26.4815  -20.2202  -12.5821 N   0  0  0  0  0  0  0  0  0  0  0  0
   25.6353  -20.4170  -11.4108 C   0  0  1  0  0  0  0  0  0  0  0  0
   24.6401  -21.5233  -11.6963 C   0  0  0  0  0  0  0  0  0  0  0  0
   23.4530  -21.0682  -12.4309 C   0  0  0  0  0  0  0  0  0  0  0  0
   23.3698  -21.3580  -13.7882 C   0  0  0  0  0  0  0  0  0  0  0  0
   22.2686  -20.9537  -14.5091 C   0  0  0  0  0  0  0  0  0  0  0  0
   21.2657  -20.2665  -13.8682 C   0  0  0  0  0  0  0  0  0  0  0  0
   21.3621  -19.9854  -12.5174 C   0  0  0  0  0  0  0  0  0  0  0  0
   22.4675  -20.3860  -11.7718 C   0  0  0  0  0  0  0  0  0  0  0  0
   26.5047  -20.7209  -10.2490 C   0  0  0  0  0  0  0  0  0  0  0  0
   27.3855  -21.6173  -10.2924 O   0  0  0  0  0  0  0  0  0  0  0  0
   26.3733  -20.0021   -9.0297 N   0  0  0  0  0  0  0  0  0  0  0  0
   27.1849  -20.4005   -7.8662 C   0  0  1  0  0  0  0  0  0  0  0  0
   27.6578  -19.1232   -7.2541 C   0  0  0  0  0  0  0  0  0  0  0  0
   28.3728  -19.3696   -6.0041 C   0  0  0  0  0  0  0  0  0  0  0  0
   29.7323  -19.6080   -5.9297 C   0  0  0  0  0  0  0  0  0  0  0  0
   30.3194  -19.8093   -4.7065 C   0  0  0  0  0  0  0  0  0  0  0  0
   29.5994  -19.7834   -3.5291 C   0  0  0  0  0  0  0  0  0  0  0  0
   28.2574  -19.5478   -3.6041 C   0  0  0  0  0  0  0  0  0  0  0  0
   27.6558  -19.3448   -4.8173 C   0  0  0  0  0  0  0  0  0  0  0  0
   26.3132  -21.1196   -6.9211 C   0  0  0  0  0  0  0  0  0  0  0  0
   26.8765  -21.9370   -5.9502 O   0  0  0  0  0  0  0  0  0  0  0  0
   25.0776  -21.0252   -6.9555 O   0  0  0  0  0  0  0  0  0  0  0  0
  2  1  1  1
  3  2  1  0
  4  5  1  0
  4  2  1  0
  5  7  1  0
  5  6  1  6
  7  8  2  0
  9 10  1  0
  9  7  1  0
 11 12  1  0
 10 11  1  6
 12 17  2  0
 13 14  2  0
 13 12  1  0
 14 15  1  0
 15 16  2  0
 17 16  1  0
 18 20  1  0
 18 10  1  0
 19 18  2  0
 21 20  1  0
 21 22  1  1
 23 22  1  0
 23 24  2  0
 25 24  1  0
 26 25  2  0
 27 28  2  0
 27 26  1  0
 28 23  1  0
 29 21  1  0
 30 29  1  0
 31 29  2  0
M  END
$$$$
