LFF.pdb
     RDKit          3D

 31 32  0  0  1  0  0  0  0  0999 V2000
   23.5273  -19.2201  -21.6140 C   0  0  0  0  0  0  0  0  0  0  0  0
   23.2989  -18.4724  -20.2891 C   0  0  1  0  0  0  0  0  0  0  0  0
   21.9273  -17.8951  -20.3586 C   0  0  0  0  0  0  0  0  0  0  0  0
   23.5479  -19.4597  -19.2116 C   0  0  0  0  0  0  0  0  0  0  0  0
   23.2582  -19.0110  -17.8136 C   0  0  2  0  0  0  0  0  0  0  0  0
   23.9343  -17.8399  -17.3774 N   0  0  0  0  0  0  0  0  0  0  0  0
   23.4140  -20.0794  -16.8124 C   0  0  0  0  0  0  0  0  0  0  0  0
   23.5462  -21.2958  -17.1001 O   0  0  0  0  0  0  0  0  0  0  0  0
   23.4171  -19.7350  -15.4394 N   0  0  0  0  0  0  0  0  0  0  0  0
   23.5282  -20.7461  -14.3944 C   0  0  1  0  0  0  0  0  0  0  0  0
   24.5393  -20.2870  -13.3635 C   0  0  0  0  0  0  0  0  0  0  0  0
   25.8967  -20.1338  -13.9019 C   0  0  0  0  0  0  0  0  0  0  0  0
   26.3507  -18.8499  -14.1823 C   0  0  0  0  0  0  0  0  0  0  0  0
   27.6206  -18.6658  -14.6818 C   0  0  0  0  0  0  0  0  0  0  0  0
   28.4204  -19.7629  -14.8951 C   0  0  0  0  0  0  0  0  0  0  0  0
   27.9553  -21.0342  -14.6114 C   0  0  0  0  0  0  0  0  0  0  0  0
   26.6746  -21.2403  -14.1058 C   0  0  0  0  0  0  0  0  0  0  0  0
   22.1834  -20.9686  -13.8113 C   0  0  0  0  0  0  0  0  0  0  0  0
   21.6087  -20.0971  -13.1103 O   0  0  0  0  0  0  0  0  0  0  0  0
   21.4864  -22.1888  -14.0256 N   0  0  0  0  0  0  0  0  0  0  0  0
   20.0979  -22.3196  -13.5503 C   0  0  1  0  0  0  0  0  0  0  0  0
   19.3251  -21.2740  -14.2846 C   0  0  0  0  0  0  0  0  0  0  0  0
   17.8864  -21.4647  -14.1160 C   0  0  0  0  0  0  0  0  0  0  0  0
   17.0683  -22.0331  -15.0741 C   0  0  0  0  0  0  0  0  0  0  0  0
   15.7300  -22.1892  -14.8170 C   0  0  0  0  0  0  0  0  0  0  0  0
   15.1571  -21.7968  -13.6239 C   0  0  0  0  0  0  0  0  0  0  0  0
   15.9661  -21.2359  -12.6789 C   0  0  0  0  0  0  0  0  0  0  0  0
   17.3042  -21.0731  -12.9198 C   0  0  0  0  0  0  0  0  0  0  0  0
   19.6091  -23.6594  -13.9192 C   0  0  0  0  0  0  0  0  0  0  0  0
   20.1619  -24.3181  -15.0095 O   0  0  0  0  0  0  0  0  0  0  0  0
   18.7102  -24.2343  -13.2880 O   0  0  0  0  0  0  0  0  0  0  0  0
  2  1  1  6
  3  2  1  0
  4  5  1  0
  4  2  1  0
  5  7  1  0
  5  6  1  1
  7  8  2  0
  9 10  1  0
  9  7  1  0
 11 12  1  0
 10 11  1  1
 12 17  2  0
 13 14  2  0
 13 12  1  0
 14 15  1  0
 15 16  2  0
 17 16  1  0
 18 20  1  0
 18 10  1  0
 19 18  2  0
 21 20  1  0
 21 22  1  6
 23 22  1  0
 23 24  2  0
 25 24  1  0
 26 25  2  0
 27 28  2  0
 27 26  1  0
 28 23  1  0
 29 21  1  0
 30 29  1  0
 31 29  2  0
M  END
$$$$
