LFF.pdb
     RDKit          3D

 31 32  0  0  1  0  0  0  0  0999 V2000
   22.1606  -32.7322   -6.5542 C   0  0  0  0  0  0  0  0  0  0  0  0
   21.5297  -32.4797   -7.9344 C   0  0  1  0  0  0  0  0  0  0  0  0
   20.2604  -33.2589   -7.9697 C   0  0  0  0  0  0  0  0  0  0  0  0
   21.4074  -31.0084   -8.0676 C   0  0  0  0  0  0  0  0  0  0  0  0
   20.8350  -30.4988   -9.3530 C   0  0  2  0  0  0  0  0  0  0  0  0
   21.5486  -30.8348  -10.5349 N   0  0  0  0  0  0  0  0  0  0  0  0
   20.5517  -29.0539   -9.3349 C   0  0  0  0  0  0  0  0  0  0  0  0
   21.4371  -28.1672   -9.2356 O   0  0  0  0  0  0  0  0  0  0  0  0
   19.2083  -28.6190   -9.4339 N   0  0  0  0  0  0  0  0  0  0  0  0
   18.8689  -27.2170   -9.6484 C   0  0  1  0  0  0  0  0  0  0  0  0
   18.5791  -26.9947  -11.1189 C   0  0  0  0  0  0  0  0  0  0  0  0
   19.6926  -26.3751  -11.8484 C   0  0  0  0  0  0  0  0  0  0  0  0
   20.7289  -27.1938  -12.2834 C   0  0  0  0  0  0  0  0  0  0  0  0
   21.7870  -26.6501  -12.9767 C   0  0  0  0  0  0  0  0  0  0  0  0
   21.7982  -25.2989  -13.2271 C   0  0  0  0  0  0  0  0  0  0  0  0
   20.7603  -24.4968  -12.7884 C   0  0  0  0  0  0  0  0  0  0  0  0
   19.6821  -25.0281  -12.0860 C   0  0  0  0  0  0  0  0  0  0  0  0
   17.7139  -26.8758   -8.7838 C   0  0  0  0  0  0  0  0  0  0  0  0
   16.7327  -27.6501   -8.6467 O   0  0  0  0  0  0  0  0  0  0  0  0
   17.6726  -25.6471   -8.0701 N   0  0  0  0  0  0  0  0  0  0  0  0
   16.5273  -25.3634   -7.1878 C   0  0  1  0  0  0  0  0  0  0  0  0
   17.1118  -24.7353   -5.9656 C   0  0  0  0  0  0  0  0  0  0  0  0
   17.6825  -25.7433   -5.0752 C   0  0  0  0  0  0  0  0  0  0  0  0
   19.0401  -25.9466   -4.9134 C   0  0  0  0  0  0  0  0  0  0  0  0
   19.4824  -26.9053   -4.0379 C   0  0  0  0  0  0  0  0  0  0  0  0
   18.6163  -27.6873   -3.3004 C   0  0  0  0  0  0  0  0  0  0  0  0
   17.2764  -27.4853   -3.4611 C   0  0  0  0  0  0  0  0  0  0  0  0
   16.8183  -26.5322   -4.3310 C   0  0  0  0  0  0  0  0  0  0  0  0
   15.6439  -24.4045   -7.8736 C   0  0  0  0  0  0  0  0  0  0  0  0
   14.4330  -24.0480   -7.2949 O   0  0  0  0  0  0  0  0  0  0  0  0
   15.9395  -23.8933   -8.9635 O   0  0  0  0  0  0  0  0  0  0  0  0
  2  1  1  1
  3  2  1  0
  4  5  1  0
  4  2  1  0
  5  7  1  0
  5  6  1  6
  7  8  2  0
  9 10  1  0
  9  7  1  0
 11 12  1  0
 10 11  1  6
 12 17  2  0
 13 14  2  0
 13 12  1  0
 14 15  1  0
 15 16  2  0
 17 16  1  0
 18 20  1  0
 18 10  1  0
 19 18  2  0
 21 20  1  0
 21 22  1  1
 23 22  1  0
 23 24  2  0
 25 24  1  0
 26 25  2  0
 27 28  2  0
 27 26  1  0
 28 23  1  0
 29 21  1  0
 30 29  1  0
 31 29  2  0
M  END
$$$$
