LFF.pdb
     RDKit          3D

 31 32  0  0  1  0  0  0  0  0999 V2000
   24.7444  -23.3630  -19.5311 C   0  0  0  0  0  0  0  0  0  0  0  0
   24.2632  -22.3628  -18.4658 C   0  0  1  0  0  0  0  0  0  0  0  0
   22.7764  -22.4543  -18.4387 C   0  0  0  0  0  0  0  0  0  0  0  0
   24.9717  -22.7224  -17.2144 C   0  0  0  0  0  0  0  0  0  0  0  0
   24.6266  -21.9228  -15.9973 C   0  0  2  0  0  0  0  0  0  0  0  0
   24.3309  -20.5497  -16.2114 N   0  0  0  0  0  0  0  0  0  0  0  0
   25.6108  -22.0578  -14.9104 C   0  0  0  0  0  0  0  0  0  0  0  0
   26.1486  -23.1457  -14.5829 O   0  0  0  0  0  0  0  0  0  0  0  0
   25.9854  -20.9048  -14.1798 N   0  0  0  0  0  0  0  0  0  0  0  0
   26.9250  -20.9728  -13.0665 C   0  0  1  0  0  0  0  0  0  0  0  0
   27.9747  -19.8932  -13.2348 C   0  0  0  0  0  0  0  0  0  0  0  0
   28.9985  -19.9023  -12.1824 C   0  0  0  0  0  0  0  0  0  0  0  0
   28.8712  -18.9969  -11.1348 C   0  0  0  0  0  0  0  0  0  0  0  0
   29.8080  -18.9802  -10.1257 C   0  0  0  0  0  0  0  0  0  0  0  0
   30.8583  -19.8652  -10.1741 C   0  0  0  0  0  0  0  0  0  0  0  0
   30.9719  -20.7603  -11.2225 C   0  0  0  0  0  0  0  0  0  0  0  0
   30.0348  -20.7923  -12.2516 C   0  0  0  0  0  0  0  0  0  0  0  0
   26.1649  -20.8339  -11.8013 C   0  0  0  0  0  0  0  0  0  0  0  0
   25.0866  -20.1900  -11.7392 O   0  0  0  0  0  0  0  0  0  0  0  0
   26.6321  -21.4300  -10.5983 N   0  0  0  0  0  0  0  0  0  0  0  0
   25.7686  -21.4184   -9.4045 C   0  0  1  0  0  0  0  0  0  0  0  0
   26.5437  -22.1303   -8.3452 C   0  0  0  0  0  0  0  0  0  0  0  0
   27.2573  -21.1862   -7.4884 C   0  0  0  0  0  0  0  0  0  0  0  0
   28.6247  -20.9890   -7.5328 C   0  0  0  0  0  0  0  0  0  0  0  0
   29.2037  -20.0644   -6.7015 C   0  0  0  0  0  0  0  0  0  0  0  0
   28.4677  -19.3112   -5.8089 C   0  0  0  0  0  0  0  0  0  0  0  0
   27.1179  -19.5069   -5.7663 C   0  0  0  0  0  0  0  0  0  0  0  0
   26.5242  -20.4259   -6.5896 C   0  0  0  0  0  0  0  0  0  0  0  0
   25.5468  -20.0165   -9.0101 C   0  0  0  0  0  0  0  0  0  0  0  0
   24.4429  -19.6854   -8.2355 O   0  0  0  0  0  0  0  0  0  0  0  0
   26.3158  -19.1038   -9.3454 O   0  0  0  0  0  0  0  0  0  0  0  0
  2  1  1  6
  3  2  1  0
  4  5  1  0
  4  2  1  0
  5  7  1  0
  5  6  1  6
  7  8  2  0
  9 10  1  0
  9  7  1  0
 11 12  1  0
 10 11  1  6
 12 17  2  0
 13 14  2  0
 13 12  1  0
 14 15  1  0
 15 16  2  0
 17 16  1  0
 18 20  1  0
 18 10  1  0
 19 18  2  0
 21 20  1  0
 21 22  1  1
 23 22  1  0
 23 24  2  0
 25 24  1  0
 26 25  2  0
 27 28  2  0
 27 26  1  0
 28 23  1  0
 29 21  1  0
 30 29  1  0
 31 29  2  0
M  END
$$$$
