LFF.pdb
     RDKit          3D

 31 32  0  0  1  0  0  0  0  0999 V2000
   33.4007  -25.4366  -17.7473 C   0  0  0  0  0  0  0  0  0  0  0  0
   31.8838  -25.2656  -17.9382 C   0  0  1  0  0  0  0  0  0  0  0  0
   31.2594  -26.5642  -17.5596 C   0  0  0  0  0  0  0  0  0  0  0  0
   31.4982  -24.0847  -17.1293 C   0  0  0  0  0  0  0  0  0  0  0  0
   30.0351  -23.7822  -17.0432 C   0  0  2  0  0  0  0  0  0  0  0  0
   29.3414  -23.6798  -18.2790 N   0  0  0  0  0  0  0  0  0  0  0  0
   29.7279  -22.6146  -16.2003 C   0  0  0  0  0  0  0  0  0  0  0  0
   30.5938  -21.8061  -15.7802 O   0  0  0  0  0  0  0  0  0  0  0  0
   28.3831  -22.3724  -15.8309 N   0  0  0  0  0  0  0  0  0  0  0  0
   27.9973  -21.1917  -15.0667 C   0  0  1  0  0  0  0  0  0  0  0  0
   27.3588  -20.1825  -15.9991 C   0  0  0  0  0  0  0  0  0  0  0  0
   26.7699  -19.0319  -15.3025 C   0  0  0  0  0  0  0  0  0  0  0  0
   27.5635  -17.9073  -15.1053 C   0  0  0  0  0  0  0  0  0  0  0  0
   27.0442  -16.8062  -14.4622 C   0  0  0  0  0  0  0  0  0  0  0  0
   25.7419  -16.8404  -14.0245 C   0  0  0  0  0  0  0  0  0  0  0  0
   24.9643  -17.9660  -14.2277 C   0  0  0  0  0  0  0  0  0  0  0  0
   25.4716  -19.0888  -14.8759 C   0  0  0  0  0  0  0  0  0  0  0  0
   27.0854  -21.6149  -13.9770 C   0  0  0  0  0  0  0  0  0  0  0  0
   26.1305  -22.4080  -14.1777 O   0  0  0  0  0  0  0  0  0  0  0  0
   27.2589  -21.1343  -12.6505 N   0  0  0  0  0  0  0  0  0  0  0  0
   26.2626  -21.4804  -11.6217 C   0  0  1  0  0  0  0  0  0  0  0  0
   27.0456  -22.0469  -10.4834 C   0  0  0  0  0  0  0  0  0  0  0  0
   27.2686  -21.0438   -9.4448 C   0  0  0  0  0  0  0  0  0  0  0  0
   28.5206  -20.6602   -9.0020 C   0  0  0  0  0  0  0  0  0  0  0  0
   28.6311  -19.6939   -8.0349 C   0  0  0  0  0  0  0  0  0  0  0  0
   27.5284  -19.0791   -7.4766 C   0  0  0  0  0  0  0  0  0  0  0  0
   26.2931  -19.4587   -7.9148 C   0  0  0  0  0  0  0  0  0  0  0  0
   26.1655  -20.4217   -8.8798 C   0  0  0  0  0  0  0  0  0  0  0  0
   25.5860  -20.2415  -11.2005 C   0  0  0  0  0  0  0  0  0  0  0  0
   24.3427  -20.3104  -10.5860 O   0  0  0  0  0  0  0  0  0  0  0  0
   26.0868  -19.1208  -11.3737 O   0  0  0  0  0  0  0  0  0  0  0  0
  2  1  1  1
  3  2  1  0
  4  5  1  0
  4  2  1  0
  5  7  1  0
  5  6  1  6
  7  8  2  0
  9 10  1  0
  9  7  1  0
 11 12  1  0
 10 11  1  6
 12 17  2  0
 13 14  2  0
 13 12  1  0
 14 15  1  0
 15 16  2  0
 17 16  1  0
 18 20  1  0
 18 10  1  0
 19 18  2  0
 21 20  1  0
 21 22  1  1
 23 22  1  0
 23 24  2  0
 25 24  1  0
 26 25  2  0
 27 28  2  0
 27 26  1  0
 28 23  1  0
 29 21  1  0
 30 29  1  0
 31 29  2  0
M  END
$$$$
