LFF.pdb
     RDKit          3D

 31 32  0  0  1  0  0  0  0  0999 V2000
   17.1369  -30.0984  -17.2605 C   0  0  0  0  0  0  0  0  0  0  0  0
   16.9709  -29.5382  -15.8374 C   0  0  1  0  0  0  0  0  0  0  0  0
   17.0726  -30.6994  -14.9096 C   0  0  0  0  0  0  0  0  0  0  0  0
   17.9990  -28.4805  -15.6895 C   0  0  0  0  0  0  0  0  0  0  0  0
   17.8119  -27.2462  -16.5147 C   0  0  2  0  0  0  0  0  0  0  0  0
   18.9141  -26.8587  -17.3233 N   0  0  0  0  0  0  0  0  0  0  0  0
   17.3320  -26.0907  -15.7383 C   0  0  0  0  0  0  0  0  0  0  0  0
   17.9991  -25.5285  -14.8333 O   0  0  0  0  0  0  0  0  0  0  0  0
   16.0453  -25.5687  -16.0132 N   0  0  0  0  0  0  0  0  0  0  0  0
   15.5308  -24.3914  -15.3232 C   0  0  1  0  0  0  0  0  0  0  0  0
   15.3251  -23.2762  -16.3281 C   0  0  0  0  0  0  0  0  0  0  0  0
   16.5787  -22.6795  -16.8060 C   0  0  0  0  0  0  0  0  0  0  0  0
   17.1516  -23.1948  -17.9634 C   0  0  0  0  0  0  0  0  0  0  0  0
   18.3234  -22.6567  -18.4463 C   0  0  0  0  0  0  0  0  0  0  0  0
   18.9082  -21.6131  -17.7698 C   0  0  0  0  0  0  0  0  0  0  0  0
   18.3268  -21.1108  -16.6198 C   0  0  0  0  0  0  0  0  0  0  0  0
   17.1423  -21.6415  -16.1163 C   0  0  0  0  0  0  0  0  0  0  0  0
   14.2773  -24.7661  -14.6259 C   0  0  0  0  0  0  0  0  0  0  0  0
   13.3232  -25.3249  -15.2248 O   0  0  0  0  0  0  0  0  0  0  0  0
   14.1059  -24.5048  -13.2392 N   0  0  0  0  0  0  0  0  0  0  0  0
   12.8182  -24.8243  -12.5985 C   0  0  1  0  0  0  0  0  0  0  0  0
   13.1617  -25.6541  -11.4055 C   0  0  0  0  0  0  0  0  0  0  0  0
   13.4976  -27.0223  -11.7928 C   0  0  0  0  0  0  0  0  0  0  0  0
   14.7876  -27.4613  -12.0245 C   0  0  0  0  0  0  0  0  0  0  0  0
   15.0069  -28.7718  -12.3651 C   0  0  0  0  0  0  0  0  0  0  0  0
   13.9785  -29.6843  -12.4881 C   0  0  0  0  0  0  0  0  0  0  0  0
   12.7055  -29.2494  -12.2590 C   0  0  0  0  0  0  0  0  0  0  0  0
   12.4695  -27.9445  -11.9180 C   0  0  0  0  0  0  0  0  0  0  0  0
   12.1909  -23.5621  -12.1704 C   0  0  0  0  0  0  0  0  0  0  0  0
   10.9452  -23.5853  -11.5572 O   0  0  0  0  0  0  0  0  0  0  0  0
   12.7360  -22.4611  -12.3365 O   0  0  0  0  0  0  0  0  0  0  0  0
  2  1  1  6
  3  2  1  0
  4  5  1  0
  4  2  1  0
  5  7  1  0
  5  6  1  1
  7  8  2  0
  9 10  1  0
  9  7  1  0
 11 12  1  0
 10 11  1  6
 12 17  2  0
 13 14  2  0
 13 12  1  0
 14 15  1  0
 15 16  2  0
 17 16  1  0
 18 20  1  0
 18 10  1  0
 19 18  2  0
 21 20  1  0
 21 22  1  1
 23 22  1  0
 23 24  2  0
 25 24  1  0
 26 25  2  0
 27 28  2  0
 27 26  1  0
 28 23  1  0
 29 21  1  0
 30 29  1  0
 31 29  2  0
M  END
$$$$
