LFF.pdb
     RDKit          3D

 31 32  0  0  1  0  0  0  0  0999 V2000
   30.6606  -21.4178   -6.9761 C   0  0  0  0  0  0  0  0  0  0  0  0
   30.6906  -21.7954   -8.4672 C   0  0  1  0  0  0  0  0  0  0  0  0
   30.9174  -23.2665   -8.5280 C   0  0  0  0  0  0  0  0  0  0  0  0
   29.4187  -21.2971   -9.0431 C   0  0  0  0  0  0  0  0  0  0  0  0
   29.1786  -21.5936  -10.4902 C   0  0  2  0  0  0  0  0  0  0  0  0
   30.3290  -21.6268  -11.3234 N   0  0  0  0  0  0  0  0  0  0  0  0
   28.1461  -20.7383  -11.0989 C   0  0  0  0  0  0  0  0  0  0  0  0
   27.2106  -20.2014  -10.4534 O   0  0  0  0  0  0  0  0  0  0  0  0
   28.1935  -20.4953  -12.4926 N   0  0  0  0  0  0  0  0  0  0  0  0
   27.2881  -19.5523  -13.1389 C   0  0  1  0  0  0  0  0  0  0  0  0
   27.9301  -19.0388  -14.4116 C   0  0  0  0  0  0  0  0  0  0  0  0
   27.0844  -18.0971  -15.1558 C   0  0  0  0  0  0  0  0  0  0  0  0
   27.0205  -16.7807  -14.7127 C   0  0  0  0  0  0  0  0  0  0  0  0
   26.2435  -15.8669  -15.3888 C   0  0  0  0  0  0  0  0  0  0  0  0
   25.5410  -16.2769  -16.4966 C   0  0  0  0  0  0  0  0  0  0  0  0
   25.6143  -17.5897  -16.9258 C   0  0  0  0  0  0  0  0  0  0  0  0
   26.3944  -18.5279  -16.2555 C   0  0  0  0  0  0  0  0  0  0  0  0
   25.9974  -20.2373  -13.3899 C   0  0  0  0  0  0  0  0  0  0  0  0
   25.9414  -21.4372  -13.7619 O   0  0  0  0  0  0  0  0  0  0  0  0
   24.7621  -19.5555  -13.2175 N   0  0  0  0  0  0  0  0  0  0  0  0
   23.5015  -20.2634  -13.5014 C   0  0  1  0  0  0  0  0  0  0  0  0
   22.4742  -19.6102  -12.6367 C   0  0  0  0  0  0  0  0  0  0  0  0
   21.1690  -20.2478  -12.7936 C   0  0  0  0  0  0  0  0  0  0  0  0
   20.8108  -21.4298  -12.1731 C   0  0  0  0  0  0  0  0  0  0  0  0
   19.5532  -21.9425  -12.3653 C   0  0  0  0  0  0  0  0  0  0  0  0
   18.6161  -21.3186  -13.1642 C   0  0  0  0  0  0  0  0  0  0  0  0
   18.9712  -20.1516  -13.7760 C   0  0  0  0  0  0  0  0  0  0  0  0
   20.2226  -19.6264  -13.5944 C   0  0  0  0  0  0  0  0  0  0  0  0
   23.1682  -20.0591  -14.9216 C   0  0  0  0  0  0  0  0  0  0  0  0
   22.6907  -21.1220  -15.6769 O   0  0  0  0  0  0  0  0  0  0  0  0
   23.2978  -18.9607  -15.4816 O   0  0  0  0  0  0  0  0  0  0  0  0
  2  1  1  1
  3  2  1  0
  4  5  1  0
  4  2  1  0
  5  7  1  0
  5  6  1  6
  7  8  2  0
  9 10  1  0
  9  7  1  0
 11 12  1  0
 10 11  1  6
 12 17  2  0
 13 14  2  0
 13 12  1  0
 14 15  1  0
 15 16  2  0
 17 16  1  0
 18 20  1  0
 18 10  1  0
 19 18  2  0
 21 20  1  0
 21 22  1  1
 23 22  1  0
 23 24  2  0
 25 24  1  0
 26 25  2  0
 27 28  2  0
 27 26  1  0
 28 23  1  0
 29 21  1  0
 30 29  1  0
 31 29  2  0
M  END
$$$$
