TDH.pdb
     RDKit          3D

 26 26  0  0  1  0  0  0  0  0999 V2000
   27.3882  -14.5322  -16.3872 C   0  0  0  0  0  0  0  0  0  0  0  0
   26.3996  -15.6438  -16.2707 C   0  0  1  0  0  0  0  0  0  0  0  0
   25.1539  -15.1632  -16.7077 O   0  0  0  0  0  0  0  0  0  0  0  0
   26.7251  -16.8613  -17.1014 C   0  0  2  0  0  0  0  0  0  0  0  0
   26.5958  -16.4977  -18.5052 N   0  0  0  0  0  0  0  0  0  0  0  0
   25.8112  -18.0174  -16.7825 C   0  0  0  0  0  0  0  0  0  0  0  0
   24.7077  -18.0853  -17.3662 O   0  0  0  0  0  0  0  0  0  0  0  0
   26.1875  -18.9989  -15.8503 N   0  0  0  0  0  0  0  0  0  0  0  0
   25.4395  -20.0965  -15.3246 C   0  0  1  0  0  0  0  0  0  0  0  0
   26.2490  -21.3086  -14.8934 C   0  0  0  0  0  0  0  0  0  0  0  0
   27.1535  -21.8095  -15.9494 C   0  0  0  0  0  0  0  0  0  0  0  0
   26.8010  -21.7157  -17.1504 O   0  0  0  0  0  0  0  0  0  0  0  0
   24.3264  -19.7679  -14.4467 C   0  0  0  0  0  0  0  0  0  0  0  0
   24.5424  -19.0185  -13.4636 O   0  0  0  0  0  0  0  0  0  0  0  0
   28.3760  -22.3785  -15.6660 O   0  0  0  0  0  0  0  0  0  0  0  0
   23.0404  -20.2686  -14.6820 N   0  0  0  0  0  0  0  0  0  0  0  0
   21.8486  -19.7455  -13.9954 C   0  0  1  0  0  0  0  0  0  0  0  0
   21.7881  -18.2691  -14.4054 C   0  0  0  0  0  0  0  0  0  0  0  0
   20.5633  -17.6172  -13.9664 C   0  0  0  0  0  0  0  0  0  0  0  0
   19.5291  -18.1966  -13.2694 C   0  0  0  0  0  0  0  0  0  0  0  0
   18.5733  -17.2501  -13.0535 N   0  0  0  0  0  0  0  0  0  0  0  0
   18.9965  -16.1087  -13.6000 C   0  0  0  0  0  0  0  0  0  0  0  0
   20.2206  -16.3342  -14.1614 N   0  0  0  0  0  0  0  0  0  0  0  0
   20.6828  -20.4997  -14.5124 C   0  0  0  0  0  0  0  0  0  0  0  0
   20.6152  -20.7410  -15.7474 O   0  0  0  0  0  0  0  0  0  0  0  0
   19.6444  -20.9659  -13.7179 O   0  0  0  0  0  0  0  0  0  0  0  0
  2  1  1  6
  2  4  1  0
  3  2  1  0
  4  5  1  6
  6  4  1  0
  7  6  2  0
  8  6  1  0
  9  8  1  0
  9 10  1  1
 10 11  1  0
 11 15  1  0
 12 11  2  0
 13  9  1  0
 14 13  2  0
 16 13  1  0
 17 16  1  0
 17 18  1  6
 18 19  1  0
 19 23  1  0
 20 19  2  0
 20 21  1  0
 21 22  1  0
 23 22  2  0
 24 26  1  0
 24 17  1  0
 25 24  2  0
M  END
$$$$
