TDH.pdb
     RDKit          3D

 26 26  0  0  1  0  0  0  0  0999 V2000
   21.7087  -14.6169  -19.4879 C   0  0  0  0  0  0  0  0  0  0  0  0
   21.6065  -13.1516  -19.2255 C   0  0  1  0  0  0  0  0  0  0  0  0
   21.9231  -12.9304  -17.8747 O   0  0  0  0  0  0  0  0  0  0  0  0
   22.5429  -12.3009  -20.0488 C   0  0  2  0  0  0  0  0  0  0  0  0
   23.8982  -12.7899  -19.8401 N   0  0  0  0  0  0  0  0  0  0  0  0
   22.4566  -10.8444  -19.6686 C   0  0  0  0  0  0  0  0  0  0  0  0
   23.1027  -10.4470  -18.6748 O   0  0  0  0  0  0  0  0  0  0  0  0
   21.6684   -9.9500  -20.4120 N   0  0  0  0  0  0  0  0  0  0  0  0
   21.4179   -8.5593  -20.2030 C   0  0  1  0  0  0  0  0  0  0  0  0
   20.6943   -7.8364  -21.3273 C   0  0  0  0  0  0  0  0  0  0  0  0
   20.6042   -6.3763  -21.1168 C   0  0  0  0  0  0  0  0  0  0  0  0
   21.6553   -5.6906  -21.1363 O   0  0  0  0  0  0  0  0  0  0  0  0
   21.0061   -8.1635  -18.8644 C   0  0  0  0  0  0  0  0  0  0  0  0
   20.2270   -8.9171  -18.2322 O   0  0  0  0  0  0  0  0  0  0  0  0
   19.4047   -5.7342  -20.8990 O   0  0  0  0  0  0  0  0  0  0  0  0
   21.4611   -6.9735  -18.2841 N   0  0  0  0  0  0  0  0  0  0  0  0
   21.1326   -6.5898  -16.9020 C   0  0  1  0  0  0  0  0  0  0  0  0
   22.2416   -7.2254  -16.0547 C   0  0  0  0  0  0  0  0  0  0  0  0
   21.7179   -8.0808  -15.0002 C   0  0  0  0  0  0  0  0  0  0  0  0
   20.3934   -8.3281  -14.7252 C   0  0  0  0  0  0  0  0  0  0  0  0
   20.3267   -9.1794  -13.6638 N   0  0  0  0  0  0  0  0  0  0  0  0
   21.5751   -9.4584  -13.2836 C   0  0  0  0  0  0  0  0  0  0  0  0
   22.4310   -8.7829  -14.1056 N   0  0  0  0  0  0  0  0  0  0  0  0
   21.1823   -5.1104  -16.8379 C   0  0  0  0  0  0  0  0  0  0  0  0
   21.8166   -4.4851  -17.7295 O   0  0  0  0  0  0  0  0  0  0  0  0
   20.5688   -4.3544  -15.8485 O   0  0  0  0  0  0  0  0  0  0  0  0
  2  1  1  6
  2  4  1  0
  3  2  1  0
  4  5  1  1
  6  4  1  0
  7  6  2  0
  8  6  1  0
  9  8  1  0
  9 10  1  6
 10 11  1  0
 11 15  1  0
 12 11  2  0
 13  9  1  0
 14 13  2  0
 16 13  1  0
 17 16  1  0
 17 18  1  1
 18 19  1  0
 19 23  1  0
 20 19  2  0
 20 21  1  0
 21 22  1  0
 23 22  2  0
 24 26  1  0
 24 17  1  0
 25 24  2  0
M  END
$$$$
