TDH.pdb
     RDKit          3D

 26 26  0  0  1  0  0  0  0  0999 V2000
   12.9379  -11.2721   -9.1390 C   0  0  0  0  0  0  0  0  0  0  0  0
   13.7510  -10.7377  -10.2702 C   0  0  1  0  0  0  0  0  0  0  0  0
   12.8989   -9.9919  -11.1017 O   0  0  0  0  0  0  0  0  0  0  0  0
   14.8798   -9.8259   -9.8544 C   0  0  2  0  0  0  0  0  0  0  0  0
   14.3003   -8.6509   -9.2195 N   0  0  0  0  0  0  0  0  0  0  0  0
   15.7266   -9.4108  -11.0308 C   0  0  0  0  0  0  0  0  0  0  0  0
   16.4340  -10.2752  -11.5924 O   0  0  0  0  0  0  0  0  0  0  0  0
   15.7238   -8.0827  -11.4891 N   0  0  0  0  0  0  0  0  0  0  0  0
   16.3978   -7.4979  -12.6046 C   0  0  1  0  0  0  0  0  0  0  0  0
   15.8674   -6.1527  -13.0730 C   0  0  0  0  0  0  0  0  0  0  0  0
   14.4094   -6.1545  -13.3146 C   0  0  0  0  0  0  0  0  0  0  0  0
   13.8956   -7.1124  -13.9422 O   0  0  0  0  0  0  0  0  0  0  0  0
   17.8478   -7.6192  -12.6287 C   0  0  0  0  0  0  0  0  0  0  0  0
   18.4865   -7.3562  -11.5811 O   0  0  0  0  0  0  0  0  0  0  0  0
   13.5867   -5.1404  -12.8750 O   0  0  0  0  0  0  0  0  0  0  0  0
   18.5264   -8.0189  -13.7862 N   0  0  0  0  0  0  0  0  0  0  0  0
   19.9870   -8.1927  -13.8282 C   0  0  1  0  0  0  0  0  0  0  0  0
   20.1868   -9.6332  -14.3149 C   0  0  0  0  0  0  0  0  0  0  0  0
   21.5809   -9.9377  -14.6011 C   0  0  0  0  0  0  0  0  0  0  0  0
   22.2716   -9.6225  -15.7477 C   0  0  0  0  0  0  0  0  0  0  0  0
   23.5478  -10.0820  -15.6203 N   0  0  0  0  0  0  0  0  0  0  0  0
   23.6544  -10.6691  -14.4267 C   0  0  0  0  0  0  0  0  0  0  0  0
   22.4447  -10.5803  -13.7995 N   0  0  0  0  0  0  0  0  0  0  0  0
   20.5137   -7.2123  -14.8061 C   0  0  0  0  0  0  0  0  0  0  0  0
   19.7511   -6.7955  -15.7187 O   0  0  0  0  0  0  0  0  0  0  0  0
   21.8090   -6.7136  -14.7858 O   0  0  0  0  0  0  0  0  0  0  0  0
  2  1  1  1
  2  4  1  0
  3  2  1  0
  4  5  1  6
  6  4  1  0
  7  6  2  0
  8  6  1  0
  9  8  1  0
  9 10  1  1
 10 11  1  0
 11 15  1  0
 12 11  2  0
 13  9  1  0
 14 13  2  0
 16 13  1  0
 17 16  1  0
 17 18  1  6
 18 19  1  0
 19 23  1  0
 20 19  2  0
 20 21  1  0
 21 22  1  0
 23 22  2  0
 24 26  1  0
 24 17  1  0
 25 24  2  0
M  END
$$$$
