TDH.pdb
     RDKit          3D

 26 26  0  0  1  0  0  0  0  0999 V2000
   18.3308  -13.8601  -20.4232 C   0  0  0  0  0  0  0  0  0  0  0  0
   18.9533  -12.7651  -19.6233 C   0  0  1  0  0  0  0  0  0  0  0  0
   18.5186  -12.8988  -18.2940 O   0  0  0  0  0  0  0  0  0  0  0  0
   20.4625  -12.7836  -19.6038 C   0  0  2  0  0  0  0  0  0  0  0  0
   20.8919  -14.0995  -19.1527 N   0  0  0  0  0  0  0  0  0  0  0  0
   21.0238  -11.7192  -18.6954 C   0  0  0  0  0  0  0  0  0  0  0  0
   20.8989  -11.8616  -17.4597 O   0  0  0  0  0  0  0  0  0  0  0  0
   21.6735  -10.5902  -19.2220 N   0  0  0  0  0  0  0  0  0  0  0  0
   22.2660   -9.4782  -18.5490 C   0  0  1  0  0  0  0  0  0  0  0  0
   23.4343   -8.8147  -19.2598 C   0  0  0  0  0  0  0  0  0  0  0  0
   24.4440   -9.7791  -19.7442 C   0  0  0  0  0  0  0  0  0  0  0  0
   25.0081  -10.5386  -18.9192 O   0  0  0  0  0  0  0  0  0  0  0  0
   21.3566   -8.5552  -17.8866 C   0  0  0  0  0  0  0  0  0  0  0  0
   20.3084   -8.2156  -18.4871 O   0  0  0  0  0  0  0  0  0  0  0  0
   24.7925   -9.8783  -21.0735 O   0  0  0  0  0  0  0  0  0  0  0  0
   21.6322   -8.0510  -16.6100 N   0  0  0  0  0  0  0  0  0  0  0  0
   20.7877   -7.0366  -15.9594 C   0  0  1  0  0  0  0  0  0  0  0  0
   20.6677   -7.5133  -14.5068 C   0  0  0  0  0  0  0  0  0  0  0  0
   19.6322   -8.5211  -14.3334 C   0  0  0  0  0  0  0  0  0  0  0  0
   18.7841   -9.0023  -15.3030 C   0  0  0  0  0  0  0  0  0  0  0  0
   17.9658   -9.9318  -14.7352 N   0  0  0  0  0  0  0  0  0  0  0  0
   18.2919  -10.0307  -13.4450 C   0  0  0  0  0  0  0  0  0  0  0  0
   19.3170   -9.1633  -13.1976 N   0  0  0  0  0  0  0  0  0  0  0  0
   21.5109   -5.7466  -16.0484 C   0  0  0  0  0  0  0  0  0  0  0  0
   22.7356   -5.7564  -16.3454 O   0  0  0  0  0  0  0  0  0  0  0  0
   20.9233   -4.5092  -15.8238 O   0  0  0  0  0  0  0  0  0  0  0  0
  2  1  1  6
  2  4  1  0
  3  2  1  0
  4  5  1  1
  6  4  1  0
  7  6  2  0
  8  6  1  0
  9  8  1  0
  9 10  1  6
 10 11  1  0
 11 15  1  0
 12 11  2  0
 13  9  1  0
 14 13  2  0
 16 13  1  0
 17 16  1  0
 17 18  1  1
 18 19  1  0
 19 23  1  0
 20 19  2  0
 20 21  1  0
 21 22  1  0
 23 22  2  0
 24 26  1  0
 24 17  1  0
 25 24  2  0
M  END
$$$$
