TDH.pdb
     RDKit          3D

 26 26  0  0  1  0  0  0  0  0999 V2000
   14.3842  -12.4449  -14.1595 C   0  0  0  0  0  0  0  0  0  0  0  0
   15.4821  -11.5751  -14.6737 C   0  0  1  0  0  0  0  0  0  0  0  0
   16.5398  -11.6212  -13.7501 O   0  0  0  0  0  0  0  0  0  0  0  0
   16.0393  -11.9948  -16.0122 C   0  0  2  0  0  0  0  0  0  0  0  0
   16.5670  -13.3450  -15.8781 N   0  0  0  0  0  0  0  0  0  0  0  0
   17.1256  -11.0617  -16.4840 C   0  0  0  0  0  0  0  0  0  0  0  0
   18.3154  -11.4336  -16.3896 O   0  0  0  0  0  0  0  0  0  0  0  0
   16.8120   -9.8008  -17.0185 N   0  0  0  0  0  0  0  0  0  0  0  0
   17.6754   -8.7330  -17.4120 C   0  0  1  0  0  0  0  0  0  0  0  0
   17.1690   -7.8476  -18.5389 C   0  0  0  0  0  0  0  0  0  0  0  0
   18.1872   -6.8982  -19.0351 C   0  0  0  0  0  0  0  0  0  0  0  0
   19.3227   -7.3304  -19.3505 O   0  0  0  0  0  0  0  0  0  0  0  0
   18.3628   -8.0215  -16.3448 C   0  0  0  0  0  0  0  0  0  0  0  0
   17.7592   -7.8461  -15.2587 O   0  0  0  0  0  0  0  0  0  0  0  0
   17.9378   -5.5495  -19.1663 O   0  0  0  0  0  0  0  0  0  0  0  0
   19.6664   -7.5393  -16.5124 N   0  0  0  0  0  0  0  0  0  0  0  0
   20.3945   -6.8361  -15.4443 C   0  0  1  0  0  0  0  0  0  0  0  0
   21.8669   -7.1880  -15.6894 C   0  0  0  0  0  0  0  0  0  0  0  0
   22.2158   -8.5096  -15.1901 C   0  0  0  0  0  0  0  0  0  0  0  0
   21.4161   -9.3431  -14.4439 C   0  0  0  0  0  0  0  0  0  0  0  0
   22.1125  -10.4838  -14.1800 N   0  0  0  0  0  0  0  0  0  0  0  0
   23.3159  -10.3689  -14.7453 C   0  0  0  0  0  0  0  0  0  0  0  0
   23.3796   -9.1547  -15.3668 N   0  0  0  0  0  0  0  0  0  0  0  0
   20.1455   -5.3874  -15.6292 C   0  0  0  0  0  0  0  0  0  0  0  0
   19.5142   -5.0054  -16.6508 O   0  0  0  0  0  0  0  0  0  0  0  0
   20.5661   -4.4069  -14.7410 O   0  0  0  0  0  0  0  0  0  0  0  0
  2  1  1  1
  2  4  1  0
  3  2  1  0
  4  5  1  1
  6  4  1  0
  7  6  2  0
  8  6  1  0
  9  8  1  0
  9 10  1  1
 10 11  1  0
 11 15  1  0
 12 11  2  0
 13  9  1  0
 14 13  2  0
 16 13  1  0
 17 16  1  0
 17 18  1  6
 18 19  1  0
 19 23  1  0
 20 19  2  0
 20 21  1  0
 21 22  1  0
 23 22  2  0
 24 26  1  0
 24 17  1  0
 25 24  2  0
M  END
$$$$
