TDH.pdb
     RDKit          3D

 26 26  0  0  1  0  0  0  0  0999 V2000
   13.2852  -25.1613   -1.9342 C   0  0  0  0  0  0  0  0  0  0  0  0
   14.0173  -24.3782   -0.8962 C   0  0  1  0  0  0  0  0  0  0  0  0
   15.1633  -25.1054   -0.5332 O   0  0  0  0  0  0  0  0  0  0  0  0
   14.4786  -23.0145   -1.3499 C   0  0  2  0  0  0  0  0  0  0  0  0
   15.2327  -23.1806   -2.5841 N   0  0  0  0  0  0  0  0  0  0  0  0
   15.3356  -22.3387   -0.3096 C   0  0  0  0  0  0  0  0  0  0  0  0
   16.5779  -22.3707   -0.4462 O   0  0  0  0  0  0  0  0  0  0  0  0
   14.7549  -21.6863    0.7909 N   0  0  0  0  0  0  0  0  0  0  0  0
   15.3649  -20.8974    1.8137 C   0  0  1  0  0  0  0  0  0  0  0  0
   14.7174  -19.5507    2.0917 C   0  0  0  0  0  0  0  0  0  0  0  0
   15.4788  -18.7268    3.0538 C   0  0  0  0  0  0  0  0  0  0  0  0
   16.7331  -18.7705    3.0365 O   0  0  0  0  0  0  0  0  0  0  0  0
   15.8227  -21.6059    2.9996 C   0  0  0  0  0  0  0  0  0  0  0  0
   15.0665  -22.4680    3.5091 O   0  0  0  0  0  0  0  0  0  0  0  0
   14.8625  -17.9074    3.9742 O   0  0  0  0  0  0  0  0  0  0  0  0
   17.0744  -21.3420    3.5682 N   0  0  0  0  0  0  0  0  0  0  0  0
   17.5517  -22.0209    4.7835 C   0  0  1  0  0  0  0  0  0  0  0  0
   19.0371  -22.2894    4.5132 C   0  0  0  0  0  0  0  0  0  0  0  0
   19.2643  -23.5746    3.8694 C   0  0  0  0  0  0  0  0  0  0  0  0
   18.3133  -24.5201    3.5650 C   0  0  0  0  0  0  0  0  0  0  0  0
   18.9335  -25.5771    2.9700 N   0  0  0  0  0  0  0  0  0  0  0  0
   20.2375  -25.3019    2.9030 C   0  0  0  0  0  0  0  0  0  0  0  0
   20.4413  -24.0702    3.4559 N   0  0  0  0  0  0  0  0  0  0  0  0
   17.3679  -21.0764    5.9100 C   0  0  0  0  0  0  0  0  0  0  0  0
   17.0676  -19.8792    5.6556 O   0  0  0  0  0  0  0  0  0  0  0  0
   17.5057  -21.4247    7.2466 O   0  0  0  0  0  0  0  0  0  0  0  0
  2  1  1  6
  2  4  1  0
  3  2  1  0
  4  5  1  6
  6  4  1  0
  7  6  2  0
  8  6  1  0
  9  8  1  0
  9 10  1  1
 10 11  1  0
 11 15  1  0
 12 11  2  0
 13  9  1  0
 14 13  2  0
 16 13  1  0
 17 16  1  0
 17 18  1  6
 18 19  1  0
 19 23  1  0
 20 19  2  0
 20 21  1  0
 21 22  1  0
 23 22  2  0
 24 26  1  0
 24 17  1  0
 25 24  2  0
M  END
$$$$
