TDH.pdb
     RDKit          3D

 26 26  0  0  1  0  0  0  0  0999 V2000
   12.8705  -11.7103  -14.7774 C   0  0  0  0  0  0  0  0  0  0  0  0
   13.5771  -10.7807  -13.8483 C   0  0  1  0  0  0  0  0  0  0  0  0
   13.0193  -10.9403  -12.5688 O   0  0  0  0  0  0  0  0  0  0  0  0
   15.0608  -11.0281  -13.7229 C   0  0  2  0  0  0  0  0  0  0  0  0
   15.2559  -12.4211  -13.3472 N   0  0  0  0  0  0  0  0  0  0  0  0
   15.6943  -10.1241  -12.6960 C   0  0  0  0  0  0  0  0  0  0  0  0
   15.6242  -10.4477  -11.4905 O   0  0  0  0  0  0  0  0  0  0  0  0
   16.3501   -8.9426  -13.0811 N   0  0  0  0  0  0  0  0  0  0  0  0
   16.9713   -7.9374  -12.2786 C   0  0  1  0  0  0  0  0  0  0  0  0
   18.1470   -7.2116  -12.9121 C   0  0  0  0  0  0  0  0  0  0  0  0
   19.1318   -8.1258  -13.5274 C   0  0  0  0  0  0  0  0  0  0  0  0
   19.7024   -8.9820  -12.8085 O   0  0  0  0  0  0  0  0  0  0  0  0
   16.0870   -7.0888  -11.4939 C   0  0  0  0  0  0  0  0  0  0  0  0
   15.0967   -6.5700  -12.0638 O   0  0  0  0  0  0  0  0  0  0  0  0
   19.4500   -8.0753  -14.8670 O   0  0  0  0  0  0  0  0  0  0  0  0
   16.3237   -6.8491  -10.1351 N   0  0  0  0  0  0  0  0  0  0  0  0
   15.4408   -6.0056   -9.3138 C   0  0  1  0  0  0  0  0  0  0  0  0
   15.2376   -6.8080   -8.0229 C   0  0  0  0  0  0  0  0  0  0  0  0
   14.3132   -7.9188   -8.1954 C   0  0  0  0  0  0  0  0  0  0  0  0
   12.9402   -7.8598   -8.1453 C   0  0  0  0  0  0  0  0  0  0  0  0
   12.4486   -9.1129   -8.3556 N   0  0  0  0  0  0  0  0  0  0  0  0
   13.4848   -9.9348   -8.5328 C   0  0  0  0  0  0  0  0  0  0  0  0
   14.6318   -9.2006   -8.4345 N   0  0  0  0  0  0  0  0  0  0  0  0
   16.1654   -4.7392   -9.0563 C   0  0  0  0  0  0  0  0  0  0  0  0
   17.3904   -4.6714   -9.3439 O   0  0  0  0  0  0  0  0  0  0  0  0
   15.5787   -3.6050   -8.5119 O   0  0  0  0  0  0  0  0  0  0  0  0
  2  1  1  6
  2  4  1  0
  3  2  1  0
  4  5  1  1
  6  4  1  0
  7  6  2  0
  8  6  1  0
  9  8  1  0
  9 10  1  6
 10 11  1  0
 11 15  1  0
 12 11  2  0
 13  9  1  0
 14 13  2  0
 16 13  1  0
 17 16  1  0
 17 18  1  1
 18 19  1  0
 19 23  1  0
 20 19  2  0
 20 21  1  0
 21 22  1  0
 23 22  2  0
 24 26  1  0
 24 17  1  0
 25 24  2  0
M  END
$$$$
