TDH.pdb
     RDKit          3D

 26 26  0  0  1  0  0  0  0  0999 V2000
   22.1823  -13.0069  -19.7140 C   0  0  0  0  0  0  0  0  0  0  0  0
   23.1353  -13.8679  -18.9544 C   0  0  1  0  0  0  0  0  0  0  0  0
   23.2127  -15.1092  -19.6078 O   0  0  0  0  0  0  0  0  0  0  0  0
   24.5394  -13.3213  -18.8657 C   0  0  2  0  0  0  0  0  0  0  0  0
   25.3659  -14.3083  -18.1858 N   0  0  0  0  0  0  0  0  0  0  0  0
   24.5842  -12.0111  -18.1210 C   0  0  0  0  0  0  0  0  0  0  0  0
   24.3979  -12.0197  -16.8848 O   0  0  0  0  0  0  0  0  0  0  0  0
   24.8294  -10.8044  -18.7976 N   0  0  0  0  0  0  0  0  0  0  0  0
   24.7994   -9.4609  -18.3132 C   0  0  1  0  0  0  0  0  0  0  0  0
   25.6462   -8.4575  -19.0789 C   0  0  0  0  0  0  0  0  0  0  0  0
   25.6154   -7.1019  -18.4911 C   0  0  0  0  0  0  0  0  0  0  0  0
   25.9561   -6.9480  -17.2929 O   0  0  0  0  0  0  0  0  0  0  0  0
   23.5081   -8.9535  -17.8737 C   0  0  0  0  0  0  0  0  0  0  0  0
   22.5379   -9.0236  -18.6664 O   0  0  0  0  0  0  0  0  0  0  0  0
   25.2255   -5.9935  -19.2108 O   0  0  0  0  0  0  0  0  0  0  0  0
   23.3386   -8.3985  -16.5997 N   0  0  0  0  0  0  0  0  0  0  0  0
   22.0460   -7.8761  -16.1286 C   0  0  1  0  0  0  0  0  0  0  0  0
   22.0237   -8.2047  -14.6309 C   0  0  0  0  0  0  0  0  0  0  0  0
   20.7360   -8.7212  -14.1915 C   0  0  0  0  0  0  0  0  0  0  0  0
   19.6397   -8.9743  -14.9822 C   0  0  0  0  0  0  0  0  0  0  0  0
   18.6384   -9.4481  -14.1892 N   0  0  0  0  0  0  0  0  0  0  0  0
   19.0943   -9.4910  -12.9358 C   0  0  0  0  0  0  0  0  0  0  0  0
   20.3846   -9.0441  -12.9370 N   0  0  0  0  0  0  0  0  0  0  0  0
   22.0570   -6.4132  -16.3623 C   0  0  0  0  0  0  0  0  0  0  0  0
   23.1658   -5.8227  -16.4628 O   0  0  0  0  0  0  0  0  0  0  0  0
   20.9126   -5.6364  -16.4801 O   0  0  0  0  0  0  0  0  0  0  0  0
  2  1  1  6
  2  4  1  0
  3  2  1  0
  4  5  1  1
  6  4  1  0
  7  6  2  0
  8  6  1  0
  9  8  1  0
  9 10  1  6
 10 11  1  0
 11 15  1  0
 12 11  2  0
 13  9  1  0
 14 13  2  0
 16 13  1  0
 17 16  1  0
 17 18  1  1
 18 19  1  0
 19 23  1  0
 20 19  2  0
 20 21  1  0
 21 22  1  0
 23 22  2  0
 24 26  1  0
 24 17  1  0
 25 24  2  0
M  END
$$$$
