TDH.pdb
     RDKit          3D

 26 26  0  0  1  0  0  0  0  0999 V2000
   16.1602   -3.8802  -20.5668 C   0  0  0  0  0  0  0  0  0  0  0  0
   17.3028   -4.2694  -19.6896 C   0  0  1  0  0  0  0  0  0  0  0  0
   17.7070   -5.5646  -20.0541 O   0  0  0  0  0  0  0  0  0  0  0  0
   18.5132   -3.3749  -19.8039 C   0  0  2  0  0  0  0  0  0  0  0  0
   18.8978   -3.3129  -21.2066 N   0  0  0  0  0  0  0  0  0  0  0  0
   19.6658   -3.8841  -18.9758 C   0  0  0  0  0  0  0  0  0  0  0  0
   20.6304   -4.4224  -19.5614 O   0  0  0  0  0  0  0  0  0  0  0  0
   19.6599   -3.7587  -17.5764 N   0  0  0  0  0  0  0  0  0  0  0  0
   20.6172   -4.2027  -16.6137 C   0  0  1  0  0  0  0  0  0  0  0  0
   20.9375   -3.2266  -15.4935 C   0  0  0  0  0  0  0  0  0  0  0  0
   21.9436   -3.7429  -14.5419 C   0  0  0  0  0  0  0  0  0  0  0  0
   23.1364   -3.8557  -14.9160 O   0  0  0  0  0  0  0  0  0  0  0  0
   20.5281   -5.5944  -16.1975 C   0  0  0  0  0  0  0  0  0  0  0  0
   19.4265   -6.0220  -15.7754 O   0  0  0  0  0  0  0  0  0  0  0  0
   21.6220   -4.1072  -13.2526 O   0  0  0  0  0  0  0  0  0  0  0  0
   21.6371   -6.4465  -16.2617 N   0  0  0  0  0  0  0  0  0  0  0  0
   21.5866   -7.8476  -15.8145 C   0  0  1  0  0  0  0  0  0  0  0  0
   22.9376   -8.4342  -16.2416 C   0  0  0  0  0  0  0  0  0  0  0  0
   23.0411   -9.8588  -15.9630 C   0  0  0  0  0  0  0  0  0  0  0  0
   22.0752  -10.6570  -15.3964 C   0  0  0  0  0  0  0  0  0  0  0  0
   22.5642  -11.9254  -15.3072 N   0  0  0  0  0  0  0  0  0  0  0  0
   23.8026  -11.9227  -15.8043 C   0  0  0  0  0  0  0  0  0  0  0  0
   24.0961  -10.6517  -16.2079 N   0  0  0  0  0  0  0  0  0  0  0  0
   21.4460   -7.8286  -14.3398 C   0  0  0  0  0  0  0  0  0  0  0  0
   22.0151   -6.9128  -13.6874 O   0  0  0  0  0  0  0  0  0  0  0  0
   20.7194   -8.7642  -13.6163 O   0  0  0  0  0  0  0  0  0  0  0  0
  2  1  1  6
  2  4  1  0
  3  2  1  0
  4  5  1  6
  6  4  1  0
  7  6  2  0
  8  6  1  0
  9  8  1  0
  9 10  1  1
 10 11  1  0
 11 15  1  0
 12 11  2  0
 13  9  1  0
 14 13  2  0
 16 13  1  0
 17 16  1  0
 17 18  1  1
 18 19  1  0
 19 23  1  0
 20 19  2  0
 20 21  1  0
 21 22  1  0
 23 22  2  0
 24 26  1  0
 24 17  1  0
 25 24  2  0
M  END
$$$$
