TDH.pdb
     RDKit          3D

 26 26  0  0  1  0  0  0  0  0999 V2000
   19.2113  -13.4827  -15.2898 C   0  0  0  0  0  0  0  0  0  0  0  0
   17.9534  -13.7168  -16.0575 C   0  0  1  0  0  0  0  0  0  0  0  0
   17.6965  -15.0981  -16.0570 O   0  0  0  0  0  0  0  0  0  0  0  0
   16.7342  -13.0354  -15.4853 C   0  0  2  0  0  0  0  0  0  0  0  0
   15.5678  -13.5084  -16.2169 N   0  0  0  0  0  0  0  0  0  0  0  0
   16.8323  -11.5343  -15.5871 C   0  0  0  0  0  0  0  0  0  0  0  0
   17.7248  -11.0415  -16.3107 O   0  0  0  0  0  0  0  0  0  0  0  0
   15.9422  -10.7037  -14.8857 N   0  0  0  0  0  0  0  0  0  0  0  0
   15.9373   -9.2826  -14.7414 C   0  0  1  0  0  0  0  0  0  0  0  0
   14.6841   -8.6795  -14.1282 C   0  0  0  0  0  0  0  0  0  0  0  0
   13.4372   -9.2920  -14.6325 C   0  0  0  0  0  0  0  0  0  0  0  0
   13.2300   -9.3244  -15.8700 O   0  0  0  0  0  0  0  0  0  0  0  0
   17.1817   -8.6657  -14.3066 C   0  0  0  0  0  0  0  0  0  0  0  0
   17.6858   -9.0398  -13.2201 O   0  0  0  0  0  0  0  0  0  0  0  0
   12.4878   -9.8324  -13.7929 O   0  0  0  0  0  0  0  0  0  0  0  0
   17.8118   -7.6778  -15.0728 N   0  0  0  0  0  0  0  0  0  0  0  0
   19.1459   -7.1510  -14.7441 C   0  0  1  0  0  0  0  0  0  0  0  0
   20.0982   -7.9158  -15.6714 C   0  0  0  0  0  0  0  0  0  0  0  0
   21.2226   -8.5019  -14.9570 C   0  0  0  0  0  0  0  0  0  0  0  0
   21.4627   -8.4320  -13.6048 C   0  0  0  0  0  0  0  0  0  0  0  0
   22.6150   -9.1080  -13.3377 N   0  0  0  0  0  0  0  0  0  0  0  0
   23.0844   -9.5885  -14.4907 C   0  0  0  0  0  0  0  0  0  0  0  0
   22.2280   -9.2161  -15.4869 N   0  0  0  0  0  0  0  0  0  0  0  0
   19.1310   -5.7031  -15.0575 C   0  0  0  0  0  0  0  0  0  0  0  0
   18.3769   -5.2889  -15.9783 O   0  0  0  0  0  0  0  0  0  0  0  0
   19.9022   -4.7569  -14.3964 O   0  0  0  0  0  0  0  0  0  0  0  0
  2  1  1  1
  2  4  1  0
  3  2  1  0
  4  5  1  6
  6  4  1  0
  7  6  2  0
  8  6  1  0
  9  8  1  0
  9 10  1  1
 10 11  1  0
 11 15  1  0
 12 11  2  0
 13  9  1  0
 14 13  2  0
 16 13  1  0
 17 16  1  0
 17 18  1  6
 18 19  1  0
 19 23  1  0
 20 19  2  0
 20 21  1  0
 21 22  1  0
 23 22  2  0
 24 26  1  0
 24 17  1  0
 25 24  2  0
M  END
$$$$
