TDH.pdb
     RDKit          3D

 26 26  0  0  1  0  0  0  0  0999 V2000
   13.7710   -9.0139  -18.7304 C   0  0  0  0  0  0  0  0  0  0  0  0
   13.8463   -9.9262  -17.5521 C   0  0  1  0  0  0  0  0  0  0  0  0
   12.9859  -11.0113  -17.7888 O   0  0  0  0  0  0  0  0  0  0  0  0
   15.2192  -10.4944  -17.2863 C   0  0  2  0  0  0  0  0  0  0  0  0
   15.1005  -11.4838  -16.2250 N   0  0  0  0  0  0  0  0  0  0  0  0
   16.2004   -9.4227  -16.8840 C   0  0  0  0  0  0  0  0  0  0  0  0
   15.8373   -8.5613  -16.0537 O   0  0  0  0  0  0  0  0  0  0  0  0
   17.4954   -9.3888  -17.4279 N   0  0  0  0  0  0  0  0  0  0  0  0
   18.5345   -8.4234  -17.2582 C   0  0  1  0  0  0  0  0  0  0  0  0
   19.9565   -8.9547  -17.3342 C   0  0  0  0  0  0  0  0  0  0  0  0
   20.2053  -10.0841  -16.4140 C   0  0  0  0  0  0  0  0  0  0  0  0
   20.1231   -9.8926  -15.1762 O   0  0  0  0  0  0  0  0  0  0  0  0
   18.3358   -7.1307  -17.8965 C   0  0  0  0  0  0  0  0  0  0  0  0
   17.9205   -7.1069  -19.0803 O   0  0  0  0  0  0  0  0  0  0  0  0
   20.5256  -11.3465  -16.8637 O   0  0  0  0  0  0  0  0  0  0  0  0
   18.5976   -5.9348  -17.2173 N   0  0  0  0  0  0  0  0  0  0  0  0
   18.3629   -4.6133  -17.8205 C   0  0  1  0  0  0  0  0  0  0  0  0
   16.8977   -4.2990  -17.4949 C   0  0  0  0  0  0  0  0  0  0  0  0
   16.5168   -2.9487  -17.8817 C   0  0  0  0  0  0  0  0  0  0  0  0
   16.0821   -1.9469  -17.0460 C   0  0  0  0  0  0  0  0  0  0  0  0
   15.8286   -0.8397  -17.7983 N   0  0  0  0  0  0  0  0  0  0  0  0
   16.0971   -1.1391  -19.0707 C   0  0  0  0  0  0  0  0  0  0  0  0
   16.5206   -2.4362  -19.1223 N   0  0  0  0  0  0  0  0  0  0  0  0
   19.2823   -3.6616  -17.1541 C   0  0  0  0  0  0  0  0  0  0  0  0
   19.9084   -4.0399  -16.1279 O   0  0  0  0  0  0  0  0  0  0  0  0
   19.5051   -2.3623  -17.5891 O   0  0  0  0  0  0  0  0  0  0  0  0
  2  1  1  6
  2  4  1  0
  3  2  1  0
  4  5  1  1
  6  4  1  0
  7  6  2  0
  8  6  1  0
  9  8  1  0
  9 10  1  6
 10 11  1  0
 11 15  1  0
 12 11  2  0
 13  9  1  0
 14 13  2  0
 16 13  1  0
 17 16  1  0
 17 18  1  1
 18 19  1  0
 19 23  1  0
 20 19  2  0
 20 21  1  0
 21 22  1  0
 23 22  2  0
 24 26  1  0
 24 17  1  0
 25 24  2  0
M  END
$$$$
