TDH.pdb
     RDKit          3D

 26 26  0  0  1  0  0  0  0  0999 V2000
   17.6594   -8.7501  -16.1011 C   0  0  0  0  0  0  0  0  0  0  0  0
   18.7332   -9.7580  -15.8613 C   0  0  1  0  0  0  0  0  0  0  0  0
   19.0679  -10.3367  -17.0969 O   0  0  0  0  0  0  0  0  0  0  0  0
   20.0035   -9.1922  -15.2743 C   0  0  2  0  0  0  0  0  0  0  0  0
   20.9796  -10.2690  -15.1883 N   0  0  0  0  0  0  0  0  0  0  0  0
   19.7724   -8.5963  -13.9087 C   0  0  0  0  0  0  0  0  0  0  0  0
   19.3829   -9.3463  -12.9875 O   0  0  0  0  0  0  0  0  0  0  0  0
   19.9886   -7.2283  -13.6724 N   0  0  0  0  0  0  0  0  0  0  0  0
   19.7048   -6.4437  -12.5129 C   0  0  1  0  0  0  0  0  0  0  0  0
   20.4924   -5.1512  -12.3740 C   0  0  0  0  0  0  0  0  0  0  0  0
   21.9558   -5.3582  -12.3805 C   0  0  0  0  0  0  0  0  0  0  0  0
   22.6705   -4.6418  -13.1231 O   0  0  0  0  0  0  0  0  0  0  0  0
   18.3084   -6.3481  -12.1144 C   0  0  0  0  0  0  0  0  0  0  0  0
   17.4735   -5.9402  -12.9577 O   0  0  0  0  0  0  0  0  0  0  0  0
   22.5702   -6.3119  -11.5986 O   0  0  0  0  0  0  0  0  0  0  0  0
   17.8930   -6.6999  -10.8246 N   0  0  0  0  0  0  0  0  0  0  0  0
   16.4746   -6.7565  -10.4369 C   0  0  1  0  0  0  0  0  0  0  0  0
   16.4107   -7.8668   -9.3811 C   0  0  0  0  0  0  0  0  0  0  0  0
   15.0732   -8.0419   -8.8350 C   0  0  0  0  0  0  0  0  0  0  0  0
   14.5827   -7.4948   -7.6725 C   0  0  0  0  0  0  0  0  0  0  0  0
   13.2915   -7.9009   -7.5181 N   0  0  0  0  0  0  0  0  0  0  0  0
   12.9809   -8.6811   -8.5552 C   0  0  0  0  0  0  0  0  0  0  0  0
   14.0765   -8.7679   -9.3654 N   0  0  0  0  0  0  0  0  0  0  0  0
   16.1291   -5.4373   -9.8577 C   0  0  0  0  0  0  0  0  0  0  0  0
   17.0356   -4.7636   -9.2987 O   0  0  0  0  0  0  0  0  0  0  0  0
   14.8564   -4.8841   -9.8890 O   0  0  0  0  0  0  0  0  0  0  0  0
  2  1  1  6
  2  4  1  0
  3  2  1  0
  4  5  1  1
  6  4  1  0
  7  6  2  0
  8  6  1  0
  9  8  1  0
  9 10  1  6
 10 11  1  0
 11 15  1  0
 12 11  2  0
 13  9  1  0
 14 13  2  0
 16 13  1  0
 17 16  1  0
 17 18  1  1
 18 19  1  0
 19 23  1  0
 20 19  2  0
 20 21  1  0
 21 22  1  0
 23 22  2  0
 24 26  1  0
 24 17  1  0
 25 24  2  0
M  END
$$$$
