TDH.pdb
     RDKit          3D

 26 26  0  0  1  0  0  0  0  0999 V2000
   19.6017  -11.0087    8.2757 C   0  0  0  0  0  0  0  0  0  0  0  0
   20.8094  -10.6191    7.4907 C   0  0  1  0  0  0  0  0  0  0  0  0
   20.6256   -9.3018    7.0384 O   0  0  0  0  0  0  0  0  0  0  0  0
   22.1005  -10.6471    8.2721 C   0  0  2  0  0  0  0  0  0  0  0  0
   23.1834  -10.2883    7.3676 N   0  0  0  0  0  0  0  0  0  0  0  0
   22.3610  -12.0044    8.8746 C   0  0  0  0  0  0  0  0  0  0  0  0
   22.9033  -12.8791    8.1649 O   0  0  0  0  0  0  0  0  0  0  0  0
   22.0034  -12.2845   10.2042 N   0  0  0  0  0  0  0  0  0  0  0  0
   22.0119  -13.5250   10.9124 C   0  0  1  0  0  0  0  0  0  0  0  0
   22.4425  -13.4579   12.3685 C   0  0  0  0  0  0  0  0  0  0  0  0
   22.6519  -14.7893   12.9751 C   0  0  0  0  0  0  0  0  0  0  0  0
   21.7047  -15.3352   13.5916 O   0  0  0  0  0  0  0  0  0  0  0  0
   20.9077  -14.4356   10.6485 C   0  0  0  0  0  0  0  0  0  0  0  0
   19.7543  -13.9563   10.5282 O   0  0  0  0  0  0  0  0  0  0  0  0
   23.8530  -15.4591   12.8896 O   0  0  0  0  0  0  0  0  0  0  0  0
   21.1136  -15.8151   10.5290 N   0  0  0  0  0  0  0  0  0  0  0  0
   20.0251  -16.7545   10.2156 C   0  0  1  0  0  0  0  0  0  0  0  0
   19.5702  -16.3563    8.8063 C   0  0  0  0  0  0  0  0  0  0  0  0
   18.5120  -17.2158    8.2972 C   0  0  0  0  0  0  0  0  0  0  0  0
   17.5150  -17.8137    9.0318 C   0  0  0  0  0  0  0  0  0  0  0  0
   16.7294  -18.5341    8.1833 N   0  0  0  0  0  0  0  0  0  0  0  0
   17.2202  -18.3918    6.9506 C   0  0  0  0  0  0  0  0  0  0  0  0
   18.3166  -17.5808    7.0204 N   0  0  0  0  0  0  0  0  0  0  0  0
   20.6079  -18.1165   10.2323 C   0  0  0  0  0  0  0  0  0  0  0  0
   21.8616  -18.2409   10.2040 O   0  0  0  0  0  0  0  0  0  0  0  0
   19.8564  -19.2828   10.2777 O   0  0  0  0  0  0  0  0  0  0  0  0
  2  1  1  1
  2  4  1  0
  3  2  1  0
  4  5  1  6
  6  4  1  0
  7  6  2  0
  8  6  1  0
  9  8  1  0
  9 10  1  1
 10 11  1  0
 11 15  1  0
 12 11  2  0
 13  9  1  0
 14 13  2  0
 16 13  1  0
 17 16  1  0
 17 18  1  6
 18 19  1  0
 19 23  1  0
 20 19  2  0
 20 21  1  0
 21 22  1  0
 23 22  2  0
 24 26  1  0
 24 17  1  0
 25 24  2  0
M  END
$$$$
