LFY.pdb
     RDKit          3D

 32 33  0  0  1  0  0  0  0  0999 V2000
    8.9605  -15.0860   17.5065 C   0  0  0  0  0  0  0  0  0  0  0  0
    8.1363  -14.1630   18.3761 C   0  0  2  0  0  0  0  0  0  0  0  0
    7.8465  -12.8518   17.6837 C   0  0  0  0  0  0  0  0  0  0  0  0
    8.7473  -13.9570   19.7297 C   0  0  0  0  0  0  0  0  0  0  0  0
    8.8978  -15.2542   20.4943 C   0  0  2  0  0  0  0  0  0  0  0  0
    7.7496  -16.0989   20.3818 N   0  0  0  0  0  0  0  0  0  0  0  0
    9.1899  -14.9832   21.9172 C   0  0  0  0  0  0  0  0  0  0  0  0
   10.2163  -14.3218   22.2641 O   0  0  0  0  0  0  0  0  0  0  0  0
    8.3324  -15.4540   22.9319 N   0  0  0  0  0  0  0  0  0  0  0  0
    8.4947  -14.9607   24.3311 C   0  0  1  0  0  0  0  0  0  0  0  0
    7.1861  -14.4872   24.8340 C   0  0  0  0  0  0  0  0  0  0  0  0
    7.1913  -13.6227   26.0314 C   0  0  0  0  0  0  0  0  0  0  0  0
    6.0293  -13.1995   26.6282 C   0  0  0  0  0  0  0  0  0  0  0  0
    6.0035  -12.4342   27.7526 C   0  0  0  0  0  0  0  0  0  0  0  0
    7.2228  -12.0660   28.3204 C   0  0  0  0  0  0  0  0  0  0  0  0
    8.3896  -12.4844   27.7306 C   0  0  0  0  0  0  0  0  0  0  0  0
    8.3922  -13.2572   26.5947 C   0  0  0  0  0  0  0  0  0  0  0  0
    9.1462  -16.0651   25.0608 C   0  0  0  0  0  0  0  0  0  0  0  0
    8.6813  -17.2634   24.9281 O   0  0  0  0  0  0  0  0  0  0  0  0
   12.4585  -18.6401   20.6789 O   0  0  0  0  0  0  0  0  0  0  0  0
   12.4043  -18.2958   22.0218 C   0  0  0  0  0  0  0  0  0  0  0  0
   12.7279  -17.0597   22.5086 C   0  0  0  0  0  0  0  0  0  0  0  0
   12.6494  -16.7902   23.8603 C   0  0  0  0  0  0  0  0  0  0  0  0
   12.2411  -17.7544   24.7832 C   0  0  0  0  0  0  0  0  0  0  0  0
   12.2035  -17.4010   26.2116 C   0  0  0  0  0  0  0  0  0  0  0  0
   10.7637  -17.1190   26.6061 C   0  0  2  0  0  0  0  0  0  0  0  0
   10.2717  -15.9440   25.9155 N   0  0  0  0  0  0  0  0  0  0  0  0
   10.5579  -17.0310   28.0471 C   0  0  0  0  0  0  0  0  0  0  0  0
   10.0620  -16.0140   28.6250 O   0  0  0  0  0  0  0  0  0  0  0  0
   11.9230  -18.9885   24.2563 C   0  0  0  0  0  0  0  0  0  0  0  0
   11.9974  -19.2699   22.9072 C   0  0  0  0  0  0  0  0  0  0  0  0
   10.9062  -18.0894   28.8718 O   0  0  0  0  0  0  0  0  0  0  0  0
  2  3  1  6
  2  1  1  0
  4  2  1  0
  5  4  1  0
  5  6  1  1
  7  8  2  0
  7  5  1  0
  9  7  1  0
 10  9  1  0
 11 12  1  0
 10 11  1  1
 12 13  2  0
 12 17  1  0
 13 14  1  0
 14 15  2  0
 16 15  1  0
 17 16  2  0
 18 10  1  0
 18 19  2  0
 20 21  1  0
 21 22  2  0
 22 23  1  0
 24 25  1  0
 24 23  2  0
 26 27  1  0
 26 25  1  1
 27 18  1  0
 28 26  1  0
 29 28  2  0
 30 24  1  0
 31 30  2  0
 31 21  1  0
 32 28  1  0
M  END
$$$$
