LFY.pdb
     RDKit          3D

 32 33  0  0  1  0  0  0  0  0999 V2000
    6.6381  -21.7353   20.3697 C   0  0  0  0  0  0  0  0  0  0  0  0
    8.0212  -21.1964   20.6596 C   0  0  2  0  0  0  0  0  0  0  0  0
    8.9846  -22.2985   21.0341 C   0  0  0  0  0  0  0  0  0  0  0  0
    8.0038  -20.0988   21.6809 C   0  0  0  0  0  0  0  0  0  0  0  0
    7.0646  -18.9753   21.2991 C   0  0  2  0  0  0  0  0  0  0  0  0
    6.9167  -18.8350   19.8838 N   0  0  0  0  0  0  0  0  0  0  0  0
    7.5197  -17.6997   21.8899 C   0  0  0  0  0  0  0  0  0  0  0  0
    8.3946  -16.9826   21.3141 O   0  0  0  0  0  0  0  0  0  0  0  0
    6.9917  -17.2429   23.1144 N   0  0  0  0  0  0  0  0  0  0  0  0
    7.5133  -15.9858   23.7265 C   0  0  1  0  0  0  0  0  0  0  0  0
    6.4595  -15.3846   24.5737 C   0  0  0  0  0  0  0  0  0  0  0  0
    6.7907  -14.1318   25.2825 C   0  0  0  0  0  0  0  0  0  0  0  0
    6.5209  -13.9583   26.6176 C   0  0  0  0  0  0  0  0  0  0  0  0
    6.8480  -12.8306   27.3048 C   0  0  0  0  0  0  0  0  0  0  0  0
    7.4890  -11.8052   26.6102 C   0  0  0  0  0  0  0  0  0  0  0  0
    7.7627  -11.9699   25.2752 C   0  0  0  0  0  0  0  0  0  0  0  0
    7.4231  -13.1177   24.6009 C   0  0  0  0  0  0  0  0  0  0  0  0
    8.7792  -16.3669   24.3814 C   0  0  0  0  0  0  0  0  0  0  0  0
    8.7362  -17.0385   25.4845 O   0  0  0  0  0  0  0  0  0  0  0  0
    9.4559  -18.1255   30.5145 O   0  0  0  0  0  0  0  0  0  0  0  0
    9.9052  -18.0691   29.2031 C   0  0  0  0  0  0  0  0  0  0  0  0
   11.1804  -17.7296   28.8451 C   0  0  0  0  0  0  0  0  0  0  0  0
   11.5556  -17.6951   27.5170 C   0  0  0  0  0  0  0  0  0  0  0  0
   10.6625  -18.0012   26.4889 C   0  0  0  0  0  0  0  0  0  0  0  0
   11.1280  -17.9211   25.0948 C   0  0  0  0  0  0  0  0  0  0  0  0
   11.2300  -16.4580   24.6984 C   0  0  2  0  0  0  0  0  0  0  0  0
   10.0817  -16.0685   23.9052 N   0  0  0  0  0  0  0  0  0  0  0  0
   12.4870  -16.1151   24.0436 C   0  0  0  0  0  0  0  0  0  0  0  0
   13.6273  -16.2942   24.5745 O   0  0  0  0  0  0  0  0  0  0  0  0
    9.3863  -18.3389   26.8875 C   0  0  0  0  0  0  0  0  0  0  0  0
    8.9993  -18.3769   28.2117 C   0  0  0  0  0  0  0  0  0  0  0  0
   12.4883  -15.5621   22.7724 O   0  0  0  0  0  0  0  0  0  0  0  0
  2  3  1  1
  2  1  1  0
  4  2  1  0
  5  4  1  0
  5  6  1  6
  7  8  2  0
  7  5  1  0
  9  7  1  0
 10  9  1  0
 11 12  1  0
 10 11  1  1
 12 13  2  0
 12 17  1  0
 13 14  1  0
 14 15  2  0
 16 15  1  0
 17 16  2  0
 18 10  1  0
 18 19  2  0
 20 21  1  0
 21 22  2  0
 22 23  1  0
 24 25  1  0
 24 23  2  0
 26 27  1  0
 26 25  1  6
 27 18  1  0
 28 26  1  0
 29 28  2  0
 30 24  1  0
 31 30  2  0
 31 21  1  0
 32 28  1  0
M  END
$$$$
