LFY.pdb
     RDKit          3D

 32 33  0  0  1  0  0  0  0  0999 V2000
    9.7701  -21.1297   20.3351 C   0  0  0  0  0  0  0  0  0  0  0  0
    9.5279  -19.8569   19.5547 C   0  0  2  0  0  0  0  0  0  0  0  0
    9.9620  -19.9922   18.1139 C   0  0  0  0  0  0  0  0  0  0  0  0
   10.1421  -18.6580   20.2130 C   0  0  0  0  0  0  0  0  0  0  0  0
    9.6227  -17.3586   19.6369 C   0  0  2  0  0  0  0  0  0  0  0  0
   10.3617  -16.9272   18.4913 N   0  0  0  0  0  0  0  0  0  0  0  0
    9.6235  -16.3005   20.6682 C   0  0  0  0  0  0  0  0  0  0  0  0
   10.6153  -15.5212   20.8112 O   0  0  0  0  0  0  0  0  0  0  0  0
    8.5177  -16.1274   21.5250 N   0  0  0  0  0  0  0  0  0  0  0  0
    8.5571  -15.0808   22.5881 C   0  0  1  0  0  0  0  0  0  0  0  0
    7.1787  -14.6210   22.8681 C   0  0  0  0  0  0  0  0  0  0  0  0
    6.9949  -13.6618   23.9760 C   0  0  0  0  0  0  0  0  0  0  0  0
    6.4045  -14.0242   25.1616 C   0  0  0  0  0  0  0  0  0  0  0  0
    6.2555  -13.1728   26.2122 C   0  0  0  0  0  0  0  0  0  0  0  0
    6.7292  -11.8690   26.0686 C   0  0  0  0  0  0  0  0  0  0  0  0
    7.3209  -11.4978   24.8870 C   0  0  0  0  0  0  0  0  0  0  0  0
    7.4608  -12.3746   23.8385 C   0  0  0  0  0  0  0  0  0  0  0  0
    9.3136  -15.6843   23.7016 C   0  0  0  0  0  0  0  0  0  0  0  0
    9.0482  -16.8991   24.0532 O   0  0  0  0  0  0  0  0  0  0  0  0
   11.7152  -16.8042   31.8538 O   0  0  0  0  0  0  0  0  0  0  0  0
   11.5819  -16.2702   30.5803 C   0  0  0  0  0  0  0  0  0  0  0  0
   12.3311  -16.6598   29.5049 C   0  0  0  0  0  0  0  0  0  0  0  0
   12.1418  -16.0819   28.2655 C   0  0  0  0  0  0  0  0  0  0  0  0
   11.1884  -15.0846   28.0535 C   0  0  0  0  0  0  0  0  0  0  0  0
   11.0586  -14.4988   26.7094 C   0  0  0  0  0  0  0  0  0  0  0  0
   10.7357  -15.6085   25.7233 C   0  0  2  0  0  0  0  0  0  0  0  0
   10.3411  -15.0499   24.4458 N   0  0  0  0  0  0  0  0  0  0  0  0
    9.7598  -16.5701   26.2229 C   0  0  0  0  0  0  0  0  0  0  0  0
   10.0663  -17.7324   26.6344 O   0  0  0  0  0  0  0  0  0  0  0  0
   10.4521  -14.7174   29.1602 C   0  0  0  0  0  0  0  0  0  0  0  0
   10.6322  -15.2877   30.4041 C   0  0  0  0  0  0  0  0  0  0  0  0
    8.4136  -16.2432   26.2715 O   0  0  0  0  0  0  0  0  0  0  0  0
  2  3  1  6
  2  1  1  0
  4  2  1  0
  5  4  1  0
  5  6  1  6
  7  8  2  0
  7  5  1  0
  9  7  1  0
 10  9  1  0
 11 12  1  0
 10 11  1  1
 12 13  2  0
 12 17  1  0
 13 14  1  0
 14 15  2  0
 16 15  1  0
 17 16  2  0
 18 10  1  0
 18 19  2  0
 20 21  1  0
 21 22  2  0
 22 23  1  0
 24 25  1  0
 24 23  2  0
 26 27  1  0
 26 25  1  1
 27 18  1  0
 28 26  1  0
 29 28  2  0
 30 24  1  0
 31 30  2  0
 31 21  1  0
 32 28  1  0
M  END
$$$$
