LFY.pdb
     RDKit          3D

 32 33  0  0  1  0  0  0  0  0999 V2000
    8.2783  -12.7160   17.7346 C   0  0  0  0  0  0  0  0  0  0  0  0
    8.0439  -13.7681   18.7955 C   0  0  2  0  0  0  0  0  0  0  0  0
    7.3576  -13.1931   20.0125 C   0  0  0  0  0  0  0  0  0  0  0  0
    9.2994  -14.5036   19.1575 C   0  0  0  0  0  0  0  0  0  0  0  0
    9.0358  -15.6597   20.0977 C   0  0  2  0  0  0  0  0  0  0  0  0
    7.7192  -16.1990   19.9554 N   0  0  0  0  0  0  0  0  0  0  0  0
    9.2663  -15.2483   21.4980 C   0  0  0  0  0  0  0  0  0  0  0  0
   10.3819  -14.7691   21.8682 O   0  0  0  0  0  0  0  0  0  0  0  0
    8.2486  -15.3777   22.4646 N   0  0  0  0  0  0  0  0  0  0  0  0
    8.4652  -14.8581   23.8468 C   0  0  1  0  0  0  0  0  0  0  0  0
    7.2744  -14.0872   24.2679 C   0  0  0  0  0  0  0  0  0  0  0  0
    7.3265  -13.4237   25.5863 C   0  0  0  0  0  0  0  0  0  0  0  0
    6.3073  -13.5385   26.4993 C   0  0  0  0  0  0  0  0  0  0  0  0
    6.3441  -12.9697   27.7346 C   0  0  0  0  0  0  0  0  0  0  0  0
    7.4776  -12.2352   28.0820 C   0  0  0  0  0  0  0  0  0  0  0  0
    8.5014  -12.1150   27.1756 C   0  0  0  0  0  0  0  0  0  0  0  0
    8.4429  -12.6981   25.9330 C   0  0  0  0  0  0  0  0  0  0  0  0
    8.8340  -16.0371   24.6533 C   0  0  0  0  0  0  0  0  0  0  0  0
    8.2182  -17.1543   24.4472 O   0  0  0  0  0  0  0  0  0  0  0  0
   15.5499  -15.7722   23.4195 O   0  0  0  0  0  0  0  0  0  0  0  0
   14.3782  -16.3812   23.8450 C   0  0  0  0  0  0  0  0  0  0  0  0
   13.2573  -16.5079   23.0723 C   0  0  0  0  0  0  0  0  0  0  0  0
   12.1261  -17.1274   23.5648 C   0  0  0  0  0  0  0  0  0  0  0  0
   12.0731  -17.6476   24.8589 C   0  0  0  0  0  0  0  0  0  0  0  0
   10.8248  -18.2747   25.3229 C   0  0  0  0  0  0  0  0  0  0  0  0
   10.1422  -17.3350   26.3023 C   0  0  2  0  0  0  0  0  0  0  0  0
    9.8329  -16.0736   25.6598 N   0  0  0  0  0  0  0  0  0  0  0  0
   10.8811  -17.1473   27.5454 C   0  0  0  0  0  0  0  0  0  0  0  0
   11.1733  -16.0070   28.0234 O   0  0  0  0  0  0  0  0  0  0  0  0
   13.2212  -17.5017   25.6087 C   0  0  0  0  0  0  0  0  0  0  0  0
   14.3581  -16.8844   25.1275 C   0  0  0  0  0  0  0  0  0  0  0  0
   11.3077  -18.2424   28.2806 O   0  0  0  0  0  0  0  0  0  0  0  0
  2  3  1  1
  2  1  1  0
  4  2  1  0
  5  4  1  0
  5  6  1  1
  7  8  2  0
  7  5  1  0
  9  7  1  0
 10  9  1  0
 11 12  1  0
 10 11  1  1
 12 13  2  0
 12 17  1  0
 13 14  1  0
 14 15  2  0
 16 15  1  0
 17 16  2  0
 18 10  1  0
 18 19  2  0
 20 21  1  0
 21 22  2  0
 22 23  1  0
 24 25  1  0
 24 23  2  0
 26 27  1  0
 26 25  1  6
 27 18  1  0
 28 26  1  0
 29 28  2  0
 30 24  1  0
 31 30  2  0
 31 21  1  0
 32 28  1  0
M  END
$$$$
