LFY.pdb
     RDKit          3D

 32 33  0  0  1  0  0  0  0  0999 V2000
    7.0901  -15.4951   16.4305 C   0  0  0  0  0  0  0  0  0  0  0  0
    7.6615  -14.3881   17.2881 C   0  0  2  0  0  0  0  0  0  0  0  0
    7.6456  -13.0587   16.5703 C   0  0  0  0  0  0  0  0  0  0  0  0
    9.0244  -14.7212   17.8170 C   0  0  0  0  0  0  0  0  0  0  0  0
    8.9791  -15.7936   18.8838 C   0  0  2  0  0  0  0  0  0  0  0  0
    7.7698  -16.5559   18.8506 N   0  0  0  0  0  0  0  0  0  0  0  0
    9.1655  -15.1972   20.2227 C   0  0  0  0  0  0  0  0  0  0  0  0
   10.1536  -14.4413   20.4749 O   0  0  0  0  0  0  0  0  0  0  0  0
    8.2467  -15.4531   21.2606 N   0  0  0  0  0  0  0  0  0  0  0  0
    8.4321  -14.8083   22.5937 C   0  0  1  0  0  0  0  0  0  0  0  0
    7.1056  -14.4984   23.1718 C   0  0  0  0  0  0  0  0  0  0  0  0
    7.0784  -13.7912   24.4681 C   0  0  0  0  0  0  0  0  0  0  0  0
    7.4365  -12.4706   24.5840 C   0  0  0  0  0  0  0  0  0  0  0  0
    7.3858  -11.7837   25.7572 C   0  0  0  0  0  0  0  0  0  0  0  0
    6.9471  -12.4629   26.8934 C   0  0  0  0  0  0  0  0  0  0  0  0
    6.5871  -13.7832   26.7870 C   0  0  0  0  0  0  0  0  0  0  0  0
    6.6462  -14.4576   25.5915 C   0  0  0  0  0  0  0  0  0  0  0  0
    9.3086  -15.7223   23.3505 C   0  0  0  0  0  0  0  0  0  0  0  0
    8.9059  -16.9284   23.5810 O   0  0  0  0  0  0  0  0  0  0  0  0
   11.3277  -16.2063   31.5578 O   0  0  0  0  0  0  0  0  0  0  0  0
   10.9955  -15.8991   30.2462 C   0  0  0  0  0  0  0  0  0  0  0  0
   11.1772  -14.6684   29.6790 C   0  0  0  0  0  0  0  0  0  0  0  0
   10.8220  -14.4368   28.3652 C   0  0  0  0  0  0  0  0  0  0  0  0
   10.2674  -15.4354   27.5630 C   0  0  0  0  0  0  0  0  0  0  0  0
    9.8924  -15.1086   26.1776 C   0  0  0  0  0  0  0  0  0  0  0  0
   10.9072  -15.7362   25.2371 C   0  0  2  0  0  0  0  0  0  0  0  0
   10.5932  -15.4053   23.8618 N   0  0  0  0  0  0  0  0  0  0  0  0
   11.0730  -17.1723   25.4285 C   0  0  0  0  0  0  0  0  0  0  0  0
   12.1313  -17.7016   25.8911 O   0  0  0  0  0  0  0  0  0  0  0  0
   10.0989  -16.6629   28.1685 C   0  0  0  0  0  0  0  0  0  0  0  0
   10.4501  -16.9066   29.4808 C   0  0  0  0  0  0  0  0  0  0  0  0
   10.0477  -18.0468   25.1034 O   0  0  0  0  0  0  0  0  0  0  0  0
  2  3  1  6
  2  1  1  0
  4  2  1  0
  5  4  1  0
  5  6  1  1
  7  8  2  0
  7  5  1  0
  9  7  1  0
 10  9  1  0
 11 12  1  0
 10 11  1  1
 12 13  2  0
 12 17  1  0
 13 14  1  0
 14 15  2  0
 16 15  1  0
 17 16  2  0
 18 10  1  0
 18 19  2  0
 20 21  1  0
 21 22  2  0
 22 23  1  0
 24 25  1  0
 24 23  2  0
 26 27  1  0
 26 25  1  1
 27 18  1  0
 28 26  1  0
 29 28  2  0
 30 24  1  0
 31 30  2  0
 31 21  1  0
 32 28  1  0
M  END
$$$$
