LFY.pdb
     RDKit          3D

 32 33  0  0  1  0  0  0  0  0999 V2000
    7.5568  -20.2693   19.1690 C   0  0  0  0  0  0  0  0  0  0  0  0
    8.2847  -18.9604   18.9584 C   0  0  2  0  0  0  0  0  0  0  0  0
    9.5146  -19.1356   18.0985 C   0  0  0  0  0  0  0  0  0  0  0  0
    8.6004  -18.2683   20.2505 C   0  0  0  0  0  0  0  0  0  0  0  0
    9.0683  -16.8448   20.0391 C   0  0  2  0  0  0  0  0  0  0  0  0
   10.2790  -16.7673   19.2821 N   0  0  0  0  0  0  0  0  0  0  0  0
    9.2376  -16.1595   21.3371 C   0  0  0  0  0  0  0  0  0  0  0  0
   10.3803  -16.0480   21.8785 O   0  0  0  0  0  0  0  0  0  0  0  0
    8.1294  -15.6087   22.0119 N   0  0  0  0  0  0  0  0  0  0  0  0
    8.3298  -14.8769   23.2971 C   0  0  1  0  0  0  0  0  0  0  0  0
    7.2771  -13.8465   23.4383 C   0  0  0  0  0  0  0  0  0  0  0  0
    7.1469  -13.1846   24.7522 C   0  0  0  0  0  0  0  0  0  0  0  0
    6.2394  -13.6063   25.6924 C   0  0  0  0  0  0  0  0  0  0  0  0
    6.1228  -13.0401   26.9239 C   0  0  0  0  0  0  0  0  0  0  0  0
    6.9716  -11.9791   27.2380 C   0  0  0  0  0  0  0  0  0  0  0  0
    7.8820  -11.5508   26.3043 C   0  0  0  0  0  0  0  0  0  0  0  0
    7.9824  -12.1375   25.0661 C   0  0  0  0  0  0  0  0  0  0  0  0
    8.4027  -15.9233   24.3345 C   0  0  0  0  0  0  0  0  0  0  0  0
    7.6209  -16.9484   24.2460 O   0  0  0  0  0  0  0  0  0  0  0  0
   13.4351  -22.4305   26.1099 O   0  0  0  0  0  0  0  0  0  0  0  0
   12.7734  -21.2758   25.7176 C   0  0  0  0  0  0  0  0  0  0  0  0
   13.4044  -20.1285   25.3240 C   0  0  0  0  0  0  0  0  0  0  0  0
   12.6781  -19.0168   24.9466 C   0  0  0  0  0  0  0  0  0  0  0  0
   11.2823  -19.0108   24.9487 C   0  0  0  0  0  0  0  0  0  0  0  0
   10.5756  -17.7811   24.5551 C   0  0  0  0  0  0  0  0  0  0  0  0
    9.9797  -17.1423   25.7981 C   0  0  2  0  0  0  0  0  0  0  0  0
    9.2765  -15.9236   25.4519 N   0  0  0  0  0  0  0  0  0  0  0  0
   10.9475  -16.9286   26.8678 C   0  0  0  0  0  0  0  0  0  0  0  0
   11.3226  -17.8412   27.6682 O   0  0  0  0  0  0  0  0  0  0  0  0
   10.6807  -20.1845   25.3514 C   0  0  0  0  0  0  0  0  0  0  0  0
   11.3959  -21.3023   25.7309 C   0  0  0  0  0  0  0  0  0  0  0  0
   11.5167  -15.6793   27.0602 O   0  0  0  0  0  0  0  0  0  0  0  0
  2  3  1  1
  2  1  1  0
  4  2  1  0
  5  4  1  0
  5  6  1  1
  7  8  2  0
  7  5  1  0
  9  7  1  0
 10  9  1  0
 11 12  1  0
 10 11  1  1
 12 13  2  0
 12 17  1  0
 13 14  1  0
 14 15  2  0
 16 15  1  0
 17 16  2  0
 18 10  1  0
 18 19  2  0
 20 21  1  0
 21 22  2  0
 22 23  1  0
 24 25  1  0
 24 23  2  0
 26 27  1  0
 26 25  1  6
 27 18  1  0
 28 26  1  0
 29 28  2  0
 30 24  1  0
 31 30  2  0
 31 21  1  0
 32 28  1  0
M  END
$$$$
