LFY.pdb
     RDKit          3D

 32 33  0  0  1  0  0  0  0  0999 V2000
    6.9935  -12.3933   19.3537 C   0  0  0  0  0  0  0  0  0  0  0  0
    8.1061  -13.4169   19.3123 C   0  0  2  0  0  0  0  0  0  0  0  0
    8.9530  -13.2737   18.0693 C   0  0  0  0  0  0  0  0  0  0  0  0
    7.6000  -14.8177   19.4852 C   0  0  0  0  0  0  0  0  0  0  0  0
    8.5680  -15.6857   20.2595 C   0  0  2  0  0  0  0  0  0  0  0  0
    8.1468  -17.0499   20.3375 N   0  0  0  0  0  0  0  0  0  0  0  0
    8.7762  -15.1412   21.6172 C   0  0  0  0  0  0  0  0  0  0  0  0
    8.9263  -13.8958   21.8112 O   0  0  0  0  0  0  0  0  0  0  0  0
    8.8138  -15.9944   22.7386 N   0  0  0  0  0  0  0  0  0  0  0  0
    8.7115  -15.4215   24.1129 C   0  0  1  0  0  0  0  0  0  0  0  0
    7.4759  -14.6132   24.2112 C   0  0  0  0  0  0  0  0  0  0  0  0
    7.2732  -13.8305   25.4472 C   0  0  0  0  0  0  0  0  0  0  0  0
    8.2100  -13.8000   26.4507 C   0  0  0  0  0  0  0  0  0  0  0  0
    8.0672  -13.0593   27.5829 C   0  0  0  0  0  0  0  0  0  0  0  0
    6.9083  -12.2962   27.7223 C   0  0  0  0  0  0  0  0  0  0  0  0
    5.9663  -12.3205   26.7242 C   0  0  0  0  0  0  0  0  0  0  0  0
    6.1313  -13.0763   25.5888 C   0  0  0  0  0  0  0  0  0  0  0  0
    8.8477  -16.5721   25.0262 C   0  0  0  0  0  0  0  0  0  0  0  0
    7.9976  -16.7110   25.9894 O   0  0  0  0  0  0  0  0  0  0  0  0
   13.1107  -16.4790   19.6333 O   0  0  0  0  0  0  0  0  0  0  0  0
   12.7841  -16.3376   20.9743 C   0  0  0  0  0  0  0  0  0  0  0  0
   12.8739  -15.1601   21.6637 C   0  0  0  0  0  0  0  0  0  0  0  0
   12.5307  -15.0958   22.9993 C   0  0  0  0  0  0  0  0  0  0  0  0
   12.0813  -16.2155   23.7012 C   0  0  0  0  0  0  0  0  0  0  0  0
   11.7550  -16.0758   25.1297 C   0  0  0  0  0  0  0  0  0  0  0  0
   11.1150  -17.3666   25.6119 C   0  0  2  0  0  0  0  0  0  0  0  0
    9.8442  -17.5786   24.9489 N   0  0  0  0  0  0  0  0  0  0  0  0
   10.9947  -17.4541   27.0626 C   0  0  0  0  0  0  0  0  0  0  0  0
   11.9916  -17.4788   27.8498 O   0  0  0  0  0  0  0  0  0  0  0  0
   12.0036  -17.3846   22.9740 C   0  0  0  0  0  0  0  0  0  0  0  0
   12.3438  -17.4615   21.6386 C   0  0  0  0  0  0  0  0  0  0  0  0
    9.7457  -17.5150   27.6610 O   0  0  0  0  0  0  0  0  0  0  0  0
  2  3  1  6
  2  1  1  0
  4  2  1  0
  5  4  1  0
  5  6  1  1
  7  8  2  0
  7  5  1  0
  9  7  1  0
 10  9  1  0
 11 12  1  0
 10 11  1  6
 12 13  2  0
 12 17  1  0
 13 14  1  0
 14 15  2  0
 16 15  1  0
 17 16  2  0
 18 10  1  0
 18 19  2  0
 20 21  1  0
 21 22  2  0
 22 23  1  0
 24 25  1  0
 24 23  2  0
 26 27  1  0
 26 25  1  1
 27 18  1  0
 28 26  1  0
 29 28  2  0
 30 24  1  0
 31 30  2  0
 31 21  1  0
 32 28  1  0
M  END
$$$$
