LFY.pdb
     RDKit          3D

 32 33  0  0  1  0  0  0  0  0999 V2000
    6.5659  -14.5819   19.1457 C   0  0  0  0  0  0  0  0  0  0  0  0
    7.8687  -13.8162   19.2080 C   0  0  2  0  0  0  0  0  0  0  0  0
    7.8602  -12.6205   18.2844 C   0  0  0  0  0  0  0  0  0  0  0  0
    9.0598  -14.6958   18.9722 C   0  0  0  0  0  0  0  0  0  0  0  0
    9.1957  -15.7721   20.0273 C   0  0  2  0  0  0  0  0  0  0  0  0
    8.1125  -16.7054   20.0078 N   0  0  0  0  0  0  0  0  0  0  0  0
    9.3181  -15.1660   21.3693 C   0  0  0  0  0  0  0  0  0  0  0  0
   10.2734  -14.3792   21.6516 O   0  0  0  0  0  0  0  0  0  0  0  0
    8.3729  -15.4468   22.3766 N   0  0  0  0  0  0  0  0  0  0  0  0
    8.3913  -14.6704   23.6510 C   0  0  1  0  0  0  0  0  0  0  0  0
    6.9996  -14.3973   24.0733 C   0  0  0  0  0  0  0  0  0  0  0  0
    6.8037  -13.4765   25.2113 C   0  0  0  0  0  0  0  0  0  0  0  0
    7.2095  -12.1655   25.1645 C   0  0  0  0  0  0  0  0  0  0  0  0
    7.0091  -11.2853   26.1822 C   0  0  0  0  0  0  0  0  0  0  0  0
    6.3582  -11.7465   27.3261 C   0  0  0  0  0  0  0  0  0  0  0  0
    5.9489  -13.0555   27.3818 C   0  0  0  0  0  0  0  0  0  0  0  0
    6.1620  -13.9275   26.3417 C   0  0  0  0  0  0  0  0  0  0  0  0
    9.2419  -15.4500   24.5704 C   0  0  0  0  0  0  0  0  0  0  0  0
    9.2730  -16.7367   24.4553 O   0  0  0  0  0  0  0  0  0  0  0  0
   13.0530  -18.5762   31.7444 O   0  0  0  0  0  0  0  0  0  0  0  0
   12.6303  -17.7183   30.7393 C   0  0  0  0  0  0  0  0  0  0  0  0
   13.2354  -17.6138   29.5177 C   0  0  0  0  0  0  0  0  0  0  0  0
   12.7573  -16.7361   28.5654 C   0  0  0  0  0  0  0  0  0  0  0  0
   11.6472  -15.9235   28.8010 C   0  0  0  0  0  0  0  0  0  0  0  0
   11.2083  -14.9954   27.7462 C   0  0  0  0  0  0  0  0  0  0  0  0
   10.5799  -15.7990   26.6204 C   0  0  2  0  0  0  0  0  0  0  0  0
   10.0616  -14.9143   25.5966 N   0  0  0  0  0  0  0  0  0  0  0  0
    9.5771  -16.7561   27.0732 C   0  0  0  0  0  0  0  0  0  0  0  0
    9.8386  -17.9669   27.3551 O   0  0  0  0  0  0  0  0  0  0  0  0
   11.0631  -16.0559   30.0432 C   0  0  0  0  0  0  0  0  0  0  0  0
   11.5318  -16.9296   31.0033 C   0  0  0  0  0  0  0  0  0  0  0  0
    8.2539  -16.3696   27.2200 O   0  0  0  0  0  0  0  0  0  0  0  0
  2  3  1  6
  2  1  1  0
  4  2  1  0
  5  4  1  0
  5  6  1  1
  7  8  2  0
  7  5  1  0
  9  7  1  0
 10  9  1  0
 11 12  1  0
 10 11  1  1
 12 13  2  0
 12 17  1  0
 13 14  1  0
 14 15  2  0
 16 15  1  0
 17 16  2  0
 18 10  1  0
 18 19  2  0
 20 21  1  0
 21 22  2  0
 22 23  1  0
 24 25  1  0
 24 23  2  0
 26 27  1  0
 26 25  1  1
 27 18  1  0
 28 26  1  0
 29 28  2  0
 30 24  1  0
 31 30  2  0
 31 21  1  0
 32 28  1  0
M  END
$$$$
