LFY.pdb
     RDKit          3D

 32 33  0  0  1  0  0  0  0  0999 V2000
    7.9103  -15.6195   17.4883 C   0  0  0  0  0  0  0  0  0  0  0  0
    8.2077  -14.4068   18.3418 C   0  0  2  0  0  0  0  0  0  0  0  0
    8.3733  -13.1599   17.5047 C   0  0  0  0  0  0  0  0  0  0  0  0
    9.3755  -14.6248   19.2565 C   0  0  0  0  0  0  0  0  0  0  0  0
    9.1150  -15.7199   20.2679 C   0  0  2  0  0  0  0  0  0  0  0  0
    7.8269  -16.3211   20.1126 N   0  0  0  0  0  0  0  0  0  0  0  0
    9.2689  -15.1997   21.6423 C   0  0  0  0  0  0  0  0  0  0  0  0
   10.2657  -14.4842   21.9676 O   0  0  0  0  0  0  0  0  0  0  0  0
    8.3084  -15.4854   22.6336 N   0  0  0  0  0  0  0  0  0  0  0  0
    8.4782  -14.9408   24.0126 C   0  0  1  0  0  0  0  0  0  0  0  0
    7.1945  -14.3620   24.4675 C   0  0  0  0  0  0  0  0  0  0  0  0
    7.2120  -13.5640   25.7101 C   0  0  0  0  0  0  0  0  0  0  0  0
    6.6479  -12.3140   25.7800 C   0  0  0  0  0  0  0  0  0  0  0  0
    6.6162  -11.5720   26.9197 C   0  0  0  0  0  0  0  0  0  0  0  0
    7.1877  -12.1161   28.0695 C   0  0  0  0  0  0  0  0  0  0  0  0
    7.7540  -13.3650   28.0092 C   0  0  0  0  0  0  0  0  0  0  0  0
    7.7748  -14.0971   26.8468 C   0  0  0  0  0  0  0  0  0  0  0  0
    9.0436  -16.0506   24.8034 C   0  0  0  0  0  0  0  0  0  0  0  0
    8.5461  -17.2351   24.6650 O   0  0  0  0  0  0  0  0  0  0  0  0
   12.7123  -18.4475   20.5851 O   0  0  0  0  0  0  0  0  0  0  0  0
   12.5560  -18.1499   21.9312 C   0  0  0  0  0  0  0  0  0  0  0  0
   12.8542  -16.9364   22.4863 C   0  0  0  0  0  0  0  0  0  0  0  0
   12.6723  -16.7135   23.8365 C   0  0  0  0  0  0  0  0  0  0  0  0
   12.1816  -17.7037   24.6891 C   0  0  0  0  0  0  0  0  0  0  0  0
   12.0352  -17.4003   26.1219 C   0  0  0  0  0  0  0  0  0  0  0  0
   10.5680  -17.1393   26.4175 C   0  0  2  0  0  0  0  0  0  0  0  0
   10.1172  -15.9492   25.7249 N   0  0  0  0  0  0  0  0  0  0  0  0
   10.2570  -17.0926   27.8415 C   0  0  0  0  0  0  0  0  0  0  0  0
    9.6948  -16.1026   28.4055 O   0  0  0  0  0  0  0  0  0  0  0  0
   11.8921  -18.9139   24.0945 C   0  0  0  0  0  0  0  0  0  0  0  0
   12.0696  -19.1487   22.7461 C   0  0  0  0  0  0  0  0  0  0  0  0
   10.5720  -18.1629   28.6643 O   0  0  0  0  0  0  0  0  0  0  0  0
  2  3  1  6
  2  1  1  0
  4  2  1  0
  5  4  1  0
  5  6  1  1
  7  8  2  0
  7  5  1  0
  9  7  1  0
 10  9  1  0
 11 12  1  0
 10 11  1  1
 12 13  2  0
 12 17  1  0
 13 14  1  0
 14 15  2  0
 16 15  1  0
 17 16  2  0
 18 10  1  0
 18 19  2  0
 20 21  1  0
 21 22  2  0
 22 23  1  0
 24 25  1  0
 24 23  2  0
 26 27  1  0
 26 25  1  1
 27 18  1  0
 28 26  1  0
 29 28  2  0
 30 24  1  0
 31 30  2  0
 31 21  1  0
 32 28  1  0
M  END
$$$$
