LFY.pdb
     RDKit          3D

 32 33  0  0  1  0  0  0  0  0999 V2000
    7.5235  -13.9261   16.7349 C   0  0  0  0  0  0  0  0  0  0  0  0
    8.1580  -13.3744   17.9921 C   0  0  2  0  0  0  0  0  0  0  0  0
    8.2289  -11.8654   17.9680 C   0  0  0  0  0  0  0  0  0  0  0  0
    9.4946  -13.9920   18.2754 C   0  0  0  0  0  0  0  0  0  0  0  0
    9.3752  -15.2902   19.0437 C   0  0  2  0  0  0  0  0  0  0  0  0
    8.1967  -16.0263   18.7058 N   0  0  0  0  0  0  0  0  0  0  0  0
    9.4129  -15.0339   20.4983 C   0  0  0  0  0  0  0  0  0  0  0  0
   10.3738  -14.3973   21.0299 O   0  0  0  0  0  0  0  0  0  0  0  0
    8.3778  -15.4917   21.3385 N   0  0  0  0  0  0  0  0  0  0  0  0
    8.3986  -15.1590   22.7932 C   0  0  1  0  0  0  0  0  0  0  0  0
    7.1091  -14.5371   23.1676 C   0  0  0  0  0  0  0  0  0  0  0  0
    6.9737  -14.0346   24.5498 C   0  0  0  0  0  0  0  0  0  0  0  0
    6.4596  -14.8110   25.5589 C   0  0  0  0  0  0  0  0  0  0  0  0
    6.3574  -14.3881   26.8479 C   0  0  0  0  0  0  0  0  0  0  0  0
    6.7995  -13.1004   27.1499 C   0  0  0  0  0  0  0  0  0  0  0  0
    7.3149  -12.3171   26.1475 C   0  0  0  0  0  0  0  0  0  0  0  0
    7.4086  -12.7648   24.8519 C   0  0  0  0  0  0  0  0  0  0  0  0
    8.7738  -16.4127   23.4746 C   0  0  0  0  0  0  0  0  0  0  0  0
    7.8569  -17.2883   23.7242 O   0  0  0  0  0  0  0  0  0  0  0  0
   10.8065  -15.2506   31.4162 O   0  0  0  0  0  0  0  0  0  0  0  0
   10.6865  -15.2875   30.0345 C   0  0  0  0  0  0  0  0  0  0  0  0
   10.8722  -16.4126   29.2800 C   0  0  0  0  0  0  0  0  0  0  0  0
   10.7355  -16.3726   27.9069 C   0  0  0  0  0  0  0  0  0  0  0  0
   10.4055  -15.1966   27.2314 C   0  0  0  0  0  0  0  0  0  0  0  0
   10.2991  -15.2252   25.7635 C   0  0  0  0  0  0  0  0  0  0  0  0
   10.4302  -16.6639   25.2934 C   0  0  2  0  0  0  0  0  0  0  0  0
   10.0817  -16.7706   23.8910 N   0  0  0  0  0  0  0  0  0  0  0  0
    9.6916  -17.6173   26.1132 C   0  0  0  0  0  0  0  0  0  0  0  0
    8.4297  -17.7562   26.0642 O   0  0  0  0  0  0  0  0  0  0  0  0
   10.2260  -14.0827   28.0243 C   0  0  0  0  0  0  0  0  0  0  0  0
   10.3598  -14.1101   29.3977 C   0  0  0  0  0  0  0  0  0  0  0  0
   10.3595  -18.4387   27.0082 O   0  0  0  0  0  0  0  0  0  0  0  0
  2  3  1  6
  2  1  1  0
  4  2  1  0
  5  4  1  0
  5  6  1  1
  7  8  2  0
  7  5  1  0
  9  7  1  0
 10  9  1  0
 11 12  1  0
 10 11  1  1
 12 13  2  0
 12 17  1  0
 13 14  1  0
 14 15  2  0
 16 15  1  0
 17 16  2  0
 18 10  1  0
 18 19  2  0
 20 21  1  0
 21 22  2  0
 22 23  1  0
 24 25  1  0
 24 23  2  0
 26 27  1  0
 26 25  1  1
 27 18  1  0
 28 26  1  0
 29 28  2  0
 30 24  1  0
 31 30  2  0
 31 21  1  0
 32 28  1  0
M  END
$$$$
