LFY.pdb
     RDKit          3D

 32 33  0  0  1  0  0  0  0  0999 V2000
    7.4369  -13.9711   17.4098 C   0  0  0  0  0  0  0  0  0  0  0  0
    7.6058  -14.4675   18.8285 C   0  0  2  0  0  0  0  0  0  0  0  0
    7.5854  -13.3322   19.8252 C   0  0  0  0  0  0  0  0  0  0  0  0
    8.8206  -15.3313   18.9903 C   0  0  0  0  0  0  0  0  0  0  0  0
    8.7354  -16.2172   20.2142 C   0  0  2  0  0  0  0  0  0  0  0  0
    7.4542  -16.8348   20.3617 N   0  0  0  0  0  0  0  0  0  0  0  0
    9.0706  -15.4490   21.4311 C   0  0  0  0  0  0  0  0  0  0  0  0
   10.0495  -14.6412   21.4508 O   0  0  0  0  0  0  0  0  0  0  0  0
    8.3086  -15.5935   22.6081 N   0  0  0  0  0  0  0  0  0  0  0  0
    8.5705  -14.7041   23.7776 C   0  0  1  0  0  0  0  0  0  0  0  0
    7.3620  -14.6543   24.6301 C   0  0  0  0  0  0  0  0  0  0  0  0
    7.3531  -13.6788   25.7389 C   0  0  0  0  0  0  0  0  0  0  0  0
    8.3368  -13.6571   26.6967 C   0  0  0  0  0  0  0  0  0  0  0  0
    8.3745  -12.7473   27.7074 C   0  0  0  0  0  0  0  0  0  0  0  0
    7.3594  -11.7929   27.7655 C   0  0  0  0  0  0  0  0  0  0  0  0
    6.3719  -11.8069   26.8122 C   0  0  0  0  0  0  0  0  0  0  0  0
    6.3534  -12.7355   25.7998 C   0  0  0  0  0  0  0  0  0  0  0  0
    9.8132  -15.2161   24.3862 C   0  0  0  0  0  0  0  0  0  0  0  0
   10.5198  -14.4264   25.1255 O   0  0  0  0  0  0  0  0  0  0  0  0
   10.1593  -15.8314   30.8400 O   0  0  0  0  0  0  0  0  0  0  0  0
   10.4678  -16.3618   29.5957 C   0  0  0  0  0  0  0  0  0  0  0  0
    9.6000  -17.1041   28.8438 C   0  0  0  0  0  0  0  0  0  0  0  0
    9.9784  -17.5998   27.6121 C   0  0  0  0  0  0  0  0  0  0  0  0
   11.2490  -17.3699   27.0820 C   0  0  0  0  0  0  0  0  0  0  0  0
   11.5889  -17.9493   25.7723 C   0  0  0  0  0  0  0  0  0  0  0  0
   11.6510  -16.8309   24.7459 C   0  0  2  0  0  0  0  0  0  0  0  0
   10.3250  -16.5314   24.2445 N   0  0  0  0  0  0  0  0  0  0  0  0
   12.5994  -17.0792   23.6663 C   0  0  0  0  0  0  0  0  0  0  0  0
   13.8442  -17.2537   23.8511 O   0  0  0  0  0  0  0  0  0  0  0  0
   12.0967  -16.6178   27.8678 C   0  0  0  0  0  0  0  0  0  0  0  0
   11.7300  -16.1168   29.1005 C   0  0  0  0  0  0  0  0  0  0  0  0
   12.1659  -17.1375   22.3508 O   0  0  0  0  0  0  0  0  0  0  0  0
  2  3  1  1
  2  1  1  0
  4  2  1  0
  5  4  1  0
  5  6  1  1
  7  8  2  0
  7  5  1  0
  9  7  1  0
 10  9  1  0
 11 12  1  0
 10 11  1  1
 12 13  2  0
 12 17  1  0
 13 14  1  0
 14 15  2  0
 16 15  1  0
 17 16  2  0
 18 10  1  0
 18 19  2  0
 20 21  1  0
 21 22  2  0
 22 23  1  0
 24 25  1  0
 24 23  2  0
 26 27  1  0
 26 25  1  1
 27 18  1  0
 28 26  1  0
 29 28  2  0
 30 24  1  0
 31 30  2  0
 31 21  1  0
 32 28  1  0
M  END
$$$$
