LFY.pdb
     RDKit          3D

 32 33  0  0  1  0  0  0  0  0999 V2000
    8.2372  -12.5398   18.3000 C   0  0  0  0  0  0  0  0  0  0  0  0
    8.1551  -13.6233   19.3520 C   0  0  2  0  0  0  0  0  0  0  0  0
    7.3954  -13.1615   20.5736 C   0  0  0  0  0  0  0  0  0  0  0  0
    9.5024  -14.1766   19.7081 C   0  0  0  0  0  0  0  0  0  0  0  0
   10.2466  -14.6973   18.4977 C   0  0  2  0  0  0  0  0  0  0  0  0
    9.4471  -15.5623   17.6870 N   0  0  0  0  0  0  0  0  0  0  0  0
   11.4834  -15.3914   18.9122 C   0  0  0  0  0  0  0  0  0  0  0  0
   11.6634  -16.6224   18.6602 O   0  0  0  0  0  0  0  0  0  0  0  0
   12.5012  -14.7017   19.6016 N   0  0  0  0  0  0  0  0  0  0  0  0
   13.7891  -15.3900   19.9094 C   0  0  1  0  0  0  0  0  0  0  0  0
   14.9104  -14.4582   19.6558 C   0  0  0  0  0  0  0  0  0  0  0  0
   15.5308  -14.4913   18.3159 C   0  0  0  0  0  0  0  0  0  0  0  0
   16.0998  -15.6321   17.8057 C   0  0  0  0  0  0  0  0  0  0  0  0
   16.6450  -15.7020   16.5613 C   0  0  0  0  0  0  0  0  0  0  0  0
   16.6201  -14.5528   15.7717 C   0  0  0  0  0  0  0  0  0  0  0  0
   16.0534  -13.4077   16.2734 C   0  0  0  0  0  0  0  0  0  0  0  0
   15.5084  -13.3597   17.5337 C   0  0  0  0  0  0  0  0  0  0  0  0
   13.6341  -15.9126   21.2803 C   0  0  0  0  0  0  0  0  0  0  0  0
   13.8861  -15.1332   22.2797 O   0  0  0  0  0  0  0  0  0  0  0  0
    7.7440  -14.4759   23.3453 O   0  0  0  0  0  0  0  0  0  0  0  0
    8.7760  -15.4024   23.3827 C   0  0  0  0  0  0  0  0  0  0  0  0
    9.8180  -15.3519   24.2665 C   0  0  0  0  0  0  0  0  0  0  0  0
   10.8105  -16.3112   24.2439 C   0  0  0  0  0  0  0  0  0  0  0  0
   10.7980  -17.3654   23.3292 C   0  0  0  0  0  0  0  0  0  0  0  0
   11.9024  -18.3384   23.3499 C   0  0  0  0  0  0  0  0  0  0  0  0
   13.1965  -17.6137   23.0209 C   0  0  2  0  0  0  0  0  0  0  0  0
   13.2162  -17.2234   21.6257 N   0  0  0  0  0  0  0  0  0  0  0  0
   14.3946  -18.3552   23.3969 C   0  0  0  0  0  0  0  0  0  0  0  0
   15.2982  -18.6952   22.5711 O   0  0  0  0  0  0  0  0  0  0  0  0
    9.7326  -17.3840   22.4538 C   0  0  0  0  0  0  0  0  0  0  0  0
    8.7344  -16.4308   22.4667 C   0  0  0  0  0  0  0  0  0  0  0  0
   14.6029  -18.7307   24.7150 O   0  0  0  0  0  0  0  0  0  0  0  0
  2  3  1  1
  2  1  1  0
  4  2  1  0
  5  4  1  0
  5  6  1  1
  7  8  2  0
  7  5  1  0
  9  7  1  0
 10  9  1  0
 11 12  1  0
 10 11  1  1
 12 13  2  0
 12 17  1  0
 13 14  1  0
 14 15  2  0
 16 15  1  0
 17 16  2  0
 18 10  1  0
 18 19  2  0
 20 21  1  0
 21 22  2  0
 22 23  1  0
 24 25  1  0
 24 23  2  0
 26 27  1  0
 26 25  1  6
 27 18  1  0
 28 26  1  0
 29 28  2  0
 30 24  1  0
 31 30  2  0
 31 21  1  0
 32 28  1  0
M  END
$$$$
