QHI.pdb
     RDKit          3D

 28 28  0  0  1  0  0  0  0  0999 V2000
   10.6702  -13.8585   19.0494 N   0  0  0  0  0  0  0  0  0  0  0  0
    9.8081  -13.3709   18.0318 C   0  0  0  0  0  0  0  0  0  0  0  0
   10.2612  -13.2675   16.8676 O   0  0  0  0  0  0  0  0  0  0  0  0
    8.4171  -12.9906   18.3051 C   0  0  0  0  0  0  0  0  0  0  0  0
    7.8516  -13.5020   19.5844 C   0  0  0  0  0  0  0  0  0  0  0  0
    7.7312  -14.9995   19.6559 C   0  0  2  0  0  0  0  0  0  0  0  0
    6.6849  -15.4338   18.7208 N   0  0  0  0  0  0  0  0  0  0  0  0
    7.3032  -15.4087   21.0104 C   0  0  0  0  0  0  0  0  0  0  0  0
    6.2537  -14.9821   21.5009 O   0  0  0  0  0  0  0  0  0  0  0  0
    8.0680  -16.3074   21.8146 N   0  0  0  0  0  0  0  0  0  0  0  0
    7.6750  -16.7125   23.1490 C   0  0  1  0  0  0  0  0  0  0  0  0
    7.7930  -18.1916   23.3543 C   0  0  0  0  0  0  0  0  0  0  0  0
    7.5968  -18.6879   24.7032 C   0  0  0  0  0  0  0  0  0  0  0  0
    7.2778  -17.9669   25.8422 C   0  0  0  0  0  0  0  0  0  0  0  0
    7.1874  -18.8134   26.8860 N   0  0  0  0  0  0  0  0  0  0  0  0
    7.4412  -20.0425   26.4292 C   0  0  0  0  0  0  0  0  0  0  0  0
    7.6841  -19.9603   25.1294 N   0  0  0  0  0  0  0  0  0  0  0  0
    8.2130  -15.8578   24.1961 C   0  0  0  0  0  0  0  0  0  0  0  0
    9.4261  -15.5124   24.1359 O   0  0  0  0  0  0  0  0  0  0  0  0
    5.4996  -11.7509   26.4713 C   0  0  0  0  0  0  0  0  0  0  0  0
    6.5496  -12.6146   25.8004 C   0  0  0  0  0  0  0  0  0  0  0  0
    7.1709  -13.4692   26.8755 C   0  0  2  0  0  0  0  0  0  0  0  0
    7.8277  -12.5959   27.9224 C   0  0  0  0  0  0  0  0  0  0  0  0
    8.1244  -14.5000   26.3206 C   0  0  2  0  0  0  0  0  0  0  0  0
    7.5182  -15.3423   25.3223 N   0  0  0  0  0  0  0  0  0  0  0  0
    8.6355  -15.3305   27.4313 C   0  0  0  0  0  0  0  0  0  0  0  0
    8.0859  -16.4287   27.6563 O   0  0  0  0  0  0  0  0  0  0  0  0
    9.6920  -14.9341   28.2206 O   0  0  0  0  0  0  0  0  0  0  0  0
  2  1  1  0
  2  3  2  0
  4  5  1  0
  4  2  1  0
  5  6  1  0
  6  8  1  0
  6  7  1  6
  8  9  2  0
 10  8  1  0
 10 11  1  0
 11 12  1  1
 13 12  1  0
 14 13  2  0
 15 14  1  0
 16 15  1  0
 16 17  2  0
 17 13  1  0
 18 19  2  0
 18 11  1  0
 21 20  1  0
 21 22  1  0
 22 24  1  0
 22 23  1  1
 24 25  1  6
 25 18  1  0
 26 24  1  0
 26 28  1  0
 27 26  2  0
M  END
$$$$
