QHI.pdb
     RDKit          3D

 28 28  0  0  1  0  0  0  0  0999 V2000
   15.7265  -14.7427   18.6367 N   0  0  0  0  0  0  0  0  0  0  0  0
   14.5155  -14.1187   18.2357 C   0  0  0  0  0  0  0  0  0  0  0  0
   14.5767  -13.1766   17.4112 O   0  0  0  0  0  0  0  0  0  0  0  0
   13.2104  -14.5444   18.7551 C   0  0  0  0  0  0  0  0  0  0  0  0
   13.2394  -15.7000   19.6940 C   0  0  0  0  0  0  0  0  0  0  0  0
   11.8830  -16.1704   20.1425 C   0  0  2  0  0  0  0  0  0  0  0  0
   11.1067  -16.5673   18.9603 N   0  0  0  0  0  0  0  0  0  0  0  0
   11.1522  -15.0620   20.7925 C   0  0  0  0  0  0  0  0  0  0  0  0
   11.0655  -13.9552   20.2523 O   0  0  0  0  0  0  0  0  0  0  0  0
   10.5147  -15.2075   22.0620 N   0  0  0  0  0  0  0  0  0  0  0  0
    9.1640  -14.7572   22.3307 C   0  0  1  0  0  0  0  0  0  0  0  0
    8.2230  -15.0745   21.2092 C   0  0  0  0  0  0  0  0  0  0  0  0
    8.1854  -14.1443   20.0967 C   0  0  0  0  0  0  0  0  0  0  0  0
    8.9517  -13.0061   19.9068 C   0  0  0  0  0  0  0  0  0  0  0  0
    8.5996  -12.4298   18.7415 N   0  0  0  0  0  0  0  0  0  0  0  0
    7.6347  -13.1773   18.1994 C   0  0  0  0  0  0  0  0  0  0  0  0
    7.3931  -14.1960   19.0114 N   0  0  0  0  0  0  0  0  0  0  0  0
    8.7086  -15.0626   23.6782 C   0  0  0  0  0  0  0  0  0  0  0  0
    8.1721  -16.1841   23.8993 O   0  0  0  0  0  0  0  0  0  0  0  0
    5.7803  -11.5764   26.2533 C   0  0  0  0  0  0  0  0  0  0  0  0
    7.1168  -12.2543   26.0237 C   0  0  0  0  0  0  0  0  0  0  0  0
    6.9304  -13.7162   26.3404 C   0  0  2  0  0  0  0  0  0  0  0  0
    6.4245  -13.8833   27.7568 C   0  0  0  0  0  0  0  0  0  0  0  0
    8.1766  -14.5298   26.0861 C   0  0  2  0  0  0  0  0  0  0  0  0
    8.7949  -14.2250   24.8218 N   0  0  0  0  0  0  0  0  0  0  0  0
    7.8332  -15.9664   26.1406 C   0  0  0  0  0  0  0  0  0  0  0  0
    7.0438  -16.4233   25.2880 O   0  0  0  0  0  0  0  0  0  0  0  0
    8.3530  -16.8114   27.0956 O   0  0  0  0  0  0  0  0  0  0  0  0
  2  1  1  0
  2  3  2  0
  4  5  1  0
  4  2  1  0
  5  6  1  0
  6  8  1  0
  6  7  1  6
  8  9  2  0
 10  8  1  0
 10 11  1  0
 11 12  1  6
 13 12  1  0
 14 13  2  0
 15 14  1  0
 16 15  1  0
 16 17  2  0
 17 13  1  0
 18 19  2  0
 18 11  1  0
 21 20  1  0
 21 22  1  0
 22 24  1  0
 22 23  1  1
 24 25  1  6
 25 18  1  0
 26 24  1  0
 26 28  1  0
 27 26  2  0
M  END
$$$$
