QHI.pdb
     RDKit          3D

 28 28  0  0  1  0  0  0  0  0999 V2000
    9.7120  -11.8712   19.1282 N   0  0  0  0  0  0  0  0  0  0  0  0
    8.7384  -12.7649   18.6085 C   0  0  0  0  0  0  0  0  0  0  0  0
    8.9913  -13.3613   17.5354 O   0  0  0  0  0  0  0  0  0  0  0  0
    7.4599  -13.0054   19.2881 C   0  0  0  0  0  0  0  0  0  0  0  0
    7.5296  -13.8686   20.4996 C   0  0  0  0  0  0  0  0  0  0  0  0
    8.1974  -15.1980   20.2778 C   0  0  2  0  0  0  0  0  0  0  0  0
    7.3365  -16.0205   19.4174 N   0  0  0  0  0  0  0  0  0  0  0  0
    8.3404  -15.9133   21.5635 C   0  0  0  0  0  0  0  0  0  0  0  0
    7.3726  -16.4671   22.0934 O   0  0  0  0  0  0  0  0  0  0  0  0
    9.5874  -16.0029   22.2535 N   0  0  0  0  0  0  0  0  0  0  0  0
    9.7469  -16.6801   23.5245 C   0  0  1  0  0  0  0  0  0  0  0  0
   10.6135  -17.8973   23.4177 C   0  0  0  0  0  0  0  0  0  0  0  0
   10.1710  -18.9450   22.5173 C   0  0  0  0  0  0  0  0  0  0  0  0
   10.4824  -19.1098   21.1776 C   0  0  0  0  0  0  0  0  0  0  0  0
    9.8628  -20.2130   20.7158 N   0  0  0  0  0  0  0  0  0  0  0  0
    9.1736  -20.7408   21.7308 C   0  0  0  0  0  0  0  0  0  0  0  0
    9.3615  -19.9809   22.7998 N   0  0  0  0  0  0  0  0  0  0  0  0
   10.0149  -15.7768   24.6328 C   0  0  0  0  0  0  0  0  0  0  0  0
   10.9664  -14.9531   24.5298 O   0  0  0  0  0  0  0  0  0  0  0  0
    7.0338  -12.0972   26.2550 C   0  0  0  0  0  0  0  0  0  0  0  0
    8.1957  -13.0050   25.9019 C   0  0  0  0  0  0  0  0  0  0  0  0
    8.5745  -13.7462   27.1587 C   0  0  2  0  0  0  0  0  0  0  0  0
    8.9628  -12.7673   28.2454 C   0  0  0  0  0  0  0  0  0  0  0  0
    9.6471  -14.7820   26.9220 C   0  0  2  0  0  0  0  0  0  0  0  0
    9.3131  -15.7013   25.8652 N   0  0  0  0  0  0  0  0  0  0  0  0
    9.8819  -15.5274   28.1766 C   0  0  0  0  0  0  0  0  0  0  0  0
    9.2449  -16.5835   28.3706 O   0  0  0  0  0  0  0  0  0  0  0  0
   10.7754  -15.0969   29.1319 O   0  0  0  0  0  0  0  0  0  0  0  0
  2  1  1  0
  2  3  2  0
  4  5  1  0
  4  2  1  0
  5  6  1  0
  6  8  1  0
  6  7  1  6
  8  9  2  0
 10  8  1  0
 10 11  1  0
 11 12  1  6
 13 12  1  0
 14 13  2  0
 15 14  1  0
 16 15  1  0
 16 17  2  0
 17 13  1  0
 18 19  2  0
 18 11  1  0
 21 20  1  0
 21 22  1  0
 22 24  1  0
 22 23  1  1
 24 25  1  6
 25 18  1  0
 26 24  1  0
 26 28  1  0
 27 26  2  0
M  END
$$$$
