QHI.pdb
     RDKit          3D

 28 28  0  0  1  0  0  0  0  0999 V2000
    9.4781  -13.8802   16.7337 N   0  0  0  0  0  0  0  0  0  0  0  0
    8.2510  -13.4570   17.3096 C   0  0  0  0  0  0  0  0  0  0  0  0
    7.6062  -12.5487   16.7347 O   0  0  0  0  0  0  0  0  0  0  0  0
    7.7248  -14.0494   18.5451 C   0  0  0  0  0  0  0  0  0  0  0  0
    8.6392  -14.9947   19.2436 C   0  0  0  0  0  0  0  0  0  0  0  0
    8.0152  -16.3171   19.5958 C   0  0  2  0  0  0  0  0  0  0  0  0
    6.7409  -16.4438   18.8762 N   0  0  0  0  0  0  0  0  0  0  0  0
    7.7067  -16.3624   21.0408 C   0  0  0  0  0  0  0  0  0  0  0  0
    6.7163  -15.7838   21.4973 O   0  0  0  0  0  0  0  0  0  0  0  0
    8.5245  -17.0679   21.9750 N   0  0  0  0  0  0  0  0  0  0  0  0
    8.1948  -17.2012   23.3796 C   0  0  1  0  0  0  0  0  0  0  0  0
    8.5796  -18.5396   23.9315 C   0  0  0  0  0  0  0  0  0  0  0  0
    8.2256  -18.8102   25.3120 C   0  0  0  0  0  0  0  0  0  0  0  0
    7.0368  -18.5233   25.9625 C   0  0  0  0  0  0  0  0  0  0  0  0
    7.1234  -18.9424   27.2396 N   0  0  0  0  0  0  0  0  0  0  0  0
    8.3337  -19.4828   27.4035 C   0  0  0  0  0  0  0  0  0  0  0  0
    8.9843  -19.4006   26.2522 N   0  0  0  0  0  0  0  0  0  0  0  0
    8.5528  -16.0350   24.1721 C   0  0  0  0  0  0  0  0  0  0  0  0
    9.2885  -15.1496   23.6532 O   0  0  0  0  0  0  0  0  0  0  0  0
    6.5065  -11.2971   26.6192 C   0  0  0  0  0  0  0  0  0  0  0  0
    7.7003  -12.2154   26.7934 C   0  0  0  0  0  0  0  0  0  0  0  0
    7.3346  -13.5379   26.1691 C   0  0  2  0  0  0  0  0  0  0  0  0
    6.0870  -14.0952   26.8195 C   0  0  0  0  0  0  0  0  0  0  0  0
    8.4745  -14.5275   26.1936 C   0  0  2  0  0  0  0  0  0  0  0  0
    8.1635  -15.7556   25.5090 N   0  0  0  0  0  0  0  0  0  0  0  0
    8.8320  -14.8157   27.5985 C   0  0  0  0  0  0  0  0  0  0  0  0
    9.3248  -13.8991   28.2883 O   0  0  0  0  0  0  0  0  0  0  0  0
    8.6398  -16.0551   28.1672 O   0  0  0  0  0  0  0  0  0  0  0  0
  2  1  1  0
  2  3  2  0
  4  5  1  0
  4  2  1  0
  5  6  1  0
  6  8  1  0
  6  7  1  6
  8  9  2  0
 10  8  1  0
 10 11  1  0
 11 12  1  1
 13 12  1  0
 14 13  2  0
 15 14  1  0
 16 15  1  0
 16 17  2  0
 17 13  1  0
 18 19  2  0
 18 11  1  0
 21 20  1  0
 21 22  1  0
 22 24  1  0
 22 23  1  1
 24 25  1  1
 25 18  1  0
 26 24  1  0
 26 28  1  0
 27 26  2  0
M  END
$$$$
