QHI.pdb
     RDKit          3D

 28 28  0  0  1  0  0  0  0  0999 V2000
    8.1350  -15.8856   16.6439 N   0  0  0  0  0  0  0  0  0  0  0  0
    8.1093  -14.4756   16.8108 C   0  0  0  0  0  0  0  0  0  0  0  0
    8.9508  -13.7875   16.1867 O   0  0  0  0  0  0  0  0  0  0  0  0
    7.1338  -13.8120   17.6840 C   0  0  0  0  0  0  0  0  0  0  0  0
    7.7034  -12.8499   18.6677 C   0  0  0  0  0  0  0  0  0  0  0  0
    8.7538  -13.4343   19.5717 C   0  0  2  0  0  0  0  0  0  0  0  0
    9.4472  -14.5123   18.8540 N   0  0  0  0  0  0  0  0  0  0  0  0
    8.1181  -14.0403   20.7608 C   0  0  0  0  0  0  0  0  0  0  0  0
    7.4090  -13.3670   21.5144 O   0  0  0  0  0  0  0  0  0  0  0  0
    8.2858  -15.4176   21.0985 N   0  0  0  0  0  0  0  0  0  0  0  0
    7.8109  -15.9964   22.3390 C   0  0  1  0  0  0  0  0  0  0  0  0
    7.7120  -17.4896   22.2710 C   0  0  0  0  0  0  0  0  0  0  0  0
    7.3774  -18.1851   23.4993 C   0  0  0  0  0  0  0  0  0  0  0  0
    8.0676  -19.2173   24.1133 C   0  0  0  0  0  0  0  0  0  0  0  0
    7.4147  -19.5745   25.2359 N   0  0  0  0  0  0  0  0  0  0  0  0
    6.3363  -18.7934   25.3389 C   0  0  0  0  0  0  0  0  0  0  0  0
    6.3204  -17.9689   24.3019 N   0  0  0  0  0  0  0  0  0  0  0  0
    8.4434  -15.4321   23.5213 C   0  0  0  0  0  0  0  0  0  0  0  0
    9.6954  -15.2679   23.5215 O   0  0  0  0  0  0  0  0  0  0  0  0
    6.4318  -11.3289   26.2276 C   0  0  0  0  0  0  0  0  0  0  0  0
    7.4024  -12.2566   25.5234 C   0  0  0  0  0  0  0  0  0  0  0  0
    7.7739  -13.3362   26.5076 C   0  0  2  0  0  0  0  0  0  0  0  0
    8.5561  -12.7453   27.6605 C   0  0  0  0  0  0  0  0  0  0  0  0
    8.5056  -14.4871   25.8597 C   0  0  2  0  0  0  0  0  0  0  0  0
    7.8048  -15.0262   24.7231 N   0  0  0  0  0  0  0  0  0  0  0  0
    8.7184  -15.5495   26.8650 C   0  0  0  0  0  0  0  0  0  0  0  0
    9.6263  -15.3987   27.7087 O   0  0  0  0  0  0  0  0  0  0  0  0
    7.9519  -16.6930   26.9006 O   0  0  0  0  0  0  0  0  0  0  0  0
  2  1  1  0
  2  3  2  0
  4  5  1  0
  4  2  1  0
  5  6  1  0
  6  8  1  0
  6  7  1  6
  8  9  2  0
 10  8  1  0
 10 11  1  0
 11 12  1  6
 13 12  1  0
 14 13  2  0
 15 14  1  0
 16 15  1  0
 16 17  2  0
 17 13  1  0
 18 19  2  0
 18 11  1  0
 21 20  1  0
 21 22  1  0
 22 24  1  0
 22 23  1  1
 24 25  1  6
 25 18  1  0
 26 24  1  0
 26 28  1  0
 27 26  2  0
M  END
$$$$
