QHI.pdb
     RDKit          3D

 28 28  0  0  1  0  0  0  0  0999 V2000
    9.1778  -21.6583   18.5698 N   0  0  0  0  0  0  0  0  0  0  0  0
    8.0657  -20.7753   18.5760 C   0  0  0  0  0  0  0  0  0  0  0  0
    7.3338  -20.7336   17.5592 O   0  0  0  0  0  0  0  0  0  0  0  0
    7.7549  -19.9216   19.7288 C   0  0  0  0  0  0  0  0  0  0  0  0
    8.7412  -19.9651   20.8438 C   0  0  0  0  0  0  0  0  0  0  0  0
    8.3452  -19.1663   22.0552 C   0  0  2  0  0  0  0  0  0  0  0  0
    7.2055  -18.3090   21.7029 N   0  0  0  0  0  0  0  0  0  0  0  0
    9.4535  -18.2750   22.4582 C   0  0  0  0  0  0  0  0  0  0  0  0
   10.4357  -18.7160   23.0622 O   0  0  0  0  0  0  0  0  0  0  0  0
    9.4501  -16.8753   22.1750 N   0  0  0  0  0  0  0  0  0  0  0  0
   10.4841  -15.9686   22.6309 C   0  0  1  0  0  0  0  0  0  0  0  0
   11.1361  -15.2322   21.5010 C   0  0  0  0  0  0  0  0  0  0  0  0
   11.9428  -16.0136   20.5829 C   0  0  0  0  0  0  0  0  0  0  0  0
   12.4312  -17.2986   20.7538 C   0  0  0  0  0  0  0  0  0  0  0  0
   13.1330  -17.6501   19.6593 N   0  0  0  0  0  0  0  0  0  0  0  0
   13.0958  -16.6197   18.8104 C   0  0  0  0  0  0  0  0  0  0  0  0
   12.3858  -15.6491   19.3667 N   0  0  0  0  0  0  0  0  0  0  0  0
   10.0949  -15.1821   23.7912 C   0  0  0  0  0  0  0  0  0  0  0  0
   10.1393  -13.9225   23.7149 O   0  0  0  0  0  0  0  0  0  0  0  0
    6.7113  -12.0404   26.4777 C   0  0  0  0  0  0  0  0  0  0  0  0
    7.8587  -12.9163   26.9413 C   0  0  0  0  0  0  0  0  0  0  0  0
    8.1625  -13.8763   25.8195 C   0  0  2  0  0  0  0  0  0  0  0  0
    6.9060  -14.6117   25.4069 C   0  0  0  0  0  0  0  0  0  0  0  0
    9.2880  -14.8251   26.1548 C   0  0  2  0  0  0  0  0  0  0  0  0
    9.6534  -15.6720   25.0490 N   0  0  0  0  0  0  0  0  0  0  0  0
    8.8890  -15.6565   27.3099 C   0  0  0  0  0  0  0  0  0  0  0  0
    8.5278  -16.8332   27.1010 O   0  0  0  0  0  0  0  0  0  0  0  0
    8.9032  -15.1775   28.6009 O   0  0  0  0  0  0  0  0  0  0  0  0
  2  1  1  0
  2  3  2  0
  4  5  1  0
  4  2  1  0
  5  6  1  0
  6  8  1  0
  6  7  1  6
  8  9  2  0
 10  8  1  0
 10 11  1  0
 11 12  1  6
 13 12  1  0
 14 13  2  0
 15 14  1  0
 16 15  1  0
 16 17  2  0
 17 13  1  0
 18 19  2  0
 18 11  1  0
 21 20  1  0
 21 22  1  0
 22 24  1  0
 22 23  1  1
 24 25  1  6
 25 18  1  0
 26 24  1  0
 26 28  1  0
 27 26  2  0
M  END
$$$$
