QHI.pdb
     RDKit          3D

 28 28  0  0  1  0  0  0  0  0999 V2000
    7.4963  -12.5151   16.2436 N   0  0  0  0  0  0  0  0  0  0  0  0
    7.5019  -13.9345   16.2873 C   0  0  0  0  0  0  0  0  0  0  0  0
    7.1447  -14.5625   15.2630 O   0  0  0  0  0  0  0  0  0  0  0  0
    7.9112  -14.6755   17.4864 C   0  0  0  0  0  0  0  0  0  0  0  0
    8.1268  -13.8512   18.7077 C   0  0  0  0  0  0  0  0  0  0  0  0
    9.1647  -14.3962   19.6500 C   0  0  2  0  0  0  0  0  0  0  0  0
    9.7751  -15.5861   19.0423 N   0  0  0  0  0  0  0  0  0  0  0  0
    8.5260  -14.8291   20.9109 C   0  0  0  0  0  0  0  0  0  0  0  0
    7.8401  -14.0476   21.5765 O   0  0  0  0  0  0  0  0  0  0  0  0
    8.6642  -16.1556   21.4214 N   0  0  0  0  0  0  0  0  0  0  0  0
    8.0739  -16.5934   22.6701 C   0  0  1  0  0  0  0  0  0  0  0  0
    7.9779  -18.0853   22.7638 C   0  0  0  0  0  0  0  0  0  0  0  0
    7.5409  -18.6398   24.0310 C   0  0  0  0  0  0  0  0  0  0  0  0
    7.2230  -17.9629   25.1969 C   0  0  0  0  0  0  0  0  0  0  0  0
    6.8633  -18.8562   26.1385 N   0  0  0  0  0  0  0  0  0  0  0  0
    6.9482  -20.0718   25.5918 C   0  0  0  0  0  0  0  0  0  0  0  0
    7.3522  -19.9355   24.3374 N   0  0  0  0  0  0  0  0  0  0  0  0
    8.5946  -15.8931   23.8341 C   0  0  0  0  0  0  0  0  0  0  0  0
    9.8411  -15.7156   23.9299 O   0  0  0  0  0  0  0  0  0  0  0  0
    6.0914  -11.6794   26.1956 C   0  0  0  0  0  0  0  0  0  0  0  0
    7.0887  -12.6119   25.5363 C   0  0  0  0  0  0  0  0  0  0  0  0
    7.5458  -13.5866   26.5914 C   0  0  2  0  0  0  0  0  0  0  0  0
    8.2005  -12.8466   27.7376 C   0  0  0  0  0  0  0  0  0  0  0  0
    8.4385  -14.6696   26.0350 C   0  0  2  0  0  0  0  0  0  0  0  0
    7.8479  -15.3628   24.9195 N   0  0  0  0  0  0  0  0  0  0  0  0
    8.7550  -15.6328   27.1105 C   0  0  0  0  0  0  0  0  0  0  0  0
    7.9788  -16.5924   27.2987 O   0  0  0  0  0  0  0  0  0  0  0  0
    9.8715  -15.5062   27.9064 O   0  0  0  0  0  0  0  0  0  0  0  0
  2  1  1  0
  2  3  2  0
  4  5  1  0
  4  2  1  0
  5  6  1  0
  6  8  1  0
  6  7  1  6
  8  9  2  0
 10  8  1  0
 10 11  1  0
 11 12  1  1
 13 12  1  0
 14 13  2  0
 15 14  1  0
 16 15  1  0
 16 17  2  0
 17 13  1  0
 18 19  2  0
 18 11  1  0
 21 20  1  0
 21 22  1  0
 22 24  1  0
 22 23  1  1
 24 25  1  6
 25 18  1  0
 26 24  1  0
 26 28  1  0
 27 26  2  0
M  END
$$$$
