QHI.pdb
     RDKit          3D

 28 28  0  0  1  0  0  0  0  0999 V2000
   14.4729  -14.6758   19.8565 N   0  0  0  0  0  0  0  0  0  0  0  0
   13.5788  -14.2056   18.8585 C   0  0  0  0  0  0  0  0  0  0  0  0
   14.0597  -13.7792   17.7823 O   0  0  0  0  0  0  0  0  0  0  0  0
   12.1239  -14.2070   19.0524 C   0  0  0  0  0  0  0  0  0  0  0  0
   11.4867  -15.5514   19.1183 C   0  0  0  0  0  0  0  0  0  0  0  0
   11.9066  -16.3809   20.3006 C   0  0  2  0  0  0  0  0  0  0  0  0
   12.0247  -17.7820   19.8757 N   0  0  0  0  0  0  0  0  0  0  0  0
   10.8668  -16.3293   21.3501 C   0  0  0  0  0  0  0  0  0  0  0  0
   10.4973  -15.2516   21.8257 O   0  0  0  0  0  0  0  0  0  0  0  0
   10.2407  -17.5054   21.8639 N   0  0  0  0  0  0  0  0  0  0  0  0
    9.2098  -17.4783   22.8817 C   0  0  1  0  0  0  0  0  0  0  0  0
    8.7912  -18.8524   23.3067 C   0  0  0  0  0  0  0  0  0  0  0  0
    7.8103  -18.9432   24.3715 C   0  0  0  0  0  0  0  0  0  0  0  0
    6.4390  -18.7658   24.2890 C   0  0  0  0  0  0  0  0  0  0  0  0
    5.9000  -18.9399   25.5110 N   0  0  0  0  0  0  0  0  0  0  0  0
    6.8975  -19.2211   26.3534 C   0  0  0  0  0  0  0  0  0  0  0  0
    8.0316  -19.2212   25.6684 N   0  0  0  0  0  0  0  0  0  0  0  0
    9.4642  -16.5116   23.9386 C   0  0  0  0  0  0  0  0  0  0  0  0
   10.6550  -16.3165   24.3107 O   0  0  0  0  0  0  0  0  0  0  0  0
    7.4504  -11.4215   26.6663 C   0  0  0  0  0  0  0  0  0  0  0  0
    8.3350  -12.6418   26.8312 C   0  0  0  0  0  0  0  0  0  0  0  0
    7.9111  -13.6391   25.7835 C   0  0  2  0  0  0  0  0  0  0  0  0
    6.4692  -14.0437   26.0007 C   0  0  0  0  0  0  0  0  0  0  0  0
    8.8292  -14.8357   25.7144 C   0  0  2  0  0  0  0  0  0  0  0  0
    8.5039  -15.7282   24.6322 N   0  0  0  0  0  0  0  0  0  0  0  0
    8.7676  -15.5648   26.9986 C   0  0  0  0  0  0  0  0  0  0  0  0
    8.0705  -16.5985   27.0644 O   0  0  0  0  0  0  0  0  0  0  0  0
    9.4504  -15.1430   28.1176 O   0  0  0  0  0  0  0  0  0  0  0  0
  2  1  1  0
  2  3  2  0
  4  5  1  0
  4  2  1  0
  5  6  1  0
  6  8  1  0
  6  7  1  6
  8  9  2  0
 10  8  1  0
 10 11  1  0
 11 12  1  1
 13 12  1  0
 14 13  2  0
 15 14  1  0
 16 15  1  0
 16 17  2  0
 17 13  1  0
 18 19  2  0
 18 11  1  0
 21 20  1  0
 21 22  1  0
 22 24  1  0
 22 23  1  1
 24 25  1  6
 25 18  1  0
 26 24  1  0
 26 28  1  0
 27 26  2  0
M  END
$$$$
