QHI.pdb
     RDKit          3D

 28 28  0  0  1  0  0  0  0  0999 V2000
    9.2158  -11.5674   19.1836 N   0  0  0  0  0  0  0  0  0  0  0  0
    8.5867  -12.8109   18.9108 C   0  0  0  0  0  0  0  0  0  0  0  0
    9.0530  -13.5243   17.9916 O   0  0  0  0  0  0  0  0  0  0  0  0
    7.4193  -13.2765   19.6690 C   0  0  0  0  0  0  0  0  0  0  0  0
    7.7190  -14.1581   20.8311 C   0  0  0  0  0  0  0  0  0  0  0  0
    8.5031  -15.3947   20.4871 C   0  0  2  0  0  0  0  0  0  0  0  0
    7.6690  -16.2634   19.6462 N   0  0  0  0  0  0  0  0  0  0  0  0
    8.8200  -16.1515   21.7168 C   0  0  0  0  0  0  0  0  0  0  0  0
    7.9228  -16.5653   22.4569 O   0  0  0  0  0  0  0  0  0  0  0  0
   10.1615  -16.4422   22.1108 N   0  0  0  0  0  0  0  0  0  0  0  0
   10.4951  -17.2048   23.2967 C   0  0  1  0  0  0  0  0  0  0  0  0
   11.4801  -18.2975   23.0142 C   0  0  0  0  0  0  0  0  0  0  0  0
   11.0423  -19.3706   22.1418 C   0  0  0  0  0  0  0  0  0  0  0  0
    9.7458  -19.7313   21.8135 C   0  0  0  0  0  0  0  0  0  0  0  0
    9.7828  -20.7825   20.9722 N   0  0  0  0  0  0  0  0  0  0  0  0
   11.0668  -21.0873   20.7668 C   0  0  0  0  0  0  0  0  0  0  0  0
   11.8108  -20.2430   21.4662 N   0  0  0  0  0  0  0  0  0  0  0  0
   10.7483  -16.3769   24.4659 C   0  0  0  0  0  0  0  0  0  0  0  0
   11.5605  -15.4153   24.3659 O   0  0  0  0  0  0  0  0  0  0  0  0
    9.5023  -12.2880   28.1005 C   0  0  0  0  0  0  0  0  0  0  0  0
   10.1914  -13.6330   28.2219 C   0  0  0  0  0  0  0  0  0  0  0  0
    9.7855  -14.4469   27.0198 C   0  0  2  0  0  0  0  0  0  0  0  0
    8.2918  -14.6891   27.0332 C   0  0  0  0  0  0  0  0  0  0  0  0
   10.5653  -15.7341   26.8986 C   0  0  2  0  0  0  0  0  0  0  0  0
   10.1740  -16.5195   25.7569 N   0  0  0  0  0  0  0  0  0  0  0  0
   10.3846  -16.5247   28.1343 C   0  0  0  0  0  0  0  0  0  0  0  0
    9.6171  -17.5090   28.1053 O   0  0  0  0  0  0  0  0  0  0  0  0
   11.0319  -16.2123   29.3089 O   0  0  0  0  0  0  0  0  0  0  0  0
  2  1  1  0
  2  3  2  0
  4  5  1  0
  4  2  1  0
  5  6  1  0
  6  8  1  0
  6  7  1  6
  8  9  2  0
 10  8  1  0
 10 11  1  0
 11 12  1  6
 13 12  1  0
 14 13  2  0
 15 14  1  0
 16 15  1  0
 16 17  2  0
 17 13  1  0
 18 19  2  0
 18 11  1  0
 21 20  1  0
 21 22  1  0
 22 24  1  0
 22 23  1  1
 24 25  1  6
 25 18  1  0
 26 24  1  0
 26 28  1  0
 27 26  2  0
M  END
$$$$
