AHM.pdb
     RDKit          3D

 24 24  0  0  1  0  0  0  0  0999 V2000
   22.7815  -12.6170  -18.2435 C   0  0  0  0  0  0  0  0  0  0  0  0
   21.5962  -12.7769  -17.3099 C   0  0  2  0  0  0  0  0  0  0  0  0
   20.6821  -13.7912  -17.7695 N   0  0  0  0  0  0  0  0  0  0  0  0
   20.8727  -11.5003  -17.1478 C   0  0  0  0  0  0  0  0  0  0  0  0
   20.2386  -11.0254  -18.1359 O   0  0  0  0  0  0  0  0  0  0  0  0
   20.8910  -10.8325  -15.9239 N   0  0  0  0  0  0  0  0  0  0  0  0
   20.1621   -9.5416  -15.7992 C   0  0  1  0  0  0  0  0  0  0  0  0
   19.1463   -9.7592  -14.7532 C   0  0  0  0  0  0  0  0  0  0  0  0
   17.8131  -10.1911  -15.1573 C   0  0  0  0  0  0  0  0  0  0  0  0
   17.2259  -10.5510  -16.3266 C   0  0  0  0  0  0  0  0  0  0  0  0
   15.9328  -10.9230  -16.1009 N   0  0  0  0  0  0  0  0  0  0  0  0
   15.7277  -10.7922  -14.7908 C   0  0  0  0  0  0  0  0  0  0  0  0
   16.8359  -10.3588  -14.2194 N   0  0  0  0  0  0  0  0  0  0  0  0
   21.2196   -8.5831  -15.3028 C   0  0  0  0  0  0  0  0  0  0  0  0
   22.0749   -9.0409  -14.5166 O   0  0  0  0  0  0  0  0  0  0  0  0
   26.0352   -4.9508  -18.1050 C   0  0  0  0  0  0  0  0  0  0  0  0
   24.8813   -3.8501  -17.2374 S   0  0  0  0  0  0  0  0  0  0  0  0
   24.1430   -4.8382  -15.8883 C   0  0  0  0  0  0  0  0  0  0  0  0
   22.9670   -5.6297  -16.3797 C   0  0  0  0  0  0  0  0  0  0  0  0
   22.3994   -6.4401  -15.2702 C   0  0  2  0  0  0  0  0  0  0  0  0
   21.2486   -7.2201  -15.7059 N   0  0  0  0  0  0  0  0  0  0  0  0
   21.8952   -5.5543  -14.2003 C   0  0  0  0  0  0  0  0  0  0  0  0
   20.6652   -5.1987  -14.2604 O   0  0  0  0  0  0  0  0  0  0  0  0
   22.6447   -5.0790  -13.1341 O   0  0  0  0  0  0  0  0  0  0  0  0
  2  1  1  6
  2  3  1  0
  2  4  1  0
  4  5  2  0
  6  4  1  0
  6  7  1  0
  7 14  1  0
  7  8  1  1
  9 10  2  0
  9  8  1  0
 11 10  1  0
 12 13  2  0
 12 11  1  0
 13  9  1  0
 14 15  2  0
 14 21  1  0
 17 18  1  0
 17 16  1  0
 19 18  1  0
 20 19  1  6
 21 20  1  0
 22 20  1  0
 22 24  1  0
 23 22  2  0
M  END
$$$$
