AHM.pdb
     RDKit          3D

 24 24  0  0  1  0  0  0  0  0999 V2000
   15.0529  -11.9260  -18.2738 C   0  0  0  0  0  0  0  0  0  0  0  0
   16.2596  -11.7907  -17.3641 C   0  0  2  0  0  0  0  0  0  0  0  0
   15.9716  -12.2231  -16.0202 N   0  0  0  0  0  0  0  0  0  0  0  0
   16.7507  -10.3987  -17.3378 C   0  0  0  0  0  0  0  0  0  0  0  0
   17.0870   -9.8468  -18.4270 O   0  0  0  0  0  0  0  0  0  0  0  0
   16.8409   -9.7079  -16.1300 N   0  0  0  0  0  0  0  0  0  0  0  0
   17.2300   -8.2720  -16.1513 C   0  0  1  0  0  0  0  0  0  0  0  0
   16.0898   -7.5435  -15.5660 C   0  0  0  0  0  0  0  0  0  0  0  0
   15.0386   -7.0653  -16.4567 C   0  0  0  0  0  0  0  0  0  0  0  0
   14.7967   -7.1311  -17.7904 C   0  0  0  0  0  0  0  0  0  0  0  0
   13.6008   -6.5389  -18.0745 N   0  0  0  0  0  0  0  0  0  0  0  0
   13.1085   -6.1106  -16.9127 C   0  0  0  0  0  0  0  0  0  0  0  0
   13.9521   -6.4171  -15.9448 N   0  0  0  0  0  0  0  0  0  0  0  0
   18.4172   -8.2119  -15.2184 C   0  0  0  0  0  0  0  0  0  0  0  0
   18.5551   -9.1583  -14.4155 O   0  0  0  0  0  0  0  0  0  0  0  0
   24.5692  -10.7320  -13.6502 C   0  0  0  0  0  0  0  0  0  0  0  0
   23.5436  -10.1633  -15.0360 S   0  0  0  0  0  0  0  0  0  0  0  0
   22.6716   -8.6670  -14.4512 C   0  0  0  0  0  0  0  0  0  0  0  0
   21.3422   -8.5165  -15.1303 C   0  0  0  0  0  0  0  0  0  0  0  0
   20.6124   -7.3499  -14.5679 C   0  0  2  0  0  0  0  0  0  0  0  0
   19.3409   -7.1316  -15.2449 N   0  0  0  0  0  0  0  0  0  0  0  0
   21.3916   -6.1125  -14.7804 C   0  0  0  0  0  0  0  0  0  0  0  0
   21.1333   -5.4265  -15.8319 O   0  0  0  0  0  0  0  0  0  0  0  0
   22.3782   -5.6314  -13.9320 O   0  0  0  0  0  0  0  0  0  0  0  0
  2  1  1  6
  2  3  1  0
  2  4  1  0
  4  5  2  0
  6  4  1  0
  6  7  1  0
  7 14  1  0
  7  8  1  1
  9 10  2  0
  9  8  1  0
 11 10  1  0
 12 13  2  0
 12 11  1  0
 13  9  1  0
 14 15  2  0
 14 21  1  0
 17 18  1  0
 17 16  1  0
 19 18  1  0
 20 19  1  6
 21 20  1  0
 22 20  1  0
 22 24  1  0
 23 22  2  0
M  END
$$$$
