AHM.pdb
     RDKit          3D

 24 24  0  0  1  0  0  0  0  0999 V2000
   20.4122  -14.3571  -21.2899 C   0  0  0  0  0  0  0  0  0  0  0  0
   20.9557  -13.9905  -19.9217 C   0  0  2  0  0  0  0  0  0  0  0  0
   20.4617  -14.8700  -18.8930 N   0  0  0  0  0  0  0  0  0  0  0  0
   20.6237  -12.5943  -19.5756 C   0  0  0  0  0  0  0  0  0  0  0  0
   21.0732  -11.6593  -20.3021 O   0  0  0  0  0  0  0  0  0  0  0  0
   19.8277  -12.3156  -18.4653 N   0  0  0  0  0  0  0  0  0  0  0  0
   19.5517  -10.8955  -18.1178 C   0  0  1  0  0  0  0  0  0  0  0  0
   18.1101  -10.8342  -17.8157 C   0  0  0  0  0  0  0  0  0  0  0  0
   17.1832  -10.5420  -18.9031 C   0  0  0  0  0  0  0  0  0  0  0  0
   17.2997  -10.2839  -20.2303 C   0  0  0  0  0  0  0  0  0  0  0  0
   16.0618  -10.1320  -20.7836 N   0  0  0  0  0  0  0  0  0  0  0  0
   15.1852  -10.2985  -19.7939 C   0  0  0  0  0  0  0  0  0  0  0  0
   15.8379  -10.5428  -18.6728 N   0  0  0  0  0  0  0  0  0  0  0  0
   20.3550  -10.6760  -16.8569 C   0  0  0  0  0  0  0  0  0  0  0  0
   20.4590  -11.6445  -16.0755 O   0  0  0  0  0  0  0  0  0  0  0  0
   27.0682  -10.8763  -14.3782 C   0  0  0  0  0  0  0  0  0  0  0  0
   25.9401  -10.6809  -15.7871 S   0  0  0  0  0  0  0  0  0  0  0  0
   24.3729  -10.0320  -15.1058 C   0  0  0  0  0  0  0  0  0  0  0  0
   23.3120   -9.9614  -16.1643 C   0  0  0  0  0  0  0  0  0  0  0  0
   22.0441   -9.4493  -15.5810 C   0  0  2  0  0  0  0  0  0  0  0  0
   20.9685   -9.4274  -16.5635 N   0  0  0  0  0  0  0  0  0  0  0  0
   22.2139   -8.0466  -15.1486 C   0  0  0  0  0  0  0  0  0  0  0  0
   22.0888   -7.1353  -16.0413 O   0  0  0  0  0  0  0  0  0  0  0  0
   22.4947   -7.6358  -13.8536 O   0  0  0  0  0  0  0  0  0  0  0  0
  2  1  1  6
  2  3  1  0
  2  4  1  0
  4  5  2  0
  6  4  1  0
  6  7  1  0
  7 14  1  0
  7  8  1  1
  9 10  2  0
  9  8  1  0
 11 10  1  0
 12 13  2  0
 12 11  1  0
 13  9  1  0
 14 15  2  0
 14 21  1  0
 17 18  1  0
 17 16  1  0
 19 18  1  0
 20 19  1  6
 21 20  1  0
 22 20  1  0
 22 24  1  0
 23 22  2  0
M  END
$$$$
