AHM.pdb
     RDKit          3D

 24 24  0  0  1  0  0  0  0  0999 V2000
   18.8625  -12.4249  -16.2222 C   0  0  0  0  0  0  0  0  0  0  0  0
   18.6897  -10.9201  -16.1362 C   0  0  2  0  0  0  0  0  0  0  0  0
   18.4308  -10.3334  -17.4264 N   0  0  0  0  0  0  0  0  0  0  0  0
   19.8787  -10.2830  -15.5363 C   0  0  0  0  0  0  0  0  0  0  0  0
   20.1917  -10.5703  -14.3432 O   0  0  0  0  0  0  0  0  0  0  0  0
   20.6408   -9.3799  -16.2763 N   0  0  0  0  0  0  0  0  0  0  0  0
   21.8645   -8.7993  -15.6607 C   0  0  1  0  0  0  0  0  0  0  0  0
   22.9758   -9.1817  -16.5506 C   0  0  0  0  0  0  0  0  0  0  0  0
   23.6166  -10.4759  -16.3469 C   0  0  0  0  0  0  0  0  0  0  0  0
   23.5126  -11.4735  -15.4327 C   0  0  0  0  0  0  0  0  0  0  0  0
   24.3405  -12.5030  -15.7737 N   0  0  0  0  0  0  0  0  0  0  0  0
   24.9519  -12.1361  -16.8994 C   0  0  0  0  0  0  0  0  0  0  0  0
   24.5308  -10.9353  -17.2502 N   0  0  0  0  0  0  0  0  0  0  0  0
   21.6281   -7.3088  -15.7381 C   0  0  0  0  0  0  0  0  0  0  0  0
   21.0920   -6.8736  -16.7785 O   0  0  0  0  0  0  0  0  0  0  0  0
   17.8409   -1.2913  -15.3605 C   0  0  0  0  0  0  0  0  0  0  0  0
   18.0725   -3.0879  -15.2414 S   0  0  0  0  0  0  0  0  0  0  0  0
   19.8703   -3.3645  -15.0600 C   0  0  0  0  0  0  0  0  0  0  0  0
   20.1856   -4.8289  -14.9763 C   0  0  0  0  0  0  0  0  0  0  0  0
   21.6540   -5.0274  -14.8552 C   0  0  2  0  0  0  0  0  0  0  0  0
   21.9958   -6.4328  -14.6805 N   0  0  0  0  0  0  0  0  0  0  0  0
   22.1612   -4.3434  -13.6476 C   0  0  0  0  0  0  0  0  0  0  0  0
   22.4764   -5.0759  -12.6440 O   0  0  0  0  0  0  0  0  0  0  0  0
   22.3270   -2.9727  -13.5131 O   0  0  0  0  0  0  0  0  0  0  0  0
  2  1  1  6
  2  3  1  0
  2  4  1  0
  4  5  2  0
  6  4  1  0
  6  7  1  0
  7 14  1  0
  7  8  1  6
  9 10  2  0
  9  8  1  0
 11 10  1  0
 12 13  2  0
 12 11  1  0
 13  9  1  0
 14 15  2  0
 14 21  1  0
 17 18  1  0
 17 16  1  0
 19 18  1  0
 20 19  1  1
 21 20  1  0
 22 20  1  0
 22 24  1  0
 23 22  2  0
M  END
$$$$
