AHM.pdb
     RDKit          3D

 24 24  0  0  1  0  0  0  0  0999 V2000
   23.4020  -20.4126  -21.9199 C   0  0  0  0  0  0  0  0  0  0  0  0
   23.8787  -19.2397  -21.0838 C   0  0  2  0  0  0  0  0  0  0  0  0
   25.1405  -18.7238  -21.5502 N   0  0  0  0  0  0  0  0  0  0  0  0
   23.9972  -19.6158  -19.6611 C   0  0  0  0  0  0  0  0  0  0  0  0
   25.0335  -20.2326  -19.2745 O   0  0  0  0  0  0  0  0  0  0  0  0
   22.9809  -19.2946  -18.7622 N   0  0  0  0  0  0  0  0  0  0  0  0
   23.2198  -19.4933  -17.3072 C   0  0  1  0  0  0  0  0  0  0  0  0
   24.2053  -18.4663  -16.9233 C   0  0  0  0  0  0  0  0  0  0  0  0
   25.6218  -18.8105  -16.9673 C   0  0  0  0  0  0  0  0  0  0  0  0
   26.3398  -19.9110  -17.3067 C   0  0  0  0  0  0  0  0  0  0  0  0
   27.6738  -19.6438  -17.2049 N   0  0  0  0  0  0  0  0  0  0  0  0
   27.7736  -18.3771  -16.8038 C   0  0  0  0  0  0  0  0  0  0  0  0
   26.5629  -17.8712  -16.6594 N   0  0  0  0  0  0  0  0  0  0  0  0
   21.8793  -19.1844  -16.6818 C   0  0  0  0  0  0  0  0  0  0  0  0
   21.2634  -18.1919  -17.1233 O   0  0  0  0  0  0  0  0  0  0  0  0
   15.1563  -21.5730  -13.8100 C   0  0  0  0  0  0  0  0  0  0  0  0
   16.9019  -22.0573  -13.9290 S   0  0  0  0  0  0  0  0  0  0  0  0
   17.8070  -20.5815  -14.5155 C   0  0  0  0  0  0  0  0  0  0  0  0
   19.2490  -20.9014  -14.7786 C   0  0  0  0  0  0  0  0  0  0  0  0
   19.9638  -19.6840  -15.2442 C   0  0  2  0  0  0  0  0  0  0  0  0
   21.3349  -19.9808  -15.6375 N   0  0  0  0  0  0  0  0  0  0  0  0
   20.0711  -18.7052  -14.1424 C   0  0  0  0  0  0  0  0  0  0  0  0
   21.1427  -18.7240  -13.4395 O   0  0  0  0  0  0  0  0  0  0  0  0
   19.1068  -17.7651  -13.8092 O   0  0  0  0  0  0  0  0  0  0  0  0
  2  1  1  6
  2  3  1  0
  2  4  1  0
  4  5  2  0
  6  4  1  0
  6  7  1  0
  7 14  1  0
  7  8  1  1
  9 10  2  0
  9  8  1  0
 11 10  1  0
 12 13  2  0
 12 11  1  0
 13  9  1  0
 14 15  2  0
 14 21  1  0
 17 18  1  0
 17 16  1  0
 19 18  1  0
 20 19  1  1
 21 20  1  0
 22 20  1  0
 22 24  1  0
 23 22  2  0
M  END
$$$$
