AHM.pdb
     RDKit          3D

 24 24  0  0  1  0  0  0  0  0999 V2000
   28.8524  -19.0808  -14.7673 C   0  0  0  0  0  0  0  0  0  0  0  0
   27.7761  -20.1256  -14.5393 C   0  0  2  0  0  0  0  0  0  0  0  0
   26.9859  -20.3515  -15.7226 N   0  0  0  0  0  0  0  0  0  0  0  0
   26.8904  -19.7399  -13.4230 C   0  0  0  0  0  0  0  0  0  0  0  0
   26.5819  -18.5201  -13.2787 O   0  0  0  0  0  0  0  0  0  0  0  0
   26.4044  -20.7077  -12.5447 N   0  0  0  0  0  0  0  0  0  0  0  0
   25.3771  -20.3166  -11.5420 C   0  0  1  0  0  0  0  0  0  0  0  0
   24.2408  -21.2296  -11.7617 C   0  0  0  0  0  0  0  0  0  0  0  0
   23.2025  -20.8336  -12.7062 C   0  0  0  0  0  0  0  0  0  0  0  0
   23.0099  -19.7879  -13.5495 C   0  0  0  0  0  0  0  0  0  0  0  0
   21.8542  -19.9660  -14.2525 N   0  0  0  0  0  0  0  0  0  0  0  0
   21.3384  -21.1234  -13.8402 C   0  0  0  0  0  0  0  0  0  0  0  0
   22.1292  -21.6483  -12.9228 N   0  0  0  0  0  0  0  0  0  0  0  0
   26.0387  -20.6219  -10.2182 C   0  0  0  0  0  0  0  0  0  0  0  0
   26.5731  -21.7440  -10.0975 O   0  0  0  0  0  0  0  0  0  0  0  0
   29.8971  -19.9099   -4.0349 C   0  0  0  0  0  0  0  0  0  0  0  0
   29.3612  -19.3861   -5.6885 S   0  0  0  0  0  0  0  0  0  0  0  0
   27.5386  -19.5249   -5.7072 C   0  0  0  0  0  0  0  0  0  0  0  0
   26.9708  -19.0077   -6.9960 C   0  0  0  0  0  0  0  0  0  0  0  0
   26.6254  -20.1427   -7.8919 C   0  0  2  0  0  0  0  0  0  0  0  0
   26.0573  -19.6817   -9.1519 N   0  0  0  0  0  0  0  0  0  0  0  0
   25.5800  -20.9813   -7.2696 C   0  0  0  0  0  0  0  0  0  0  0  0
   25.9301  -21.7284   -6.2887 O   0  0  0  0  0  0  0  0  0  0  0  0
   24.2492  -21.0231   -7.6592 O   0  0  0  0  0  0  0  0  0  0  0  0
  2  1  1  6
  2  3  1  0
  2  4  1  0
  4  5  2  0
  6  4  1  0
  6  7  1  0
  7 14  1  0
  7  8  1  6
  9 10  2  0
  9  8  1  0
 11 10  1  0
 12 13  2  0
 12 11  1  0
 13  9  1  0
 14 15  2  0
 14 21  1  0
 17 18  1  0
 17 16  1  0
 19 18  1  0
 20 19  1  1
 21 20  1  0
 22 20  1  0
 22 24  1  0
 23 22  2  0
M  END
$$$$
