AHM.pdb
     RDKit          3D

 24 24  0  0  1  0  0  0  0  0999 V2000
   18.8969  -10.5202  -20.5928 C   0  0  0  0  0  0  0  0  0  0  0  0
   20.0004   -9.7221  -19.9240 C   0  0  2  0  0  0  0  0  0  0  0  0
   21.1923  -10.5083  -19.7313 N   0  0  0  0  0  0  0  0  0  0  0  0
   19.5522   -9.1825  -18.6250 C   0  0  0  0  0  0  0  0  0  0  0  0
   18.5259   -8.4413  -18.5904 O   0  0  0  0  0  0  0  0  0  0  0  0
   20.2519   -9.4875  -17.4581 N   0  0  0  0  0  0  0  0  0  0  0  0
   19.8406   -8.8391  -16.1838 C   0  0  1  0  0  0  0  0  0  0  0  0
   19.6748   -9.9379  -15.2152 C   0  0  0  0  0  0  0  0  0  0  0  0
   18.3946  -10.6349  -15.1661 C   0  0  0  0  0  0  0  0  0  0  0  0
   17.2305  -10.5695  -15.8605 C   0  0  0  0  0  0  0  0  0  0  0  0
   16.3652  -11.5214  -15.4058 N   0  0  0  0  0  0  0  0  0  0  0  0
   17.0007  -12.1720  -14.4320 C   0  0  0  0  0  0  0  0  0  0  0  0
   18.2061  -11.6557  -14.2801 N   0  0  0  0  0  0  0  0  0  0  0  0
   21.0384   -7.9965  -15.8114 C   0  0  0  0  0  0  0  0  0  0  0  0
   22.0806   -8.1676  -16.4776 O   0  0  0  0  0  0  0  0  0  0  0  0
   24.2757   -1.8210  -17.1973 C   0  0  0  0  0  0  0  0  0  0  0  0
   23.0958   -3.1726  -17.4745 S   0  0  0  0  0  0  0  0  0  0  0  0
   23.0377   -4.1325  -15.9199 C   0  0  0  0  0  0  0  0  0  0  0  0
   22.0706   -5.2745  -16.0261 C   0  0  0  0  0  0  0  0  0  0  0  0
   22.0344   -6.0315  -14.7472 C   0  0  2  0  0  0  0  0  0  0  0  0
   20.9919   -7.0493  -14.7522 N   0  0  0  0  0  0  0  0  0  0  0  0
   21.6977   -5.1254  -13.6297 C   0  0  0  0  0  0  0  0  0  0  0  0
   22.5709   -4.2471  -13.2994 O   0  0  0  0  0  0  0  0  0  0  0  0
   20.5113   -5.1462  -12.9109 O   0  0  0  0  0  0  0  0  0  0  0  0
  2  1  1  1
  2  3  1  0
  2  4  1  0
  4  5  2  0
  6  4  1  0
  6  7  1  0
  7 14  1  0
  7  8  1  1
  9 10  2  0
  9  8  1  0
 11 10  1  0
 12 13  2  0
 12 11  1  0
 13  9  1  0
 14 15  2  0
 14 21  1  0
 17 18  1  0
 17 16  1  0
 19 18  1  0
 20 19  1  6
 21 20  1  0
 22 20  1  0
 22 24  1  0
 23 22  2  0
M  END
$$$$
