AHM.pdb
     RDKit          3D

 24 24  0  0  1  0  0  0  0  0999 V2000
   20.9859  -21.3895  -13.4992 C   0  0  0  0  0  0  0  0  0  0  0  0
   21.4418  -20.7475  -12.2024 C   0  0  2  0  0  0  0  0  0  0  0  0
   21.5106  -19.3122  -12.3075 N   0  0  0  0  0  0  0  0  0  0  0  0
   22.7562  -21.2731  -11.7836 C   0  0  0  0  0  0  0  0  0  0  0  0
   22.8898  -22.5202  -11.6078 O   0  0  0  0  0  0  0  0  0  0  0  0
   23.8297  -20.4055  -11.5860 N   0  0  0  0  0  0  0  0  0  0  0  0
   25.1539  -20.9740  -11.2163 C   0  0  1  0  0  0  0  0  0  0  0  0
   26.1172  -20.3835  -12.1632 C   0  0  0  0  0  0  0  0  0  0  0  0
   26.3742  -21.0794  -13.4190 C   0  0  0  0  0  0  0  0  0  0  0  0
   25.9248  -22.2191  -14.0028 C   0  0  0  0  0  0  0  0  0  0  0  0
   26.4833  -22.3578  -15.2398 N   0  0  0  0  0  0  0  0  0  0  0  0
   27.2753  -21.3006  -15.4149 C   0  0  0  0  0  0  0  0  0  0  0  0
   27.2192  -20.5341  -14.3416 N   0  0  0  0  0  0  0  0  0  0  0  0
   25.3966  -20.4339   -9.8261 C   0  0  0  0  0  0  0  0  0  0  0  0
   24.8389  -19.3562   -9.5317 O   0  0  0  0  0  0  0  0  0  0  0  0
   28.9902  -20.3424   -2.8985 C   0  0  0  0  0  0  0  0  0  0  0  0
   28.8213  -21.3324   -4.4108 S   0  0  0  0  0  0  0  0  0  0  0  0
   27.5792  -20.4815   -5.4473 C   0  0  0  0  0  0  0  0  0  0  0  0
   27.3450  -21.2248   -6.7293 C   0  0  0  0  0  0  0  0  0  0  0  0
   26.4512  -20.4371   -7.6186 C   0  0  2  0  0  0  0  0  0  0  0  0
   26.2209  -21.1136   -8.8882 N   0  0  0  0  0  0  0  0  0  0  0  0
   27.0868  -19.1491   -7.9658 C   0  0  0  0  0  0  0  0  0  0  0  0
   26.8943  -18.1632   -7.1696 O   0  0  0  0  0  0  0  0  0  0  0  0
   27.8778  -18.9213   -9.0825 O   0  0  0  0  0  0  0  0  0  0  0  0
  2  1  1  6
  2  3  1  0
  2  4  1  0
  4  5  2  0
  6  4  1  0
  6  7  1  0
  7 14  1  0
  7  8  1  6
  9 10  2  0
  9  8  1  0
 11 10  1  0
 12 13  2  0
 12 11  1  0
 13  9  1  0
 14 15  2  0
 14 21  1  0
 17 18  1  0
 17 16  1  0
 19 18  1  0
 20 19  1  1
 21 20  1  0
 22 20  1  0
 22 24  1  0
 23 22  2  0
M  END
$$$$
