AHM.pdb
     RDKit          3D

 24 24  0  0  1  0  0  0  0  0999 V2000
   22.7114  -25.3754   13.5600 C   0  0  0  0  0  0  0  0  0  0  0  0
   22.9228  -26.0920   12.2395 C   0  0  2  0  0  0  0  0  0  0  0  0
   22.3837  -27.4279   12.2597 N   0  0  0  0  0  0  0  0  0  0  0  0
   24.3558  -26.1457   11.8886 C   0  0  0  0  0  0  0  0  0  0  0  0
   25.1321  -26.8600   12.5893 O   0  0  0  0  0  0  0  0  0  0  0  0
   24.8410  -25.4190   10.8019 N   0  0  0  0  0  0  0  0  0  0  0  0
   26.2751  -25.5550   10.4299 C   0  0  1  0  0  0  0  0  0  0  0  0
   26.3182  -25.4234    8.9622 C   0  0  0  0  0  0  0  0  0  0  0  0
   26.6008  -26.6116    8.1651 C   0  0  0  0  0  0  0  0  0  0  0  0
   26.9375  -27.8986    8.4332 C   0  0  0  0  0  0  0  0  0  0  0  0
   27.0293  -28.6059    7.2701 N   0  0  0  0  0  0  0  0  0  0  0  0
   26.7471  -27.7510    6.2876 C   0  0  0  0  0  0  0  0  0  0  0  0
   26.4907  -26.5643    6.8056 N   0  0  0  0  0  0  0  0  0  0  0  0
   26.9252  -24.3542   11.0770 C   0  0  0  0  0  0  0  0  0  0  0  0
   26.1652  -23.5042   11.5861 O   0  0  0  0  0  0  0  0  0  0  0  0
   29.3571  -20.7342   16.6928 C   0  0  0  0  0  0  0  0  0  0  0  0
   28.5541  -22.1370   15.8663 S   0  0  0  0  0  0  0  0  0  0  0  0
   29.0348  -22.0411   14.1053 C   0  0  0  0  0  0  0  0  0  0  0  0
   28.4166  -23.1566   13.3152 C   0  0  0  0  0  0  0  0  0  0  0  0
   28.8402  -23.0687   11.8929 C   0  0  2  0  0  0  0  0  0  0  0  0
   28.3370  -24.1896   11.1099 N   0  0  0  0  0  0  0  0  0  0  0  0
   30.3126  -23.1471   11.7955 C   0  0  0  0  0  0  0  0  0  0  0  0
   30.9630  -22.0426   11.7976 O   0  0  0  0  0  0  0  0  0  0  0  0
   31.0482  -24.3198   11.7052 O   0  0  0  0  0  0  0  0  0  0  0  0
  2  1  1  1
  2  3  1  0
  2  4  1  0
  4  5  2  0
  6  4  1  0
  6  7  1  0
  7 14  1  0
  7  8  1  6
  9 10  2  0
  9  8  1  0
 11 10  1  0
 12 13  2  0
 12 11  1  0
 13  9  1  0
 14 15  2  0
 14 21  1  0
 17 18  1  0
 17 16  1  0
 19 18  1  0
 20 19  1  1
 21 20  1  0
 22 20  1  0
 22 24  1  0
 23 22  2  0
M  END
$$$$
