NGN.pdb
     RDKit          3D

 21 20  0  0  1  0  0  0  0  0999 V2000
   22.9740  -19.2683  -21.4094 N   0  0  0  0  0  0  0  0  0  0  0  0
   23.1946  -18.0803  -20.6387 C   0  0  0  0  0  0  0  0  0  0  0  0
   23.8132  -17.1460  -21.2033 O   0  0  0  0  0  0  0  0  0  0  0  0
   22.6964  -18.0163  -19.2562 C   0  0  0  0  0  0  0  0  0  0  0  0
   23.6886  -17.5221  -18.2354 C   0  0  2  0  0  0  0  0  0  0  0  0
   24.7287  -18.5674  -18.1621 N   0  0  0  0  0  0  0  0  0  0  0  0
   23.0172  -17.4073  -16.9170 C   0  0  0  0  0  0  0  0  0  0  0  0
   21.9822  -16.7240  -16.7614 O   0  0  0  0  0  0  0  0  0  0  0  0
   23.5243  -18.0807  -15.7393 N   0  0  0  0  0  0  0  0  0  0  0  0
   22.7870  -17.9756  -14.5078 C   0  0  0  0  0  0  0  0  0  0  0  0
   21.9320  -19.1022  -14.1790 C   0  0  0  0  0  0  0  0  0  0  0  0
   21.8279  -20.0109  -15.0804 O   0  0  0  0  0  0  0  0  0  0  0  0
   20.0263  -18.6513  -10.6686 N   0  0  0  0  0  0  0  0  0  0  0  0
   20.5128  -19.9150  -10.2751 C   0  0  0  0  0  0  0  0  0  0  0  0
   20.7518  -20.1341   -9.0723 O   0  0  0  0  0  0  0  0  0  0  0  0
   20.7330  -20.9578  -11.2809 C   0  0  0  0  0  0  0  0  0  0  0  0
   20.5143  -20.4635  -12.6943 C   0  0  2  0  0  0  0  0  0  0  0  0
   21.2329  -19.2526  -12.9692 N   0  0  0  0  0  0  0  0  0  0  0  0
   19.0598  -20.3389  -13.0028 C   0  0  0  0  0  0  0  0  0  0  0  0
   18.2077  -21.4183  -13.1638 O   0  0  0  0  0  0  0  0  0  0  0  0
   18.5716  -19.1874  -13.1257 O   0  0  0  0  0  0  0  0  0  0  0  0
  1  2  1  0
  2  3  2  0
  4  5  1  0
  4  2  1  0
  5  6  1  1
  7  5  1  0
  7  8  2  0
  9  7  1  0
 10  9  1  0
 10 11  1  0
 11 18  1  0
 12 11  2  0
 14 16  1  0
 14 13  1  0
 15 14  2  0
 17 16  1  1
 17 19  1  0
 18 17  1  0
 19 21  2  0
 19 20  1  0
M  END
$$$$
