NGN.pdb
     RDKit          3D

 21 20  0  0  1  0  0  0  0  0999 V2000
   15.7804  -13.0374  -15.4816 N   0  0  0  0  0  0  0  0  0  0  0  0
   16.1383  -11.8186  -14.8181 C   0  0  0  0  0  0  0  0  0  0  0  0
   15.4902  -11.5254  -13.7845 O   0  0  0  0  0  0  0  0  0  0  0  0
   17.2224  -10.9908  -15.3686 C   0  0  0  0  0  0  0  0  0  0  0  0
   17.7979  -11.4685  -16.6767 C   0  0  2  0  0  0  0  0  0  0  0  0
   19.0609  -12.1471  -16.3243 N   0  0  0  0  0  0  0  0  0  0  0  0
   18.0962  -10.2964  -17.5365 C   0  0  0  0  0  0  0  0  0  0  0  0
   17.2053   -9.7185  -18.1959 O   0  0  0  0  0  0  0  0  0  0  0  0
   19.4354   -9.7581  -17.6583 N   0  0  0  0  0  0  0  0  0  0  0  0
   19.6481   -8.6090  -18.4980 C   0  0  0  0  0  0  0  0  0  0  0  0
   20.1444   -7.4172  -17.8333 C   0  0  0  0  0  0  0  0  0  0  0  0
   20.4985   -6.4511  -18.6017 O   0  0  0  0  0  0  0  0  0  0  0  0
   21.6671   -3.7194  -14.6966 N   0  0  0  0  0  0  0  0  0  0  0  0
   20.3356   -4.0987  -14.4293 C   0  0  0  0  0  0  0  0  0  0  0  0
   19.6501   -3.4207  -13.6404 O   0  0  0  0  0  0  0  0  0  0  0  0
   19.7697   -5.2839  -15.0794 C   0  0  0  0  0  0  0  0  0  0  0  0
   20.7923   -6.0524  -15.8879 C   0  0  2  0  0  0  0  0  0  0  0  0
   20.2569   -7.2629  -16.4410 N   0  0  0  0  0  0  0  0  0  0  0  0
   22.0338   -6.2944  -15.0965 C   0  0  0  0  0  0  0  0  0  0  0  0
   22.8934   -5.2923  -14.6796 O   0  0  0  0  0  0  0  0  0  0  0  0
   22.3234   -7.4773  -14.7861 O   0  0  0  0  0  0  0  0  0  0  0  0
  1  2  1  0
  2  3  2  0
  4  5  1  0
  4  2  1  0
  5  6  1  1
  7  5  1  0
  7  8  2  0
  9  7  1  0
 10  9  1  0
 10 11  1  0
 11 18  1  0
 12 11  2  0
 14 16  1  0
 14 13  1  0
 15 14  2  0
 17 16  1  1
 17 19  1  0
 18 17  1  0
 19 21  2  0
 19 20  1  0
M  END
$$$$
