NGN.pdb
     RDKit          3D

 21 20  0  0  1  0  0  0  0  0999 V2000
   25.0325  -21.7192   -9.6651 N   0  0  0  0  0  0  0  0  0  0  0  0
   25.8297  -20.5406   -9.8364 C   0  0  0  0  0  0  0  0  0  0  0  0
   26.3894  -20.0820   -8.8113 O   0  0  0  0  0  0  0  0  0  0  0  0
   25.9498  -19.9408  -11.1740 C   0  0  0  0  0  0  0  0  0  0  0  0
   25.1827  -20.6409  -12.2660 C   0  0  2  0  0  0  0  0  0  0  0  0
   25.8227  -21.9638  -12.4078 N   0  0  0  0  0  0  0  0  0  0  0  0
   25.3370  -19.8848  -13.5335 C   0  0  0  0  0  0  0  0  0  0  0  0
   24.8477  -18.7447  -13.6849 O   0  0  0  0  0  0  0  0  0  0  0  0
   26.0630  -20.4265  -14.6637 N   0  0  0  0  0  0  0  0  0  0  0  0
   26.1547  -19.6455  -15.8690 C   0  0  0  0  0  0  0  0  0  0  0  0
   24.9050  -19.4019  -16.5670 C   0  0  0  0  0  0  0  0  0  0  0  0
   24.9755  -18.6359  -17.5953 O   0  0  0  0  0  0  0  0  0  0  0  0
   20.1262  -21.5214  -19.2530 N   0  0  0  0  0  0  0  0  0  0  0  0
   20.8073  -20.4954  -18.5661 C   0  0  0  0  0  0  0  0  0  0  0  0
   20.4112  -19.3188  -18.6695 O   0  0  0  0  0  0  0  0  0  0  0  0
   21.9724  -20.8198  -17.7385 C   0  0  0  0  0  0  0  0  0  0  0  0
   22.4834  -19.6302  -16.9551 C   0  0  2  0  0  0  0  0  0  0  0  0
   23.6604  -19.9385  -16.1953 N   0  0  0  0  0  0  0  0  0  0  0  0
   21.4055  -19.0378  -16.1104 C   0  0  0  0  0  0  0  0  0  0  0  0
   20.6344  -17.9520  -16.4890 O   0  0  0  0  0  0  0  0  0  0  0  0
   21.1784  -19.5501  -14.9855 O   0  0  0  0  0  0  0  0  0  0  0  0
  1  2  1  0
  2  3  2  0
  4  5  1  0
  4  2  1  0
  5  6  1  6
  7  5  1  0
  7  8  2  0
  9  7  1  0
 10  9  1  0
 10 11  1  0
 11 18  1  0
 12 11  2  0
 14 16  1  0
 14 13  1  0
 15 14  2  0
 17 16  1  1
 17 19  1  0
 18 17  1  0
 19 21  2  0
 19 20  1  0
M  END
$$$$
