NGN.pdb
     RDKit          3D

 21 20  0  0  1  0  0  0  0  0999 V2000
   19.8528  -13.8268  -17.6051 N   0  0  0  0  0  0  0  0  0  0  0  0
   18.5334  -13.7130  -17.0574 C   0  0  0  0  0  0  0  0  0  0  0  0
   17.5958  -14.2006  -17.7337 O   0  0  0  0  0  0  0  0  0  0  0  0
   18.3477  -13.0457  -15.7598 C   0  0  0  0  0  0  0  0  0  0  0  0
   17.1891  -12.0848  -15.6887 C   0  0  2  0  0  0  0  0  0  0  0  0
   17.5429  -10.9768  -16.5980 N   0  0  0  0  0  0  0  0  0  0  0  0
   17.0716  -11.5626  -14.3046 C   0  0  0  0  0  0  0  0  0  0  0  0
   16.9763  -12.3245  -13.3183 O   0  0  0  0  0  0  0  0  0  0  0  0
   17.0610  -10.1423  -14.0213 N   0  0  0  0  0  0  0  0  0  0  0  0
   16.8940   -9.7070  -12.6598 C   0  0  0  0  0  0  0  0  0  0  0  0
   17.0580   -8.2842  -12.4211 C   0  0  0  0  0  0  0  0  0  0  0  0
   17.2910   -7.5633  -13.4580 O   0  0  0  0  0  0  0  0  0  0  0  0
   17.0917   -3.6786   -8.3321 N   0  0  0  0  0  0  0  0  0  0  0  0
   16.8144   -4.2687   -9.5823 C   0  0  0  0  0  0  0  0  0  0  0  0
   16.6701   -3.5441  -10.5853 O   0  0  0  0  0  0  0  0  0  0  0  0
   16.6981   -5.7254   -9.6922 C   0  0  0  0  0  0  0  0  0  0  0  0
   17.1546   -6.2494  -11.0364 C   0  0  2  0  0  0  0  0  0  0  0  0
   16.9791   -7.6677  -11.1606 N   0  0  0  0  0  0  0  0  0  0  0  0
   18.5543   -5.8259  -11.3329 C   0  0  0  0  0  0  0  0  0  0  0  0
   19.6381   -6.6874  -11.3411 O   0  0  0  0  0  0  0  0  0  0  0  0
   18.7701   -4.6151  -11.5916 O   0  0  0  0  0  0  0  0  0  0  0  0
  1  2  1  0
  2  3  2  0
  4  5  1  0
  4  2  1  0
  5  6  1  6
  7  5  1  0
  7  8  2  0
  9  7  1  0
 10  9  1  0
 10 11  1  0
 11 18  1  0
 12 11  2  0
 14 16  1  0
 14 13  1  0
 15 14  2  0
 17 16  1  1
 17 19  1  0
 18 17  1  0
 19 21  2  0
 19 20  1  0
M  END
$$$$
