NGN.pdb
     RDKit          3D

 21 20  0  0  1  0  0  0  0  0999 V2000
   30.5665  -33.7325   -6.1658 N   0  0  0  0  0  0  0  0  0  0  0  0
   31.7664  -34.0823   -6.8670 C   0  0  0  0  0  0  0  0  0  0  0  0
   31.8965  -33.6263   -8.0287 O   0  0  0  0  0  0  0  0  0  0  0  0
   32.7631  -34.9384   -6.2058 C   0  0  0  0  0  0  0  0  0  0  0  0
   32.4939  -35.2383   -4.7538 C   0  0  2  0  0  0  0  0  0  0  0  0
   32.6879  -33.9569   -4.0467 N   0  0  0  0  0  0  0  0  0  0  0  0
   33.4915  -36.2222   -4.2650 C   0  0  0  0  0  0  0  0  0  0  0  0
   33.4754  -37.4163   -4.6338 O   0  0  0  0  0  0  0  0  0  0  0  0
   34.5379  -35.8524   -3.3343 N   0  0  0  0  0  0  0  0  0  0  0  0
   35.4443  -36.8687   -2.8690 C   0  0  0  0  0  0  0  0  0  0  0  0
   35.2340  -37.3367   -1.5107 C   0  0  0  0  0  0  0  0  0  0  0  0
   36.1168  -38.1492   -1.0529 O   0  0  0  0  0  0  0  0  0  0  0  0
   36.4271  -35.9171    2.6467 N   0  0  0  0  0  0  0  0  0  0  0  0
   35.4694  -35.7044    1.6338 C   0  0  0  0  0  0  0  0  0  0  0  0
   35.7297  -34.9276    0.6954 O   0  0  0  0  0  0  0  0  0  0  0  0
   34.1790  -36.3967    1.6925 C   0  0  0  0  0  0  0  0  0  0  0  0
   34.0470  -37.4788    0.6430 C   0  0  2  0  0  0  0  0  0  0  0  0
   34.1542  -36.9643   -0.6918 N   0  0  0  0  0  0  0  0  0  0  0  0
   32.8006  -38.2743    0.8427 C   0  0  0  0  0  0  0  0  0  0  0  0
   32.4888  -38.9430    2.0143 O   0  0  0  0  0  0  0  0  0  0  0  0
   31.9794  -38.3464   -0.1059 O   0  0  0  0  0  0  0  0  0  0  0  0
  1  2  1  0
  2  3  2  0
  4  5  1  0
  4  2  1  0
  5  6  1  1
  7  5  1  0
  7  8  2  0
  9  7  1  0
 10  9  1  0
 10 11  1  0
 11 18  1  0
 12 11  2  0
 14 16  1  0
 14 13  1  0
 15 14  2  0
 17 16  1  1
 17 19  1  0
 18 17  1  0
 19 21  2  0
 19 20  1  0
M  END
$$$$
