NGN.pdb
     RDKit          3D

 21 20  0  0  1  0  0  0  0  0999 V2000
   26.1641  -19.8769   -7.9677 N   0  0  0  0  0  0  0  0  0  0  0  0
   25.5002  -21.0698   -8.4037 C   0  0  0  0  0  0  0  0  0  0  0  0
   25.1670  -21.8896   -7.5142 O   0  0  0  0  0  0  0  0  0  0  0  0
   25.2478  -21.2696   -9.8390 C   0  0  0  0  0  0  0  0  0  0  0  0
   25.8243  -20.2150  -10.7481 C   0  0  2  0  0  0  0  0  0  0  0  0
   25.0407  -18.9934  -10.4770 N   0  0  0  0  0  0  0  0  0  0  0  0
   25.6208  -20.6230  -12.1603 C   0  0  0  0  0  0  0  0  0  0  0  0
   26.3002  -21.5289  -12.6894 O   0  0  0  0  0  0  0  0  0  0  0  0
   24.6240  -19.9939  -13.0021 N   0  0  0  0  0  0  0  0  0  0  0  0
   24.5194  -20.4022  -14.3781 C   0  0  0  0  0  0  0  0  0  0  0  0
   23.1744  -20.6343  -14.8734 C   0  0  0  0  0  0  0  0  0  0  0  0
   22.5512  -19.6011  -15.3132 O   0  0  0  0  0  0  0  0  0  0  0  0
   18.7075  -22.3217  -16.5191 N   0  0  0  0  0  0  0  0  0  0  0  0
   19.4329  -23.4984  -16.2411 C   0  0  0  0  0  0  0  0  0  0  0  0
   18.9469  -24.6053  -16.5418 O   0  0  0  0  0  0  0  0  0  0  0  0
   20.7491  -23.4109  -15.6025 C   0  0  0  0  0  0  0  0  0  0  0  0
   21.1604  -21.9859  -15.3023 C   0  0  2  0  0  0  0  0  0  0  0  0
   22.5334  -21.8846  -14.8993 N   0  0  0  0  0  0  0  0  0  0  0  0
   20.2350  -21.3539  -14.3171 C   0  0  0  0  0  0  0  0  0  0  0  0
   20.5255  -21.1979  -12.9724 O   0  0  0  0  0  0  0  0  0  0  0  0
   19.1224  -20.9358  -14.7254 O   0  0  0  0  0  0  0  0  0  0  0  0
  1  2  1  0
  2  3  2  0
  4  5  1  0
  4  2  1  0
  5  6  1  6
  7  5  1  0
  7  8  2  0
  9  7  1  0
 10  9  1  0
 10 11  1  0
 11 18  1  0
 12 11  2  0
 14 16  1  0
 14 13  1  0
 15 14  2  0
 17 16  1  1
 17 19  1  0
 18 17  1  0
 19 21  2  0
 19 20  1  0
M  END
$$$$
