LAF.pdb
     RDKit          3D

 25 25  0  0  1  0  0  0  0  0999 V2000
    9.5777  -12.8413   19.3937 C   0  0  0  0  0  0  0  0  0  0  0  0
    8.1620  -13.3045   19.0402 C   0  0  2  0  0  0  0  0  0  0  0  0
    7.2458  -12.1345   18.8034 C   0  0  0  0  0  0  0  0  0  0  0  0
    7.6734  -14.1175   20.2044 C   0  0  0  0  0  0  0  0  0  0  0  0
    8.7970  -15.1331   20.5158 C   0  0  2  0  0  0  0  0  0  0  0  0
    8.8251  -16.0179   19.3945 N   0  0  0  0  0  0  0  0  0  0  0  0
    8.4070  -15.7669   21.7940 C   0  0  0  0  0  0  0  0  0  0  0  0
    7.7078  -15.1535   22.6091 O   0  0  0  0  0  0  0  0  0  0  0  0
    8.7203  -19.2591   23.2406 C   0  0  0  0  0  0  0  0  0  0  0  0
    8.5304  -17.7671   23.2677 C   0  0  2  0  0  0  0  0  0  0  0  0
    8.8492  -17.0774   22.0536 N   0  0  0  0  0  0  0  0  0  0  0  0
    9.0867  -17.1208   24.4785 C   0  0  0  0  0  0  0  0  0  0  0  0
   10.2139  -16.6043   24.4045 O   0  0  0  0  0  0  0  0  0  0  0  0
    8.3814  -17.0671   25.7308 N   0  0  0  0  0  0  0  0  0  0  0  0
    8.9652  -16.4884   26.8994 C   0  0  1  0  0  0  0  0  0  0  0  0
    8.0467  -15.6805   27.7248 C   0  0  0  0  0  0  0  0  0  0  0  0
    7.6561  -14.4413   27.0307 C   0  0  0  0  0  0  0  0  0  0  0  0
    6.4126  -14.3939   26.4344 C   0  0  0  0  0  0  0  0  0  0  0  0
    5.9477  -13.2790   25.8042 C   0  0  0  0  0  0  0  0  0  0  0  0
    6.7307  -12.1380   25.7424 C   0  0  0  0  0  0  0  0  0  0  0  0
    7.9979  -12.1493   26.3335 C   0  0  0  0  0  0  0  0  0  0  0  0
    8.4315  -13.3003   26.9649 C   0  0  0  0  0  0  0  0  0  0  0  0
    9.6534  -17.6073   27.6328 C   0  0  0  0  0  0  0  0  0  0  0  0
   10.4224  -17.3428   28.5749 O   0  0  0  0  0  0  0  0  0  0  0  0
    9.4854  -18.9568   27.3335 O   0  0  0  0  0  0  0  0  0  0  0  0
  2  1  1  1
  2  3  1  0
  4  2  1  0
  4  5  1  0
  5  7  1  0
  5  6  1  6
  7  8  2  0
 10  9  1  6
 11 10  1  0
 11  7  1  0
 12 14  1  0
 12 10  1  0
 13 12  2  0
 15 14  1  0
 15 16  1  1
 17 16  1  0
 18 17  2  0
 19 18  1  0
 20 19  2  0
 20 21  1  0
 21 22  2  0
 22 17  1  0
 23 25  1  0
 23 15  1  0
 24 23  2  0
M  END
$$$$
