LAF.pdb
     RDKit          3D

 25 25  0  0  1  0  0  0  0  0999 V2000
    4.0104  -20.3787   22.0293 C   0  0  0  0  0  0  0  0  0  0  0  0
    3.3698  -19.0534   21.6086 C   0  0  2  0  0  0  0  0  0  0  0  0
    2.4690  -19.2342   20.4168 C   0  0  0  0  0  0  0  0  0  0  0  0
    4.4967  -18.1208   21.2692 C   0  0  0  0  0  0  0  0  0  0  0  0
    5.4959  -18.2147   22.4454 C   0  0  2  0  0  0  0  0  0  0  0  0
    4.7865  -17.7179   23.5815 N   0  0  0  0  0  0  0  0  0  0  0  0
    6.6585  -17.3971   22.0363 C   0  0  0  0  0  0  0  0  0  0  0  0
    7.4874  -17.8444   21.2350 O   0  0  0  0  0  0  0  0  0  0  0  0
    7.7200  -13.9611   21.7267 C   0  0  0  0  0  0  0  0  0  0  0  0
    7.9589  -15.3021   22.3649 C   0  0  2  0  0  0  0  0  0  0  0  0
    6.7927  -16.1056   22.5790 N   0  0  0  0  0  0  0  0  0  0  0  0
    8.8630  -15.2481   23.5366 C   0  0  0  0  0  0  0  0  0  0  0  0
   10.0088  -14.7963   23.3752 O   0  0  0  0  0  0  0  0  0  0  0  0
    8.4733  -15.6955   24.8467 N   0  0  0  0  0  0  0  0  0  0  0  0
    9.3972  -15.7304   25.9360 C   0  0  1  0  0  0  0  0  0  0  0  0
    9.2643  -14.6267   26.9066 C   0  0  0  0  0  0  0  0  0  0  0  0
    8.0177  -13.8726   26.6892 C   0  0  0  0  0  0  0  0  0  0  0  0
    8.0385  -12.5082   26.8950 C   0  0  0  0  0  0  0  0  0  0  0  0
    6.9468  -11.7216   26.6815 C   0  0  0  0  0  0  0  0  0  0  0  0
    5.7591  -12.2846   26.2443 C   0  0  0  0  0  0  0  0  0  0  0  0
    5.6995  -13.6648   26.0273 C   0  0  0  0  0  0  0  0  0  0  0  0
    6.8302  -14.4273   26.2539 C   0  0  0  0  0  0  0  0  0  0  0  0
    9.3042  -17.1088   26.5318 C   0  0  0  0  0  0  0  0  0  0  0  0
    8.4583  -17.9108   26.0955 O   0  0  0  0  0  0  0  0  0  0  0  0
   10.1210  -17.5719   27.5599 O   0  0  0  0  0  0  0  0  0  0  0  0
  2  1  1  6
  2  3  1  0
  4  2  1  0
  4  5  1  0
  5  7  1  0
  5  6  1  1
  7  8  2  0
 10  9  1  1
 11 10  1  0
 11  7  1  0
 12 14  1  0
 12 10  1  0
 13 12  2  0
 15 14  1  0
 15 16  1  1
 17 16  1  0
 18 17  2  0
 19 18  1  0
 20 19  2  0
 20 21  1  0
 21 22  2  0
 22 17  1  0
 23 25  1  0
 23 15  1  0
 24 23  2  0
M  END
$$$$
