LAF.pdb
     RDKit          3D

 25 25  0  0  1  0  0  0  0  0999 V2000
    9.0318  -13.6381   19.1152 C   0  0  0  0  0  0  0  0  0  0  0  0
    7.8068  -13.1649   19.9020 C   0  0  2  0  0  0  0  0  0  0  0  0
    7.8763  -11.6894   20.1891 C   0  0  0  0  0  0  0  0  0  0  0  0
    7.7953  -13.9424   21.1866 C   0  0  0  0  0  0  0  0  0  0  0  0
    7.6145  -15.4246   20.7855 C   0  0  2  0  0  0  0  0  0  0  0  0
    6.2657  -15.5278   20.3263 N   0  0  0  0  0  0  0  0  0  0  0  0
    7.9119  -16.1994   22.0097 C   0  0  0  0  0  0  0  0  0  0  0  0
    7.0769  -16.2788   22.9186 O   0  0  0  0  0  0  0  0  0  0  0  0
   10.5959  -18.6496   23.0322 C   0  0  0  0  0  0  0  0  0  0  0  0
    9.5414  -17.6016   23.2614 C   0  0  2  0  0  0  0  0  0  0  0  0
    9.1610  -16.8399   22.1096 N   0  0  0  0  0  0  0  0  0  0  0  0
    9.7808  -16.7733   24.4654 C   0  0  0  0  0  0  0  0  0  0  0  0
   10.5017  -15.7680   24.3541 O   0  0  0  0  0  0  0  0  0  0  0  0
    9.2180  -17.0827   25.7523 N   0  0  0  0  0  0  0  0  0  0  0  0
    9.5173  -16.3035   26.9119 C   0  0  1  0  0  0  0  0  0  0  0  0
    8.3448  -15.7387   27.6076 C   0  0  0  0  0  0  0  0  0  0  0  0
    7.9073  -14.4800   26.9798 C   0  0  0  0  0  0  0  0  0  0  0  0
    6.8382  -14.5249   26.1084 C   0  0  0  0  0  0  0  0  0  0  0  0
    6.3370  -13.4080   25.5106 C   0  0  0  0  0  0  0  0  0  0  0  0
    6.9024  -12.1695   25.7661 C   0  0  0  0  0  0  0  0  0  0  0  0
    7.9891  -12.0852   26.6421 C   0  0  0  0  0  0  0  0  0  0  0  0
    8.4664  -13.2421   27.2296 C   0  0  0  0  0  0  0  0  0  0  0  0
   10.4162  -17.1474   27.7740 C   0  0  0  0  0  0  0  0  0  0  0  0
   10.9029  -16.6634   28.8123 O   0  0  0  0  0  0  0  0  0  0  0  0
   10.7498  -18.4699   27.4944 O   0  0  0  0  0  0  0  0  0  0  0  0
  2  1  1  6
  2  3  1  0
  4  2  1  0
  4  5  1  0
  5  7  1  0
  5  6  1  1
  7  8  2  0
 10  9  1  6
 11 10  1  0
 11  7  1  0
 12 14  1  0
 12 10  1  0
 13 12  2  0
 15 14  1  0
 15 16  1  1
 17 16  1  0
 18 17  2  0
 19 18  1  0
 20 19  2  0
 20 21  1  0
 21 22  2  0
 22 17  1  0
 23 25  1  0
 23 15  1  0
 24 23  2  0
M  END
$$$$
