LAF.pdb
     RDKit          3D

 25 25  0  0  1  0  0  0  0  0999 V2000
    9.5559  -13.4586   19.1324 C   0  0  0  0  0  0  0  0  0  0  0  0
    8.1049  -13.1016   19.4650 C   0  0  2  0  0  0  0  0  0  0  0  0
    7.9566  -11.6345   19.7651 C   0  0  0  0  0  0  0  0  0  0  0  0
    7.7273  -13.9170   20.6681 C   0  0  0  0  0  0  0  0  0  0  0  0
    7.7504  -15.3925   20.2067 C   0  0  2  0  0  0  0  0  0  0  0  0
    6.6252  -15.5321   19.3377 N   0  0  0  0  0  0  0  0  0  0  0  0
    7.6751  -16.1913   21.4491 C   0  0  0  0  0  0  0  0  0  0  0  0
    6.6204  -16.2505   22.0923 O   0  0  0  0  0  0  0  0  0  0  0  0
    9.5847  -19.0130   22.9007 C   0  0  0  0  0  0  0  0  0  0  0  0
    8.8352  -17.7158   23.0360 C   0  0  2  0  0  0  0  0  0  0  0  0
    8.8276  -16.8778   21.8744 N   0  0  0  0  0  0  0  0  0  0  0  0
    9.1349  -16.9862   24.2895 C   0  0  0  0  0  0  0  0  0  0  0  0
   10.0277  -16.1229   24.2687 O   0  0  0  0  0  0  0  0  0  0  0  0
    8.4404  -17.2345   25.5243 N   0  0  0  0  0  0  0  0  0  0  0  0
    8.7441  -16.5100   26.7176 C   0  0  1  0  0  0  0  0  0  0  0  0
    7.5842  -15.8911   27.3879 C   0  0  0  0  0  0  0  0  0  0  0  0
    7.2033  -14.6266   26.7352 C   0  0  0  0  0  0  0  0  0  0  0  0
    8.0344  -13.5365   26.8939 C   0  0  0  0  0  0  0  0  0  0  0  0
    7.7866  -12.3373   26.2967 C   0  0  0  0  0  0  0  0  0  0  0  0
    6.6663  -12.1768   25.4979 C   0  0  0  0  0  0  0  0  0  0  0  0
    5.7996  -13.2589   25.3158 C   0  0  0  0  0  0  0  0  0  0  0  0
    6.0880  -14.4594   25.9379 C   0  0  0  0  0  0  0  0  0  0  0  0
    9.5544  -17.4346   27.5849 C   0  0  0  0  0  0  0  0  0  0  0  0
    9.5566  -18.6562   27.3461 O   0  0  0  0  0  0  0  0  0  0  0  0
   10.3303  -17.0149   28.6621 O   0  0  0  0  0  0  0  0  0  0  0  0
  2  1  1  1
  2  3  1  0
  4  2  1  0
  4  5  1  0
  5  7  1  0
  5  6  1  6
  7  8  2  0
 10  9  1  6
 11 10  1  0
 11  7  1  0
 12 14  1  0
 12 10  1  0
 13 12  2  0
 15 14  1  0
 15 16  1  1
 17 16  1  0
 18 17  2  0
 19 18  1  0
 20 19  2  0
 20 21  1  0
 21 22  2  0
 22 17  1  0
 23 25  1  0
 23 15  1  0
 24 23  2  0
M  END
$$$$
