LAF.pdb
     RDKit          3D

 25 25  0  0  1  0  0  0  0  0999 V2000
    9.5801  -13.3721   19.2802 C   0  0  0  0  0  0  0  0  0  0  0  0
    8.0672  -13.2060   19.4451 C   0  0  2  0  0  0  0  0  0  0  0  0
    7.6900  -11.7590   19.6138 C   0  0  0  0  0  0  0  0  0  0  0  0
    7.6805  -13.9878   20.6675 C   0  0  0  0  0  0  0  0  0  0  0  0
    7.9900  -15.4673   20.3420 C   0  0  2  0  0  0  0  0  0  0  0  0
    6.9569  -15.8788   19.4453 N   0  0  0  0  0  0  0  0  0  0  0  0
    7.9891  -16.1626   21.6474 C   0  0  0  0  0  0  0  0  0  0  0  0
    6.9575  -16.2159   22.3275 O   0  0  0  0  0  0  0  0  0  0  0  0
    9.9714  -18.8618   23.1583 C   0  0  0  0  0  0  0  0  0  0  0  0
    9.2526  -17.5463   23.2836 C   0  0  2  0  0  0  0  0  0  0  0  0
    9.1850  -16.7584   22.0894 N   0  0  0  0  0  0  0  0  0  0  0  0
    9.6422  -16.7700   24.4830 C   0  0  0  0  0  0  0  0  0  0  0  0
   10.5995  -15.9840   24.3897 O   0  0  0  0  0  0  0  0  0  0  0  0
    8.9635  -16.8877   25.7456 N   0  0  0  0  0  0  0  0  0  0  0  0
    9.4100  -16.1879   26.9084 C   0  0  1  0  0  0  0  0  0  0  0  0
    8.3482  -15.5163   27.6825 C   0  0  0  0  0  0  0  0  0  0  0  0
    7.9041  -14.2795   27.0169 C   0  0  0  0  0  0  0  0  0  0  0  0
    6.6929  -14.2953   26.3558 C   0  0  0  0  0  0  0  0  0  0  0  0
    6.1806  -13.1904   25.7451 C   0  0  0  0  0  0  0  0  0  0  0  0
    6.8799  -11.9949   25.7708 C   0  0  0  0  0  0  0  0  0  0  0  0
    8.1122  -11.9413   26.4294 C   0  0  0  0  0  0  0  0  0  0  0  0
    8.5960  -13.0843   27.0381 C   0  0  0  0  0  0  0  0  0  0  0  0
   10.2473  -17.1582   27.6964 C   0  0  0  0  0  0  0  0  0  0  0  0
   10.0824  -18.3816   27.5381 O   0  0  0  0  0  0  0  0  0  0  0  0
   11.2266  -16.7808   28.6115 O   0  0  0  0  0  0  0  0  0  0  0  0
  2  1  1  1
  2  3  1  0
  4  2  1  0
  4  5  1  0
  5  7  1  0
  5  6  1  6
  7  8  2  0
 10  9  1  6
 11 10  1  0
 11  7  1  0
 12 14  1  0
 12 10  1  0
 13 12  2  0
 15 14  1  0
 15 16  1  1
 17 16  1  0
 18 17  2  0
 19 18  1  0
 20 19  2  0
 20 21  1  0
 21 22  2  0
 22 17  1  0
 23 25  1  0
 23 15  1  0
 24 23  2  0
M  END
$$$$
