FGI.pdb
     RDKit          3D

 24 24  0  0  1  0  0  0  0  0999 V2000
    7.6899  -16.0869   20.0187 N   0  0  0  0  0  0  0  0  0  0  0  0
    7.9805  -15.6457   21.3503 C   0  0  1  0  0  0  0  0  0  0  0  0
    6.7230  -15.0697   21.9539 C   0  0  0  0  0  0  0  0  0  0  0  0
    7.1202  -14.2688   23.1407 C   0  0  0  0  0  0  0  0  0  0  0  0
    7.7322  -13.0504   23.0229 C   0  0  0  0  0  0  0  0  0  0  0  0
    8.0842  -12.3399   24.1664 C   0  0  0  0  0  0  0  0  0  0  0  0
    7.8383  -12.8196   25.4308 C   0  0  0  0  0  0  0  0  0  0  0  0
    7.2226  -14.0454   25.5472 C   0  0  0  0  0  0  0  0  0  0  0  0
    6.8675  -14.7620   24.4039 C   0  0  0  0  0  0  0  0  0  0  0  0
    8.5005  -16.7761   22.1834 C   0  0  0  0  0  0  0  0  0  0  0  0
    8.2066  -17.9544   21.8446 O   0  0  0  0  0  0  0  0  0  0  0  0
    9.3044  -16.5535   23.3284 N   0  0  0  0  0  0  0  0  0  0  0  0
   10.5430  -17.2588   23.5110 C   0  0  0  0  0  0  0  0  0  0  0  0
   11.1768  -16.9496   24.8179 C   0  0  0  0  0  0  0  0  0  0  0  0
   12.4023  -17.1603   25.0019 O   0  0  0  0  0  0  0  0  0  0  0  0
    8.4788  -14.1918   29.2772 C   0  0  0  0  0  0  0  0  0  0  0  0
    9.0350  -15.4385   28.5873 C   0  0  0  0  0  0  0  0  0  0  0  0
   10.3300  -15.1144   27.9123 C   0  0  2  0  0  0  0  0  0  0  0  0
   10.1202  -13.9893   26.9075 C   0  0  0  0  0  0  0  0  0  0  0  0
   10.9737  -16.3053   27.2485 C   0  0  2  0  0  0  0  0  0  0  0  0
   10.4212  -16.4102   25.8917 N   0  0  0  0  0  0  0  0  0  0  0  0
   10.7819  -17.5780   27.9647 C   0  0  0  0  0  0  0  0  0  0  0  0
   11.4908  -17.9548   29.0762 O   0  0  0  0  0  0  0  0  0  0  0  0
    9.9044  -18.4083   27.5464 O   0  0  0  0  0  0  0  0  0  0  0  0
  2 10  1  0
  2  1  1  6
  3  2  1  0
  4  3  1  0
  5  4  2  0
  6  5  1  0
  7  6  2  0
  7  8  1  0
  8  9  2  0
  9  4  1  0
 10 12  1  0
 11 10  2  0
 12 13  1  0
 14 21  1  0
 14 13  1  0
 15 14  2  0
 17 16  1  0
 18 19  1  6
 18 17  1  0
 20 21  1  6
 20 18  1  0
 22 23  1  0
 22 20  1  0
 24 22  2  0
M  END
$$$$
