FGI.pdb
     RDKit          3D

 24 24  0  0  1  0  0  0  0  0999 V2000
    6.4921  -16.6500   23.7698 N   0  0  0  0  0  0  0  0  0  0  0  0
    6.9547  -15.8859   22.6499 C   0  0  1  0  0  0  0  0  0  0  0  0
    6.3250  -14.5156   22.7063 C   0  0  0  0  0  0  0  0  0  0  0  0
    6.5522  -13.9726   24.0707 C   0  0  0  0  0  0  0  0  0  0  0  0
    7.6383  -13.1960   24.3717 C   0  0  0  0  0  0  0  0  0  0  0  0
    7.8049  -12.7119   25.6656 C   0  0  0  0  0  0  0  0  0  0  0  0
    6.9085  -12.9862   26.6707 C   0  0  0  0  0  0  0  0  0  0  0  0
    5.8167  -13.7675   26.3660 C   0  0  0  0  0  0  0  0  0  0  0  0
    5.6448  -14.2555   25.0702 C   0  0  0  0  0  0  0  0  0  0  0  0
    8.4488  -15.7850   22.6558 C   0  0  0  0  0  0  0  0  0  0  0  0
    9.0105  -15.1594   21.7163 O   0  0  0  0  0  0  0  0  0  0  0  0
    9.2341  -16.3693   23.6799 N   0  0  0  0  0  0  0  0  0  0  0  0
   10.6660  -16.4249   23.5734 C   0  0  0  0  0  0  0  0  0  0  0  0
   11.3284  -16.3998   24.9023 C   0  0  0  0  0  0  0  0  0  0  0  0
   12.5591  -16.6320   25.0095 O   0  0  0  0  0  0  0  0  0  0  0  0
   10.1484  -12.6784   28.4435 C   0  0  0  0  0  0  0  0  0  0  0  0
   10.8068  -13.7587   27.5838 C   0  0  0  0  0  0  0  0  0  0  0  0
   10.6855  -15.0902   28.2546 C   0  0  2  0  0  0  0  0  0  0  0  0
   11.3916  -15.0542   29.6034 C   0  0  0  0  0  0  0  0  0  0  0  0
   11.2012  -16.2322   27.4162 C   0  0  2  0  0  0  0  0  0  0  0  0
   10.5951  -16.1143   26.0837 N   0  0  0  0  0  0  0  0  0  0  0  0
   10.9260  -17.5680   27.9727 C   0  0  0  0  0  0  0  0  0  0  0  0
   11.8424  -18.3254   28.6558 O   0  0  0  0  0  0  0  0  0  0  0  0
    9.7654  -18.0832   27.8249 O   0  0  0  0  0  0  0  0  0  0  0  0
  2 10  1  0
  2  1  1  1
  3  2  1  0
  4  3  1  0
  5  4  2  0
  6  5  1  0
  7  6  2  0
  7  8  1  0
  8  9  2  0
  9  4  1  0
 10 12  1  0
 11 10  2  0
 12 13  1  0
 14 21  1  0
 14 13  1  0
 15 14  2  0
 17 16  1  0
 18 19  1  1
 18 17  1  0
 20 21  1  6
 20 18  1  0
 22 23  1  0
 22 20  1  0
 24 22  2  0
M  END
$$$$
