FGI.pdb
     RDKit          3D

 24 24  0  0  1  0  0  0  0  0999 V2000
    9.1322  -19.0950   28.6738 N   0  0  0  0  0  0  0  0  0  0  0  0
    8.6855  -18.3108   27.5613 C   0  0  1  0  0  0  0  0  0  0  0  0
    9.8228  -17.4316   27.1020 C   0  0  0  0  0  0  0  0  0  0  0  0
    9.8039  -16.2010   27.9346 C   0  0  0  0  0  0  0  0  0  0  0  0
   10.6814  -16.0093   28.9673 C   0  0  0  0  0  0  0  0  0  0  0  0
   10.6220  -14.8384   29.7168 C   0  0  0  0  0  0  0  0  0  0  0  0
    9.7027  -13.8498   29.4584 C   0  0  0  0  0  0  0  0  0  0  0  0
    8.8210  -14.0445   28.4192 C   0  0  0  0  0  0  0  0  0  0  0  0
    8.8762  -15.2166   27.6644 C   0  0  0  0  0  0  0  0  0  0  0  0
    8.2107  -19.1911   26.4468 C   0  0  0  0  0  0  0  0  0  0  0  0
    8.8922  -20.2116   26.1578 O   0  0  0  0  0  0  0  0  0  0  0  0
    7.0285  -18.9060   25.7200 N   0  0  0  0  0  0  0  0  0  0  0  0
    6.5572  -17.5564   25.5742 C   0  0  0  0  0  0  0  0  0  0  0  0
    6.7468  -17.0424   24.1939 C   0  0  0  0  0  0  0  0  0  0  0  0
    5.7954  -17.0456   23.3723 O   0  0  0  0  0  0  0  0  0  0  0  0
    7.2665  -12.7009   25.7143 C   0  0  0  0  0  0  0  0  0  0  0  0
    8.0196  -13.8578   25.0558 C   0  0  0  0  0  0  0  0  0  0  0  0
    7.3696  -14.2178   23.7575 C   0  0  2  0  0  0  0  0  0  0  0  0
    5.9249  -14.6330   24.0019 C   0  0  0  0  0  0  0  0  0  0  0  0
    8.1076  -15.2889   22.9950 C   0  0  2  0  0  0  0  0  0  0  0  0
    8.0012  -16.5354   23.7644 N   0  0  0  0  0  0  0  0  0  0  0  0
    9.5248  -14.9831   22.7347 C   0  0  0  0  0  0  0  0  0  0  0  0
    9.9896  -14.3821   21.5933 O   0  0  0  0  0  0  0  0  0  0  0  0
   10.4043  -15.2866   23.6114 O   0  0  0  0  0  0  0  0  0  0  0  0
  2 10  1  0
  2  1  1  1
  3  2  1  0
  4  3  1  0
  5  4  2  0
  6  5  1  0
  7  6  2  0
  7  8  1  0
  8  9  2  0
  9  4  1  0
 10 12  1  0
 11 10  2  0
 12 13  1  0
 14 21  1  0
 14 13  1  0
 15 14  2  0
 17 16  1  0
 18 19  1  1
 18 17  1  0
 20 21  1  1
 20 18  1  0
 22 23  1  0
 22 20  1  0
 24 22  2  0
M  END
$$$$
