FGI.pdb
     RDKit          3D

 24 24  0  0  1  0  0  0  0  0999 V2000
    8.4901  -16.3215   21.0339 N   0  0  0  0  0  0  0  0  0  0  0  0
    7.8971  -15.3920   21.9486 C   0  0  1  0  0  0  0  0  0  0  0  0
    6.6011  -14.8929   21.3583 C   0  0  0  0  0  0  0  0  0  0  0  0
    6.9355  -14.0927   20.1517 C   0  0  0  0  0  0  0  0  0  0  0  0
    6.7189  -14.5635   18.8850 C   0  0  0  0  0  0  0  0  0  0  0  0
    7.0498  -13.7742   17.7879 C   0  0  0  0  0  0  0  0  0  0  0  0
    7.5945  -12.5199   17.9263 C   0  0  0  0  0  0  0  0  0  0  0  0
    7.8116  -12.0480   19.2013 C   0  0  0  0  0  0  0  0  0  0  0  0
    7.4816  -12.8353   20.3049 C   0  0  0  0  0  0  0  0  0  0  0  0
    7.6620  -16.0336   23.2810 C   0  0  0  0  0  0  0  0  0  0  0  0
    7.1135  -15.3494   24.1868 O   0  0  0  0  0  0  0  0  0  0  0  0
    8.0374  -17.3744   23.5424 N   0  0  0  0  0  0  0  0  0  0  0  0
    8.0925  -17.8784   24.8870 C   0  0  0  0  0  0  0  0  0  0  0  0
    9.2669  -17.3589   25.6328 C   0  0  0  0  0  0  0  0  0  0  0  0
   10.3876  -17.2560   25.0729 O   0  0  0  0  0  0  0  0  0  0  0  0
    8.6738  -12.8640   27.8735 C   0  0  0  0  0  0  0  0  0  0  0  0
    9.2176  -14.1352   27.2195 C   0  0  0  0  0  0  0  0  0  0  0  0
    9.8106  -15.0319   28.2597 C   0  0  2  0  0  0  0  0  0  0  0  0
   10.9456  -14.3113   28.9751 C   0  0  0  0  0  0  0  0  0  0  0  0
   10.2839  -16.3541   27.7112 C   0  0  2  0  0  0  0  0  0  0  0  0
    9.1586  -16.9655   26.9924 N   0  0  0  0  0  0  0  0  0  0  0  0
   10.7914  -17.2886   28.7304 C   0  0  0  0  0  0  0  0  0  0  0  0
   10.0442  -18.2813   29.3103 O   0  0  0  0  0  0  0  0  0  0  0  0
   12.0045  -17.1930   29.1221 O   0  0  0  0  0  0  0  0  0  0  0  0
  2 10  1  0
  2  1  1  6
  3  2  1  0
  4  3  1  0
  5  4  2  0
  6  5  1  0
  7  6  2  0
  7  8  1  0
  8  9  2  0
  9  4  1  0
 10 12  1  0
 11 10  2  0
 12 13  1  0
 14 21  1  0
 14 13  1  0
 15 14  2  0
 17 16  1  0
 18 19  1  6
 18 17  1  0
 20 21  1  1
 20 18  1  0
 22 23  1  0
 22 20  1  0
 24 22  2  0
M  END
$$$$
