FGI.pdb
     RDKit          3D

 24 24  0  0  1  0  0  0  0  0999 V2000
    7.4281  -18.0011   19.5439 N   0  0  0  0  0  0  0  0  0  0  0  0
    7.7372  -16.8981   20.4041 C   0  0  1  0  0  0  0  0  0  0  0  0
    6.5440  -15.9755   20.4550 C   0  0  0  0  0  0  0  0  0  0  0  0
    6.9808  -14.7112   21.1019 C   0  0  0  0  0  0  0  0  0  0  0  0
    7.6386  -13.7307   20.4098 C   0  0  0  0  0  0  0  0  0  0  0  0
    8.0264  -12.5647   21.0626 C   0  0  0  0  0  0  0  0  0  0  0  0
    7.7716  -12.3535   22.3967 C   0  0  0  0  0  0  0  0  0  0  0  0
    7.1098  -13.3409   23.0912 C   0  0  0  0  0  0  0  0  0  0  0  0
    6.7187  -14.5120   22.4414 C   0  0  0  0  0  0  0  0  0  0  0  0
    8.0967  -17.3783   21.7762 C   0  0  0  0  0  0  0  0  0  0  0  0
    7.2764  -18.1157   22.3866 O   0  0  0  0  0  0  0  0  0  0  0  0
    9.3217  -17.0268   22.3948 N   0  0  0  0  0  0  0  0  0  0  0  0
    9.6761  -17.5509   23.6849 C   0  0  0  0  0  0  0  0  0  0  0  0
   10.2352  -16.5063   24.5802 C   0  0  0  0  0  0  0  0  0  0  0  0
   11.4781  -16.3543   24.6899 O   0  0  0  0  0  0  0  0  0  0  0  0
    7.1401  -12.1889   25.9594 C   0  0  0  0  0  0  0  0  0  0  0  0
    8.2940  -13.1064   25.5520 C   0  0  0  0  0  0  0  0  0  0  0  0
    8.8497  -13.7952   26.7580 C   0  0  2  0  0  0  0  0  0  0  0  0
    9.3946  -12.7628   27.7360 C   0  0  0  0  0  0  0  0  0  0  0  0
    9.9036  -14.8219   26.4286 C   0  0  2  0  0  0  0  0  0  0  0  0
    9.3868  -15.6537   25.3341 N   0  0  0  0  0  0  0  0  0  0  0  0
   10.2950  -15.6768   27.5625 C   0  0  0  0  0  0  0  0  0  0  0  0
    9.5691  -16.7513   28.0081 O   0  0  0  0  0  0  0  0  0  0  0  0
   11.3776  -15.4257   28.1943 O   0  0  0  0  0  0  0  0  0  0  0  0
  2 10  1  0
  2  1  1  6
  3  2  1  0
  4  3  1  0
  5  4  2  0
  6  5  1  0
  7  6  2  0
  7  8  1  0
  8  9  2  0
  9  4  1  0
 10 12  1  0
 11 10  2  0
 12 13  1  0
 14 21  1  0
 14 13  1  0
 15 14  2  0
 17 16  1  0
 18 19  1  1
 18 17  1  0
 20 21  1  6
 20 18  1  0
 22 23  1  0
 22 20  1  0
 24 22  2  0
M  END
$$$$
