FGI.pdb
     RDKit          3D

 24 24  0  0  1  0  0  0  0  0999 V2000
    4.1560  -17.0369   22.6237 N   0  0  0  0  0  0  0  0  0  0  0  0
    4.9806  -18.1555   22.9715 C   0  0  1  0  0  0  0  0  0  0  0  0
    4.6002  -19.3263   22.0987 C   0  0  0  0  0  0  0  0  0  0  0  0
    3.1434  -19.5619   22.2728 C   0  0  0  0  0  0  0  0  0  0  0  0
    2.6177  -20.0228   23.4493 C   0  0  0  0  0  0  0  0  0  0  0  0
    1.2457  -20.2269   23.5607 C   0  0  0  0  0  0  0  0  0  0  0  0
    0.3823  -19.9805   22.5202 C   0  0  0  0  0  0  0  0  0  0  0  0
    0.9130  -19.5169   21.3375 C   0  0  0  0  0  0  0  0  0  0  0  0
    2.2879  -19.3105   21.2204 C   0  0  0  0  0  0  0  0  0  0  0  0
    6.4305  -17.8188   22.8068 C   0  0  0  0  0  0  0  0  0  0  0  0
    7.2867  -18.6908   23.1166 O   0  0  0  0  0  0  0  0  0  0  0  0
    6.8551  -16.5591   22.3172 N   0  0  0  0  0  0  0  0  0  0  0  0
    8.2516  -16.2586   22.1612 C   0  0  0  0  0  0  0  0  0  0  0  0
    8.8736  -15.8082   23.4323 C   0  0  0  0  0  0  0  0  0  0  0  0
   10.1214  -15.8379   23.5812 O   0  0  0  0  0  0  0  0  0  0  0  0
    5.9799  -12.4692   27.1379 C   0  0  0  0  0  0  0  0  0  0  0  0
    6.5294  -13.7203   26.4507 C   0  0  0  0  0  0  0  0  0  0  0  0
    7.9580  -13.5048   26.0628 C   0  0  2  0  0  0  0  0  0  0  0  0
    8.0341  -12.5246   24.8997 C   0  0  0  0  0  0  0  0  0  0  0  0
    8.6870  -14.7816   25.7291 C   0  0  2  0  0  0  0  0  0  0  0  0
    8.0814  -15.3336   24.5103 N   0  0  0  0  0  0  0  0  0  0  0  0
    8.6634  -15.7930   26.7997 C   0  0  0  0  0  0  0  0  0  0  0  0
    9.3830  -15.7047   27.9635 O   0  0  0  0  0  0  0  0  0  0  0  0
    7.9340  -16.8341   26.6645 O   0  0  0  0  0  0  0  0  0  0  0  0
  2 10  1  0
  2  1  1  6
  3  2  1  0
  4  3  1  0
  5  4  2  0
  6  5  1  0
  7  6  2  0
  7  8  1  0
  8  9  2  0
  9  4  1  0
 10 12  1  0
 11 10  2  0
 12 13  1  0
 14 21  1  0
 14 13  1  0
 15 14  2  0
 17 16  1  0
 18 19  1  6
 18 17  1  0
 20 21  1  6
 20 18  1  0
 22 23  1  0
 22 20  1  0
 24 22  2  0
M  END
$$$$
