FGI.pdb
     RDKit          3D

 24 24  0  0  1  0  0  0  0  0999 V2000
    6.5705  -17.5296   24.4349 N   0  0  0  0  0  0  0  0  0  0  0  0
    6.8576  -17.1582   23.0815 C   0  0  1  0  0  0  0  0  0  0  0  0
    6.0234  -15.9527   22.7237 C   0  0  0  0  0  0  0  0  0  0  0  0
    6.5088  -14.8114   23.5420 C   0  0  0  0  0  0  0  0  0  0  0  0
    6.1044  -14.6214   24.8357 C   0  0  0  0  0  0  0  0  0  0  0  0
    6.5888  -13.5360   25.5593 C   0  0  0  0  0  0  0  0  0  0  0  0
    7.4717  -12.6317   25.0192 C   0  0  0  0  0  0  0  0  0  0  0  0
    7.8773  -12.8245   23.7178 C   0  0  0  0  0  0  0  0  0  0  0  0
    7.3947  -13.9110   22.9877 C   0  0  0  0  0  0  0  0  0  0  0  0
    8.3160  -16.8658   22.9083 C   0  0  0  0  0  0  0  0  0  0  0  0
    8.7636  -16.7238   21.7383 O   0  0  0  0  0  0  0  0  0  0  0  0
    9.1918  -16.7468   24.0155 N   0  0  0  0  0  0  0  0  0  0  0  0
   10.5928  -16.4897   23.8260 C   0  0  0  0  0  0  0  0  0  0  0  0
   11.3199  -16.3684   25.1152 C   0  0  0  0  0  0  0  0  0  0  0  0
   12.5523  -16.1216   25.1354 O   0  0  0  0  0  0  0  0  0  0  0  0
    9.0815  -13.4688   28.7365 C   0  0  0  0  0  0  0  0  0  0  0  0
   10.0124  -14.2580   27.8144 C   0  0  0  0  0  0  0  0  0  0  0  0
   10.5069  -15.4838   28.5148 C   0  0  2  0  0  0  0  0  0  0  0  0
   11.2748  -15.0869   29.7685 C   0  0  0  0  0  0  0  0  0  0  0  0
   11.3481  -16.3762   27.6377 C   0  0  2  0  0  0  0  0  0  0  0  0
   10.6480  -16.5268   26.3555 N   0  0  0  0  0  0  0  0  0  0  0  0
   11.6285  -17.7034   28.2117 C   0  0  0  0  0  0  0  0  0  0  0  0
   12.7885  -18.0355   28.8629 O   0  0  0  0  0  0  0  0  0  0  0  0
   10.7523  -18.6289   28.1117 O   0  0  0  0  0  0  0  0  0  0  0  0
  2 10  1  0
  2  1  1  1
  3  2  1  0
  4  3  1  0
  5  4  2  0
  6  5  1  0
  7  6  2  0
  7  8  1  0
  8  9  2  0
  9  4  1  0
 10 12  1  0
 11 10  2  0
 12 13  1  0
 14 21  1  0
 14 13  1  0
 15 14  2  0
 17 16  1  0
 18 19  1  1
 18 17  1  0
 20 21  1  6
 20 18  1  0
 22 23  1  0
 22 20  1  0
 24 22  2  0
M  END
$$$$
