HIS.pdb
     RDKit          3D

 25 25  0  0  1  0  0  0  0  0999 V2000
   10.1313  -17.5445   16.1679 N   0  0  0  0  0  0  0  0  0  0  0  0
    9.2291  -17.7879   17.2504 C   0  0  1  0  0  0  0  0  0  0  0  0
    9.1048  -19.2545   17.5045 C   0  0  0  0  0  0  0  0  0  0  0  0
    8.4887  -19.8951   16.3172 C   0  0  0  0  0  0  0  0  0  0  0  0
    7.3425  -19.5807   15.6195 C   0  0  0  0  0  0  0  0  0  0  0  0
    7.1499  -20.4292   14.5904 N   0  0  0  0  0  0  0  0  0  0  0  0
    8.1798  -21.2862   14.6362 C   0  0  0  0  0  0  0  0  0  0  0  0
    8.9899  -20.9828   15.6610 N   0  0  0  0  0  0  0  0  0  0  0  0
    9.5328  -17.0041   18.4564 C   0  0  0  0  0  0  0  0  0  0  0  0
   10.6935  -17.0089   18.9404 O   0  0  0  0  0  0  0  0  0  0  0  0
    6.9572  -12.1498   19.7423 C   0  0  0  0  0  0  0  0  0  0  0  0
    7.9743  -13.2174   19.5641 C   0  0  0  0  0  0  0  0  0  0  0  0
    8.0653  -14.2510   20.6189 C   0  0  2  0  0  0  0  0  0  0  0  0
    8.5652  -13.6699   21.9461 C   0  0  0  0  0  0  0  0  0  0  0  0
    8.8910  -15.4541   20.3437 C   0  0  2  0  0  0  0  0  0  0  0  0
    8.5646  -16.1950   19.1592 N   0  0  0  0  0  0  0  0  0  0  0  0
    9.0281  -16.3443   21.5367 C   0  0  0  0  0  0  0  0  0  0  0  0
    8.0902  -17.1132   21.8998 O   0  0  0  0  0  0  0  0  0  0  0  0
   12.6043  -17.5908   22.6582 O   0  0  0  0  0  0  0  0  0  0  0  0
   11.4954  -18.2304   23.1833 C   0  0  0  0  0  0  0  0  0  0  0  0
   10.3461  -17.2917   23.4598 C   0  0  2  0  0  0  0  0  0  0  0  0
   10.2112  -16.3735   22.3203 N   0  0  0  0  0  0  0  0  0  0  0  0
   10.7325  -16.4544   24.6256 C   0  0  0  0  0  0  0  0  0  0  0  0
   10.9235  -16.9386   25.8988 O   0  0  0  0  0  0  0  0  0  0  0  0
   10.8930  -15.2233   24.4241 O   0  0  0  0  0  0  0  0  0  0  0  0
  2  9  1  0
  2  1  1  6
  3  2  1  0
  4  3  1  0
  5  4  2  0
  6  5  1  0
  7  6  1  0
  7  8  2  0
  8  4  1  0
  9 10  2  0
 11 12  1  0
 12 13  1  0
 13 15  1  0
 13 14  1  1
 15 16  1  6
 16  9  1  0
 17 22  1  0
 17 15  1  0
 18 17  2  0
 20 19  1  0
 21 22  1  0
 21 20  1  6
 23 21  1  0
 24 23  1  0
 25 23  2  0
M  END
$$$$
