HIS.pdb
     RDKit          3D

 25 25  0  0  1  0  0  0  0  0999 V2000
    9.8429  -14.6800   20.8361 N   0  0  0  0  0  0  0  0  0  0  0  0
    8.6068  -14.4305   21.5105 C   0  0  1  0  0  0  0  0  0  0  0  0
    7.4729  -15.0574   20.7677 C   0  0  0  0  0  0  0  0  0  0  0  0
    7.4116  -14.4726   19.4060 C   0  0  0  0  0  0  0  0  0  0  0  0
    7.5332  -13.1667   18.9823 C   0  0  0  0  0  0  0  0  0  0  0  0
    7.4168  -13.0760   17.6429 N   0  0  0  0  0  0  0  0  0  0  0  0
    7.2203  -14.3313   17.2152 C   0  0  0  0  0  0  0  0  0  0  0  0
    7.2142  -15.1791   18.2543 N   0  0  0  0  0  0  0  0  0  0  0  0
    8.6372  -14.7738   22.9397 C   0  0  0  0  0  0  0  0  0  0  0  0
    9.5285  -15.5384   23.3896 O   0  0  0  0  0  0  0  0  0  0  0  0
    5.8311  -11.4199   26.4777 C   0  0  0  0  0  0  0  0  0  0  0  0
    6.9584  -12.1916   25.8948 C   0  0  0  0  0  0  0  0  0  0  0  0
    7.0292  -13.6348   26.2130 C   0  0  2  0  0  0  0  0  0  0  0  0
    7.5369  -13.8812   27.6380 C   0  0  0  0  0  0  0  0  0  0  0  0
    7.8341  -14.5050   25.3185 C   0  0  2  0  0  0  0  0  0  0  0  0
    7.6857  -14.2828   23.9090 N   0  0  0  0  0  0  0  0  0  0  0  0
    7.7199  -15.9538   25.6684 C   0  0  0  0  0  0  0  0  0  0  0  0
    6.6182  -16.5712   25.5794 O   0  0  0  0  0  0  0  0  0  0  0  0
   10.6596  -18.5011   25.2090 O   0  0  0  0  0  0  0  0  0  0  0  0
    9.4115  -18.9879   25.5548 C   0  0  0  0  0  0  0  0  0  0  0  0
    8.6853  -18.1072   26.5426 C   0  0  2  0  0  0  0  0  0  0  0  0
    8.8353  -16.7087   26.1163 N   0  0  0  0  0  0  0  0  0  0  0  0
    9.3964  -18.2247   27.8426 C   0  0  0  0  0  0  0  0  0  0  0  0
    9.4634  -19.3786   28.5882 O   0  0  0  0  0  0  0  0  0  0  0  0
    9.9714  -17.1956   28.2810 O   0  0  0  0  0  0  0  0  0  0  0  0
  2  9  1  0
  2  1  1  6
  3  2  1  0
  4  3  1  0
  5  4  2  0
  6  5  1  0
  7  6  1  0
  7  8  2  0
  8  4  1  0
  9 10  2  0
 11 12  1  0
 12 13  1  0
 13 15  1  0
 13 14  1  1
 15 16  1  6
 16  9  1  0
 17 22  1  0
 17 15  1  0
 18 17  2  0
 20 19  1  0
 21 22  1  0
 21 20  1  6
 23 21  1  0
 24 23  1  0
 25 23  2  0
M  END
$$$$
