HIS.pdb
     RDKit          3D

 25 25  0  0  1  0  0  0  0  0999 V2000
    9.8939  -14.7635   20.7485 N   0  0  0  0  0  0  0  0  0  0  0  0
    8.6991  -14.4215   21.4559 C   0  0  1  0  0  0  0  0  0  0  0  0
    7.5015  -14.9647   20.7478 C   0  0  0  0  0  0  0  0  0  0  0  0
    7.5120  -14.4772   19.3470 C   0  0  0  0  0  0  0  0  0  0  0  0
    7.4050  -13.2005   18.8388 C   0  0  0  0  0  0  0  0  0  0  0  0
    7.4674  -13.2049   17.4927 N   0  0  0  0  0  0  0  0  0  0  0  0
    7.6147  -14.4914   17.1458 C   0  0  0  0  0  0  0  0  0  0  0  0
    7.6435  -15.2660   18.2402 N   0  0  0  0  0  0  0  0  0  0  0  0
    8.7441  -14.7625   22.8851 C   0  0  0  0  0  0  0  0  0  0  0  0
    9.6640  -15.4930   23.3343 O   0  0  0  0  0  0  0  0  0  0  0  0
    5.7747  -11.4174   26.3160 C   0  0  0  0  0  0  0  0  0  0  0  0
    6.9125  -12.1422   25.6947 C   0  0  0  0  0  0  0  0  0  0  0  0
    7.1475  -13.5368   26.1295 C   0  0  2  0  0  0  0  0  0  0  0  0
    7.7414  -13.6025   27.5409 C   0  0  0  0  0  0  0  0  0  0  0  0
    7.9979  -14.3989   25.2699 C   0  0  2  0  0  0  0  0  0  0  0  0
    7.7763  -14.3066   23.8554 N   0  0  0  0  0  0  0  0  0  0  0  0
    8.0358  -15.8188   25.7357 C   0  0  0  0  0  0  0  0  0  0  0  0
    7.0010  -16.5480   25.7203 O   0  0  0  0  0  0  0  0  0  0  0  0
   11.4661  -17.8596   25.6099 O   0  0  0  0  0  0  0  0  0  0  0  0
   10.2694  -18.5447   25.7231 C   0  0  0  0  0  0  0  0  0  0  0  0
    9.2635  -17.8385   26.5997 C   0  0  2  0  0  0  0  0  0  0  0  0
    9.2281  -16.4200   26.2169 N   0  0  0  0  0  0  0  0  0  0  0  0
    9.7854  -17.8814   27.9908 C   0  0  0  0  0  0  0  0  0  0  0  0
    9.9678  -19.0363   28.7153 O   0  0  0  0  0  0  0  0  0  0  0  0
   10.0764  -16.7840   28.5321 O   0  0  0  0  0  0  0  0  0  0  0  0
  2  9  1  0
  2  1  1  6
  3  2  1  0
  4  3  1  0
  5  4  2  0
  6  5  1  0
  7  6  1  0
  7  8  2  0
  8  4  1  0
  9 10  2  0
 11 12  1  0
 12 13  1  0
 13 15  1  0
 13 14  1  1
 15 16  1  6
 16  9  1  0
 17 22  1  0
 17 15  1  0
 18 17  2  0
 20 19  1  0
 21 22  1  0
 21 20  1  6
 23 21  1  0
 24 23  1  0
 25 23  2  0
M  END
$$$$
