HIS.pdb
     RDKit          3D

 25 25  0  0  1  0  0  0  0  0999 V2000
   10.2728  -14.5218   20.8995 N   0  0  0  0  0  0  0  0  0  0  0  0
    9.0073  -14.4414   21.5605 C   0  0  1  0  0  0  0  0  0  0  0  0
    8.0058  -15.3120   20.8749 C   0  0  0  0  0  0  0  0  0  0  0  0
    7.6843  -14.7215   19.5529 C   0  0  0  0  0  0  0  0  0  0  0  0
    8.2621  -13.6710   18.8731 C   0  0  0  0  0  0  0  0  0  0  0  0
    7.6570  -13.4663   17.6865 N   0  0  0  0  0  0  0  0  0  0  0  0
    6.6903  -14.3924   17.6138 C   0  0  0  0  0  0  0  0  0  0  0  0
    6.6915  -15.1512   18.7195 N   0  0  0  0  0  0  0  0  0  0  0  0
    9.0867  -14.6638   23.0115 C   0  0  0  0  0  0  0  0  0  0  0  0
   10.0570  -15.2940   23.5045 O   0  0  0  0  0  0  0  0  0  0  0  0
    5.8607  -11.5308   26.4281 C   0  0  0  0  0  0  0  0  0  0  0  0
    7.0667  -12.1812   25.8547 C   0  0  0  0  0  0  0  0  0  0  0  0
    7.3239  -13.5881   26.2336 C   0  0  2  0  0  0  0  0  0  0  0  0
    7.8608  -13.7052   27.6644 C   0  0  0  0  0  0  0  0  0  0  0  0
    8.2337  -14.3848   25.3717 C   0  0  2  0  0  0  0  0  0  0  0  0
    8.0986  -14.1970   23.9558 N   0  0  0  0  0  0  0  0  0  0  0  0
    8.2563  -15.8330   25.7412 C   0  0  0  0  0  0  0  0  0  0  0  0
    7.2532  -16.5809   25.5483 O   0  0  0  0  0  0  0  0  0  0  0  0
   10.6745  -19.8783   26.2613 O   0  0  0  0  0  0  0  0  0  0  0  0
   10.5357  -18.5395   25.9404 C   0  0  0  0  0  0  0  0  0  0  0  0
    9.4024  -17.8683   26.6778 C   0  0  2  0  0  0  0  0  0  0  0  0
    9.3982  -16.4417   26.3245 N   0  0  0  0  0  0  0  0  0  0  0  0
    9.7195  -17.9371   28.1283 C   0  0  0  0  0  0  0  0  0  0  0  0
    9.6741  -19.0892   28.8783 O   0  0  0  0  0  0  0  0  0  0  0  0
   10.0501  -16.8656   28.6983 O   0  0  0  0  0  0  0  0  0  0  0  0
  2  9  1  0
  2  1  1  6
  3  2  1  0
  4  3  1  0
  5  4  2  0
  6  5  1  0
  7  6  1  0
  7  8  2  0
  8  4  1  0
  9 10  2  0
 11 12  1  0
 12 13  1  0
 13 15  1  0
 13 14  1  1
 15 16  1  6
 16  9  1  0
 17 22  1  0
 17 15  1  0
 18 17  2  0
 20 19  1  0
 21 22  1  0
 21 20  1  6
 23 21  1  0
 24 23  1  0
 25 23  2  0
M  END
$$$$
