HIS.pdb
     RDKit          3D

 25 25  0  0  1  0  0  0  0  0999 V2000
    9.8360  -14.6360   20.6243 N   0  0  0  0  0  0  0  0  0  0  0  0
    8.6409  -14.3425   21.3525 C   0  0  1  0  0  0  0  0  0  0  0  0
    7.4569  -14.9539   20.6779 C   0  0  0  0  0  0  0  0  0  0  0  0
    7.4505  -14.5389   19.2540 C   0  0  0  0  0  0  0  0  0  0  0  0
    7.5591  -13.2899   18.6812 C   0  0  0  0  0  0  0  0  0  0  0  0
    7.5097  -13.3642   17.3367 N   0  0  0  0  0  0  0  0  0  0  0  0
    7.3692  -14.6674   17.0555 C   0  0  0  0  0  0  0  0  0  0  0  0
    7.3319  -15.3844   18.1883 N   0  0  0  0  0  0  0  0  0  0  0  0
    8.7324  -14.6599   22.7850 C   0  0  0  0  0  0  0  0  0  0  0  0
    9.6962  -15.3380   23.2242 O   0  0  0  0  0  0  0  0  0  0  0  0
    5.9982  -11.2874   26.4098 C   0  0  0  0  0  0  0  0  0  0  0  0
    7.0381  -12.0772   25.7020 C   0  0  0  0  0  0  0  0  0  0  0  0
    7.1701  -13.5053   26.0654 C   0  0  2  0  0  0  0  0  0  0  0  0
    7.7199  -13.6849   27.4847 C   0  0  0  0  0  0  0  0  0  0  0  0
    7.9858  -14.3751   25.1804 C   0  0  2  0  0  0  0  0  0  0  0  0
    7.7637  -14.2377   23.7696 N   0  0  0  0  0  0  0  0  0  0  0  0
    7.9728  -15.8072   25.6088 C   0  0  0  0  0  0  0  0  0  0  0  0
    6.9085  -16.4926   25.5941 O   0  0  0  0  0  0  0  0  0  0  0  0
   10.1709  -18.3311   24.3639 O   0  0  0  0  0  0  0  0  0  0  0  0
   10.1587  -18.6385   25.7129 C   0  0  0  0  0  0  0  0  0  0  0  0
    9.1113  -17.8734   26.4851 C   0  0  2  0  0  0  0  0  0  0  0  0
    9.1474  -16.4695   26.0519 N   0  0  0  0  0  0  0  0  0  0  0  0
    9.5252  -17.8794   27.9126 C   0  0  0  0  0  0  0  0  0  0  0  0
    9.9284  -16.7631   28.6079 O   0  0  0  0  0  0  0  0  0  0  0  0
    9.5017  -18.9830   28.5157 O   0  0  0  0  0  0  0  0  0  0  0  0
  2  9  1  0
  2  1  1  6
  3  2  1  0
  4  3  1  0
  5  4  2  0
  6  5  1  0
  7  6  1  0
  7  8  2  0
  8  4  1  0
  9 10  2  0
 11 12  1  0
 12 13  1  0
 13 15  1  0
 13 14  1  1
 15 16  1  6
 16  9  1  0
 17 22  1  0
 17 15  1  0
 18 17  2  0
 20 19  1  0
 21 22  1  0
 21 20  1  6
 23 21  1  0
 24 23  1  0
 25 23  2  0
M  END
$$$$
