HIS.pdb
     RDKit          3D

 25 25  0  0  1  0  0  0  0  0999 V2000
    9.7864  -14.9339   20.8830 N   0  0  0  0  0  0  0  0  0  0  0  0
    8.6271  -14.4665   21.5777 C   0  0  1  0  0  0  0  0  0  0  0  0
    7.3860  -14.8885   20.8618 C   0  0  0  0  0  0  0  0  0  0  0  0
    7.4765  -14.4492   19.4481 C   0  0  0  0  0  0  0  0  0  0  0  0
    7.6344  -13.1919   18.9058 C   0  0  0  0  0  0  0  0  0  0  0  0
    7.6720  -13.2428   17.5597 N   0  0  0  0  0  0  0  0  0  0  0  0
    7.5372  -14.5394   17.2471 C   0  0  0  0  0  0  0  0  0  0  0  0
    7.4192  -15.2751   18.3621 N   0  0  0  0  0  0  0  0  0  0  0  0
    8.6248  -14.8010   23.0092 C   0  0  0  0  0  0  0  0  0  0  0  0
    9.4515  -15.6301   23.4682 O   0  0  0  0  0  0  0  0  0  0  0  0
    5.8535  -11.3022   26.4115 C   0  0  0  0  0  0  0  0  0  0  0  0
    7.0118  -12.0838   25.9081 C   0  0  0  0  0  0  0  0  0  0  0  0
    7.0658  -13.5199   26.2598 C   0  0  2  0  0  0  0  0  0  0  0  0
    7.5722  -13.7391   27.6897 C   0  0  0  0  0  0  0  0  0  0  0  0
    7.8594  -14.4203   25.3852 C   0  0  2  0  0  0  0  0  0  0  0  0
    7.7111  -14.2298   23.9709 N   0  0  0  0  0  0  0  0  0  0  0  0
    7.7292  -15.8590   25.7695 C   0  0  0  0  0  0  0  0  0  0  0  0
    6.6180  -16.4624   25.7080 O   0  0  0  0  0  0  0  0  0  0  0  0
   10.6889  -18.4323   25.3439 O   0  0  0  0  0  0  0  0  0  0  0  0
    9.4162  -18.8918   25.6331 C   0  0  0  0  0  0  0  0  0  0  0  0
    8.6848  -18.0231   26.6277 C   0  0  2  0  0  0  0  0  0  0  0  0
    8.8395  -16.6193   26.2210 N   0  0  0  0  0  0  0  0  0  0  0  0
    9.3873  -18.1589   27.9306 C   0  0  0  0  0  0  0  0  0  0  0  0
   10.0619  -17.1375   28.5581 O   0  0  0  0  0  0  0  0  0  0  0  0
    9.3570  -19.2861   28.4879 O   0  0  0  0  0  0  0  0  0  0  0  0
  2  9  1  0
  2  1  1  6
  3  2  1  0
  4  3  1  0
  5  4  2  0
  6  5  1  0
  7  6  1  0
  7  8  2  0
  8  4  1  0
  9 10  2  0
 11 12  1  0
 12 13  1  0
 13 15  1  0
 13 14  1  1
 15 16  1  6
 16  9  1  0
 17 22  1  0
 17 15  1  0
 18 17  2  0
 20 19  1  0
 21 22  1  0
 21 20  1  6
 23 21  1  0
 24 23  1  0
 25 23  2  0
M  END
$$$$
