FKV.pdb
     RDKit          3D

 28 28  0  0  1  0  0  0  0  0999 V2000
    5.3847  -18.4043   25.0887 N   0  0  0  0  0  0  0  0  0  0  0  0
    5.7228  -16.9902   25.0991 C   0  0  1  0  0  0  0  0  0  0  0  0
    5.8921  -16.5734   26.5145 C   0  0  0  0  0  0  0  0  0  0  0  0
    6.0017  -15.1473   26.7669 C   0  0  0  0  0  0  0  0  0  0  0  0
    7.0234  -14.7207   27.6074 C   0  0  0  0  0  0  0  0  0  0  0  0
    7.2011  -13.3899   27.8998 C   0  0  0  0  0  0  0  0  0  0  0  0
    6.3756  -12.4389   27.3717 C   0  0  0  0  0  0  0  0  0  0  0  0
    5.3590  -12.8423   26.5379 C   0  0  0  0  0  0  0  0  0  0  0  0
    5.1864  -14.1740   26.2493 C   0  0  0  0  0  0  0  0  0  0  0  0
    6.9303  -16.7267   24.2519 C   0  0  0  0  0  0  0  0  0  0  0  0
    7.8963  -17.5216   24.2782 O   0  0  0  0  0  0  0  0  0  0  0  0
    7.0466  -15.6158   23.4103 N   0  0  0  0  0  0  0  0  0  0  0  0
    8.1103  -15.0838   22.6698 C   0  0  1  0  0  0  0  0  0  0  0  0
    7.9506  -13.8211   21.8910 C   0  0  0  0  0  0  0  0  0  0  0  0
    8.9255  -13.6926   20.7541 C   0  0  0  0  0  0  0  0  0  0  0  0
    8.2556  -13.9056   19.4090 C   0  0  0  0  0  0  0  0  0  0  0  0
    9.3694  -13.9040   18.3583 C   0  0  0  0  0  0  0  0  0  0  0  0
    9.5677  -12.5719   17.8470 N   0  0  0  0  0  0  0  0  0  0  0  0
    9.3532  -15.1190   23.4386 C   0  0  0  0  0  0  0  0  0  0  0  0
   10.4305  -14.7553   22.8605 O   0  0  0  0  0  0  0  0  0  0  0  0
   11.4537  -14.2737   27.7577 C   0  0  0  0  0  0  0  0  0  0  0  0
   10.3242  -14.4220   26.7963 C   0  0  1  0  0  0  0  0  0  0  0  0
    9.8162  -13.0499   26.4282 C   0  0  0  0  0  0  0  0  0  0  0  0
   10.6877  -15.2334   25.5757 C   0  0  2  0  0  0  0  0  0  0  0  0
    9.5057  -15.5196   24.7854 N   0  0  0  0  0  0  0  0  0  0  0  0
   11.4456  -16.4424   25.8900 C   0  0  0  0  0  0  0  0  0  0  0  0
   11.0464  -17.6137   25.6811 O   0  0  0  0  0  0  0  0  0  0  0  0
   12.7233  -16.3333   26.4712 O   0  0  0  0  0  0  0  0  0  0  0  0
  2  1  1  1
  3  4  1  0
  3  2  1  0
  4  5  2  0
  5  6  1  0
  7  6  2  0
  8  7  1  0
  9  4  1  0
  9  8  2  0
 10  2  1  0
 10 11  2  0
 12 10  1  0
 13 12  1  0
 13 14  1  1
 14 15  1  0
 15 16  1  0
 17 16  1  0
 18 17  1  0
 19 13  1  0
 20 19  2  0
 22 21  1  1
 23 22  1  0
 24 22  1  0
 24 25  1  1
 25 19  1  0
 26 28  1  0
 26 24  1  0
 27 26  2  0
M  END
$$$$
