FKV.pdb
     RDKit          3D

 28 28  0  0  1  0  0  0  0  0999 V2000
    5.4659  -16.7236   20.1092 N   0  0  0  0  0  0  0  0  0  0  0  0
    6.6907  -17.1542   20.7638 C   0  0  1  0  0  0  0  0  0  0  0  0
    7.8051  -16.3291   20.2318 C   0  0  0  0  0  0  0  0  0  0  0  0
    7.7062  -14.8934   20.4276 C   0  0  0  0  0  0  0  0  0  0  0  0
    7.7466  -14.4192   21.7337 C   0  0  0  0  0  0  0  0  0  0  0  0
    7.6607  -13.0760   22.0106 C   0  0  0  0  0  0  0  0  0  0  0  0
    7.5322  -12.1593   21.0068 C   0  0  0  0  0  0  0  0  0  0  0  0
    7.4903  -12.6099   19.7081 C   0  0  0  0  0  0  0  0  0  0  0  0
    7.5767  -13.9538   19.4376 C   0  0  0  0  0  0  0  0  0  0  0  0
    6.5516  -17.0779   22.2538 C   0  0  0  0  0  0  0  0  0  0  0  0
    5.6415  -16.3848   22.7607 O   0  0  0  0  0  0  0  0  0  0  0  0
    7.4005  -17.7530   23.1368 N   0  0  0  0  0  0  0  0  0  0  0  0
    7.4213  -17.8843   24.5315 C   0  0  1  0  0  0  0  0  0  0  0  0
    7.6239  -19.2144   25.1767 C   0  0  0  0  0  0  0  0  0  0  0  0
    7.4828  -19.1809   26.6728 C   0  0  0  0  0  0  0  0  0  0  0  0
    7.7862  -20.5297   27.2989 C   0  0  0  0  0  0  0  0  0  0  0  0
    7.5625  -20.3749   28.8058 C   0  0  0  0  0  0  0  0  0  0  0  0
    8.7677  -19.9070   29.4411 N   0  0  0  0  0  0  0  0  0  0  0  0
    8.2285  -16.8311   25.1450 C   0  0  0  0  0  0  0  0  0  0  0  0
    9.3949  -16.6148   24.6762 O   0  0  0  0  0  0  0  0  0  0  0  0
    8.6424  -12.7030   27.8806 C   0  0  0  0  0  0  0  0  0  0  0  0
    7.8403  -13.8190   27.3033 C   0  0  1  0  0  0  0  0  0  0  0  0
    6.8921  -13.2543   26.2746 C   0  0  0  0  0  0  0  0  0  0  0  0
    8.6923  -14.9283   26.7341 C   0  0  2  0  0  0  0  0  0  0  0  0
    7.8578  -16.0005   26.2268 N   0  0  0  0  0  0  0  0  0  0  0  0
    9.7067  -15.4146   27.6665 C   0  0  0  0  0  0  0  0  0  0  0  0
    9.6072  -16.4602   28.3533 O   0  0  0  0  0  0  0  0  0  0  0  0
   10.9004  -14.6884   27.8396 O   0  0  0  0  0  0  0  0  0  0  0  0
  2  1  1  6
  3  4  1  0
  3  2  1  0
  4  5  2  0
  5  6  1  0
  7  6  2  0
  8  7  1  0
  9  4  1  0
  9  8  2  0
 10  2  1  0
 10 11  2  0
 12 10  1  0
 13 12  1  0
 13 14  1  6
 14 15  1  0
 15 16  1  0
 17 16  1  0
 18 17  1  0
 19 13  1  0
 20 19  2  0
 22 21  1  6
 23 22  1  0
 24 22  1  0
 24 25  1  1
 25 19  1  0
 26 28  1  0
 26 24  1  0
 27 26  2  0
M  END
$$$$
