FKV.pdb
     RDKit          3D

 28 28  0  0  1  0  0  0  0  0999 V2000
    5.7777  -18.3705   25.8539 N   0  0  0  0  0  0  0  0  0  0  0  0
    5.9441  -16.9478   25.6045 C   0  0  1  0  0  0  0  0  0  0  0  0
    5.9463  -16.2531   26.9172 C   0  0  0  0  0  0  0  0  0  0  0  0
    5.8968  -14.8019   26.8883 C   0  0  0  0  0  0  0  0  0  0  0  0
    6.9617  -14.1117   27.4557 C   0  0  0  0  0  0  0  0  0  0  0  0
    6.9976  -12.7381   27.4714 C   0  0  0  0  0  0  0  0  0  0  0  0
    5.9834  -12.0033   26.9274 C   0  0  0  0  0  0  0  0  0  0  0  0
    4.9212  -12.6689   26.3615 C   0  0  0  0  0  0  0  0  0  0  0  0
    4.8911  -14.0421   26.3489 C   0  0  0  0  0  0  0  0  0  0  0  0
    7.1773  -16.6917   24.7928 C   0  0  0  0  0  0  0  0  0  0  0  0
    8.1418  -17.4864   24.8559 O   0  0  0  0  0  0  0  0  0  0  0  0
    7.3199  -15.5881   23.9457 N   0  0  0  0  0  0  0  0  0  0  0  0
    8.3004  -15.2155   23.0168 C   0  0  1  0  0  0  0  0  0  0  0  0
    8.0626  -14.1035   22.0506 C   0  0  0  0  0  0  0  0  0  0  0  0
    9.0427  -14.0818   20.9112 C   0  0  0  0  0  0  0  0  0  0  0  0
    8.6465  -13.0774   19.8446 C   0  0  0  0  0  0  0  0  0  0  0  0
    9.5434  -13.3463   18.6331 C   0  0  0  0  0  0  0  0  0  0  0  0
    9.3094  -12.3566   17.6129 N   0  0  0  0  0  0  0  0  0  0  0  0
    9.6180  -15.1440   23.6460 C   0  0  0  0  0  0  0  0  0  0  0  0
   10.6241  -14.8744   22.9098 O   0  0  0  0  0  0  0  0  0  0  0  0
   10.6196  -13.3422   27.0069 C   0  0  0  0  0  0  0  0  0  0  0  0
   11.2404  -14.6963   26.9484 C   0  0  1  0  0  0  0  0  0  0  0  0
   10.5296  -15.5992   27.9260 C   0  0  0  0  0  0  0  0  0  0  0  0
   11.2599  -15.2794   25.5556 C   0  0  2  0  0  0  0  0  0  0  0  0
    9.9165  -15.3439   25.0130 N   0  0  0  0  0  0  0  0  0  0  0  0
   11.9474  -16.5663   25.4774 C   0  0  0  0  0  0  0  0  0  0  0  0
   13.1431  -16.7617   25.8047 O   0  0  0  0  0  0  0  0  0  0  0  0
   11.2565  -17.6987   25.0056 O   0  0  0  0  0  0  0  0  0  0  0  0
  2  1  1  1
  3  4  1  0
  3  2  1  0
  4  5  2  0
  5  6  1  0
  7  6  2  0
  8  7  1  0
  9  4  1  0
  9  8  2  0
 10  2  1  0
 10 11  2  0
 12 10  1  0
 13 12  1  0
 13 14  1  1
 14 15  1  0
 15 16  1  0
 17 16  1  0
 18 17  1  0
 19 13  1  0
 20 19  2  0
 22 21  1  6
 23 22  1  0
 24 22  1  0
 24 25  1  1
 25 19  1  0
 26 28  1  0
 26 24  1  0
 27 26  2  0
M  END
$$$$
