FKV.pdb
     RDKit          3D

 28 28  0  0  1  0  0  0  0  0999 V2000
    5.6301  -16.1323   25.0484 N   0  0  0  0  0  0  0  0  0  0  0  0
    6.9292  -15.5517   24.7497 C   0  0  1  0  0  0  0  0  0  0  0  0
    7.2538  -14.5839   25.8285 C   0  0  0  0  0  0  0  0  0  0  0  0
    6.5510  -13.3132   25.7993 C   0  0  0  0  0  0  0  0  0  0  0  0
    7.1562  -12.2601   25.1232 C   0  0  0  0  0  0  0  0  0  0  0  0
    6.5615  -11.0238   25.0446 C   0  0  0  0  0  0  0  0  0  0  0  0
    5.3510  -10.7888   25.6311 C   0  0  0  0  0  0  0  0  0  0  0  0
    4.7371  -11.8188   26.3046 C   0  0  0  0  0  0  0  0  0  0  0  0
    5.3365  -13.0524   26.3796 C   0  0  0  0  0  0  0  0  0  0  0  0
    7.9631  -16.6228   24.5793 C   0  0  0  0  0  0  0  0  0  0  0  0
    8.0253  -17.5658   25.3993 O   0  0  0  0  0  0  0  0  0  0  0  0
    8.8882  -16.6329   23.5304 N   0  0  0  0  0  0  0  0  0  0  0  0
   10.2202  -17.0565   23.4339 C   0  0  1  0  0  0  0  0  0  0  0  0
   10.9967  -16.8737   22.1728 C   0  0  0  0  0  0  0  0  0  0  0  0
   12.3315  -17.5646   22.1872 C   0  0  0  0  0  0  0  0  0  0  0  0
   12.6281  -18.2477   20.8648 C   0  0  0  0  0  0  0  0  0  0  0  0
   14.0209  -18.8705   20.9946 C   0  0  0  0  0  0  0  0  0  0  0  0
   14.4087  -19.4832   19.7498 N   0  0  0  0  0  0  0  0  0  0  0  0
   10.9790  -16.6750   24.6238 C   0  0  0  0  0  0  0  0  0  0  0  0
   11.6244  -15.5751   24.6006 O   0  0  0  0  0  0  0  0  0  0  0  0
   11.0133  -15.3398   28.9630 C   0  0  0  0  0  0  0  0  0  0  0  0
   10.7662  -15.6971   27.5370 C   0  0  1  0  0  0  0  0  0  0  0  0
   10.9503  -14.4635   26.6881 C   0  0  0  0  0  0  0  0  0  0  0  0
   11.6232  -16.8438   27.0564 C   0  0  2  0  0  0  0  0  0  0  0  0
   11.0841  -17.4021   25.8312 N   0  0  0  0  0  0  0  0  0  0  0  0
   11.8455  -17.8663   28.0761 C   0  0  0  0  0  0  0  0  0  0  0  0
   11.3867  -19.0337   28.0331 O   0  0  0  0  0  0  0  0  0  0  0  0
   12.6258  -17.5642   29.2083 O   0  0  0  0  0  0  0  0  0  0  0  0
  2  1  1  1
  3  4  1  0
  3  2  1  0
  4  5  2  0
  5  6  1  0
  7  6  2  0
  8  7  1  0
  9  4  1  0
  9  8  2  0
 10  2  1  0
 10 11  2  0
 12 10  1  0
 13 12  1  0
 13 14  1  6
 14 15  1  0
 15 16  1  0
 17 16  1  0
 18 17  1  0
 19 13  1  0
 20 19  2  0
 22 21  1  1
 23 22  1  0
 24 22  1  0
 24 25  1  6
 25 19  1  0
 26 28  1  0
 26 24  1  0
 27 26  2  0
M  END
$$$$
