FKV.pdb
     RDKit          3D

 28 28  0  0  1  0  0  0  0  0999 V2000
    5.3481  -17.6223   24.1882 N   0  0  0  0  0  0  0  0  0  0  0  0
    6.2653  -16.5228   24.4412 C   0  0  1  0  0  0  0  0  0  0  0  0
    5.8616  -15.8780   25.7167 C   0  0  0  0  0  0  0  0  0  0  0  0
    6.5283  -14.6341   26.0596 C   0  0  0  0  0  0  0  0  0  0  0  0
    5.7409  -13.4944   26.1761 C   0  0  0  0  0  0  0  0  0  0  0  0
    6.2884  -12.2759   26.4981 C   0  0  0  0  0  0  0  0  0  0  0  0
    7.6301  -12.1446   26.7151 C   0  0  0  0  0  0  0  0  0  0  0  0
    8.4251  -13.2614   26.6043 C   0  0  0  0  0  0  0  0  0  0  0  0
    7.8720  -14.4767   26.2821 C   0  0  0  0  0  0  0  0  0  0  0  0
    7.6844  -17.0040   24.4399 C   0  0  0  0  0  0  0  0  0  0  0  0
    8.0042  -18.0052   25.1188 O   0  0  0  0  0  0  0  0  0  0  0  0
    8.7012  -16.3852   23.7056 N   0  0  0  0  0  0  0  0  0  0  0  0
   10.0943  -16.5323   23.6889 C   0  0  1  0  0  0  0  0  0  0  0  0
   10.8877  -16.2117   22.4664 C   0  0  0  0  0  0  0  0  0  0  0  0
   12.2848  -16.7652   22.4983 C   0  0  0  0  0  0  0  0  0  0  0  0
   12.9999  -16.5700   21.1739 C   0  0  0  0  0  0  0  0  0  0  0  0
   14.3860  -17.2025   21.3256 C   0  0  0  0  0  0  0  0  0  0  0  0
   15.1011  -17.1367   20.0768 N   0  0  0  0  0  0  0  0  0  0  0  0
   10.6931  -15.9913   24.9079 C   0  0  0  0  0  0  0  0  0  0  0  0
   11.1180  -14.7888   24.8888 O   0  0  0  0  0  0  0  0  0  0  0  0
   10.3609  -14.2954   29.0280 C   0  0  0  0  0  0  0  0  0  0  0  0
   10.1774  -14.9104   27.6826 C   0  0  1  0  0  0  0  0  0  0  0  0
   10.1914  -13.8174   26.6427 C   0  0  0  0  0  0  0  0  0  0  0  0
   11.1915  -15.9876   27.3802 C   0  0  2  0  0  0  0  0  0  0  0  0
   10.8609  -16.6630   26.1401 N   0  0  0  0  0  0  0  0  0  0  0  0
   11.3845  -16.9260   28.4834 C   0  0  0  0  0  0  0  0  0  0  0  0
   10.9491  -18.1028   28.5084 O   0  0  0  0  0  0  0  0  0  0  0  0
   12.1061  -16.5235   29.6233 O   0  0  0  0  0  0  0  0  0  0  0  0
  2  1  1  1
  3  4  1  0
  3  2  1  0
  4  5  2  0
  5  6  1  0
  7  6  2  0
  8  7  1  0
  9  4  1  0
  9  8  2  0
 10  2  1  0
 10 11  2  0
 12 10  1  0
 13 12  1  0
 13 14  1  6
 14 15  1  0
 15 16  1  0
 17 16  1  0
 18 17  1  0
 19 13  1  0
 20 19  2  0
 22 21  1  1
 23 22  1  0
 24 22  1  0
 24 25  1  6
 25 19  1  0
 26 28  1  0
 26 24  1  0
 27 26  2  0
M  END
$$$$
