AHR.pdb
     RDKit          3D

 27 27  0  0  1  0  0  0  0  0999 V2000
    7.5029  -12.2767   19.9243 C   0  0  0  0  0  0  0  0  0  0  0  0
    8.1750  -13.2304   18.9599 C   0  0  2  0  0  0  0  0  0  0  0  0
    7.2263  -13.8065   18.0290 N   0  0  0  0  0  0  0  0  0  0  0  0
    8.8617  -14.3288   19.6725 C   0  0  0  0  0  0  0  0  0  0  0  0
    8.3190  -15.4407   19.9012 O   0  0  0  0  0  0  0  0  0  0  0  0
   10.1885  -14.1368   20.1237 N   0  0  0  0  0  0  0  0  0  0  0  0
   10.9679  -15.1816   20.7557 C   0  0  1  0  0  0  0  0  0  0  0  0
   12.4179  -14.9010   20.4546 C   0  0  0  0  0  0  0  0  0  0  0  0
   12.8722  -15.3117   19.1367 C   0  0  0  0  0  0  0  0  0  0  0  0
   12.1769  -16.0581   18.2247 C   0  0  0  0  0  0  0  0  0  0  0  0
   12.9495  -16.2088   17.1424 N   0  0  0  0  0  0  0  0  0  0  0  0
   14.1016  -15.5727   17.3692 C   0  0  0  0  0  0  0  0  0  0  0  0
   14.0574  -15.0255   18.5827 N   0  0  0  0  0  0  0  0  0  0  0  0
   10.6195  -15.2826   22.1650 C   0  0  0  0  0  0  0  0  0  0  0  0
   10.8230  -14.2812   22.9183 O   0  0  0  0  0  0  0  0  0  0  0  0
    6.5479  -21.2779   24.3746 N   0  0  0  0  0  0  0  0  0  0  0  0
    6.7608  -20.6898   25.6492 C   0  0  0  0  0  0  0  0  0  0  0  0
    6.9538  -21.4270   26.6782 N   0  0  0  0  0  0  0  0  0  0  0  0
    6.7688  -19.2781   25.8372 N   0  0  0  0  0  0  0  0  0  0  0  0
    6.4454  -18.4259   24.7109 C   0  0  0  0  0  0  0  0  0  0  0  0
    7.4248  -17.2836   24.5888 C   0  0  0  0  0  0  0  0  0  0  0  0
    8.8507  -17.7146   24.4963 C   0  0  0  0  0  0  0  0  0  0  0  0
    9.8277  -16.5961   24.1991 C   0  0  2  0  0  0  0  0  0  0  0  0
   10.0578  -16.4196   22.7961 N   0  0  0  0  0  0  0  0  0  0  0  0
   11.0724  -16.9231   24.9389 C   0  0  0  0  0  0  0  0  0  0  0  0
   12.0895  -17.2270   24.2791 O   0  0  0  0  0  0  0  0  0  0  0  0
   11.1470  -16.9039   26.3180 O   0  0  0  0  0  0  0  0  0  0  0  0
  2  3  1  0
  2  1  1  1
  4  2  1  0
  5  4  2  0
  6  4  1  0
  7  6  1  0
  7  8  1  1
  8  9  1  0
  9 13  1  0
 10  9  2  0
 10 11  1  0
 11 12  1  0
 13 12  2  0
 14  7  1  0
 14 15  2  0
 16 17  1  0
 17 18  2  0
 19 17  1  0
 19 20  1  0
 20 21  1  0
 22 21  1  0
 23 22  1  6
 23 24  1  0
 24 14  1  0
 25 27  1  0
 25 23  1  0
 26 25  2  0
M  END
$$$$
