AHR.pdb
     RDKit          3D

 27 27  0  0  1  0  0  0  0  0999 V2000
    5.3736  -18.1617   21.9121 C   0  0  0  0  0  0  0  0  0  0  0  0
    5.9225  -17.8056   20.5469 C   0  0  2  0  0  0  0  0  0  0  0  0
    6.0365  -18.9721   19.6956 N   0  0  0  0  0  0  0  0  0  0  0  0
    7.2504  -17.1634   20.6463 C   0  0  0  0  0  0  0  0  0  0  0  0
    8.3260  -17.7789   20.4286 O   0  0  0  0  0  0  0  0  0  0  0  0
    7.3323  -15.7965   21.0008 N   0  0  0  0  0  0  0  0  0  0  0  0
    8.5732  -15.0492   20.9881 C   0  0  1  0  0  0  0  0  0  0  0  0
    8.3013  -13.7445   20.2839 C   0  0  0  0  0  0  0  0  0  0  0  0
    8.1307  -13.8366   18.8436 C   0  0  0  0  0  0  0  0  0  0  0  0
    7.1129  -13.3017   18.1020 C   0  0  0  0  0  0  0  0  0  0  0  0
    7.3320  -13.6125   16.8189 N   0  0  0  0  0  0  0  0  0  0  0  0
    8.4597  -14.3250   16.7563 C   0  0  0  0  0  0  0  0  0  0  0  0
    8.9483  -14.4631   17.9876 N   0  0  0  0  0  0  0  0  0  0  0  0
    9.1076  -14.9437   22.3376 C   0  0  0  0  0  0  0  0  0  0  0  0
    8.4552  -14.2834   23.2035 O   0  0  0  0  0  0  0  0  0  0  0  0
    9.4578  -13.7024   29.1092 N   0  0  0  0  0  0  0  0  0  0  0  0
   10.2273  -14.8606   29.3955 C   0  0  0  0  0  0  0  0  0  0  0  0
   10.6802  -15.0613   30.5762 N   0  0  0  0  0  0  0  0  0  0  0  0
   10.5250  -15.8341   28.3995 N   0  0  0  0  0  0  0  0  0  0  0  0
    9.6485  -15.9427   27.2509 C   0  0  0  0  0  0  0  0  0  0  0  0
   10.1369  -16.9962   26.2862 C   0  0  0  0  0  0  0  0  0  0  0  0
    9.7779  -16.7281   24.8626 C   0  0  0  0  0  0  0  0  0  0  0  0
   10.6980  -15.7555   24.1545 C   0  0  2  0  0  0  0  0  0  0  0  0
   10.3172  -15.5235   22.7930 N   0  0  0  0  0  0  0  0  0  0  0  0
   12.0668  -16.3181   24.2701 C   0  0  0  0  0  0  0  0  0  0  0  0
   12.5609  -16.4412   25.4115 O   0  0  0  0  0  0  0  0  0  0  0  0
   12.8082  -16.7074   23.1715 O   0  0  0  0  0  0  0  0  0  0  0  0
  2  3  1  0
  2  1  1  1
  4  2  1  0
  5  4  2  0
  6  4  1  0
  7  6  1  0
  7  8  1  1
  8  9  1  0
  9 13  1  0
 10  9  2  0
 10 11  1  0
 11 12  1  0
 13 12  2  0
 14  7  1  0
 14 15  2  0
 16 17  1  0
 17 18  2  0
 19 17  1  0
 19 20  1  0
 20 21  1  0
 22 21  1  0
 23 22  1  6
 23 24  1  0
 24 14  1  0
 25 27  1  0
 25 23  1  0
 26 25  2  0
M  END
$$$$
