AHR.pdb
     RDKit          3D

 27 27  0  0  1  0  0  0  0  0999 V2000
    4.3156  -21.1022   20.8771 C   0  0  0  0  0  0  0  0  0  0  0  0
    4.8220  -21.5983   22.2146 C   0  0  2  0  0  0  0  0  0  0  0  0
    3.8280  -22.3997   22.8988 N   0  0  0  0  0  0  0  0  0  0  0  0
    5.2124  -20.4780   23.0968 C   0  0  0  0  0  0  0  0  0  0  0  0
    4.5785  -19.3922   23.1450 O   0  0  0  0  0  0  0  0  0  0  0  0
    6.3468  -20.6174   23.9301 N   0  0  0  0  0  0  0  0  0  0  0  0
    6.7238  -19.6333   24.9240 C   0  0  1  0  0  0  0  0  0  0  0  0
    7.4466  -20.3656   26.0255 C   0  0  0  0  0  0  0  0  0  0  0  0
    8.0189  -19.5242   27.0630 C   0  0  0  0  0  0  0  0  0  0  0  0
    7.9117  -18.1642   27.1686 C   0  0  0  0  0  0  0  0  0  0  0  0
    8.5786  -17.7833   28.2646 N   0  0  0  0  0  0  0  0  0  0  0  0
    9.0919  -18.8771   28.8332 C   0  0  0  0  0  0  0  0  0  0  0  0
    8.7528  -19.9387   28.1038 N   0  0  0  0  0  0  0  0  0  0  0  0
    7.4577  -18.5444   24.2967 C   0  0  0  0  0  0  0  0  0  0  0  0
    8.4882  -18.8187   23.6080 O   0  0  0  0  0  0  0  0  0  0  0  0
    8.5126  -14.3950   18.7298 N   0  0  0  0  0  0  0  0  0  0  0  0
    8.3232  -13.1032   19.2875 C   0  0  0  0  0  0  0  0  0  0  0  0
    8.4046  -12.0607   18.5485 N   0  0  0  0  0  0  0  0  0  0  0  0
    8.0394  -12.9122   20.6700 N   0  0  0  0  0  0  0  0  0  0  0  0
    7.7035  -14.0685   21.4760 C   0  0  0  0  0  0  0  0  0  0  0  0
    7.5245  -13.6921   22.9270 C   0  0  0  0  0  0  0  0  0  0  0  0
    6.9875  -14.7945   23.7777 C   0  0  0  0  0  0  0  0  0  0  0  0
    7.7717  -16.0878   23.6998 C   0  0  2  0  0  0  0  0  0  0  0  0
    7.1245  -17.1701   24.3797 N   0  0  0  0  0  0  0  0  0  0  0  0
    9.1158  -15.7939   24.2572 C   0  0  0  0  0  0  0  0  0  0  0  0
    9.9892  -15.3410   23.4864 O   0  0  0  0  0  0  0  0  0  0  0  0
    9.4337  -16.0007   25.5854 O   0  0  0  0  0  0  0  0  0  0  0  0
  2  3  1  0
  2  1  1  6
  4  2  1  0
  5  4  2  0
  6  4  1  0
  7  6  1  0
  7  8  1  1
  8  9  1  0
  9 13  1  0
 10  9  2  0
 10 11  1  0
 11 12  1  0
 13 12  2  0
 14  7  1  0
 14 15  2  0
 16 17  1  0
 17 18  2  0
 19 17  1  0
 19 20  1  0
 20 21  1  0
 22 21  1  0
 23 22  1  1
 23 24  1  0
 24 14  1  0
 25 27  1  0
 25 23  1  0
 26 25  2  0
M  END
$$$$
