AHR.pdb
     RDKit          3D

 27 27  0  0  1  0  0  0  0  0999 V2000
   11.7335  -18.0105   15.1322 C   0  0  0  0  0  0  0  0  0  0  0  0
   10.8115  -16.8102   15.1058 C   0  0  2  0  0  0  0  0  0  0  0  0
   10.9101  -16.0876   13.8541 N   0  0  0  0  0  0  0  0  0  0  0  0
   11.1047  -15.8758   16.2133 C   0  0  0  0  0  0  0  0  0  0  0  0
   11.9573  -14.9547   16.1238 O   0  0  0  0  0  0  0  0  0  0  0  0
   10.4041  -16.0100   17.4347 N   0  0  0  0  0  0  0  0  0  0  0  0
   10.6875  -15.2005   18.6021 C   0  0  1  0  0  0  0  0  0  0  0  0
    9.4503  -15.2102   19.4631 C   0  0  0  0  0  0  0  0  0  0  0  0
    8.4059  -14.2813   19.0650 C   0  0  0  0  0  0  0  0  0  0  0  0
    8.4456  -13.4016   18.0176 C   0  0  0  0  0  0  0  0  0  0  0  0
    7.2849  -12.7360   17.9959 N   0  0  0  0  0  0  0  0  0  0  0  0
    6.5347  -13.1866   19.0046 C   0  0  0  0  0  0  0  0  0  0  0  0
    7.2146  -14.1276   19.6573 N   0  0  0  0  0  0  0  0  0  0  0  0
   11.9113  -15.6580   19.2431 C   0  0  0  0  0  0  0  0  0  0  0  0
   12.1205  -16.9063   19.3406 O   0  0  0  0  0  0  0  0  0  0  0  0
   19.8786  -15.4929   20.3395 N   0  0  0  0  0  0  0  0  0  0  0  0
   19.7699  -14.4406   21.2864 C   0  0  0  0  0  0  0  0  0  0  0  0
   20.6212  -14.3347   22.2369 N   0  0  0  0  0  0  0  0  0  0  0  0
   18.7272  -13.4726   21.2226 N   0  0  0  0  0  0  0  0  0  0  0  0
   17.7068  -13.6174   20.2041 C   0  0  0  0  0  0  0  0  0  0  0  0
   16.6019  -14.5385   20.6622 C   0  0  0  0  0  0  0  0  0  0  0  0
   15.2447  -14.1420   20.1843 C   0  0  0  0  0  0  0  0  0  0  0  0
   14.2013  -15.2359   20.2761 C   0  0  2  0  0  0  0  0  0  0  0  0
   12.9213  -14.8237   19.7819 N   0  0  0  0  0  0  0  0  0  0  0  0
   14.1512  -15.6446   21.7023 C   0  0  0  0  0  0  0  0  0  0  0  0
   13.1868  -15.2551   22.3953 O   0  0  0  0  0  0  0  0  0  0  0  0
   15.1233  -16.4331   22.2866 O   0  0  0  0  0  0  0  0  0  0  0  0
  2  3  1  0
  2  1  1  6
  4  2  1  0
  5  4  2  0
  6  4  1  0
  7  6  1  0
  7  8  1  1
  8  9  1  0
  9 13  1  0
 10  9  2  0
 10 11  1  0
 11 12  1  0
 13 12  2  0
 14  7  1  0
 14 15  2  0
 16 17  1  0
 17 18  2  0
 19 17  1  0
 19 20  1  0
 20 21  1  0
 22 21  1  0
 23 22  1  1
 23 24  1  0
 24 14  1  0
 25 27  1  0
 25 23  1  0
 26 25  2  0
M  END
$$$$
