AHR.pdb
     RDKit          3D

 27 27  0  0  1  0  0  0  0  0999 V2000
    9.4878  -13.6405   17.5322 C   0  0  0  0  0  0  0  0  0  0  0  0
    8.2107  -14.3832   17.8621 C   0  0  2  0  0  0  0  0  0  0  0  0
    7.1726  -13.4836   18.3220 N   0  0  0  0  0  0  0  0  0  0  0  0
    8.4341  -15.4136   18.8985 C   0  0  0  0  0  0  0  0  0  0  0  0
    8.2477  -15.2022   20.1248 O   0  0  0  0  0  0  0  0  0  0  0  0
    8.8772  -16.6996   18.5104 N   0  0  0  0  0  0  0  0  0  0  0  0
    9.0733  -17.7852   19.4493 C   0  0  1  0  0  0  0  0  0  0  0  0
    8.8400  -19.0716   18.6992 C   0  0  0  0  0  0  0  0  0  0  0  0
    7.4500  -19.3821   18.4102 C   0  0  0  0  0  0  0  0  0  0  0  0
    6.3563  -18.6248   18.7307 C   0  0  0  0  0  0  0  0  0  0  0  0
    5.2688  -19.2641   18.2843 N   0  0  0  0  0  0  0  0  0  0  0  0
    5.6696  -20.3950   17.6978 C   0  0  0  0  0  0  0  0  0  0  0  0
    6.9973  -20.4695   17.7729 N   0  0  0  0  0  0  0  0  0  0  0  0
   10.3681  -17.6554   20.1009 C   0  0  0  0  0  0  0  0  0  0  0  0
   11.3718  -17.3124   19.4035 O   0  0  0  0  0  0  0  0  0  0  0  0
   14.0260  -15.4600   17.7982 N   0  0  0  0  0  0  0  0  0  0  0  0
   14.4315  -14.4855   18.7477 C   0  0  0  0  0  0  0  0  0  0  0  0
   15.6694  -14.1858   18.8793 N   0  0  0  0  0  0  0  0  0  0  0  0
   13.4959  -13.8095   19.5819 N   0  0  0  0  0  0  0  0  0  0  0  0
   13.2298  -14.3441   20.9020 C   0  0  0  0  0  0  0  0  0  0  0  0
   11.9714  -15.1780   20.9124 C   0  0  0  0  0  0  0  0  0  0  0  0
   11.6579  -15.7863   22.2387 C   0  0  0  0  0  0  0  0  0  0  0  0
   11.6784  -17.3006   22.2566 C   0  0  2  0  0  0  0  0  0  0  0  0
   10.6250  -17.8782   21.4760 N   0  0  0  0  0  0  0  0  0  0  0  0
   11.6083  -17.7010   23.6842 C   0  0  0  0  0  0  0  0  0  0  0  0
   10.4844  -17.9373   24.1773 O   0  0  0  0  0  0  0  0  0  0  0  0
   12.7302  -17.8211   24.4809 O   0  0  0  0  0  0  0  0  0  0  0  0
  2  3  1  0
  2  1  1  1
  4  2  1  0
  5  4  2  0
  6  4  1  0
  7  6  1  0
  7  8  1  6
  8  9  1  0
  9 13  1  0
 10  9  2  0
 10 11  1  0
 11 12  1  0
 13 12  2  0
 14  7  1  0
 14 15  2  0
 16 17  1  0
 17 18  2  0
 19 17  1  0
 19 20  1  0
 20 21  1  0
 22 21  1  0
 23 22  1  1
 23 24  1  0
 24 14  1  0
 25 27  1  0
 25 23  1  0
 26 25  2  0
M  END
$$$$
