AHR.pdb
     RDKit          3D

 27 27  0  0  1  0  0  0  0  0999 V2000
   15.7259  -16.4113   18.5035 C   0  0  0  0  0  0  0  0  0  0  0  0
   14.8879  -15.2952   17.9175 C   0  0  2  0  0  0  0  0  0  0  0  0
   15.6894  -14.1270   17.6152 N   0  0  0  0  0  0  0  0  0  0  0  0
   13.7992  -14.8949   18.8342 C   0  0  0  0  0  0  0  0  0  0  0  0
   14.0061  -14.3021   19.9245 O   0  0  0  0  0  0  0  0  0  0  0  0
   12.4596  -15.1842   18.4841 N   0  0  0  0  0  0  0  0  0  0  0  0
   11.3225  -14.6982   19.2386 C   0  0  1  0  0  0  0  0  0  0  0  0
   10.1410  -14.6794   18.3028 C   0  0  0  0  0  0  0  0  0  0  0  0
    8.8775  -14.2823   18.9011 C   0  0  0  0  0  0  0  0  0  0  0  0
    8.4508  -13.0054   19.1456 C   0  0  0  0  0  0  0  0  0  0  0  0
    7.2354  -13.0776   19.7009 N   0  0  0  0  0  0  0  0  0  0  0  0
    6.9068  -14.3680   19.8025 C   0  0  0  0  0  0  0  0  0  0  0  0
    7.9048  -15.1039   19.3163 N   0  0  0  0  0  0  0  0  0  0  0  0
   11.1576  -15.4804   20.4546 C   0  0  0  0  0  0  0  0  0  0  0  0
   11.4797  -16.7083   20.4401 O   0  0  0  0  0  0  0  0  0  0  0  0
   10.4475  -13.5138   29.0836 N   0  0  0  0  0  0  0  0  0  0  0  0
   10.2049  -14.9093   28.9874 C   0  0  0  0  0  0  0  0  0  0  0  0
   10.2772  -15.6522   30.0278 N   0  0  0  0  0  0  0  0  0  0  0  0
    9.8760  -15.5347   27.7509 N   0  0  0  0  0  0  0  0  0  0  0  0
   10.0692  -14.7899   26.5231 C   0  0  0  0  0  0  0  0  0  0  0  0
    9.7425  -15.6322   25.3137 C   0  0  0  0  0  0  0  0  0  0  0  0
    9.8850  -14.9101   24.0153 C   0  0  0  0  0  0  0  0  0  0  0  0
   10.4748  -15.7413   22.8950 C   0  0  2  0  0  0  0  0  0  0  0  0
   10.6610  -14.9921   21.6881 N   0  0  0  0  0  0  0  0  0  0  0  0
    9.5609  -16.8959   22.7077 C   0  0  0  0  0  0  0  0  0  0  0  0
    9.5747  -17.8057   23.5646 O   0  0  0  0  0  0  0  0  0  0  0  0
    8.7030  -17.0007   21.6303 O   0  0  0  0  0  0  0  0  0  0  0  0
  2  3  1  0
  2  1  1  1
  4  2  1  0
  5  4  2  0
  6  4  1  0
  7  6  1  0
  7  8  1  6
  8  9  1  0
  9 13  1  0
 10  9  2  0
 10 11  1  0
 11 12  1  0
 13 12  2  0
 14  7  1  0
 14 15  2  0
 16 17  1  0
 17 18  2  0
 19 17  1  0
 19 20  1  0
 20 21  1  0
 22 21  1  0
 23 22  1  1
 23 24  1  0
 24 14  1  0
 25 27  1  0
 25 23  1  0
 26 25  2  0
M  END
$$$$
