AHR.pdb
     RDKit          3D

 27 27  0  0  1  0  0  0  0  0999 V2000
   10.2463  -18.5041   14.6654 C   0  0  0  0  0  0  0  0  0  0  0  0
    9.8898  -17.0630   14.3691 C   0  0  2  0  0  0  0  0  0  0  0  0
   10.6478  -16.5442   13.2490 N   0  0  0  0  0  0  0  0  0  0  0  0
   10.1262  -16.1933   15.5410 C   0  0  0  0  0  0  0  0  0  0  0  0
   11.2615  -15.7395   15.8382 O   0  0  0  0  0  0  0  0  0  0  0  0
    9.0378  -15.8466   16.3753 N   0  0  0  0  0  0  0  0  0  0  0  0
    9.1738  -14.9966   17.5404 C   0  0  1  0  0  0  0  0  0  0  0  0
    7.7918  -14.5225   17.9108 C   0  0  0  0  0  0  0  0  0  0  0  0
    7.7126  -13.7087   19.1122 C   0  0  0  0  0  0  0  0  0  0  0  0
    7.8852  -12.3540   19.1986 C   0  0  0  0  0  0  0  0  0  0  0  0
    7.7269  -12.0005   20.4795 N   0  0  0  0  0  0  0  0  0  0  0  0
    7.4614  -13.1058   21.1803 C   0  0  0  0  0  0  0  0  0  0  0  0
    7.4520  -14.1475   20.3504 N   0  0  0  0  0  0  0  0  0  0  0  0
    9.9078  -15.6942   18.5856 C   0  0  0  0  0  0  0  0  0  0  0  0
    9.7824  -16.9536   18.6843 O   0  0  0  0  0  0  0  0  0  0  0  0
   17.7055  -14.2614   22.7300 N   0  0  0  0  0  0  0  0  0  0  0  0
   17.2898  -15.5799   23.0533 C   0  0  0  0  0  0  0  0  0  0  0  0
   18.0712  -16.3661   23.6942 N   0  0  0  0  0  0  0  0  0  0  0  0
   16.0075  -16.0785   22.6854 N   0  0  0  0  0  0  0  0  0  0  0  0
   15.1451  -15.2444   21.8732 C   0  0  0  0  0  0  0  0  0  0  0  0
   13.7950  -15.8880   21.6677 C   0  0  0  0  0  0  0  0  0  0  0  0
   12.8687  -15.0932   20.8088 C   0  0  0  0  0  0  0  0  0  0  0  0
   11.5308  -15.7533   20.5483 C   0  0  2  0  0  0  0  0  0  0  0  0
   10.7743  -15.0892   19.5289 N   0  0  0  0  0  0  0  0  0  0  0  0
   10.8198  -15.7815   21.8512 C   0  0  0  0  0  0  0  0  0  0  0  0
    9.9448  -14.9152   22.0658 O   0  0  0  0  0  0  0  0  0  0  0  0
   11.0878  -16.7220   22.8266 O   0  0  0  0  0  0  0  0  0  0  0  0
  2  3  1  0
  2  1  1  1
  4  2  1  0
  5  4  2  0
  6  4  1  0
  7  6  1  0
  7  8  1  1
  8  9  1  0
  9 13  1  0
 10  9  2  0
 10 11  1  0
 11 12  1  0
 13 12  2  0
 14  7  1  0
 14 15  2  0
 16 17  1  0
 17 18  2  0
 19 17  1  0
 19 20  1  0
 20 21  1  0
 22 21  1  0
 23 22  1  1
 23 24  1  0
 24 14  1  0
 25 27  1  0
 25 23  1  0
 26 25  2  0
M  END
$$$$
