MFW.pdb
     RDKit          3D

 34 36  0  0  1  0  0  0  0  0999 V2000
    7.9978  -22.4866   25.1179 C   0  0  0  0  0  0  0  0  0  0  0  0
    8.4473  -23.4893   23.6766 S   0  0  0  0  0  0  0  0  0  0  0  0
    7.9403  -22.6545   22.1469 C   0  0  0  0  0  0  0  0  0  0  0  0
    8.4177  -21.2024   22.1657 C   0  0  0  0  0  0  0  0  0  0  0  0
    7.9153  -20.5716   20.8967 C   0  0  2  0  0  0  0  0  0  0  0  0
    8.4249  -21.3484   19.7875 N   0  0  0  0  0  0  0  0  0  0  0  0
    8.2457  -19.1425   20.7876 C   0  0  0  0  0  0  0  0  0  0  0  0
    9.4110  -18.8046   20.4531 O   0  0  0  0  0  0  0  0  0  0  0  0
    7.3479  -18.0796   21.0317 N   0  0  0  0  0  0  0  0  0  0  0  0
    7.7296  -16.7057   21.1010 C   0  0  1  0  0  0  0  0  0  0  0  0
    6.7242  -15.7089   20.7178 C   0  0  0  0  0  0  0  0  0  0  0  0
    7.2260  -14.3101   20.6648 C   0  0  0  0  0  0  0  0  0  0  0  0
    7.9540  -13.8478   19.5655 C   0  0  0  0  0  0  0  0  0  0  0  0
    8.4245  -12.5541   19.5072 C   0  0  0  0  0  0  0  0  0  0  0  0
    8.1966  -11.6492   20.5392 C   0  0  0  0  0  0  0  0  0  0  0  0
    7.4856  -12.0908   21.6196 C   0  0  0  0  0  0  0  0  0  0  0  0
    7.0183  -13.3902   21.6680 C   0  0  0  0  0  0  0  0  0  0  0  0
    8.2736  -16.4069   22.4393 C   0  0  0  0  0  0  0  0  0  0  0  0
    7.4924  -16.0555   23.3879 O   0  0  0  0  0  0  0  0  0  0  0  0
    9.6580  -16.4827   22.7872 N   0  0  0  0  0  0  0  0  0  0  0  0
   10.1958  -15.6448   23.8846 C   0  0  1  0  0  0  0  0  0  0  0  0
    9.5859  -16.1806   25.1361 C   0  0  0  0  0  0  0  0  0  0  0  0
    8.2835  -15.6454   25.5292 C   0  0  0  0  0  0  0  0  0  0  0  0
    7.0589  -16.3083   25.6235 C   0  0  0  0  0  0  0  0  0  0  0  0
    6.0909  -15.4507   25.9905 N   0  0  0  0  0  0  0  0  0  0  0  0
    6.6314  -14.2365   26.1447 C   0  0  0  0  0  0  0  0  0  0  0  0
    6.0383  -13.0517   26.5238 C   0  0  0  0  0  0  0  0  0  0  0  0
    6.7911  -11.9047   26.6398 C   0  0  0  0  0  0  0  0  0  0  0  0
    8.1363  -11.9823   26.3678 C   0  0  0  0  0  0  0  0  0  0  0  0
    8.7006  -13.1627   25.9944 C   0  0  0  0  0  0  0  0  0  0  0  0
    7.9933  -14.3426   25.8615 C   0  0  0  0  0  0  0  0  0  0  0  0
   11.6466  -15.7593   23.8793 C   0  0  0  0  0  0  0  0  0  0  0  0
   12.3442  -15.1131   24.6969 O   0  0  0  0  0  0  0  0  0  0  0  0
   12.3481  -16.5779   22.9932 O   0  0  0  0  0  0  0  0  0  0  0  0
  1  2  1  0
  3  2  1  0
  4  3  1  0
  5  6  1  6
  5  4  1  0
  7  5  1  0
  8  7  2  0
  9  7  1  0
 10  9  1  0
 10 11  1  1
 11 12  1  0
 12 13  2  0
 13 14  1  0
 15 14  2  0
 16 15  1  0
 17 12  1  0
 17 16  2  0
 18 10  1  0
 19 18  2  0
 20 18  1  0
 21 20  1  0
 21 22  1  1
 22 23  1  0
 23 31  1  0
 24 23  2  0
 24 25  1  0
 25 26  1  0
 26 27  1  0
 27 28  2  0
 29 28  1  0
 30 29  2  0
 31 26  2  0
 31 30  1  0
 32 21  1  0
 32 34  1  0
 33 32  2  0
M  END
$$$$
