MFW.pdb
     RDKit          3D

 34 36  0  0  1  0  0  0  0  0999 V2000
    7.7017  -12.4412   16.7662 C   0  0  0  0  0  0  0  0  0  0  0  0
    7.4988  -14.0914   16.0444 S   0  0  0  0  0  0  0  0  0  0  0  0
    7.5713  -15.3584   17.3417 C   0  0  0  0  0  0  0  0  0  0  0  0
    8.0375  -14.7302   18.6550 C   0  0  0  0  0  0  0  0  0  0  0  0
    8.1359  -15.8506   19.6528 C   0  0  2  0  0  0  0  0  0  0  0  0
    6.8478  -16.5074   19.7053 N   0  0  0  0  0  0  0  0  0  0  0  0
    8.6028  -15.4109   20.9764 C   0  0  0  0  0  0  0  0  0  0  0  0
    8.9286  -14.2069   21.1448 O   0  0  0  0  0  0  0  0  0  0  0  0
    8.7240  -16.2410   22.1129 N   0  0  0  0  0  0  0  0  0  0  0  0
    9.1948  -15.7970   23.3853 C   0  0  1  0  0  0  0  0  0  0  0  0
    8.2732  -15.9129   24.5205 C   0  0  0  0  0  0  0  0  0  0  0  0
    7.7485  -14.6175   25.0286 C   0  0  0  0  0  0  0  0  0  0  0  0
    8.4121  -13.4174   24.7608 C   0  0  0  0  0  0  0  0  0  0  0  0
    7.9351  -12.2122   25.2280 C   0  0  0  0  0  0  0  0  0  0  0  0
    6.7717  -12.1345   25.9871 C   0  0  0  0  0  0  0  0  0  0  0  0
    6.1144  -13.3024   26.2551 C   0  0  0  0  0  0  0  0  0  0  0  0
    6.6014  -14.5056   25.7818 C   0  0  0  0  0  0  0  0  0  0  0  0
   10.4832  -16.4459   23.6938 C   0  0  0  0  0  0  0  0  0  0  0  0
   11.5825  -15.8820   23.3668 O   0  0  0  0  0  0  0  0  0  0  0  0
   10.6185  -17.7036   24.3595 N   0  0  0  0  0  0  0  0  0  0  0  0
   10.7692  -17.7527   25.8328 C   0  0  1  0  0  0  0  0  0  0  0  0
    9.5277  -17.1371   26.3850 C   0  0  0  0  0  0  0  0  0  0  0  0
    9.6798  -15.9195   27.1797 C   0  0  0  0  0  0  0  0  0  0  0  0
    9.3536  -14.6064   26.8373 C   0  0  0  0  0  0  0  0  0  0  0  0
    9.6786  -13.7688   27.8374 N   0  0  0  0  0  0  0  0  0  0  0  0
   10.2109  -14.4820   28.8364 C   0  0  0  0  0  0  0  0  0  0  0  0
   10.6765  -14.0640   30.0644 C   0  0  0  0  0  0  0  0  0  0  0  0
   11.1752  -14.9779   30.9653 C   0  0  0  0  0  0  0  0  0  0  0  0
   11.1919  -16.3035   30.6016 C   0  0  0  0  0  0  0  0  0  0  0  0
   10.7276  -16.6935   29.3837 C   0  0  0  0  0  0  0  0  0  0  0  0
   10.2177  -15.8200   28.4417 C   0  0  0  0  0  0  0  0  0  0  0  0
   10.9252  -19.1437   26.2310 C   0  0  0  0  0  0  0  0  0  0  0  0
   10.0963  -20.0119   25.8679 O   0  0  0  0  0  0  0  0  0  0  0  0
   11.9818  -19.6020   27.0191 O   0  0  0  0  0  0  0  0  0  0  0  0
  1  2  1  0
  3  2  1  0
  4  3  1  0
  5  6  1  1
  5  4  1  0
  7  5  1  0
  8  7  2  0
  9  7  1  0
 10  9  1  0
 10 11  1  1
 11 12  1  0
 12 13  2  0
 13 14  1  0
 15 14  2  0
 16 15  1  0
 17 12  1  0
 17 16  2  0
 18 10  1  0
 19 18  2  0
 20 18  1  0
 21 20  1  0
 21 22  1  1
 22 23  1  0
 23 31  1  0
 24 23  2  0
 24 25  1  0
 25 26  1  0
 26 27  1  0
 27 28  2  0
 29 28  1  0
 30 29  2  0
 31 26  2  0
 31 30  1  0
 32 21  1  0
 32 34  1  0
 33 32  2  0
M  END
$$$$
