MFW.pdb
     RDKit          3D

 34 36  0  0  1  0  0  0  0  0999 V2000
    9.8663  -16.8808   15.5650 C   0  0  0  0  0  0  0  0  0  0  0  0
    9.7676  -18.6571   15.9116 S   0  0  0  0  0  0  0  0  0  0  0  0
   10.0061  -18.9662   17.6840 C   0  0  0  0  0  0  0  0  0  0  0  0
    9.5067  -17.7680   18.4914 C   0  0  0  0  0  0  0  0  0  0  0  0
    9.7824  -18.0818   19.9357 C   0  0  2  0  0  0  0  0  0  0  0  0
    8.7277  -18.9537   20.4056 N   0  0  0  0  0  0  0  0  0  0  0  0
    9.9409  -16.8818   20.7713 C   0  0  0  0  0  0  0  0  0  0  0  0
   10.8922  -16.0915   20.5382 O   0  0  0  0  0  0  0  0  0  0  0  0
    9.0977  -16.5225   21.8461 N   0  0  0  0  0  0  0  0  0  0  0  0
    9.1816  -15.2856   22.5539 C   0  0  1  0  0  0  0  0  0  0  0  0
    8.0008  -14.4158   22.5289 C   0  0  0  0  0  0  0  0  0  0  0  0
    7.5810  -13.9785   21.1710 C   0  0  0  0  0  0  0  0  0  0  0  0
    6.6227  -14.6941   20.4486 C   0  0  0  0  0  0  0  0  0  0  0  0
    6.2279  -14.2982   19.1893 C   0  0  0  0  0  0  0  0  0  0  0  0
    6.7645  -13.1685   18.5796 C   0  0  0  0  0  0  0  0  0  0  0  0
    7.7027  -12.4608   19.2772 C   0  0  0  0  0  0  0  0  0  0  0  0
    8.0916  -12.8667   20.5394 C   0  0  0  0  0  0  0  0  0  0  0  0
    9.6141  -15.5346   23.9422 C   0  0  0  0  0  0  0  0  0  0  0  0
   10.1024  -14.5848   24.6443 O   0  0  0  0  0  0  0  0  0  0  0  0
    9.5282  -16.7987   24.6036 N   0  0  0  0  0  0  0  0  0  0  0  0
   10.0351  -16.9496   25.9878 C   0  0  1  0  0  0  0  0  0  0  0  0
    8.8233  -17.0142   26.8554 C   0  0  0  0  0  0  0  0  0  0  0  0
    7.8154  -15.9704   26.6774 C   0  0  0  0  0  0  0  0  0  0  0  0
    6.5000  -16.0938   26.2274 C   0  0  0  0  0  0  0  0  0  0  0  0
    5.9092  -14.8874   26.1759 N   0  0  0  0  0  0  0  0  0  0  0  0
    6.7889  -13.9630   26.5781 C   0  0  0  0  0  0  0  0  0  0  0  0
    6.6353  -12.5993   26.7051 C   0  0  0  0  0  0  0  0  0  0  0  0
    7.6773  -11.8229   27.1602 C   0  0  0  0  0  0  0  0  0  0  0  0
    8.8596  -12.4476   27.4791 C   0  0  0  0  0  0  0  0  0  0  0  0
    8.9890  -13.7954   27.3453 C   0  0  0  0  0  0  0  0  0  0  0  0
    7.9776  -14.6217   26.8931 C   0  0  0  0  0  0  0  0  0  0  0  0
   10.8320  -18.1655   26.0537 C   0  0  0  0  0  0  0  0  0  0  0  0
   10.8898  -18.9486   25.0758 O   0  0  0  0  0  0  0  0  0  0  0  0
   11.5742  -18.5363   27.1757 O   0  0  0  0  0  0  0  0  0  0  0  0
  1  2  1  0
  3  2  1  0
  4  3  1  0
  5  6  1  1
  5  4  1  0
  7  5  1  0
  8  7  2  0
  9  7  1  0
 10  9  1  0
 10 11  1  1
 11 12  1  0
 12 13  2  0
 13 14  1  0
 15 14  2  0
 16 15  1  0
 17 12  1  0
 17 16  2  0
 18 10  1  0
 19 18  2  0
 20 18  1  0
 21 20  1  0
 21 22  1  1
 22 23  1  0
 23 31  1  0
 24 23  2  0
 24 25  1  0
 25 26  1  0
 26 27  1  0
 27 28  2  0
 29 28  1  0
 30 29  2  0
 31 26  2  0
 31 30  1  0
 32 21  1  0
 32 34  1  0
 33 32  2  0
M  END
$$$$
