MFW.pdb
     RDKit          3D

 34 36  0  0  1  0  0  0  0  0999 V2000
    8.2354  -11.8462   17.5698 C   0  0  0  0  0  0  0  0  0  0  0  0
    8.0050  -13.2649   16.4656 S   0  0  0  0  0  0  0  0  0  0  0  0
    8.2489  -14.8161   17.3756 C   0  0  0  0  0  0  0  0  0  0  0  0
    9.2877  -14.6127   18.4786 C   0  0  0  0  0  0  0  0  0  0  0  0
    9.4279  -15.9342   19.1817 C   0  0  2  0  0  0  0  0  0  0  0  0
    8.4356  -16.8325   18.6321 N   0  0  0  0  0  0  0  0  0  0  0  0
    9.3453  -15.8252   20.6461 C   0  0  0  0  0  0  0  0  0  0  0  0
   10.3513  -15.4301   21.2910 O   0  0  0  0  0  0  0  0  0  0  0  0
    8.2053  -16.1331   21.4213 N   0  0  0  0  0  0  0  0  0  0  0  0
    8.0765  -15.8392   22.8123 C   0  0  1  0  0  0  0  0  0  0  0  0
    6.7203  -15.6400   23.3342 C   0  0  0  0  0  0  0  0  0  0  0  0
    6.6379  -14.7549   24.5262 C   0  0  0  0  0  0  0  0  0  0  0  0
    5.9668  -15.1639   25.6815 C   0  0  0  0  0  0  0  0  0  0  0  0
    5.8836  -14.3508   26.7907 C   0  0  0  0  0  0  0  0  0  0  0  0
    6.4635  -13.0863   26.8118 C   0  0  0  0  0  0  0  0  0  0  0  0
    7.1226  -12.6759   25.6871 C   0  0  0  0  0  0  0  0  0  0  0  0
    7.2001  -13.4991   24.5801 C   0  0  0  0  0  0  0  0  0  0  0  0
    8.7939  -16.8560   23.6046 C   0  0  0  0  0  0  0  0  0  0  0  0
    8.4670  -18.0884   23.5174 O   0  0  0  0  0  0  0  0  0  0  0  0
    9.8733  -16.5742   24.4983 N   0  0  0  0  0  0  0  0  0  0  0  0
   10.4557  -17.6570   25.3255 C   0  0  1  0  0  0  0  0  0  0  0  0
   11.6782  -17.0732   25.9500 C   0  0  0  0  0  0  0  0  0  0  0  0
   11.6014  -16.7142   27.3650 C   0  0  0  0  0  0  0  0  0  0  0  0
   11.6429  -17.5501   28.4819 C   0  0  0  0  0  0  0  0  0  0  0  0
   11.5099  -16.8298   29.6092 N   0  0  0  0  0  0  0  0  0  0  0  0
   11.3815  -15.5395   29.2795 C   0  0  0  0  0  0  0  0  0  0  0  0
   11.2344  -14.4351   30.0906 C   0  0  0  0  0  0  0  0  0  0  0  0
   11.1362  -13.1772   29.5394 C   0  0  0  0  0  0  0  0  0  0  0  0
   11.1893  -13.0638   28.1704 C   0  0  0  0  0  0  0  0  0  0  0  0
   11.3344  -14.1681   27.3889 C   0  0  0  0  0  0  0  0  0  0  0  0
   11.4369  -15.4528   27.8882 C   0  0  0  0  0  0  0  0  0  0  0  0
    9.4659  -18.0619   26.3125 C   0  0  0  0  0  0  0  0  0  0  0  0
    8.5211  -17.2984   26.6244 O   0  0  0  0  0  0  0  0  0  0  0  0
    9.4909  -19.2968   26.9619 O   0  0  0  0  0  0  0  0  0  0  0  0
  1  2  1  0
  3  2  1  0
  4  3  1  0
  5  6  1  6
  5  4  1  0
  7  5  1  0
  8  7  2  0
  9  7  1  0
 10  9  1  0
 10 11  1  1
 11 12  1  0
 12 13  2  0
 13 14  1  0
 15 14  2  0
 16 15  1  0
 17 12  1  0
 17 16  2  0
 18 10  1  0
 19 18  2  0
 20 18  1  0
 21 20  1  0
 21 22  1  1
 22 23  1  0
 23 31  1  0
 24 23  2  0
 24 25  1  0
 25 26  1  0
 26 27  1  0
 27 28  2  0
 29 28  1  0
 30 29  2  0
 31 26  2  0
 31 30  1  0
 32 21  1  0
 32 34  1  0
 33 32  2  0
M  END
$$$$
