MFW.pdb
     RDKit          3D

 34 36  0  0  1  0  0  0  0  0999 V2000
    8.9310  -18.1161   15.7035 C   0  0  0  0  0  0  0  0  0  0  0  0
   10.4239  -19.0244   16.1841 S   0  0  0  0  0  0  0  0  0  0  0  0
   10.4805  -19.2329   17.9861 C   0  0  0  0  0  0  0  0  0  0  0  0
   10.2971  -17.8785   18.6710 C   0  0  0  0  0  0  0  0  0  0  0  0
   10.3849  -18.1329   20.1502 C   0  0  2  0  0  0  0  0  0  0  0  0
    9.2772  -18.9889   20.5159 N   0  0  0  0  0  0  0  0  0  0  0  0
   10.4370  -16.8997   20.9500 C   0  0  0  0  0  0  0  0  0  0  0  0
   11.3626  -16.0721   20.7443 O   0  0  0  0  0  0  0  0  0  0  0  0
    9.5154  -16.5466   21.9606 N   0  0  0  0  0  0  0  0  0  0  0  0
    9.5547  -15.3205   22.6907 C   0  0  1  0  0  0  0  0  0  0  0  0
    8.3312  -14.5119   22.7122 C   0  0  0  0  0  0  0  0  0  0  0  0
    7.8778  -14.0370   21.3779 C   0  0  0  0  0  0  0  0  0  0  0  0
    8.2984  -12.8046   20.8714 C   0  0  0  0  0  0  0  0  0  0  0  0
    7.8831  -12.3549   19.6370 C   0  0  0  0  0  0  0  0  0  0  0  0
    7.0267  -13.1065   18.8386 C   0  0  0  0  0  0  0  0  0  0  0  0
    6.6090  -14.3138   19.3241 C   0  0  0  0  0  0  0  0  0  0  0  0
    7.0314  -14.7553   20.5633 C   0  0  0  0  0  0  0  0  0  0  0  0
   10.0347  -15.5730   24.0626 C   0  0  0  0  0  0  0  0  0  0  0  0
   10.7419  -14.6975   24.6684 O   0  0  0  0  0  0  0  0  0  0  0  0
    9.7640  -16.7607   24.8105 N   0  0  0  0  0  0  0  0  0  0  0  0
   10.2143  -16.8719   26.2178 C   0  0  1  0  0  0  0  0  0  0  0  0
    8.9730  -16.8154   27.0432 C   0  0  0  0  0  0  0  0  0  0  0  0
    7.9500  -15.8481   26.6494 C   0  0  0  0  0  0  0  0  0  0  0  0
    6.6810  -16.0857   26.1191 C   0  0  0  0  0  0  0  0  0  0  0  0
    6.0578  -14.9228   25.8611 N   0  0  0  0  0  0  0  0  0  0  0  0
    6.8709  -13.9169   26.2031 C   0  0  0  0  0  0  0  0  0  0  0  0
    6.6634  -12.5561   26.1343 C   0  0  0  0  0  0  0  0  0  0  0  0
    7.6385  -11.6829   26.5611 C   0  0  0  0  0  0  0  0  0  0  0  0
    8.8100  -12.2091   27.0515 C   0  0  0  0  0  0  0  0  0  0  0  0
    8.9935  -13.5560   27.1096 C   0  0  0  0  0  0  0  0  0  0  0  0
    8.0502  -14.4770   26.6947 C   0  0  0  0  0  0  0  0  0  0  0  0
   10.9282  -18.1307   26.3721 C   0  0  0  0  0  0  0  0  0  0  0  0
   11.4258  -18.4550   27.4766 O   0  0  0  0  0  0  0  0  0  0  0  0
   11.1016  -19.0463   25.3334 O   0  0  0  0  0  0  0  0  0  0  0  0
  1  2  1  0
  3  2  1  0
  4  3  1  0
  5  6  1  1
  5  4  1  0
  7  5  1  0
  8  7  2  0
  9  7  1  0
 10  9  1  0
 10 11  1  1
 11 12  1  0
 12 13  2  0
 13 14  1  0
 15 14  2  0
 16 15  1  0
 17 12  1  0
 17 16  2  0
 18 10  1  0
 19 18  2  0
 20 18  1  0
 21 20  1  0
 21 22  1  1
 22 23  1  0
 23 31  1  0
 24 23  2  0
 24 25  1  0
 25 26  1  0
 26 27  1  0
 27 28  2  0
 29 28  1  0
 30 29  2  0
 31 26  2  0
 31 30  1  0
 32 21  1  0
 32 34  1  0
 33 32  2  0
M  END
$$$$
