MFW.pdb
     RDKit          3D

 34 36  0  0  1  0  0  0  0  0999 V2000
   13.3792  -20.5880   19.0738 C   0  0  0  0  0  0  0  0  0  0  0  0
   11.7298  -21.1132   18.5367 S   0  0  0  0  0  0  0  0  0  0  0  0
   10.4590  -20.3961   19.6159 C   0  0  0  0  0  0  0  0  0  0  0  0
   10.6827  -18.8899   19.7508 C   0  0  0  0  0  0  0  0  0  0  0  0
    9.6461  -18.3895   20.7182 C   0  0  2  0  0  0  0  0  0  0  0  0
    8.4018  -18.2453   19.9941 N   0  0  0  0  0  0  0  0  0  0  0  0
   10.0455  -17.1551   21.4111 C   0  0  0  0  0  0  0  0  0  0  0  0
   11.1613  -16.6357   21.1477 O   0  0  0  0  0  0  0  0  0  0  0  0
    9.2686  -16.4767   22.3761 N   0  0  0  0  0  0  0  0  0  0  0  0
    9.6150  -15.2127   22.9421 C   0  0  1  0  0  0  0  0  0  0  0  0
    8.5882  -14.1655   22.9263 C   0  0  0  0  0  0  0  0  0  0  0  0
    8.1733  -13.7237   21.5684 C   0  0  0  0  0  0  0  0  0  0  0  0
    8.8635  -12.7098   20.8991 C   0  0  0  0  0  0  0  0  0  0  0  0
    8.4864  -12.2923   19.6414 C   0  0  0  0  0  0  0  0  0  0  0  0
    7.4020  -12.8605   18.9802 C   0  0  0  0  0  0  0  0  0  0  0  0
    6.7196  -13.8533   19.6256 C   0  0  0  0  0  0  0  0  0  0  0  0
    7.1061  -14.2644   20.8868 C   0  0  0  0  0  0  0  0  0  0  0  0
   10.1396  -15.4054   24.3073 C   0  0  0  0  0  0  0  0  0  0  0  0
   10.8314  -14.4877   24.8665 O   0  0  0  0  0  0  0  0  0  0  0  0
    9.9306  -16.5776   25.0982 N   0  0  0  0  0  0  0  0  0  0  0  0
   10.4682  -16.6498   26.4771 C   0  0  1  0  0  0  0  0  0  0  0  0
    9.3923  -16.1087   27.3574 C   0  0  0  0  0  0  0  0  0  0  0  0
    8.1316  -15.7320   26.7204 C   0  0  0  0  0  0  0  0  0  0  0  0
    7.2634  -16.5226   25.9659 C   0  0  0  0  0  0  0  0  0  0  0  0
    6.2246  -15.7894   25.5294 N   0  0  0  0  0  0  0  0  0  0  0  0
    6.3721  -14.5345   25.9695 C   0  0  0  0  0  0  0  0  0  0  0  0
    5.5572  -13.4378   25.7889 C   0  0  0  0  0  0  0  0  0  0  0  0
    5.8902  -12.2257   26.3508 C   0  0  0  0  0  0  0  0  0  0  0  0
    7.0481  -12.1495   27.0879 C   0  0  0  0  0  0  0  0  0  0  0  0
    7.8378  -13.2450   27.2525 C   0  0  0  0  0  0  0  0  0  0  0  0
    7.5527  -14.4843   26.7112 C   0  0  0  0  0  0  0  0  0  0  0  0
   10.7835  -18.0393   26.7736 C   0  0  0  0  0  0  0  0  0  0  0  0
   11.2792  -18.3630   27.8792 O   0  0  0  0  0  0  0  0  0  0  0  0
   10.5583  -19.0849   25.8773 O   0  0  0  0  0  0  0  0  0  0  0  0
  1  2  1  0
  3  2  1  0
  4  3  1  0
  5  6  1  6
  5  4  1  0
  7  5  1  0
  8  7  2  0
  9  7  1  0
 10  9  1  0
 10 11  1  1
 11 12  1  0
 12 13  2  0
 13 14  1  0
 15 14  2  0
 16 15  1  0
 17 12  1  0
 17 16  2  0
 18 10  1  0
 19 18  2  0
 20 18  1  0
 21 20  1  0
 21 22  1  1
 22 23  1  0
 23 31  1  0
 24 23  2  0
 24 25  1  0
 25 26  1  0
 26 27  1  0
 27 28  2  0
 29 28  1  0
 30 29  2  0
 31 26  2  0
 31 30  1  0
 32 21  1  0
 32 34  1  0
 33 32  2  0
M  END
$$$$
