MFW.pdb
     RDKit          3D

 34 36  0  0  1  0  0  0  0  0999 V2000
   14.1649  -17.4952   17.2586 C   0  0  0  0  0  0  0  0  0  0  0  0
   13.0605  -18.8395   16.7505 S   0  0  0  0  0  0  0  0  0  0  0  0
   11.3283  -18.3578   16.9978 C   0  0  0  0  0  0  0  0  0  0  0  0
   11.2232  -17.3840   18.1715 C   0  0  0  0  0  0  0  0  0  0  0  0
   10.0262  -17.8114   18.9747 C   0  0  2  0  0  0  0  0  0  0  0  0
    8.8578  -17.6681   18.1334 N   0  0  0  0  0  0  0  0  0  0  0  0
    9.8970  -17.0939   20.2521 C   0  0  0  0  0  0  0  0  0  0  0  0
   10.8357  -17.1532   21.0883 O   0  0  0  0  0  0  0  0  0  0  0  0
    8.7811  -16.3198   20.6405 N   0  0  0  0  0  0  0  0  0  0  0  0
    8.6331  -15.7109   21.9232 C   0  0  1  0  0  0  0  0  0  0  0  0
    7.6104  -14.6682   22.0580 C   0  0  0  0  0  0  0  0  0  0  0  0
    7.4054  -14.1760   23.4462 C   0  0  0  0  0  0  0  0  0  0  0  0
    7.9631  -12.9675   23.8711 C   0  0  0  0  0  0  0  0  0  0  0  0
    7.7802  -12.5033   25.1554 C   0  0  0  0  0  0  0  0  0  0  0  0
    7.0324  -13.2158   26.0876 C   0  0  0  0  0  0  0  0  0  0  0  0
    6.4822  -14.3995   25.6827 C   0  0  0  0  0  0  0  0  0  0  0  0
    6.6718  -14.8559   24.3925 C   0  0  0  0  0  0  0  0  0  0  0  0
    8.4509  -16.7533   22.9511 C   0  0  0  0  0  0  0  0  0  0  0  0
    8.0631  -17.9247   22.6182 O   0  0  0  0  0  0  0  0  0  0  0  0
    8.6838  -16.5633   24.3485 N   0  0  0  0  0  0  0  0  0  0  0  0
    9.6801  -17.4008   25.0569 C   0  0  1  0  0  0  0  0  0  0  0  0
   10.6450  -16.4442   25.6726 C   0  0  0  0  0  0  0  0  0  0  0  0
   10.7755  -16.4681   27.1285 C   0  0  0  0  0  0  0  0  0  0  0  0
   11.2267  -17.5036   27.9483 C   0  0  0  0  0  0  0  0  0  0  0  0
   11.1648  -17.1369   29.2402 N   0  0  0  0  0  0  0  0  0  0  0  0
   10.6870  -15.8890   29.3080 C   0  0  0  0  0  0  0  0  0  0  0  0
   10.4621  -15.0922   30.4097 C   0  0  0  0  0  0  0  0  0  0  0  0
    9.9759  -13.8135   30.2538 C   0  0  0  0  0  0  0  0  0  0  0  0
    9.7262  -13.3663   28.9781 C   0  0  0  0  0  0  0  0  0  0  0  0
    9.9551  -14.1706   27.9049 C   0  0  0  0  0  0  0  0  0  0  0  0
   10.4410  -15.4607   28.0033 C   0  0  0  0  0  0  0  0  0  0  0  0
    8.9810  -18.2025   26.0501 C   0  0  0  0  0  0  0  0  0  0  0  0
    9.5535  -19.1630   26.6180 O   0  0  0  0  0  0  0  0  0  0  0  0
    7.6615  -17.9648   26.4370 O   0  0  0  0  0  0  0  0  0  0  0  0
  1  2  1  0
  3  2  1  0
  4  3  1  0
  5  6  1  6
  5  4  1  0
  7  5  1  0
  8  7  2  0
  9  7  1  0
 10  9  1  0
 10 11  1  6
 11 12  1  0
 12 13  2  0
 13 14  1  0
 15 14  2  0
 16 15  1  0
 17 12  1  0
 17 16  2  0
 18 10  1  0
 19 18  2  0
 20 18  1  0
 21 20  1  0
 21 22  1  1
 22 23  1  0
 23 31  1  0
 24 23  2  0
 24 25  1  0
 25 26  1  0
 26 27  1  0
 27 28  2  0
 29 28  1  0
 30 29  2  0
 31 26  2  0
 31 30  1  0
 32 21  1  0
 32 34  1  0
 33 32  2  0
M  END
$$$$
