MFW.pdb
     RDKit          3D

 34 36  0  0  1  0  0  0  0  0999 V2000
   11.3287  -17.1952   15.7344 C   0  0  0  0  0  0  0  0  0  0  0  0
    9.9042  -17.9234   14.8827 S   0  0  0  0  0  0  0  0  0  0  0  0
    8.8562  -18.8191   16.0630 C   0  0  0  0  0  0  0  0  0  0  0  0
    8.7234  -18.0125   17.3549 C   0  0  0  0  0  0  0  0  0  0  0  0
    7.8047  -18.7934   18.2530 C   0  0  2  0  0  0  0  0  0  0  0  0
    6.5380  -18.9375   17.5686 N   0  0  0  0  0  0  0  0  0  0  0  0
    7.6617  -18.2036   19.5927 C   0  0  0  0  0  0  0  0  0  0  0  0
    6.8966  -17.2169   19.7516 O   0  0  0  0  0  0  0  0  0  0  0  0
    8.3249  -18.6556   20.7551 N   0  0  0  0  0  0  0  0  0  0  0  0
    8.1237  -18.1091   22.0585 C   0  0  1  0  0  0  0  0  0  0  0  0
    7.2658  -18.8636   22.9783 C   0  0  0  0  0  0  0  0  0  0  0  0
    7.1882  -18.3044   24.3540 C   0  0  0  0  0  0  0  0  0  0  0  0
    6.3882  -17.1940   24.6355 C   0  0  0  0  0  0  0  0  0  0  0  0
    6.3104  -16.6674   25.9064 C   0  0  0  0  0  0  0  0  0  0  0  0
    7.0240  -17.2166   26.9670 C   0  0  0  0  0  0  0  0  0  0  0  0
    7.8099  -18.3031   26.7030 C   0  0  0  0  0  0  0  0  0  0  0  0
    7.8808  -18.8232   25.4250 C   0  0  0  0  0  0  0  0  0  0  0  0
    9.4281  -17.8198   22.6839 C   0  0  0  0  0  0  0  0  0  0  0  0
   10.0393  -18.7260   23.3464 O   0  0  0  0  0  0  0  0  0  0  0  0
   10.1021  -16.5616   22.6085 N   0  0  0  0  0  0  0  0  0  0  0  0
   10.8695  -16.0583   23.7720 C   0  0  1  0  0  0  0  0  0  0  0  0
    9.8513  -15.7046   24.8032 C   0  0  0  0  0  0  0  0  0  0  0  0
    8.8734  -14.6756   24.4540 C   0  0  0  0  0  0  0  0  0  0  0  0
    8.3963  -14.3159   23.1927 C   0  0  0  0  0  0  0  0  0  0  0  0
    7.5252  -13.2972   23.2962 N   0  0  0  0  0  0  0  0  0  0  0  0
    7.4058  -12.9663   24.5870 C   0  0  0  0  0  0  0  0  0  0  0  0
    6.6232  -11.9978   25.1778 C   0  0  0  0  0  0  0  0  0  0  0  0
    6.6366  -11.8331   26.5447 C   0  0  0  0  0  0  0  0  0  0  0  0
    7.4470  -12.6575   27.2887 C   0  0  0  0  0  0  0  0  0  0  0  0
    8.2117  -13.6066   26.6842 C   0  0  0  0  0  0  0  0  0  0  0  0
    8.2377  -13.8147   25.3181 C   0  0  0  0  0  0  0  0  0  0  0  0
   11.7696  -17.1117   24.2171 C   0  0  0  0  0  0  0  0  0  0  0  0
   12.9004  -16.8348   24.6835 O   0  0  0  0  0  0  0  0  0  0  0  0
   11.4477  -18.4685   24.1648 O   0  0  0  0  0  0  0  0  0  0  0  0
  1  2  1  0
  3  2  1  0
  4  3  1  0
  5  6  1  6
  5  4  1  0
  7  5  1  0
  8  7  2  0
  9  7  1  0
 10  9  1  0
 10 11  1  1
 11 12  1  0
 12 13  2  0
 13 14  1  0
 15 14  2  0
 16 15  1  0
 17 12  1  0
 17 16  2  0
 18 10  1  0
 19 18  2  0
 20 18  1  0
 21 20  1  0
 21 22  1  1
 22 23  1  0
 23 31  1  0
 24 23  2  0
 24 25  1  0
 25 26  1  0
 26 27  1  0
 27 28  2  0
 29 28  1  0
 30 29  2  0
 31 26  2  0
 31 30  1  0
 32 21  1  0
 32 34  1  0
 33 32  2  0
M  END
$$$$
