WTL.pdb
     RDKit          3D

 30 31  0  0  1  0  0  0  0  0999 V2000
    7.9141  -17.7601   21.4628 N   0  0  0  0  0  0  0  0  0  0  0  0
    9.2560  -17.4745   21.9088 C   0  0  1  0  0  0  0  0  0  0  0  0
    9.4403  -16.0131   22.0757 C   0  0  0  0  0  0  0  0  0  0  0  0
    9.0726  -15.2352   20.8769 C   0  0  0  0  0  0  0  0  0  0  0  0
    9.2366  -15.6307   19.5485 C   0  0  0  0  0  0  0  0  0  0  0  0
    8.7516  -14.6688   18.7498 N   0  0  0  0  0  0  0  0  0  0  0  0
    8.2621  -13.6292   19.4792 C   0  0  0  0  0  0  0  0  0  0  0  0
    7.6819  -12.4350   19.1226 C   0  0  0  0  0  0  0  0  0  0  0  0
    7.2803  -11.5447   20.0850 C   0  0  0  0  0  0  0  0  0  0  0  0
    7.4696  -11.8697   21.4075 C   0  0  0  0  0  0  0  0  0  0  0  0
    8.0529  -13.0723   21.7429 C   0  0  0  0  0  0  0  0  0  0  0  0
    8.4723  -14.0012   20.8121 C   0  0  0  0  0  0  0  0  0  0  0  0
    9.4297  -18.0800   23.2816 C   0  0  0  0  0  0  0  0  0  0  0  0
    8.4657  -18.1439   24.0850 O   0  0  0  0  0  0  0  0  0  0  0  0
   11.4195  -21.2644   24.1136 C   0  0  0  0  0  0  0  0  0  0  0  0
   11.7974  -20.2221   25.1453 C   0  0  1  0  0  0  0  0  0  0  0  0
   13.0202  -19.6892   24.6467 O   0  0  0  0  0  0  0  0  0  0  0  0
   10.7997  -19.0967   25.0900 C   0  0  2  0  0  0  0  0  0  0  0  0
   10.6667  -18.5985   23.7265 N   0  0  0  0  0  0  0  0  0  0  0  0
   11.1615  -17.9303   25.9363 C   0  0  0  0  0  0  0  0  0  0  0  0
   11.2817  -16.7614   25.4057 O   0  0  0  0  0  0  0  0  0  0  0  0
    8.9780  -13.7899   27.7763 C   0  0  0  0  0  0  0  0  0  0  0  0
   10.1191  -14.7165   27.3212 C   0  0  2  0  0  0  0  0  0  0  0  0
   10.2729  -14.5362   25.8386 C   0  0  0  0  0  0  0  0  0  0  0  0
    9.8244  -16.1309   27.7093 C   0  0  0  0  0  0  0  0  0  0  0  0
   11.0623  -16.8207   28.1833 C   0  0  2  0  0  0  0  0  0  0  0  0
   11.3988  -17.9591   27.3264 N   0  0  0  0  0  0  0  0  0  0  0  0
   11.0913  -17.1779   29.6014 C   0  0  0  0  0  0  0  0  0  0  0  0
   10.9917  -18.4237   30.1549 O   0  0  0  0  0  0  0  0  0  0  0  0
   11.2243  -16.2201   30.4464 O   0  0  0  0  0  0  0  0  0  0  0  0
  2  1  1  1
  2 13  1  0
  3  2  1  0
  3  4  1  0
  4 12  1  0
  4  5  2  0
  5  6  1  0
  7  6  1  0
  7  8  2  0
  9  8  1  0
 10  9  2  0
 11 12  2  0
 11 10  1  0
 12  7  1  0
 13 14  2  0
 16 15  1  6
 17 16  1  0
 18 16  1  0
 19 13  1  0
 18 19  1  6
 20 18  1  0
 20 21  2  0
 23 22  1  6
 23 25  1  0
 24 23  1  0
 26 28  1  0
 26 25  1  6
 26 27  1  0
 27 20  1  0
 28 29  1  0
 30 28  2  0
M  END
$$$$
