WTL.pdb
     RDKit          3D

 30 31  0  0  1  0  0  0  0  0999 V2000
    6.0355  -17.8674   24.3111 N   0  0  0  0  0  0  0  0  0  0  0  0
    7.1877  -17.0639   23.9826 C   0  0  1  0  0  0  0  0  0  0  0  0
    7.3267  -15.9484   24.9489 C   0  0  0  0  0  0  0  0  0  0  0  0
    6.7801  -14.6709   24.4521 C   0  0  0  0  0  0  0  0  0  0  0  0
    5.7445  -13.9322   25.0265 C   0  0  0  0  0  0  0  0  0  0  0  0
    5.5598  -12.8167   24.3054 N   0  0  0  0  0  0  0  0  0  0  0  0
    6.4282  -12.7626   23.2588 C   0  0  0  0  0  0  0  0  0  0  0  0
    6.6188  -11.8423   22.2554 C   0  0  0  0  0  0  0  0  0  0  0  0
    7.5814  -12.0469   21.3007 C   0  0  0  0  0  0  0  0  0  0  0  0
    8.3479  -13.1865   21.3673 C   0  0  0  0  0  0  0  0  0  0  0  0
    8.1404  -14.0959   22.3817 C   0  0  0  0  0  0  0  0  0  0  0  0
    7.1860  -13.9345   23.3657 C   0  0  0  0  0  0  0  0  0  0  0  0
    8.4186  -17.9229   24.1517 C   0  0  0  0  0  0  0  0  0  0  0  0
    8.4902  -18.7726   25.0745 O   0  0  0  0  0  0  0  0  0  0  0  0
   11.1531  -19.0934   21.4036 C   0  0  0  0  0  0  0  0  0  0  0  0
   11.7945  -18.3565   22.5609 C   0  0  1  0  0  0  0  0  0  0  0  0
   11.8811  -17.0143   22.0929 O   0  0  0  0  0  0  0  0  0  0  0  0
   10.8320  -18.3326   23.7176 C   0  0  2  0  0  0  0  0  0  0  0  0
    9.5361  -17.8172   23.2932 N   0  0  0  0  0  0  0  0  0  0  0  0
   11.2771  -17.4836   24.8527 C   0  0  0  0  0  0  0  0  0  0  0  0
   11.6829  -16.2791   24.6365 O   0  0  0  0  0  0  0  0  0  0  0  0
    9.1881  -14.2516   28.3584 C   0  0  0  0  0  0  0  0  0  0  0  0
   10.5532  -14.9612   28.3852 C   0  0  2  0  0  0  0  0  0  0  0  0
   11.5855  -13.9253   28.7253 C   0  0  0  0  0  0  0  0  0  0  0  0
   10.8129  -15.6353   27.0751 C   0  0  0  0  0  0  0  0  0  0  0  0
   11.5873  -16.8980   27.2716 C   0  0  2  0  0  0  0  0  0  0  0  0
   11.3054  -17.8661   26.2101 N   0  0  0  0  0  0  0  0  0  0  0  0
   11.4959  -17.5032   28.6002 C   0  0  0  0  0  0  0  0  0  0  0  0
   10.9355  -18.7029   28.9388 O   0  0  0  0  0  0  0  0  0  0  0  0
   11.9953  -16.8435   29.5823 O   0  0  0  0  0  0  0  0  0  0  0  0
  2  1  1  1
  2 13  1  0
  3  2  1  0
  3  4  1  0
  4 12  1  0
  4  5  2  0
  5  6  1  0
  7  6  1  0
  7  8  2  0
  9  8  1  0
 10  9  2  0
 11 12  2  0
 11 10  1  0
 12  7  1  0
 13 14  2  0
 16 15  1  6
 17 16  1  0
 18 16  1  0
 19 13  1  0
 18 19  1  6
 20 18  1  0
 20 21  2  0
 23 22  1  6
 23 25  1  0
 24 23  1  0
 26 28  1  0
 26 25  1  1
 26 27  1  0
 27 20  1  0
 28 29  1  0
 30 28  2  0
M  END
$$$$
