WTL.pdb
     RDKit          3D

 30 31  0  0  1  0  0  0  0  0999 V2000
    8.7256  -18.3465   20.3658 N   0  0  0  0  0  0  0  0  0  0  0  0
    8.7341  -17.1843   21.2206 C   0  0  1  0  0  0  0  0  0  0  0  0
    7.4154  -16.5084   21.1793 C   0  0  0  0  0  0  0  0  0  0  0  0
    7.2669  -15.5820   20.0404 C   0  0  0  0  0  0  0  0  0  0  0  0
    6.6618  -15.8641   18.8147 C   0  0  0  0  0  0  0  0  0  0  0  0
    6.6923  -14.7594   18.0550 N   0  0  0  0  0  0  0  0  0  0  0  0
    7.2952  -13.7313   18.7122 C   0  0  0  0  0  0  0  0  0  0  0  0
    7.5659  -12.4314   18.3559 C   0  0  0  0  0  0  0  0  0  0  0  0
    8.2099  -11.5930   19.2291 C   0  0  0  0  0  0  0  0  0  0  0  0
    8.5780  -12.0776   20.4621 C   0  0  0  0  0  0  0  0  0  0  0  0
    8.2968  -13.3839   20.7990 C   0  0  0  0  0  0  0  0  0  0  0  0
    7.6501  -14.2654   19.9564 C   0  0  0  0  0  0  0  0  0  0  0  0
    8.9219  -17.6538   22.6439 C   0  0  0  0  0  0  0  0  0  0  0  0
    8.1790  -18.5409   23.1337 O   0  0  0  0  0  0  0  0  0  0  0  0
   10.9465  -19.7647   24.0751 C   0  0  0  0  0  0  0  0  0  0  0  0
   11.2121  -18.5704   24.9677 C   0  0  1  0  0  0  0  0  0  0  0  0
   12.3204  -17.9295   24.3440 O   0  0  0  0  0  0  0  0  0  0  0  0
   10.0585  -17.6105   24.8545 C   0  0  2  0  0  0  0  0  0  0  0  0
    9.9281  -17.1279   23.4852 N   0  0  0  0  0  0  0  0  0  0  0  0
   10.1888  -16.4092   25.7190 C   0  0  0  0  0  0  0  0  0  0  0  0
   10.9408  -15.4286   25.3511 O   0  0  0  0  0  0  0  0  0  0  0  0
    6.8384  -12.7520   27.9102 C   0  0  0  0  0  0  0  0  0  0  0  0
    7.9987  -13.5581   27.3006 C   0  0  2  0  0  0  0  0  0  0  0  0
    7.4354  -14.3520   26.1575 C   0  0  0  0  0  0  0  0  0  0  0  0
    8.6400  -14.4151   28.3458 C   0  0  0  0  0  0  0  0  0  0  0  0
    9.8751  -15.0667   27.8141 C   0  0  2  0  0  0  0  0  0  0  0  0
    9.5483  -16.2098   26.9598 N   0  0  0  0  0  0  0  0  0  0  0  0
   10.8981  -15.4008   28.8048 C   0  0  0  0  0  0  0  0  0  0  0  0
   11.6865  -14.5425   29.5188 O   0  0  0  0  0  0  0  0  0  0  0  0
   11.0969  -16.6460   29.0477 O   0  0  0  0  0  0  0  0  0  0  0  0
  2  1  1  6
  2 13  1  0
  3  2  1  0
  3  4  1  0
  4 12  1  0
  4  5  2  0
  5  6  1  0
  7  6  1  0
  7  8  2  0
  9  8  1  0
 10  9  2  0
 11 12  2  0
 11 10  1  0
 12  7  1  0
 13 14  2  0
 16 15  1  6
 17 16  1  0
 18 16  1  0
 19 13  1  0
 18 19  1  6
 20 18  1  0
 20 21  2  0
 23 22  1  1
 23 25  1  0
 24 23  1  0
 26 28  1  0
 26 25  1  1
 26 27  1  0
 27 20  1  0
 28 29  1  0
 30 28  2  0
M  END
$$$$
