WTL.pdb
     RDKit          3D

 30 31  0  0  1  0  0  0  0  0999 V2000
    9.2341  -16.0035   21.3345 N   0  0  0  0  0  0  0  0  0  0  0  0
    9.2758  -15.9707   22.7762 C   0  0  1  0  0  0  0  0  0  0  0  0
    7.9005  -15.9897   23.3291 C   0  0  0  0  0  0  0  0  0  0  0  0
    7.2197  -14.6827   23.2525 C   0  0  0  0  0  0  0  0  0  0  0  0
    6.7118  -14.0778   22.1017 C   0  0  0  0  0  0  0  0  0  0  0  0
    6.1375  -12.9153   22.4440 N   0  0  0  0  0  0  0  0  0  0  0  0
    6.2325  -12.6998   23.7845 C   0  0  0  0  0  0  0  0  0  0  0  0
    5.8120  -11.6703   24.5928 C   0  0  0  0  0  0  0  0  0  0  0  0
    6.0541  -11.7049   25.9419 C   0  0  0  0  0  0  0  0  0  0  0  0
    6.7234  -12.7853   26.4667 C   0  0  0  0  0  0  0  0  0  0  0  0
    7.1359  -13.8066   25.6385 C   0  0  0  0  0  0  0  0  0  0  0  0
    6.9151  -13.8185   24.2760 C   0  0  0  0  0  0  0  0  0  0  0  0
    9.9384  -17.2417   23.2525 C   0  0  0  0  0  0  0  0  0  0  0  0
    9.9993  -18.2542   22.5109 O   0  0  0  0  0  0  0  0  0  0  0  0
   11.9336  -18.6703   22.4481 C   0  0  0  0  0  0  0  0  0  0  0  0
   12.5256  -18.5372   23.8357 C   0  0  1  0  0  0  0  0  0  0  0  0
   13.1196  -17.2430   23.8207 O   0  0  0  0  0  0  0  0  0  0  0  0
   11.4062  -18.4698   24.8393 C   0  0  2  0  0  0  0  0  0  0  0  0
   10.5157  -17.3559   24.5373 N   0  0  0  0  0  0  0  0  0  0  0  0
   11.8649  -18.2808   26.2398 C   0  0  0  0  0  0  0  0  0  0  0  0
   12.6343  -19.1569   26.7901 O   0  0  0  0  0  0  0  0  0  0  0  0
   12.1628  -14.4946   27.3665 C   0  0  0  0  0  0  0  0  0  0  0  0
   10.9360  -14.9597   28.1705 C   0  0  2  0  0  0  0  0  0  0  0  0
   10.3160  -13.7365   28.7819 C   0  0  0  0  0  0  0  0  0  0  0  0
   11.3392  -15.9798   29.1878 C   0  0  0  0  0  0  0  0  0  0  0  0
   11.7111  -17.2686   28.5294 C   0  0  2  0  0  0  0  0  0  0  0  0
   11.5379  -17.1941   27.0775 N   0  0  0  0  0  0  0  0  0  0  0  0
   11.0989  -18.4726   29.0908 C   0  0  0  0  0  0  0  0  0  0  0  0
   11.2849  -19.0060   30.3354 O   0  0  0  0  0  0  0  0  0  0  0  0
   10.2858  -19.1237   28.3397 O   0  0  0  0  0  0  0  0  0  0  0  0
  2  1  1  6
  2 13  1  0
  3  2  1  0
  3  4  1  0
  4 12  1  0
  4  5  2  0
  5  6  1  0
  7  6  1  0
  7  8  2  0
  9  8  1  0
 10  9  2  0
 11 12  2  0
 11 10  1  0
 12  7  1  0
 13 14  2  0
 16 15  1  6
 17 16  1  0
 18 16  1  0
 19 13  1  0
 18 19  1  6
 20 18  1  0
 20 21  2  0
 23 22  1  1
 23 25  1  0
 24 23  1  0
 26 28  1  0
 26 25  1  1
 26 27  1  0
 27 20  1  0
 28 29  1  0
 30 28  2  0
M  END
$$$$
