WTL.pdb
     RDKit          3D

 30 31  0  0  1  0  0  0  0  0999 V2000
    6.6177  -16.9845   23.7755 N   0  0  0  0  0  0  0  0  0  0  0  0
    7.7888  -16.1935   23.4853 C   0  0  1  0  0  0  0  0  0  0  0  0
    8.0627  -15.2557   24.6001 C   0  0  0  0  0  0  0  0  0  0  0  0
    6.8766  -14.4874   25.0248 C   0  0  0  0  0  0  0  0  0  0  0  0
    5.6940  -15.0099   25.5504 C   0  0  0  0  0  0  0  0  0  0  0  0
    4.8686  -13.9951   25.8458 N   0  0  0  0  0  0  0  0  0  0  0  0
    5.4395  -12.7973   25.5426 C   0  0  0  0  0  0  0  0  0  0  0  0
    4.9957  -11.5010   25.6543 C   0  0  0  0  0  0  0  0  0  0  0  0
    5.7917  -10.4588   25.2541 C   0  0  0  0  0  0  0  0  0  0  0  0
    7.0368  -10.7362   24.7408 C   0  0  0  0  0  0  0  0  0  0  0  0
    7.4621  -12.0429   24.6378 C   0  0  0  0  0  0  0  0  0  0  0  0
    6.6991  -13.1251   25.0278 C   0  0  0  0  0  0  0  0  0  0  0  0
    8.9757  -17.1252   23.4178 C   0  0  0  0  0  0  0  0  0  0  0  0
    8.9427  -18.1614   22.7078 O   0  0  0  0  0  0  0  0  0  0  0  0
   10.4715  -17.9786   21.6565 C   0  0  0  0  0  0  0  0  0  0  0  0
   11.7168  -17.7976   22.4990 C   0  0  1  0  0  0  0  0  0  0  0  0
   12.1534  -16.4830   22.1686 O   0  0  0  0  0  0  0  0  0  0  0  0
   11.3217  -17.7525   23.9505 C   0  0  2  0  0  0  0  0  0  0  0  0
   10.1668  -16.8831   24.1386 N   0  0  0  0  0  0  0  0  0  0  0  0
   12.3896  -17.2426   24.8488 C   0  0  0  0  0  0  0  0  0  0  0  0
   13.0234  -16.1610   24.5478 O   0  0  0  0  0  0  0  0  0  0  0  0
   11.7094  -15.0109   28.3788 C   0  0  0  0  0  0  0  0  0  0  0  0
   10.8234  -15.4594   27.2033 C   0  0  2  0  0  0  0  0  0  0  0  0
    9.4643  -14.8582   27.4172 C   0  0  0  0  0  0  0  0  0  0  0  0
   10.7936  -16.9526   27.1168 C   0  0  0  0  0  0  0  0  0  0  0  0
   12.1575  -17.5244   27.3302 C   0  0  2  0  0  0  0  0  0  0  0  0
   12.8083  -17.8384   26.0568 N   0  0  0  0  0  0  0  0  0  0  0  0
   12.2428  -18.6373   28.2755 C   0  0  0  0  0  0  0  0  0  0  0  0
   12.6710  -18.6049   29.5731 O   0  0  0  0  0  0  0  0  0  0  0  0
   11.8774  -19.7946   27.8558 O   0  0  0  0  0  0  0  0  0  0  0  0
  2  1  1  1
  2 13  1  0
  3  2  1  0
  3  4  1  0
  4 12  1  0
  4  5  2  0
  5  6  1  0
  7  6  1  0
  7  8  2  0
  9  8  1  0
 10  9  2  0
 11 12  2  0
 11 10  1  0
 12  7  1  0
 13 14  2  0
 16 15  1  6
 17 16  1  0
 18 16  1  0
 19 13  1  0
 18 19  1  6
 20 18  1  0
 20 21  2  0
 23 22  1  1
 23 25  1  0
 24 23  1  0
 26 28  1  0
 26 25  1  6
 26 27  1  0
 27 20  1  0
 28 29  1  0
 30 28  2  0
M  END
$$$$
