WTL.pdb
     RDKit          3D

 30 31  0  0  1  0  0  0  0  0999 V2000
    6.0137  -17.0527   24.5556 N   0  0  0  0  0  0  0  0  0  0  0  0
    7.2014  -16.2583   24.3564 C   0  0  1  0  0  0  0  0  0  0  0  0
    7.5366  -15.5182   25.5963 C   0  0  0  0  0  0  0  0  0  0  0  0
    6.6583  -14.3581   25.8422 C   0  0  0  0  0  0  0  0  0  0  0  0
    5.4553  -14.3634   26.5499 C   0  0  0  0  0  0  0  0  0  0  0  0
    4.9709  -13.1134   26.5850 N   0  0  0  0  0  0  0  0  0  0  0  0
    5.7949  -12.2518   25.9285 C   0  0  0  0  0  0  0  0  0  0  0  0
    5.7266  -10.8996   25.6900 C   0  0  0  0  0  0  0  0  0  0  0  0
    6.7128  -10.2713   24.9739 C   0  0  0  0  0  0  0  0  0  0  0  0
    7.7658  -11.0185   24.5014 C   0  0  0  0  0  0  0  0  0  0  0  0
    7.8148  -12.3727   24.7521 C   0  0  0  0  0  0  0  0  0  0  0  0
    6.8485  -13.0500   25.4681 C   0  0  0  0  0  0  0  0  0  0  0  0
    8.3550  -17.1998   24.1034 C   0  0  0  0  0  0  0  0  0  0  0  0
    8.4005  -18.3273   24.6562 O   0  0  0  0  0  0  0  0  0  0  0  0
   10.5851  -17.6747   20.8440 C   0  0  0  0  0  0  0  0  0  0  0  0
   11.4719  -17.4173   22.0444 C   0  0  1  0  0  0  0  0  0  0  0  0
   11.7303  -16.0187   21.9728 O   0  0  0  0  0  0  0  0  0  0  0  0
   10.6681  -17.6283   23.2991 C   0  0  2  0  0  0  0  0  0  0  0  0
    9.4265  -16.8665   23.2444 N   0  0  0  0  0  0  0  0  0  0  0  0
   11.3699  -17.2106   24.5402 C   0  0  0  0  0  0  0  0  0  0  0  0
   12.2258  -16.2470   24.5037 O   0  0  0  0  0  0  0  0  0  0  0  0
   11.1777  -14.4969   27.1863 C   0  0  0  0  0  0  0  0  0  0  0  0
   10.3197  -15.7108   27.5839 C   0  0  2  0  0  0  0  0  0  0  0  0
    9.3389  -15.2412   28.6193 C   0  0  0  0  0  0  0  0  0  0  0  0
   11.1916  -16.8252   28.0695 C   0  0  0  0  0  0  0  0  0  0  0  0
   12.0246  -17.3719   26.9559 C   0  0  2  0  0  0  0  0  0  0  0  0
   11.1949  -17.7774   25.8199 N   0  0  0  0  0  0  0  0  0  0  0  0
   12.9860  -18.4098   27.3274 C   0  0  0  0  0  0  0  0  0  0  0  0
   13.0832  -19.6796   26.8312 O   0  0  0  0  0  0  0  0  0  0  0  0
   13.8519  -18.1139   28.2283 O   0  0  0  0  0  0  0  0  0  0  0  0
  2  1  1  1
  2 13  1  0
  3  2  1  0
  3  4  1  0
  4 12  1  0
  4  5  2  0
  5  6  1  0
  7  6  1  0
  7  8  2  0
  9  8  1  0
 10  9  2  0
 11 12  2  0
 11 10  1  0
 12  7  1  0
 13 14  2  0
 16 15  1  6
 17 16  1  0
 18 16  1  0
 19 13  1  0
 18 19  1  6
 20 18  1  0
 20 21  2  0
 23 22  1  1
 23 25  1  0
 24 23  1  0
 26 28  1  0
 26 25  1  1
 26 27  1  0
 27 20  1  0
 28 29  1  0
 30 28  2  0
M  END
$$$$
