WTL.pdb
     RDKit          3D

 30 31  0  0  1  0  0  0  0  0999 V2000
    8.0080  -17.8880   20.6619 N   0  0  0  0  0  0  0  0  0  0  0  0
    8.8404  -16.9531   21.3790 C   0  0  1  0  0  0  0  0  0  0  0  0
    8.0065  -15.8967   22.0004 C   0  0  0  0  0  0  0  0  0  0  0  0
    7.5205  -14.8907   21.0364 C   0  0  0  0  0  0  0  0  0  0  0  0
    6.1938  -14.6749   20.6603 C   0  0  0  0  0  0  0  0  0  0  0  0
    6.1530  -13.6539   19.7918 N   0  0  0  0  0  0  0  0  0  0  0  0
    7.4003  -13.1619   19.5577 C   0  0  0  0  0  0  0  0  0  0  0  0
    7.8635  -12.1453   18.7565 C   0  0  0  0  0  0  0  0  0  0  0  0
    9.2040  -11.8626   18.7007 C   0  0  0  0  0  0  0  0  0  0  0  0
   10.0709  -12.6140   19.4586 C   0  0  0  0  0  0  0  0  0  0  0  0
    9.5854  -13.6283   20.2551 C   0  0  0  0  0  0  0  0  0  0  0  0
    8.2462  -13.9503   20.3464 C   0  0  0  0  0  0  0  0  0  0  0  0
    9.4988  -17.6941   22.5186 C   0  0  0  0  0  0  0  0  0  0  0  0
    8.8167  -18.3754   23.3245 O   0  0  0  0  0  0  0  0  0  0  0  0
   13.3991  -19.2796   25.0185 C   0  0  0  0  0  0  0  0  0  0  0  0
   12.8625  -18.6922   23.7298 C   0  0  1  0  0  0  0  0  0  0  0  0
   12.7535  -19.8220   22.8698 O   0  0  0  0  0  0  0  0  0  0  0  0
   11.4563  -18.2089   23.9623 C   0  0  2  0  0  0  0  0  0  0  0  0
   10.8951  -17.6604   22.7338 N   0  0  0  0  0  0  0  0  0  0  0  0
   11.3493  -17.1434   24.9923 C   0  0  0  0  0  0  0  0  0  0  0  0
   11.4901  -15.9064   24.6573 O   0  0  0  0  0  0  0  0  0  0  0  0
    9.7728  -14.5560   29.2494 C   0  0  0  0  0  0  0  0  0  0  0  0
    9.9537  -14.0573   27.8049 C   0  0  2  0  0  0  0  0  0  0  0  0
    8.8224  -13.1132   27.5163 C   0  0  0  0  0  0  0  0  0  0  0  0
   10.0028  -15.2152   26.8590 C   0  0  0  0  0  0  0  0  0  0  0  0
   11.0181  -16.2189   27.3001 C   0  0  2  0  0  0  0  0  0  0  0  0
   11.0963  -17.3431   26.3655 N   0  0  0  0  0  0  0  0  0  0  0  0
   10.9101  -16.6693   28.6875 C   0  0  0  0  0  0  0  0  0  0  0  0
   10.4753  -17.8818   29.1445 O   0  0  0  0  0  0  0  0  0  0  0  0
   11.2598  -15.8402   29.6037 O   0  0  0  0  0  0  0  0  0  0  0  0
  2  1  1  1
  2 13  1  0
  3  2  1  0
  3  4  1  0
  4 12  1  0
  4  5  2  0
  5  6  1  0
  7  6  1  0
  7  8  2  0
  9  8  1  0
 10  9  2  0
 11 12  2  0
 11 10  1  0
 12  7  1  0
 13 14  2  0
 16 15  1  1
 17 16  1  0
 18 16  1  0
 19 13  1  0
 18 19  1  6
 20 18  1  0
 20 21  2  0
 23 22  1  1
 23 25  1  0
 24 23  1  0
 26 28  1  0
 26 25  1  6
 26 27  1  0
 27 20  1  0
 28 29  1  0
 30 28  2  0
M  END
$$$$
