WTL.pdb
     RDKit          3D

 30 31  0  0  1  0  0  0  0  0999 V2000
    6.8930  -17.2870   24.8654 N   0  0  0  0  0  0  0  0  0  0  0  0
    7.5229  -16.6952   23.7103 C   0  0  1  0  0  0  0  0  0  0  0  0
    7.8858  -15.2856   23.9906 C   0  0  0  0  0  0  0  0  0  0  0  0
    6.8614  -14.5595   24.7658 C   0  0  0  0  0  0  0  0  0  0  0  0
    5.8222  -15.1276   25.5041 C   0  0  0  0  0  0  0  0  0  0  0  0
    5.1250  -14.1449   26.0931 N   0  0  0  0  0  0  0  0  0  0  0  0
    5.6459  -12.9254   25.7866 C   0  0  0  0  0  0  0  0  0  0  0  0
    5.2845  -11.6457   26.1354 C   0  0  0  0  0  0  0  0  0  0  0  0
    5.9956  -10.5719   25.6651 C   0  0  0  0  0  0  0  0  0  0  0  0
    7.0721  -10.8008   24.8409 C   0  0  0  0  0  0  0  0  0  0  0  0
    7.4173  -12.0916   24.5039 C   0  0  0  0  0  0  0  0  0  0  0  0
    6.7346  -13.2043   24.9523 C   0  0  0  0  0  0  0  0  0  0  0  0
    8.8230  -17.4235   23.4639 C   0  0  0  0  0  0  0  0  0  0  0  0
    8.8994  -18.3322   22.5995 O   0  0  0  0  0  0  0  0  0  0  0  0
   10.2671  -17.6497   21.5316 C   0  0  0  0  0  0  0  0  0  0  0  0
   11.5413  -17.4261   22.3190 C   0  0  1  0  0  0  0  0  0  0  0  0
   11.7475  -16.0202   22.2248 O   0  0  0  0  0  0  0  0  0  0  0  0
   11.2731  -17.7110   23.7722 C   0  0  2  0  0  0  0  0  0  0  0  0
   10.0030  -17.1246   24.1818 N   0  0  0  0  0  0  0  0  0  0  0  0
   12.3078  -17.1711   24.6917 C   0  0  0  0  0  0  0  0  0  0  0  0
   13.5531  -17.4351   24.4872 O   0  0  0  0  0  0  0  0  0  0  0  0
   11.6667  -14.0902   27.4309 C   0  0  0  0  0  0  0  0  0  0  0  0
   10.5721  -15.1510   27.6416 C   0  0  2  0  0  0  0  0  0  0  0  0
    9.5921  -14.5875   28.6298 C   0  0  0  0  0  0  0  0  0  0  0  0
   11.1802  -16.4408   28.0939 C   0  0  0  0  0  0  0  0  0  0  0  0
   12.2870  -16.8557   27.1797 C   0  0  2  0  0  0  0  0  0  0  0  0
   12.0689  -16.3590   25.8199 N   0  0  0  0  0  0  0  0  0  0  0  0
   12.6268  -18.2784   27.1929 C   0  0  0  0  0  0  0  0  0  0  0  0
   11.8219  -19.3362   26.8747 O   0  0  0  0  0  0  0  0  0  0  0  0
   13.8209  -18.5944   27.5444 O   0  0  0  0  0  0  0  0  0  0  0  0
  2  1  1  1
  2 13  1  0
  3  2  1  0
  3  4  1  0
  4 12  1  0
  4  5  2  0
  5  6  1  0
  7  6  1  0
  7  8  2  0
  9  8  1  0
 10  9  2  0
 11 12  2  0
 11 10  1  0
 12  7  1  0
 13 14  2  0
 16 15  1  6
 17 16  1  0
 18 16  1  0
 19 13  1  0
 18 19  1  1
 20 18  1  0
 20 21  2  0
 23 22  1  1
 23 25  1  0
 24 23  1  0
 26 28  1  0
 26 25  1  1
 26 27  1  0
 27 20  1  0
 28 29  1  0
 30 28  2  0
M  END
$$$$
