WTL.pdb
     RDKit          3D

 30 31  0  0  1  0  0  0  0  0999 V2000
    7.5047  -16.5500   22.2069 N   0  0  0  0  0  0  0  0  0  0  0  0
    8.6251  -15.9503   22.8899 C   0  0  1  0  0  0  0  0  0  0  0  0
    8.1578  -15.2011   24.0806 C   0  0  0  0  0  0  0  0  0  0  0  0
    7.4326  -13.9605   23.7453 C   0  0  0  0  0  0  0  0  0  0  0  0
    7.0489  -13.5424   22.4701 C   0  0  0  0  0  0  0  0  0  0  0  0
    6.3822  -12.3840   22.5791 N   0  0  0  0  0  0  0  0  0  0  0  0
    6.2944  -11.9917   23.8794 C   0  0  0  0  0  0  0  0  0  0  0  0
    5.7265  -10.8950   24.4834 C   0  0  0  0  0  0  0  0  0  0  0  0
    5.7949  -10.7398   25.8440 C   0  0  0  0  0  0  0  0  0  0  0  0
    6.4408  -11.6990   26.5878 C   0  0  0  0  0  0  0  0  0  0  0  0
    7.0030  -12.7906   25.9622 C   0  0  0  0  0  0  0  0  0  0  0  0
    6.9595  -12.9923   24.5974 C   0  0  0  0  0  0  0  0  0  0  0  0
    9.5034  -17.0631   23.4110 C   0  0  0  0  0  0  0  0  0  0  0  0
    9.0273  -17.9785   24.1281 O   0  0  0  0  0  0  0  0  0  0  0  0
   13.7644  -19.4413   23.7460 C   0  0  0  0  0  0  0  0  0  0  0  0
   13.0456  -18.2538   23.1404 C   0  0  1  0  0  0  0  0  0  0  0  0
   12.7117  -18.7004   21.8301 O   0  0  0  0  0  0  0  0  0  0  0  0
   11.7380  -18.0566   23.8589 C   0  0  2  0  0  0  0  0  0  0  0  0
   10.8852  -17.1316   23.1226 N   0  0  0  0  0  0  0  0  0  0  0  0
   11.8828  -17.5030   25.2300 C   0  0  0  0  0  0  0  0  0  0  0  0
   12.7014  -16.5316   25.4500 O   0  0  0  0  0  0  0  0  0  0  0  0
   11.4486  -14.5792   27.5971 C   0  0  0  0  0  0  0  0  0  0  0  0
   10.2990  -15.6002   27.6570 C   0  0  2  0  0  0  0  0  0  0  0  0
    9.1002  -14.8870   28.2126 C   0  0  0  0  0  0  0  0  0  0  0  0
   10.7018  -16.7872   28.4735 C   0  0  0  0  0  0  0  0  0  0  0  0
   11.6726  -17.6420   27.7254 C   0  0  2  0  0  0  0  0  0  0  0  0
   11.1885  -17.9421   26.3766 N   0  0  0  0  0  0  0  0  0  0  0  0
   12.1326  -18.8442   28.4200 C   0  0  0  0  0  0  0  0  0  0  0  0
   11.9943  -20.1456   28.0257 O   0  0  0  0  0  0  0  0  0  0  0  0
   12.7414  -18.6802   29.5387 O   0  0  0  0  0  0  0  0  0  0  0  0
  2  1  1  1
  2 13  1  0
  3  2  1  0
  3  4  1  0
  4 12  1  0
  4  5  2  0
  5  6  1  0
  7  6  1  0
  7  8  2  0
  9  8  1  0
 10  9  2  0
 11 12  2  0
 11 10  1  0
 12  7  1  0
 13 14  2  0
 16 15  1  1
 17 16  1  0
 18 16  1  0
 19 13  1  0
 18 19  1  6
 20 18  1  0
 20 21  2  0
 23 22  1  1
 23 25  1  0
 24 23  1  0
 26 28  1  0
 26 25  1  1
 26 27  1  0
 27 20  1  0
 28 29  1  0
 30 28  2  0
M  END
$$$$
