CFE.pdb
     RDKit          3D

 27 27  0  0  1  0  0  0  0  0999 V2000
    9.1393  -16.6391   19.1815 N   0  0  0  0  0  0  0  0  0  0  0  0
    8.8307  -17.3345   20.4069 C   0  0  1  0  0  0  0  0  0  0  0  0
    9.6426  -18.6039   20.4921 C   0  0  0  0  0  0  0  0  0  0  0  0
    9.0860  -19.5144   21.9613 S   0  0  0  0  0  0  0  0  0  0  0  0
    9.0114  -16.4527   21.5645 C   0  0  0  0  0  0  0  0  0  0  0  0
   10.0682  -15.7857   21.6712 O   0  0  0  0  0  0  0  0  0  0  0  0
    8.0531  -16.2905   22.6058 N   0  0  0  0  0  0  0  0  0  0  0  0
    8.2354  -15.4198   23.7295 C   0  0  1  0  0  0  0  0  0  0  0  0
    6.9375  -14.9409   24.3306 C   0  0  0  0  0  0  0  0  0  0  0  0
    7.1237  -13.9623   25.4144 C   0  0  0  0  0  0  0  0  0  0  0  0
    7.3368  -12.6275   25.1492 C   0  0  0  0  0  0  0  0  0  0  0  0
    7.5090  -11.7006   26.1737 C   0  0  0  0  0  0  0  0  0  0  0  0
    7.4692  -12.1049   27.4880 C   0  0  0  0  0  0  0  0  0  0  0  0
    7.2571  -13.4345   27.7693 C   0  0  0  0  0  0  0  0  0  0  0  0
    7.0900  -14.3300   26.7401 C   0  0  0  0  0  0  0  0  0  0  0  0
    9.0525  -16.0132   24.8093 C   0  0  0  0  0  0  0  0  0  0  0  0
    8.6420  -17.0723   25.3375 O   0  0  0  0  0  0  0  0  0  0  0  0
   10.2649  -15.4792   25.2949 N   0  0  0  0  0  0  0  0  0  0  0  0
   11.0822  -16.1110   26.3402 C   0  0  1  0  0  0  0  0  0  0  0  0
   12.4744  -15.6459   26.1136 C   0  0  0  0  0  0  0  0  0  0  0  0
   13.2822  -16.3066   25.0732 C   0  0  0  0  0  0  0  0  0  0  0  0
   14.5395  -15.6611   24.7503 C   0  0  0  0  0  0  0  0  0  0  0  0
   15.5728  -15.7918   25.3965 O   0  0  0  0  0  0  0  0  0  0  0  0
   10.5167  -16.0838   27.6630 C   0  0  0  0  0  0  0  0  0  0  0  0
   10.2497  -17.1440   28.2844 O   0  0  0  0  0  0  0  0  0  0  0  0
   14.5870  -14.8109   23.5986 O   0  0  0  0  0  0  0  0  0  0  0  0
   10.2477  -14.8829   28.3111 O   0  0  0  0  0  0  0  0  0  0  0  0
  2  1  1  6
  2  3  1  0
  3  4  1  0
  5  6  2  0
  5  2  1  0
  7  5  1  0
  8  7  1  0
  8  9  1  1
  9 10  1  0
 10 11  2  0
 10 15  1  0
 11 12  1  0
 12 13  2  0
 14 13  1  0
 15 14  2  0
 16 17  2  0
 16  8  1  0
 18 16  1  0
 19 18  1  0
 19 20  1  1
 21 20  1  0
 22 21  1  0
 23 22  2  0
 24 19  1  0
 25 24  2  0
 26 22  1  0
 27 24  1  0
M  END
$$$$
