CFE.pdb
     RDKit          3D

 27 27  0  0  1  0  0  0  0  0999 V2000
    9.3026  -16.5210   18.5969 N   0  0  0  0  0  0  0  0  0  0  0  0
    8.2728  -16.7753   19.5743 C   0  0  1  0  0  0  0  0  0  0  0  0
    8.1522  -18.2604   19.8144 C   0  0  0  0  0  0  0  0  0  0  0  0
    9.6473  -18.7981   20.6934 S   0  0  0  0  0  0  0  0  0  0  0  0
    8.5188  -16.0087   20.7998 C   0  0  0  0  0  0  0  0  0  0  0  0
    9.6485  -15.4983   20.9903 O   0  0  0  0  0  0  0  0  0  0  0  0
    7.5471  -15.7927   21.8187 N   0  0  0  0  0  0  0  0  0  0  0  0
    7.8196  -15.1113   23.0499 C   0  0  1  0  0  0  0  0  0  0  0  0
    6.5746  -14.6486   23.7646 C   0  0  0  0  0  0  0  0  0  0  0  0
    6.8568  -13.8868   24.9921 C   0  0  0  0  0  0  0  0  0  0  0  0
    7.1583  -12.5434   24.9514 C   0  0  0  0  0  0  0  0  0  0  0  0
    7.4215  -11.8212   26.1123 C   0  0  0  0  0  0  0  0  0  0  0  0
    7.3852  -12.4433   27.3387 C   0  0  0  0  0  0  0  0  0  0  0  0
    7.0854  -13.7845   27.3962 C   0  0  0  0  0  0  0  0  0  0  0  0
    6.8295  -14.4754   26.2359 C   0  0  0  0  0  0  0  0  0  0  0  0
    8.6271  -15.9074   23.9986 C   0  0  0  0  0  0  0  0  0  0  0  0
    8.2719  -17.0879   24.2203 O   0  0  0  0  0  0  0  0  0  0  0  0
    9.7727  -15.4411   24.6776 N   0  0  0  0  0  0  0  0  0  0  0  0
   10.7315  -16.3141   25.3693 C   0  0  1  0  0  0  0  0  0  0  0  0
   12.0775  -15.9156   24.8840 C   0  0  0  0  0  0  0  0  0  0  0  0
   13.2543  -16.6594   25.3671 C   0  0  0  0  0  0  0  0  0  0  0  0
   14.5225  -16.2813   24.7751 C   0  0  0  0  0  0  0  0  0  0  0  0
   15.0062  -15.1565   24.8304 O   0  0  0  0  0  0  0  0  0  0  0  0
   10.4941  -16.4944   26.7769 C   0  0  0  0  0  0  0  0  0  0  0  0
    9.9610  -15.5929   27.4731 O   0  0  0  0  0  0  0  0  0  0  0  0
   15.2685  -17.2846   24.0761 O   0  0  0  0  0  0  0  0  0  0  0  0
   10.8392  -17.6762   27.4241 O   0  0  0  0  0  0  0  0  0  0  0  0
  2  1  1  6
  2  3  1  0
  3  4  1  0
  5  6  2  0
  5  2  1  0
  7  5  1  0
  8  7  1  0
  8  9  1  1
  9 10  1  0
 10 11  2  0
 10 15  1  0
 11 12  1  0
 12 13  2  0
 14 13  1  0
 15 14  2  0
 16 17  2  0
 16  8  1  0
 18 16  1  0
 19 18  1  0
 19 20  1  1
 21 20  1  0
 22 21  1  0
 23 22  2  0
 24 19  1  0
 25 24  2  0
 26 22  1  0
 27 24  1  0
M  END
$$$$
