CFE.pdb
     RDKit          3D

 27 27  0  0  1  0  0  0  0  0999 V2000
    8.1168  -16.3835   18.3787 N   0  0  0  0  0  0  0  0  0  0  0  0
    7.9023  -17.1280   19.5953 C   0  0  1  0  0  0  0  0  0  0  0  0
    8.6312  -18.4474   19.5220 C   0  0  0  0  0  0  0  0  0  0  0  0
    8.1896  -19.4020   21.0022 S   0  0  0  0  0  0  0  0  0  0  0  0
    8.2712  -16.3269   20.7668 C   0  0  0  0  0  0  0  0  0  0  0  0
    9.4241  -15.8386   20.8403 O   0  0  0  0  0  0  0  0  0  0  0  0
    7.3973  -16.0526   21.8577 N   0  0  0  0  0  0  0  0  0  0  0  0
    7.7820  -15.3086   23.0208 C   0  0  1  0  0  0  0  0  0  0  0  0
    6.6094  -14.8509   23.8517 C   0  0  0  0  0  0  0  0  0  0  0  0
    7.0011  -14.0332   25.0113 C   0  0  0  0  0  0  0  0  0  0  0  0
    7.0718  -14.5693   26.2783 C   0  0  0  0  0  0  0  0  0  0  0  0
    7.4461  -13.7976   27.3750 C   0  0  0  0  0  0  0  0  0  0  0  0
    7.7565  -12.4673   27.2128 C   0  0  0  0  0  0  0  0  0  0  0  0
    7.6909  -11.9171   25.9539 C   0  0  0  0  0  0  0  0  0  0  0  0
    7.3187  -12.6998   24.8872 C   0  0  0  0  0  0  0  0  0  0  0  0
    8.7171  -16.0370   23.9045 C   0  0  0  0  0  0  0  0  0  0  0  0
    8.3995  -17.1942   24.2637 O   0  0  0  0  0  0  0  0  0  0  0  0
    9.9458  -15.5300   24.3779 N   0  0  0  0  0  0  0  0  0  0  0  0
   10.9729  -16.3469   25.0394 C   0  0  1  0  0  0  0  0  0  0  0  0
   12.2736  -15.9230   24.4613 C   0  0  0  0  0  0  0  0  0  0  0  0
   13.5099  -16.5492   24.9620 C   0  0  0  0  0  0  0  0  0  0  0  0
   14.7411  -16.0789   24.3582 C   0  0  0  0  0  0  0  0  0  0  0  0
   14.8022  -15.2208   23.4851 O   0  0  0  0  0  0  0  0  0  0  0  0
   10.8250  -16.4849   26.4640 C   0  0  0  0  0  0  0  0  0  0  0  0
   11.4253  -17.3874   27.1016 O   0  0  0  0  0  0  0  0  0  0  0  0
   15.9757  -16.6500   24.8067 O   0  0  0  0  0  0  0  0  0  0  0  0
   10.0162  -15.6213   27.1952 O   0  0  0  0  0  0  0  0  0  0  0  0
  2  1  1  6
  2  3  1  0
  3  4  1  0
  5  6  2  0
  5  2  1  0
  7  5  1  0
  8  7  1  0
  8  9  1  1
  9 10  1  0
 10 11  2  0
 10 15  1  0
 11 12  1  0
 12 13  2  0
 14 13  1  0
 15 14  2  0
 16 17  2  0
 16  8  1  0
 18 16  1  0
 19 18  1  0
 19 20  1  1
 21 20  1  0
 22 21  1  0
 23 22  2  0
 24 19  1  0
 25 24  2  0
 26 22  1  0
 27 24  1  0
M  END
$$$$
