CFE.pdb
     RDKit          3D

 27 27  0  0  1  0  0  0  0  0999 V2000
    8.2639  -16.6661   18.9982 N   0  0  0  0  0  0  0  0  0  0  0  0
    7.9363  -17.3335   20.2342 C   0  0  1  0  0  0  0  0  0  0  0  0
    8.5895  -18.6936   20.2690 C   0  0  0  0  0  0  0  0  0  0  0  0
    8.0125  -19.5420   21.7672 S   0  0  0  0  0  0  0  0  0  0  0  0
    8.2837  -16.4947   21.3857 C   0  0  0  0  0  0  0  0  0  0  0  0
    9.4238  -15.9757   21.4475 O   0  0  0  0  0  0  0  0  0  0  0  0
    7.4021  -16.2159   22.4692 N   0  0  0  0  0  0  0  0  0  0  0  0
    7.7671  -15.4351   23.6144 C   0  0  1  0  0  0  0  0  0  0  0  0
    6.5831  -14.9926   24.4374 C   0  0  0  0  0  0  0  0  0  0  0  0
    6.9450  -14.0814   25.5354 C   0  0  0  0  0  0  0  0  0  0  0  0
    7.0040  -12.7179   25.3485 C   0  0  0  0  0  0  0  0  0  0  0  0
    7.3423  -11.8550   26.3875 C   0  0  0  0  0  0  0  0  0  0  0  0
    7.6282  -12.3538   27.6373 C   0  0  0  0  0  0  0  0  0  0  0  0
    7.5735  -13.7131   27.8401 C   0  0  0  0  0  0  0  0  0  0  0  0
    7.2370  -14.5440   26.7982 C   0  0  0  0  0  0  0  0  0  0  0  0
    8.7241  -16.1163   24.5121 C   0  0  0  0  0  0  0  0  0  0  0  0
    8.4604  -17.2887   24.8655 O   0  0  0  0  0  0  0  0  0  0  0  0
    9.9179  -15.5481   25.0052 N   0  0  0  0  0  0  0  0  0  0  0  0
   11.0302  -16.3281   25.5658 C   0  0  1  0  0  0  0  0  0  0  0  0
   12.2580  -15.8461   24.8832 C   0  0  0  0  0  0  0  0  0  0  0  0
   13.5501  -16.4656   25.2271 C   0  0  0  0  0  0  0  0  0  0  0  0
   14.6957  -15.9840   24.4806 C   0  0  0  0  0  0  0  0  0  0  0  0
   14.8294  -16.0939   23.2672 O   0  0  0  0  0  0  0  0  0  0  0  0
   11.0117  -16.4846   26.9960 C   0  0  0  0  0  0  0  0  0  0  0  0
   11.4399  -17.5307   27.5471 O   0  0  0  0  0  0  0  0  0  0  0  0
   15.7483  -15.3335   25.2021 O   0  0  0  0  0  0  0  0  0  0  0  0
   10.5246  -15.4821   27.8280 O   0  0  0  0  0  0  0  0  0  0  0  0
  2  1  1  6
  2  3  1  0
  3  4  1  0
  5  6  2  0
  5  2  1  0
  7  5  1  0
  8  7  1  0
  8  9  1  1
  9 10  1  0
 10 11  2  0
 10 15  1  0
 11 12  1  0
 12 13  2  0
 14 13  1  0
 15 14  2  0
 16 17  2  0
 16  8  1  0
 18 16  1  0
 19 18  1  0
 19 20  1  1
 21 20  1  0
 22 21  1  0
 23 22  2  0
 24 19  1  0
 25 24  2  0
 26 22  1  0
 27 24  1  0
M  END
$$$$
