CFE.pdb
     RDKit          3D

 27 27  0  0  1  0  0  0  0  0999 V2000
   10.7048  -16.1903   19.4998 N   0  0  0  0  0  0  0  0  0  0  0  0
    9.4837  -16.4543   20.2207 C   0  0  1  0  0  0  0  0  0  0  0  0
    9.2866  -17.9437   20.3635 C   0  0  0  0  0  0  0  0  0  0  0  0
   10.6699  -18.5892   21.3469 S   0  0  0  0  0  0  0  0  0  0  0  0
    9.4732  -15.7432   21.5031 C   0  0  0  0  0  0  0  0  0  0  0  0
   10.5593  -15.3800   22.0144 O   0  0  0  0  0  0  0  0  0  0  0  0
    8.2923  -15.4242   22.2330 N   0  0  0  0  0  0  0  0  0  0  0  0
    8.2940  -14.7546   23.5003 C   0  0  1  0  0  0  0  0  0  0  0  0
    6.9436  -14.2054   23.8872 C   0  0  0  0  0  0  0  0  0  0  0  0
    6.9434  -13.5265   25.1933 C   0  0  0  0  0  0  0  0  0  0  0  0
    6.2971  -14.0655   26.2838 C   0  0  0  0  0  0  0  0  0  0  0  0
    6.2997  -13.4260   27.5206 C   0  0  0  0  0  0  0  0  0  0  0  0
    6.9564  -12.2277   27.6797 C   0  0  0  0  0  0  0  0  0  0  0  0
    7.6067  -11.6765   26.6003 C   0  0  0  0  0  0  0  0  0  0  0  0
    7.5894  -12.3273   25.3899 C   0  0  0  0  0  0  0  0  0  0  0  0
    8.7850  -15.5968   24.6118 C   0  0  0  0  0  0  0  0  0  0  0  0
    8.1641  -16.6559   24.8605 O   0  0  0  0  0  0  0  0  0  0  0  0
    9.9039  -15.3014   25.4192 N   0  0  0  0  0  0  0  0  0  0  0  0
   10.4625  -16.2215   26.4198 C   0  0  1  0  0  0  0  0  0  0  0  0
   11.7222  -16.7502   25.8371 C   0  0  0  0  0  0  0  0  0  0  0  0
   12.5422  -15.8609   24.9956 C   0  0  0  0  0  0  0  0  0  0  0  0
   13.6677  -16.4876   24.3306 C   0  0  0  0  0  0  0  0  0  0  0  0
   14.7372  -16.7455   24.8710 O   0  0  0  0  0  0  0  0  0  0  0  0
   10.4380  -15.7428   27.7765 C   0  0  0  0  0  0  0  0  0  0  0  0
   10.1281  -14.5545   28.0474 O   0  0  0  0  0  0  0  0  0  0  0  0
   13.5294  -16.8330   22.9475 O   0  0  0  0  0  0  0  0  0  0  0  0
   10.7503  -16.5771   28.8446 O   0  0  0  0  0  0  0  0  0  0  0  0
  2  1  1  1
  2  3  1  0
  3  4  1  0
  5  6  2  0
  5  2  1  0
  7  5  1  0
  8  7  1  0
  8  9  1  1
  9 10  1  0
 10 11  2  0
 10 15  1  0
 11 12  1  0
 12 13  2  0
 14 13  1  0
 15 14  2  0
 16 17  2  0
 16  8  1  0
 18 16  1  0
 19 18  1  0
 19 20  1  6
 21 20  1  0
 22 21  1  0
 23 22  2  0
 24 19  1  0
 25 24  2  0
 26 22  1  0
 27 24  1  0
M  END
$$$$
