CFE.pdb
     RDKit          3D

 27 27  0  0  1  0  0  0  0  0999 V2000
    8.2209  -16.5128   18.8176 N   0  0  0  0  0  0  0  0  0  0  0  0
    7.5441  -16.9209   20.0242 C   0  0  1  0  0  0  0  0  0  0  0  0
    7.6612  -18.4158   20.1948 C   0  0  0  0  0  0  0  0  0  0  0  0
    9.3978  -18.7917   20.5694 S   0  0  0  0  0  0  0  0  0  0  0  0
    8.0402  -16.1656   21.1791 C   0  0  0  0  0  0  0  0  0  0  0  0
    9.1624  -15.6092   21.1147 O   0  0  0  0  0  0  0  0  0  0  0  0
    7.3264  -16.0106   22.4020 N   0  0  0  0  0  0  0  0  0  0  0  0
    7.7808  -15.2013   23.4941 C   0  0  1  0  0  0  0  0  0  0  0  0
    6.7964  -15.1304   24.6347 C   0  0  0  0  0  0  0  0  0  0  0  0
    7.0570  -14.0160   25.5605 C   0  0  0  0  0  0  0  0  0  0  0  0
    7.9270  -14.1499   26.6201 C   0  0  0  0  0  0  0  0  0  0  0  0
    8.1771  -13.0951   27.4939 C   0  0  0  0  0  0  0  0  0  0  0  0
    7.5519  -11.8830   27.3140 C   0  0  0  0  0  0  0  0  0  0  0  0
    6.6804  -11.7334   26.2604 C   0  0  0  0  0  0  0  0  0  0  0  0
    6.4503  -12.7897   25.4117 C   0  0  0  0  0  0  0  0  0  0  0  0
    9.0881  -15.6255   24.0388 C   0  0  0  0  0  0  0  0  0  0  0  0
   10.0972  -14.9524   23.7262 O   0  0  0  0  0  0  0  0  0  0  0  0
    9.2911  -16.7339   24.8879 N   0  0  0  0  0  0  0  0  0  0  0  0
   10.6002  -17.1298   25.4256 C   0  0  1  0  0  0  0  0  0  0  0  0
   11.6005  -16.2531   24.7648 C   0  0  0  0  0  0  0  0  0  0  0  0
   12.9963  -16.2895   25.2357 C   0  0  0  0  0  0  0  0  0  0  0  0
   14.0092  -16.2817   24.1986 C   0  0  0  0  0  0  0  0  0  0  0  0
   14.2474  -17.2258   23.4541 O   0  0  0  0  0  0  0  0  0  0  0  0
   10.6442  -17.3323   26.8495 C   0  0  0  0  0  0  0  0  0  0  0  0
   11.0427  -18.4168   27.3460 O   0  0  0  0  0  0  0  0  0  0  0  0
   14.7897  -15.0934   24.0243 O   0  0  0  0  0  0  0  0  0  0  0  0
   10.2533  -16.3339   27.7354 O   0  0  0  0  0  0  0  0  0  0  0  0
  2  1  1  6
  2  3  1  0
  3  4  1  0
  5  6  2  0
  5  2  1  0
  7  5  1  0
  8  7  1  0
  8  9  1  1
  9 10  1  0
 10 11  2  0
 10 15  1  0
 11 12  1  0
 12 13  2  0
 14 13  1  0
 15 14  2  0
 16 17  2  0
 16  8  1  0
 18 16  1  0
 19 18  1  0
 19 20  1  1
 21 20  1  0
 22 21  1  0
 23 22  2  0
 24 19  1  0
 25 24  2  0
 26 22  1  0
 27 24  1  0
M  END
$$$$
