CFE.pdb
     RDKit          3D

 27 27  0  0  1  0  0  0  0  0999 V2000
    9.4812  -15.5926   18.8190 N   0  0  0  0  0  0  0  0  0  0  0  0
    8.6892  -16.2571   19.8248 C   0  0  1  0  0  0  0  0  0  0  0  0
    9.0212  -17.7291   19.8462 C   0  0  0  0  0  0  0  0  0  0  0  0
    8.0324  -18.4962   21.1620 S   0  0  0  0  0  0  0  0  0  0  0  0
    8.8537  -15.6073   21.1290 C   0  0  0  0  0  0  0  0  0  0  0  0
    9.9983  -15.2537   21.5005 O   0  0  0  0  0  0  0  0  0  0  0  0
    7.7847  -15.3391   22.0314 N   0  0  0  0  0  0  0  0  0  0  0  0
    7.9633  -14.7609   23.3307 C   0  0  1  0  0  0  0  0  0  0  0  0
    6.6958  -14.1784   23.9043 C   0  0  0  0  0  0  0  0  0  0  0  0
    6.8981  -13.5021   25.1961 C   0  0  0  0  0  0  0  0  0  0  0  0
    6.6029  -14.1258   26.3883 C   0  0  0  0  0  0  0  0  0  0  0  0
    6.7977  -13.4883   27.6107 C   0  0  0  0  0  0  0  0  0  0  0  0
    7.2951  -12.2065   27.6523 C   0  0  0  0  0  0  0  0  0  0  0  0
    7.5950  -11.5701   26.4703 C   0  0  0  0  0  0  0  0  0  0  0  0
    7.3938  -12.2208   25.2765 C   0  0  0  0  0  0  0  0  0  0  0  0
    8.5288  -15.7007   24.3220 C   0  0  0  0  0  0  0  0  0  0  0  0
    7.9179  -16.7757   24.5224 O   0  0  0  0  0  0  0  0  0  0  0  0
    9.7087  -15.4824   25.0643 N   0  0  0  0  0  0  0  0  0  0  0  0
   10.2664  -16.4447   26.0250 C   0  0  1  0  0  0  0  0  0  0  0  0
   11.6939  -16.6189   25.6539 C   0  0  0  0  0  0  0  0  0  0  0  0
   12.0589  -16.6320   24.2263 C   0  0  0  0  0  0  0  0  0  0  0  0
   13.4385  -16.9684   23.9340 C   0  0  0  0  0  0  0  0  0  0  0  0
   14.3299  -17.0321   24.7728 O   0  0  0  0  0  0  0  0  0  0  0  0
    9.8975  -16.2260   27.3985 C   0  0  0  0  0  0  0  0  0  0  0  0
    9.3857  -15.1409   27.7756 O   0  0  0  0  0  0  0  0  0  0  0  0
   13.7931  -17.2474   22.5747 O   0  0  0  0  0  0  0  0  0  0  0  0
   10.0864  -17.2087   28.3645 O   0  0  0  0  0  0  0  0  0  0  0  0
  2  1  1  6
  2  3  1  0
  3  4  1  0
  5  6  2  0
  5  2  1  0
  7  5  1  0
  8  7  1  0
  8  9  1  1
  9 10  1  0
 10 11  2  0
 10 15  1  0
 11 12  1  0
 12 13  2  0
 14 13  1  0
 15 14  2  0
 16 17  2  0
 16  8  1  0
 18 16  1  0
 19 18  1  0
 19 20  1  1
 21 20  1  0
 22 21  1  0
 23 22  2  0
 24 19  1  0
 25 24  2  0
 26 22  1  0
 27 24  1  0
M  END
$$$$
