PDT.pdb
     RDKit          3D

 23 23  0  0  1  0  0  0  0  0999 V2000
    8.4798  -14.7096   17.9407 N   0  0  0  0  0  0  0  0  0  0  0  0
    7.2639  -13.9425   17.8200 C   0  0  0  0  0  0  0  0  0  0  0  0
    7.1611  -13.1749   19.1311 C   0  0  0  0  0  0  0  0  0  0  0  0
    8.6428  -12.8058   19.3003 C   0  0  0  0  0  0  0  0  0  0  0  0
    9.2595  -14.1549   19.0191 C   0  0  1  0  0  0  0  0  0  0  0  0
    9.2060  -15.0653   20.1689 C   0  0  0  0  0  0  0  0  0  0  0  0
    8.1749  -15.1025   20.8815 O   0  0  0  0  0  0  0  0  0  0  0  0
   10.2869  -15.9238   20.5222 N   0  0  0  0  0  0  0  0  0  0  0  0
   10.3443  -16.8165   21.6256 C   0  0  1  0  0  0  0  0  0  0  0  0
   11.5299  -17.7468   21.5982 C   0  0  0  0  0  0  0  0  0  0  0  0
   11.5027  -18.4202   20.2552 C   0  0  0  0  0  0  0  0  0  0  0  0
   10.5605  -19.1825   19.9706 O   0  0  0  0  0  0  0  0  0  0  0  0
   10.2174  -16.1595   22.9653 C   0  0  0  0  0  0  0  0  0  0  0  0
   10.9816  -15.2273   23.2919 O   0  0  0  0  0  0  0  0  0  0  0  0
   12.4974  -18.2197   19.3174 O   0  0  0  0  0  0  0  0  0  0  0  0
    7.6252  -14.0871   24.3508 C   0  0  0  0  0  0  0  0  0  0  0  0
    7.7204  -15.2725   25.2751 C   0  0  1  0  0  0  0  0  0  0  0  0
    6.7966  -16.2698   24.9204 O   0  0  0  0  0  0  0  0  0  0  0  0
    9.1056  -15.9184   25.1820 C   0  0  2  0  0  0  0  0  0  0  0  0
    9.2297  -16.5743   23.8996 N   0  0  0  0  0  0  0  0  0  0  0  0
    9.2944  -16.8742   26.3042 C   0  0  0  0  0  0  0  0  0  0  0  0
    9.3307  -16.5136   27.6211 O   0  0  0  0  0  0  0  0  0  0  0  0
    9.4282  -18.0906   26.0137 O   0  0  0  0  0  0  0  0  0  0  0  0
  1  5  1  0
  2  1  1  0
  2  3  1  0
  3  4  1  0
  5  4  1  0
  6  8  1  0
  5  6  1  1
  7  6  2  0
  9 13  1  0
  9  8  1  0
  9 10  1  1
 10 11  1  0
 11 15  1  0
 11 12  2  0
 13 20  1  0
 14 13  2  0
 17 16  1  6
 17 18  1  0
 19 17  1  0
 19 20  1  6
 21 22  1  0
 21 19  1  0
 23 21  2  0
M  END
$$$$
