PDT.pdb
     RDKit          3D

 23 23  0  0  1  0  0  0  0  0999 V2000
    9.2269  -14.4937   18.9510 N   0  0  0  0  0  0  0  0  0  0  0  0
    8.0686  -14.4506   18.0920 C   0  0  0  0  0  0  0  0  0  0  0  0
    6.9732  -13.8366   18.9533 C   0  0  0  0  0  0  0  0  0  0  0  0
    7.8124  -12.7658   19.6669 C   0  0  0  0  0  0  0  0  0  0  0  0
    8.9929  -13.6160   20.0705 C   0  0  1  0  0  0  0  0  0  0  0  0
    8.7401  -14.4232   21.2698 C   0  0  0  0  0  0  0  0  0  0  0  0
    7.9883  -13.9774   22.1689 O   0  0  0  0  0  0  0  0  0  0  0  0
    9.3172  -15.7110   21.4668 N   0  0  0  0  0  0  0  0  0  0  0  0
    9.2704  -16.4971   22.6490 C   0  0  1  0  0  0  0  0  0  0  0  0
    9.9284  -17.8463   22.5124 C   0  0  0  0  0  0  0  0  0  0  0  0
    9.2883  -18.5057   21.3235 C   0  0  0  0  0  0  0  0  0  0  0  0
    8.1285  -18.9479   21.4184 O   0  0  0  0  0  0  0  0  0  0  0  0
    9.7504  -15.7962   23.8822 C   0  0  0  0  0  0  0  0  0  0  0  0
   10.8521  -15.2082   23.8919 O   0  0  0  0  0  0  0  0  0  0  0  0
    9.9502  -18.6387   20.1180 O   0  0  0  0  0  0  0  0  0  0  0  0
    8.6008  -13.2267   27.8020 C   0  0  0  0  0  0  0  0  0  0  0  0
    8.2116  -14.0880   26.6293 C   0  0  1  0  0  0  0  0  0  0  0  0
    7.8923  -13.3054   25.5070 O   0  0  0  0  0  0  0  0  0  0  0  0
    9.3791  -14.9849   26.2085 C   0  0  2  0  0  0  0  0  0  0  0  0
    8.9715  -15.7789   25.0712 N   0  0  0  0  0  0  0  0  0  0  0  0
    9.7962  -15.8405   27.3499 C   0  0  0  0  0  0  0  0  0  0  0  0
   10.4317  -15.3748   28.4656 O   0  0  0  0  0  0  0  0  0  0  0  0
    9.5439  -17.0704   27.2753 O   0  0  0  0  0  0  0  0  0  0  0  0
  1  5  1  0
  2  1  1  0
  2  3  1  0
  3  4  1  0
  5  4  1  0
  6  8  1  0
  5  6  1  1
  7  6  2  0
  9 13  1  0
  9  8  1  0
  9 10  1  6
 10 11  1  0
 11 15  1  0
 11 12  2  0
 13 20  1  0
 14 13  2  0
 17 16  1  1
 17 18  1  0
 19 17  1  0
 19 20  1  6
 21 22  1  0
 21 19  1  0
 23 21  2  0
M  END
$$$$
