PDT.pdb
     RDKit          3D

 23 23  0  0  1  0  0  0  0  0999 V2000
    7.9853  -14.8710   19.2905 N   0  0  0  0  0  0  0  0  0  0  0  0
    6.7640  -14.1313   19.0835 C   0  0  0  0  0  0  0  0  0  0  0  0
    6.9040  -12.9012   19.9700 C   0  0  0  0  0  0  0  0  0  0  0  0
    8.3891  -12.6006   19.7165 C   0  0  0  0  0  0  0  0  0  0  0  0
    8.9499  -13.9903   19.9007 C   0  0  1  0  0  0  0  0  0  0  0  0
    9.1173  -14.3632   21.3102 C   0  0  0  0  0  0  0  0  0  0  0  0
    9.8558  -13.6709   22.0503 O   0  0  0  0  0  0  0  0  0  0  0  0
    8.4713  -15.4934   21.8896 N   0  0  0  0  0  0  0  0  0  0  0  0
    8.7429  -16.0776   23.1555 C   0  0  1  0  0  0  0  0  0  0  0  0
    9.8308  -17.1203   23.1269 C   0  0  0  0  0  0  0  0  0  0  0  0
    9.8797  -17.7124   24.5072 C   0  0  0  0  0  0  0  0  0  0  0  0
    8.8728  -17.6506   25.2367 O   0  0  0  0  0  0  0  0  0  0  0  0
    8.9826  -15.0922   24.2574 C   0  0  0  0  0  0  0  0  0  0  0  0
   10.0815  -14.5082   24.3609 O   0  0  0  0  0  0  0  0  0  0  0  0
   11.0150  -18.3283   24.9978 O   0  0  0  0  0  0  0  0  0  0  0  0
    6.7594  -11.9979   25.0875 C   0  0  0  0  0  0  0  0  0  0  0  0
    6.8845  -12.9114   26.2785 C   0  0  1  0  0  0  0  0  0  0  0  0
    5.8223  -13.8295   26.3294 O   0  0  0  0  0  0  0  0  0  0  0  0
    8.1666  -13.7436   26.1870 C   0  0  2  0  0  0  0  0  0  0  0  0
    7.9730  -14.7938   25.2125 N   0  0  0  0  0  0  0  0  0  0  0  0
    8.5076  -14.2958   27.5240 C   0  0  0  0  0  0  0  0  0  0  0  0
    8.8091  -13.5318   28.6153 O   0  0  0  0  0  0  0  0  0  0  0  0
    8.5164  -15.5471   27.6495 O   0  0  0  0  0  0  0  0  0  0  0  0
  1  5  1  0
  2  1  1  0
  2  3  1  0
  3  4  1  0
  5  4  1  0
  6  8  1  0
  5  6  1  1
  7  6  2  0
  9 13  1  0
  9  8  1  0
  9 10  1  6
 10 11  1  0
 11 15  1  0
 11 12  2  0
 13 20  1  0
 14 13  2  0
 17 16  1  6
 17 18  1  0
 19 17  1  0
 19 20  1  6
 21 22  1  0
 21 19  1  0
 23 21  2  0
M  END
$$$$
