PDT.pdb
     RDKit          3D

 23 23  0  0  1  0  0  0  0  0999 V2000
    9.0228  -14.3743   19.2639 N   0  0  0  0  0  0  0  0  0  0  0  0
    7.9730  -14.4807   18.2799 C   0  0  0  0  0  0  0  0  0  0  0  0
    6.7215  -13.9944   18.9980 C   0  0  0  0  0  0  0  0  0  0  0  0
    7.3406  -12.8223   19.7746 C   0  0  0  0  0  0  0  0  0  0  0  0
    8.5601  -13.5193   20.3284 C   0  0  1  0  0  0  0  0  0  0  0  0
    8.2699  -14.3382   21.5112 C   0  0  0  0  0  0  0  0  0  0  0  0
    7.1959  -14.1658   22.1351 O   0  0  0  0  0  0  0  0  0  0  0  0
    9.1640  -15.3367   21.9946 N   0  0  0  0  0  0  0  0  0  0  0  0
    9.1479  -15.9512   23.2751 C   0  0  1  0  0  0  0  0  0  0  0  0
   10.1542  -17.0623   23.4326 C   0  0  0  0  0  0  0  0  0  0  0  0
    9.7671  -17.8037   24.6810 C   0  0  0  0  0  0  0  0  0  0  0  0
    9.2850  -17.1763   25.6421 O   0  0  0  0  0  0  0  0  0  0  0  0
    9.2295  -14.9958   24.4253 C   0  0  0  0  0  0  0  0  0  0  0  0
   10.2929  -14.3908   24.6760 O   0  0  0  0  0  0  0  0  0  0  0  0
    9.9301  -19.1707   24.7986 O   0  0  0  0  0  0  0  0  0  0  0  0
    6.9321  -11.9496   25.2550 C   0  0  0  0  0  0  0  0  0  0  0  0
    6.9164  -12.9581   26.3736 C   0  0  1  0  0  0  0  0  0  0  0  0
    5.8446  -13.8557   26.2344 O   0  0  0  0  0  0  0  0  0  0  0  0
    8.1914  -13.8059   26.3526 C   0  0  2  0  0  0  0  0  0  0  0  0
    8.1062  -14.7501   25.2611 N   0  0  0  0  0  0  0  0  0  0  0  0
    8.3620  -14.4951   27.6582 C   0  0  0  0  0  0  0  0  0  0  0  0
    8.3563  -15.8518   27.8160 O   0  0  0  0  0  0  0  0  0  0  0  0
    8.5213  -13.7755   28.6773 O   0  0  0  0  0  0  0  0  0  0  0  0
  1  5  1  0
  2  1  1  0
  2  3  1  0
  3  4  1  0
  5  4  1  0
  6  8  1  0
  5  6  1  1
  7  6  2  0
  9 13  1  0
  9  8  1  0
  9 10  1  6
 10 11  1  0
 11 15  1  0
 11 12  2  0
 13 20  1  0
 14 13  2  0
 17 16  1  6
 17 18  1  0
 19 17  1  0
 19 20  1  6
 21 22  1  0
 21 19  1  0
 23 21  2  0
M  END
$$$$
