PDT.pdb
     RDKit          3D

 23 23  0  0  1  0  0  0  0  0999 V2000
    8.6636  -14.6381   17.8079 N   0  0  0  0  0  0  0  0  0  0  0  0
    7.3761  -14.1338   17.3960 C   0  0  0  0  0  0  0  0  0  0  0  0
    6.8375  -13.4069   18.6208 C   0  0  0  0  0  0  0  0  0  0  0  0
    8.1421  -12.7449   19.0898 C   0  0  0  0  0  0  0  0  0  0  0  0
    9.0613  -13.9396   19.0048 C   0  0  1  0  0  0  0  0  0  0  0  0
    8.9388  -14.8452   20.1531 C   0  0  0  0  0  0  0  0  0  0  0  0
    7.8506  -14.9165   20.7720 O   0  0  0  0  0  0  0  0  0  0  0  0
   10.0144  -15.6616   20.6080 N   0  0  0  0  0  0  0  0  0  0  0  0
    9.9988  -16.5626   21.7059 C   0  0  1  0  0  0  0  0  0  0  0  0
   11.0881  -17.6033   21.6582 C   0  0  0  0  0  0  0  0  0  0  0  0
   10.8367  -18.5259   22.8174 C   0  0  0  0  0  0  0  0  0  0  0  0
    9.9181  -19.3631   22.7465 O   0  0  0  0  0  0  0  0  0  0  0  0
    9.9533  -15.9049   23.0505 C   0  0  0  0  0  0  0  0  0  0  0  0
   10.8346  -15.0876   23.3894 O   0  0  0  0  0  0  0  0  0  0  0  0
   11.5978  -18.4753   23.9694 O   0  0  0  0  0  0  0  0  0  0  0  0
    7.4540  -13.6266   24.5035 C   0  0  0  0  0  0  0  0  0  0  0  0
    7.5256  -14.8228   25.4161 C   0  0  1  0  0  0  0  0  0  0  0  0
    6.5400  -15.7700   25.0917 O   0  0  0  0  0  0  0  0  0  0  0  0
    8.8722  -15.5359   25.2648 C   0  0  2  0  0  0  0  0  0  0  0  0
    8.9122  -16.1892   23.9757 N   0  0  0  0  0  0  0  0  0  0  0  0
    9.0577  -16.5068   26.3746 C   0  0  0  0  0  0  0  0  0  0  0  0
    9.2051  -16.1540   27.6858 O   0  0  0  0  0  0  0  0  0  0  0  0
    9.0787  -17.7290   26.0785 O   0  0  0  0  0  0  0  0  0  0  0  0
  1  5  1  0
  2  1  1  0
  2  3  1  0
  3  4  1  0
  5  4  1  0
  6  8  1  0
  5  6  1  1
  7  6  2  0
  9 13  1  0
  9  8  1  0
  9 10  1  1
 10 11  1  0
 11 15  1  0
 11 12  2  0
 13 20  1  0
 14 13  2  0
 17 16  1  6
 17 18  1  0
 19 17  1  0
 19 20  1  6
 21 22  1  0
 21 19  1  0
 23 21  2  0
M  END
$$$$
