PDT.pdb
     RDKit          3D

 23 23  0  0  1  0  0  0  0  0999 V2000
    8.5593  -14.8255   16.6911 N   0  0  0  0  0  0  0  0  0  0  0  0
    7.2852  -14.1486   16.6757 C   0  0  0  0  0  0  0  0  0  0  0  0
    7.2438  -13.3761   17.9873 C   0  0  0  0  0  0  0  0  0  0  0  0
    8.7041  -12.9002   18.0222 C   0  0  0  0  0  0  0  0  0  0  0  0
    9.3893  -14.2047   17.6932 C   0  0  1  0  0  0  0  0  0  0  0  0
    9.5036  -15.1040   18.8474 C   0  0  0  0  0  0  0  0  0  0  0  0
    8.4834  -15.3754   19.5241 O   0  0  0  0  0  0  0  0  0  0  0  0
   10.7382  -15.6940   19.2445 N   0  0  0  0  0  0  0  0  0  0  0  0
   10.9697  -16.5055   20.3870 C   0  0  1  0  0  0  0  0  0  0  0  0
   12.3189  -17.1774   20.3965 C   0  0  0  0  0  0  0  0  0  0  0  0
   12.3157  -18.1390   19.2418 C   0  0  0  0  0  0  0  0  0  0  0  0
   11.8659  -17.7728   18.1403 O   0  0  0  0  0  0  0  0  0  0  0  0
   10.7066  -15.8273   21.6960 C   0  0  0  0  0  0  0  0  0  0  0  0
   11.3317  -14.7941   22.0144 O   0  0  0  0  0  0  0  0  0  0  0  0
   12.7997  -19.4275   19.3632 O   0  0  0  0  0  0  0  0  0  0  0  0
    7.7116  -14.1633   22.7754 C   0  0  0  0  0  0  0  0  0  0  0  0
    7.9611  -15.2245   23.8147 C   0  0  1  0  0  0  0  0  0  0  0  0
    7.2389  -16.3954   23.5300 O   0  0  0  0  0  0  0  0  0  0  0  0
    9.4388  -15.6253   23.8314 C   0  0  2  0  0  0  0  0  0  0  0  0
    9.7436  -16.3357   22.6097 N   0  0  0  0  0  0  0  0  0  0  0  0
    9.7242  -16.4552   25.0308 C   0  0  0  0  0  0  0  0  0  0  0  0
    9.6887  -15.9873   26.3135 O   0  0  0  0  0  0  0  0  0  0  0  0
   10.0157  -17.6642   24.8435 O   0  0  0  0  0  0  0  0  0  0  0  0
  1  5  1  0
  2  1  1  0
  2  3  1  0
  3  4  1  0
  5  4  1  0
  6  8  1  0
  5  6  1  1
  7  6  2  0
  9 13  1  0
  9  8  1  0
  9 10  1  1
 10 11  1  0
 11 15  1  0
 11 12  2  0
 13 20  1  0
 14 13  2  0
 17 16  1  6
 17 18  1  0
 19 17  1  0
 19 20  1  6
 21 22  1  0
 21 19  1  0
 23 21  2  0
M  END
$$$$
