PDT.pdb
     RDKit          3D

 23 23  0  0  1  0  0  0  0  0999 V2000
    9.2314  -14.4561   19.1499 N   0  0  0  0  0  0  0  0  0  0  0  0
    8.2748  -14.7147   18.1013 C   0  0  0  0  0  0  0  0  0  0  0  0
    6.9847  -14.0696   18.5894 C   0  0  0  0  0  0  0  0  0  0  0  0
    7.5807  -12.7911   19.1980 C   0  0  0  0  0  0  0  0  0  0  0  0
    8.7101  -13.4061   19.9891 C   0  0  1  0  0  0  0  0  0  0  0  0
    8.2735  -13.9831   21.2659 C   0  0  0  0  0  0  0  0  0  0  0  0
    7.3517  -13.4306   21.9120 O   0  0  0  0  0  0  0  0  0  0  0  0
    8.8559  -15.1605   21.8180 N   0  0  0  0  0  0  0  0  0  0  0  0
    8.5414  -15.7669   23.0634 C   0  0  1  0  0  0  0  0  0  0  0  0
    9.0950  -17.1597   23.2222 C   0  0  0  0  0  0  0  0  0  0  0  0
   10.5824  -17.0048   23.3691 C   0  0  0  0  0  0  0  0  0  0  0  0
   11.2430  -16.5154   22.4343 O   0  0  0  0  0  0  0  0  0  0  0  0
    8.8627  -14.9293   24.2624 C   0  0  0  0  0  0  0  0  0  0  0  0
    9.9389  -14.2992   24.3287 O   0  0  0  0  0  0  0  0  0  0  0  0
   11.2470  -17.3910   24.5172 O   0  0  0  0  0  0  0  0  0  0  0  0
    6.9992  -11.9588   25.5976 C   0  0  0  0  0  0  0  0  0  0  0  0
    7.0424  -13.0132   26.6723 C   0  0  1  0  0  0  0  0  0  0  0  0
    5.8984  -13.8277   26.6323 O   0  0  0  0  0  0  0  0  0  0  0  0
    8.2397  -13.9450   26.4649 C   0  0  2  0  0  0  0  0  0  0  0  0
    7.9583  -14.8267   25.3543 N   0  0  0  0  0  0  0  0  0  0  0  0
    8.5092  -14.7072   27.7120 C   0  0  0  0  0  0  0  0  0  0  0  0
    8.8807  -14.1354   28.8954 O   0  0  0  0  0  0  0  0  0  0  0  0
    8.3846  -15.9579   27.6656 O   0  0  0  0  0  0  0  0  0  0  0  0
  1  5  1  0
  2  1  1  0
  2  3  1  0
  3  4  1  0
  5  4  1  0
  6  8  1  0
  5  6  1  1
  7  6  2  0
  9 13  1  0
  9  8  1  0
  9 10  1  1
 10 11  1  0
 11 15  1  0
 11 12  2  0
 13 20  1  0
 14 13  2  0
 17 16  1  6
 17 18  1  0
 19 17  1  0
 19 20  1  6
 21 22  1  0
 21 19  1  0
 23 21  2  0
M  END
$$$$
