PDT.pdb
     RDKit          3D

 23 23  0  0  1  0  0  0  0  0999 V2000
    9.0314  -14.5829   19.6604 N   0  0  0  0  0  0  0  0  0  0  0  0
    7.8425  -14.6151   18.8437 C   0  0  0  0  0  0  0  0  0  0  0  0
    6.7909  -13.8821   19.6656 C   0  0  0  0  0  0  0  0  0  0  0  0
    7.6744  -12.7539   20.2193 C   0  0  0  0  0  0  0  0  0  0  0  0
    8.8546  -13.5765   20.6774 C   0  0  1  0  0  0  0  0  0  0  0  0
    8.6333  -14.2336   21.9708 C   0  0  0  0  0  0  0  0  0  0  0  0
    8.2568  -13.5531   22.9545 O   0  0  0  0  0  0  0  0  0  0  0  0
    8.8290  -15.6311   22.1680 N   0  0  0  0  0  0  0  0  0  0  0  0
    8.6556  -16.3566   23.3767 C   0  0  1  0  0  0  0  0  0  0  0  0
    8.5644  -17.8490   23.1863 C   0  0  0  0  0  0  0  0  0  0  0  0
    8.0875  -18.4098   24.4963 C   0  0  0  0  0  0  0  0  0  0  0  0
    8.8717  -19.0708   25.2019 O   0  0  0  0  0  0  0  0  0  0  0  0
    9.6415  -16.0192   24.4523 C   0  0  0  0  0  0  0  0  0  0  0  0
   10.8636  -15.9651   24.2011 O   0  0  0  0  0  0  0  0  0  0  0  0
    6.7963  -18.2146   24.9474 O   0  0  0  0  0  0  0  0  0  0  0  0
    8.4370  -13.7559   27.6284 C   0  0  0  0  0  0  0  0  0  0  0  0
    9.8737  -13.9008   27.2000 C   0  0  1  0  0  0  0  0  0  0  0  0
   10.7520  -13.6009   28.2547 O   0  0  0  0  0  0  0  0  0  0  0  0
   10.1711  -15.3464   26.7921 C   0  0  2  0  0  0  0  0  0  0  0  0
    9.2187  -15.7520   25.7829 N   0  0  0  0  0  0  0  0  0  0  0  0
   10.1120  -16.2308   27.9850 C   0  0  0  0  0  0  0  0  0  0  0  0
   10.9666  -16.1445   29.0470 O   0  0  0  0  0  0  0  0  0  0  0  0
    9.2147  -17.1117   28.0099 O   0  0  0  0  0  0  0  0  0  0  0  0
  1  5  1  0
  2  1  1  0
  2  3  1  0
  3  4  1  0
  5  4  1  0
  6  8  1  0
  5  6  1  1
  7  6  2  0
  9 13  1  0
  9  8  1  0
  9 10  1  6
 10 11  1  0
 11 15  1  0
 11 12  2  0
 13 20  1  0
 14 13  2  0
 17 16  1  1
 17 18  1  0
 19 17  1  0
 19 20  1  6
 21 22  1  0
 21 19  1  0
 23 21  2  0
M  END
$$$$
