MQL.pdb
     RDKit          3D

 26 25  0  0  1  0  0  0  0  0999 V2000
    8.4659  -12.4539   19.7846 C   0  0  0  0  0  0  0  0  0  0  0  0
    8.6787  -13.3061   18.1962 S   0  0  0  0  0  0  0  0  0  0  0  0
    7.8058  -14.8874   18.1993 C   0  0  0  0  0  0  0  0  0  0  0  0
    7.1501  -15.1231   19.5519 C   0  0  0  0  0  0  0  0  0  0  0  0
    7.8304  -16.3038   20.2259 C   0  0  2  0  0  0  0  0  0  0  0  0
    7.6025  -17.4666   19.3968 N   0  0  0  0  0  0  0  0  0  0  0  0
    7.2281  -16.4768   21.5715 C   0  0  0  0  0  0  0  0  0  0  0  0
    6.4000  -15.5894   21.9493 O   0  0  0  0  0  0  0  0  0  0  0  0
    7.2655  -21.2734   25.3918 N   0  0  0  0  0  0  0  0  0  0  0  0
    7.2860  -20.2402   26.3463 C   0  0  0  0  0  0  0  0  0  0  0  0
    7.0696  -20.4405   27.5776 O   0  0  0  0  0  0  0  0  0  0  0  0
    7.5735  -18.8597   25.8859 C   0  0  0  0  0  0  0  0  0  0  0  0
    7.8109  -18.8605   24.4114 C   0  0  0  0  0  0  0  0  0  0  0  0
    7.2556  -17.5762   23.8370 C   0  0  2  0  0  0  0  0  0  0  0  0
    7.5344  -17.5656   22.4276 N   0  0  0  0  0  0  0  0  0  0  0  0
    7.8625  -16.4486   24.5594 C   0  0  0  0  0  0  0  0  0  0  0  0
    9.0985  -16.2801   24.5094 O   0  0  0  0  0  0  0  0  0  0  0  0
    5.3999  -11.9577   27.9672 C   0  0  0  0  0  0  0  0  0  0  0  0
    6.6927  -12.4337   27.3070 C   0  0  2  0  0  0  0  0  0  0  0  0
    7.2757  -11.3315   26.5051 C   0  0  0  0  0  0  0  0  0  0  0  0
    6.3560  -13.6707   26.5360 C   0  0  0  0  0  0  0  0  0  0  0  0
    7.5507  -14.3916   25.9796 C   0  0  2  0  0  0  0  0  0  0  0  0
    7.0568  -15.5723   25.2969 N   0  0  0  0  0  0  0  0  0  0  0  0
    8.5776  -14.7183   26.9629 C   0  0  0  0  0  0  0  0  0  0  0  0
    8.5416  -15.6374   27.7880 O   0  0  0  0  0  0  0  0  0  0  0  0
    9.7367  -13.9154   26.9905 O   0  0  0  0  0  0  0  0  0  0  0  0
  2  1  1  0
  3  2  1  0
  4  3  1  0
  4  5  1  0
  5  6  1  6
  7  5  1  0
  7  8  2  0
  9 10  1  0
 10 12  1  0
 11 10  2  0
 12 13  1  0
 14 13  1  1
 14 15  1  0
 15  7  1  0
 16 14  1  0
 17 16  2  0
 19 18  1  6
 19 21  1  0
 20 19  1  0
 22 23  1  0
 22 21  1  1
 23 16  1  0
 24 22  1  0
 25 24  2  0
 26 24  1  0
M  END
$$$$
