MQL.pdb
     RDKit          3D

 26 25  0  0  1  0  0  0  0  0999 V2000
    9.5972  -11.9224   19.0674 C   0  0  0  0  0  0  0  0  0  0  0  0
    7.8398  -11.8798   19.5197 S   0  0  0  0  0  0  0  0  0  0  0  0
    7.1206  -13.5346   19.4388 C   0  0  0  0  0  0  0  0  0  0  0  0
    7.1837  -14.2025   20.8044 C   0  0  0  0  0  0  0  0  0  0  0  0
    7.6436  -15.6403   20.6247 C   0  0  2  0  0  0  0  0  0  0  0  0
    6.5442  -16.3774   20.0420 N   0  0  0  0  0  0  0  0  0  0  0  0
    8.0044  -16.1796   21.9598 C   0  0  0  0  0  0  0  0  0  0  0  0
    7.0463  -16.4325   22.7560 O   0  0  0  0  0  0  0  0  0  0  0  0
   12.5198  -20.2308   23.7862 N   0  0  0  0  0  0  0  0  0  0  0  0
   12.0821  -19.5874   22.6144 C   0  0  0  0  0  0  0  0  0  0  0  0
   12.7110  -19.6587   21.5178 O   0  0  0  0  0  0  0  0  0  0  0  0
   10.8306  -18.7931   22.6708 C   0  0  0  0  0  0  0  0  0  0  0  0
   11.0245  -17.6117   23.5637 C   0  0  0  0  0  0  0  0  0  0  0  0
    9.7068  -16.8782   23.6791 C   0  0  2  0  0  0  0  0  0  0  0  0
    9.3421  -16.4160   22.3684 N   0  0  0  0  0  0  0  0  0  0  0  0
    9.8691  -15.7913   24.6558 C   0  0  0  0  0  0  0  0  0  0  0  0
   10.7742  -14.9471   24.4916 O   0  0  0  0  0  0  0  0  0  0  0  0
    8.3470  -12.1524   25.8504 C   0  0  0  0  0  0  0  0  0  0  0  0
    7.3418  -13.2897   26.0236 C   0  0  2  0  0  0  0  0  0  0  0  0
    5.9870  -12.7268   26.2364 C   0  0  0  0  0  0  0  0  0  0  0  0
    7.8518  -14.1540   27.1330 C   0  0  0  0  0  0  0  0  0  0  0  0
    9.1911  -14.7772   26.8597 C   0  0  2  0  0  0  0  0  0  0  0  0
    9.0128  -15.7069   25.7606 N   0  0  0  0  0  0  0  0  0  0  0  0
    9.8155  -15.4109   28.0159 C   0  0  0  0  0  0  0  0  0  0  0  0
   10.2641  -14.8402   29.0157 O   0  0  0  0  0  0  0  0  0  0  0  0
    9.9277  -16.8167   28.0108 O   0  0  0  0  0  0  0  0  0  0  0  0
  2  1  1  0
  3  2  1  0
  4  3  1  0
  4  5  1  0
  5  6  1  1
  7  5  1  0
  7  8  2  0
  9 10  1  0
 10 12  1  0
 11 10  2  0
 12 13  1  0
 14 13  1  6
 14 15  1  0
 15  7  1  0
 16 14  1  0
 17 16  2  0
 19 18  1  1
 19 21  1  0
 20 19  1  0
 22 23  1  0
 22 21  1  1
 23 16  1  0
 24 22  1  0
 25 24  2  0
 26 24  1  0
M  END
$$$$
