MQL.pdb
     RDKit          3D

 26 25  0  0  1  0  0  0  0  0999 V2000
    8.4435  -11.6305   19.7073 C   0  0  0  0  0  0  0  0  0  0  0  0
    8.1000  -12.3644   18.0831 S   0  0  0  0  0  0  0  0  0  0  0  0
    8.5074  -14.1241   18.0799 C   0  0  0  0  0  0  0  0  0  0  0  0
    8.3443  -14.7039   19.4770 C   0  0  0  0  0  0  0  0  0  0  0  0
    8.7682  -16.1636   19.4531 C   0  0  2  0  0  0  0  0  0  0  0  0
    7.8673  -16.8622   18.5633 N   0  0  0  0  0  0  0  0  0  0  0  0
    8.6755  -16.6937   20.8365 C   0  0  0  0  0  0  0  0  0  0  0  0
    7.5081  -16.8716   21.3072 O   0  0  0  0  0  0  0  0  0  0  0  0
   13.2721  -19.2468   22.9700 N   0  0  0  0  0  0  0  0  0  0  0  0
   12.1213  -20.0042   22.6852 C   0  0  0  0  0  0  0  0  0  0  0  0
   12.1731  -21.1801   22.2189 O   0  0  0  0  0  0  0  0  0  0  0  0
   10.7937  -19.3951   22.9439 C   0  0  0  0  0  0  0  0  0  0  0  0
   10.9701  -18.0038   23.4572 C   0  0  0  0  0  0  0  0  0  0  0  0
    9.7614  -17.1887   23.0542 C   0  0  2  0  0  0  0  0  0  0  0  0
    9.8103  -17.0001   21.6306 N   0  0  0  0  0  0  0  0  0  0  0  0
    9.7837  -15.9278   23.8100 C   0  0  0  0  0  0  0  0  0  0  0  0
   10.7124  -15.1147   23.6222 O   0  0  0  0  0  0  0  0  0  0  0  0
    6.0122  -12.0179   26.1842 C   0  0  0  0  0  0  0  0  0  0  0  0
    7.4144  -12.5822   26.4057 C   0  0  2  0  0  0  0  0  0  0  0  0
    8.4123  -11.4920   26.2903 C   0  0  0  0  0  0  0  0  0  0  0  0
    7.5876  -13.7070   25.4347 C   0  0  0  0  0  0  0  0  0  0  0  0
    8.8112  -14.5442   25.6769 C   0  0  2  0  0  0  0  0  0  0  0  0
    8.7691  -15.6445   24.7326 N   0  0  0  0  0  0  0  0  0  0  0  0
    8.9697  -15.0086   27.0507 C   0  0  0  0  0  0  0  0  0  0  0  0
    9.6102  -14.4501   27.9477 O   0  0  0  0  0  0  0  0  0  0  0  0
    8.3350  -16.2152   27.4112 O   0  0  0  0  0  0  0  0  0  0  0  0
  2  1  1  0
  3  2  1  0
  4  3  1  0
  4  5  1  0
  5  6  1  6
  7  5  1  0
  7  8  2  0
  9 10  1  0
 10 12  1  0
 11 10  2  0
 12 13  1  0
 14 13  1  1
 14 15  1  0
 15  7  1  0
 16 14  1  0
 17 16  2  0
 19 18  1  6
 19 21  1  0
 20 19  1  0
 22 23  1  0
 22 21  1  1
 23 16  1  0
 24 22  1  0
 25 24  2  0
 26 24  1  0
M  END
$$$$
