MQL.pdb
     RDKit          3D

 26 25  0  0  1  0  0  0  0  0999 V2000
    7.4154  -11.8030   20.2178 C   0  0  0  0  0  0  0  0  0  0  0  0
    7.6748  -12.4199   18.5306 S   0  0  0  0  0  0  0  0  0  0  0  0
    7.8955  -14.2126   18.5343 C   0  0  0  0  0  0  0  0  0  0  0  0
    8.2502  -14.6956   19.9328 C   0  0  0  0  0  0  0  0  0  0  0  0
    8.4559  -16.2013   19.8925 C   0  0  2  0  0  0  0  0  0  0  0  0
    7.2152  -16.7965   19.4477 N   0  0  0  0  0  0  0  0  0  0  0  0
    8.8095  -16.6553   21.2607 C   0  0  0  0  0  0  0  0  0  0  0  0
    7.8458  -16.8956   22.0541 O   0  0  0  0  0  0  0  0  0  0  0  0
   14.1544  -19.6207   23.4428 N   0  0  0  0  0  0  0  0  0  0  0  0
   13.5737  -19.1476   22.2520 C   0  0  0  0  0  0  0  0  0  0  0  0
   14.2213  -19.0401   21.1694 O   0  0  0  0  0  0  0  0  0  0  0  0
   12.1421  -18.7595   22.2706 C   0  0  0  0  0  0  0  0  0  0  0  0
   11.9687  -17.5157   23.0790 C   0  0  0  0  0  0  0  0  0  0  0  0
   10.5055  -17.1334   23.0601 C   0  0  2  0  0  0  0  0  0  0  0  0
   10.1465  -16.8260   21.7033 N   0  0  0  0  0  0  0  0  0  0  0  0
   10.3124  -16.0057   23.9836 C   0  0  0  0  0  0  0  0  0  0  0  0
   10.5562  -14.8444   23.5953 O   0  0  0  0  0  0  0  0  0  0  0  0
    8.3702  -13.2637   27.5401 C   0  0  0  0  0  0  0  0  0  0  0  0
    7.6419  -13.3674   26.2013 C   0  0  2  0  0  0  0  0  0  0  0  0
    6.1774  -13.3373   26.4290 C   0  0  0  0  0  0  0  0  0  0  0  0
    8.1539  -14.5987   25.5233 C   0  0  0  0  0  0  0  0  0  0  0  0
    9.3673  -15.1989   26.1747 C   0  0  2  0  0  0  0  0  0  0  0  0
    9.8584  -16.2365   25.2880 N   0  0  0  0  0  0  0  0  0  0  0  0
    9.1490  -15.6953   27.5289 C   0  0  0  0  0  0  0  0  0  0  0  0
    8.4816  -16.6836   27.8525 O   0  0  0  0  0  0  0  0  0  0  0  0
    9.7526  -14.9896   28.5902 O   0  0  0  0  0  0  0  0  0  0  0  0
  2  1  1  0
  3  2  1  0
  4  3  1  0
  4  5  1  0
  5  6  1  1
  7  5  1  0
  7  8  2  0
  9 10  1  0
 10 12  1  0
 11 10  2  0
 12 13  1  0
 14 13  1  6
 14 15  1  0
 15  7  1  0
 16 14  1  0
 17 16  2  0
 19 18  1  1
 19 21  1  0
 20 19  1  0
 22 23  1  0
 22 21  1  6
 23 16  1  0
 24 22  1  0
 25 24  2  0
 26 24  1  0
M  END
$$$$
