MQL.pdb
     RDKit          3D

 26 25  0  0  1  0  0  0  0  0999 V2000
    7.6683  -11.4716   21.8228 C   0  0  0  0  0  0  0  0  0  0  0  0
    7.2174  -11.9725   20.1374 S   0  0  0  0  0  0  0  0  0  0  0  0
    7.3041  -13.7681   19.9616 C   0  0  0  0  0  0  0  0  0  0  0  0
    7.9031  -14.3906   21.2140 C   0  0  0  0  0  0  0  0  0  0  0  0
    7.9713  -15.8976   21.0263 C   0  0  2  0  0  0  0  0  0  0  0  0
    6.6125  -16.3867   20.9486 N   0  0  0  0  0  0  0  0  0  0  0  0
    8.6848  -16.4759   22.1924 C   0  0  0  0  0  0  0  0  0  0  0  0
    7.9809  -17.1071   23.0422 O   0  0  0  0  0  0  0  0  0  0  0  0
   13.9768  -20.0058   22.7649 N   0  0  0  0  0  0  0  0  0  0  0  0
   12.9535  -19.3909   23.5090 C   0  0  0  0  0  0  0  0  0  0  0  0
   11.9289  -20.0162   23.9120 O   0  0  0  0  0  0  0  0  0  0  0  0
   13.0849  -17.9493   23.8326 C   0  0  0  0  0  0  0  0  0  0  0  0
   12.2845  -17.1415   22.8644 C   0  0  0  0  0  0  0  0  0  0  0  0
   10.8372  -17.1660   23.3029 C   0  0  2  0  0  0  0  0  0  0  0  0
   10.0845  -16.3532   22.3880 N   0  0  0  0  0  0  0  0  0  0  0  0
   10.7695  -16.6933   24.6935 C   0  0  0  0  0  0  0  0  0  0  0  0
   11.4169  -17.2906   25.5782 O   0  0  0  0  0  0  0  0  0  0  0  0
    7.2277  -12.6036   25.1655 C   0  0  0  0  0  0  0  0  0  0  0  0
    7.7081  -13.9570   25.6864 C   0  0  2  0  0  0  0  0  0  0  0  0
    6.7221  -14.4951   26.6539 C   0  0  0  0  0  0  0  0  0  0  0  0
    9.0848  -13.7476   26.2330 C   0  0  0  0  0  0  0  0  0  0  0  0
    9.8978  -15.0055   26.3478 C   0  0  2  0  0  0  0  0  0  0  0  0
    9.9836  -15.5809   25.0191 N   0  0  0  0  0  0  0  0  0  0  0  0
    9.4006  -15.9650   27.3279 C   0  0  0  0  0  0  0  0  0  0  0  0
    8.7583  -16.9937   27.0913 O   0  0  0  0  0  0  0  0  0  0  0  0
    9.6703  -15.7104   28.6884 O   0  0  0  0  0  0  0  0  0  0  0  0
  2  1  1  0
  3  2  1  0
  4  3  1  0
  4  5  1  0
  5  6  1  1
  7  5  1  0
  7  8  2  0
  9 10  1  0
 10 12  1  0
 11 10  2  0
 12 13  1  0
 14 13  1  6
 14 15  1  0
 15  7  1  0
 16 14  1  0
 17 16  2  0
 19 18  1  1
 19 21  1  0
 20 19  1  0
 22 23  1  0
 22 21  1  6
 23 16  1  0
 24 22  1  0
 25 24  2  0
 26 24  1  0
M  END
$$$$
