MQL.pdb
     RDKit          3D

 26 25  0  0  1  0  0  0  0  0999 V2000
    8.7423  -11.3415   19.8906 C   0  0  0  0  0  0  0  0  0  0  0  0
    7.8874  -12.0902   18.4752 S   0  0  0  0  0  0  0  0  0  0  0  0
    8.2992  -13.8434   18.3366 C   0  0  0  0  0  0  0  0  0  0  0  0
    8.1344  -14.5302   19.6842 C   0  0  0  0  0  0  0  0  0  0  0  0
    8.5793  -15.9779   19.5528 C   0  0  2  0  0  0  0  0  0  0  0  0
    7.5785  -16.6697   18.7709 N   0  0  0  0  0  0  0  0  0  0  0  0
    8.6875  -16.5529   20.9170 C   0  0  0  0  0  0  0  0  0  0  0  0
    7.6031  -16.8996   21.4827 O   0  0  0  0  0  0  0  0  0  0  0  0
   11.2766  -20.7581   23.6513 N   0  0  0  0  0  0  0  0  0  0  0  0
   10.8437  -19.7714   24.5557 C   0  0  0  0  0  0  0  0  0  0  0  0
    9.9476  -19.9841   25.4245 O   0  0  0  0  0  0  0  0  0  0  0  0
   11.4662  -18.4268   24.4844 C   0  0  0  0  0  0  0  0  0  0  0  0
   11.3609  -17.8970   23.0921 C   0  0  0  0  0  0  0  0  0  0  0  0
   10.0321  -17.1888   22.9492 C   0  0  2  0  0  0  0  0  0  0  0  0
    9.9222  -16.7247   21.5939 N   0  0  0  0  0  0  0  0  0  0  0  0
    9.9787  -16.1057   23.9421 C   0  0  0  0  0  0  0  0  0  0  0  0
   10.8968  -15.2606   23.9800 O   0  0  0  0  0  0  0  0  0  0  0  0
    5.8834  -12.8535   26.7509 C   0  0  0  0  0  0  0  0  0  0  0  0
    7.3595  -13.2467   26.7502 C   0  0  2  0  0  0  0  0  0  0  0  0
    8.1700  -12.1318   26.2044 C   0  0  0  0  0  0  0  0  0  0  0  0
    7.4647  -14.5356   25.9981 C   0  0  0  0  0  0  0  0  0  0  0  0
    8.8499  -15.1158   25.9648 C   0  0  2  0  0  0  0  0  0  0  0  0
    8.9043  -16.0260   24.8366 N   0  0  0  0  0  0  0  0  0  0  0  0
    9.2719  -15.7571   27.2053 C   0  0  0  0  0  0  0  0  0  0  0  0
    8.9847  -16.8994   27.5787 O   0  0  0  0  0  0  0  0  0  0  0  0
   10.0913  -15.0144   28.0803 O   0  0  0  0  0  0  0  0  0  0  0  0
  2  1  1  0
  3  2  1  0
  4  3  1  0
  4  5  1  0
  5  6  1  6
  7  5  1  0
  7  8  2  0
  9 10  1  0
 10 12  1  0
 11 10  2  0
 12 13  1  0
 14 13  1  6
 14 15  1  0
 15  7  1  0
 16 14  1  0
 17 16  2  0
 19 18  1  6
 19 21  1  0
 20 19  1  0
 22 23  1  0
 22 21  1  1
 23 16  1  0
 24 22  1  0
 25 24  2  0
 26 24  1  0
M  END
$$$$
