MQL.pdb
     RDKit          3D

 26 25  0  0  1  0  0  0  0  0999 V2000
    9.0655  -11.7719   19.7306 C   0  0  0  0  0  0  0  0  0  0  0  0
    7.7786  -12.4567   18.6491 S   0  0  0  0  0  0  0  0  0  0  0  0
    7.7031  -14.2544   18.8077 C   0  0  0  0  0  0  0  0  0  0  0  0
    7.9936  -14.6681   20.2427 C   0  0  0  0  0  0  0  0  0  0  0  0
    8.0039  -16.1863   20.3214 C   0  0  2  0  0  0  0  0  0  0  0  0
    6.6705  -16.6460   20.0017 N   0  0  0  0  0  0  0  0  0  0  0  0
    8.3897  -16.5741   21.7012 C   0  0  0  0  0  0  0  0  0  0  0  0
    7.4501  -16.6927   22.5493 O   0  0  0  0  0  0  0  0  0  0  0  0
   12.9691  -20.0719   23.2728 N   0  0  0  0  0  0  0  0  0  0  0  0
   12.6815  -19.5758   24.5574 C   0  0  0  0  0  0  0  0  0  0  0  0
   13.0497  -20.1630   25.6170 O   0  0  0  0  0  0  0  0  0  0  0  0
   11.9145  -18.3111   24.6701 C   0  0  0  0  0  0  0  0  0  0  0  0
   11.5017  -17.8504   23.3108 C   0  0  0  0  0  0  0  0  0  0  0  0
   10.1084  -17.2697   23.4056 C   0  0  2  0  0  0  0  0  0  0  0  0
    9.7311  -16.8105   22.0974 N   0  0  0  0  0  0  0  0  0  0  0  0
   10.1225  -16.2017   24.4161 C   0  0  0  0  0  0  0  0  0  0  0  0
   11.1138  -16.0768   25.1647 O   0  0  0  0  0  0  0  0  0  0  0  0
    5.5057  -12.8248   26.5808 C   0  0  0  0  0  0  0  0  0  0  0  0
    7.0061  -13.0727   26.7252 C   0  0  2  0  0  0  0  0  0  0  0  0
    7.7161  -11.7754   26.8281 C   0  0  0  0  0  0  0  0  0  0  0  0
    7.4169  -13.9316   25.5713 C   0  0  0  0  0  0  0  0  0  0  0  0
    8.8381  -14.4134   25.6397 C   0  0  2  0  0  0  0  0  0  0  0  0
    9.0304  -15.3333   24.5348 N   0  0  0  0  0  0  0  0  0  0  0  0
    9.2198  -15.0058   26.9170 C   0  0  0  0  0  0  0  0  0  0  0  0
   10.0154  -14.5370   27.7379 O   0  0  0  0  0  0  0  0  0  0  0  0
    8.6319  -16.2385   27.2687 O   0  0  0  0  0  0  0  0  0  0  0  0
  2  1  1  0
  3  2  1  0
  4  3  1  0
  4  5  1  0
  5  6  1  1
  7  5  1  0
  7  8  2  0
  9 10  1  0
 10 12  1  0
 11 10  2  0
 12 13  1  0
 14 13  1  6
 14 15  1  0
 15  7  1  0
 16 14  1  0
 17 16  2  0
 19 18  1  6
 19 21  1  0
 20 19  1  0
 22 23  1  0
 22 21  1  1
 23 16  1  0
 24 22  1  0
 25 24  2  0
 26 24  1  0
M  END
$$$$
