MQL.pdb
     RDKit          3D

 26 25  0  0  1  0  0  0  0  0999 V2000
    8.0776  -11.4911   18.3270 C   0  0  0  0  0  0  0  0  0  0  0  0
    8.2592  -12.6662   19.6985 S   0  0  0  0  0  0  0  0  0  0  0  0
    7.1219  -14.0556   19.5022 C   0  0  0  0  0  0  0  0  0  0  0  0
    7.2901  -15.0390   20.6509 C   0  0  0  0  0  0  0  0  0  0  0  0
    8.1347  -16.2092   20.1732 C   0  0  2  0  0  0  0  0  0  0  0  0
    7.2698  -17.0882   19.4176 N   0  0  0  0  0  0  0  0  0  0  0  0
    8.6886  -16.8960   21.3668 C   0  0  0  0  0  0  0  0  0  0  0  0
    7.9121  -17.6897   21.9857 O   0  0  0  0  0  0  0  0  0  0  0  0
   14.4505  -18.4029   22.6591 N   0  0  0  0  0  0  0  0  0  0  0  0
   13.4799  -19.1395   21.9560 C   0  0  0  0  0  0  0  0  0  0  0  0
   13.7710  -20.1232   21.2139 O   0  0  0  0  0  0  0  0  0  0  0  0
   12.0571  -18.7433   22.0930 C   0  0  0  0  0  0  0  0  0  0  0  0
   11.9546  -17.5248   22.9505 C   0  0  0  0  0  0  0  0  0  0  0  0
   10.4925  -17.1690   23.1029 C   0  0  2  0  0  0  0  0  0  0  0  0
   10.0158  -16.7042   21.8296 N   0  0  0  0  0  0  0  0  0  0  0  0
   10.3717  -16.1663   24.1715 C   0  0  0  0  0  0  0  0  0  0  0  0
   11.1370  -15.1800   24.1784 O   0  0  0  0  0  0  0  0  0  0  0  0
    6.1235  -13.2643   26.8370 C   0  0  0  0  0  0  0  0  0  0  0  0
    7.5735  -13.6742   27.0882 C   0  0  2  0  0  0  0  0  0  0  0  0
    8.4269  -12.4640   27.1566 C   0  0  0  0  0  0  0  0  0  0  0  0
    7.9404  -14.6501   26.0153 C   0  0  0  0  0  0  0  0  0  0  0  0
    9.2187  -15.3955   26.2742 C   0  0  2  0  0  0  0  0  0  0  0  0
    9.4042  -16.3201   25.1721 N   0  0  0  0  0  0  0  0  0  0  0  0
    9.2810  -16.0673   27.5677 C   0  0  0  0  0  0  0  0  0  0  0  0
    8.5282  -16.9604   27.9708 O   0  0  0  0  0  0  0  0  0  0  0  0
   10.2963  -15.6715   28.4628 O   0  0  0  0  0  0  0  0  0  0  0  0
  2  1  1  0
  3  2  1  0
  4  3  1  0
  4  5  1  0
  5  6  1  1
  7  5  1  0
  7  8  2  0
  9 10  1  0
 10 12  1  0
 11 10  2  0
 12 13  1  0
 14 13  1  6
 14 15  1  0
 15  7  1  0
 16 14  1  0
 17 16  2  0
 19 18  1  6
 19 21  1  0
 20 19  1  0
 22 23  1  0
 22 21  1  6
 23 16  1  0
 24 22  1  0
 25 24  2  0
 26 24  1  0
M  END
$$$$
