MAW.pdb
     RDKit          3D

 28 29  0  0  1  0  0  0  0  0999 V2000
   30.6569  -21.9830  -10.9000 C   0  0  0  0  0  0  0  0  0  0  0  0
   31.2311  -22.7861  -12.4103 S   0  0  0  0  0  0  0  0  0  0  0  0
   31.5203  -21.5927  -13.6896 C   0  0  0  0  0  0  0  0  0  0  0  0
   30.4677  -20.5836  -13.9319 C   0  0  0  0  0  0  0  0  0  0  0  0
   29.3135  -20.9718  -14.7810 C   0  0  2  0  0  0  0  0  0  0  0  0
   29.5243  -20.7985  -16.1823 N   0  0  0  0  0  0  0  0  0  0  0  0
   28.1703  -20.0877  -14.3719 C   0  0  0  0  0  0  0  0  0  0  0  0
   28.3942  -19.0352  -13.6815 O   0  0  0  0  0  0  0  0  0  0  0  0
   24.7043  -19.3054  -15.2345 C   0  0  0  0  0  0  0  0  0  0  0  0
   25.7268  -19.6611  -14.1940 C   0  0  2  0  0  0  0  0  0  0  0  0
   26.8510  -20.4100  -14.7432 N   0  0  0  0  0  0  0  0  0  0  0  0
   25.1439  -20.5162  -13.1055 C   0  0  0  0  0  0  0  0  0  0  0  0
   24.9632  -21.7578  -13.2498 O   0  0  0  0  0  0  0  0  0  0  0  0
   24.7650  -19.9658  -11.8512 N   0  0  0  0  0  0  0  0  0  0  0  0
   24.1887  -20.7998  -10.8091 C   0  0  1  0  0  0  0  0  0  0  0  0
   24.5086  -20.2819   -9.4352 C   0  0  0  0  0  0  0  0  0  0  0  0
   25.9103  -20.6338   -9.1199 C   0  0  0  0  0  0  0  0  0  0  0  0
   26.6959  -21.5702   -9.7546 C   0  0  0  0  0  0  0  0  0  0  0  0
   27.9252  -21.5952   -9.1608 N   0  0  0  0  0  0  0  0  0  0  0  0
   27.9471  -20.6920   -8.1548 C   0  0  0  0  0  0  0  0  0  0  0  0
   28.9114  -20.3240   -7.2615 C   0  0  0  0  0  0  0  0  0  0  0  0
   28.6498  -19.3523   -6.3225 C   0  0  0  0  0  0  0  0  0  0  0  0
   27.4164  -18.7541   -6.2867 C   0  0  0  0  0  0  0  0  0  0  0  0
   26.4401  -19.1190   -7.1828 C   0  0  0  0  0  0  0  0  0  0  0  0
   26.6936  -20.0909   -8.1260 C   0  0  0  0  0  0  0  0  0  0  0  0
   22.7262  -20.9794  -11.0394 C   0  0  0  0  0  0  0  0  0  0  0  0
   22.0431  -21.7644  -10.3109 O   0  0  0  0  0  0  0  0  0  0  0  0
   22.0544  -20.3077  -12.0435 O   0  0  0  0  0  0  0  0  0  0  0  0
  2  1  1  0
  3  4  1  0
  3  2  1  0
  4  5  1  0
  5  7  1  0
  5  6  1  6
  7  8  2  0
 10  9  1  6
 11 10  1  0
 11  7  1  0
 12 10  1  0
 13 12  2  0
 14 12  1  0
 15 26  1  0
 15 14  1  0
 15 16  1  1
 17 16  1  0
 18 17  2  0
 19 20  1  0
 19 18  1  0
 20 25  2  0
 21 22  2  0
 21 20  1  0
 22 23  1  0
 23 24  2  0
 25 17  1  0
 25 24  1  0
 26 28  1  0
 27 26  2  0
M  END
$$$$
