MAW.pdb
     RDKit          3D

 28 29  0  0  1  0  0  0  0  0999 V2000
   19.1830  -18.1555  -11.3499 C   0  0  0  0  0  0  0  0  0  0  0  0
   19.1137  -18.1028  -13.1522 S   0  0  0  0  0  0  0  0  0  0  0  0
   19.3406  -19.7211  -13.8407 C   0  0  0  0  0  0  0  0  0  0  0  0
   20.5340  -20.4825  -13.4148 C   0  0  0  0  0  0  0  0  0  0  0  0
   21.8472  -19.7908  -13.4421 C   0  0  2  0  0  0  0  0  0  0  0  0
   22.2873  -19.4064  -14.7446 N   0  0  0  0  0  0  0  0  0  0  0  0
   22.8485  -20.7606  -12.8826 C   0  0  0  0  0  0  0  0  0  0  0  0
   22.5885  -21.3925  -11.8020 O   0  0  0  0  0  0  0  0  0  0  0  0
   26.0614  -22.3772  -13.9485 C   0  0  0  0  0  0  0  0  0  0  0  0
   25.0904  -21.8352  -12.9394 C   0  0  2  0  0  0  0  0  0  0  0  0
   24.0741  -20.9795  -13.5402 N   0  0  0  0  0  0  0  0  0  0  0  0
   25.7758  -21.0030  -11.8936 C   0  0  0  0  0  0  0  0  0  0  0  0
   26.0316  -19.7789  -12.0698 O   0  0  0  0  0  0  0  0  0  0  0  0
   26.1722  -21.5566  -10.6462 N   0  0  0  0  0  0  0  0  0  0  0  0
   26.9000  -20.7623   -9.6700 C   0  0  1  0  0  0  0  0  0  0  0  0
   26.3529  -20.9404   -8.2819 C   0  0  0  0  0  0  0  0  0  0  0  0
   27.0337  -19.9798   -7.3865 C   0  0  0  0  0  0  0  0  0  0  0  0
   26.9792  -18.6049   -7.4459 C   0  0  0  0  0  0  0  0  0  0  0  0
   27.7488  -18.0857   -6.4446 N   0  0  0  0  0  0  0  0  0  0  0  0
   28.2987  -19.1005   -5.7403 C   0  0  0  0  0  0  0  0  0  0  0  0
   29.1329  -19.1329   -4.6603 C   0  0  0  0  0  0  0  0  0  0  0  0
   29.5432  -20.3388   -4.1391 C   0  0  0  0  0  0  0  0  0  0  0  0
   29.1113  -21.5092   -4.7083 C   0  0  0  0  0  0  0  0  0  0  0  0
   28.2712  -21.4852   -5.7959 C   0  0  0  0  0  0  0  0  0  0  0  0
   27.8556  -20.2822   -6.3239 C   0  0  0  0  0  0  0  0  0  0  0  0
   28.3621  -21.0418   -9.7616 C   0  0  0  0  0  0  0  0  0  0  0  0
   28.7864  -22.1906  -10.0989 O   0  0  0  0  0  0  0  0  0  0  0  0
   29.3117  -20.0752   -9.4878 O   0  0  0  0  0  0  0  0  0  0  0  0
  2  1  1  0
  3  4  1  0
  3  2  1  0
  4  5  1  0
  5  7  1  0
  5  6  1  6
  7  8  2  0
 10  9  1  6
 11 10  1  0
 11  7  1  0
 12 10  1  0
 13 12  2  0
 14 12  1  0
 15 26  1  0
 15 14  1  0
 15 16  1  1
 17 16  1  0
 18 17  2  0
 19 20  1  0
 19 18  1  0
 20 25  2  0
 21 22  2  0
 21 20  1  0
 22 23  1  0
 23 24  2  0
 25 17  1  0
 25 24  1  0
 26 28  1  0
 27 26  2  0
M  END
$$$$
