MAW.pdb
     RDKit          3D

 28 29  0  0  1  0  0  0  0  0999 V2000
   30.5768  -17.2251  -15.6044 C   0  0  0  0  0  0  0  0  0  0  0  0
   29.2725  -17.5010  -16.8204 S   0  0  0  0  0  0  0  0  0  0  0  0
   27.7605  -16.7269  -16.3116 C   0  0  0  0  0  0  0  0  0  0  0  0
   27.1702  -17.1610  -15.0278 C   0  0  0  0  0  0  0  0  0  0  0  0
   27.2618  -18.5990  -14.6705 C   0  0  2  0  0  0  0  0  0  0  0  0
   26.7290  -19.4883  -15.6519 N   0  0  0  0  0  0  0  0  0  0  0  0
   26.4672  -18.7731  -13.4078 C   0  0  0  0  0  0  0  0  0  0  0  0
   26.5508  -17.9008  -12.4769 O   0  0  0  0  0  0  0  0  0  0  0  0
   23.4625  -20.6467  -12.3434 C   0  0  0  0  0  0  0  0  0  0  0  0
   24.7943  -20.0172  -12.0521 C   0  0  2  0  0  0  0  0  0  0  0  0
   25.6294  -19.8923  -13.2408 N   0  0  0  0  0  0  0  0  0  0  0  0
   25.5890  -20.8208  -11.0628 C   0  0  0  0  0  0  0  0  0  0  0  0
   26.3376  -21.7740  -11.4176 O   0  0  0  0  0  0  0  0  0  0  0  0
   25.5370  -20.5452   -9.6696 N   0  0  0  0  0  0  0  0  0  0  0  0
   26.2614  -21.3677   -8.7144 C   0  0  1  0  0  0  0  0  0  0  0  0
   27.6797  -20.9041   -8.5372 C   0  0  0  0  0  0  0  0  0  0  0  0
   27.7048  -19.8804   -7.4697 C   0  0  0  0  0  0  0  0  0  0  0  0
   27.0696  -18.6583   -7.4740 C   0  0  0  0  0  0  0  0  0  0  0  0
   27.3462  -18.0094   -6.3048 N   0  0  0  0  0  0  0  0  0  0  0  0
   28.1481  -18.7905   -5.5465 C   0  0  0  0  0  0  0  0  0  0  0  0
   28.7075  -18.6215   -4.3128 C   0  0  0  0  0  0  0  0  0  0  0  0
   29.5016  -19.6073   -3.7726 C   0  0  0  0  0  0  0  0  0  0  0  0
   29.7298  -20.7609   -4.4776 C   0  0  0  0  0  0  0  0  0  0  0  0
   29.1701  -20.9388   -5.7204 C   0  0  0  0  0  0  0  0  0  0  0  0
   28.3738  -19.9570   -6.2686 C   0  0  0  0  0  0  0  0  0  0  0  0
   25.5098  -21.4519   -7.4290 C   0  0  0  0  0  0  0  0  0  0  0  0
   25.8738  -22.2522   -6.5121 O   0  0  0  0  0  0  0  0  0  0  0  0
   24.3963  -20.6720   -7.1785 O   0  0  0  0  0  0  0  0  0  0  0  0
  2  1  1  0
  3  4  1  0
  3  2  1  0
  4  5  1  0
  5  7  1  0
  5  6  1  6
  7  8  2  0
 10  9  1  6
 11 10  1  0
 11  7  1  0
 12 10  1  0
 13 12  2  0
 14 12  1  0
 15 26  1  0
 15 14  1  0
 15 16  1  1
 17 16  1  0
 18 17  2  0
 19 20  1  0
 19 18  1  0
 20 25  2  0
 21 22  2  0
 21 20  1  0
 22 23  1  0
 23 24  2  0
 25 17  1  0
 25 24  1  0
 26 28  1  0
 27 26  2  0
M  END
$$$$
