MAW.pdb
     RDKit          3D

 28 29  0  0  1  0  0  0  0  0999 V2000
   30.1502  -26.2930  -17.0508 C   0  0  0  0  0  0  0  0  0  0  0  0
   29.8617  -25.1207  -18.3918 S   0  0  0  0  0  0  0  0  0  0  0  0
   30.8195  -23.6467  -18.1592 C   0  0  0  0  0  0  0  0  0  0  0  0
   30.3817  -22.7079  -17.1046 C   0  0  0  0  0  0  0  0  0  0  0  0
   28.9566  -22.2925  -17.0904 C   0  0  2  0  0  0  0  0  0  0  0  0
   28.5848  -21.4148  -18.1532 N   0  0  0  0  0  0  0  0  0  0  0  0
   28.7399  -21.5667  -15.7933 C   0  0  0  0  0  0  0  0  0  0  0  0
   29.1285  -22.0941  -14.6954 O   0  0  0  0  0  0  0  0  0  0  0  0
   27.4442  -18.1878  -14.7126 C   0  0  0  0  0  0  0  0  0  0  0  0
   27.8981  -19.6056  -14.5167 C   0  0  2  0  0  0  0  0  0  0  0  0
   28.1103  -20.3074  -15.7770 N   0  0  0  0  0  0  0  0  0  0  0  0
   26.8917  -20.4147  -13.7495 C   0  0  0  0  0  0  0  0  0  0  0  0
   25.9699  -21.0601  -14.3229 O   0  0  0  0  0  0  0  0  0  0  0  0
   26.9284  -20.4940  -12.3310 N   0  0  0  0  0  0  0  0  0  0  0  0
   26.0897  -21.4378  -11.6103 C   0  0  1  0  0  0  0  0  0  0  0  0
   26.7375  -21.9056  -10.3377 C   0  0  0  0  0  0  0  0  0  0  0  0
   26.5821  -20.8444   -9.3190 C   0  0  0  0  0  0  0  0  0  0  0  0
   25.5026  -20.0063   -9.1487 C   0  0  0  0  0  0  0  0  0  0  0  0
   25.7524  -19.1666   -8.1014 N   0  0  0  0  0  0  0  0  0  0  0  0
   26.9733  -19.4478   -7.5928 C   0  0  0  0  0  0  0  0  0  0  0  0
   27.6916  -18.9159   -6.5610 C   0  0  0  0  0  0  0  0  0  0  0  0
   28.9400  -19.4110   -6.2599 C   0  0  0  0  0  0  0  0  0  0  0  0
   29.4610  -20.4411   -7.0000 C   0  0  0  0  0  0  0  0  0  0  0  0
   28.7440  -20.9822   -8.0404 C   0  0  0  0  0  0  0  0  0  0  0  0
   27.4935  -20.4925   -8.3486 C   0  0  0  0  0  0  0  0  0  0  0  0
   24.7300  -20.8636  -11.3963 C   0  0  0  0  0  0  0  0  0  0  0  0
   24.5349  -19.6098  -11.4560 O   0  0  0  0  0  0  0  0  0  0  0  0
   23.6323  -21.6595  -11.1272 O   0  0  0  0  0  0  0  0  0  0  0  0
  2  1  1  0
  3  4  1  0
  3  2  1  0
  4  5  1  0
  5  7  1  0
  5  6  1  6
  7  8  2  0
 10  9  1  6
 11 10  1  0
 11  7  1  0
 12 10  1  0
 13 12  2  0
 14 12  1  0
 15 26  1  0
 15 14  1  0
 15 16  1  1
 17 16  1  0
 18 17  2  0
 19 20  1  0
 19 18  1  0
 20 25  2  0
 21 22  2  0
 21 20  1  0
 22 23  1  0
 23 24  2  0
 25 17  1  0
 25 24  1  0
 26 28  1  0
 27 26  2  0
M  END
$$$$
