MAW.pdb
     RDKit          3D

 28 29  0  0  1  0  0  0  0  0999 V2000
   21.5446  -26.0085  -14.2920 C   0  0  0  0  0  0  0  0  0  0  0  0
   23.2751  -26.4904  -14.1214 S   0  0  0  0  0  0  0  0  0  0  0  0
   24.2893  -25.6283  -15.2930 C   0  0  0  0  0  0  0  0  0  0  0  0
   24.3477  -24.1548  -15.1907 C   0  0  0  0  0  0  0  0  0  0  0  0
   23.2464  -23.3703  -15.8034 C   0  0  2  0  0  0  0  0  0  0  0  0
   23.2726  -23.3269  -17.2301 N   0  0  0  0  0  0  0  0  0  0  0  0
   23.3936  -21.9647  -15.2946 C   0  0  0  0  0  0  0  0  0  0  0  0
   23.8888  -21.0616  -16.0519 O   0  0  0  0  0  0  0  0  0  0  0  0
   22.0951  -19.9661  -12.4094 C   0  0  0  0  0  0  0  0  0  0  0  0
   23.0638  -20.2542  -13.5200 C   0  0  2  0  0  0  0  0  0  0  0  0
   22.9900  -21.6334  -13.9871 N   0  0  0  0  0  0  0  0  0  0  0  0
   24.4866  -20.0304  -13.0939 C   0  0  0  0  0  0  0  0  0  0  0  0
   24.9045  -18.9013  -12.7124 O   0  0  0  0  0  0  0  0  0  0  0  0
   25.4383  -21.0858  -13.0992 N   0  0  0  0  0  0  0  0  0  0  0  0
   26.8100  -20.8615  -12.6731 C   0  0  1  0  0  0  0  0  0  0  0  0
   27.1929  -21.7507  -11.5238 C   0  0  0  0  0  0  0  0  0  0  0  0
   26.7244  -21.1194  -10.2709 C   0  0  0  0  0  0  0  0  0  0  0  0
   25.4239  -20.8325   -9.9195 C   0  0  0  0  0  0  0  0  0  0  0  0
   25.4153  -20.2490   -8.6851 N   0  0  0  0  0  0  0  0  0  0  0  0
   26.6863  -20.1544   -8.2335 C   0  0  0  0  0  0  0  0  0  0  0  0
   27.2252  -19.6601   -7.0808 C   0  0  0  0  0  0  0  0  0  0  0  0
   28.5869  -19.6937   -6.8840 C   0  0  0  0  0  0  0  0  0  0  0  0
   29.4019  -20.2255   -7.8501 C   0  0  0  0  0  0  0  0  0  0  0  0
   28.8671  -20.7252   -9.0135 C   0  0  0  0  0  0  0  0  0  0  0  0
   27.5049  -20.6956   -9.2186 C   0  0  0  0  0  0  0  0  0  0  0  0
   27.7384  -20.9766  -13.8347 C   0  0  0  0  0  0  0  0  0  0  0  0
   28.9929  -20.8490  -13.6818 O   0  0  0  0  0  0  0  0  0  0  0  0
   27.2822  -21.2250  -15.1157 O   0  0  0  0  0  0  0  0  0  0  0  0
  2  1  1  0
  3  4  1  0
  3  2  1  0
  4  5  1  0
  5  7  1  0
  5  6  1  6
  7  8  2  0
 10  9  1  1
 11 10  1  0
 11  7  1  0
 12 10  1  0
 13 12  2  0
 14 12  1  0
 15 26  1  0
 15 14  1  0
 15 16  1  1
 17 16  1  0
 18 17  2  0
 19 20  1  0
 19 18  1  0
 20 25  2  0
 21 22  2  0
 21 20  1  0
 22 23  1  0
 23 24  2  0
 25 17  1  0
 25 24  1  0
 26 28  1  0
 27 26  2  0
M  END
$$$$
