MAW.pdb
     RDKit          3D

 28 29  0  0  1  0  0  0  0  0999 V2000
   32.8571  -24.2329  -15.3775 C   0  0  0  0  0  0  0  0  0  0  0  0
   31.5650  -25.2204  -16.1593 S   0  0  0  0  0  0  0  0  0  0  0  0
   30.2903  -24.1815  -16.8228 C   0  0  0  0  0  0  0  0  0  0  0  0
   29.9146  -22.9817  -16.0455 C   0  0  0  0  0  0  0  0  0  0  0  0
   28.8357  -22.1144  -16.5818 C   0  0  2  0  0  0  0  0  0  0  0  0
   29.1687  -21.4349  -17.7924 N   0  0  0  0  0  0  0  0  0  0  0  0
   28.5625  -21.0783  -15.5293 C   0  0  0  0  0  0  0  0  0  0  0  0
   28.9908  -19.8838  -15.6848 O   0  0  0  0  0  0  0  0  0  0  0  0
   26.2981  -19.4931  -14.2483 C   0  0  0  0  0  0  0  0  0  0  0  0
   27.2796  -20.3666  -13.5214 C   0  0  2  0  0  0  0  0  0  0  0  0
   27.8371  -21.4131  -14.3700 N   0  0  0  0  0  0  0  0  0  0  0  0
   26.6476  -21.0660  -12.3520 C   0  0  0  0  0  0  0  0  0  0  0  0
   26.0756  -22.1861  -12.4675 O   0  0  0  0  0  0  0  0  0  0  0  0
   26.6630  -20.4975  -11.0496 N   0  0  0  0  0  0  0  0  0  0  0  0
   26.1810  -21.2441   -9.8991 C   0  0  1  0  0  0  0  0  0  0  0  0
   27.2718  -21.4960   -8.8968 C   0  0  0  0  0  0  0  0  0  0  0  0
   27.3916  -20.3034   -8.0299 C   0  0  0  0  0  0  0  0  0  0  0  0
   26.8040  -19.0727   -8.2222 C   0  0  0  0  0  0  0  0  0  0  0  0
   27.1658  -18.2427   -7.2002 N   0  0  0  0  0  0  0  0  0  0  0  0
   27.9760  -18.9154   -6.3521 C   0  0  0  0  0  0  0  0  0  0  0  0
   28.6052  -18.5592   -5.1942 C   0  0  0  0  0  0  0  0  0  0  0  0
   29.3885  -19.4711   -4.5239 C   0  0  0  0  0  0  0  0  0  0  0  0
   29.5354  -20.7398   -5.0229 C   0  0  0  0  0  0  0  0  0  0  0  0
   28.9051  -21.1063   -6.1881 C   0  0  0  0  0  0  0  0  0  0  0  0
   28.1191  -20.1997   -6.8654 C   0  0  0  0  0  0  0  0  0  0  0  0
   24.9887  -20.5711   -9.3077 C   0  0  0  0  0  0  0  0  0  0  0  0
   24.6725  -19.3885   -9.6468 O   0  0  0  0  0  0  0  0  0  0  0  0
   24.1819  -21.1957   -8.3750 O   0  0  0  0  0  0  0  0  0  0  0  0
  2  1  1  0
  3  4  1  0
  3  2  1  0
  4  5  1  0
  5  7  1  0
  5  6  1  6
  7  8  2  0
 10  9  1  6
 11 10  1  0
 11  7  1  0
 12 10  1  0
 13 12  2  0
 14 12  1  0
 15 26  1  0
 15 14  1  0
 15 16  1  1
 17 16  1  0
 18 17  2  0
 19 20  1  0
 19 18  1  0
 20 25  2  0
 21 22  2  0
 21 20  1  0
 22 23  1  0
 23 24  2  0
 25 17  1  0
 25 24  1  0
 26 28  1  0
 27 26  2  0
M  END
$$$$
