MAW.pdb
     RDKit          3D

 28 29  0  0  1  0  0  0  0  0999 V2000
   30.9658  -19.2543  -14.4939 C   0  0  0  0  0  0  0  0  0  0  0  0
   30.5562  -17.8590  -15.5621 S   0  0  0  0  0  0  0  0  0  0  0  0
   28.8082  -17.7740  -15.8478 C   0  0  0  0  0  0  0  0  0  0  0  0
   28.0013  -18.9623  -15.4984 C   0  0  0  0  0  0  0  0  0  0  0  0
   26.5623  -18.9583  -15.8631 C   0  0  2  0  0  0  0  0  0  0  0  0
   26.1611  -17.8581  -16.6796 N   0  0  0  0  0  0  0  0  0  0  0  0
   25.7984  -18.8795  -14.5722 C   0  0  0  0  0  0  0  0  0  0  0  0
   25.6372  -17.7501  -13.9951 O   0  0  0  0  0  0  0  0  0  0  0  0
   23.1077  -20.6752  -12.9679 C   0  0  0  0  0  0  0  0  0  0  0  0
   24.4126  -19.9499  -12.8065 C   0  0  2  0  0  0  0  0  0  0  0  0
   25.2576  -20.0423  -13.9911 N   0  0  0  0  0  0  0  0  0  0  0  0
   25.2226  -20.5017  -11.6683 C   0  0  0  0  0  0  0  0  0  0  0  0
   26.4797  -20.6085  -11.7275 O   0  0  0  0  0  0  0  0  0  0  0  0
   24.6096  -20.9331  -10.4610 N   0  0  0  0  0  0  0  0  0  0  0  0
   25.3812  -21.0770   -9.2373 C   0  0  1  0  0  0  0  0  0  0  0  0
   26.1464  -19.8268   -8.9064 C   0  0  0  0  0  0  0  0  0  0  0  0
   26.6420  -19.9384   -7.5172 C   0  0  0  0  0  0  0  0  0  0  0  0
   25.8882  -20.0938   -6.3750 C   0  0  0  0  0  0  0  0  0  0  0  0
   26.7228  -20.1522   -5.2959 N   0  0  0  0  0  0  0  0  0  0  0  0
   28.0012  -20.0374   -5.7211 C   0  0  0  0  0  0  0  0  0  0  0  0
   29.1984  -20.0331   -5.0653 C   0  0  0  0  0  0  0  0  0  0  0  0
   30.3727  -19.8963   -5.7701 C   0  0  0  0  0  0  0  0  0  0  0  0
   30.3368  -19.7641   -7.1344 C   0  0  0  0  0  0  0  0  0  0  0  0
   29.1354  -19.7676   -7.8022 C   0  0  0  0  0  0  0  0  0  0  0  0
   27.9551  -19.9041   -7.1043 C   0  0  0  0  0  0  0  0  0  0  0  0
   24.5032  -21.5362   -8.1226 C   0  0  0  0  0  0  0  0  0  0  0  0
   23.3591  -21.0163   -7.9372 O   0  0  0  0  0  0  0  0  0  0  0  0
   24.8887  -22.5371   -7.2506 O   0  0  0  0  0  0  0  0  0  0  0  0
  2  1  1  0
  3  4  1  0
  3  2  1  0
  4  5  1  0
  5  7  1  0
  5  6  1  6
  7  8  2  0
 10  9  1  6
 11 10  1  0
 11  7  1  0
 12 10  1  0
 13 12  2  0
 14 12  1  0
 15 26  1  0
 15 14  1  0
 15 16  1  1
 17 16  1  0
 18 17  2  0
 19 20  1  0
 19 18  1  0
 20 25  2  0
 21 22  2  0
 21 20  1  0
 22 23  1  0
 23 24  2  0
 25 17  1  0
 25 24  1  0
 26 28  1  0
 27 26  2  0
M  END
$$$$
