MAW.pdb
     RDKit          3D

 28 29  0  0  1  0  0  0  0  0999 V2000
   23.0677  -14.0035  -15.5696 C   0  0  0  0  0  0  0  0  0  0  0  0
   24.8159  -14.4209  -15.4100 S   0  0  0  0  0  0  0  0  0  0  0  0
   25.2863  -15.6402  -16.6085 C   0  0  0  0  0  0  0  0  0  0  0  0
   25.2698  -17.0560  -16.1838 C   0  0  0  0  0  0  0  0  0  0  0  0
   25.8678  -17.3950  -14.8681 C   0  0  2  0  0  0  0  0  0  0  0  0
   27.2138  -16.9513  -14.6970 N   0  0  0  0  0  0  0  0  0  0  0  0
   25.8587  -18.8940  -14.7723 C   0  0  0  0  0  0  0  0  0  0  0  0
   24.7897  -19.5430  -15.0379 O   0  0  0  0  0  0  0  0  0  0  0  0
   28.3018  -21.6886  -14.5663 C   0  0  0  0  0  0  0  0  0  0  0  0
   26.9908  -21.0400  -14.2271 C   0  0  2  0  0  0  0  0  0  0  0  0
   27.0208  -19.5915  -14.3911 N   0  0  0  0  0  0  0  0  0  0  0  0
   26.5933  -21.2933  -12.8010 C   0  0  0  0  0  0  0  0  0  0  0  0
   26.0241  -22.3618  -12.4413 O   0  0  0  0  0  0  0  0  0  0  0  0
   26.8404  -20.3363  -11.7798 N   0  0  0  0  0  0  0  0  0  0  0  0
   26.4865  -20.6070  -10.3960 C   0  0  1  0  0  0  0  0  0  0  0  0
   27.3164  -19.8013   -9.4368 C   0  0  0  0  0  0  0  0  0  0  0  0
   26.9197  -20.1650   -8.0590 C   0  0  0  0  0  0  0  0  0  0  0  0
   25.8199  -20.9006   -7.6767 C   0  0  0  0  0  0  0  0  0  0  0  0
   25.8098  -21.0107   -6.3158 N   0  0  0  0  0  0  0  0  0  0  0  0
   26.8830  -20.3596   -5.8131 C   0  0  0  0  0  0  0  0  0  0  0  0
   27.3356  -20.1654   -4.5400 C   0  0  0  0  0  0  0  0  0  0  0  0
   28.4858  -19.4430   -4.3176 C   0  0  0  0  0  0  0  0  0  0  0  0
   29.1767  -18.9183   -5.3794 C   0  0  0  0  0  0  0  0  0  0  0  0
   28.7276  -19.1095   -6.6644 C   0  0  0  0  0  0  0  0  0  0  0  0
   27.5770  -19.8314   -6.8960 C   0  0  0  0  0  0  0  0  0  0  0  0
   25.0200  -20.4279  -10.1921 C   0  0  0  0  0  0  0  0  0  0  0  0
   24.3706  -19.5610  -10.8556 O   0  0  0  0  0  0  0  0  0  0  0  0
   24.3081  -21.1883   -9.2833 O   0  0  0  0  0  0  0  0  0  0  0  0
  2  1  1  0
  3  4  1  0
  3  2  1  0
  4  5  1  0
  5  7  1  0
  5  6  1  6
  7  8  2  0
 10  9  1  1
 11 10  1  0
 11  7  1  0
 12 10  1  0
 13 12  2  0
 14 12  1  0
 15 26  1  0
 15 14  1  0
 15 16  1  1
 17 16  1  0
 18 17  2  0
 19 20  1  0
 19 18  1  0
 20 25  2  0
 21 22  2  0
 21 20  1  0
 22 23  1  0
 23 24  2  0
 25 17  1  0
 25 24  1  0
 26 28  1  0
 27 26  2  0
M  END
$$$$
