PVW.pdb
     RDKit          3D

 29 31  0  0  1  0  0  0  0  0999 V2000
    9.1815  -14.0901   19.2715 N   0  0  0  0  0  0  0  0  0  0  0  0
    8.8344  -13.0956   18.2517 C   0  0  0  0  0  0  0  0  0  0  0  0
    7.4584  -12.5835   18.6086 C   0  0  0  0  0  0  0  0  0  0  0  0
    7.0909  -13.3629   19.8787 C   0  0  0  0  0  0  0  0  0  0  0  0
    8.4367  -13.6997   20.4328 C   0  0  1  0  0  0  0  0  0  0  0  0
    8.3967  -14.8119   21.4412 C   0  0  0  0  0  0  0  0  0  0  0  0
    7.6362  -14.7582   22.4366 O   0  0  0  0  0  0  0  0  0  0  0  0
    9.5776  -19.3850   22.8163 C   0  0  0  0  0  0  0  0  0  0  0  0
    9.7038  -18.3589   21.6780 C   0  0  1  0  0  0  0  0  0  0  0  0
    8.9635  -18.8997   20.5191 C   0  0  0  0  0  0  0  0  0  0  0  0
    9.2789  -17.0525   22.2407 C   0  0  2  0  0  0  0  0  0  0  0  0
    9.2206  -15.9618   21.3003 N   0  0  0  0  0  0  0  0  0  0  0  0
    9.8918  -16.7047   23.5457 C   0  0  0  0  0  0  0  0  0  0  0  0
   11.0304  -16.1750   23.5173 O   0  0  0  0  0  0  0  0  0  0  0  0
    9.3132  -16.9199   24.8173 N   0  0  0  0  0  0  0  0  0  0  0  0
   10.0648  -16.6347   26.0541 C   0  0  1  0  0  0  0  0  0  0  0  0
    9.2898  -15.8583   27.0462 C   0  0  0  0  0  0  0  0  0  0  0  0
    8.0811  -15.1771   26.5813 C   0  0  0  0  0  0  0  0  0  0  0  0
    6.9632  -15.8915   26.1176 C   0  0  0  0  0  0  0  0  0  0  0  0
    5.9857  -15.0317   25.7735 N   0  0  0  0  0  0  0  0  0  0  0  0
    6.4056  -13.7746   25.9874 C   0  0  0  0  0  0  0  0  0  0  0  0
    5.7947  -12.5576   25.7912 C   0  0  0  0  0  0  0  0  0  0  0  0
    6.4589  -11.3946   26.0857 C   0  0  0  0  0  0  0  0  0  0  0  0
    7.7359  -11.4955   26.5749 C   0  0  0  0  0  0  0  0  0  0  0  0
    8.3668  -12.7045   26.7791 C   0  0  0  0  0  0  0  0  0  0  0  0
    7.6961  -13.8658   26.4837 C   0  0  0  0  0  0  0  0  0  0  0  0
   10.6495  -17.9039   26.5133 C   0  0  0  0  0  0  0  0  0  0  0  0
   11.7065  -17.9131   27.4228 O   0  0  0  0  0  0  0  0  0  0  0  0
   10.2615  -19.0447   26.1392 O   0  0  0  0  0  0  0  0  0  0  0  0
  2  1  1  0
  3  2  1  0
  4  3  1  0
  4  5  1  0
  5  6  1  1
  5  1  1  0
  6  7  2  0
  9  8  1  1
 10  9  1  0
 11  9  1  0
 11 12  1  6
 12  6  1  0
 13 11  1  0
 14 13  2  0
 15 13  1  0
 16 15  1  0
 16 17  1  1
 18 17  1  0
 19 18  2  0
 20 19  1  0
 21 20  1  0
 21 26  2  0
 22 21  1  0
 23 22  2  0
 23 24  1  0
 24 25  2  0
 25 26  1  0
 26 18  1  0
 27 16  1  0
 27 28  1  0
 29 27  2  0
M  END
$$$$
