PVW.pdb
     RDKit          3D

 29 31  0  0  1  0  0  0  0  0999 V2000
    7.5423  -19.1722   20.2481 N   0  0  0  0  0  0  0  0  0  0  0  0
    6.6500  -20.1701   19.6500 C   0  0  0  0  0  0  0  0  0  0  0  0
    6.0647  -19.5297   18.4130 C   0  0  0  0  0  0  0  0  0  0  0  0
    6.6967  -18.1313   18.3854 C   0  0  0  0  0  0  0  0  0  0  0  0
    7.9609  -18.3503   19.1505 C   0  0  1  0  0  0  0  0  0  0  0  0
    8.5791  -17.0736   19.6440 C   0  0  0  0  0  0  0  0  0  0  0  0
    9.7545  -16.7615   19.3389 O   0  0  0  0  0  0  0  0  0  0  0  0
    8.1996  -12.5276   21.3063 C   0  0  0  0  0  0  0  0  0  0  0  0
    7.4107  -13.7769   20.8804 C   0  0  1  0  0  0  0  0  0  0  0  0
    6.7877  -13.4754   19.5747 C   0  0  0  0  0  0  0  0  0  0  0  0
    8.3545  -14.9195   20.9658 C   0  0  2  0  0  0  0  0  0  0  0  0
    7.8516  -16.1774   20.4738 N   0  0  0  0  0  0  0  0  0  0  0  0
    9.1055  -15.0161   22.2410 C   0  0  0  0  0  0  0  0  0  0  0  0
    9.9552  -14.1200   22.4711 O   0  0  0  0  0  0  0  0  0  0  0  0
    8.9553  -16.0269   23.2177 N   0  0  0  0  0  0  0  0  0  0  0  0
    9.7655  -16.0214   24.4503 C   0  0  1  0  0  0  0  0  0  0  0  0
    8.9581  -16.1403   25.6839 C   0  0  0  0  0  0  0  0  0  0  0  0
    7.8237  -15.2300   25.8434 C   0  0  0  0  0  0  0  0  0  0  0  0
    6.5028  -15.6483   25.6080 C   0  0  0  0  0  0  0  0  0  0  0  0
    5.6547  -14.6301   25.8468 N   0  0  0  0  0  0  0  0  0  0  0  0
    6.3549  -13.5507   26.2304 C   0  0  0  0  0  0  0  0  0  0  0  0
    5.9627  -12.2779   26.5750 C   0  0  0  0  0  0  0  0  0  0  0  0
    6.8969  -11.3371   26.9257 C   0  0  0  0  0  0  0  0  0  0  0  0
    8.2154  -11.7134   26.9176 C   0  0  0  0  0  0  0  0  0  0  0  0
    8.6303  -12.9832   26.5757 C   0  0  0  0  0  0  0  0  0  0  0  0
    7.6901  -13.9214   26.2268 C   0  0  0  0  0  0  0  0  0  0  0  0
   10.8474  -17.0010   24.2671 C   0  0  0  0  0  0  0  0  0  0  0  0
   11.8617  -17.1272   25.2156 O   0  0  0  0  0  0  0  0  0  0  0  0
   10.9464  -17.7778   23.2778 O   0  0  0  0  0  0  0  0  0  0  0  0
  2  1  1  0
  3  2  1  0
  4  3  1  0
  4  5  1  0
  5  6  1  1
  5  1  1  0
  6  7  2  0
  9  8  1  6
 10  9  1  0
 11  9  1  0
 11 12  1  1
 12  6  1  0
 13 11  1  0
 14 13  2  0
 15 13  1  0
 16 15  1  0
 16 17  1  1
 18 17  1  0
 19 18  2  0
 20 19  1  0
 21 20  1  0
 21 26  2  0
 22 21  1  0
 23 22  2  0
 23 24  1  0
 24 25  2  0
 25 26  1  0
 26 18  1  0
 27 16  1  0
 27 28  1  0
 29 27  2  0
M  END
$$$$
