PVW.pdb
     RDKit          3D

 29 31  0  0  1  0  0  0  0  0999 V2000
    7.2214  -19.2649   19.1981 N   0  0  0  0  0  0  0  0  0  0  0  0
    6.4030  -20.4723   19.3474 C   0  0  0  0  0  0  0  0  0  0  0  0
    5.8680  -20.4507   20.7602 C   0  0  0  0  0  0  0  0  0  0  0  0
    6.4484  -19.1612   21.3567 C   0  0  0  0  0  0  0  0  0  0  0  0
    6.6703  -18.3303   20.1353 C   0  0  1  0  0  0  0  0  0  0  0  0
    7.6139  -17.1848   20.3657 C   0  0  0  0  0  0  0  0  0  0  0  0
    8.8554  -17.3410   20.2868 O   0  0  0  0  0  0  0  0  0  0  0  0
    8.6085  -12.4449   20.9678 C   0  0  0  0  0  0  0  0  0  0  0  0
    7.4778  -13.4364   20.6469 C   0  0  1  0  0  0  0  0  0  0  0  0
    7.1176  -13.2427   19.2269 C   0  0  0  0  0  0  0  0  0  0  0  0
    7.9564  -14.7739   21.0782 C   0  0  2  0  0  0  0  0  0  0  0  0
    7.1299  -15.8859   20.6815 N   0  0  0  0  0  0  0  0  0  0  0  0
    8.4456  -14.8417   22.4766 C   0  0  0  0  0  0  0  0  0  0  0  0
    7.7339  -14.2961   23.3563 O   0  0  0  0  0  0  0  0  0  0  0  0
    9.6414  -15.4599   22.9080 N   0  0  0  0  0  0  0  0  0  0  0  0
   10.0697  -15.3892   24.3177 C   0  0  1  0  0  0  0  0  0  0  0  0
    9.1142  -16.0205   25.2538 C   0  0  0  0  0  0  0  0  0  0  0  0
    7.9211  -15.2583   25.6231 C   0  0  0  0  0  0  0  0  0  0  0  0
    6.6285  -15.7853   25.4597 C   0  0  0  0  0  0  0  0  0  0  0  0
    5.7168  -14.8948   25.8944 N   0  0  0  0  0  0  0  0  0  0  0  0
    6.3474  -13.7963   26.3395 C   0  0  0  0  0  0  0  0  0  0  0  0
    5.8739  -12.6177   26.8681 C   0  0  0  0  0  0  0  0  0  0  0  0
    6.7459  -11.6279   27.2430 C   0  0  0  0  0  0  0  0  0  0  0  0
    8.0863  -11.8596   27.0707 C   0  0  0  0  0  0  0  0  0  0  0  0
    8.5822  -13.0332   26.5432 C   0  0  0  0  0  0  0  0  0  0  0  0
    7.7043  -14.0213   26.1709 C   0  0  0  0  0  0  0  0  0  0  0  0
   11.4634  -15.8559   24.3756 C   0  0  0  0  0  0  0  0  0  0  0  0
   12.2176  -15.7037   25.5385 O   0  0  0  0  0  0  0  0  0  0  0  0
   12.0704  -16.4101   23.4183 O   0  0  0  0  0  0  0  0  0  0  0  0
  2  1  1  0
  3  2  1  0
  4  3  1  0
  4  5  1  0
  5  6  1  1
  5  1  1  0
  6  7  2  0
  9  8  1  6
 10  9  1  0
 11  9  1  0
 11 12  1  1
 12  6  1  0
 13 11  1  0
 14 13  2  0
 15 13  1  0
 16 15  1  0
 16 17  1  1
 18 17  1  0
 19 18  2  0
 20 19  1  0
 21 20  1  0
 21 26  2  0
 22 21  1  0
 23 22  2  0
 23 24  1  0
 24 25  2  0
 25 26  1  0
 26 18  1  0
 27 16  1  0
 27 28  1  0
 29 27  2  0
M  END
$$$$
