PVW.pdb
     RDKit          3D

 29 31  0  0  1  0  0  0  0  0999 V2000
    9.1163  -14.4461   18.5488 N   0  0  0  0  0  0  0  0  0  0  0  0
    8.7819  -13.4572   17.5193 C   0  0  0  0  0  0  0  0  0  0  0  0
    7.6378  -12.6394   18.0715 C   0  0  0  0  0  0  0  0  0  0  0  0
    7.3807  -13.2495   19.4562 C   0  0  0  0  0  0  0  0  0  0  0  0
    8.7131  -13.8401   19.7840 C   0  0  1  0  0  0  0  0  0  0  0  0
    8.6503  -14.8601   20.8845 C   0  0  0  0  0  0  0  0  0  0  0  0
    8.1602  -14.5779   22.0035 O   0  0  0  0  0  0  0  0  0  0  0  0
    9.2500  -19.5239   22.4108 C   0  0  0  0  0  0  0  0  0  0  0  0
    9.3953  -18.5881   21.1994 C   0  0  1  0  0  0  0  0  0  0  0  0
    8.5258  -19.1207   20.1298 C   0  0  0  0  0  0  0  0  0  0  0  0
    9.1410  -17.2130   21.6975 C   0  0  2  0  0  0  0  0  0  0  0  0
    9.1452  -16.1791   20.6934 N   0  0  0  0  0  0  0  0  0  0  0  0
    9.8579  -16.8578   22.9463 C   0  0  0  0  0  0  0  0  0  0  0  0
   11.0648  -16.5272   22.8360 O   0  0  0  0  0  0  0  0  0  0  0  0
    9.3080  -16.8625   24.2485 N   0  0  0  0  0  0  0  0  0  0  0  0
   10.1049  -16.4339   25.4133 C   0  0  1  0  0  0  0  0  0  0  0  0
    9.8009  -15.0563   25.8577 C   0  0  0  0  0  0  0  0  0  0  0  0
    8.3940  -14.6611   25.9302 C   0  0  0  0  0  0  0  0  0  0  0  0
    7.3564  -15.6035   25.8292 C   0  0  0  0  0  0  0  0  0  0  0  0
    6.1669  -14.9838   25.9488 N   0  0  0  0  0  0  0  0  0  0  0  0
    6.3683  -13.6682   26.1243 C   0  0  0  0  0  0  0  0  0  0  0  0
    5.4923  -12.6197   26.2859 C   0  0  0  0  0  0  0  0  0  0  0  0
    5.9641  -11.3412   26.4388 C   0  0  0  0  0  0  0  0  0  0  0  0
    7.3227  -11.1564   26.4234 C   0  0  0  0  0  0  0  0  0  0  0  0
    8.2182  -12.1927   26.2629 C   0  0  0  0  0  0  0  0  0  0  0  0
    7.7398  -13.4709   26.1117 C   0  0  0  0  0  0  0  0  0  0  0  0
   10.0057  -17.4961   26.4261 C   0  0  0  0  0  0  0  0  0  0  0  0
   10.8721  -17.5215   27.5184 O   0  0  0  0  0  0  0  0  0  0  0  0
    9.1641  -18.4355   26.3944 O   0  0  0  0  0  0  0  0  0  0  0  0
  2  1  1  0
  3  2  1  0
  4  3  1  0
  4  5  1  0
  5  6  1  1
  5  1  1  0
  6  7  2  0
  9  8  1  1
 10  9  1  0
 11  9  1  0
 11 12  1  6
 12  6  1  0
 13 11  1  0
 14 13  2  0
 15 13  1  0
 16 15  1  0
 16 17  1  1
 18 17  1  0
 19 18  2  0
 20 19  1  0
 21 20  1  0
 21 26  2  0
 22 21  1  0
 23 22  2  0
 23 24  1  0
 24 25  2  0
 25 26  1  0
 26 18  1  0
 27 16  1  0
 27 28  1  0
 29 27  2  0
M  END
$$$$
