PVW.pdb
     RDKit          3D

 29 31  0  0  1  0  0  0  0  0999 V2000
    9.4603  -17.9688   17.8244 N   0  0  0  0  0  0  0  0  0  0  0  0
    9.6635  -17.8167   16.3804 C   0  0  0  0  0  0  0  0  0  0  0  0
    9.5487  -16.3388   16.0884 C   0  0  0  0  0  0  0  0  0  0  0  0
    9.2722  -15.7103   17.4611 C   0  0  0  0  0  0  0  0  0  0  0  0
    9.8743  -16.7165   18.3867 C   0  0  1  0  0  0  0  0  0  0  0  0
    9.3895  -16.5793   19.8015 C   0  0  0  0  0  0  0  0  0  0  0  0
    9.7094  -15.5914   20.5041 O   0  0  0  0  0  0  0  0  0  0  0  0
    6.0928  -17.8795   23.2203 C   0  0  0  0  0  0  0  0  0  0  0  0
    6.6372  -18.2070   21.8201 C   0  0  1  0  0  0  0  0  0  0  0  0
    5.5404  -17.9688   20.8588 C   0  0  0  0  0  0  0  0  0  0  0  0
    7.8933  -17.4312   21.6653 C   0  0  2  0  0  0  0  0  0  0  0  0
    8.5522  -17.5658   20.3905 N   0  0  0  0  0  0  0  0  0  0  0  0
    8.8047  -17.4772   22.8344 C   0  0  0  0  0  0  0  0  0  0  0  0
    9.5536  -18.4807   22.9338 O   0  0  0  0  0  0  0  0  0  0  0  0
    8.9031  -16.4973   23.8484 N   0  0  0  0  0  0  0  0  0  0  0  0
    9.9409  -16.5839   24.8930 C   0  0  1  0  0  0  0  0  0  0  0  0
   10.3580  -15.2650   25.4169 C   0  0  0  0  0  0  0  0  0  0  0  0
    9.3597  -14.4737   26.1367 C   0  0  0  0  0  0  0  0  0  0  0  0
    9.1906  -14.5871   27.5273 C   0  0  0  0  0  0  0  0  0  0  0  0
    8.2290  -13.7389   27.9384 N   0  0  0  0  0  0  0  0  0  0  0  0
    7.7495  -13.0660   26.8802 C   0  0  0  0  0  0  0  0  0  0  0  0
    6.7687  -12.1074   26.7705 C   0  0  0  0  0  0  0  0  0  0  0  0
    6.4552  -11.5754   25.5460 C   0  0  0  0  0  0  0  0  0  0  0  0
    7.1490  -12.0326   24.4552 C   0  0  0  0  0  0  0  0  0  0  0  0
    8.1354  -12.9922   24.5427 C   0  0  0  0  0  0  0  0  0  0  0  0
    8.4459  -13.5202   25.7717 C   0  0  0  0  0  0  0  0  0  0  0  0
    9.4880  -17.5775   25.8785 C   0  0  0  0  0  0  0  0  0  0  0  0
   10.4081  -18.2801   26.6557 O   0  0  0  0  0  0  0  0  0  0  0  0
    8.2793  -17.8671   26.0956 O   0  0  0  0  0  0  0  0  0  0  0  0
  2  1  1  0
  3  2  1  0
  4  3  1  0
  4  5  1  0
  5  6  1  1
  5  1  1  0
  6  7  2  0
  9  8  1  1
 10  9  1  0
 11  9  1  0
 11 12  1  6
 12  6  1  0
 13 11  1  0
 14 13  2  0
 15 13  1  0
 16 15  1  0
 16 17  1  1
 18 17  1  0
 19 18  2  0
 20 19  1  0
 21 20  1  0
 21 26  2  0
 22 21  1  0
 23 22  2  0
 23 24  1  0
 24 25  2  0
 25 26  1  0
 26 18  1  0
 27 16  1  0
 27 28  1  0
 29 27  2  0
M  END
$$$$
