PVW.pdb
     RDKit          3D

 29 31  0  0  1  0  0  0  0  0999 V2000
    7.2846  -18.9216   19.7630 N   0  0  0  0  0  0  0  0  0  0  0  0
    6.6319  -19.8745   18.8599 C   0  0  0  0  0  0  0  0  0  0  0  0
    7.1956  -19.6096   17.4833 C   0  0  0  0  0  0  0  0  0  0  0  0
    8.1876  -18.4595   17.7041 C   0  0  0  0  0  0  0  0  0  0  0  0
    8.5455  -18.6344   19.1438 C   0  0  1  0  0  0  0  0  0  0  0  0
    9.1713  -17.4101   19.7480 C   0  0  0  0  0  0  0  0  0  0  0  0
   10.4166  -17.2694   19.7857 O   0  0  0  0  0  0  0  0  0  0  0  0
    6.7256  -14.2655   21.4993 C   0  0  0  0  0  0  0  0  0  0  0  0
    7.9775  -13.9556   20.6620 C   0  0  1  0  0  0  0  0  0  0  0  0
    8.4688  -12.6281   21.0865 C   0  0  0  0  0  0  0  0  0  0  0  0
    8.8816  -15.1238   20.8093 C   0  0  2  0  0  0  0  0  0  0  0  0
    8.3718  -16.3709   20.2974 N   0  0  0  0  0  0  0  0  0  0  0  0
    9.5550  -15.2311   22.1263 C   0  0  0  0  0  0  0  0  0  0  0  0
   10.2947  -14.2749   22.4676 O   0  0  0  0  0  0  0  0  0  0  0  0
    9.4437  -16.3130   23.0291 N   0  0  0  0  0  0  0  0  0  0  0  0
   10.0103  -16.2320   24.3886 C   0  0  1  0  0  0  0  0  0  0  0  0
    9.7658  -14.9317   25.0498 C   0  0  0  0  0  0  0  0  0  0  0  0
    8.4042  -14.6454   25.5024 C   0  0  0  0  0  0  0  0  0  0  0  0
    7.3930  -15.6206   25.4637 C   0  0  0  0  0  0  0  0  0  0  0  0
    6.2486  -15.1079   25.9542 N   0  0  0  0  0  0  0  0  0  0  0  0
    6.4544  -13.8318   26.3170 C   0  0  0  0  0  0  0  0  0  0  0  0
    5.6147  -12.8847   26.8563 C   0  0  0  0  0  0  0  0  0  0  0  0
    6.0794  -11.6241   27.1310 C   0  0  0  0  0  0  0  0  0  0  0  0
    7.3937  -11.3531   26.8492 C   0  0  0  0  0  0  0  0  0  0  0  0
    8.2523  -12.2871   26.3089 C   0  0  0  0  0  0  0  0  0  0  0  0
    7.7816  -13.5483   26.0374 C   0  0  0  0  0  0  0  0  0  0  0  0
    9.5812  -17.4375   25.1140 C   0  0  0  0  0  0  0  0  0  0  0  0
   10.1055  -17.7364   26.3711 O   0  0  0  0  0  0  0  0  0  0  0  0
    8.7381  -18.2694   24.6793 O   0  0  0  0  0  0  0  0  0  0  0  0
  2  1  1  0
  3  2  1  0
  4  3  1  0
  4  5  1  0
  5  6  1  1
  5  1  1  0
  6  7  2  0
  9  8  1  1
 10  9  1  0
 11  9  1  0
 11 12  1  1
 12  6  1  0
 13 11  1  0
 14 13  2  0
 15 13  1  0
 16 15  1  0
 16 17  1  1
 18 17  1  0
 19 18  2  0
 20 19  1  0
 21 20  1  0
 21 26  2  0
 22 21  1  0
 23 22  2  0
 23 24  1  0
 24 25  2  0
 25 26  1  0
 26 18  1  0
 27 16  1  0
 27 28  1  0
 29 27  2  0
M  END
$$$$
