PVW.pdb
     RDKit          3D

 29 31  0  0  1  0  0  0  0  0999 V2000
    8.1056  -19.0170   20.0204 N   0  0  0  0  0  0  0  0  0  0  0  0
    7.5322  -20.0051   19.1014 C   0  0  0  0  0  0  0  0  0  0  0  0
    7.6363  -19.4085   17.7172 C   0  0  0  0  0  0  0  0  0  0  0  0
    8.2989  -18.0439   17.9507 C   0  0  0  0  0  0  0  0  0  0  0  0
    9.0418  -18.2771   19.2256 C   0  0  1  0  0  0  0  0  0  0  0  0
    9.4407  -17.0044   19.9159 C   0  0  0  0  0  0  0  0  0  0  0  0
   10.6045  -16.5488   19.8149 O   0  0  0  0  0  0  0  0  0  0  0  0
    8.2522  -12.6640   21.7242 C   0  0  0  0  0  0  0  0  0  0  0  0
    7.7080  -13.9730   21.1285 C   0  0  1  0  0  0  0  0  0  0  0  0
    7.2492  -13.6705   19.7567 C   0  0  0  0  0  0  0  0  0  0  0  0
    8.7729  -14.9915   21.3088 C   0  0  2  0  0  0  0  0  0  0  0  0
    8.5118  -16.2748   20.7070 N   0  0  0  0  0  0  0  0  0  0  0  0
    9.3476  -15.0602   22.6742 C   0  0  0  0  0  0  0  0  0  0  0  0
    9.8364  -14.0012   23.1406 O   0  0  0  0  0  0  0  0  0  0  0  0
    9.3994  -16.2096   23.4955 N   0  0  0  0  0  0  0  0  0  0  0  0
    9.9084  -16.1354   24.8780 C   0  0  1  0  0  0  0  0  0  0  0  0
    8.8671  -16.3759   25.9005 C   0  0  0  0  0  0  0  0  0  0  0  0
    7.7093  -15.4813   25.9141 C   0  0  0  0  0  0  0  0  0  0  0  0
    6.4231  -15.9333   25.5726 C   0  0  0  0  0  0  0  0  0  0  0  0
    5.5411  -14.9224   25.6876 N   0  0  0  0  0  0  0  0  0  0  0  0
    6.1856  -13.8156   26.0904 C   0  0  0  0  0  0  0  0  0  0  0  0
    5.7435  -12.5375   26.3431 C   0  0  0  0  0  0  0  0  0  0  0  0
    6.6260  -11.5662   26.7410 C   0  0  0  0  0  0  0  0  0  0  0  0
    7.9448  -11.9178   26.8732 C   0  0  0  0  0  0  0  0  0  0  0  0
    8.4091  -13.1923   26.6252 C   0  0  0  0  0  0  0  0  0  0  0  0
    7.5204  -14.1611   26.2284 C   0  0  0  0  0  0  0  0  0  0  0  0
   11.1135  -16.9760   24.9463 C   0  0  0  0  0  0  0  0  0  0  0  0
   11.5210  -17.7274   23.8445 O   0  0  0  0  0  0  0  0  0  0  0  0
   11.8505  -17.0850   25.9646 O   0  0  0  0  0  0  0  0  0  0  0  0
  2  1  1  0
  3  2  1  0
  4  3  1  0
  4  5  1  0
  5  6  1  1
  5  1  1  0
  6  7  2  0
  9  8  1  6
 10  9  1  0
 11  9  1  0
 11 12  1  1
 12  6  1  0
 13 11  1  0
 14 13  2  0
 15 13  1  0
 16 15  1  0
 16 17  1  1
 18 17  1  0
 19 18  2  0
 20 19  1  0
 21 20  1  0
 21 26  2  0
 22 21  1  0
 23 22  2  0
 23 24  1  0
 24 25  2  0
 25 26  1  0
 26 18  1  0
 27 16  1  0
 27 28  1  0
 29 27  2  0
M  END
$$$$
