MWP.pdb
     RDKit          3D

 30 32  0  0  1  0  0  0  0  0999 V2000
   11.0683  -21.4094   20.8060 C   0  0  0  0  0  0  0  0  0  0  0  0
   12.2807  -20.5374   19.7758 S   0  0  0  0  0  0  0  0  0  0  0  0
   11.9220  -18.7393   19.7670 C   0  0  0  0  0  0  0  0  0  0  0  0
   10.4607  -18.5827   19.4311 C   0  0  0  0  0  0  0  0  0  0  0  0
   10.0703  -17.1281   19.3398 C   0  0  2  0  0  0  0  0  0  0  0  0
   10.9194  -16.3961   18.4263 N   0  0  0  0  0  0  0  0  0  0  0  0
   10.0517  -16.4735   20.6869 C   0  0  0  0  0  0  0  0  0  0  0  0
   11.0895  -15.8635   21.0407 O   0  0  0  0  0  0  0  0  0  0  0  0
    8.9381  -16.5221   21.5388 N   0  0  0  0  0  0  0  0  0  0  0  0
    8.9051  -15.9767   22.9137 C   0  0  1  0  0  0  0  0  0  0  0  0
    7.4991  -15.5786   23.1152 C   0  0  0  0  0  0  0  0  0  0  0  0
    7.0162  -15.1630   24.4058 C   0  0  0  0  0  0  0  0  0  0  0  0
    6.4701  -15.9371   25.4042 C   0  0  0  0  0  0  0  0  0  0  0  0
    6.1420  -15.1273   26.4400 N   0  0  0  0  0  0  0  0  0  0  0  0
    6.4551  -13.8666   26.1477 C   0  0  0  0  0  0  0  0  0  0  0  0
    6.3159  -12.7163   26.8965 C   0  0  0  0  0  0  0  0  0  0  0  0
    6.7381  -11.4967   26.3739 C   0  0  0  0  0  0  0  0  0  0  0  0
    7.2844  -11.4743   25.1193 C   0  0  0  0  0  0  0  0  0  0  0  0
    7.4113  -12.6324   24.3942 C   0  0  0  0  0  0  0  0  0  0  0  0
    7.0049  -13.8644   24.8762 C   0  0  0  0  0  0  0  0  0  0  0  0
    9.5365  -16.8678   23.8841 C   0  0  0  0  0  0  0  0  0  0  0  0
    9.7508  -18.0663   23.5599 O   0  0  0  0  0  0  0  0  0  0  0  0
    9.9552  -16.5058   25.1853 N   0  0  0  0  0  0  0  0  0  0  0  0
    9.7240  -15.2089   25.7958 C   0  0  0  0  0  0  0  0  0  0  0  0
   10.9920  -14.9362   26.5919 C   0  0  0  0  0  0  0  0  0  0  0  0
   11.7884  -16.1910   26.4866 C   0  0  0  0  0  0  0  0  0  0  0  0
   10.7254  -17.2630   26.1533 C   0  0  1  0  0  0  0  0  0  0  0  0
   10.0360  -17.5136   27.4298 C   0  0  0  0  0  0  0  0  0  0  0  0
    8.6792  -17.2005   27.4928 O   0  0  0  0  0  0  0  0  0  0  0  0
   10.5573  -17.9811   28.4615 O   0  0  0  0  0  0  0  0  0  0  0  0
  1  2  1  0
  3  2  1  0
  4  3  1  0
  5  6  1  6
  5  4  1  0
  7  5  1  0
  8  7  2  0
  9  7  1  0
 10 21  1  0
 10  9  1  0
 11 12  1  0
 10 11  1  1
 12 13  2  0
 14 13  1  0
 15 14  1  0
 16 15  2  0
 17 16  1  0
 18 19  1  0
 18 17  2  0
 19 20  2  0
 20 15  1  0
 20 12  1  0
 21 22  2  0
 23 24  1  0
 23 21  1  0
 25 24  1  0
 26 27  1  0
 26 25  1  0
 27 23  1  0
 27 28  1  1
 28 29  1  0
 30 28  2  0
M  END
$$$$
