MWP.pdb
     RDKit          3D

 30 32  0  0  1  0  0  0  0  0999 V2000
    8.7022  -22.2224   21.4445 C   0  0  0  0  0  0  0  0  0  0  0  0
    7.2174  -23.1351   20.9400 S   0  0  0  0  0  0  0  0  0  0  0  0
    5.7578  -22.0256   20.9651 C   0  0  0  0  0  0  0  0  0  0  0  0
    6.2567  -20.6336   20.6718 C   0  0  0  0  0  0  0  0  0  0  0  0
    5.2944  -19.5869   21.1766 C   0  0  2  0  0  0  0  0  0  0  0  0
    4.2671  -19.2826   20.2054 N   0  0  0  0  0  0  0  0  0  0  0  0
    6.0059  -18.3402   21.6047 C   0  0  0  0  0  0  0  0  0  0  0  0
    6.5329  -17.6444   20.7034 O   0  0  0  0  0  0  0  0  0  0  0  0
    6.0960  -17.9407   22.9466 N   0  0  0  0  0  0  0  0  0  0  0  0
    6.9701  -16.8563   23.4456 C   0  0  1  0  0  0  0  0  0  0  0  0
    6.5141  -16.6271   24.8295 C   0  0  0  0  0  0  0  0  0  0  0  0
    7.2440  -15.7698   25.7261 C   0  0  0  0  0  0  0  0  0  0  0  0
    8.2753  -16.1007   26.5753 C   0  0  0  0  0  0  0  0  0  0  0  0
    8.6537  -14.9831   27.2417 N   0  0  0  0  0  0  0  0  0  0  0  0
    7.9085  -13.9496   26.8553 C   0  0  0  0  0  0  0  0  0  0  0  0
    7.9442  -12.6276   27.2483 C   0  0  0  0  0  0  0  0  0  0  0  0
    7.0599  -11.7142   26.6805 C   0  0  0  0  0  0  0  0  0  0  0  0
    6.1716  -12.1591   25.7392 C   0  0  0  0  0  0  0  0  0  0  0  0
    6.1556  -13.4795   25.3657 C   0  0  0  0  0  0  0  0  0  0  0  0
    7.0168  -14.4192   25.9048 C   0  0  0  0  0  0  0  0  0  0  0  0
    8.3856  -17.1211   23.1993 C   0  0  0  0  0  0  0  0  0  0  0  0
    8.7855  -18.3157   23.1733 O   0  0  0  0  0  0  0  0  0  0  0  0
    9.3794  -16.1422   22.9678 N   0  0  0  0  0  0  0  0  0  0  0  0
    9.1520  -14.7089   23.0116 C   0  0  0  0  0  0  0  0  0  0  0  0
   10.0220  -14.1554   21.8923 C   0  0  0  0  0  0  0  0  0  0  0  0
   10.7997  -15.3256   21.3965 C   0  0  0  0  0  0  0  0  0  0  0  0
   10.7701  -16.3072   22.5905 C   0  0  1  0  0  0  0  0  0  0  0  0
   11.7393  -15.7546   23.5512 C   0  0  0  0  0  0  0  0  0  0  0  0
   11.2286  -15.2034   24.7250 O   0  0  0  0  0  0  0  0  0  0  0  0
   12.9780  -15.7351   23.4090 O   0  0  0  0  0  0  0  0  0  0  0  0
  1  2  1  0
  3  2  1  0
  4  3  1  0
  5  6  1  6
  5  4  1  0
  7  5  1  0
  8  7  2  0
  9  7  1  0
 10 21  1  0
 10  9  1  0
 11 12  1  0
 10 11  1  1
 12 13  2  0
 14 13  1  0
 15 14  1  0
 16 15  2  0
 17 16  1  0
 18 19  1  0
 18 17  2  0
 19 20  2  0
 20 15  1  0
 20 12  1  0
 21 22  2  0
 23 24  1  0
 23 21  1  0
 25 24  1  0
 26 27  1  0
 26 25  1  0
 27 23  1  0
 27 28  1  1
 28 29  1  0
 30 28  2  0
M  END
$$$$
