MWP.pdb
     RDKit          3D

 30 32  0  0  1  0  0  0  0  0999 V2000
    8.7105  -23.2275   23.6753 C   0  0  0  0  0  0  0  0  0  0  0  0
    7.1170  -24.0770   23.8511 S   0  0  0  0  0  0  0  0  0  0  0  0
    5.7410  -22.8996   23.5640 C   0  0  0  0  0  0  0  0  0  0  0  0
    6.3374  -21.5151   23.5664 C   0  0  0  0  0  0  0  0  0  0  0  0
    5.2795  -20.4604   23.3546 C   0  0  2  0  0  0  0  0  0  0  0  0
    4.4629  -20.7382   22.1939 N   0  0  0  0  0  0  0  0  0  0  0  0
    5.8740  -19.0882   23.2688 C   0  0  0  0  0  0  0  0  0  0  0  0
    6.1940  -18.6739   22.1286 O   0  0  0  0  0  0  0  0  0  0  0  0
    6.0765  -18.2772   24.3956 N   0  0  0  0  0  0  0  0  0  0  0  0
    6.9550  -17.0872   24.4298 C   0  0  1  0  0  0  0  0  0  0  0  0
    6.7330  -16.5077   25.7680 C   0  0  0  0  0  0  0  0  0  0  0  0
    7.5068  -15.3883   26.2368 C   0  0  0  0  0  0  0  0  0  0  0  0
    8.7906  -15.3842   26.7327 C   0  0  0  0  0  0  0  0  0  0  0  0
    9.1143  -14.1114   27.0666 N   0  0  0  0  0  0  0  0  0  0  0  0
    8.0921  -13.2993   26.8054 C   0  0  0  0  0  0  0  0  0  0  0  0
    7.9724  -11.9347   26.9691 C   0  0  0  0  0  0  0  0  0  0  0  0
    6.7906  -11.2961   26.6025 C   0  0  0  0  0  0  0  0  0  0  0  0
    5.7713  -12.0487   26.0852 C   0  0  0  0  0  0  0  0  0  0  0  0
    5.9149  -13.4050   25.9329 C   0  0  0  0  0  0  0  0  0  0  0  0
    7.0719  -14.0782   26.2843 C   0  0  0  0  0  0  0  0  0  0  0  0
    8.3198  -17.3873   24.0038 C   0  0  0  0  0  0  0  0  0  0  0  0
    8.7738  -18.5479   24.1896 O   0  0  0  0  0  0  0  0  0  0  0  0
    9.2046  -16.4822   23.3734 N   0  0  0  0  0  0  0  0  0  0  0  0
    8.9147  -15.0809   23.1274 C   0  0  0  0  0  0  0  0  0  0  0  0
    9.5420  -14.7995   21.7697 C   0  0  0  0  0  0  0  0  0  0  0  0
   10.2787  -16.0468   21.4215 C   0  0  0  0  0  0  0  0  0  0  0  0
   10.5127  -16.7195   22.7937 C   0  0  1  0  0  0  0  0  0  0  0  0
   11.6073  -15.9477   23.4051 C   0  0  0  0  0  0  0  0  0  0  0  0
   12.8975  -16.1934   22.9385 O   0  0  0  0  0  0  0  0  0  0  0  0
   11.4840  -15.0928   24.3044 O   0  0  0  0  0  0  0  0  0  0  0  0
  1  2  1  0
  3  2  1  0
  4  3  1  0
  5  6  1  6
  5  4  1  0
  7  5  1  0
  8  7  2  0
  9  7  1  0
 10 21  1  0
 10  9  1  0
 11 12  1  0
 10 11  1  1
 12 13  2  0
 14 13  1  0
 15 14  1  0
 16 15  2  0
 17 16  1  0
 18 19  1  0
 18 17  2  0
 19 20  2  0
 20 15  1  0
 20 12  1  0
 21 22  2  0
 23 24  1  0
 23 21  1  0
 25 24  1  0
 26 27  1  0
 26 25  1  0
 27 23  1  0
 27 28  1  1
 28 29  1  0
 30 28  2  0
M  END
$$$$
