MWP.pdb
     RDKit          3D

 30 32  0  0  1  0  0  0  0  0999 V2000
    7.9416  -12.2020   20.1631 C   0  0  0  0  0  0  0  0  0  0  0  0
    9.1074  -12.9632   18.9997 S   0  0  0  0  0  0  0  0  0  0  0  0
    8.9327  -14.7881   19.0370 C   0  0  0  0  0  0  0  0  0  0  0  0
    9.7346  -15.2840   20.2133 C   0  0  0  0  0  0  0  0  0  0  0  0
    8.8855  -16.1085   21.1491 C   0  0  2  0  0  0  0  0  0  0  0  0
    7.5291  -16.2485   20.6678 N   0  0  0  0  0  0  0  0  0  0  0  0
    8.9001  -15.5572   22.5418 C   0  0  0  0  0  0  0  0  0  0  0  0
    8.7910  -14.3135   22.6657 O   0  0  0  0  0  0  0  0  0  0  0  0
    9.0281  -16.3699   23.6782 N   0  0  0  0  0  0  0  0  0  0  0  0
    9.2490  -15.8676   25.0522 C   0  0  1  0  0  0  0  0  0  0  0  0
    7.9651  -16.1049   25.7387 C   0  0  0  0  0  0  0  0  0  0  0  0
    6.8725  -15.1748   25.6256 C   0  0  0  0  0  0  0  0  0  0  0  0
    5.5666  -15.4288   25.2732 C   0  0  0  0  0  0  0  0  0  0  0  0
    4.8870  -14.2564   25.2825 N   0  0  0  0  0  0  0  0  0  0  0  0
    5.7024  -13.2616   25.6263 C   0  0  0  0  0  0  0  0  0  0  0  0
    5.4504  -11.9137   25.7783 C   0  0  0  0  0  0  0  0  0  0  0  0
    6.4781  -11.0586   26.1675 C   0  0  0  0  0  0  0  0  0  0  0  0
    7.7214  -11.5856   26.3900 C   0  0  0  0  0  0  0  0  0  0  0  0
    7.9467  -12.9299   26.2312 C   0  0  0  0  0  0  0  0  0  0  0  0
    6.9537  -13.8137   25.8462 C   0  0  0  0  0  0  0  0  0  0  0  0
   10.4783  -16.3871   25.6467 C   0  0  0  0  0  0  0  0  0  0  0  0
   11.3436  -16.9104   24.8950 O   0  0  0  0  0  0  0  0  0  0  0  0
   10.8098  -16.3488   27.0207 N   0  0  0  0  0  0  0  0  0  0  0  0
   10.0190  -15.6863   28.0424 C   0  0  0  0  0  0  0  0  0  0  0  0
   11.0506  -15.0898   28.9890 C   0  0  0  0  0  0  0  0  0  0  0  0
   12.3615  -15.6011   28.4993 C   0  0  0  0  0  0  0  0  0  0  0  0
   11.9770  -16.8708   27.7056 C   0  0  1  0  0  0  0  0  0  0  0  0
   11.6865  -17.8810   28.7365 C   0  0  0  0  0  0  0  0  0  0  0  0
   12.7703  -18.3997   29.4428 O   0  0  0  0  0  0  0  0  0  0  0  0
   10.5563  -18.3151   29.0351 O   0  0  0  0  0  0  0  0  0  0  0  0
  1  2  1  0
  3  2  1  0
  4  3  1  0
  5  6  1  6
  5  4  1  0
  7  5  1  0
  8  7  2  0
  9  7  1  0
 10 21  1  0
 10  9  1  0
 11 12  1  0
 10 11  1  1
 12 13  2  0
 14 13  1  0
 15 14  1  0
 16 15  2  0
 17 16  1  0
 18 19  1  0
 18 17  2  0
 19 20  2  0
 20 15  1  0
 20 12  1  0
 21 22  2  0
 23 24  1  0
 23 21  1  0
 25 24  1  0
 26 27  1  0
 26 25  1  0
 27 23  1  0
 27 28  1  1
 28 29  1  0
 30 28  2  0
M  END
$$$$
