MWP.pdb
     RDKit          3D

 30 32  0  0  1  0  0  0  0  0999 V2000
    8.3227  -13.4574   15.7186 C   0  0  0  0  0  0  0  0  0  0  0  0
    8.9016  -13.0893   17.3982 S   0  0  0  0  0  0  0  0  0  0  0  0
    9.3554  -14.6418   18.2619 C   0  0  0  0  0  0  0  0  0  0  0  0
    9.8142  -14.2587   19.6459 C   0  0  0  0  0  0  0  0  0  0  0  0
   10.1568  -15.4764   20.4683 C   0  0  2  0  0  0  0  0  0  0  0  0
    9.3186  -16.6070   20.1365 N   0  0  0  0  0  0  0  0  0  0  0  0
   10.1007  -15.1872   21.9369 C   0  0  0  0  0  0  0  0  0  0  0  0
   10.9222  -14.3528   22.3873 O   0  0  0  0  0  0  0  0  0  0  0  0
    9.1811  -15.8056   22.7974 N   0  0  0  0  0  0  0  0  0  0  0  0
    9.0542  -15.5163   24.2428 C   0  0  1  0  0  0  0  0  0  0  0  0
    7.6664  -15.8936   24.5704 C   0  0  0  0  0  0  0  0  0  0  0  0
    6.8167  -15.0251   25.3420 C   0  0  0  0  0  0  0  0  0  0  0  0
    5.6838  -15.3487   26.0534 C   0  0  0  0  0  0  0  0  0  0  0  0
    5.1954  -14.2163   26.6150 N   0  0  0  0  0  0  0  0  0  0  0  0
    5.9677  -13.1804   26.2937 C   0  0  0  0  0  0  0  0  0  0  0  0
    5.8674  -11.8500   26.6452 C   0  0  0  0  0  0  0  0  0  0  0  0
    6.8208  -10.9422   26.1916 C   0  0  0  0  0  0  0  0  0  0  0  0
    7.8401  -11.4007   25.4018 C   0  0  0  0  0  0  0  0  0  0  0  0
    7.9172  -12.7289   25.0657 C   0  0  0  0  0  0  0  0  0  0  0  0
    6.9913  -13.6636   25.4952 C   0  0  0  0  0  0  0  0  0  0  0  0
   10.1483  -16.0864   25.0253 C   0  0  0  0  0  0  0  0  0  0  0  0
   11.0701  -16.7007   24.4248 O   0  0  0  0  0  0  0  0  0  0  0  0
   10.2872  -16.0045   26.4301 N   0  0  0  0  0  0  0  0  0  0  0  0
    9.3123  -15.4028   27.3221 C   0  0  0  0  0  0  0  0  0  0  0  0
   10.1522  -14.7083   28.3842 C   0  0  0  0  0  0  0  0  0  0  0  0
   11.5560  -15.1081   28.0853 C   0  0  0  0  0  0  0  0  0  0  0  0
   11.3916  -16.4151   27.2760 C   0  0  1  0  0  0  0  0  0  0  0  0
   11.0519  -17.4356   28.2813 C   0  0  0  0  0  0  0  0  0  0  0  0
   12.0830  -17.8877   29.1030 O   0  0  0  0  0  0  0  0  0  0  0  0
    9.9231  -17.9329   28.4641 O   0  0  0  0  0  0  0  0  0  0  0  0
  1  2  1  0
  3  2  1  0
  4  3  1  0
  5  6  1  1
  5  4  1  0
  7  5  1  0
  8  7  2  0
  9  7  1  0
 10 21  1  0
 10  9  1  0
 11 12  1  0
 10 11  1  1
 12 13  2  0
 14 13  1  0
 15 14  1  0
 16 15  2  0
 17 16  1  0
 18 19  1  0
 18 17  2  0
 19 20  2  0
 20 15  1  0
 20 12  1  0
 21 22  2  0
 23 24  1  0
 23 21  1  0
 25 24  1  0
 26 27  1  0
 26 25  1  0
 27 23  1  0
 27 28  1  1
 28 29  1  0
 30 28  2  0
M  END
$$$$
