MWP.pdb
     RDKit          3D

 30 32  0  0  1  0  0  0  0  0999 V2000
   10.2397  -20.7930   22.5540 C   0  0  0  0  0  0  0  0  0  0  0  0
    9.1912  -21.0470   21.0952 S   0  0  0  0  0  0  0  0  0  0  0  0
    7.5390  -21.6565   21.6059 C   0  0  0  0  0  0  0  0  0  0  0  0
    7.4978  -21.6096   23.1122 C   0  0  0  0  0  0  0  0  0  0  0  0
    6.2294  -20.9597   23.6075 C   0  0  2  0  0  0  0  0  0  0  0  0
    5.0586  -21.4727   22.9313 N   0  0  0  0  0  0  0  0  0  0  0  0
    6.2928  -19.4670   23.5000 C   0  0  0  0  0  0  0  0  0  0  0  0
    5.7134  -18.9391   22.5203 O   0  0  0  0  0  0  0  0  0  0  0  0
    6.9624  -18.6665   24.4377 N   0  0  0  0  0  0  0  0  0  0  0  0
    7.1677  -17.2073   24.3053 C   0  0  1  0  0  0  0  0  0  0  0  0
    7.1315  -16.7060   25.6922 C   0  0  0  0  0  0  0  0  0  0  0  0
    6.6883  -15.3704   25.9942 C   0  0  0  0  0  0  0  0  0  0  0  0
    5.4003  -14.9130   26.1556 C   0  0  0  0  0  0  0  0  0  0  0  0
    5.4496  -13.5842   26.4166 N   0  0  0  0  0  0  0  0  0  0  0  0
    6.7151  -13.1705   26.4296 C   0  0  0  0  0  0  0  0  0  0  0  0
    7.2415  -11.9168   26.6630 C   0  0  0  0  0  0  0  0  0  0  0  0
    8.6213  -11.7317   26.6388 C   0  0  0  0  0  0  0  0  0  0  0  0
    9.4237  -12.8100   26.3814 C   0  0  0  0  0  0  0  0  0  0  0  0
    8.8755  -14.0469   26.1517 C   0  0  0  0  0  0  0  0  0  0  0  0
    7.5104  -14.2739   26.1668 C   0  0  0  0  0  0  0  0  0  0  0  0
    8.3139  -16.8781   23.4613 C   0  0  0  0  0  0  0  0  0  0  0  0
    9.2350  -17.7275   23.3279 O   0  0  0  0  0  0  0  0  0  0  0  0
    8.4924  -15.6706   22.7475 N   0  0  0  0  0  0  0  0  0  0  0  0
    7.7393  -14.4522   22.9855 C   0  0  0  0  0  0  0  0  0  0  0  0
    7.5304  -13.8619   21.5984 C   0  0  0  0  0  0  0  0  0  0  0  0
    8.3266  -14.7315   20.6875 C   0  0  0  0  0  0  0  0  0  0  0  0
    9.3684  -15.3779   21.6293 C   0  0  1  0  0  0  0  0  0  0  0  0
   10.3544  -14.3138   21.8806 C   0  0  0  0  0  0  0  0  0  0  0  0
   11.2776  -14.0498   20.8703 O   0  0  0  0  0  0  0  0  0  0  0  0
   10.4382  -13.6264   22.9176 O   0  0  0  0  0  0  0  0  0  0  0  0
  1  2  1  0
  3  2  1  0
  4  3  1  0
  5  6  1  6
  5  4  1  0
  7  5  1  0
  8  7  2  0
  9  7  1  0
 10 21  1  0
 10  9  1  0
 11 12  1  0
 10 11  1  1
 12 13  2  0
 14 13  1  0
 15 14  1  0
 16 15  2  0
 17 16  1  0
 18 19  1  0
 18 17  2  0
 19 20  2  0
 20 15  1  0
 20 12  1  0
 21 22  2  0
 23 24  1  0
 23 21  1  0
 25 24  1  0
 26 27  1  0
 26 25  1  0
 27 23  1  0
 27 28  1  1
 28 29  1  0
 30 28  2  0
M  END
$$$$
