MWP.pdb
     RDKit          3D

 30 32  0  0  1  0  0  0  0  0999 V2000
    8.0850  -11.9773   19.3653 C   0  0  0  0  0  0  0  0  0  0  0  0
    8.5566  -13.3224   18.2428 S   0  0  0  0  0  0  0  0  0  0  0  0
    8.8460  -14.8634   19.1934 C   0  0  0  0  0  0  0  0  0  0  0  0
    8.9216  -14.4763   20.6485 C   0  0  0  0  0  0  0  0  0  0  0  0
    9.1762  -15.6781   21.5246 C   0  0  2  0  0  0  0  0  0  0  0  0
    8.2015  -16.7237   21.3058 N   0  0  0  0  0  0  0  0  0  0  0  0
    9.2375  -15.3047   22.9738 C   0  0  0  0  0  0  0  0  0  0  0  0
    9.1877  -14.0822   23.2520 O   0  0  0  0  0  0  0  0  0  0  0  0
    9.3454  -16.2566   23.9988 N   0  0  0  0  0  0  0  0  0  0  0  0
    9.4719  -15.9346   25.4373 C   0  0  1  0  0  0  0  0  0  0  0  0
    8.1371  -16.2229   25.9950 C   0  0  0  0  0  0  0  0  0  0  0  0
    7.0173  -15.3542   25.7440 C   0  0  0  0  0  0  0  0  0  0  0  0
    5.8191  -15.6573   25.1384 C   0  0  0  0  0  0  0  0  0  0  0  0
    5.0643  -14.5325   25.1007 N   0  0  0  0  0  0  0  0  0  0  0  0
    5.7280  -13.5212   25.6570 C   0  0  0  0  0  0  0  0  0  0  0  0
    5.3536  -12.2076   25.8507 C   0  0  0  0  0  0  0  0  0  0  0  0
    6.2277  -11.3262   26.4815 C   0  0  0  0  0  0  0  0  0  0  0  0
    7.4458  -11.7935   26.8951 C   0  0  0  0  0  0  0  0  0  0  0  0
    7.7949  -13.1046   26.6900 C   0  0  0  0  0  0  0  0  0  0  0  0
    6.9562  -14.0129   26.0679 C   0  0  0  0  0  0  0  0  0  0  0  0
   10.6454  -16.5547   26.0480 C   0  0  0  0  0  0  0  0  0  0  0  0
   11.4769  -17.1441   25.3071 O   0  0  0  0  0  0  0  0  0  0  0  0
   10.9573  -16.5486   27.4271 N   0  0  0  0  0  0  0  0  0  0  0  0
   10.1662  -15.8870   28.4493 C   0  0  0  0  0  0  0  0  0  0  0  0
   11.1966  -15.3309   29.4214 C   0  0  0  0  0  0  0  0  0  0  0  0
   12.5031  -15.8624   28.9414 C   0  0  0  0  0  0  0  0  0  0  0  0
   12.1024  -17.1087   28.1190 C   0  0  1  0  0  0  0  0  0  0  0  0
   11.7744  -18.1305   29.1270 C   0  0  0  0  0  0  0  0  0  0  0  0
   10.4373  -18.5071   29.2402 O   0  0  0  0  0  0  0  0  0  0  0  0
   12.5865  -18.6903   29.8899 O   0  0  0  0  0  0  0  0  0  0  0  0
  1  2  1  0
  3  2  1  0
  4  3  1  0
  5  6  1  1
  5  4  1  0
  7  5  1  0
  8  7  2  0
  9  7  1  0
 10 21  1  0
 10  9  1  0
 11 12  1  0
 10 11  1  1
 12 13  2  0
 14 13  1  0
 15 14  1  0
 16 15  2  0
 17 16  1  0
 18 19  1  0
 18 17  2  0
 19 20  2  0
 20 15  1  0
 20 12  1  0
 21 22  2  0
 23 24  1  0
 23 21  1  0
 25 24  1  0
 26 27  1  0
 26 25  1  0
 27 23  1  0
 27 28  1  1
 28 29  1  0
 30 28  2  0
M  END
$$$$
