MWP.pdb
     RDKit          3D

 30 32  0  0  1  0  0  0  0  0999 V2000
    8.6550  -14.0932   16.3132 C   0  0  0  0  0  0  0  0  0  0  0  0
    8.1128  -14.2370   18.0386 S   0  0  0  0  0  0  0  0  0  0  0  0
    9.4352  -13.6497   19.1649 C   0  0  0  0  0  0  0  0  0  0  0  0
    8.8991  -13.7597   20.5697 C   0  0  0  0  0  0  0  0  0  0  0  0
    9.4611  -14.9667   21.2796 C   0  0  2  0  0  0  0  0  0  0  0  0
    8.7523  -16.1781   20.9314 N   0  0  0  0  0  0  0  0  0  0  0  0
    9.4855  -14.7746   22.7649 C   0  0  0  0  0  0  0  0  0  0  0  0
    9.6761  -13.6089   23.1878 O   0  0  0  0  0  0  0  0  0  0  0  0
    9.3059  -15.8317   23.6697 N   0  0  0  0  0  0  0  0  0  0  0  0
    9.2934  -15.6870   25.1421 C   0  0  1  0  0  0  0  0  0  0  0  0
    7.9391  -16.1155   25.5398 C   0  0  0  0  0  0  0  0  0  0  0  0
    6.8416  -15.1852   25.5815 C   0  0  0  0  0  0  0  0  0  0  0  0
    5.4969  -15.4425   25.4409 C   0  0  0  0  0  0  0  0  0  0  0  0
    4.8264  -14.2688   25.5351 N   0  0  0  0  0  0  0  0  0  0  0  0
    5.6846  -13.2698   25.7306 C   0  0  0  0  0  0  0  0  0  0  0  0
    5.4585  -11.9189   25.8962 C   0  0  0  0  0  0  0  0  0  0  0  0
    6.5336  -11.0593   26.1058 C   0  0  0  0  0  0  0  0  0  0  0  0
    7.7967  -11.5849   26.1415 C   0  0  0  0  0  0  0  0  0  0  0  0
    7.9954  -12.9323   25.9733 C   0  0  0  0  0  0  0  0  0  0  0  0
    6.9552  -13.8206   25.7630 C   0  0  0  0  0  0  0  0  0  0  0  0
   10.4509  -16.3143   25.7754 C   0  0  0  0  0  0  0  0  0  0  0  0
   11.3023  -16.8935   25.0492 O   0  0  0  0  0  0  0  0  0  0  0  0
   10.7263  -16.3261   27.1623 N   0  0  0  0  0  0  0  0  0  0  0  0
    9.9264  -15.6506   28.1683 C   0  0  0  0  0  0  0  0  0  0  0  0
   10.9452  -15.1290   29.1714 C   0  0  0  0  0  0  0  0  0  0  0  0
   12.2492  -15.6922   28.7218 C   0  0  0  0  0  0  0  0  0  0  0  0
   11.8373  -16.9216   27.8798 C   0  0  1  0  0  0  0  0  0  0  0  0
   11.4557  -17.9411   28.8710 C   0  0  0  0  0  0  0  0  0  0  0  0
   12.4754  -18.4839   29.6509 O   0  0  0  0  0  0  0  0  0  0  0  0
   10.3005  -18.3636   29.0759 O   0  0  0  0  0  0  0  0  0  0  0  0
  1  2  1  0
  3  2  1  0
  4  3  1  0
  5  6  1  1
  5  4  1  0
  7  5  1  0
  8  7  2  0
  9  7  1  0
 10 21  1  0
 10  9  1  0
 11 12  1  0
 10 11  1  1
 12 13  2  0
 14 13  1  0
 15 14  1  0
 16 15  2  0
 17 16  1  0
 18 19  1  0
 18 17  2  0
 19 20  2  0
 20 15  1  0
 20 12  1  0
 21 22  2  0
 23 24  1  0
 23 21  1  0
 25 24  1  0
 26 27  1  0
 26 25  1  0
 27 23  1  0
 27 28  1  1
 28 29  1  0
 30 28  2  0
M  END
$$$$
