MWP.pdb
     RDKit          3D

 30 32  0  0  1  0  0  0  0  0999 V2000
    8.1494  -11.6170   19.1644 C   0  0  0  0  0  0  0  0  0  0  0  0
    8.5338  -13.3872   19.2681 S   0  0  0  0  0  0  0  0  0  0  0  0
    7.4853  -14.1852   20.5433 C   0  0  0  0  0  0  0  0  0  0  0  0
    7.8272  -15.6535   20.5396 C   0  0  0  0  0  0  0  0  0  0  0  0
    9.1350  -15.9153   21.2449 C   0  0  2  0  0  0  0  0  0  0  0  0
    9.5066  -17.3119   21.1955 N   0  0  0  0  0  0  0  0  0  0  0  0
    9.1105  -15.4226   22.6592 C   0  0  0  0  0  0  0  0  0  0  0  0
    9.0334  -14.1822   22.8314 O   0  0  0  0  0  0  0  0  0  0  0  0
    9.1691  -16.2849   23.7643 N   0  0  0  0  0  0  0  0  0  0  0  0
    9.2544  -15.8431   25.1737 C   0  0  1  0  0  0  0  0  0  0  0  0
    7.9592  -16.2376   25.7592 C   0  0  0  0  0  0  0  0  0  0  0  0
    6.8395  -15.3334   25.7776 C   0  0  0  0  0  0  0  0  0  0  0  0
    5.5033  -15.6241   25.6217 C   0  0  0  0  0  0  0  0  0  0  0  0
    4.8038  -14.4658   25.6958 N   0  0  0  0  0  0  0  0  0  0  0  0
    5.6354  -13.4449   25.8930 C   0  0  0  0  0  0  0  0  0  0  0  0
    5.3750  -12.0983   26.0426 C   0  0  0  0  0  0  0  0  0  0  0  0
    6.4266  -11.2114   26.2582 C   0  0  0  0  0  0  0  0  0  0  0  0
    7.7012  -11.7064   26.3156 C   0  0  0  0  0  0  0  0  0  0  0  0
    7.9341  -13.0501   26.1629 C   0  0  0  0  0  0  0  0  0  0  0  0
    6.9182  -13.9649   25.9474 C   0  0  0  0  0  0  0  0  0  0  0  0
   10.4887  -16.2788   25.8226 C   0  0  0  0  0  0  0  0  0  0  0  0
   11.4343  -16.7051   25.1073 O   0  0  0  0  0  0  0  0  0  0  0  0
   10.7407  -16.2575   27.2139 N   0  0  0  0  0  0  0  0  0  0  0  0
    9.8524  -15.6767   28.2047 C   0  0  0  0  0  0  0  0  0  0  0  0
   10.7882  -15.0410   29.2226 C   0  0  0  0  0  0  0  0  0  0  0  0
   12.1553  -15.4519   28.7960 C   0  0  0  0  0  0  0  0  0  0  0  0
   11.9005  -16.7213   27.9511 C   0  0  1  0  0  0  0  0  0  0  0  0
   11.6215  -17.7767   28.9390 C   0  0  0  0  0  0  0  0  0  0  0  0
   10.3138  -18.2537   29.0089 O   0  0  0  0  0  0  0  0  0  0  0  0
   12.4511  -18.2829   29.7203 O   0  0  0  0  0  0  0  0  0  0  0  0
  1  2  1  0
  3  2  1  0
  4  3  1  0
  5  6  1  1
  5  4  1  0
  7  5  1  0
  8  7  2  0
  9  7  1  0
 10 21  1  0
 10  9  1  0
 11 12  1  0
 10 11  1  1
 12 13  2  0
 14 13  1  0
 15 14  1  0
 16 15  2  0
 17 16  1  0
 18 19  1  0
 18 17  2  0
 19 20  2  0
 20 15  1  0
 20 12  1  0
 21 22  2  0
 23 24  1  0
 23 21  1  0
 25 24  1  0
 26 27  1  0
 26 25  1  0
 27 23  1  0
 27 28  1  1
 28 29  1  0
 30 28  2  0
M  END
$$$$
