MWP.pdb
     RDKit          3D

 30 32  0  0  1  0  0  0  0  0999 V2000
    8.2658  -13.2199   16.2946 C   0  0  0  0  0  0  0  0  0  0  0  0
    8.7196  -12.9670   18.0330 S   0  0  0  0  0  0  0  0  0  0  0  0
    9.1790  -14.5666   18.8027 C   0  0  0  0  0  0  0  0  0  0  0  0
    9.4137  -14.2998   20.2678 C   0  0  0  0  0  0  0  0  0  0  0  0
    9.8018  -15.5602   21.0008 C   0  0  2  0  0  0  0  0  0  0  0  0
    8.8910  -16.6490   20.7252 N   0  0  0  0  0  0  0  0  0  0  0  0
    9.9215  -15.3291   22.4759 C   0  0  0  0  0  0  0  0  0  0  0  0
   10.8198  -14.5422   22.8605 O   0  0  0  0  0  0  0  0  0  0  0  0
    9.0808  -15.9500   23.4119 N   0  0  0  0  0  0  0  0  0  0  0  0
    9.1219  -15.7089   24.8710 C   0  0  1  0  0  0  0  0  0  0  0  0
    7.7761  -16.0873   25.3418 C   0  0  0  0  0  0  0  0  0  0  0  0
    6.7578  -15.0968   25.5729 C   0  0  0  0  0  0  0  0  0  0  0  0
    5.4074  -15.2863   25.7592 C   0  0  0  0  0  0  0  0  0  0  0  0
    4.8264  -14.0738   25.9285 N   0  0  0  0  0  0  0  0  0  0  0  0
    5.7476  -13.1150   25.8588 C   0  0  0  0  0  0  0  0  0  0  0  0
    5.6225  -11.7469   25.9848 C   0  0  0  0  0  0  0  0  0  0  0  0
    6.7520  -10.9383   25.8884 C   0  0  0  0  0  0  0  0  0  0  0  0
    7.9661  -11.5305   25.6690 C   0  0  0  0  0  0  0  0  0  0  0  0
    8.0641  -12.8938   25.5465 C   0  0  0  0  0  0  0  0  0  0  0  0
    6.9672  -13.7330   25.6360 C   0  0  0  0  0  0  0  0  0  0  0  0
   10.2914  -16.3129   25.5049 C   0  0  0  0  0  0  0  0  0  0  0  0
   11.1101  -16.9499   24.7896 O   0  0  0  0  0  0  0  0  0  0  0  0
   10.6130  -16.2413   26.8800 N   0  0  0  0  0  0  0  0  0  0  0  0
    9.8066  -15.5678   27.8822 C   0  0  0  0  0  0  0  0  0  0  0  0
   10.8239  -14.9380   28.8227 C   0  0  0  0  0  0  0  0  0  0  0  0
   12.1447  -15.4423   28.3526 C   0  0  0  0  0  0  0  0  0  0  0  0
   11.7820  -16.7334   27.5834 C   0  0  1  0  0  0  0  0  0  0  0  0
   11.4976  -17.7253   28.6336 C   0  0  0  0  0  0  0  0  0  0  0  0
   10.1741  -18.1379   28.7780 O   0  0  0  0  0  0  0  0  0  0  0  0
   12.3353  -18.2302   29.4070 O   0  0  0  0  0  0  0  0  0  0  0  0
  1  2  1  0
  3  2  1  0
  4  3  1  0
  5  6  1  1
  5  4  1  0
  7  5  1  0
  8  7  2  0
  9  7  1  0
 10 21  1  0
 10  9  1  0
 11 12  1  0
 10 11  1  1
 12 13  2  0
 14 13  1  0
 15 14  1  0
 16 15  2  0
 17 16  1  0
 18 19  1  0
 18 17  2  0
 19 20  2  0
 20 15  1  0
 20 12  1  0
 21 22  2  0
 23 24  1  0
 23 21  1  0
 25 24  1  0
 26 27  1  0
 26 25  1  0
 27 23  1  0
 27 28  1  1
 28 29  1  0
 30 28  2  0
M  END
$$$$
