YPR.pdb
     RDKit          3D

 31 32  0  0  1  0  0  0  0  0999 V2000
   24.0960  -12.1416  -19.1176 O   0  0  0  0  0  0  0  0  0  0  0  0
   23.9900  -13.3304  -18.4071 C   0  0  0  0  0  0  0  0  0  0  0  0
   24.9682  -13.7129  -17.5473 C   0  0  0  0  0  0  0  0  0  0  0  0
   24.8326  -14.8922  -16.8612 C   0  0  0  0  0  0  0  0  0  0  0  0
   23.7341  -15.6949  -17.0213 C   0  0  0  0  0  0  0  0  0  0  0  0
   23.6439  -16.9615  -16.2499 C   0  0  0  0  0  0  0  0  0  0  0  0
   24.4836  -18.0541  -16.8873 C   0  0  2  0  0  0  0  0  0  0  0  0
   23.8483  -18.4901  -18.0766 N   0  0  0  0  0  0  0  0  0  0  0  0
   24.9046  -19.0829  -15.9377 C   0  0  0  0  0  0  0  0  0  0  0  0
   24.1860  -20.1441  -15.8704 O   0  0  0  0  0  0  0  0  0  0  0  0
   22.7422  -15.3143  -17.8878 C   0  0  0  0  0  0  0  0  0  0  0  0
   22.8770  -14.1280  -18.5796 C   0  0  0  0  0  0  0  0  0  0  0  0
   26.0268  -19.0368  -15.0751 N   0  0  0  0  0  0  0  0  0  0  0  0
   27.0245  -18.0249  -14.8646 C   0  0  0  0  0  0  0  0  0  0  0  0
   28.2905  -18.8498  -14.7264 C   0  0  0  0  0  0  0  0  0  0  0  0
   27.8623  -20.2126  -14.2915 C   0  0  0  0  0  0  0  0  0  0  0  0
   26.3848  -20.1124  -14.1648 C   0  0  1  0  0  0  0  0  0  0  0  0
   26.0181  -19.8018  -12.7698 C   0  0  0  0  0  0  0  0  0  0  0  0
   26.1859  -18.6324  -12.2934 O   0  0  0  0  0  0  0  0  0  0  0  0
   18.3385  -21.4675  -11.5379 N   0  0  0  0  0  0  0  0  0  0  0  0
   18.9113  -20.4660  -10.7074 C   0  0  0  0  0  0  0  0  0  0  0  0
   18.0937  -19.8518   -9.9005 N   0  0  0  0  0  0  0  0  0  0  0  0
   20.3051  -20.1363  -10.7392 N   0  0  0  0  0  0  0  0  0  0  0  0
   21.1573  -20.8844  -11.6435 C   0  0  0  0  0  0  0  0  0  0  0  0
   22.5608  -20.3973  -11.6604 C   0  0  0  0  0  0  0  0  0  0  0  0
   23.4381  -20.8397  -10.5498 C   0  0  0  0  0  0  0  0  0  0  0  0
   24.8694  -20.4366  -10.6305 C   0  0  2  0  0  0  0  0  0  0  0  0
   25.4693  -20.7833  -11.9156 N   0  0  0  0  0  0  0  0  0  0  0  0
   25.6785  -21.1776   -9.5899 C   0  0  0  0  0  0  0  0  0  0  0  0
   26.4200  -22.1248   -9.9519 O   0  0  0  0  0  0  0  0  0  0  0  0
   25.6410  -20.8601   -8.2445 O   0  0  0  0  0  0  0  0  0  0  0  0
  2  1  1  0
  3  2  2  0
  4  3  1  0
  5  4  2  0
  5 11  1  0
  6  5  1  0
  7  8  1  6
  7  6  1  0
  9  7  1  0
 10  9  2  0
 11 12  2  0
 12  2  1  0
 13  9  1  0
 13 14  1  0
 14 15  1  0
 16 17  1  0
 16 15  1  0
 17 13  1  0
 17 18  1  1
 19 18  2  0
 20 21  1  0
 21 22  2  0
 23 24  1  0
 23 21  1  0
 24 25  1  0
 26 25  1  0
 27 26  1  6
 27 28  1  0
 28 18  1  0
 29 27  1  0
 29 31  1  0
 30 29  2  0
M  END
$$$$
