YPR.pdb
     RDKit          3D

 31 32  0  0  1  0  0  0  0  0999 V2000
   28.6923  -19.5367   -2.9877 O   0  0  0  0  0  0  0  0  0  0  0  0
   28.9701  -19.7512   -4.3316 C   0  0  0  0  0  0  0  0  0  0  0  0
   29.9299  -20.6341   -4.7081 C   0  0  0  0  0  0  0  0  0  0  0  0
   30.1793  -20.8227   -6.0430 C   0  0  0  0  0  0  0  0  0  0  0  0
   29.4838  -20.1423   -7.0075 C   0  0  0  0  0  0  0  0  0  0  0  0
   29.7992  -20.3893   -8.4381 C   0  0  0  0  0  0  0  0  0  0  0  0
   29.1507  -21.6708   -8.9305 C   0  0  2  0  0  0  0  0  0  0  0  0
   30.1576  -22.6445   -9.1459 N   0  0  0  0  0  0  0  0  0  0  0  0
   28.1908  -21.4506  -10.0110 C   0  0  0  0  0  0  0  0  0  0  0  0
   28.5879  -21.7035  -11.2049 O   0  0  0  0  0  0  0  0  0  0  0  0
   28.5128  -19.2494   -6.6341 C   0  0  0  0  0  0  0  0  0  0  0  0
   28.2606  -19.0578   -5.2910 C   0  0  0  0  0  0  0  0  0  0  0  0
   26.8599  -20.9836   -9.8848 N   0  0  0  0  0  0  0  0  0  0  0  0
   26.2182  -20.2019   -8.8645 C   0  0  0  0  0  0  0  0  0  0  0  0
   24.8638  -20.8765   -8.7511 C   0  0  0  0  0  0  0  0  0  0  0  0
   24.6245  -21.5668  -10.0533 C   0  0  0  0  0  0  0  0  0  0  0  0
   25.8220  -21.2394  -10.8704 C   0  0  1  0  0  0  0  0  0  0  0  0
   25.5521  -20.0562  -11.7094 C   0  0  0  0  0  0  0  0  0  0  0  0
   25.6282  -18.8798  -11.2267 O   0  0  0  0  0  0  0  0  0  0  0  0
   27.7705  -18.7514  -19.6920 N   0  0  0  0  0  0  0  0  0  0  0  0
   28.6751  -18.5978  -18.6061 C   0  0  0  0  0  0  0  0  0  0  0  0
   29.9373  -18.7640  -18.8817 N   0  0  0  0  0  0  0  0  0  0  0  0
   28.2445  -18.2773  -17.2778 N   0  0  0  0  0  0  0  0  0  0  0  0
   26.8367  -17.9955  -17.0718 C   0  0  0  0  0  0  0  0  0  0  0  0
   26.5005  -17.7063  -15.6539 C   0  0  0  0  0  0  0  0  0  0  0  0
   26.4284  -18.8650  -14.7315 C   0  0  0  0  0  0  0  0  0  0  0  0
   25.1616  -19.0293  -13.9660 C   0  0  2  0  0  0  0  0  0  0  0  0
   25.2023  -20.1826  -13.0717 N   0  0  0  0  0  0  0  0  0  0  0  0
   24.0110  -19.2877  -14.9125 C   0  0  0  0  0  0  0  0  0  0  0  0
   23.4596  -18.3150  -15.4851 O   0  0  0  0  0  0  0  0  0  0  0  0
   23.5307  -20.5564  -15.1808 O   0  0  0  0  0  0  0  0  0  0  0  0
  2  1  1  0
  3  2  2  0
  4  3  1  0
  5  4  2  0
  5 11  1  0
  6  5  1  0
  7  8  1  6
  7  6  1  0
  9  7  1  0
 10  9  2  0
 11 12  2  0
 12  2  1  0
 13  9  1  0
 13 14  1  0
 14 15  1  0
 16 17  1  0
 16 15  1  0
 17 13  1  0
 17 18  1  1
 19 18  2  0
 20 21  1  0
 21 22  2  0
 23 24  1  0
 23 21  1  0
 24 25  1  0
 26 25  1  0
 27 26  1  6
 27 28  1  0
 28 18  1  0
 29 27  1  0
 29 31  1  0
 30 29  2  0
M  END
$$$$
