YPR.pdb
     RDKit          3D

 31 32  0  0  1  0  0  0  0  0999 V2000
   24.3095  -12.8851  -19.7462 O   0  0  0  0  0  0  0  0  0  0  0  0
   24.2001  -13.9009  -18.8051 C   0  0  0  0  0  0  0  0  0  0  0  0
   25.3089  -14.4519  -18.2488 C   0  0  0  0  0  0  0  0  0  0  0  0
   25.1661  -15.4528  -17.3228 C   0  0  0  0  0  0  0  0  0  0  0  0
   23.9319  -15.9112  -16.9441 C   0  0  0  0  0  0  0  0  0  0  0  0
   23.8411  -16.9985  -15.9356 C   0  0  0  0  0  0  0  0  0  0  0  0
   24.2781  -18.3293  -16.5214 C   0  0  2  0  0  0  0  0  0  0  0  0
   23.3881  -18.6895  -17.5636 N   0  0  0  0  0  0  0  0  0  0  0  0
   24.5608  -19.3400  -15.5036 C   0  0  0  0  0  0  0  0  0  0  0  0
   23.6621  -20.2342  -15.3039 O   0  0  0  0  0  0  0  0  0  0  0  0
   22.8079  -15.3588  -17.5017 C   0  0  0  0  0  0  0  0  0  0  0  0
   22.9495  -14.3516  -18.4343 C   0  0  0  0  0  0  0  0  0  0  0  0
   25.7262  -19.4414  -14.7056 N   0  0  0  0  0  0  0  0  0  0  0  0
   26.8805  -18.5935  -14.5947 C   0  0  0  0  0  0  0  0  0  0  0  0
   28.0082  -19.6032  -14.4880 C   0  0  0  0  0  0  0  0  0  0  0  0
   27.3994  -20.8644  -13.9700 C   0  0  0  0  0  0  0  0  0  0  0  0
   25.9661  -20.5269  -13.7685 C   0  0  1  0  0  0  0  0  0  0  0  0
   25.7369  -20.1123  -12.3712 C   0  0  0  0  0  0  0  0  0  0  0  0
   26.0771  -18.9529  -11.9680 O   0  0  0  0  0  0  0  0  0  0  0  0
   19.7263  -23.9285   -7.4999 N   0  0  0  0  0  0  0  0  0  0  0  0
   19.8656  -23.1103   -8.6540 C   0  0  0  0  0  0  0  0  0  0  0  0
   18.8224  -23.0285   -9.4298 N   0  0  0  0  0  0  0  0  0  0  0  0
   21.0742  -22.4064   -8.9641 N   0  0  0  0  0  0  0  0  0  0  0  0
   21.6528  -21.5671   -7.9323 C   0  0  0  0  0  0  0  0  0  0  0  0
   22.8621  -20.8334   -8.3864 C   0  0  0  0  0  0  0  0  0  0  0  0
   23.3805  -21.1641   -9.7358 C   0  0  0  0  0  0  0  0  0  0  0  0
   24.6504  -20.5012  -10.1425 C   0  0  2  0  0  0  0  0  0  0  0  0
   25.1344  -20.9799  -11.4340 N   0  0  0  0  0  0  0  0  0  0  0  0
   25.7464  -20.8231   -9.1516 C   0  0  0  0  0  0  0  0  0  0  0  0
   26.5535  -21.7499   -9.4119 O   0  0  0  0  0  0  0  0  0  0  0  0
   25.9048  -20.1398   -7.9598 O   0  0  0  0  0  0  0  0  0  0  0  0
  2  1  1  0
  3  2  2  0
  4  3  1  0
  5  4  2  0
  5 11  1  0
  6  5  1  0
  7  8  1  6
  7  6  1  0
  9  7  1  0
 10  9  2  0
 11 12  2  0
 12  2  1  0
 13  9  1  0
 13 14  1  0
 14 15  1  0
 16 17  1  0
 16 15  1  0
 17 13  1  0
 17 18  1  1
 19 18  2  0
 20 21  1  0
 21 22  2  0
 23 24  1  0
 23 21  1  0
 24 25  1  0
 26 25  1  0
 27 26  1  1
 27 28  1  0
 28 18  1  0
 29 27  1  0
 29 31  1  0
 30 29  2  0
M  END
$$$$
