YPR.pdb
     RDKit          3D

 31 32  0  0  1  0  0  0  0  0999 V2000
   24.7344  -11.7582  -18.5660 O   0  0  0  0  0  0  0  0  0  0  0  0
   24.5186  -12.9798  -17.9413 C   0  0  0  0  0  0  0  0  0  0  0  0
   25.3274  -13.3947  -16.9332 C   0  0  0  0  0  0  0  0  0  0  0  0
   25.0869  -14.6059  -16.3376 C   0  0  0  0  0  0  0  0  0  0  0  0
   24.0502  -15.4089  -16.7341 C   0  0  0  0  0  0  0  0  0  0  0  0
   23.8399  -16.7110  -16.0503 C   0  0  0  0  0  0  0  0  0  0  0  0
   24.6431  -17.8158  -16.7132 C   0  0  2  0  0  0  0  0  0  0  0  0
   23.9461  -18.2680  -17.8613 N   0  0  0  0  0  0  0  0  0  0  0  0
   25.1102  -18.8313  -15.7709 C   0  0  0  0  0  0  0  0  0  0  0  0
   24.3761  -19.8739  -15.6252 O   0  0  0  0  0  0  0  0  0  0  0  0
   23.2293  -14.9958  -17.7515 C   0  0  0  0  0  0  0  0  0  0  0  0
   23.4699  -13.7772  -18.3526 C   0  0  0  0  0  0  0  0  0  0  0  0
   26.2927  -18.7905  -14.9929 N   0  0  0  0  0  0  0  0  0  0  0  0
   27.3420  -17.8132  -14.9066 C   0  0  0  0  0  0  0  0  0  0  0  0
   28.5813  -18.6838  -14.8144 C   0  0  0  0  0  0  0  0  0  0  0  0
   28.1325  -20.0036  -14.2792 C   0  0  0  0  0  0  0  0  0  0  0  0
   26.6732  -19.8339  -14.0545 C   0  0  1  0  0  0  0  0  0  0  0  0
   26.4208  -19.4387  -12.6556 C   0  0  0  0  0  0  0  0  0  0  0  0
   26.2204  -18.2196  -12.3454 O   0  0  0  0  0  0  0  0  0  0  0  0
   19.6833  -21.9034  -10.1260 N   0  0  0  0  0  0  0  0  0  0  0  0
   20.2526  -21.8098   -8.8267 C   0  0  0  0  0  0  0  0  0  0  0  0
   19.6219  -22.4389   -7.8763 N   0  0  0  0  0  0  0  0  0  0  0  0
   21.4507  -21.0724   -8.5566 N   0  0  0  0  0  0  0  0  0  0  0  0
   22.1474  -20.4769   -9.6808 C   0  0  0  0  0  0  0  0  0  0  0  0
   22.9583  -21.4556  -10.4500 C   0  0  0  0  0  0  0  0  0  0  0  0
   24.0134  -20.9050  -11.3344 C   0  0  0  0  0  0  0  0  0  0  0  0
   25.2760  -20.4708  -10.6748 C   0  0  2  0  0  0  0  0  0  0  0  0
   26.3910  -20.3918  -11.6140 N   0  0  0  0  0  0  0  0  0  0  0  0
   25.6929  -21.4826   -9.6312 C   0  0  0  0  0  0  0  0  0  0  0  0
   26.0984  -22.6122  -10.0021 O   0  0  0  0  0  0  0  0  0  0  0  0
   25.6484  -21.2221   -8.2738 O   0  0  0  0  0  0  0  0  0  0  0  0
  2  1  1  0
  3  2  2  0
  4  3  1  0
  5  4  2  0
  5 11  1  0
  6  5  1  0
  7  8  1  6
  7  6  1  0
  9  7  1  0
 10  9  2  0
 11 12  2  0
 12  2  1  0
 13  9  1  0
 13 14  1  0
 14 15  1  0
 16 17  1  0
 16 15  1  0
 17 13  1  0
 17 18  1  1
 19 18  2  0
 20 21  1  0
 21 22  2  0
 23 24  1  0
 23 21  1  0
 24 25  1  0
 26 25  1  0
 27 26  1  6
 27 28  1  0
 28 18  1  0
 29 27  1  0
 29 31  1  0
 30 29  2  0
M  END
$$$$
