YPR.pdb
     RDKit          3D

 31 32  0  0  1  0  0  0  0  0999 V2000
   17.7716  -13.4805  -16.3349 O   0  0  0  0  0  0  0  0  0  0  0  0
   18.6382  -14.5325  -16.0678 C   0  0  0  0  0  0  0  0  0  0  0  0
   18.1676  -15.7146  -15.5950 C   0  0  0  0  0  0  0  0  0  0  0  0
   19.0498  -16.7331  -15.3418 C   0  0  0  0  0  0  0  0  0  0  0  0
   20.3954  -16.5881  -15.5541 C   0  0  0  0  0  0  0  0  0  0  0  0
   21.3020  -17.7281  -15.2610 C   0  0  0  0  0  0  0  0  0  0  0  0
   21.5680  -18.5532  -16.5074 C   0  0  2  0  0  0  0  0  0  0  0  0
   20.3854  -19.2491  -16.8615 N   0  0  0  0  0  0  0  0  0  0  0  0
   22.8038  -19.3305  -16.4290 C   0  0  0  0  0  0  0  0  0  0  0  0
   22.6921  -20.5771  -16.1451 O   0  0  0  0  0  0  0  0  0  0  0  0
   20.8775  -15.3970  -16.0318 C   0  0  0  0  0  0  0  0  0  0  0  0
   19.9912  -14.3705  -16.2869 C   0  0  0  0  0  0  0  0  0  0  0  0
   24.1222  -18.8553  -16.6320 N   0  0  0  0  0  0  0  0  0  0  0  0
   24.6239  -17.5482  -16.9538 C   0  0  0  0  0  0  0  0  0  0  0  0
   25.7241  -17.8656  -17.9494 C   0  0  0  0  0  0  0  0  0  0  0  0
   26.1451  -19.2728  -17.6805 C   0  0  0  0  0  0  0  0  0  0  0  0
   25.3037  -19.6967  -16.5310 C   0  0  1  0  0  0  0  0  0  0  0  0
   26.0313  -19.4792  -15.2660 C   0  0  0  0  0  0  0  0  0  0  0  0
   26.3061  -18.3027  -14.8624 O   0  0  0  0  0  0  0  0  0  0  0  0
   24.9481  -19.9260   -7.8385 N   0  0  0  0  0  0  0  0  0  0  0  0
   24.6781  -21.1140   -8.5711 C   0  0  0  0  0  0  0  0  0  0  0  0
   23.6273  -21.7900   -8.2028 N   0  0  0  0  0  0  0  0  0  0  0  0
   25.5006  -21.5596   -9.6561 N   0  0  0  0  0  0  0  0  0  0  0  0
   26.8170  -20.9668   -9.7957 C   0  0  0  0  0  0  0  0  0  0  0  0
   27.5788  -21.5024  -10.9532 C   0  0  0  0  0  0  0  0  0  0  0  0
   26.8757  -21.5437  -12.2581 C   0  0  0  0  0  0  0  0  0  0  0  0
   27.0376  -20.3548  -13.1400 C   0  0  2  0  0  0  0  0  0  0  0  0
   26.4472  -20.5611  -14.4592 N   0  0  0  0  0  0  0  0  0  0  0  0
   28.5050  -20.0861  -13.3877 C   0  0  0  0  0  0  0  0  0  0  0  0
   29.0930  -20.7046  -14.3096 O   0  0  0  0  0  0  0  0  0  0  0  0
   29.2390  -19.1835  -12.6403 O   0  0  0  0  0  0  0  0  0  0  0  0
  2  1  1  0
  3  2  2  0
  4  3  1  0
  5  4  2  0
  5 11  1  0
  6  5  1  0
  7  8  1  1
  7  6  1  0
  9  7  1  0
 10  9  2  0
 11 12  2  0
 12  2  1  0
 13  9  1  0
 13 14  1  0
 14 15  1  0
 16 17  1  0
 16 15  1  0
 17 13  1  0
 17 18  1  1
 19 18  2  0
 20 21  1  0
 21 22  2  0
 23 24  1  0
 23 21  1  0
 24 25  1  0
 26 25  1  0
 27 26  1  1
 27 28  1  0
 28 18  1  0
 29 27  1  0
 29 31  1  0
 30 29  2  0
M  END
$$$$
