YPR.pdb
     RDKit          3D

 31 32  0  0  1  0  0  0  0  0999 V2000
   26.2681  -18.6381   -6.1754 O   0  0  0  0  0  0  0  0  0  0  0  0
   26.2827  -19.2950   -7.3992 C   0  0  0  0  0  0  0  0  0  0  0  0
   27.0962  -18.8748   -8.4012 C   0  0  0  0  0  0  0  0  0  0  0  0
   27.0866  -19.5455   -9.5969 C   0  0  0  0  0  0  0  0  0  0  0  0
   26.2762  -20.6300   -9.8064 C   0  0  0  0  0  0  0  0  0  0  0  0
   26.3100  -21.3158  -11.1239 C   0  0  0  0  0  0  0  0  0  0  0  0
   25.2571  -20.7545  -12.0628 C   0  0  2  0  0  0  0  0  0  0  0  0
   23.9786  -21.1953  -11.6392 N   0  0  0  0  0  0  0  0  0  0  0  0
   25.5925  -20.9327  -13.4746 C   0  0  0  0  0  0  0  0  0  0  0  0
   24.8033  -21.6644  -14.1740 O   0  0  0  0  0  0  0  0  0  0  0  0
   25.4523  -21.0599   -8.7985 C   0  0  0  0  0  0  0  0  0  0  0  0
   25.4602  -20.3859   -7.5944 C   0  0  0  0  0  0  0  0  0  0  0  0
   26.7025  -20.3837  -14.1614 N   0  0  0  0  0  0  0  0  0  0  0  0
   27.8642  -19.6843  -13.6872 C   0  0  0  0  0  0  0  0  0  0  0  0
   28.0325  -18.5995  -14.7347 C   0  0  0  0  0  0  0  0  0  0  0  0
   27.3621  -19.0984  -15.9721 C   0  0  0  0  0  0  0  0  0  0  0  0
   26.8675  -20.4509  -15.6044 C   0  0  1  0  0  0  0  0  0  0  0  0
   27.8539  -21.4738  -16.0014 C   0  0  0  0  0  0  0  0  0  0  0  0
   29.0807  -21.3613  -15.6776 O   0  0  0  0  0  0  0  0  0  0  0  0
   28.3138  -29.7486  -16.8709 N   0  0  0  0  0  0  0  0  0  0  0  0
   27.2836  -28.7696  -16.8353 C   0  0  0  0  0  0  0  0  0  0  0  0
   26.1375  -29.1587  -16.3539 N   0  0  0  0  0  0  0  0  0  0  0  0
   27.4741  -27.4265  -17.2961 N   0  0  0  0  0  0  0  0  0  0  0  0
   28.6164  -27.1589  -18.1490 C   0  0  0  0  0  0  0  0  0  0  0  0
   28.7405  -25.7274  -18.5265 C   0  0  0  0  0  0  0  0  0  0  0  0
   27.8364  -24.7720  -17.8419 C   0  0  0  0  0  0  0  0  0  0  0  0
   28.4653  -23.5432  -17.2832 C   0  0  2  0  0  0  0  0  0  0  0  0
   27.4769  -22.6103  -16.7502 N   0  0  0  0  0  0  0  0  0  0  0  0
   29.1920  -22.7883  -18.3735 C   0  0  0  0  0  0  0  0  0  0  0  0
   30.4433  -22.6908  -18.3203 O   0  0  0  0  0  0  0  0  0  0  0  0
   28.5389  -22.1933  -19.4373 O   0  0  0  0  0  0  0  0  0  0  0  0
  2  1  1  0
  3  2  2  0
  4  3  1  0
  5  4  2  0
  5 11  1  0
  6  5  1  0
  7  8  1  6
  7  6  1  0
  9  7  1  0
 10  9  2  0
 11 12  2  0
 12  2  1  0
 13  9  1  0
 13 14  1  0
 14 15  1  0
 16 17  1  0
 16 15  1  0
 17 13  1  0
 17 18  1  1
 19 18  2  0
 20 21  1  0
 21 22  2  0
 23 24  1  0
 23 21  1  0
 24 25  1  0
 26 25  1  0
 27 26  1  6
 27 28  1  0
 28 18  1  0
 29 27  1  0
 29 31  1  0
 30 29  2  0
M  END
$$$$
