HIH.pdb
     RDKit          3D

 29 30  0  0  1  0  0  0  0  0999 V2000
   20.5882  -21.8112  -12.4549 N   0  0  0  0  0  0  0  0  0  0  0  0
   21.1476  -21.4762  -13.7468 C   0  0  1  0  0  0  0  0  0  0  0  0
   20.0918  -20.6980  -14.5136 C   0  0  0  0  0  0  0  0  0  0  0  0
   18.8775  -21.5142  -14.7706 C   0  0  0  0  0  0  0  0  0  0  0  0
   18.8062  -22.5241  -15.6961 C   0  0  0  0  0  0  0  0  0  0  0  0
   17.5604  -23.0273  -15.6430 N   0  0  0  0  0  0  0  0  0  0  0  0
   16.8840  -22.3467  -14.7114 C   0  0  0  0  0  0  0  0  0  0  0  0
   17.7012  -21.4006  -14.1633 N   0  0  0  0  0  0  0  0  0  0  0  0
   22.3308  -20.5818  -13.6150 C   0  0  0  0  0  0  0  0  0  0  0  0
   22.5990  -20.0733  -12.4920 O   0  0  0  0  0  0  0  0  0  0  0  0
   25.4488  -21.5543  -11.2504 C   0  0  0  0  0  0  0  0  0  0  0  0
   24.6632  -20.6979  -12.1859 C   0  0  0  0  0  0  0  0  0  0  0  0
   25.2425  -20.6555  -13.5827 C   0  0  2  0  0  0  0  0  0  0  0  0
   26.7282  -20.4050  -13.5001 C   0  0  0  0  0  0  0  0  0  0  0  0
   24.5290  -19.6850  -14.4632 C   0  0  2  0  0  0  0  0  0  0  0  0
   23.1896  -20.2580  -14.6824 N   0  0  0  0  0  0  0  0  0  0  0  0
   25.1973  -19.4407  -15.7716 C   0  0  0  0  0  0  0  0  0  0  0  0
   25.3511  -20.3981  -16.5694 O   0  0  0  0  0  0  0  0  0  0  0  0
   25.6694  -18.1682  -16.1570 N   0  0  0  0  0  0  0  0  0  0  0  0
   25.4871  -17.6274  -17.4820 C   0  0  1  0  0  0  0  0  0  0  0  0
   24.0359  -17.7823  -17.8617 C   0  0  0  0  0  0  0  0  0  0  0  0
   23.7272  -17.3144  -19.2311 C   0  0  0  0  0  0  0  0  0  0  0  0
   24.0017  -18.0555  -20.3709 C   0  0  0  0  0  0  0  0  0  0  0  0
   23.5877  -17.3169  -21.4144 N   0  0  0  0  0  0  0  0  0  0  0  0
   23.0765  -16.1652  -20.9577 C   0  0  0  0  0  0  0  0  0  0  0  0
   23.1669  -16.1739  -19.6184 N   0  0  0  0  0  0  0  0  0  0  0  0
   25.8500  -16.1882  -17.5438 C   0  0  0  0  0  0  0  0  0  0  0  0
   26.4300  -15.5797  -18.6352 O   0  0  0  0  0  0  0  0  0  0  0  0
   25.6189  -15.4694  -16.5436 O   0  0  0  0  0  0  0  0  0  0  0  0
  2  9  1  0
  2  1  1  1
  3  2  1  0
  4  3  1  0
  4  5  2  0
  6  5  1  0
  7  8  2  0
  7  6  1  0
  8  4  1  0
  9 10  2  0
 12 11  1  0
 13 14  1  1
 13 12  1  0
 13 15  1  0
 15 16  1  6
 16  9  1  0
 17 18  2  0
 17 15  1  0
 19 17  1  0
 20 27  1  0
 20 19  1  0
 20 21  1  1
 22 21  1  0
 23 22  2  0
 24 25  1  0
 24 23  1  0
 25 26  2  0
 26 22  1  0
 27 28  1  0
 29 27  2  0
M  END
$$$$
