HIH.pdb
     RDKit          3D

 29 30  0  0  1  0  0  0  0  0999 V2000
   18.5970  -24.1959   -7.5285 N   0  0  0  0  0  0  0  0  0  0  0  0
   17.8173  -25.3159   -7.0470 C   0  0  1  0  0  0  0  0  0  0  0  0
   18.2994  -26.5564   -7.7797 C   0  0  0  0  0  0  0  0  0  0  0  0
   18.0203  -26.4846   -9.2370 C   0  0  0  0  0  0  0  0  0  0  0  0
   18.9878  -26.4283  -10.2076 C   0  0  0  0  0  0  0  0  0  0  0  0
   18.3595  -26.3732  -11.3951 N   0  0  0  0  0  0  0  0  0  0  0  0
   17.0427  -26.3950  -11.1622 C   0  0  0  0  0  0  0  0  0  0  0  0
   16.8249  -26.4645   -9.8165 N   0  0  0  0  0  0  0  0  0  0  0  0
   18.0452  -25.5570   -5.5954 C   0  0  0  0  0  0  0  0  0  0  0  0
   19.2022  -25.4010   -5.1173 O   0  0  0  0  0  0  0  0  0  0  0  0
   14.7864  -23.4132   -2.2655 C   0  0  0  0  0  0  0  0  0  0  0  0
   16.0325  -24.0240   -2.8132 C   0  0  0  0  0  0  0  0  0  0  0  0
   16.1234  -25.5137   -2.5661 C   0  0  2  0  0  0  0  0  0  0  0  0
   16.1058  -25.7757   -1.0802 C   0  0  0  0  0  0  0  0  0  0  0  0
   17.2896  -26.1335   -3.2604 C   0  0  2  0  0  0  0  0  0  0  0  0
   17.0346  -25.9563   -4.7005 N   0  0  0  0  0  0  0  0  0  0  0  0
   17.4873  -27.5774   -2.9534 C   0  0  0  0  0  0  0  0  0  0  0  0
   16.5852  -28.3971   -3.2550 O   0  0  0  0  0  0  0  0  0  0  0  0
   18.6553  -28.0685   -2.3327 N   0  0  0  0  0  0  0  0  0  0  0  0
   18.8034  -29.4374   -1.9019 C   0  0  1  0  0  0  0  0  0  0  0  0
   20.2762  -29.7422   -1.7893 C   0  0  0  0  0  0  0  0  0  0  0  0
   20.5640  -31.1003   -1.2773 C   0  0  0  0  0  0  0  0  0  0  0  0
   20.2091  -32.2604   -1.9495 C   0  0  0  0  0  0  0  0  0  0  0  0
   20.6285  -33.2852   -1.1882 N   0  0  0  0  0  0  0  0  0  0  0  0
   21.2196  -32.7979   -0.0885 C   0  0  0  0  0  0  0  0  0  0  0  0
   21.1747  -31.4578   -0.1531 N   0  0  0  0  0  0  0  0  0  0  0  0
   18.1610  -29.6720   -0.5832 C   0  0  0  0  0  0  0  0  0  0  0  0
   18.1766  -28.7717    0.4594 O   0  0  0  0  0  0  0  0  0  0  0  0
   17.5626  -30.7566   -0.3938 O   0  0  0  0  0  0  0  0  0  0  0  0
  2  9  1  0
  2  1  1  6
  3  2  1  0
  4  3  1  0
  4  5  2  0
  6  5  1  0
  7  8  2  0
  7  6  1  0
  8  4  1  0
  9 10  2  0
 12 11  1  0
 13 14  1  1
 13 12  1  0
 13 15  1  0
 15 16  1  6
 16  9  1  0
 17 18  2  0
 17 15  1  0
 19 17  1  0
 20 27  1  0
 20 19  1  0
 20 21  1  1
 22 21  1  0
 23 22  2  0
 24 25  1  0
 24 23  1  0
 25 26  2  0
 26 22  1  0
 27 28  1  0
 29 27  2  0
M  END
$$$$
