HIH.pdb
     RDKit          3D

 29 30  0  0  1  0  0  0  0  0999 V2000
   20.2824  -15.4728  -16.9835 N   0  0  0  0  0  0  0  0  0  0  0  0
   20.7235  -14.2413  -17.6023 C   0  0  1  0  0  0  0  0  0  0  0  0
   19.5706  -13.7118  -18.4381 C   0  0  0  0  0  0  0  0  0  0  0  0
   19.2760  -14.5910  -19.5987 C   0  0  0  0  0  0  0  0  0  0  0  0
   19.7150  -14.3570  -20.8770 C   0  0  0  0  0  0  0  0  0  0  0  0
   19.2545  -15.3586  -21.6470 N   0  0  0  0  0  0  0  0  0  0  0  0
   18.5520  -16.1855  -20.8650 C   0  0  0  0  0  0  0  0  0  0  0  0
   18.5620  -15.7114  -19.5850 N   0  0  0  0  0  0  0  0  0  0  0  0
   21.0327  -13.1986  -16.5852 C   0  0  0  0  0  0  0  0  0  0  0  0
   20.3053  -13.1014  -15.5590 O   0  0  0  0  0  0  0  0  0  0  0  0
   25.8078  -12.5779  -14.7087 C   0  0  0  0  0  0  0  0  0  0  0  0
   24.3249  -12.5358  -14.8665 C   0  0  0  0  0  0  0  0  0  0  0  0
   23.8268  -11.2392  -15.4659 C   0  0  2  0  0  0  0  0  0  0  0  0
   24.2970  -10.0834  -14.6175 C   0  0  0  0  0  0  0  0  0  0  0  0
   22.3512  -11.2466  -15.6868 C   0  0  2  0  0  0  0  0  0  0  0  0
   22.1056  -12.2937  -16.6937 N   0  0  0  0  0  0  0  0  0  0  0  0
   21.7971   -9.9475  -16.1594 C   0  0  0  0  0  0  0  0  0  0  0  0
   22.2071   -9.4644  -17.2435 O   0  0  0  0  0  0  0  0  0  0  0  0
   20.8224   -9.2294  -15.4348 N   0  0  0  0  0  0  0  0  0  0  0  0
   20.3413   -7.9294  -15.8346 C   0  0  1  0  0  0  0  0  0  0  0  0
   18.8892   -7.8201  -15.4424 C   0  0  0  0  0  0  0  0  0  0  0  0
   18.3018   -6.4877  -15.7055 C   0  0  0  0  0  0  0  0  0  0  0  0
   18.2140   -5.4895  -14.7465 C   0  0  0  0  0  0  0  0  0  0  0  0
   17.6303   -4.4371  -15.3446 N   0  0  0  0  0  0  0  0  0  0  0  0
   17.3621   -4.7536  -16.6191 C   0  0  0  0  0  0  0  0  0  0  0  0
   17.7776   -6.0125  -16.8297 N   0  0  0  0  0  0  0  0  0  0  0  0
   21.1013   -6.8352  -15.1774 C   0  0  0  0  0  0  0  0  0  0  0  0
   21.3653   -5.6147  -15.7592 O   0  0  0  0  0  0  0  0  0  0  0  0
   21.5368   -7.0223  -14.0173 O   0  0  0  0  0  0  0  0  0  0  0  0
  2  9  1  0
  2  1  1  1
  3  2  1  0
  4  3  1  0
  4  5  2  0
  6  5  1  0
  7  8  2  0
  7  6  1  0
  8  4  1  0
  9 10  2  0
 12 11  1  0
 13 14  1  1
 13 12  1  0
 13 15  1  0
 15 16  1  6
 16  9  1  0
 17 18  2  0
 17 15  1  0
 19 17  1  0
 20 27  1  0
 20 19  1  0
 20 21  1  1
 22 21  1  0
 23 22  2  0
 24 25  1  0
 24 23  1  0
 25 26  2  0
 26 22  1  0
 27 28  1  0
 29 27  2  0
M  END
$$$$
