HIH.pdb
     RDKit          3D

 29 30  0  0  1  0  0  0  0  0999 V2000
   29.5661  -23.8087  -16.2007 N   0  0  0  0  0  0  0  0  0  0  0  0
   28.1807  -23.5288  -16.5113 C   0  0  1  0  0  0  0  0  0  0  0  0
   27.3476  -24.6685  -15.9498 C   0  0  0  0  0  0  0  0  0  0  0  0
   27.5390  -25.9266  -16.7162 C   0  0  0  0  0  0  0  0  0  0  0  0
   28.0333  -27.0895  -16.1825 C   0  0  0  0  0  0  0  0  0  0  0  0
   28.0613  -28.0018  -17.1699 N   0  0  0  0  0  0  0  0  0  0  0  0
   27.5976  -27.4172  -18.2798 C   0  0  0  0  0  0  0  0  0  0  0  0
   27.2699  -26.1214  -18.0026 N   0  0  0  0  0  0  0  0  0  0  0  0
   27.7117  -22.2830  -15.8438 C   0  0  0  0  0  0  0  0  0  0  0  0
   28.1094  -22.0205  -14.6757 O   0  0  0  0  0  0  0  0  0  0  0  0
   28.3830  -17.8225  -17.9822 C   0  0  0  0  0  0  0  0  0  0  0  0
   28.0985  -18.9016  -16.9922 C   0  0  0  0  0  0  0  0  0  0  0  0
   26.6322  -19.0121  -16.6371 C   0  0  2  0  0  0  0  0  0  0  0  0
   26.1490  -17.6905  -16.0922 C   0  0  0  0  0  0  0  0  0  0  0  0
   26.3539  -20.1620  -15.7279 C   0  0  2  0  0  0  0  0  0  0  0  0
   26.8349  -21.3578  -16.4414 N   0  0  0  0  0  0  0  0  0  0  0  0
   24.9171  -20.3264  -15.3721 C   0  0  0  0  0  0  0  0  0  0  0  0
   24.1042  -20.6899  -16.2574 O   0  0  0  0  0  0  0  0  0  0  0  0
   24.4253  -20.0892  -14.0712 N   0  0  0  0  0  0  0  0  0  0  0  0
   23.0549  -20.3301  -13.6900 C   0  0  1  0  0  0  0  0  0  0  0  0
   22.9260  -20.0893  -12.2068 C   0  0  0  0  0  0  0  0  0  0  0  0
   23.9708  -20.7617  -11.4032 C   0  0  0  0  0  0  0  0  0  0  0  0
   24.8725  -21.6730  -11.9326 C   0  0  0  0  0  0  0  0  0  0  0  0
   25.6572  -22.0671  -10.9154 N   0  0  0  0  0  0  0  0  0  0  0  0
   25.2713  -21.4365   -9.7975 C   0  0  0  0  0  0  0  0  0  0  0  0
   24.2371  -20.6390  -10.1075 N   0  0  0  0  0  0  0  0  0  0  0  0
   22.1174  -19.4282  -14.4074 C   0  0  0  0  0  0  0  0  0  0  0  0
   20.7881  -19.7106  -14.6334 O   0  0  0  0  0  0  0  0  0  0  0  0
   22.5521  -18.3357  -14.8409 O   0  0  0  0  0  0  0  0  0  0  0  0
  2  9  1  0
  2  1  1  1
  3  2  1  0
  4  3  1  0
  4  5  2  0
  6  5  1  0
  7  8  2  0
  7  6  1  0
  8  4  1  0
  9 10  2  0
 12 11  1  0
 13 14  1  1
 13 12  1  0
 13 15  1  0
 15 16  1  6
 16  9  1  0
 17 18  2  0
 17 15  1  0
 19 17  1  0
 20 27  1  0
 20 19  1  0
 20 21  1  1
 22 21  1  0
 23 22  2  0
 24 25  1  0
 24 23  1  0
 25 26  2  0
 26 22  1  0
 27 28  1  0
 29 27  2  0
M  END
$$$$
