HIH.pdb
     RDKit          3D

 29 30  0  0  1  0  0  0  0  0999 V2000
   27.7757  -20.4793  -16.7926 N   0  0  0  0  0  0  0  0  0  0  0  0
   26.9073  -19.5885  -16.0534 C   0  0  1  0  0  0  0  0  0  0  0  0
   26.0091  -18.8881  -17.0588 C   0  0  0  0  0  0  0  0  0  0  0  0
   26.7760  -17.9837  -17.9535 C   0  0  0  0  0  0  0  0  0  0  0  0
   26.9115  -18.1667  -19.3061 C   0  0  0  0  0  0  0  0  0  0  0  0
   27.6666  -17.1564  -19.7722 N   0  0  0  0  0  0  0  0  0  0  0  0
   27.9869  -16.3738  -18.7361 C   0  0  0  0  0  0  0  0  0  0  0  0
   27.4336  -16.8853  -17.5978 N   0  0  0  0  0  0  0  0  0  0  0  0
   26.0145  -20.3390  -15.1277 C   0  0  0  0  0  0  0  0  0  0  0  0
   25.4828  -21.4144  -15.5183 O   0  0  0  0  0  0  0  0  0  0  0  0
   27.5728  -20.9712  -10.2503 C   0  0  0  0  0  0  0  0  0  0  0  0
   26.8634  -21.2058  -11.5416 C   0  0  0  0  0  0  0  0  0  0  0  0
   25.4715  -20.6143  -11.5719 C   0  0  2  0  0  0  0  0  0  0  0  0
   24.6363  -21.2457  -10.4854 C   0  0  0  0  0  0  0  0  0  0  0  0
   24.8463  -20.7045  -12.9237 C   0  0  2  0  0  0  0  0  0  0  0  0
   25.7168  -19.9205  -13.8170 N   0  0  0  0  0  0  0  0  0  0  0  0
   23.4521  -20.1849  -12.9885 C   0  0  0  0  0  0  0  0  0  0  0  0
   23.2564  -18.9460  -12.9287 O   0  0  0  0  0  0  0  0  0  0  0  0
   22.3312  -21.0324  -13.1155 N   0  0  0  0  0  0  0  0  0  0  0  0
   20.9994  -20.5445  -13.3789 C   0  0  1  0  0  0  0  0  0  0  0  0
   20.9897  -19.9072  -14.7458 C   0  0  0  0  0  0  0  0  0  0  0  0
   19.6646  -19.3862  -15.1485 C   0  0  0  0  0  0  0  0  0  0  0  0
   18.9192  -18.5129  -14.3704 C   0  0  0  0  0  0  0  0  0  0  0  0
   17.7885  -18.2649  -15.0530 N   0  0  0  0  0  0  0  0  0  0  0  0
   17.8169  -18.9475  -16.2061 C   0  0  0  0  0  0  0  0  0  0  0  0
   18.9710  -19.6313  -16.2546 N   0  0  0  0  0  0  0  0  0  0  0  0
   19.9964  -21.6399  -13.3513 C   0  0  0  0  0  0  0  0  0  0  0  0
   18.6875  -21.4845  -12.9506 O   0  0  0  0  0  0  0  0  0  0  0  0
   20.3517  -22.7857  -13.7135 O   0  0  0  0  0  0  0  0  0  0  0  0
  2  9  1  0
  2  1  1  6
  3  2  1  0
  4  3  1  0
  4  5  2  0
  6  5  1  0
  7  8  2  0
  7  6  1  0
  8  4  1  0
  9 10  2  0
 12 11  1  0
 13 14  1  1
 13 12  1  0
 13 15  1  0
 15 16  1  6
 16  9  1  0
 17 18  2  0
 17 15  1  0
 19 17  1  0
 20 27  1  0
 20 19  1  0
 20 21  1  6
 22 21  1  0
 23 22  2  0
 24 25  1  0
 24 23  1  0
 25 26  2  0
 26 22  1  0
 27 28  1  0
 29 27  2  0
M  END
$$$$
