YVG.pdb
     RDKit          3D

 24 24  0  0  1  0  0  0  0  0999 V2000
    6.7287  -10.7992   26.4647 O   0  0  0  0  0  0  0  0  0  0  0  0
    6.8670  -12.1883   26.5939 C   0  0  0  0  0  0  0  0  0  0  0  0
    8.1235  -12.6972   26.7340 C   0  0  0  0  0  0  0  0  0  0  0  0
    8.2690  -14.0824   26.8635 C   0  0  0  0  0  0  0  0  0  0  0  0
    7.1713  -14.9065   26.8494 C   0  0  0  0  0  0  0  0  0  0  0  0
    7.3512  -16.3566   26.9870 C   0  0  0  0  0  0  0  0  0  0  0  0
    6.7061  -17.1296   25.8453 C   0  0  2  0  0  0  0  0  0  0  0  0
    6.5865  -18.5437   26.1875 N   0  0  0  0  0  0  0  0  0  0  0  0
    7.6034  -16.9555   24.6653 C   0  0  0  0  0  0  0  0  0  0  0  0
    8.6133  -17.6902   24.5895 O   0  0  0  0  0  0  0  0  0  0  0  0
    5.9221  -14.3563   26.7063 C   0  0  0  0  0  0  0  0  0  0  0  0
    5.7521  -12.9923   26.5768 C   0  0  0  0  0  0  0  0  0  0  0  0
    8.2590  -14.8376   20.1941 C   0  0  0  0  0  0  0  0  0  0  0  0
    7.5837  -14.7976   21.5394 C   0  0  2  0  0  0  0  0  0  0  0  0
    7.6543  -13.4430   22.1824 C   0  0  0  0  0  0  0  0  0  0  0  0
    8.1117  -15.8545   22.4771 C   0  0  2  0  0  0  0  0  0  0  0  0
    7.3084  -15.9837   23.6686 N   0  0  0  0  0  0  0  0  0  0  0  0
    9.5375  -15.6159   22.8169 C   0  0  0  0  0  0  0  0  0  0  0  0
    9.7882  -14.7128   23.6563 O   0  0  0  0  0  0  0  0  0  0  0  0
   10.5989  -16.3522   22.2424 N   0  0  0  0  0  0  0  0  0  0  0  0
   11.9607  -15.9658   22.5468 C   0  0  0  0  0  0  0  0  0  0  0  0
   12.8186  -16.2356   21.3838 C   0  0  0  0  0  0  0  0  0  0  0  0
   12.3483  -16.8150   20.3877 O   0  0  0  0  0  0  0  0  0  0  0  0
   14.1358  -15.8499   21.3947 O   0  0  0  0  0  0  0  0  0  0  0  0
  2  1  1  0
  3  2  2  0
  4  3  1  0
  5  4  2  0
  5 11  1  0
  6  5  1  0
  7  8  1  1
  7  6  1  0
  9  7  1  0
 10  9  2  0
 11 12  2  0
 12  2  1  0
 14 13  1  6
 14 15  1  0
 16 17  1  1
 16 14  1  0
 17  9  1  0
 18 16  1  0
 19 18  2  0
 20 18  1  0
 21 20  1  0
 22 24  1  0
 22 21  1  0
 23 22  2  0
M  END
$$$$
