YVG.pdb
     RDKit          3D

 24 24  0  0  1  0  0  0  0  0999 V2000
   10.5041  -14.2477   30.1069 O   0  0  0  0  0  0  0  0  0  0  0  0
   10.2966  -14.5238   28.7482 C   0  0  0  0  0  0  0  0  0  0  0  0
    9.7369  -13.5513   27.9746 C   0  0  0  0  0  0  0  0  0  0  0  0
    9.5270  -13.8198   26.6179 C   0  0  0  0  0  0  0  0  0  0  0  0
    9.8771  -15.0339   26.0817 C   0  0  0  0  0  0  0  0  0  0  0  0
    9.6463  -15.2904   24.6551 C   0  0  0  0  0  0  0  0  0  0  0  0
    8.1738  -15.5122   24.3390 C   0  0  2  0  0  0  0  0  0  0  0  0
    7.6567  -16.6559   25.0844 N   0  0  0  0  0  0  0  0  0  0  0  0
    8.0976  -15.7721   22.8713 C   0  0  0  0  0  0  0  0  0  0  0  0
    8.0089  -16.9623   22.4954 O   0  0  0  0  0  0  0  0  0  0  0  0
   10.4384  -15.9880   26.8930 C   0  0  0  0  0  0  0  0  0  0  0  0
   10.6559  -15.7474   28.2351 C   0  0  0  0  0  0  0  0  0  0  0  0
    8.3888  -12.5365   19.8173 C   0  0  0  0  0  0  0  0  0  0  0  0
    7.5105  -13.7583   19.7607 C   0  0  2  0  0  0  0  0  0  0  0  0
    6.1089  -13.4855   20.2237 C   0  0  0  0  0  0  0  0  0  0  0  0
    8.0989  -14.9223   20.5182 C   0  0  2  0  0  0  0  0  0  0  0  0
    8.1260  -14.6943   21.9427 N   0  0  0  0  0  0  0  0  0  0  0  0
    9.4478  -15.2764   20.0078 C   0  0  0  0  0  0  0  0  0  0  0  0
   10.4391  -14.7750   20.5984 O   0  0  0  0  0  0  0  0  0  0  0  0
    9.6515  -16.1381   18.9057 N   0  0  0  0  0  0  0  0  0  0  0  0
   11.0028  -16.5385   18.5738 C   0  0  0  0  0  0  0  0  0  0  0  0
   10.9713  -17.4877   17.4516 C   0  0  0  0  0  0  0  0  0  0  0  0
   10.1178  -18.3932   17.4294 O   0  0  0  0  0  0  0  0  0  0  0  0
   11.8807  -17.3770   16.4296 O   0  0  0  0  0  0  0  0  0  0  0  0
  2  1  1  0
  3  2  2  0
  4  3  1  0
  5  4  2  0
  5 11  1  0
  6  5  1  0
  7  8  1  1
  7  6  1  0
  9  7  1  0
 10  9  2  0
 11 12  2  0
 12  2  1  0
 14 13  1  1
 14 15  1  0
 16 17  1  1
 16 14  1  0
 17  9  1  0
 18 16  1  0
 19 18  2  0
 20 18  1  0
 21 20  1  0
 22 24  1  0
 22 21  1  0
 23 22  2  0
M  END
$$$$
