YVG.pdb
     RDKit          3D

 24 24  0  0  1  0  0  0  0  0999 V2000
   10.6882  -14.5114   30.8486 O   0  0  0  0  0  0  0  0  0  0  0  0
   10.4359  -14.8875   29.5218 C   0  0  0  0  0  0  0  0  0  0  0  0
   10.0616  -13.9176   28.6406 C   0  0  0  0  0  0  0  0  0  0  0  0
    9.8082  -14.2858   27.3151 C   0  0  0  0  0  0  0  0  0  0  0  0
    9.9344  -15.5926   26.9146 C   0  0  0  0  0  0  0  0  0  0  0  0
    9.6627  -15.9527   25.5179 C   0  0  0  0  0  0  0  0  0  0  0  0
    8.1719  -16.0060   25.2147 C   0  0  2  0  0  0  0  0  0  0  0  0
    7.5562  -17.1542   25.8733 N   0  0  0  0  0  0  0  0  0  0  0  0
    8.0528  -16.1328   23.7323 C   0  0  0  0  0  0  0  0  0  0  0  0
    7.7503  -17.2543   23.2672 O   0  0  0  0  0  0  0  0  0  0  0  0
   10.3135  -16.5408   27.8315 C   0  0  0  0  0  0  0  0  0  0  0  0
   10.5692  -16.2029   29.1456 C   0  0  0  0  0  0  0  0  0  0  0  0
    6.2665  -13.4398   21.5365 C   0  0  0  0  0  0  0  0  0  0  0  0
    7.5460  -13.8488   20.8559 C   0  0  2  0  0  0  0  0  0  0  0  0
    7.3880  -14.0030   19.3711 C   0  0  0  0  0  0  0  0  0  0  0  0
    8.1395  -15.0989   21.4558 C   0  0  2  0  0  0  0  0  0  0  0  0
    8.2782  -15.0090   22.8891 N   0  0  0  0  0  0  0  0  0  0  0  0
    9.4327  -15.4480   20.8144 C   0  0  0  0  0  0  0  0  0  0  0  0
   10.4267  -14.7270   21.0882 O   0  0  0  0  0  0  0  0  0  0  0  0
    9.5816  -16.5383   19.9269 N   0  0  0  0  0  0  0  0  0  0  0  0
   10.8651  -16.7497   19.2910 C   0  0  0  0  0  0  0  0  0  0  0  0
   11.5131  -17.9326   19.8757 C   0  0  0  0  0  0  0  0  0  0  0  0
   11.8617  -17.9214   21.0705 O   0  0  0  0  0  0  0  0  0  0  0  0
   11.7341  -19.0481   19.1072 O   0  0  0  0  0  0  0  0  0  0  0  0
  2  1  1  0
  3  2  2  0
  4  3  1  0
  5  4  2  0
  5 11  1  0
  6  5  1  0
  7  8  1  1
  7  6  1  0
  9  7  1  0
 10  9  2  0
 11 12  2  0
 12  2  1  0
 14 13  1  1
 14 15  1  0
 16 17  1  1
 16 14  1  0
 17  9  1  0
 18 16  1  0
 19 18  2  0
 20 18  1  0
 21 20  1  0
 22 24  1  0
 22 21  1  0
 23 22  2  0
M  END
$$$$
