YVG.pdb
     RDKit          3D

 24 24  0  0  1  0  0  0  0  0999 V2000
   10.5026  -14.4228   30.6671 O   0  0  0  0  0  0  0  0  0  0  0  0
   10.1348  -14.6331   29.3306 C   0  0  0  0  0  0  0  0  0  0  0  0
   10.3550  -15.8651   28.7913 C   0  0  0  0  0  0  0  0  0  0  0  0
    9.9905  -16.0819   27.4583 C   0  0  0  0  0  0  0  0  0  0  0  0
    9.4249  -15.0767   26.7142 C   0  0  0  0  0  0  0  0  0  0  0  0
    9.0514  -15.3301   25.3176 C   0  0  0  0  0  0  0  0  0  0  0  0
    7.5453  -15.4573   25.1366 C   0  0  2  0  0  0  0  0  0  0  0  0
    7.0335  -16.5980   25.8903 N   0  0  0  0  0  0  0  0  0  0  0  0
    7.3170  -15.6568   23.6751 C   0  0  0  0  0  0  0  0  0  0  0  0
    6.6872  -16.6776   23.3190 O   0  0  0  0  0  0  0  0  0  0  0  0
    9.2190  -13.8493   27.2929 C   0  0  0  0  0  0  0  0  0  0  0  0
    9.5701  -13.6101   28.6065 C   0  0  0  0  0  0  0  0  0  0  0  0
    7.2744  -13.6605   19.1297 C   0  0  0  0  0  0  0  0  0  0  0  0
    7.4836  -13.5139   20.6138 C   0  0  2  0  0  0  0  0  0  0  0  0
    8.6938  -12.6916   20.9493 C   0  0  0  0  0  0  0  0  0  0  0  0
    7.5393  -14.8462   21.3187 C   0  0  2  0  0  0  0  0  0  0  0  0
    7.8045  -14.7107   22.7305 N   0  0  0  0  0  0  0  0  0  0  0  0
    8.5179  -15.7601   20.6763 C   0  0  0  0  0  0  0  0  0  0  0  0
    8.2910  -16.1072   19.4885 O   0  0  0  0  0  0  0  0  0  0  0  0
    9.6698  -16.2424   21.3390 N   0  0  0  0  0  0  0  0  0  0  0  0
   10.5282  -17.1832   20.6501 C   0  0  0  0  0  0  0  0  0  0  0  0
   11.6327  -16.4581   20.0054 C   0  0  0  0  0  0  0  0  0  0  0  0
   11.5207  -16.0806   18.8248 O   0  0  0  0  0  0  0  0  0  0  0  0
   12.7857  -16.1971   20.7027 O   0  0  0  0  0  0  0  0  0  0  0  0
  2  1  1  0
  3  2  2  0
  4  3  1  0
  5  4  2  0
  5 11  1  0
  6  5  1  0
  7  8  1  1
  7  6  1  0
  9  7  1  0
 10  9  2  0
 11 12  2  0
 12  2  1  0
 14 13  1  6
 14 15  1  0
 16 17  1  1
 16 14  1  0
 17  9  1  0
 18 16  1  0
 19 18  2  0
 20 18  1  0
 21 20  1  0
 22 24  1  0
 22 21  1  0
 23 22  2  0
M  END
$$$$
