YVG.pdb
     RDKit          3D

 24 24  0  0  1  0  0  0  0  0999 V2000
    9.5757  -21.4228   30.7874 O   0  0  0  0  0  0  0  0  0  0  0  0
    9.2626  -20.6292   29.6748 C   0  0  0  0  0  0  0  0  0  0  0  0
    9.1913  -21.2341   28.4556 C   0  0  0  0  0  0  0  0  0  0  0  0
    8.8794  -20.4484   27.3411 C   0  0  0  0  0  0  0  0  0  0  0  0
    8.6512  -19.1015   27.4751 C   0  0  0  0  0  0  0  0  0  0  0  0
    8.3257  -18.2995   26.2898 C   0  0  0  0  0  0  0  0  0  0  0  0
    6.8303  -18.0484   26.1553 C   0  0  2  0  0  0  0  0  0  0  0  0
    6.1779  -19.1792   25.5020 N   0  0  0  0  0  0  0  0  0  0  0  0
    6.6881  -16.8167   25.3244 C   0  0  0  0  0  0  0  0  0  0  0  0
    6.5284  -16.9620   24.0919 O   0  0  0  0  0  0  0  0  0  0  0  0
    8.7323  -18.5287   28.7197 C   0  0  0  0  0  0  0  0  0  0  0  0
    9.0385  -19.2825   29.8352 C   0  0  0  0  0  0  0  0  0  0  0  0
    6.6360  -11.8493   25.0284 C   0  0  0  0  0  0  0  0  0  0  0  0
    6.4992  -13.0871   25.8749 C   0  0  2  0  0  0  0  0  0  0  0  0
    7.2224  -12.9749   27.1855 C   0  0  0  0  0  0  0  0  0  0  0  0
    6.9280  -14.3331   25.1410 C   0  0  2  0  0  0  0  0  0  0  0  0
    6.7344  -15.5280   25.9262 N   0  0  0  0  0  0  0  0  0  0  0  0
    8.3309  -14.2276   24.6653 C   0  0  0  0  0  0  0  0  0  0  0  0
    9.1971  -13.8553   25.4983 O   0  0  0  0  0  0  0  0  0  0  0  0
    8.7175  -14.5245   23.3383 N   0  0  0  0  0  0  0  0  0  0  0  0
   10.0969  -14.3159   22.9504 C   0  0  0  0  0  0  0  0  0  0  0  0
   10.2640  -14.6575   21.5303 C   0  0  0  0  0  0  0  0  0  0  0  0
    9.3560  -15.2569   20.9259 O   0  0  0  0  0  0  0  0  0  0  0  0
   11.4184  -14.3169   20.8707 O   0  0  0  0  0  0  0  0  0  0  0  0
  2  1  1  0
  3  2  2  0
  4  3  1  0
  5  4  2  0
  5 11  1  0
  6  5  1  0
  7  8  1  6
  7  6  1  0
  9  7  1  0
 10  9  2  0
 11 12  2  0
 12  2  1  0
 14 13  1  6
 14 15  1  0
 16 17  1  1
 16 14  1  0
 17  9  1  0
 18 16  1  0
 19 18  2  0
 20 18  1  0
 21 20  1  0
 22 24  1  0
 22 21  1  0
 23 22  2  0
M  END
$$$$
