YVG.pdb
     RDKit          3D

 24 24  0  0  1  0  0  0  0  0999 V2000
   10.4935  -14.1978   30.7887 O   0  0  0  0  0  0  0  0  0  0  0  0
   10.2259  -14.6252   29.4806 C   0  0  0  0  0  0  0  0  0  0  0  0
    9.7306  -13.7135   28.5970 C   0  0  0  0  0  0  0  0  0  0  0  0
    9.4612  -14.1330   27.2900 C   0  0  0  0  0  0  0  0  0  0  0  0
    9.6911  -15.4317   26.9096 C   0  0  0  0  0  0  0  0  0  0  0  0
    9.4000  -15.8464   25.5321 C   0  0  0  0  0  0  0  0  0  0  0  0
    7.9181  -16.1154   25.3109 C   0  0  2  0  0  0  0  0  0  0  0  0
    7.5105  -17.3354   26.0013 N   0  0  0  0  0  0  0  0  0  0  0  0
    7.7383  -16.2687   23.8371 C   0  0  0  0  0  0  0  0  0  0  0  0
    7.8038  -17.4237   23.3604 O   0  0  0  0  0  0  0  0  0  0  0  0
   10.1906  -16.3206   27.8283 C   0  0  0  0  0  0  0  0  0  0  0  0
   10.4646  -15.9312   29.1243 C   0  0  0  0  0  0  0  0  0  0  0  0
    7.2378  -14.0159   19.4065 C   0  0  0  0  0  0  0  0  0  0  0  0
    7.2457  -13.9019   20.9081 C   0  0  2  0  0  0  0  0  0  0  0  0
    8.1149  -12.7808   21.3989 C   0  0  0  0  0  0  0  0  0  0  0  0
    7.6277  -15.1977   21.5788 C   0  0  2  0  0  0  0  0  0  0  0  0
    7.5012  -15.1320   23.0146 N   0  0  0  0  0  0  0  0  0  0  0  0
    8.9907  -15.6337   21.1817 C   0  0  0  0  0  0  0  0  0  0  0  0
    9.9648  -15.0560   21.7298 O   0  0  0  0  0  0  0  0  0  0  0  0
    9.2257  -16.6527   20.2304 N   0  0  0  0  0  0  0  0  0  0  0  0
   10.5920  -17.0341   19.9400 C   0  0  0  0  0  0  0  0  0  0  0  0
   10.7305  -17.3045   18.5016 C   0  0  0  0  0  0  0  0  0  0  0  0
    9.7543  -17.7231   17.8528 O   0  0  0  0  0  0  0  0  0  0  0  0
   11.9331  -17.0963   17.8738 O   0  0  0  0  0  0  0  0  0  0  0  0
  2  1  1  0
  3  2  2  0
  4  3  1  0
  5  4  2  0
  5 11  1  0
  6  5  1  0
  7  8  1  1
  7  6  1  0
  9  7  1  0
 10  9  2  0
 11 12  2  0
 12  2  1  0
 14 13  1  6
 14 15  1  0
 16 17  1  1
 16 14  1  0
 17  9  1  0
 18 16  1  0
 19 18  2  0
 20 18  1  0
 21 20  1  0
 22 24  1  0
 22 21  1  0
 23 22  2  0
M  END
$$$$
