YVG.pdb
     RDKit          3D

 24 24  0  0  1  0  0  0  0  0999 V2000
   10.0604  -14.3118   30.5917 O   0  0  0  0  0  0  0  0  0  0  0  0
    9.8838  -14.5515   29.2217 C   0  0  0  0  0  0  0  0  0  0  0  0
   10.3996  -15.7001   28.7000 C   0  0  0  0  0  0  0  0  0  0  0  0
   10.2271  -15.9457   27.3338 C   0  0  0  0  0  0  0  0  0  0  0  0
    9.5544  -15.0501   26.5404 C   0  0  0  0  0  0  0  0  0  0  0  0
    9.3872  -15.3316   25.1096 C   0  0  0  0  0  0  0  0  0  0  0  0
    7.9631  -15.7444   24.7649 C   0  0  2  0  0  0  0  0  0  0  0  0
    7.6245  -17.0071   25.4146 N   0  0  0  0  0  0  0  0  0  0  0  0
    7.9217  -15.8973   23.2807 C   0  0  0  0  0  0  0  0  0  0  0  0
    8.0303  -17.0523   22.8119 O   0  0  0  0  0  0  0  0  0  0  0  0
    9.0493  -13.9045   27.1026 C   0  0  0  0  0  0  0  0  0  0  0  0
    9.2063  -13.6391   28.4484 C   0  0  0  0  0  0  0  0  0  0  0  0
    7.2640  -13.7656   18.8231 C   0  0  0  0  0  0  0  0  0  0  0  0
    7.3935  -13.5949   20.3137 C   0  0  2  0  0  0  0  0  0  0  0  0
    8.3138  -12.4701   20.6896 C   0  0  0  0  0  0  0  0  0  0  0  0
    7.8110  -14.8703   21.0021 C   0  0  2  0  0  0  0  0  0  0  0  0
    7.7637  -14.7602   22.4399 N   0  0  0  0  0  0  0  0  0  0  0  0
    9.1498  -15.3216   20.5443 C   0  0  0  0  0  0  0  0  0  0  0  0
   10.1495  -14.9101   21.1878 O   0  0  0  0  0  0  0  0  0  0  0  0
    9.3351  -16.1783   19.4351 N   0  0  0  0  0  0  0  0  0  0  0  0
   10.6703  -16.6503   19.1337 C   0  0  0  0  0  0  0  0  0  0  0  0
   10.6416  -17.4471   17.8986 C   0  0  0  0  0  0  0  0  0  0  0  0
    9.7569  -18.3073   17.7363 O   0  0  0  0  0  0  0  0  0  0  0  0
   11.5879  -17.2442   16.9253 O   0  0  0  0  0  0  0  0  0  0  0  0
  2  1  1  0
  3  2  2  0
  4  3  1  0
  5  4  2  0
  5 11  1  0
  6  5  1  0
  7  8  1  1
  7  6  1  0
  9  7  1  0
 10  9  2  0
 11 12  2  0
 12  2  1  0
 14 13  1  6
 14 15  1  0
 16 17  1  1
 16 14  1  0
 17  9  1  0
 18 16  1  0
 19 18  2  0
 20 18  1  0
 21 20  1  0
 22 24  1  0
 22 21  1  0
 23 22  2  0
M  END
$$$$
