YVG.pdb
     RDKit          3D

 24 24  0  0  1  0  0  0  0  0999 V2000
   11.6794  -16.1528   32.6894 O   0  0  0  0  0  0  0  0  0  0  0  0
   11.2764  -16.2602   31.3510 C   0  0  0  0  0  0  0  0  0  0  0  0
   11.5294  -17.4288   30.6971 C   0  0  0  0  0  0  0  0  0  0  0  0
   11.1300  -17.5430   29.3613 C   0  0  0  0  0  0  0  0  0  0  0  0
   10.4990  -16.5019   28.7273 C   0  0  0  0  0  0  0  0  0  0  0  0
   10.0900  -16.6473   27.3252 C   0  0  0  0  0  0  0  0  0  0  0  0
    8.6165  -17.0039   27.1873 C   0  0  2  0  0  0  0  0  0  0  0  0
    8.4441  -18.4520   27.1212 N   0  0  0  0  0  0  0  0  0  0  0  0
    8.1511  -16.3677   25.9199 C   0  0  0  0  0  0  0  0  0  0  0  0
    8.0527  -17.0947   24.9064 O   0  0  0  0  0  0  0  0  0  0  0  0
   10.2617  -15.3408   29.4195 C   0  0  0  0  0  0  0  0  0  0  0  0
   10.6461  -15.2033   30.7384 C   0  0  0  0  0  0  0  0  0  0  0  0
    7.8528  -11.9721   25.2283 C   0  0  0  0  0  0  0  0  0  0  0  0
    6.7680  -12.9782   24.9480 C   0  0  2  0  0  0  0  0  0  0  0  0
    5.7295  -13.0263   26.0309 C   0  0  0  0  0  0  0  0  0  0  0  0
    7.3197  -14.3570   24.6849 C   0  0  2  0  0  0  0  0  0  0  0  0
    7.8336  -14.9811   25.8800 N   0  0  0  0  0  0  0  0  0  0  0  0
    8.3442  -14.3361   23.6099 C   0  0  0  0  0  0  0  0  0  0  0  0
    9.4561  -13.8138   23.8815 O   0  0  0  0  0  0  0  0  0  0  0  0
    8.1178  -14.8709   22.3210 N   0  0  0  0  0  0  0  0  0  0  0  0
    9.1896  -14.8249   21.3486 C   0  0  0  0  0  0  0  0  0  0  0  0
    8.7872  -15.5590   20.1401 C   0  0  0  0  0  0  0  0  0  0  0  0
    9.3087  -15.2824   19.0444 O   0  0  0  0  0  0  0  0  0  0  0  0
    7.8384  -16.5477   20.2182 O   0  0  0  0  0  0  0  0  0  0  0  0
  2  1  1  0
  3  2  2  0
  4  3  1  0
  5  4  2  0
  5 11  1  0
  6  5  1  0
  7  8  1  6
  7  6  1  0
  9  7  1  0
 10  9  2  0
 11 12  2  0
 12  2  1  0
 14 13  1  1
 14 15  1  0
 16 17  1  1
 16 14  1  0
 17  9  1  0
 18 16  1  0
 19 18  2  0
 20 18  1  0
 21 20  1  0
 22 24  1  0
 22 21  1  0
 23 22  2  0
M  END
$$$$
