YVG.pdb
     RDKit          3D

 24 24  0  0  1  0  0  0  0  0999 V2000
    5.7573  -10.4065   27.8333 O   0  0  0  0  0  0  0  0  0  0  0  0
    6.2688  -11.5577   27.2179 C   0  0  0  0  0  0  0  0  0  0  0  0
    7.2997  -12.2070   27.8287 C   0  0  0  0  0  0  0  0  0  0  0  0
    7.8150  -13.3563   27.2202 C   0  0  0  0  0  0  0  0  0  0  0  0
    7.2932  -13.8166   26.0370 C   0  0  0  0  0  0  0  0  0  0  0  0
    7.8519  -15.0250   25.4192 C   0  0  0  0  0  0  0  0  0  0  0  0
    6.7769  -15.9064   24.7988 C   0  0  2  0  0  0  0  0  0  0  0  0
    6.4770  -17.0384   25.6703 N   0  0  0  0  0  0  0  0  0  0  0  0
    7.3308  -16.3855   23.4982 C   0  0  0  0  0  0  0  0  0  0  0  0
    7.3124  -17.6168   23.2767 O   0  0  0  0  0  0  0  0  0  0  0  0
    6.2550  -13.1352   25.4524 C   0  0  0  0  0  0  0  0  0  0  0  0
    5.7289  -11.9984   26.0330 C   0  0  0  0  0  0  0  0  0  0  0  0
    9.0072  -13.5750   20.6226 C   0  0  0  0  0  0  0  0  0  0  0  0
    8.0386  -14.6628   20.2405 C   0  0  2  0  0  0  0  0  0  0  0  0
    6.6282  -14.1642   20.1152 C   0  0  0  0  0  0  0  0  0  0  0  0
    8.0999  -15.8406   21.1807 C   0  0  2  0  0  0  0  0  0  0  0  0
    7.8583  -15.4627   22.5521 N   0  0  0  0  0  0  0  0  0  0  0  0
    9.3830  -16.5762   21.0470 C   0  0  0  0  0  0  0  0  0  0  0  0
    9.6585  -17.0570   19.9175 O   0  0  0  0  0  0  0  0  0  0  0  0
   10.2853  -16.7506   22.1213 N   0  0  0  0  0  0  0  0  0  0  0  0
   11.4877  -17.5272   21.9032 C   0  0  0  0  0  0  0  0  0  0  0  0
   12.5278  -16.6674   21.3200 C   0  0  0  0  0  0  0  0  0  0  0  0
   12.7148  -16.6684   20.0895 O   0  0  0  0  0  0  0  0  0  0  0  0
   13.2921  -15.8646   22.1293 O   0  0  0  0  0  0  0  0  0  0  0  0
  2  1  1  0
  3  2  2  0
  4  3  1  0
  5  4  2  0
  5 11  1  0
  6  5  1  0
  7  8  1  1
  7  6  1  0
  9  7  1  0
 10  9  2  0
 11 12  2  0
 12  2  1  0
 14 13  1  1
 14 15  1  0
 16 17  1  1
 16 14  1  0
 17  9  1  0
 18 16  1  0
 19 18  2  0
 20 18  1  0
 21 20  1  0
 22 24  1  0
 22 21  1  0
 23 22  2  0
M  END
$$$$
