ATQ.pdb
     RDKit          3D

 22 21  0  0  1  0  0  0  0  0999 V2000
    5.5027  -19.6143   20.4206 C   0  0  0  0  0  0  0  0  0  0  0  0
    5.8940  -18.3918   19.6358 C   0  0  2  0  0  0  0  0  0  0  0  0
    6.4347  -18.8180   18.3652 N   0  0  0  0  0  0  0  0  0  0  0  0
    6.8668  -17.5917   20.4147 C   0  0  0  0  0  0  0  0  0  0  0  0
    8.0510  -18.0133   20.5126 O   0  0  0  0  0  0  0  0  0  0  0  0
    7.8714  -13.0662   22.1271 C   0  0  0  0  0  0  0  0  0  0  0  0
    7.1062  -14.1171   21.3905 C   0  0  1  0  0  0  0  0  0  0  0  0
    7.4133  -13.9138   20.0194 O   0  0  0  0  0  0  0  0  0  0  0  0
    7.5053  -15.5445   21.7752 C   0  0  2  0  0  0  0  0  0  0  0  0
    6.5390  -16.3801   21.0550 N   0  0  0  0  0  0  0  0  0  0  0  0
    7.3191  -15.6940   23.2351 C   0  0  0  0  0  0  0  0  0  0  0  0
    6.1387  -15.8864   23.6535 O   0  0  0  0  0  0  0  0  0  0  0  0
    6.6351  -19.4750   27.6992 N   0  0  0  0  0  0  0  0  0  0  0  0
    7.1808  -19.5263   26.4118 C   0  0  0  0  0  0  0  0  0  0  0  0
    6.5461  -20.0953   25.4996 O   0  0  0  0  0  0  0  0  0  0  0  0
    8.5012  -18.9347   26.0404 C   0  0  0  0  0  0  0  0  0  0  0  0
    8.3879  -18.0086   24.8700 C   0  0  0  0  0  0  0  0  0  0  0  0
    8.4594  -16.5960   25.2950 C   0  0  2  0  0  0  0  0  0  0  0  0
    8.3229  -15.6472   24.2066 N   0  0  0  0  0  0  0  0  0  0  0  0
    9.5968  -16.3135   26.1614 C   0  0  0  0  0  0  0  0  0  0  0  0
    9.6612  -16.3374   27.5330 O   0  0  0  0  0  0  0  0  0  0  0  0
   10.7023  -15.9945   25.5938 O   0  0  0  0  0  0  0  0  0  0  0  0
  2  1  1  1
  2  3  1  0
  4  2  1  0
  4 10  1  0
  5  4  2  0
  7  9  1  0
  7  6  1  1
  8  7  1  0
  9 10  1  6
  9 11  1  0
 11 19  1  0
 12 11  2  0
 14 13  1  0
 14 16  1  0
 15 14  2  0
 17 16  1  0
 18 20  1  0
 18 17  1  6
 19 18  1  0
 20 21  1  0
 22 20  2  0
M  END
$$$$
