ATQ.pdb
     RDKit          3D

 22 21  0  0  1  0  0  0  0  0999 V2000
    7.9160  -18.8609   16.7107 C   0  0  0  0  0  0  0  0  0  0  0  0
    8.3719  -17.5829   16.0607 C   0  0  2  0  0  0  0  0  0  0  0  0
    9.3458  -17.9094   15.0442 N   0  0  0  0  0  0  0  0  0  0  0  0
    8.9245  -16.6720   17.0892 C   0  0  0  0  0  0  0  0  0  0  0  0
   10.1589  -16.7266   17.3406 O   0  0  0  0  0  0  0  0  0  0  0  0
    7.9502  -12.6237   19.8423 C   0  0  0  0  0  0  0  0  0  0  0  0
    7.6414  -13.6851   18.8371 C   0  0  1  0  0  0  0  0  0  0  0  0
    7.6391  -13.0236   17.5810 O   0  0  0  0  0  0  0  0  0  0  0  0
    8.6814  -14.8083   18.7972 C   0  0  2  0  0  0  0  0  0  0  0  0
    8.1423  -15.7440   17.8050 N   0  0  0  0  0  0  0  0  0  0  0  0
    8.7178  -15.4460   20.1314 C   0  0  0  0  0  0  0  0  0  0  0  0
    7.7595  -16.2186   20.4324 O   0  0  0  0  0  0  0  0  0  0  0  0
   11.0247  -20.2432   20.7180 N   0  0  0  0  0  0  0  0  0  0  0  0
   11.0040  -19.9383   22.0834 C   0  0  0  0  0  0  0  0  0  0  0  0
   11.2834  -20.8275   22.9139 O   0  0  0  0  0  0  0  0  0  0  0  0
   10.6633  -18.5918   22.6333 C   0  0  0  0  0  0  0  0  0  0  0  0
   10.3265  -17.6158   21.5498 C   0  0  0  0  0  0  0  0  0  0  0  0
   10.0544  -16.2735   22.1026 C   0  0  2  0  0  0  0  0  0  0  0  0
    9.7124  -15.2832   21.0998 N   0  0  0  0  0  0  0  0  0  0  0  0
   11.0795  -15.8165   23.0324 C   0  0  0  0  0  0  0  0  0  0  0  0
   11.2164  -16.0981   24.3695 O   0  0  0  0  0  0  0  0  0  0  0  0
   11.9911  -15.0427   22.5672 O   0  0  0  0  0  0  0  0  0  0  0  0
  2  1  1  1
  2  3  1  0
  4  2  1  0
  4 10  1  0
  5  4  2  0
  7  9  1  0
  7  6  1  1
  8  7  1  0
  9 10  1  6
  9 11  1  0
 11 19  1  0
 12 11  2  0
 14 13  1  0
 14 16  1  0
 15 14  2  0
 17 16  1  0
 18 20  1  0
 18 17  1  6
 19 18  1  0
 20 21  1  0
 22 20  2  0
M  END
$$$$
