ATQ.pdb
     RDKit          3D

 22 21  0  0  1  0  0  0  0  0999 V2000
    6.4742  -18.3812   18.2001 C   0  0  0  0  0  0  0  0  0  0  0  0
    6.9845  -17.1267   17.5448 C   0  0  2  0  0  0  0  0  0  0  0  0
    7.4727  -17.4653   16.2274 N   0  0  0  0  0  0  0  0  0  0  0  0
    8.0377  -16.5181   18.3894 C   0  0  0  0  0  0  0  0  0  0  0  0
    9.2394  -16.8316   18.1717 O   0  0  0  0  0  0  0  0  0  0  0  0
    7.5416  -12.7997   19.6397 C   0  0  0  0  0  0  0  0  0  0  0  0
    8.0941  -13.6641   20.7258 C   0  0  1  0  0  0  0  0  0  0  0  0
    6.9704  -14.0649   21.4953 O   0  0  0  0  0  0  0  0  0  0  0  0
    8.8040  -14.9175   20.2062 C   0  0  2  0  0  0  0  0  0  0  0  0
    7.7683  -15.6041   19.4275 N   0  0  0  0  0  0  0  0  0  0  0  0
    9.1931  -15.7398   21.3726 C   0  0  0  0  0  0  0  0  0  0  0  0
    8.2847  -16.4269   21.9280 O   0  0  0  0  0  0  0  0  0  0  0  0
   11.8767  -20.7308   21.9579 N   0  0  0  0  0  0  0  0  0  0  0  0
   10.5846  -20.4107   22.3889 C   0  0  0  0  0  0  0  0  0  0  0  0
    9.7137  -21.3042   22.4303 O   0  0  0  0  0  0  0  0  0  0  0  0
   10.1611  -19.0427   22.8139 C   0  0  0  0  0  0  0  0  0  0  0  0
   11.2639  -18.0432   22.6562 C   0  0  0  0  0  0  0  0  0  0  0  0
   10.8210  -16.6896   23.0473 C   0  0  2  0  0  0  0  0  0  0  0  0
   10.4728  -15.8384   21.9259 N   0  0  0  0  0  0  0  0  0  0  0  0
   11.7167  -16.0447   23.9992 C   0  0  0  0  0  0  0  0  0  0  0  0
   11.9447  -16.3596   25.3164 O   0  0  0  0  0  0  0  0  0  0  0  0
   12.3972  -15.0417   23.5783 O   0  0  0  0  0  0  0  0  0  0  0  0
  2  1  1  1
  2  3  1  0
  4  2  1  0
  4 10  1  0
  5  4  2  0
  7  9  1  0
  7  6  1  6
  8  7  1  0
  9 10  1  6
  9 11  1  0
 11 19  1  0
 12 11  2  0
 14 13  1  0
 14 16  1  0
 15 14  2  0
 17 16  1  0
 18 20  1  0
 18 17  1  6
 19 18  1  0
 20 21  1  0
 22 20  2  0
M  END
$$$$
