ATQ.pdb
     RDKit          3D

 22 21  0  0  1  0  0  0  0  0999 V2000
    9.1946  -12.0864   19.2050 C   0  0  0  0  0  0  0  0  0  0  0  0
    8.6800  -13.4340   18.7777 C   0  0  2  0  0  0  0  0  0  0  0  0
    7.6416  -13.2353   17.7925 N   0  0  0  0  0  0  0  0  0  0  0  0
    8.1899  -14.1769   19.9613 C   0  0  0  0  0  0  0  0  0  0  0  0
    7.0364  -13.9173   20.3993 O   0  0  0  0  0  0  0  0  0  0  0  0
    7.3833  -17.5455   20.2160 C   0  0  0  0  0  0  0  0  0  0  0  0
    8.3885  -17.3497   21.3039 C   0  0  1  0  0  0  0  0  0  0  0  0
    9.6369  -17.7087   20.7310 O   0  0  0  0  0  0  0  0  0  0  0  0
    8.4754  -15.9041   21.8011 C   0  0  2  0  0  0  0  0  0  0  0  0
    8.9460  -15.1620   20.6271 N   0  0  0  0  0  0  0  0  0  0  0  0
    9.4889  -15.8503   22.8774 C   0  0  0  0  0  0  0  0  0  0  0  0
   10.6922  -15.6528   22.5329 O   0  0  0  0  0  0  0  0  0  0  0  0
    9.5681  -13.1019   28.4713 N   0  0  0  0  0  0  0  0  0  0  0  0
   10.1968  -14.3289   28.7101 C   0  0  0  0  0  0  0  0  0  0  0  0
   10.5975  -14.5982   29.8614 O   0  0  0  0  0  0  0  0  0  0  0  0
   10.4290  -15.3664   27.6607 C   0  0  0  0  0  0  0  0  0  0  0  0
   10.0070  -14.8926   26.3051 C   0  0  0  0  0  0  0  0  0  0  0  0
   10.2721  -15.9153   25.2730 C   0  0  2  0  0  0  0  0  0  0  0  0
    9.2500  -15.9935   24.2470 N   0  0  0  0  0  0  0  0  0  0  0  0
   10.6252  -17.2152   25.8297 C   0  0  0  0  0  0  0  0  0  0  0  0
    9.8491  -18.3424   25.9440 O   0  0  0  0  0  0  0  0  0  0  0  0
   11.8168  -17.3551   26.2843 O   0  0  0  0  0  0  0  0  0  0  0  0
  2  1  1  1
  2  3  1  0
  4  2  1  0
  4 10  1  0
  5  4  2  0
  7  9  1  0
  7  6  1  6
  8  7  1  0
  9 10  1  6
  9 11  1  0
 11 19  1  0
 12 11  2  0
 14 13  1  0
 14 16  1  0
 15 14  2  0
 17 16  1  0
 18 20  1  0
 18 17  1  1
 19 18  1  0
 20 21  1  0
 22 20  2  0
M  END
$$$$
