ILQ.pdb
     RDKit          3D

 26 25  0  0  1  0  0  0  0  0999 V2000
   21.0950  -20.8340  -14.5455 C   0  0  0  0  0  0  0  0  0  0  0  0
   21.4141  -20.0242  -15.7878 C   0  0  0  0  0  0  0  0  0  0  0  0
   21.6604  -18.5945  -15.3463 C   0  0  2  0  0  0  0  0  0  0  0  0
   20.4620  -18.1486  -14.5568 C   0  0  0  0  0  0  0  0  0  0  0  0
   21.8816  -17.7802  -16.6024 C   0  0  2  0  0  0  0  0  0  0  0  0
   22.8165  -18.5216  -17.4266 N   0  0  0  0  0  0  0  0  0  0  0  0
   22.4250  -16.4324  -16.2972 C   0  0  0  0  0  0  0  0  0  0  0  0
   21.8285  -15.6623  -15.5237 O   0  0  0  0  0  0  0  0  0  0  0  0
   26.5075  -15.0434  -14.7421 C   0  0  0  0  0  0  0  0  0  0  0  0
   26.6114  -15.4263  -16.2198 C   0  0  2  0  0  0  0  0  0  0  0  0
   28.0021  -15.5430  -16.7177 C   0  0  0  0  0  0  0  0  0  0  0  0
   25.6158  -14.7526  -17.0650 C   0  0  0  0  0  0  0  0  0  0  0  0
   24.2053  -14.6573  -16.6618 C   0  0  2  0  0  0  0  0  0  0  0  0
   23.6362  -16.0120  -16.8900 N   0  0  0  0  0  0  0  0  0  0  0  0
   23.3249  -13.6513  -17.1944 C   0  0  0  0  0  0  0  0  0  0  0  0
   22.8250  -13.8724  -18.3596 O   0  0  0  0  0  0  0  0  0  0  0  0
   18.1375  -12.4520  -15.8065 N   0  0  0  0  0  0  0  0  0  0  0  0
   18.1915  -11.4154  -16.7763 C   0  0  0  0  0  0  0  0  0  0  0  0
   17.1381  -10.8229  -17.1146 O   0  0  0  0  0  0  0  0  0  0  0  0
   19.5220  -11.0378  -17.3905 C   0  0  0  0  0  0  0  0  0  0  0  0
   20.5766  -11.8990  -16.7992 C   0  0  0  0  0  0  0  0  0  0  0  0
   21.9679  -11.5430  -17.3146 C   0  0  2  0  0  0  0  0  0  0  0  0
   22.9131  -12.4328  -16.6086 N   0  0  0  0  0  0  0  0  0  0  0  0
   22.2948  -10.1608  -16.9810 C   0  0  0  0  0  0  0  0  0  0  0  0
   23.1780   -9.8326  -16.1333 O   0  0  0  0  0  0  0  0  0  0  0  0
   21.6418   -9.1147  -17.5890 O   0  0  0  0  0  0  0  0  0  0  0  0
  2  1  1  0
  3  2  1  0
  3  5  1  0
  3  4  1  6
  5  6  1  6
  7  5  1  0
  7  8  2  0
 10  9  1  1
 10 11  1  0
 10 12  1  0
 13 14  1  0
 13 12  1  6
 14  7  1  0
 15 13  1  0
 16 15  2  0
 17 18  1  0
 18 19  2  0
 20 18  1  0
 20 21  1  0
 22 21  1  1
 22 23  1  0
 23 15  1  0
 24 26  1  0
 24 22  1  0
 25 24  2  0
M  END
$$$$
