ILQ.pdb
     RDKit          3D

 26 25  0  0  1  0  0  0  0  0999 V2000
   15.1875  -21.6694    3.9271 C   0  0  0  0  0  0  0  0  0  0  0  0
   16.1860  -20.7928    3.1954 C   0  0  0  0  0  0  0  0  0  0  0  0
   15.4016  -19.7030    2.4906 C   0  0  2  0  0  0  0  0  0  0  0  0
   14.4719  -20.3687    1.5157 C   0  0  0  0  0  0  0  0  0  0  0  0
   16.4134  -18.7967    1.8237 C   0  0  2  0  0  0  0  0  0  0  0  0
   17.2714  -19.6435    1.0174 N   0  0  0  0  0  0  0  0  0  0  0  0
   17.2221  -18.0471    2.8182 C   0  0  0  0  0  0  0  0  0  0  0  0
   18.3746  -18.4120    3.1111 O   0  0  0  0  0  0  0  0  0  0  0  0
   18.2009  -13.4239    5.6980 C   0  0  0  0  0  0  0  0  0  0  0  0
   18.4670  -13.6837    4.2139 C   0  0  2  0  0  0  0  0  0  0  0  0
   18.6605  -12.4541    3.4101 C   0  0  0  0  0  0  0  0  0  0  0  0
   17.6426  -14.7655    3.6575 C   0  0  0  0  0  0  0  0  0  0  0  0
   17.4795  -16.0457    4.3615 C   0  0  2  0  0  0  0  0  0  0  0  0
   16.6814  -16.9024    3.4447 N   0  0  0  0  0  0  0  0  0  0  0  0
   16.9518  -16.1206    5.6981 C   0  0  0  0  0  0  0  0  0  0  0  0
   15.6846  -15.9423    5.8350 O   0  0  0  0  0  0  0  0  0  0  0  0
   16.6744  -20.2344    9.7194 N   0  0  0  0  0  0  0  0  0  0  0  0
   17.9761  -19.6672    9.6771 C   0  0  0  0  0  0  0  0  0  0  0  0
   18.9562  -20.3234   10.1062 O   0  0  0  0  0  0  0  0  0  0  0  0
   18.1648  -18.2754    9.1137 C   0  0  0  0  0  0  0  0  0  0  0  0
   16.8372  -17.7419    8.7184 C   0  0  0  0  0  0  0  0  0  0  0  0
   16.9224  -16.3090    8.2011 C   0  0  2  0  0  0  0  0  0  0  0  0
   17.6355  -16.3753    6.9086 N   0  0  0  0  0  0  0  0  0  0  0  0
   17.7004  -15.4832    9.1183 C   0  0  0  0  0  0  0  0  0  0  0  0
   18.8376  -15.0000    8.8363 O   0  0  0  0  0  0  0  0  0  0  0  0
   17.2231  -15.1785   10.3712 O   0  0  0  0  0  0  0  0  0  0  0  0
  2  1  1  0
  3  2  1  0
  3  5  1  0
  3  4  1  6
  5  6  1  1
  7  5  1  0
  7  8  2  0
 10  9  1  1
 10 11  1  0
 10 12  1  0
 13 14  1  0
 13 12  1  6
 14  7  1  0
 15 13  1  0
 16 15  2  0
 17 18  1  0
 18 19  2  0
 20 18  1  0
 20 21  1  0
 22 21  1  1
 22 23  1  0
 23 15  1  0
 24 26  1  0
 24 22  1  0
 25 24  2  0
M  END
$$$$
