ILQ.pdb
     RDKit          3D

 26 25  0  0  1  0  0  0  0  0999 V2000
   28.8385  -17.6450  -16.4828 C   0  0  0  0  0  0  0  0  0  0  0  0
   28.1779  -18.7223  -17.3217 C   0  0  0  0  0  0  0  0  0  0  0  0
   27.0726  -19.3355  -16.4837 C   0  0  2  0  0  0  0  0  0  0  0  0
   26.1998  -18.2158  -15.9912 C   0  0  0  0  0  0  0  0  0  0  0  0
   27.7448  -20.1017  -15.3653 C   0  0  2  0  0  0  0  0  0  0  0  0
   28.5285  -21.1526  -15.9854 N   0  0  0  0  0  0  0  0  0  0  0  0
   26.7552  -20.6872  -14.4257 C   0  0  0  0  0  0  0  0  0  0  0  0
   26.0081  -21.6163  -14.7807 O   0  0  0  0  0  0  0  0  0  0  0  0
   25.9830  -19.8600   -8.3533 C   0  0  0  0  0  0  0  0  0  0  0  0
   25.4402  -20.6054   -9.5743 C   0  0  2  0  0  0  0  0  0  0  0  0
   25.0290  -22.0016   -9.2966 C   0  0  0  0  0  0  0  0  0  0  0  0
   26.1906  -20.3247  -10.8061 C   0  0  0  0  0  0  0  0  0  0  0  0
   25.6800  -20.7279  -12.1245 C   0  0  2  0  0  0  0  0  0  0  0  0
   26.6550  -20.1871  -13.1085 N   0  0  0  0  0  0  0  0  0  0  0  0
   24.3350  -20.4362  -12.5445 C   0  0  0  0  0  0  0  0  0  0  0  0
   24.0319  -19.1962  -12.7085 O   0  0  0  0  0  0  0  0  0  0  0  0
   20.3745  -23.6998  -15.8377 N   0  0  0  0  0  0  0  0  0  0  0  0
   21.5468  -23.0261  -16.2733 C   0  0  0  0  0  0  0  0  0  0  0  0
   22.0421  -23.2982  -17.3940 O   0  0  0  0  0  0  0  0  0  0  0  0
   22.1850  -21.9862  -15.3782 C   0  0  0  0  0  0  0  0  0  0  0  0
   21.3475  -21.8313  -14.1625 C   0  0  0  0  0  0  0  0  0  0  0  0
   21.9377  -20.8240  -13.1801 C   0  0  2  0  0  0  0  0  0  0  0  0
   23.2770  -21.3326  -12.8174 N   0  0  0  0  0  0  0  0  0  0  0  0
   21.1240  -20.7569  -11.9710 C   0  0  0  0  0  0  0  0  0  0  0  0
   21.3581  -21.4375  -10.9278 O   0  0  0  0  0  0  0  0  0  0  0  0
   20.0307  -19.9261  -11.9015 O   0  0  0  0  0  0  0  0  0  0  0  0
  2  1  1  0
  3  2  1  0
  3  5  1  0
  3  4  1  1
  5  6  1  6
  7  5  1  0
  7  8  2  0
 10  9  1  1
 10 11  1  0
 10 12  1  0
 13 14  1  0
 13 12  1  1
 14  7  1  0
 15 13  1  0
 16 15  2  0
 17 18  1  0
 18 19  2  0
 20 18  1  0
 20 21  1  0
 22 21  1  6
 22 23  1  0
 23 15  1  0
 24 26  1  0
 24 22  1  0
 25 24  2  0
M  END
$$$$
