ILQ.pdb
     RDKit          3D

 26 25  0  0  1  0  0  0  0  0999 V2000
   25.8315  -19.8705  -17.7329 C   0  0  0  0  0  0  0  0  0  0  0  0
   25.1720  -19.1209  -16.5910 C   0  0  0  0  0  0  0  0  0  0  0  0
   24.9650  -20.1090  -15.4595 C   0  0  2  0  0  0  0  0  0  0  0  0
   24.2407  -21.2998  -16.0211 C   0  0  0  0  0  0  0  0  0  0  0  0
   24.1798  -19.3873  -14.3859 C   0  0  2  0  0  0  0  0  0  0  0  0
   24.8430  -18.1175  -14.1599 N   0  0  0  0  0  0  0  0  0  0  0  0
   24.1247  -20.1681  -13.1241 C   0  0  0  0  0  0  0  0  0  0  0  0
   23.5675  -21.2794  -13.0834 O   0  0  0  0  0  0  0  0  0  0  0  0
   26.7716  -19.1841   -7.6517 C   0  0  0  0  0  0  0  0  0  0  0  0
   25.9067  -20.1808   -8.4260 C   0  0  2  0  0  0  0  0  0  0  0  0
   26.1512  -21.5980   -8.0692 C   0  0  0  0  0  0  0  0  0  0  0  0
   25.7456  -19.8300   -9.8439 C   0  0  0  0  0  0  0  0  0  0  0  0
   24.6221  -20.3459  -10.6392 C   0  0  2  0  0  0  0  0  0  0  0  0
   24.7112  -19.6477  -11.9492 N   0  0  0  0  0  0  0  0  0  0  0  0
   23.2678  -20.3218  -10.1534 C   0  0  0  0  0  0  0  0  0  0  0  0
   22.5997  -19.2384  -10.3440 O   0  0  0  0  0  0  0  0  0  0  0  0
   18.3062  -20.8233  -12.2009 N   0  0  0  0  0  0  0  0  0  0  0  0
   18.3242  -22.1005  -11.5793 C   0  0  0  0  0  0  0  0  0  0  0  0
   17.3953  -22.9148  -11.8012 O   0  0  0  0  0  0  0  0  0  0  0  0
   19.4660  -22.4638  -10.6550 C   0  0  0  0  0  0  0  0  0  0  0  0
   20.4173  -21.3252  -10.6096 C   0  0  0  0  0  0  0  0  0  0  0  0
   21.0947  -21.1937   -9.2487 C   0  0  2  0  0  0  0  0  0  0  0  0
   22.5452  -21.3394   -9.4903 N   0  0  0  0  0  0  0  0  0  0  0  0
   20.6623  -22.2671   -8.3602 C   0  0  0  0  0  0  0  0  0  0  0  0
   21.4005  -23.2406   -8.0233 O   0  0  0  0  0  0  0  0  0  0  0  0
   19.3946  -22.2749   -7.8279 O   0  0  0  0  0  0  0  0  0  0  0  0
  2  1  1  0
  3  2  1  0
  3  5  1  0
  3  4  1  6
  5  6  1  1
  7  5  1  0
  7  8  2  0
 10  9  1  6
 10 11  1  0
 10 12  1  0
 13 14  1  0
 13 12  1  1
 14  7  1  0
 15 13  1  0
 16 15  2  0
 17 18  1  0
 18 19  2  0
 20 18  1  0
 20 21  1  0
 22 21  1  6
 22 23  1  0
 23 15  1  0
 24 26  1  0
 24 22  1  0
 25 24  2  0
M  END
$$$$
