ILQ.pdb
     RDKit          3D

 26 25  0  0  1  0  0  0  0  0999 V2000
   17.9861  -13.2966  -21.3925 C   0  0  0  0  0  0  0  0  0  0  0  0
   19.1234  -13.6780  -20.4641 C   0  0  0  0  0  0  0  0  0  0  0  0
   19.2772  -12.5593  -19.4520 C   0  0  2  0  0  0  0  0  0  0  0  0
   19.5723  -11.2961  -20.2105 C   0  0  0  0  0  0  0  0  0  0  0  0
   20.3946  -12.9659  -18.5162 C   0  0  2  0  0  0  0  0  0  0  0  0
   20.0343  -14.2581  -17.9653 N   0  0  0  0  0  0  0  0  0  0  0  0
   20.5856  -11.9786  -17.4236 C   0  0  0  0  0  0  0  0  0  0  0  0
   19.7582  -11.8782  -16.5004 O   0  0  0  0  0  0  0  0  0  0  0  0
   23.0685  -11.4750  -13.8197 C   0  0  0  0  0  0  0  0  0  0  0  0
   23.8865  -11.3771  -15.1090 C   0  0  2  0  0  0  0  0  0  0  0  0
   25.3453  -11.5473  -14.9136 C   0  0  0  0  0  0  0  0  0  0  0  0
   23.4165  -10.3201  -16.0153 C   0  0  0  0  0  0  0  0  0  0  0  0
   21.9907  -10.1626  -16.3367 C   0  0  2  0  0  0  0  0  0  0  0  0
   21.7207  -11.1379  -17.4263 N   0  0  0  0  0  0  0  0  0  0  0  0
   21.4176   -8.8831  -16.6606 C   0  0  0  0  0  0  0  0  0  0  0  0
   21.7384   -8.3720  -17.7974 O   0  0  0  0  0  0  0  0  0  0  0  0
   15.6595   -4.3742  -16.5613 N   0  0  0  0  0  0  0  0  0  0  0  0
   16.4543   -5.5467  -16.4551 C   0  0  0  0  0  0  0  0  0  0  0  0
   15.9002   -6.6667  -16.3375 O   0  0  0  0  0  0  0  0  0  0  0  0
   17.9628   -5.4302  -16.4853 C   0  0  0  0  0  0  0  0  0  0  0  0
   18.5453   -6.7709  -16.2277 C   0  0  0  0  0  0  0  0  0  0  0  0
   20.0601   -6.7864  -16.4109 C   0  0  2  0  0  0  0  0  0  0  0  0
   20.5274   -8.0918  -15.8997 N   0  0  0  0  0  0  0  0  0  0  0  0
   20.6784   -5.7294  -15.6179 C   0  0  0  0  0  0  0  0  0  0  0  0
   21.3308   -5.9408  -14.5521 O   0  0  0  0  0  0  0  0  0  0  0  0
   20.5818   -4.4122  -16.0001 O   0  0  0  0  0  0  0  0  0  0  0  0
  2  1  1  0
  3  2  1  0
  3  5  1  0
  3  4  1  6
  5  6  1  1
  7  5  1  0
  7  8  2  0
 10  9  1  1
 10 11  1  0
 10 12  1  0
 13 14  1  0
 13 12  1  6
 14  7  1  0
 15 13  1  0
 16 15  2  0
 17 18  1  0
 18 19  2  0
 20 18  1  0
 20 21  1  0
 22 21  1  1
 22 23  1  0
 23 15  1  0
 24 26  1  0
 24 22  1  0
 25 24  2  0
M  END
$$$$
