ILQ.pdb
     RDKit          3D

 26 25  0  0  1  0  0  0  0  0999 V2000
   24.2813  -21.7111   -8.7903 C   0  0  0  0  0  0  0  0  0  0  0  0
   25.4714  -20.9580   -9.3536 C   0  0  0  0  0  0  0  0  0  0  0  0
   25.1706  -20.6583  -10.8094 C   0  0  2  0  0  0  0  0  0  0  0  0
   24.9688  -21.9709  -11.5126 C   0  0  0  0  0  0  0  0  0  0  0  0
   26.3458  -19.8706  -11.3462 C   0  0  2  0  0  0  0  0  0  0  0  0
   26.6366  -18.8327  -10.3759 N   0  0  0  0  0  0  0  0  0  0  0  0
   26.0462  -19.2658  -12.6689 C   0  0  0  0  0  0  0  0  0  0  0  0
   25.1400  -18.4234  -12.7965 O   0  0  0  0  0  0  0  0  0  0  0  0
   29.2731  -17.8987  -17.5336 C   0  0  0  0  0  0  0  0  0  0  0  0
   27.9376  -17.7065  -16.8121 C   0  0  2  0  0  0  0  0  0  0  0  0
   27.4507  -16.3071  -16.8043 C   0  0  0  0  0  0  0  0  0  0  0  0
   27.8257  -18.4972  -15.5785 C   0  0  0  0  0  0  0  0  0  0  0  0
   26.5441  -19.0780  -15.1529 C   0  0  2  0  0  0  0  0  0  0  0  0
   26.7969  -19.6477  -13.8028 N   0  0  0  0  0  0  0  0  0  0  0  0
   25.8266  -20.0239  -15.9660 C   0  0  0  0  0  0  0  0  0  0  0  0
   25.6729  -21.2075  -15.4845 O   0  0  0  0  0  0  0  0  0  0  0  0
   21.4811  -19.3548  -14.0856 N   0  0  0  0  0  0  0  0  0  0  0  0
   21.7262  -20.7297  -14.3456 C   0  0  0  0  0  0  0  0  0  0  0  0
   21.2055  -21.6052  -13.6123 O   0  0  0  0  0  0  0  0  0  0  0  0
   22.6141  -21.1222  -15.5065 C   0  0  0  0  0  0  0  0  0  0  0  0
   23.0911  -19.8858  -16.1752 C   0  0  0  0  0  0  0  0  0  0  0  0
   23.8288  -20.1826  -17.4775 C   0  0  2  0  0  0  0  0  0  0  0  0
   25.2458  -19.8368  -17.2408 N   0  0  0  0  0  0  0  0  0  0  0  0
   23.3190  -19.3394  -18.5535 C   0  0  0  0  0  0  0  0  0  0  0  0
   23.6647  -18.1320  -18.7239 O   0  0  0  0  0  0  0  0  0  0  0  0
   22.4120  -19.8284  -19.4638 O   0  0  0  0  0  0  0  0  0  0  0  0
  2  1  1  0
  3  2  1  0
  3  5  1  0
  3  4  1  6
  5  6  1  1
  7  5  1  0
  7  8  2  0
 10  9  1  1
 10 11  1  0
 10 12  1  0
 13 14  1  0
 13 12  1  6
 14  7  1  0
 15 13  1  0
 16 15  2  0
 17 18  1  0
 18 19  2  0
 20 18  1  0
 20 21  1  0
 22 21  1  1
 22 23  1  0
 23 15  1  0
 24 26  1  0
 24 22  1  0
 25 24  2  0
M  END
$$$$
