VAD.pdb
     RDKit          3D

 21 20  0  0  1  0  0  0  0  0999 V2000
   17.7960  -13.2547  -15.2430 C   0  0  0  0  0  0  0  0  0  0  0  0
   18.1430  -11.7909  -15.0094 C   0  0  1  0  0  0  0  0  0  0  0  0
   18.0787  -11.0962  -16.3437 C   0  0  0  0  0  0  0  0  0  0  0  0
   17.1747  -11.2526  -14.0145 C   0  0  2  0  0  0  0  0  0  0  0  0
   15.8338  -11.5636  -14.4701 N   0  0  0  0  0  0  0  0  0  0  0  0
   17.3383   -9.8227  -13.7096 C   0  0  0  0  0  0  0  0  0  0  0  0
   17.0926   -8.9969  -14.6262 O   0  0  0  0  0  0  0  0  0  0  0  0
   17.6726   -7.5983  -10.7846 C   0  0  0  0  0  0  0  0  0  0  0  0
   18.0828   -7.9221  -12.2114 C   0  0  2  0  0  0  0  0  0  0  0  0
   17.7474   -9.2968  -12.4765 N   0  0  0  0  0  0  0  0  0  0  0  0
   19.4640   -7.5686  -12.4962 C   0  0  0  0  0  0  0  0  0  0  0  0
   20.4382   -8.2605  -12.1135 O   0  0  0  0  0  0  0  0  0  0  0  0
   19.7580   -6.3970  -13.2364 N   0  0  0  0  0  0  0  0  0  0  0  0
   21.1188   -6.0134  -13.5733 C   0  0  1  0  0  0  0  0  0  0  0  0
   21.3003   -6.0161  -15.0629 C   0  0  0  0  0  0  0  0  0  0  0  0
   21.0907   -7.3296  -15.6644 C   0  0  0  0  0  0  0  0  0  0  0  0
   21.6029   -8.4159  -15.2793 O   0  0  0  0  0  0  0  0  0  0  0  0
   21.5162   -4.7682  -12.9277 C   0  0  0  0  0  0  0  0  0  0  0  0
   20.6591   -4.0105  -12.4271 O   0  0  0  0  0  0  0  0  0  0  0  0
   20.2447   -7.4489  -16.7838 O   0  0  0  0  0  0  0  0  0  0  0  0
   22.8458   -4.4050  -12.8573 O   0  0  0  0  0  0  0  0  0  0  0  0
  2  1  1  6
  2  3  1  0
  4  2  1  0
  4  5  1  6
  6  4  1  0
  6  7  2  0
  9  8  1  1
  9 10  1  0
 10  6  1  0
 11 12  2  0
 11  9  1  0
 13 11  1  0
 14 13  1  0
 14 15  1  6
 16 15  1  0
 16 20  1  0
 17 16  2  0
 18 14  1  0
 19 18  2  0
 21 18  1  0
M  END
$$$$
