VAD.pdb
     RDKit          3D

 21 20  0  0  1  0  0  0  0  0999 V2000
   17.6215  -10.3119  -18.4390 C   0  0  0  0  0  0  0  0  0  0  0  0
   18.5823  -11.4660  -18.1887 C   0  0  1  0  0  0  0  0  0  0  0  0
   18.3562  -12.4819  -19.2767 C   0  0  0  0  0  0  0  0  0  0  0  0
   19.9626  -10.9075  -18.1780 C   0  0  2  0  0  0  0  0  0  0  0  0
   20.8989  -12.0055  -18.3196 N   0  0  0  0  0  0  0  0  0  0  0  0
   20.2737  -10.0608  -17.0158 C   0  0  0  0  0  0  0  0  0  0  0  0
   19.4979   -9.1028  -16.7653 O   0  0  0  0  0  0  0  0  0  0  0  0
   23.0090   -9.8979  -14.4393 C   0  0  0  0  0  0  0  0  0  0  0  0
   21.7426   -9.3532  -15.0787 C   0  0  2  0  0  0  0  0  0  0  0  0
   21.3683  -10.2304  -16.1570 N   0  0  0  0  0  0  0  0  0  0  0  0
   21.8539   -7.9513  -15.4474 C   0  0  0  0  0  0  0  0  0  0  0  0
   22.4109   -7.5657  -16.5035 O   0  0  0  0  0  0  0  0  0  0  0  0
   21.3202   -6.9503  -14.5988 N   0  0  0  0  0  0  0  0  0  0  0  0
   21.5119   -5.5326  -14.8555 C   0  0  1  0  0  0  0  0  0  0  0  0
   20.2155   -4.9063  -15.2782 C   0  0  0  0  0  0  0  0  0  0  0  0
   20.3167   -3.4658  -15.4921 C   0  0  0  0  0  0  0  0  0  0  0  0
   19.8885   -2.5658  -14.7192 O   0  0  0  0  0  0  0  0  0  0  0  0
   22.1654   -4.8546  -13.7425 C   0  0  0  0  0  0  0  0  0  0  0  0
   22.5624   -3.6767  -13.8610 O   0  0  0  0  0  0  0  0  0  0  0  0
   20.9433   -2.9835  -16.6573 O   0  0  0  0  0  0  0  0  0  0  0  0
   22.3562   -5.5017  -12.5385 O   0  0  0  0  0  0  0  0  0  0  0  0
  2  1  1  6
  2  3  1  0
  4  2  1  0
  4  5  1  1
  6  4  1  0
  6  7  2  0
  9  8  1  6
  9 10  1  0
 10  6  1  0
 11 12  2  0
 11  9  1  0
 13 11  1  0
 14 13  1  0
 14 15  1  1
 16 15  1  0
 16 20  1  0
 17 16  2  0
 18 14  1  0
 19 18  2  0
 21 18  1  0
M  END
$$$$
