VAD.pdb
     RDKit          3D

 21 20  0  0  1  0  0  0  0  0999 V2000
   18.5358  -12.9121  -19.3332 C   0  0  0  0  0  0  0  0  0  0  0  0
   18.2979  -11.7269  -18.4077 C   0  0  1  0  0  0  0  0  0  0  0  0
   17.4446  -12.2130  -17.2665 C   0  0  0  0  0  0  0  0  0  0  0  0
   19.6295  -11.2189  -17.9765 C   0  0  2  0  0  0  0  0  0  0  0  0
   20.3928  -12.3332  -17.4494 N   0  0  0  0  0  0  0  0  0  0  0  0
   19.5807  -10.0874  -17.0375 C   0  0  0  0  0  0  0  0  0  0  0  0
   19.1295   -8.9929  -17.4629 O   0  0  0  0  0  0  0  0  0  0  0  0
   20.2853   -9.5498  -13.3887 C   0  0  0  0  0  0  0  0  0  0  0  0
   19.9908   -9.0157  -14.7805 C   0  0  2  0  0  0  0  0  0  0  0  0
   19.9969  -10.1237  -15.6996 N   0  0  0  0  0  0  0  0  0  0  0  0
   20.8572   -7.9104  -15.1565 C   0  0  0  0  0  0  0  0  0  0  0  0
   21.8753   -8.0555  -15.8752 O   0  0  0  0  0  0  0  0  0  0  0  0
   20.5675   -6.5981  -14.7082 N   0  0  0  0  0  0  0  0  0  0  0  0
   21.3981   -5.4578  -15.0582 C   0  0  1  0  0  0  0  0  0  0  0  0
   20.5668   -4.4009  -15.7241 C   0  0  0  0  0  0  0  0  0  0  0  0
   19.5616   -3.8192  -14.8396 C   0  0  0  0  0  0  0  0  0  0  0  0
   19.4416   -4.0365  -13.6031 O   0  0  0  0  0  0  0  0  0  0  0  0
   22.1776   -4.9754  -13.9245 C   0  0  0  0  0  0  0  0  0  0  0  0
   21.9292   -5.3733  -12.7674 O   0  0  0  0  0  0  0  0  0  0  0  0
   18.6121   -2.9239  -15.3686 O   0  0  0  0  0  0  0  0  0  0  0  0
   23.2039   -4.0715  -14.1100 O   0  0  0  0  0  0  0  0  0  0  0  0
  2  1  1  6
  2  3  1  0
  4  2  1  0
  4  5  1  1
  6  4  1  0
  6  7  2  0
  9  8  1  1
  9 10  1  0
 10  6  1  0
 11 12  2  0
 11  9  1  0
 13 11  1  0
 14 13  1  0
 14 15  1  1
 16 15  1  0
 16 20  1  0
 17 16  2  0
 18 14  1  0
 19 18  2  0
 21 18  1  0
M  END
$$$$
