VAD.pdb
     RDKit          3D

 21 20  0  0  1  0  0  0  0  0999 V2000
   16.7480  -11.7839  -18.6025 C   0  0  0  0  0  0  0  0  0  0  0  0
   17.6461  -10.8079  -17.8552 C   0  0  1  0  0  0  0  0  0  0  0  0
   16.7670  -10.0045  -16.9340 C   0  0  0  0  0  0  0  0  0  0  0  0
   18.6800  -11.6059  -17.1399 C   0  0  2  0  0  0  0  0  0  0  0  0
   18.0105  -12.6514  -16.3911 N   0  0  0  0  0  0  0  0  0  0  0  0
   19.5903  -10.8163  -16.2960 C   0  0  0  0  0  0  0  0  0  0  0  0
   19.1526  -10.4010  -15.1922 O   0  0  0  0  0  0  0  0  0  0  0  0
   23.1894   -9.7747  -16.3540 C   0  0  0  0  0  0  0  0  0  0  0  0
   21.7554   -9.5655  -15.8970 C   0  0  2  0  0  0  0  0  0  0  0  0
   20.9134  -10.4841  -16.6179 N   0  0  0  0  0  0  0  0  0  0  0  0
   21.3369   -8.1750  -15.9681 C   0  0  0  0  0  0  0  0  0  0  0  0
   20.7680   -7.6842  -16.9729 O   0  0  0  0  0  0  0  0  0  0  0  0
   21.5667   -7.3083  -14.8712 N   0  0  0  0  0  0  0  0  0  0  0  0
   21.2797   -5.8849  -14.9340 C   0  0  1  0  0  0  0  0  0  0  0  0
   19.8010   -5.6530  -14.8271 C   0  0  0  0  0  0  0  0  0  0  0  0
   19.4357   -4.2408  -14.8849 C   0  0  0  0  0  0  0  0  0  0  0  0
   20.2343   -3.2660  -14.9354 O   0  0  0  0  0  0  0  0  0  0  0  0
   22.0726   -5.1203  -13.9789 C   0  0  0  0  0  0  0  0  0  0  0  0
   22.3556   -5.5990  -12.8609 O   0  0  0  0  0  0  0  0  0  0  0  0
   18.0746   -3.8796  -14.8868 O   0  0  0  0  0  0  0  0  0  0  0  0
   22.5250   -3.8549  -14.2933 O   0  0  0  0  0  0  0  0  0  0  0  0
  2  1  1  1
  2  3  1  0
  4  2  1  0
  4  5  1  1
  6  4  1  0
  6  7  2  0
  9  8  1  6
  9 10  1  0
 10  6  1  0
 11 12  2  0
 11  9  1  0
 13 11  1  0
 14 13  1  0
 14 15  1  1
 16 15  1  0
 16 20  1  0
 17 16  2  0
 18 14  1  0
 19 18  2  0
 21 18  1  0
M  END
$$$$
