VAD.pdb
     RDKit          3D

 21 20  0  0  1  0  0  0  0  0999 V2000
   17.1445  -11.4762  -16.3657 C   0  0  0  0  0  0  0  0  0  0  0  0
   18.3235  -11.8174  -17.2663 C   0  0  1  0  0  0  0  0  0  0  0  0
   17.7756  -12.0726  -18.6453 C   0  0  0  0  0  0  0  0  0  0  0  0
   19.2772  -10.6753  -17.2104 C   0  0  2  0  0  0  0  0  0  0  0  0
   20.2348  -10.8287  -18.2882 N   0  0  0  0  0  0  0  0  0  0  0  0
   19.9349  -10.4872  -15.9079 C   0  0  0  0  0  0  0  0  0  0  0  0
   19.2004  -10.3348  -14.8980 O   0  0  0  0  0  0  0  0  0  0  0  0
   23.4199  -10.6187  -14.5451 C   0  0  0  0  0  0  0  0  0  0  0  0
   21.9791  -10.1444  -14.4537 C   0  0  2  0  0  0  0  0  0  0  0  0
   21.3197  -10.4629  -15.6932 N   0  0  0  0  0  0  0  0  0  0  0  0
   21.8671   -8.7532  -14.0466 C   0  0  0  0  0  0  0  0  0  0  0  0
   22.2952   -8.3276  -12.9466 O   0  0  0  0  0  0  0  0  0  0  0  0
   21.2527   -7.8099  -14.9066 N   0  0  0  0  0  0  0  0  0  0  0  0
   21.1351   -6.4038  -14.5580 C   0  0  1  0  0  0  0  0  0  0  0  0
   22.1520   -5.5996  -15.3135 C   0  0  0  0  0  0  0  0  0  0  0  0
   22.0738   -4.1686  -15.0358 C   0  0  0  0  0  0  0  0  0  0  0  0
   21.8100   -3.6390  -13.9220 O   0  0  0  0  0  0  0  0  0  0  0  0
   19.7685   -5.9147  -14.6949 C   0  0  0  0  0  0  0  0  0  0  0  0
   18.9413   -6.5295  -15.3999 O   0  0  0  0  0  0  0  0  0  0  0  0
   22.3068   -3.2498  -16.0772 O   0  0  0  0  0  0  0  0  0  0  0  0
   19.3645   -4.7647  -14.0476 O   0  0  0  0  0  0  0  0  0  0  0  0
  2  1  1  1
  2  3  1  0
  4  2  1  0
  4  5  1  6
  6  4  1  0
  6  7  2  0
  9  8  1  6
  9 10  1  0
 10  6  1  0
 11 12  2  0
 11  9  1  0
 13 11  1  0
 14 13  1  0
 14 15  1  6
 16 15  1  0
 16 20  1  0
 17 16  2  0
 18 14  1  0
 19 18  2  0
 21 18  1  0
M  END
$$$$
