VAD.pdb
     RDKit          3D

 21 20  0  0  1  0  0  0  0  0999 V2000
   21.1960  -12.2380  -17.1122 C   0  0  0  0  0  0  0  0  0  0  0  0
   19.7966  -11.6535  -16.9803 C   0  0  1  0  0  0  0  0  0  0  0  0
   18.9160  -12.7253  -16.3949 C   0  0  0  0  0  0  0  0  0  0  0  0
   19.8959  -10.4375  -16.1267 C   0  0  2  0  0  0  0  0  0  0  0  0
   18.5584  -10.0632  -15.7103 N   0  0  0  0  0  0  0  0  0  0  0  0
   20.6197   -9.3134  -16.7405 C   0  0  0  0  0  0  0  0  0  0  0  0
   21.8738   -9.3894  -16.8034 O   0  0  0  0  0  0  0  0  0  0  0  0
   19.9214   -6.5777  -19.0681 C   0  0  0  0  0  0  0  0  0  0  0  0
   20.7233   -7.0476  -17.8659 C   0  0  2  0  0  0  0  0  0  0  0  0
   20.0283   -8.1560  -17.2652 N   0  0  0  0  0  0  0  0  0  0  0  0
   21.0516   -5.9682  -16.9489 C   0  0  0  0  0  0  0  0  0  0  0  0
   21.6549   -4.9281  -17.3074 O   0  0  0  0  0  0  0  0  0  0  0  0
   20.6886   -6.0631  -15.5828 N   0  0  0  0  0  0  0  0  0  0  0  0
   21.0005   -5.0174  -14.6228 C   0  0  1  0  0  0  0  0  0  0  0  0
   19.7889   -4.6992  -13.7968 C   0  0  0  0  0  0  0  0  0  0  0  0
   18.7165   -4.0764  -14.5668 C   0  0  0  0  0  0  0  0  0  0  0  0
   17.4789   -4.2070  -14.3617 O   0  0  0  0  0  0  0  0  0  0  0  0
   22.1907   -5.3258  -13.8394 C   0  0  0  0  0  0  0  0  0  0  0  0
   22.7043   -4.4627  -13.0976 O   0  0  0  0  0  0  0  0  0  0  0  0
   19.0420   -3.2409  -15.6526 O   0  0  0  0  0  0  0  0  0  0  0  0
   22.7702   -6.5768  -13.9028 O   0  0  0  0  0  0  0  0  0  0  0  0
  2  1  1  1
  2  3  1  0
  4  2  1  0
  4  5  1  6
  6  4  1  0
  6  7  2  0
  9  8  1  6
  9 10  1  0
 10  6  1  0
 11 12  2  0
 11  9  1  0
 13 11  1  0
 14 13  1  0
 14 15  1  1
 16 15  1  0
 16 20  1  0
 17 16  2  0
 18 14  1  0
 19 18  2  0
 21 18  1  0
M  END
$$$$
