VAD.pdb
     RDKit          3D

 21 20  0  0  1  0  0  0  0  0999 V2000
   17.7932  -12.0469  -18.9543 C   0  0  0  0  0  0  0  0  0  0  0  0
   18.3271  -11.0628  -17.9227 C   0  0  1  0  0  0  0  0  0  0  0  0
   17.1424  -10.5058  -17.1789 C   0  0  0  0  0  0  0  0  0  0  0  0
   19.2809  -11.8006  -17.0491 C   0  0  2  0  0  0  0  0  0  0  0  0
   18.5925  -12.9481  -16.4909 N   0  0  0  0  0  0  0  0  0  0  0  0
   19.9228  -10.9804  -16.0101 C   0  0  0  0  0  0  0  0  0  0  0  0
   19.1923  -10.5141  -15.0983 O   0  0  0  0  0  0  0  0  0  0  0  0
   23.3717  -10.0771  -14.9184 C   0  0  0  0  0  0  0  0  0  0  0  0
   21.9015   -9.7194  -15.0586 C   0  0  2  0  0  0  0  0  0  0  0  0
   21.2884  -10.6712  -15.9478 N   0  0  0  0  0  0  0  0  0  0  0  0
   21.6908   -8.3272  -15.4208 C   0  0  0  0  0  0  0  0  0  0  0  0
   21.7451   -7.9144  -16.6044 O   0  0  0  0  0  0  0  0  0  0  0  0
   21.4097   -7.3680  -14.4169 N   0  0  0  0  0  0  0  0  0  0  0  0
   21.1837   -5.9658  -14.7254 C   0  0  1  0  0  0  0  0  0  0  0  0
   19.7844   -5.5753  -14.3496 C   0  0  0  0  0  0  0  0  0  0  0  0
   19.4864   -4.1729  -14.6241 C   0  0  0  0  0  0  0  0  0  0  0  0
   20.1383   -3.4077  -15.3858 O   0  0  0  0  0  0  0  0  0  0  0  0
   22.2144   -5.1040  -14.1592 C   0  0  0  0  0  0  0  0  0  0  0  0
   22.7295   -5.3717  -13.0537 O   0  0  0  0  0  0  0  0  0  0  0  0
   18.3756   -3.5693  -14.0038 O   0  0  0  0  0  0  0  0  0  0  0  0
   22.6397   -3.9783  -14.8349 O   0  0  0  0  0  0  0  0  0  0  0  0
  2  1  1  6
  2  3  1  0
  4  2  1  0
  4  5  1  1
  6  4  1  0
  6  7  2  0
  9  8  1  6
  9 10  1  0
 10  6  1  0
 11 12  2  0
 11  9  1  0
 13 11  1  0
 14 13  1  0
 14 15  1  1
 16 15  1  0
 16 20  1  0
 17 16  2  0
 18 14  1  0
 19 18  2  0
 21 18  1  0
M  END
$$$$
