IRW.pdb
     RDKit          3D

 34 35  0  0  1  0  0  0  0  0999 V2000
    8.0073  -11.5448   20.5950 C   0  0  0  0  0  0  0  0  0  0  0  0
    8.6725  -12.8976   20.5311 C   0  0  0  0  0  0  0  0  0  0  0  0
    7.9965  -13.8108   19.5452 C   0  0  2  0  0  0  0  0  0  0  0  0
    6.5846  -14.0674   20.0429 C   0  0  0  0  0  0  0  0  0  0  0  0
    8.7098  -15.1191   19.4578 C   0  0  2  0  0  0  0  0  0  0  0  0
    8.2475  -15.8764   18.3291 N   0  0  0  0  0  0  0  0  0  0  0  0
    8.6238  -15.9310   20.6842 C   0  0  0  0  0  0  0  0  0  0  0  0
    7.5170  -16.2186   21.2367 O   0  0  0  0  0  0  0  0  0  0  0  0
    9.8327  -20.2417   18.7860 N   0  0  0  0  0  0  0  0  0  0  0  0
   11.1386  -20.4419   18.3170 C   0  0  0  0  0  0  0  0  0  0  0  0
   11.3377  -20.7226   17.0681 N   0  0  0  0  0  0  0  0  0  0  0  0
   12.2373  -20.3361   19.1993 N   0  0  0  0  0  0  0  0  0  0  0  0
   12.0840  -19.9121   20.5530 C   0  0  0  0  0  0  0  0  0  0  0  0
   11.0878  -18.8099   20.7759 C   0  0  0  0  0  0  0  0  0  0  0  0
   10.9434  -18.3871   22.1931 C   0  0  0  0  0  0  0  0  0  0  0  0
    9.8780  -17.3264   22.3815 C   0  0  2  0  0  0  0  0  0  0  0  0
    9.8186  -16.4126   21.2765 N   0  0  0  0  0  0  0  0  0  0  0  0
   10.2043  -16.6007   23.6622 C   0  0  0  0  0  0  0  0  0  0  0  0
   11.1582  -15.7829   23.6913 O   0  0  0  0  0  0  0  0  0  0  0  0
   12.2800  -20.8234   16.6809 N   0  0  0  0  0  0  0  0  0  0  0  0
    9.4674  -16.8067   24.8556 C   0  0  1  0  0  0  0  0  0  0  0  0
   10.0542  -16.3535   26.0991 C   0  0  0  0  0  0  0  0  0  0  0  0
    8.9299  -16.2066   27.1074 C   0  0  0  0  0  0  0  0  0  0  0  0
    7.8313  -15.4141   26.4919 C   0  0  0  0  0  0  0  0  0  0  0  0
    6.6904  -15.8061   25.8389 N   0  0  0  0  0  0  0  0  0  0  0  0
    5.9893  -14.7081   25.4526 C   0  0  0  0  0  0  0  0  0  0  0  0
    6.6420  -13.6070   25.8362 C   0  0  0  0  0  0  0  0  0  0  0  0
    6.3564  -12.2747   25.6912 C   0  0  0  0  0  0  0  0  0  0  0  0
    7.2412  -11.3191   26.2076 C   0  0  0  0  0  0  0  0  0  0  0  0
    8.3932  -11.6978   26.8584 C   0  0  0  0  0  0  0  0  0  0  0  0
    8.6454  -13.0512   26.9839 C   0  0  0  0  0  0  0  0  0  0  0  0
    7.7838  -14.0215   26.4807 C   0  0  0  0  0  0  0  0  0  0  0  0
   10.9557  -17.4383   26.6260 O   0  0  0  0  0  0  0  0  0  0  0  0
   11.0244  -18.5596   26.0621 O   0  0  0  0  0  0  0  0  0  0  0  0
  2  1  1  0
  3  2  1  0
  3  4  1  1
  5  3  1  0
  5  6  1  6
  7  5  1  0
  7  8  2  0
  9 10  1  0
 10 12  1  0
 11 10  2  0
 12 13  1  0
 13 14  1  0
 14 15  1  0
 16 15  1  6
 16 17  1  0
 17  7  1  0
 18 16  1  0
 19 18  2  0
 20 18  1  0
 21 20  1  0
 21 22  1  1
 22 23  1  0
 23 31  1  0
 23 24  2  0
 24 25  1  0
 26 27  2  0
 26 25  1  0
 28 27  1  0
 29 28  2  0
 30 29  1  0
 30 31  2  0
 31 26  1  0
 32 21  1  0
 33 32  2  0
 34 32  1  0
M  END
$$$$
