IRW.pdb
     RDKit          3D

 34 35  0  0  1  0  0  0  0  0999 V2000
    7.7427  -11.2486   18.9013 C   0  0  0  0  0  0  0  0  0  0  0  0
    8.4125  -12.5643   18.5897 C   0  0  0  0  0  0  0  0  0  0  0  0
    7.9463  -13.6635   19.5048 C   0  0  2  0  0  0  0  0  0  0  0  0
    8.3439  -13.2874   20.9217 C   0  0  0  0  0  0  0  0  0  0  0  0
    8.6050  -14.9575   19.1589 C   0  0  2  0  0  0  0  0  0  0  0  0
    8.3226  -15.3250   17.8002 N   0  0  0  0  0  0  0  0  0  0  0  0
    8.2615  -16.0657   20.0670 C   0  0  0  0  0  0  0  0  0  0  0  0
    7.2771  -16.8404   19.8574 O   0  0  0  0  0  0  0  0  0  0  0  0
    9.3757  -22.4179   22.1353 N   0  0  0  0  0  0  0  0  0  0  0  0
   10.7289  -22.2058   21.8369 C   0  0  0  0  0  0  0  0  0  0  0  0
   11.6258  -23.0131   22.3082 N   0  0  0  0  0  0  0  0  0  0  0  0
   11.1179  -21.1182   21.0229 N   0  0  0  0  0  0  0  0  0  0  0  0
   10.1718  -20.1872   20.4994 C   0  0  0  0  0  0  0  0  0  0  0  0
   10.1303  -18.8524   21.1874 C   0  0  0  0  0  0  0  0  0  0  0  0
    8.8980  -18.6057   21.9803 C   0  0  0  0  0  0  0  0  0  0  0  0
    8.7008  -17.1412   22.3145 C   0  0  2  0  0  0  0  0  0  0  0  0
    9.0555  -16.2811   21.2218 N   0  0  0  0  0  0  0  0  0  0  0  0
    9.5509  -16.8502   23.5253 C   0  0  0  0  0  0  0  0  0  0  0  0
   10.5989  -16.1673   23.4035 O   0  0  0  0  0  0  0  0  0  0  0  0
   12.6227  -22.8858   22.1133 N   0  0  0  0  0  0  0  0  0  0  0  0
    9.2115  -17.3238   24.8177 C   0  0  1  0  0  0  0  0  0  0  0  0
   10.0747  -16.9565   25.9204 C   0  0  0  0  0  0  0  0  0  0  0  0
    9.8410  -15.4860   26.2126 C   0  0  0  0  0  0  0  0  0  0  0  0
    8.3876  -15.1945   26.0850 C   0  0  0  0  0  0  0  0  0  0  0  0
    7.3220  -16.0138   25.8111 N   0  0  0  0  0  0  0  0  0  0  0  0
    6.1781  -15.2807   25.7983 C   0  0  0  0  0  0  0  0  0  0  0  0
    6.4674  -14.0020   26.0572 C   0  0  0  0  0  0  0  0  0  0  0  0
    5.6788  -12.8859   26.1572 C   0  0  0  0  0  0  0  0  0  0  0  0
    6.2679  -11.6485   26.4480 C   0  0  0  0  0  0  0  0  0  0  0  0
    7.6268  -11.5366   26.6347 C   0  0  0  0  0  0  0  0  0  0  0  0
    8.3876  -12.6856   26.5253 C   0  0  0  0  0  0  0  0  0  0  0  0
    7.8285  -13.9272   26.2376 C   0  0  0  0  0  0  0  0  0  0  0  0
    9.6297  -17.7073   27.1472 O   0  0  0  0  0  0  0  0  0  0  0  0
   10.2218  -17.5677   28.2472 O   0  0  0  0  0  0  0  0  0  0  0  0
  2  1  1  0
  3  2  1  0
  3  4  1  1
  5  3  1  0
  5  6  1  6
  7  5  1  0
  7  8  2  0
  9 10  1  0
 10 12  1  0
 11 10  2  0
 12 13  1  0
 13 14  1  0
 14 15  1  0
 16 15  1  6
 16 17  1  0
 17  7  1  0
 18 16  1  0
 19 18  2  0
 20 18  1  0
 21 20  1  0
 21 22  1  1
 22 23  1  0
 23 31  1  0
 23 24  2  0
 24 25  1  0
 26 27  2  0
 26 25  1  0
 28 27  1  0
 29 28  2  0
 30 29  1  0
 30 31  2  0
 31 26  1  0
 32 21  1  0
 33 32  2  0
 34 32  1  0
M  END
$$$$
