IRW.pdb
     RDKit          3D

 34 35  0  0  1  0  0  0  0  0999 V2000
    7.4023  -11.6695   19.3917 C   0  0  0  0  0  0  0  0  0  0  0  0
    7.7627  -13.1069   19.1078 C   0  0  0  0  0  0  0  0  0  0  0  0
    7.8490  -13.9245   20.3676 C   0  0  2  0  0  0  0  0  0  0  0  0
    8.9599  -13.3417   21.2239 C   0  0  0  0  0  0  0  0  0  0  0  0
    8.1897  -15.3442   20.0570 C   0  0  2  0  0  0  0  0  0  0  0  0
    7.3067  -15.8721   19.0558 N   0  0  0  0  0  0  0  0  0  0  0  0
    8.2072  -16.2274   21.2361 C   0  0  0  0  0  0  0  0  0  0  0  0
    7.1547  -16.5266   21.8811 O   0  0  0  0  0  0  0  0  0  0  0  0
   11.7493  -17.9865   18.9385 N   0  0  0  0  0  0  0  0  0  0  0  0
   13.0216  -18.5454   19.1237 C   0  0  0  0  0  0  0  0  0  0  0  0
   13.9916  -18.2131   18.3319 N   0  0  0  0  0  0  0  0  0  0  0  0
   13.2506  -19.4663   20.1707 N   0  0  0  0  0  0  0  0  0  0  0  0
   12.9197  -19.1696   21.5266 C   0  0  0  0  0  0  0  0  0  0  0  0
   11.7948  -18.1927   21.7181 C   0  0  0  0  0  0  0  0  0  0  0  0
   10.6685  -18.7034   22.5421 C   0  0  0  0  0  0  0  0  0  0  0  0
    9.6027  -17.6555   22.7899 C   0  0  2  0  0  0  0  0  0  0  0  0
    9.4430  -16.7673   21.6739 N   0  0  0  0  0  0  0  0  0  0  0  0
   10.0140  -16.8966   24.0261 C   0  0  0  0  0  0  0  0  0  0  0  0
   10.8068  -15.9263   23.9287 O   0  0  0  0  0  0  0  0  0  0  0  0
   14.9082  -18.6664   18.3812 N   0  0  0  0  0  0  0  0  0  0  0  0
    9.5356  -17.2385   25.3160 C   0  0  1  0  0  0  0  0  0  0  0  0
   10.1018  -16.5436   26.4529 C   0  0  0  0  0  0  0  0  0  0  0  0
    8.9759  -16.2853   27.4368 C   0  0  0  0  0  0  0  0  0  0  0  0
    7.8660  -15.5929   26.7280 C   0  0  0  0  0  0  0  0  0  0  0  0
    6.7964  -16.0855   26.0244 N   0  0  0  0  0  0  0  0  0  0  0  0
    6.0476  -15.0530   25.5560 C   0  0  0  0  0  0  0  0  0  0  0  0
    6.5996  -13.8966   25.9351 C   0  0  0  0  0  0  0  0  0  0  0  0
    6.2339  -12.5932   25.7229 C   0  0  0  0  0  0  0  0  0  0  0  0
    7.0187  -11.5611   26.2537 C   0  0  0  0  0  0  0  0  0  0  0  0
    8.1515  -11.8361   26.9851 C   0  0  0  0  0  0  0  0  0  0  0  0
    8.4866  -13.1635   27.1767 C   0  0  0  0  0  0  0  0  0  0  0  0
    7.7252  -14.2082   26.6610 C   0  0  0  0  0  0  0  0  0  0  0  0
   11.0662  -17.4682   27.1472 O   0  0  0  0  0  0  0  0  0  0  0  0
   11.7006  -17.1008   28.1684 O   0  0  0  0  0  0  0  0  0  0  0  0
  2  1  1  0
  3  2  1  0
  3  4  1  1
  5  3  1  0
  5  6  1  6
  7  5  1  0
  7  8  2  0
  9 10  1  0
 10 12  1  0
 11 10  2  0
 12 13  1  0
 13 14  1  0
 14 15  1  0
 16 15  1  6
 16 17  1  0
 17  7  1  0
 18 16  1  0
 19 18  2  0
 20 18  1  0
 21 20  1  0
 21 22  1  1
 22 23  1  0
 23 31  1  0
 23 24  2  0
 24 25  1  0
 26 27  2  0
 26 25  1  0
 28 27  1  0
 29 28  2  0
 30 29  1  0
 30 31  2  0
 31 26  1  0
 32 21  1  0
 33 32  2  0
 34 32  1  0
M  END
$$$$
