IRW.pdb
     RDKit          3D

 34 35  0  0  1  0  0  0  0  0999 V2000
    8.2719  -11.8353   18.5602 C   0  0  0  0  0  0  0  0  0  0  0  0
    8.3514  -13.3398   18.6426 C   0  0  0  0  0  0  0  0  0  0  0  0
    7.9311  -13.8522   19.9931 C   0  0  2  0  0  0  0  0  0  0  0  0
    8.9201  -13.3243   21.0180 C   0  0  0  0  0  0  0  0  0  0  0  0
    7.9665  -15.3440   20.0297 C   0  0  2  0  0  0  0  0  0  0  0  0
    7.1755  -15.8979   18.9675 N   0  0  0  0  0  0  0  0  0  0  0  0
    7.5576  -15.9210   21.3221 C   0  0  0  0  0  0  0  0  0  0  0  0
    6.6200  -15.4291   22.0237 O   0  0  0  0  0  0  0  0  0  0  0  0
    8.5089  -21.7160   26.3420 N   0  0  0  0  0  0  0  0  0  0  0  0
    7.1110  -21.7732   26.4322 C   0  0  0  0  0  0  0  0  0  0  0  0
    6.5546  -22.2790   27.4871 N   0  0  0  0  0  0  0  0  0  0  0  0
    6.3076  -21.2795   25.3799 N   0  0  0  0  0  0  0  0  0  0  0  0
    6.5590  -20.0180   24.7623 C   0  0  0  0  0  0  0  0  0  0  0  0
    8.0034  -19.7095   24.4879 C   0  0  0  0  0  0  0  0  0  0  0  0
    8.2641  -19.1198   23.1491 C   0  0  0  0  0  0  0  0  0  0  0  0
    8.0799  -17.6162   23.1262 C   0  0  2  0  0  0  0  0  0  0  0  0
    8.2326  -17.0693   21.8081 N   0  0  0  0  0  0  0  0  0  0  0  0
    9.1018  -17.0356   24.0707 C   0  0  0  0  0  0  0  0  0  0  0  0
   10.2665  -16.7985   23.6623 O   0  0  0  0  0  0  0  0  0  0  0  0
    5.5373  -22.3330   27.5877 N   0  0  0  0  0  0  0  0  0  0  0  0
    8.7981  -16.7414   25.4238 C   0  0  2  0  0  0  0  0  0  0  0  0
    9.8721  -16.2640   26.2691 C   0  0  0  0  0  0  0  0  0  0  0  0
    9.2853  -15.2303   27.2123 C   0  0  0  0  0  0  0  0  0  0  0  0
    7.9458  -14.8235   26.7082 C   0  0  0  0  0  0  0  0  0  0  0  0
    6.8737  -15.5688   26.2878 N   0  0  0  0  0  0  0  0  0  0  0  0
    5.8635  -14.7399   25.9156 C   0  0  0  0  0  0  0  0  0  0  0  0
    6.2467  -13.4706   26.0818 C   0  0  0  0  0  0  0  0  0  0  0  0
    5.6031  -12.2819   25.8574 C   0  0  0  0  0  0  0  0  0  0  0  0
    6.2637  -11.0770   26.1308 C   0  0  0  0  0  0  0  0  0  0  0  0
    7.5496  -11.0689   26.6213 C   0  0  0  0  0  0  0  0  0  0  0  0
    8.1642  -12.2887   26.8339 C   0  0  0  0  0  0  0  0  0  0  0  0
    7.5314  -13.5001   26.5712 C   0  0  0  0  0  0  0  0  0  0  0  0
   10.3445  -17.4038   27.1321 O   0  0  0  0  0  0  0  0  0  0  0  0
   11.3096  -17.2640   27.9253 O   0  0  0  0  0  0  0  0  0  0  0  0
  2  1  1  0
  3  2  1  0
  3  4  1  1
  5  3  1  0
  5  6  1  6
  7  5  1  0
  7  8  2  0
  9 10  1  0
 10 12  1  0
 11 10  2  0
 12 13  1  0
 13 14  1  0
 14 15  1  0
 16 15  1  6
 16 17  1  0
 17  7  1  0
 18 16  1  0
 19 18  2  0
 20 18  1  0
 21 20  1  0
 21 22  1  6
 22 23  1  0
 23 31  1  0
 23 24  2  0
 24 25  1  0
 26 27  2  0
 26 25  1  0
 28 27  1  0
 29 28  2  0
 30 29  1  0
 30 31  2  0
 31 26  1  0
 32 21  1  0
 33 32  2  0
 34 32  1  0
M  END
$$$$
