IRW.pdb
     RDKit          3D

 34 35  0  0  1  0  0  0  0  0999 V2000
    6.7833  -11.6087   19.3139 C   0  0  0  0  0  0  0  0  0  0  0  0
    7.5675  -12.8492   18.9635 C   0  0  0  0  0  0  0  0  0  0  0  0
    7.6518  -13.8070   20.1204 C   0  0  2  0  0  0  0  0  0  0  0  0
    8.4577  -13.1369   21.2197 C   0  0  0  0  0  0  0  0  0  0  0  0
    8.3538  -15.0622   19.7206 C   0  0  2  0  0  0  0  0  0  0  0  0
    7.6925  -15.6826   18.6076 N   0  0  0  0  0  0  0  0  0  0  0  0
    8.5193  -16.0311   20.8180 C   0  0  0  0  0  0  0  0  0  0  0  0
    7.6088  -16.8536   21.1461 O   0  0  0  0  0  0  0  0  0  0  0  0
   14.0907  -16.3986   18.5338 N   0  0  0  0  0  0  0  0  0  0  0  0
   14.6233  -15.8207   19.6947 C   0  0  0  0  0  0  0  0  0  0  0  0
   14.9910  -14.5785   19.6845 N   0  0  0  0  0  0  0  0  0  0  0  0
   14.7580  -16.5857   20.8751 N   0  0  0  0  0  0  0  0  0  0  0  0
   13.7290  -17.4626   21.3312 C   0  0  0  0  0  0  0  0  0  0  0  0
   12.4374  -16.7984   21.7153 C   0  0  0  0  0  0  0  0  0  0  0  0
   11.3928  -17.7273   22.2194 C   0  0  0  0  0  0  0  0  0  0  0  0
   10.0885  -17.0244   22.5361 C   0  0  2  0  0  0  0  0  0  0  0  0
    9.7390  -16.0515   21.5407 N   0  0  0  0  0  0  0  0  0  0  0  0
   10.2579  -16.3750   23.8863 C   0  0  0  0  0  0  0  0  0  0  0  0
   10.9591  -15.3379   23.9972 O   0  0  0  0  0  0  0  0  0  0  0  0
   15.3983  -14.1292   20.5093 N   0  0  0  0  0  0  0  0  0  0  0  0
    9.6488  -16.8950   25.0560 C   0  0  1  0  0  0  0  0  0  0  0  0
   10.1231  -16.4132   26.3362 C   0  0  0  0  0  0  0  0  0  0  0  0
    8.9070  -16.1611   27.2079 C   0  0  0  0  0  0  0  0  0  0  0  0
    7.8526  -15.5074   26.3865 C   0  0  0  0  0  0  0  0  0  0  0  0
    6.8936  -16.0354   25.5601 N   0  0  0  0  0  0  0  0  0  0  0  0
    6.1546  -15.0298   25.0227 C   0  0  0  0  0  0  0  0  0  0  0  0
    6.6052  -13.8564   25.4764 C   0  0  0  0  0  0  0  0  0  0  0  0
    6.2047  -12.5674   25.2404 C   0  0  0  0  0  0  0  0  0  0  0  0
    6.8751  -11.5104   25.8696 C   0  0  0  0  0  0  0  0  0  0  0  0
    7.9301  -11.7466   26.7213 C   0  0  0  0  0  0  0  0  0  0  0  0
    8.3035  -13.0606   26.9331 C   0  0  0  0  0  0  0  0  0  0  0  0
    7.6552  -14.1294   26.3213 C   0  0  0  0  0  0  0  0  0  0  0  0
   10.9008  -17.5159   27.0042 O   0  0  0  0  0  0  0  0  0  0  0  0
   11.4157  -17.3548   28.1396 O   0  0  0  0  0  0  0  0  0  0  0  0
  2  1  1  0
  3  2  1  0
  3  4  1  1
  5  3  1  0
  5  6  1  6
  7  5  1  0
  7  8  2  0
  9 10  1  0
 10 12  1  0
 11 10  2  0
 12 13  1  0
 13 14  1  0
 14 15  1  0
 16 15  1  6
 16 17  1  0
 17  7  1  0
 18 16  1  0
 19 18  2  0
 20 18  1  0
 21 20  1  0
 21 22  1  1
 22 23  1  0
 23 31  1  0
 23 24  2  0
 24 25  1  0
 26 27  2  0
 26 25  1  0
 28 27  1  0
 29 28  2  0
 30 29  1  0
 30 31  2  0
 31 26  1  0
 32 21  1  0
 33 32  2  0
 34 32  1  0
M  END
$$$$
