IRW.pdb
     RDKit          3D

 34 35  0  0  1  0  0  0  0  0999 V2000
    8.6915  -22.6913   19.9748 C   0  0  0  0  0  0  0  0  0  0  0  0
    8.9096  -21.5458   19.0173 C   0  0  0  0  0  0  0  0  0  0  0  0
    9.4249  -20.3179   19.7173 C   0  0  2  0  0  0  0  0  0  0  0  0
    8.3885  -19.9012   20.7464 C   0  0  0  0  0  0  0  0  0  0  0  0
    9.6083  -19.1941   18.7522 C   0  0  2  0  0  0  0  0  0  0  0  0
   10.4668  -19.5870   17.6707 N   0  0  0  0  0  0  0  0  0  0  0  0
   10.1034  -17.9507   19.3682 C   0  0  0  0  0  0  0  0  0  0  0  0
   11.3101  -17.8043   19.7364 O   0  0  0  0  0  0  0  0  0  0  0  0
    9.6369  -13.9431   15.8337 N   0  0  0  0  0  0  0  0  0  0  0  0
    8.2804  -13.8035   15.5085 C   0  0  0  0  0  0  0  0  0  0  0  0
    7.8774  -14.0633   14.3051 N   0  0  0  0  0  0  0  0  0  0  0  0
    7.3518  -13.3837   16.4874 N   0  0  0  0  0  0  0  0  0  0  0  0
    7.6875  -13.3211   17.8728 C   0  0  0  0  0  0  0  0  0  0  0  0
    8.5541  -14.4391   18.3787 C   0  0  0  0  0  0  0  0  0  0  0  0
    8.6864  -14.4954   19.8577 C   0  0  0  0  0  0  0  0  0  0  0  0
    9.4869  -15.6926   20.3283 C   0  0  2  0  0  0  0  0  0  0  0  0
    9.2037  -16.8720   19.5612 N   0  0  0  0  0  0  0  0  0  0  0  0
    9.1467  -15.9025   21.7821 C   0  0  0  0  0  0  0  0  0  0  0  0
    8.0357  -16.3974   22.0988 O   0  0  0  0  0  0  0  0  0  0  0  0
    6.8875  -14.0243   14.0470 N   0  0  0  0  0  0  0  0  0  0  0  0
   10.0436  -15.5584   22.8247 C   0  0  2  0  0  0  0  0  0  0  0  0
    9.4833  -15.2459   24.1226 C   0  0  0  0  0  0  0  0  0  0  0  0
    7.9880  -15.0625   23.9418 C   0  0  0  0  0  0  0  0  0  0  0  0
    7.3939  -14.6414   25.2394 C   0  0  0  0  0  0  0  0  0  0  0  0
    6.9004  -15.3753   26.2880 N   0  0  0  0  0  0  0  0  0  0  0  0
    6.4609  -14.5357   27.2616 C   0  0  0  0  0  0  0  0  0  0  0  0
    6.6541  -13.2705   26.8774 C   0  0  0  0  0  0  0  0  0  0  0  0
    6.3873  -12.0750   27.4916 C   0  0  0  0  0  0  0  0  0  0  0  0
    6.7064  -10.8773   26.8385 C   0  0  0  0  0  0  0  0  0  0  0  0
    7.2836  -10.8829   25.5892 C   0  0  0  0  0  0  0  0  0  0  0  0
    7.5367  -12.1091   25.0034 C   0  0  0  0  0  0  0  0  0  0  0  0
    7.2301  -13.3137   25.6295 C   0  0  0  0  0  0  0  0  0  0  0  0
    9.6571  -16.4427   25.0195 O   0  0  0  0  0  0  0  0  0  0  0  0
    9.6598  -17.6106   24.5545 O   0  0  0  0  0  0  0  0  0  0  0  0
  2  1  1  0
  3  2  1  0
  3  4  1  1
  5  3  1  0
  5  6  1  6
  7  5  1  0
  7  8  2  0
  9 10  1  0
 10 12  1  0
 11 10  2  0
 12 13  1  0
 13 14  1  0
 14 15  1  0
 16 15  1  6
 16 17  1  0
 17  7  1  0
 18 16  1  0
 19 18  2  0
 20 18  1  0
 21 20  1  0
 21 22  1  6
 22 23  1  0
 23 31  1  0
 23 24  2  0
 24 25  1  0
 26 27  2  0
 26 25  1  0
 28 27  1  0
 29 28  2  0
 30 29  1  0
 30 31  2  0
 31 26  1  0
 32 21  1  0
 33 32  2  0
 34 32  1  0
M  END
$$$$
