IRW.pdb
     RDKit          3D

 34 35  0  0  1  0  0  0  0  0999 V2000
    6.9873  -11.5575   19.4705 C   0  0  0  0  0  0  0  0  0  0  0  0
    7.4973  -12.9007   19.0099 C   0  0  0  0  0  0  0  0  0  0  0  0
    7.7430  -13.8348   20.1633 C   0  0  2  0  0  0  0  0  0  0  0  0
    8.7919  -13.1994   21.0596 C   0  0  0  0  0  0  0  0  0  0  0  0
    8.2676  -15.1466   19.6817 C   0  0  2  0  0  0  0  0  0  0  0  0
    7.3611  -15.7431   18.7418 N   0  0  0  0  0  0  0  0  0  0  0  0
    8.5799  -16.0992   20.7614 C   0  0  0  0  0  0  0  0  0  0  0  0
    7.7018  -16.8572   21.2787 O   0  0  0  0  0  0  0  0  0  0  0  0
   16.1949  -20.4618   22.3257 N   0  0  0  0  0  0  0  0  0  0  0  0
   15.0655  -21.2389   22.6186 C   0  0  0  0  0  0  0  0  0  0  0  0
   15.1891  -22.5185   22.7792 N   0  0  0  0  0  0  0  0  0  0  0  0
   13.7951  -20.6327   22.7419 N   0  0  0  0  0  0  0  0  0  0  0  0
   13.6004  -19.2336   22.5408 C   0  0  0  0  0  0  0  0  0  0  0  0
   12.2080  -18.7315   22.7978 C   0  0  0  0  0  0  0  0  0  0  0  0
   11.7508  -17.6747   21.8585 C   0  0  0  0  0  0  0  0  0  0  0  0
   10.3786  -17.1356   22.2076 C   0  0  2  0  0  0  0  0  0  0  0  0
    9.9096  -16.1779   21.2472 N   0  0  0  0  0  0  0  0  0  0  0  0
   10.4879  -16.5141   23.5770 C   0  0  0  0  0  0  0  0  0  0  0  0
   11.2674  -15.5460   23.7634 O   0  0  0  0  0  0  0  0  0  0  0  0
   14.3865  -23.1151   22.9981 N   0  0  0  0  0  0  0  0  0  0  0  0
    9.7350  -16.9848   24.6821 C   0  0  2  0  0  0  0  0  0  0  0  0
   10.0349  -16.4352   25.9875 C   0  0  0  0  0  0  0  0  0  0  0  0
    8.8016  -16.6157   26.8528 C   0  0  0  0  0  0  0  0  0  0  0  0
    7.6937  -15.7978   26.2893 C   0  0  0  0  0  0  0  0  0  0  0  0
    6.5930  -16.1528   25.5516 N   0  0  0  0  0  0  0  0  0  0  0  0
    5.8618  -15.0438   25.2660 C   0  0  0  0  0  0  0  0  0  0  0  0
    6.4556  -13.9714   25.7981 C   0  0  0  0  0  0  0  0  0  0  0  0
    6.1213  -12.6426   25.7951 C   0  0  0  0  0  0  0  0  0  0  0  0
    6.9481  -11.7215   26.4516 C   0  0  0  0  0  0  0  0  0  0  0  0
    8.0911  -12.1308   27.0995 C   0  0  0  0  0  0  0  0  0  0  0  0
    8.3936  -13.4796   27.0794 C   0  0  0  0  0  0  0  0  0  0  0  0
    7.5902  -14.4159   26.4353 C   0  0  0  0  0  0  0  0  0  0  0  0
   11.1198  -17.2665   26.6191 O   0  0  0  0  0  0  0  0  0  0  0  0
   11.5243  -18.3279   26.0806 O   0  0  0  0  0  0  0  0  0  0  0  0
  2  1  1  0
  3  2  1  0
  3  4  1  1
  5  3  1  0
  5  6  1  6
  7  5  1  0
  7  8  2  0
  9 10  1  0
 10 12  1  0
 11 10  2  0
 12 13  1  0
 13 14  1  0
 14 15  1  0
 16 15  1  6
 16 17  1  0
 17  7  1  0
 18 16  1  0
 19 18  2  0
 20 18  1  0
 21 20  1  0
 21 22  1  6
 22 23  1  0
 23 31  1  0
 23 24  2  0
 24 25  1  0
 26 27  2  0
 26 25  1  0
 28 27  1  0
 29 28  2  0
 30 29  1  0
 30 31  2  0
 31 26  1  0
 32 21  1  0
 33 32  2  0
 34 32  1  0
M  END
$$$$
