IRW.pdb
     RDKit          3D

 34 35  0  0  1  0  0  0  0  0999 V2000
    8.9600  -23.5202   20.4019 C   0  0  0  0  0  0  0  0  0  0  0  0
    9.7484  -22.7877   21.4595 C   0  0  0  0  0  0  0  0  0  0  0  0
    9.9934  -21.3516   21.0848 C   0  0  2  0  0  0  0  0  0  0  0  0
   11.4488  -21.2222   20.6698 C   0  0  0  0  0  0  0  0  0  0  0  0
    9.7544  -20.4504   22.2505 C   0  0  2  0  0  0  0  0  0  0  0  0
    8.3937  -20.5471   22.6978 N   0  0  0  0  0  0  0  0  0  0  0  0
   10.1087  -19.0423   22.0011 C   0  0  0  0  0  0  0  0  0  0  0  0
   11.2806  -18.6809   21.6707 O   0  0  0  0  0  0  0  0  0  0  0  0
    8.4399  -11.9085   18.8001 N   0  0  0  0  0  0  0  0  0  0  0  0
    7.8085  -13.0415   18.2680 C   0  0  0  0  0  0  0  0  0  0  0  0
    7.9016  -13.2943   17.0008 N   0  0  0  0  0  0  0  0  0  0  0  0
    7.0744  -13.9092   19.1076 N   0  0  0  0  0  0  0  0  0  0  0  0
    7.1114  -13.7986   20.5297 C   0  0  0  0  0  0  0  0  0  0  0  0
    8.2618  -14.4925   21.2019 C   0  0  0  0  0  0  0  0  0  0  0  0
    8.0646  -15.9502   21.4120 C   0  0  0  0  0  0  0  0  0  0  0  0
    9.3127  -16.6420   21.9211 C   0  0  2  0  0  0  0  0  0  0  0  0
    9.1080  -18.0465   22.1338 N   0  0  0  0  0  0  0  0  0  0  0  0
    9.7010  -15.9548   23.2057 C   0  0  0  0  0  0  0  0  0  0  0  0
   10.0697  -14.7535   23.1850 O   0  0  0  0  0  0  0  0  0  0  0  0
    7.4805  -14.1293   16.5845 N   0  0  0  0  0  0  0  0  0  0  0  0
    9.6673  -16.6193   24.4575 C   0  0  1  0  0  0  0  0  0  0  0  0
   10.2175  -15.9282   25.6046 C   0  0  0  0  0  0  0  0  0  0  0  0
    9.1965  -16.0168   26.7235 C   0  0  0  0  0  0  0  0  0  0  0  0
    7.9209  -15.4061   26.2614 C   0  0  0  0  0  0  0  0  0  0  0  0
    6.7673  -15.9747   25.7844 N   0  0  0  0  0  0  0  0  0  0  0  0
    5.8698  -14.9986   25.4878 C   0  0  0  0  0  0  0  0  0  0  0  0
    6.4064  -13.8051   25.7586 C   0  0  0  0  0  0  0  0  0  0  0  0
    5.9164  -12.5311   25.6379 C   0  0  0  0  0  0  0  0  0  0  0  0
    6.7197  -11.4448   26.0089 C   0  0  0  0  0  0  0  0  0  0  0  0
    7.9936  -11.6375   26.4927 C   0  0  0  0  0  0  0  0  0  0  0  0
    8.4510  -12.9376   26.5992 C   0  0  0  0  0  0  0  0  0  0  0  0
    7.6745  -14.0347   26.2381 C   0  0  0  0  0  0  0  0  0  0  0  0
   11.4319  -16.6809   26.0796 O   0  0  0  0  0  0  0  0  0  0  0  0
   12.0987  -16.2843   27.0687 O   0  0  0  0  0  0  0  0  0  0  0  0
  2  1  1  0
  3  2  1  0
  3  4  1  1
  5  3  1  0
  5  6  1  6
  7  5  1  0
  7  8  2  0
  9 10  1  0
 10 12  1  0
 11 10  2  0
 12 13  1  0
 13 14  1  0
 14 15  1  0
 16 15  1  1
 16 17  1  0
 17  7  1  0
 18 16  1  0
 19 18  2  0
 20 18  1  0
 21 20  1  0
 21 22  1  6
 22 23  1  0
 23 31  1  0
 23 24  2  0
 24 25  1  0
 26 27  2  0
 26 25  1  0
 28 27  1  0
 29 28  2  0
 30 29  1  0
 30 31  2  0
 31 26  1  0
 32 21  1  0
 33 32  2  0
 34 32  1  0
M  END
$$$$
