IRW.pdb
     RDKit          3D

 34 35  0  0  1  0  0  0  0  0999 V2000
    5.5099  -21.9965   25.6184 C   0  0  0  0  0  0  0  0  0  0  0  0
    5.4161  -21.3196   24.2733 C   0  0  0  0  0  0  0  0  0  0  0  0
    6.5533  -20.3617   24.0451 C   0  0  2  0  0  0  0  0  0  0  0  0
    6.4117  -19.2268   25.0446 C   0  0  0  0  0  0  0  0  0  0  0  0
    6.4953  -19.7868   22.6688 C   0  0  2  0  0  0  0  0  0  0  0  0
    6.4629  -20.8296   21.6826 N   0  0  0  0  0  0  0  0  0  0  0  0
    7.5823  -18.8382   22.3699 C   0  0  0  0  0  0  0  0  0  0  0  0
    8.7996  -19.0901   22.6307 O   0  0  0  0  0  0  0  0  0  0  0  0
    9.1849  -13.5811   16.3031 N   0  0  0  0  0  0  0  0  0  0  0  0
    7.9181  -13.7555   16.8775 C   0  0  0  0  0  0  0  0  0  0  0  0
    6.8561  -13.6076   16.1504 N   0  0  0  0  0  0  0  0  0  0  0  0
    7.7949  -14.0941   18.2439 N   0  0  0  0  0  0  0  0  0  0  0  0
    8.8033  -13.7678   19.1992 C   0  0  0  0  0  0  0  0  0  0  0  0
    8.5458  -14.2470   20.5996 C   0  0  0  0  0  0  0  0  0  0  0  0
    7.6465  -15.4264   20.6918 C   0  0  0  0  0  0  0  0  0  0  0  0
    8.1733  -16.4916   21.6316 C   0  0  2  0  0  0  0  0  0  0  0  0
    7.2647  -17.5940   21.7687 N   0  0  0  0  0  0  0  0  0  0  0  0
    8.4114  -15.8228   22.9618 C   0  0  0  0  0  0  0  0  0  0  0  0
    7.8034  -14.7598   23.2444 O   0  0  0  0  0  0  0  0  0  0  0  0
    5.9190  -13.7898   16.5201 N   0  0  0  0  0  0  0  0  0  0  0  0
    9.3085  -16.3524   23.9233 C   0  0  1  0  0  0  0  0  0  0  0  0
    9.9846  -15.4211   24.8018 C   0  0  0  0  0  0  0  0  0  0  0  0
    9.3821  -15.5794   26.1853 C   0  0  0  0  0  0  0  0  0  0  0  0
    7.9948  -15.0418   26.1711 C   0  0  0  0  0  0  0  0  0  0  0  0
    6.7811  -15.6749   26.0827 N   0  0  0  0  0  0  0  0  0  0  0  0
    5.7850  -14.7511   26.1092 C   0  0  0  0  0  0  0  0  0  0  0  0
    6.3156  -13.5290   26.2129 C   0  0  0  0  0  0  0  0  0  0  0  0
    5.7455  -12.2848   26.2793 C   0  0  0  0  0  0  0  0  0  0  0  0
    6.5662  -11.1547   26.3896 C   0  0  0  0  0  0  0  0  0  0  0  0
    7.9365  -11.2749   26.4322 C   0  0  0  0  0  0  0  0  0  0  0  0
    8.4727  -12.5471   26.3624 C   0  0  0  0  0  0  0  0  0  0  0  0
    7.6811  -13.6865   26.2526 C   0  0  0  0  0  0  0  0  0  0  0  0
   11.4274  -15.8354   24.9190 O   0  0  0  0  0  0  0  0  0  0  0  0
   11.8384  -16.9135   24.4202 O   0  0  0  0  0  0  0  0  0  0  0  0
  2  1  1  0
  3  2  1  0
  3  4  1  1
  5  3  1  0
  5  6  1  6
  7  5  1  0
  7  8  2  0
  9 10  1  0
 10 12  1  0
 11 10  2  0
 12 13  1  0
 13 14  1  0
 14 15  1  0
 16 15  1  6
 16 17  1  0
 17  7  1  0
 18 16  1  0
 19 18  2  0
 20 18  1  0
 21 20  1  0
 21 22  1  6
 22 23  1  0
 23 31  1  0
 23 24  2  0
 24 25  1  0
 26 27  2  0
 26 25  1  0
 28 27  1  0
 29 28  2  0
 30 29  1  0
 30 31  2  0
 31 26  1  0
 32 21  1  0
 33 32  2  0
 34 32  1  0
M  END
$$$$
