FVP.pdb
     RDKit          3D

 26 27  0  0  1  0  0  0  0  0999 V2000
   22.4323  -29.6620  -15.6354 N   0  0  0  0  0  0  0  0  0  0  0  0
   21.9823  -30.9160  -15.0704 C   0  0  1  0  0  0  0  0  0  0  0  0
   22.6003  -32.0240  -15.8981 C   0  0  0  0  0  0  0  0  0  0  0  0
   21.8250  -32.1057  -17.1619 C   0  0  0  0  0  0  0  0  0  0  0  0
   22.3878  -31.7046  -18.3511 C   0  0  0  0  0  0  0  0  0  0  0  0
   21.6828  -31.7710  -19.5493 C   0  0  0  0  0  0  0  0  0  0  0  0
   20.3981  -32.2539  -19.5010 C   0  0  0  0  0  0  0  0  0  0  0  0
   19.8291  -32.6571  -18.3126 C   0  0  0  0  0  0  0  0  0  0  0  0
   20.5362  -32.5888  -17.1222 C   0  0  0  0  0  0  0  0  0  0  0  0
   22.4683  -30.9847  -13.6489 C   0  0  0  0  0  0  0  0  0  0  0  0
   23.5926  -30.5273  -13.3327 O   0  0  0  0  0  0  0  0  0  0  0  0
   19.7351  -31.9139  -11.1834 C   0  0  0  0  0  0  0  0  0  0  0  0
   21.0114  -31.7659  -10.3725 C   0  0  1  0  0  0  0  0  0  0  0  0
   21.1922  -32.8743   -9.3679 C   0  0  0  0  0  0  0  0  0  0  0  0
   22.2193  -31.6424  -11.2833 C   0  0  2  0  0  0  0  0  0  0  0  0
   21.6678  -31.5665  -12.6384 N   0  0  0  0  0  0  0  0  0  0  0  0
   23.0808  -32.8356  -11.1367 C   0  0  0  0  0  0  0  0  0  0  0  0
   22.8852  -33.7870  -11.9754 O   0  0  0  0  0  0  0  0  0  0  0  0
   24.0706  -32.9639  -10.1554 N   0  0  0  0  0  0  0  0  0  0  0  0
   24.4303  -32.0374   -9.1149 C   0  0  0  0  0  0  0  0  0  0  0  0
   25.8570  -32.4077   -8.7221 C   0  0  0  0  0  0  0  0  0  0  0  0
   26.2768  -33.3645   -9.7935 C   0  0  0  0  0  0  0  0  0  0  0  0
   24.9664  -34.1292  -10.0462 C   0  0  1  0  0  0  0  0  0  0  0  0
   24.6805  -34.9073   -8.8300 C   0  0  0  0  0  0  0  0  0  0  0  0
   25.3893  -36.0833   -8.6407 O   0  0  0  0  0  0  0  0  0  0  0  0
   23.8440  -34.5865   -7.9525 O   0  0  0  0  0  0  0  0  0  0  0  0
  2 10  1  0
  2  1  1  6
  3  2  1  0
  4  5  2  0
  4  3  1  0
  6  5  1  0
  7  6  2  0
  8  7  1  0
  8  9  2  0
  9  4  1  0
 10 11  2  0
 13 14  1  1
 13 12  1  0
 15 13  1  0
 16 10  1  0
 15 16  1  6
 17 15  1  0
 18 17  2  0
 19 17  1  0
 19 23  1  0
 20 21  1  0
 20 19  1  0
 21 22  1  0
 22 23  1  0
 24 25  1  0
 23 24  1  1
 26 24  2  0
M  END
$$$$
