FVP.pdb
     RDKit          3D

 26 27  0  0  1  0  0  0  0  0999 V2000
   25.7404  -22.4470  -12.4112 N   0  0  0  0  0  0  0  0  0  0  0  0
   25.3065  -21.0666  -12.3913 C   0  0  1  0  0  0  0  0  0  0  0  0
   25.9277  -20.4226  -11.1690 C   0  0  0  0  0  0  0  0  0  0  0  0
   25.1016  -20.8212  -10.0013 C   0  0  0  0  0  0  0  0  0  0  0  0
   23.7414  -20.9782  -10.1319 C   0  0  0  0  0  0  0  0  0  0  0  0
   22.9446  -21.3510   -9.0534 C   0  0  0  0  0  0  0  0  0  0  0  0
   23.5688  -21.5575   -7.8478 C   0  0  0  0  0  0  0  0  0  0  0  0
   24.9310  -21.4017   -7.7110 C   0  0  0  0  0  0  0  0  0  0  0  0
   25.7197  -21.0302   -8.7888 C   0  0  0  0  0  0  0  0  0  0  0  0
   25.8047  -20.4061  -13.6471 C   0  0  0  0  0  0  0  0  0  0  0  0
   26.7599  -20.8976  -14.2947 O   0  0  0  0  0  0  0  0  0  0  0  0
   25.7764  -20.9856  -16.2932 C   0  0  0  0  0  0  0  0  0  0  0  0
   25.1879  -19.5950  -16.4616 C   0  0  1  0  0  0  0  0  0  0  0  0
   23.6819  -19.6043  -16.5095 C   0  0  0  0  0  0  0  0  0  0  0  0
   25.7014  -18.6567  -15.3848 C   0  0  2  0  0  0  0  0  0  0  0  0
   25.2067  -19.2167  -14.1247 N   0  0  0  0  0  0  0  0  0  0  0  0
   25.1560  -17.2991  -15.6021 C   0  0  0  0  0  0  0  0  0  0  0  0
   23.9451  -17.1036  -15.2247 O   0  0  0  0  0  0  0  0  0  0  0  0
   25.8836  -16.2524  -16.1802 N   0  0  0  0  0  0  0  0  0  0  0  0
   27.1536  -16.3056  -16.8545 C   0  0  0  0  0  0  0  0  0  0  0  0
   27.7089  -14.8869  -16.7785 C   0  0  0  0  0  0  0  0  0  0  0  0
   26.7962  -14.2063  -15.8073 C   0  0  0  0  0  0  0  0  0  0  0  0
   25.4437  -14.8458  -16.1647 C   0  0  1  0  0  0  0  0  0  0  0  0
   25.0927  -14.3836  -17.5173 C   0  0  0  0  0  0  0  0  0  0  0  0
   24.6720  -13.0703  -17.6562 O   0  0  0  0  0  0  0  0  0  0  0  0
   25.1456  -15.0885  -18.5531 O   0  0  0  0  0  0  0  0  0  0  0  0
  2 10  1  0
  2  1  1  6
  3  2  1  0
  4  5  2  0
  4  3  1  0
  6  5  1  0
  7  6  2  0
  8  7  1  0
  8  9  2  0
  9  4  1  0
 10 11  2  0
 13 14  1  1
 13 12  1  0
 15 13  1  0
 16 10  1  0
 15 16  1  1
 17 15  1  0
 18 17  2  0
 19 17  1  0
 19 23  1  0
 20 21  1  0
 20 19  1  0
 21 22  1  0
 22 23  1  0
 24 25  1  0
 23 24  1  6
 26 24  2  0
M  END
$$$$
