FVP.pdb
     RDKit          3D

 26 27  0  0  1  0  0  0  0  0999 V2000
   23.2073  -19.1737  -18.8655 N   0  0  0  0  0  0  0  0  0  0  0  0
   22.8883  -18.9210  -17.4767 C   0  0  1  0  0  0  0  0  0  0  0  0
   21.6016  -19.6609  -17.1741 C   0  0  0  0  0  0  0  0  0  0  0  0
   20.4958  -18.8710  -17.7726 C   0  0  0  0  0  0  0  0  0  0  0  0
   20.2416  -17.5903  -17.3402 C   0  0  0  0  0  0  0  0  0  0  0  0
   19.2115  -16.8289  -17.8845 C   0  0  0  0  0  0  0  0  0  0  0  0
   18.4540  -17.4056  -18.8742 C   0  0  0  0  0  0  0  0  0  0  0  0
   18.7040  -18.6882  -19.3114 C   0  0  0  0  0  0  0  0  0  0  0  0
   19.7314  -19.4419  -18.7656 C   0  0  0  0  0  0  0  0  0  0  0  0
   24.0154  -19.4566  -16.6375 C   0  0  0  0  0  0  0  0  0  0  0  0
   24.4451  -20.6224  -16.8093 O   0  0  0  0  0  0  0  0  0  0  0  0
   27.4106  -18.1546  -16.1421 C   0  0  0  0  0  0  0  0  0  0  0  0
   26.7837  -18.2828  -14.7641 C   0  0  1  0  0  0  0  0  0  0  0  0
   26.3549  -16.9546  -14.1961 C   0  0  0  0  0  0  0  0  0  0  0  0
   25.6338  -19.2733  -14.7833 C   0  0  2  0  0  0  0  0  0  0  0  0
   24.6149  -18.6570  -15.6367 N   0  0  0  0  0  0  0  0  0  0  0  0
   25.1172  -19.4673  -13.4111 C   0  0  0  0  0  0  0  0  0  0  0  0
   24.0202  -18.8664  -13.1242 O   0  0  0  0  0  0  0  0  0  0  0  0
   25.7531  -20.2563  -12.4454 N   0  0  0  0  0  0  0  0  0  0  0  0
   27.0135  -20.9446  -12.5347 C   0  0  0  0  0  0  0  0  0  0  0  0
   26.9479  -22.0427  -11.4780 C   0  0  0  0  0  0  0  0  0  0  0  0
   25.5105  -22.0409  -11.0614 C   0  0  0  0  0  0  0  0  0  0  0  0
   25.1819  -20.5393  -11.1165 C   0  0  1  0  0  0  0  0  0  0  0  0
   25.9631  -19.8881  -10.0526 C   0  0  0  0  0  0  0  0  0  0  0  0
   25.4595  -19.9442   -8.7624 O   0  0  0  0  0  0  0  0  0  0  0  0
   27.0498  -19.2865  -10.2255 O   0  0  0  0  0  0  0  0  0  0  0  0
  2 10  1  0
  2  1  1  6
  3  2  1  0
  4  5  2  0
  4  3  1  0
  6  5  1  0
  7  6  2  0
  8  7  1  0
  8  9  2  0
  9  4  1  0
 10 11  2  0
 13 14  1  6
 13 12  1  0
 15 13  1  0
 16 10  1  0
 15 16  1  6
 17 15  1  0
 18 17  2  0
 19 17  1  0
 19 23  1  0
 20 21  1  0
 20 19  1  0
 21 22  1  0
 22 23  1  0
 24 25  1  0
 23 24  1  1
 26 24  2  0
M  END
$$$$
