FVP.pdb
     RDKit          3D

 26 27  0  0  1  0  0  0  0  0999 V2000
   24.0658  -21.1110  -10.0608 N   0  0  0  0  0  0  0  0  0  0  0  0
   25.2088  -20.5030  -10.7073 C   0  0  1  0  0  0  0  0  0  0  0  0
   26.4482  -21.0896  -10.0634 C   0  0  0  0  0  0  0  0  0  0  0  0
   26.5873  -20.4521   -8.7295 C   0  0  0  0  0  0  0  0  0  0  0  0
   26.2760  -21.1524   -7.5874 C   0  0  0  0  0  0  0  0  0  0  0  0
   26.3976  -20.5783   -6.3254 C   0  0  0  0  0  0  0  0  0  0  0  0
   26.8421  -19.2805   -6.2614 C   0  0  0  0  0  0  0  0  0  0  0  0
   27.1555  -18.5741   -7.4021 C   0  0  0  0  0  0  0  0  0  0  0  0
   27.0323  -19.1511   -8.6566 C   0  0  0  0  0  0  0  0  0  0  0  0
   25.1560  -20.8545  -12.1685 C   0  0  0  0  0  0  0  0  0  0  0  0
   25.0398  -22.0477  -12.5374 O   0  0  0  0  0  0  0  0  0  0  0  0
   22.6380  -20.1888  -14.4452 C   0  0  0  0  0  0  0  0  0  0  0  0
   23.8773  -19.5787  -15.0779 C   0  0  1  0  0  0  0  0  0  0  0  0
   23.9431  -18.0838  -14.9004 C   0  0  0  0  0  0  0  0  0  0  0  0
   25.1354  -20.2529  -14.5620 C   0  0  2  0  0  0  0  0  0  0  0  0
   25.2362  -19.8470  -13.1579 N   0  0  0  0  0  0  0  0  0  0  0  0
   26.3081  -19.7777  -15.3279 C   0  0  0  0  0  0  0  0  0  0  0  0
   26.7699  -18.6242  -15.0067 O   0  0  0  0  0  0  0  0  0  0  0  0
   26.9168  -20.5119  -16.3524 N   0  0  0  0  0  0  0  0  0  0  0  0
   26.5541  -21.8046  -16.8697 C   0  0  0  0  0  0  0  0  0  0  0  0
   27.8174  -22.3398  -17.5364 C   0  0  0  0  0  0  0  0  0  0  0  0
   28.8799  -21.3864  -17.0874 C   0  0  0  0  0  0  0  0  0  0  0  0
   28.1102  -20.0547  -17.0867 C   0  0  1  0  0  0  0  0  0  0  0  0
   27.7854  -19.7443  -18.4883 C   0  0  0  0  0  0  0  0  0  0  0  0
   28.8277  -19.3607  -19.3175 O   0  0  0  0  0  0  0  0  0  0  0  0
   26.6368  -19.8008  -18.9886 O   0  0  0  0  0  0  0  0  0  0  0  0
  2 10  1  0
  2  1  1  1
  3  2  1  0
  4  5  2  0
  4  3  1  0
  6  5  1  0
  7  6  2  0
  8  7  1  0
  8  9  2  0
  9  4  1  0
 10 11  2  0
 13 14  1  1
 13 12  1  0
 15 13  1  0
 16 10  1  0
 15 16  1  1
 17 15  1  0
 18 17  2  0
 19 17  1  0
 19 23  1  0
 20 21  1  0
 20 19  1  0
 21 22  1  0
 22 23  1  0
 24 25  1  0
 23 24  1  6
 26 24  2  0
M  END
$$$$
