FVP.pdb
     RDKit          3D

 26 27  0  0  1  0  0  0  0  0999 V2000
   24.9167  -19.8603   -7.7605 N   0  0  0  0  0  0  0  0  0  0  0  0
   26.1863  -20.1109   -8.4083 C   0  0  1  0  0  0  0  0  0  0  0  0
   26.8769  -21.2075   -7.6241 C   0  0  0  0  0  0  0  0  0  0  0  0
   27.4645  -20.5735   -6.4167 C   0  0  0  0  0  0  0  0  0  0  0  0
   28.3456  -19.5246   -6.5400 C   0  0  0  0  0  0  0  0  0  0  0  0
   28.9102  -18.9129   -5.4246 C   0  0  0  0  0  0  0  0  0  0  0  0
   28.5540  -19.3971   -4.1899 C   0  0  0  0  0  0  0  0  0  0  0  0
   27.6718  -20.4476   -4.0602 C   0  0  0  0  0  0  0  0  0  0  0  0
   27.1125  -21.0530   -5.1748 C   0  0  0  0  0  0  0  0  0  0  0  0
   25.9074  -20.5630   -9.8152 C   0  0  0  0  0  0  0  0  0  0  0  0
   24.7676  -20.9708  -10.1438 O   0  0  0  0  0  0  0  0  0  0  0  0
   28.9206  -20.7363  -12.6330 C   0  0  0  0  0  0  0  0  0  0  0  0
   27.9461  -19.5728  -12.7028 C   0  0  1  0  0  0  0  0  0  0  0  0
   27.7884  -19.0310  -14.1000 C   0  0  0  0  0  0  0  0  0  0  0  0
   26.6051  -19.9540  -12.1028 C   0  0  2  0  0  0  0  0  0  0  0  0
   26.9244  -20.5380  -10.7977 N   0  0  0  0  0  0  0  0  0  0  0  0
   25.9335  -20.9474  -12.9686 C   0  0  0  0  0  0  0  0  0  0  0  0
   26.2826  -22.1720  -12.8089 O   0  0  0  0  0  0  0  0  0  0  0  0
   24.9623  -20.6179  -13.9211 N   0  0  0  0  0  0  0  0  0  0  0  0
   24.5045  -19.3149  -14.3245 C   0  0  0  0  0  0  0  0  0  0  0  0
   23.1253  -19.5441  -14.9346 C   0  0  0  0  0  0  0  0  0  0  0  0
   22.8113  -20.9600  -14.5655 C   0  0  0  0  0  0  0  0  0  0  0  0
   24.1963  -21.6180  -14.6863 C   0  0  1  0  0  0  0  0  0  0  0  0
   24.5628  -21.5916  -16.1115 C   0  0  0  0  0  0  0  0  0  0  0  0
   25.5060  -20.6587  -16.5131 O   0  0  0  0  0  0  0  0  0  0  0  0
   24.0861  -22.3495  -16.9896 O   0  0  0  0  0  0  0  0  0  0  0  0
  2 10  1  0
  2  1  1  1
  3  2  1  0
  4  5  2  0
  4  3  1  0
  6  5  1  0
  7  6  2  0
  8  7  1  0
  8  9  2  0
  9  4  1  0
 10 11  2  0
 13 14  1  6
 13 12  1  0
 15 13  1  0
 16 10  1  0
 15 16  1  1
 17 15  1  0
 18 17  2  0
 19 17  1  0
 19 23  1  0
 20 21  1  0
 20 19  1  0
 21 22  1  0
 22 23  1  0
 24 25  1  0
 23 24  1  6
 26 24  2  0
M  END
$$$$
