FVP.pdb
     RDKit          3D

 26 27  0  0  1  0  0  0  0  0999 V2000
   25.0555  -21.5809  -13.0896 N   0  0  0  0  0  0  0  0  0  0  0  0
   24.6256  -20.9356  -11.8678 C   0  0  1  0  0  0  0  0  0  0  0  0
   23.2186  -21.4180  -11.5812 C   0  0  0  0  0  0  0  0  0  0  0  0
   22.3206  -20.7357  -12.5471 C   0  0  0  0  0  0  0  0  0  0  0  0
   21.7906  -21.4258  -13.6123 C   0  0  0  0  0  0  0  0  0  0  0  0
   20.9466  -20.8099  -14.5317 C   0  0  0  0  0  0  0  0  0  0  0  0
   20.6605  -19.4811  -14.3358 C   0  0  0  0  0  0  0  0  0  0  0  0
   21.1884  -18.7846  -13.2705 C   0  0  0  0  0  0  0  0  0  0  0  0
   22.0286  -19.4034  -12.3579 C   0  0  0  0  0  0  0  0  0  0  0  0
   25.5619  -21.3546  -10.7682 C   0  0  0  0  0  0  0  0  0  0  0  0
   25.6315  -22.5538  -10.4073 O   0  0  0  0  0  0  0  0  0  0  0  0
   28.7672  -21.8712  -10.7824 C   0  0  0  0  0  0  0  0  0  0  0  0
   28.6584  -20.8656   -9.6486 C   0  0  1  0  0  0  0  0  0  0  0  0
   29.0643  -19.4756  -10.0651 C   0  0  0  0  0  0  0  0  0  0  0  0
   27.2651  -20.8780   -9.0469 C   0  0  2  0  0  0  0  0  0  0  0  0
   26.3840  -20.4052  -10.1176 N   0  0  0  0  0  0  0  0  0  0  0  0
   27.2129  -19.9629   -7.8861 C   0  0  0  0  0  0  0  0  0  0  0  0
   26.4819  -18.9163   -8.0171 O   0  0  0  0  0  0  0  0  0  0  0  0
   27.9025  -20.1862   -6.6887 N   0  0  0  0  0  0  0  0  0  0  0  0
   28.8441  -21.2278   -6.3743 C   0  0  0  0  0  0  0  0  0  0  0  0
   28.8454  -21.3227   -4.8519 C   0  0  0  0  0  0  0  0  0  0  0  0
   27.6727  -20.4849   -4.4489 C   0  0  0  0  0  0  0  0  0  0  0  0
   27.7414  -19.3505   -5.4853 C   0  0  1  0  0  0  0  0  0  0  0  0
   28.9652  -18.5830   -5.2033 C   0  0  0  0  0  0  0  0  0  0  0  0
   30.0318  -18.7353   -6.0754 O   0  0  0  0  0  0  0  0  0  0  0  0
   29.1156  -17.8020   -4.2338 O   0  0  0  0  0  0  0  0  0  0  0  0
  2 10  1  0
  2  1  1  6
  3  2  1  0
  4  5  2  0
  4  3  1  0
  6  5  1  0
  7  6  2  0
  8  7  1  0
  8  9  2  0
  9  4  1  0
 10 11  2  0
 13 14  1  6
 13 12  1  0
 15 13  1  0
 16 10  1  0
 15 16  1  6
 17 15  1  0
 18 17  2  0
 19 17  1  0
 19 23  1  0
 20 21  1  0
 20 19  1  0
 21 22  1  0
 22 23  1  0
 24 25  1  0
 23 24  1  1
 26 24  2  0
M  END
$$$$
