FVP.pdb
     RDKit          3D

 26 27  0  0  1  0  0  0  0  0999 V2000
   24.3786  -21.1097   -9.9818 N   0  0  0  0  0  0  0  0  0  0  0  0
   25.4600  -20.4444  -10.6763 C   0  0  1  0  0  0  0  0  0  0  0  0
   26.7523  -20.9132  -10.0400 C   0  0  0  0  0  0  0  0  0  0  0  0
   26.8509  -20.2472   -8.7165 C   0  0  0  0  0  0  0  0  0  0  0  0
   27.4867  -19.0338   -8.5933 C   0  0  0  0  0  0  0  0  0  0  0  0
   27.5929  -18.3887   -7.3646 C   0  0  0  0  0  0  0  0  0  0  0  0
   27.0369  -19.0109   -6.2739 C   0  0  0  0  0  0  0  0  0  0  0  0
   26.3988  -20.2264   -6.3912 C   0  0  0  0  0  0  0  0  0  0  0  0
   26.2961  -20.8643   -7.6177 C   0  0  0  0  0  0  0  0  0  0  0  0
   25.4039  -20.8544  -12.1220 C   0  0  0  0  0  0  0  0  0  0  0  0
   25.2483  -22.0571  -12.4420 O   0  0  0  0  0  0  0  0  0  0  0  0
   25.0043  -18.2880  -15.9188 C   0  0  0  0  0  0  0  0  0  0  0  0
   24.3279  -19.3988  -15.1333 C   0  0  1  0  0  0  0  0  0  0  0  0
   23.3055  -20.1468  -15.9494 C   0  0  0  0  0  0  0  0  0  0  0  0
   25.3561  -20.3418  -14.5357 C   0  0  2  0  0  0  0  0  0  0  0  0
   25.5255  -19.8924  -13.1517 N   0  0  0  0  0  0  0  0  0  0  0  0
   26.6294  -20.2307  -15.2798 C   0  0  0  0  0  0  0  0  0  0  0  0
   27.3327  -19.1813  -15.0537 O   0  0  0  0  0  0  0  0  0  0  0  0
   27.0856  -21.1933  -16.1879 N   0  0  0  0  0  0  0  0  0  0  0  0
   26.4360  -22.4032  -16.6173 C   0  0  0  0  0  0  0  0  0  0  0  0
   27.5562  -23.2983  -17.1377 C   0  0  0  0  0  0  0  0  0  0  0  0
   28.8001  -22.5945  -16.6938 C   0  0  0  0  0  0  0  0  0  0  0  0
   28.3919  -21.1216  -16.8667 C   0  0  1  0  0  0  0  0  0  0  0  0
   28.2286  -20.8865  -18.3104 C   0  0  0  0  0  0  0  0  0  0  0  0
   29.3790  -20.7418  -19.0699 O   0  0  0  0  0  0  0  0  0  0  0  0
   27.1272  -20.8074  -18.9049 O   0  0  0  0  0  0  0  0  0  0  0  0
  2 10  1  0
  2  1  1  1
  3  2  1  0
  4  5  2  0
  4  3  1  0
  6  5  1  0
  7  6  2  0
  8  7  1  0
  8  9  2  0
  9  4  1  0
 10 11  2  0
 13 14  1  6
 13 12  1  0
 15 13  1  0
 16 10  1  0
 15 16  1  1
 17 15  1  0
 18 17  2  0
 19 17  1  0
 19 23  1  0
 20 21  1  0
 20 19  1  0
 21 22  1  0
 22 23  1  0
 24 25  1  0
 23 24  1  6
 26 24  2  0
M  END
$$$$
