FVP.pdb
     RDKit          3D

 26 27  0  0  1  0  0  0  0  0999 V2000
   23.0167  -21.3640  -15.7973 N   0  0  0  0  0  0  0  0  0  0  0  0
   23.0425  -20.4363  -14.6869 C   0  0  1  0  0  0  0  0  0  0  0  0
   21.6260  -20.3336  -14.1601 C   0  0  0  0  0  0  0  0  0  0  0  0
   20.8635  -19.5011  -15.1248 C   0  0  0  0  0  0  0  0  0  0  0  0
   21.0148  -18.1341  -15.1364 C   0  0  0  0  0  0  0  0  0  0  0  0
   20.3121  -17.3312  -16.0301 C   0  0  0  0  0  0  0  0  0  0  0  0
   19.4578  -17.9566  -16.9047 C   0  0  0  0  0  0  0  0  0  0  0  0
   19.3022  -19.3257  -16.8978 C   0  0  0  0  0  0  0  0  0  0  0  0
   20.0047  -20.1203  -16.0052 C   0  0  0  0  0  0  0  0  0  0  0  0
   23.9579  -20.9984  -13.6345 C   0  0  0  0  0  0  0  0  0  0  0  0
   23.6562  -22.0469  -13.0156 O   0  0  0  0  0  0  0  0  0  0  0  0
   27.5155  -21.8420  -14.0483 C   0  0  0  0  0  0  0  0  0  0  0  0
   27.4198  -20.9404  -12.8291 C   0  0  1  0  0  0  0  0  0  0  0  0
   27.9002  -19.5391  -13.1048 C   0  0  0  0  0  0  0  0  0  0  0  0
   26.0105  -20.9412  -12.2655 C   0  0  2  0  0  0  0  0  0  0  0  0
   25.1785  -20.3568  -13.3203 N   0  0  0  0  0  0  0  0  0  0  0  0
   25.9603  -20.1118  -11.0419 C   0  0  0  0  0  0  0  0  0  0  0  0
   25.6875  -18.8686  -11.2061 O   0  0  0  0  0  0  0  0  0  0  0  0
   26.1871  -20.6116   -9.7542 N   0  0  0  0  0  0  0  0  0  0  0  0
   26.5068  -21.9566   -9.3554 C   0  0  0  0  0  0  0  0  0  0  0  0
   26.1048  -22.0469   -7.8868 C   0  0  0  0  0  0  0  0  0  0  0  0
   25.3263  -20.7891   -7.6599 C   0  0  0  0  0  0  0  0  0  0  0  0
   26.1047  -19.7904   -8.5331 C   0  0  1  0  0  0  0  0  0  0  0  0
   27.4302  -19.6208   -7.9161 C   0  0  0  0  0  0  0  0  0  0  0  0
   27.5199  -18.7920   -6.8088 O   0  0  0  0  0  0  0  0  0  0  0  0
   28.4842  -20.1695   -8.3169 O   0  0  0  0  0  0  0  0  0  0  0  0
  2 10  1  0
  2  1  1  6
  3  2  1  0
  4  5  2  0
  4  3  1  0
  6  5  1  0
  7  6  2  0
  8  7  1  0
  8  9  2  0
  9  4  1  0
 10 11  2  0
 13 14  1  6
 13 12  1  0
 15 13  1  0
 16 10  1  0
 15 16  1  6
 17 15  1  0
 18 17  2  0
 19 17  1  0
 19 23  1  0
 20 21  1  0
 20 19  1  0
 21 22  1  0
 22 23  1  0
 24 25  1  0
 23 24  1  1
 26 24  2  0
M  END
$$$$
