FVP.pdb
     RDKit          3D

 26 27  0  0  1  0  0  0  0  0999 V2000
   25.1946  -21.7277  -12.4022 N   0  0  0  0  0  0  0  0  0  0  0  0
   25.0552  -20.7344  -11.3591 C   0  0  1  0  0  0  0  0  0  0  0  0
   23.5897  -20.6919  -10.9783 C   0  0  0  0  0  0  0  0  0  0  0  0
   22.8586  -20.1068  -12.1307 C   0  0  0  0  0  0  0  0  0  0  0  0
   23.2858  -18.9306  -12.7016 C   0  0  0  0  0  0  0  0  0  0  0  0
   22.6186  -18.3613  -13.7823 C   0  0  0  0  0  0  0  0  0  0  0  0
   21.5125  -19.0199  -14.2605 C   0  0  0  0  0  0  0  0  0  0  0  0
   21.0800  -20.1984  -13.6927 C   0  0  0  0  0  0  0  0  0  0  0  0
   21.7485  -20.7608  -12.6164 C   0  0  0  0  0  0  0  0  0  0  0  0
   25.8927  -21.1708  -10.1887 C   0  0  0  0  0  0  0  0  0  0  0  0
   25.6789  -22.2687   -9.6211 O   0  0  0  0  0  0  0  0  0  0  0  0
   29.2258  -21.9445  -10.1529 C   0  0  0  0  0  0  0  0  0  0  0  0
   29.1237  -20.9472   -9.0113 C   0  0  1  0  0  0  0  0  0  0  0  0
   29.7099  -19.6037   -9.3604 C   0  0  0  0  0  0  0  0  0  0  0  0
   27.6889  -20.8174   -8.5336 C   0  0  2  0  0  0  0  0  0  0  0  0
   26.9391  -20.3525   -9.7032 N   0  0  0  0  0  0  0  0  0  0  0  0
   27.6136  -19.8265   -7.4381 C   0  0  0  0  0  0  0  0  0  0  0  0
   26.9864  -18.7371   -7.6963 O   0  0  0  0  0  0  0  0  0  0  0  0
   28.1769  -20.0233   -6.1720 N   0  0  0  0  0  0  0  0  0  0  0  0
   28.9537  -21.1375   -5.6970 C   0  0  0  0  0  0  0  0  0  0  0  0
   28.8275  -21.0969   -4.1773 C   0  0  0  0  0  0  0  0  0  0  0  0
   27.7422  -20.0934   -3.9438 C   0  0  0  0  0  0  0  0  0  0  0  0
   28.0312  -19.0713   -5.0562 C   0  0  1  0  0  0  0  0  0  0  0  0
   29.3168  -18.4327   -4.7310 C   0  0  0  0  0  0  0  0  0  0  0  0
   29.3331  -17.5209   -3.6872 O   0  0  0  0  0  0  0  0  0  0  0  0
   30.3983  -18.6515   -5.3271 O   0  0  0  0  0  0  0  0  0  0  0  0
  2 10  1  0
  2  1  1  6
  3  2  1  0
  4  5  2  0
  4  3  1  0
  6  5  1  0
  7  6  2  0
  8  7  1  0
  8  9  2  0
  9  4  1  0
 10 11  2  0
 13 14  1  6
 13 12  1  0
 15 13  1  0
 16 10  1  0
 15 16  1  6
 17 15  1  0
 18 17  2  0
 19 17  1  0
 19 23  1  0
 20 21  1  0
 20 19  1  0
 21 22  1  0
 22 23  1  0
 24 25  1  0
 23 24  1  1
 26 24  2  0
M  END
$$$$
