CNA.pdb
     RDKit          3D

 20 19  0  0  1  0  0  0  0  0999 V2000
   19.0343  -11.3468  -15.4573 N   0  0  0  0  0  0  0  0  0  0  0  0
   19.2222  -10.1468  -16.2489 C   0  0  1  0  0  0  0  0  0  0  0  0
   18.0836   -9.9360  -17.1934 C   0  0  0  0  0  0  0  0  0  0  0  0
   17.9236  -11.3125  -18.3442 S   0  0  0  0  0  0  0  0  0  0  0  0
   19.4470   -8.9669  -15.3963 C   0  0  0  0  0  0  0  0  0  0  0  0
   18.7942   -8.9079  -14.3118 O   0  0  0  0  0  0  0  0  0  0  0  0
   21.8488   -5.1999  -12.5989 N   0  0  0  0  0  0  0  0  0  0  0  0
   22.3708   -5.3419  -13.9052 C   0  0  0  0  0  0  0  0  0  0  0  0
   23.0841   -4.4292  -14.3779 O   0  0  0  0  0  0  0  0  0  0  0  0
   22.0855   -6.5326  -14.6953 C   0  0  0  0  0  0  0  0  0  0  0  0
   20.5887   -6.7749  -14.8678 C   0  0  2  0  0  0  0  0  0  0  0  0
   20.3417   -7.9139  -15.7243 N   0  0  0  0  0  0  0  0  0  0  0  0
   20.0476   -5.5670  -15.5307 C   0  0  0  0  0  0  0  0  0  0  0  0
   20.4091   -5.3000  -16.6987 O   0  0  0  0  0  0  0  0  0  0  0  0
   17.1570   -3.2827  -15.1413 C   0  0  0  0  0  0  0  0  0  0  0  0
   18.5687   -3.5519  -15.6005 C   0  0  2  0  0  0  0  0  0  0  0  0
   19.1268   -4.6888  -14.8927 N   0  0  0  0  0  0  0  0  0  0  0  0
   19.4448   -2.3720  -15.4480 C   0  0  0  0  0  0  0  0  0  0  0  0
   20.3589   -2.3313  -14.5889 O   0  0  0  0  0  0  0  0  0  0  0  0
   19.2611   -1.2772  -16.2695 O   0  0  0  0  0  0  0  0  0  0  0  0
  2  1  1  1
  2  5  1  0
  3  2  1  0
  4  3  1  0
  5 12  1  0
  5  6  2  0
  7  8  1  0
  8 10  1  0
  8  9  2  0
 11 10  1  6
 11 13  1  0
 12 11  1  0
 13 14  2  0
 16 15  1  1
 16 18  1  0
 17 16  1  0
 17 13  1  0
 18 20  1  0
 19 18  2  0
M  END
$$$$
