CNA.pdb
     RDKit          3D

 20 19  0  0  1  0  0  0  0  0999 V2000
   13.5448  -11.7457   -9.1690 N   0  0  0  0  0  0  0  0  0  0  0  0
   13.4861  -10.3392   -9.5158 C   0  0  1  0  0  0  0  0  0  0  0  0
   12.7252   -9.5594   -8.4931 C   0  0  0  0  0  0  0  0  0  0  0  0
   10.9816  -10.0114   -8.4885 S   0  0  0  0  0  0  0  0  0  0  0  0
   14.8311   -9.7804   -9.7358 C   0  0  0  0  0  0  0  0  0  0  0  0
   15.5942   -9.7036   -8.7271 O   0  0  0  0  0  0  0  0  0  0  0  0
   19.2178   -8.0154  -11.8284 N   0  0  0  0  0  0  0  0  0  0  0  0
   18.5301   -8.7566  -12.8167 C   0  0  0  0  0  0  0  0  0  0  0  0
   19.1024   -9.0007  -13.9022 O   0  0  0  0  0  0  0  0  0  0  0  0
   17.1732   -9.2325  -12.5803 C   0  0  0  0  0  0  0  0  0  0  0  0
   16.6348   -8.8098  -11.2164 C   0  0  2  0  0  0  0  0  0  0  0  0
   15.3042   -9.3328  -10.9978 N   0  0  0  0  0  0  0  0  0  0  0  0
   16.5564   -7.3318  -11.2422 C   0  0  0  0  0  0  0  0  0  0  0  0
   15.8655   -6.7742  -12.1243 O   0  0  0  0  0  0  0  0  0  0  0  0
   17.4478   -4.4580   -9.0111 C   0  0  0  0  0  0  0  0  0  0  0  0
   17.1270   -5.0649  -10.3546 C   0  0  2  0  0  0  0  0  0  0  0  0
   17.2377   -6.5105  -10.3002 N   0  0  0  0  0  0  0  0  0  0  0  0
   17.9795   -4.5252  -11.4339 C   0  0  0  0  0  0  0  0  0  0  0  0
   18.8304   -5.2343  -12.0243 O   0  0  0  0  0  0  0  0  0  0  0  0
   17.8443   -3.2038  -11.8117 O   0  0  0  0  0  0  0  0  0  0  0  0
  2  1  1  1
  2  5  1  0
  3  2  1  0
  4  3  1  0
  5 12  1  0
  5  6  2  0
  7  8  1  0
  8 10  1  0
  8  9  2  0
 11 10  1  6
 11 13  1  0
 12 11  1  0
 13 14  2  0
 16 15  1  1
 16 18  1  0
 17 16  1  0
 17 13  1  0
 18 20  1  0
 19 18  2  0
M  END
$$$$
