CNA.pdb
     RDKit          3D

 20 19  0  0  1  0  0  0  0  0999 V2000
   15.8842  -12.0827  -16.9441 N   0  0  0  0  0  0  0  0  0  0  0  0
   16.4866  -11.4398  -15.7927 C   0  0  1  0  0  0  0  0  0  0  0  0
   17.3799  -12.3807  -15.0514 C   0  0  0  0  0  0  0  0  0  0  0  0
   16.4319  -13.4835  -13.9884 S   0  0  0  0  0  0  0  0  0  0  0  0
   17.1933  -10.2043  -16.1721 C   0  0  0  0  0  0  0  0  0  0  0  0
   17.7637  -10.1921  -17.3036 O   0  0  0  0  0  0  0  0  0  0  0  0
   17.6573   -4.8746  -17.0927 N   0  0  0  0  0  0  0  0  0  0  0  0
   17.6635   -5.3463  -15.7598 C   0  0  0  0  0  0  0  0  0  0  0  0
   18.2239   -4.6620  -14.8749 O   0  0  0  0  0  0  0  0  0  0  0  0
   17.0277   -6.6113  -15.4151 C   0  0  0  0  0  0  0  0  0  0  0  0
   17.9031   -7.8157  -15.7494 C   0  0  2  0  0  0  0  0  0  0  0  0
   17.2647   -9.0499  -15.3480 N   0  0  0  0  0  0  0  0  0  0  0  0
   19.1458   -7.6558  -14.9612 C   0  0  0  0  0  0  0  0  0  0  0  0
   19.0984   -7.7836  -13.7172 O   0  0  0  0  0  0  0  0  0  0  0  0
   22.8305   -7.5137  -15.5553 C   0  0  0  0  0  0  0  0  0  0  0  0
   21.5945   -7.1955  -14.7507 C   0  0  2  0  0  0  0  0  0  0  0  0
   20.4025   -7.3607  -15.5611 N   0  0  0  0  0  0  0  0  0  0  0  0
   21.6356   -5.8379  -14.1691 C   0  0  0  0  0  0  0  0  0  0  0  0
   21.1462   -4.8467  -14.7635 O   0  0  0  0  0  0  0  0  0  0  0  0
   22.2273   -5.6432  -12.9365 O   0  0  0  0  0  0  0  0  0  0  0  0
  2  1  1  6
  2  5  1  0
  3  2  1  0
  4  3  1  0
  5 12  1  0
  5  6  2  0
  7  8  1  0
  8 10  1  0
  8  9  2  0
 11 10  1  1
 11 13  1  0
 12 11  1  0
 13 14  2  0
 16 15  1  6
 16 18  1  0
 17 16  1  0
 17 13  1  0
 18 20  1  0
 19 18  2  0
M  END
$$$$
