CNA.pdb
     RDKit          3D

 20 19  0  0  1  0  0  0  0  0999 V2000
   15.8437  -11.0991  -15.8861 N   0  0  0  0  0  0  0  0  0  0  0  0
   16.9254  -10.6652  -15.0238 C   0  0  1  0  0  0  0  0  0  0  0  0
   18.0427  -11.6574  -15.0138 C   0  0  0  0  0  0  0  0  0  0  0  0
   17.6382  -13.0894  -13.9985 S   0  0  0  0  0  0  0  0  0  0  0  0
   17.3978   -9.3180  -15.3861 C   0  0  0  0  0  0  0  0  0  0  0  0
   17.5635   -9.0787  -16.6194 O   0  0  0  0  0  0  0  0  0  0  0  0
   15.7918   -4.3378  -15.5108 N   0  0  0  0  0  0  0  0  0  0  0  0
   16.0889   -5.6407  -15.0491 C   0  0  0  0  0  0  0  0  0  0  0  0
   15.3277   -6.5842  -15.3588 O   0  0  0  0  0  0  0  0  0  0  0  0
   17.2640   -5.8878  -14.2236 C   0  0  0  0  0  0  0  0  0  0  0  0
   18.1608   -6.9818  -14.7959 C   0  0  2  0  0  0  0  0  0  0  0  0
   17.6709   -8.2952  -14.4393 N   0  0  0  0  0  0  0  0  0  0  0  0
   19.4905   -6.7952  -14.1728 C   0  0  0  0  0  0  0  0  0  0  0  0
   19.6020   -6.9063  -12.9312 O   0  0  0  0  0  0  0  0  0  0  0  0
   23.0594   -6.4035  -15.3049 C   0  0  0  0  0  0  0  0  0  0  0  0
   21.9493   -6.3543  -14.2845 C   0  0  2  0  0  0  0  0  0  0  0  0
   20.6572   -6.4927  -14.9299 N   0  0  0  0  0  0  0  0  0  0  0  0
   21.9871   -5.1217  -13.4707 C   0  0  0  0  0  0  0  0  0  0  0  0
   21.2922   -4.1165  -13.7569 O   0  0  0  0  0  0  0  0  0  0  0  0
   22.8072   -5.0635  -12.3611 O   0  0  0  0  0  0  0  0  0  0  0  0
  2  1  1  6
  2  5  1  0
  3  2  1  0
  4  3  1  0
  5 12  1  0
  5  6  2  0
  7  8  1  0
  8 10  1  0
  8  9  2  0
 11 10  1  1
 11 13  1  0
 12 11  1  0
 13 14  2  0
 16 15  1  6
 16 18  1  0
 17 16  1  0
 17 13  1  0
 18 20  1  0
 19 18  2  0
M  END
$$$$
