CNA.pdb
     RDKit          3D

 20 19  0  0  1  0  0  0  0  0999 V2000
   22.3180  -12.4441  -17.4962 N   0  0  0  0  0  0  0  0  0  0  0  0
   22.5365  -11.5407  -16.3835 C   0  0  1  0  0  0  0  0  0  0  0  0
   23.9852  -11.4601  -16.0262 C   0  0  0  0  0  0  0  0  0  0  0  0
   24.5317  -12.9461  -15.1671 S   0  0  0  0  0  0  0  0  0  0  0  0
   21.9671  -10.2085  -16.6495 C   0  0  0  0  0  0  0  0  0  0  0  0
   22.1775   -9.7113  -17.7959 O   0  0  0  0  0  0  0  0  0  0  0  0
   17.6480   -8.8398  -17.2751 N   0  0  0  0  0  0  0  0  0  0  0  0
   18.2552   -9.1227  -16.0300 C   0  0  0  0  0  0  0  0  0  0  0  0
   18.0084  -10.2121  -15.4664 O   0  0  0  0  0  0  0  0  0  0  0  0
   19.1570   -8.1627  -15.4066 C   0  0  0  0  0  0  0  0  0  0  0  0
   20.5623   -8.2105  -15.9996 C   0  0  2  0  0  0  0  0  0  0  0  0
   21.2093   -9.4695  -15.7026 N   0  0  0  0  0  0  0  0  0  0  0  0
   21.3264   -7.1270  -15.3414 C   0  0  0  0  0  0  0  0  0  0  0  0
   21.7599   -7.3059  -14.1810 O   0  0  0  0  0  0  0  0  0  0  0  0
   22.7103   -3.7418  -16.2813 C   0  0  0  0  0  0  0  0  0  0  0  0
   22.4248   -4.8806  -15.3339 C   0  0  2  0  0  0  0  0  0  0  0  0
   21.5919   -5.8806  -15.9754 N   0  0  0  0  0  0  0  0  0  0  0  0
   21.8000   -4.4228  -14.0757 C   0  0  0  0  0  0  0  0  0  0  0  0
   20.5626   -4.5040  -13.8818 O   0  0  0  0  0  0  0  0  0  0  0  0
   22.5914   -3.8888  -13.0778 O   0  0  0  0  0  0  0  0  0  0  0  0
  2  1  1  6
  2  5  1  0
  3  2  1  0
  4  3  1  0
  5 12  1  0
  5  6  2  0
  7  8  1  0
  8 10  1  0
  8  9  2  0
 11 10  1  1
 11 13  1  0
 12 11  1  0
 13 14  2  0
 16 15  1  6
 16 18  1  0
 17 16  1  0
 17 13  1  0
 18 20  1  0
 19 18  2  0
M  END
$$$$
