CNA.pdb
     RDKit          3D

 20 19  0  0  1  0  0  0  0  0999 V2000
   18.2797   -9.7003  -10.4242 N   0  0  0  0  0  0  0  0  0  0  0  0
   17.6905   -9.1055  -11.6079 C   0  0  1  0  0  0  0  0  0  0  0  0
   17.4123  -10.1372  -12.6525 C   0  0  0  0  0  0  0  0  0  0  0  0
   18.9178  -10.9967  -13.1418 S   0  0  0  0  0  0  0  0  0  0  0  0
   16.4846   -8.3267  -11.2781 C   0  0  0  0  0  0  0  0  0  0  0  0
   15.8724   -7.7781  -12.2424 O   0  0  0  0  0  0  0  0  0  0  0  0
   13.1768   -9.4355  -10.4676 N   0  0  0  0  0  0  0  0  0  0  0  0
   13.1550   -9.1234   -9.0888 C   0  0  0  0  0  0  0  0  0  0  0  0
   12.4172   -9.7866   -8.3265 O   0  0  0  0  0  0  0  0  0  0  0  0
   13.9781   -8.0451   -8.5568 C   0  0  0  0  0  0  0  0  0  0  0  0
   14.8222   -7.3684   -9.6331 C   0  0  2  0  0  0  0  0  0  0  0  0
   15.9852   -8.1643   -9.9585 N   0  0  0  0  0  0  0  0  0  0  0  0
   15.2820   -6.0863   -9.0534 C   0  0  0  0  0  0  0  0  0  0  0  0
   16.1008   -6.1049   -8.1071 O   0  0  0  0  0  0  0  0  0  0  0  0
   15.3937   -2.5323  -10.1235 C   0  0  0  0  0  0  0  0  0  0  0  0
   15.4240   -3.5899   -9.0480 C   0  0  2  0  0  0  0  0  0  0  0  0
   14.8302   -4.8231   -9.5291 N   0  0  0  0  0  0  0  0  0  0  0  0
   14.7561   -3.1489   -7.8061 C   0  0  0  0  0  0  0  0  0  0  0  0
   15.1685   -2.1652   -7.1446 O   0  0  0  0  0  0  0  0  0  0  0  0
   13.6453   -3.8319   -7.3513 O   0  0  0  0  0  0  0  0  0  0  0  0
  2  1  1  1
  2  5  1  0
  3  2  1  0
  4  3  1  0
  5 12  1  0
  5  6  2  0
  7  8  1  0
  8 10  1  0
  8  9  2  0
 11 10  1  1
 11 13  1  0
 12 11  1  0
 13 14  2  0
 16 15  1  6
 16 18  1  0
 17 16  1  0
 17 13  1  0
 18 20  1  0
 19 18  2  0
M  END
$$$$
