CNA.pdb
     RDKit          3D

 20 19  0  0  1  0  0  0  0  0999 V2000
   27.7570  -26.1599  -16.5765 N   0  0  0  0  0  0  0  0  0  0  0  0
   26.6192  -25.4624  -17.1431 C   0  0  1  0  0  0  0  0  0  0  0  0
   25.6903  -26.4091  -17.8314 C   0  0  0  0  0  0  0  0  0  0  0  0
   25.1331  -27.7083  -16.7150 S   0  0  0  0  0  0  0  0  0  0  0  0
   25.9199  -24.6559  -16.1281 C   0  0  0  0  0  0  0  0  0  0  0  0
   26.4029  -24.6606  -14.9566 O   0  0  0  0  0  0  0  0  0  0  0  0
   26.4036  -20.7165  -16.6654 N   0  0  0  0  0  0  0  0  0  0  0  0
   25.4816  -20.9411  -15.6174 C   0  0  0  0  0  0  0  0  0  0  0  0
   25.7891  -20.6013  -14.4532 O   0  0  0  0  0  0  0  0  0  0  0  0
   24.1891  -21.5594  -15.8830 C   0  0  0  0  0  0  0  0  0  0  0  0
   24.1318  -23.0139  -15.4249 C   0  0  2  0  0  0  0  0  0  0  0  0
   24.7545  -23.8890  -16.3937 N   0  0  0  0  0  0  0  0  0  0  0  0
   22.6962  -23.3637  -15.3357 C   0  0  0  0  0  0  0  0  0  0  0  0
   22.0386  -23.5099  -16.3904 O   0  0  0  0  0  0  0  0  0  0  0  0
   20.1936  -24.2616  -12.6628 C   0  0  0  0  0  0  0  0  0  0  0  0
   20.6032  -23.8247  -14.0475 C   0  0  2  0  0  0  0  0  0  0  0  0
   22.0256  -23.5424  -14.0929 N   0  0  0  0  0  0  0  0  0  0  0  0
   19.8327  -22.6559  -14.5199 C   0  0  0  0  0  0  0  0  0  0  0  0
   20.3143  -21.4969  -14.5120 O   0  0  0  0  0  0  0  0  0  0  0  0
   18.5446  -22.8328  -14.9855 O   0  0  0  0  0  0  0  0  0  0  0  0
  2  1  1  1
  2  5  1  0
  3  2  1  0
  4  3  1  0
  5 12  1  0
  5  6  2  0
  7  8  1  0
  8 10  1  0
  8  9  2  0
 11 10  1  6
 11 13  1  0
 12 11  1  0
 13 14  2  0
 16 15  1  1
 16 18  1  0
 17 16  1  0
 17 13  1  0
 18 20  1  0
 19 18  2  0
M  END
$$$$
