CNA.pdb
     RDKit          3D

 20 19  0  0  1  0  0  0  0  0999 V2000
   20.4197  -11.1997  -15.0400 N   0  0  0  0  0  0  0  0  0  0  0  0
   19.4120  -11.1223  -16.0795 C   0  0  1  0  0  0  0  0  0  0  0  0
   18.8834  -12.4766  -16.4248 C   0  0  0  0  0  0  0  0  0  0  0  0
   20.0968  -13.4382  -17.3455 S   0  0  0  0  0  0  0  0  0  0  0  0
   18.3293  -10.1929  -15.7140 C   0  0  0  0  0  0  0  0  0  0  0  0
   17.3782  -10.0637  -16.5414 O   0  0  0  0  0  0  0  0  0  0  0  0
   16.9880  -10.2100  -10.7458 N   0  0  0  0  0  0  0  0  0  0  0  0
   16.5333   -9.7417  -11.9999 C   0  0  0  0  0  0  0  0  0  0  0  0
   15.6467  -10.3850  -12.6045 O   0  0  0  0  0  0  0  0  0  0  0  0
   17.0856   -8.5271  -12.5856 C   0  0  0  0  0  0  0  0  0  0  0  0
   17.1938   -8.6080  -14.1057 C   0  0  2  0  0  0  0  0  0  0  0  0
   18.3004   -9.4499  -14.5040 N   0  0  0  0  0  0  0  0  0  0  0  0
   17.4634   -7.2304  -14.5755 C   0  0  0  0  0  0  0  0  0  0  0  0
   18.5949   -6.7318  -14.3822 O   0  0  0  0  0  0  0  0  0  0  0  0
   15.7290   -4.5789  -16.6132 C   0  0  0  0  0  0  0  0  0  0  0  0
   16.7745   -5.0789  -15.6473 C   0  0  2  0  0  0  0  0  0  0  0  0
   16.4842   -6.4417  -15.2427 N   0  0  0  0  0  0  0  0  0  0  0  0
   16.9068   -4.2084  -14.4608 C   0  0  0  0  0  0  0  0  0  0  0  0
   16.3856   -4.5060  -13.3585 O   0  0  0  0  0  0  0  0  0  0  0  0
   17.6225   -3.0312  -14.5568 O   0  0  0  0  0  0  0  0  0  0  0  0
  2  1  1  1
  2  5  1  0
  3  2  1  0
  4  3  1  0
  5 12  1  0
  5  6  2  0
  7  8  1  0
  8 10  1  0
  8  9  2  0
 11 10  1  1
 11 13  1  0
 12 11  1  0
 13 14  2  0
 16 15  1  6
 16 18  1  0
 17 16  1  0
 17 13  1  0
 18 20  1  0
 19 18  2  0
M  END
$$$$
