GHK.pdb
     RDKit          3D

 24 24  0  0  1  0  0  0  0  0999 V2000
   20.3555  -11.7152  -19.1971 N   0  0  0  0  0  0  0  0  0  0  0  0
   20.6907  -10.3283  -18.9934 C   0  0  0  0  0  0  0  0  0  0  0  0
   21.0393  -10.1168  -17.5508 C   0  0  0  0  0  0  0  0  0  0  0  0
   20.2445  -10.4574  -16.6394 O   0  0  0  0  0  0  0  0  0  0  0  0
   22.2603   -9.5343  -17.1913 N   0  0  0  0  0  0  0  0  0  0  0  0
   22.5823   -9.1361  -15.7920 C   0  0  1  0  0  0  0  0  0  0  0  0
   23.9202   -9.7195  -15.5394 C   0  0  0  0  0  0  0  0  0  0  0  0
   23.9057  -11.1869  -15.4400 C   0  0  0  0  0  0  0  0  0  0  0  0
   22.7575  -11.9766  -15.4971 C   0  0  0  0  0  0  0  0  0  0  0  0
   23.0735  -13.2725  -15.3765 N   0  0  0  0  0  0  0  0  0  0  0  0
   24.4134  -13.3360  -15.2416 C   0  0  0  0  0  0  0  0  0  0  0  0
   24.8975  -12.0780  -15.2816 N   0  0  0  0  0  0  0  0  0  0  0  0
   22.4295   -7.6961  -15.7270 C   0  0  0  0  0  0  0  0  0  0  0  0
   22.9047   -6.9945  -16.6964 O   0  0  0  0  0  0  0  0  0  0  0  0
   21.7880   -6.9780  -14.6755 N   0  0  0  0  0  0  0  0  0  0  0  0
   21.6922   -5.5134  -14.7857 C   0  0  1  0  0  0  0  0  0  0  0  0
   20.2278   -5.1309  -14.8170 C   0  0  0  0  0  0  0  0  0  0  0  0
   20.0037   -3.6609  -15.0183 C   0  0  0  0  0  0  0  0  0  0  0  0
   18.5326   -3.2995  -14.9971 C   0  0  0  0  0  0  0  0  0  0  0  0
   18.3268   -1.8539  -15.4090 C   0  0  0  0  0  0  0  0  0  0  0  0
   16.9335   -1.5901  -15.6074 N   0  0  0  0  0  0  0  0  0  0  0  0
   22.3286   -4.8676  -13.6229 C   0  0  0  0  0  0  0  0  0  0  0  0
   22.7102   -3.5407  -13.7140 O   0  0  0  0  0  0  0  0  0  0  0  0
   22.5550   -5.4414  -12.5365 O   0  0  0  0  0  0  0  0  0  0  0  0
  2  1  1  0
  3  4  2  0
  3  2  1  0
  5  3  1  0
  6  7  1  6
  6  5  1  0
  8  9  2  0
  8  7  1  0
 10  9  1  0
 11 12  2  0
 11 10  1  0
 12  8  1  0
 13  6  1  0
 13 14  2  0
 15 13  1  0
 16 15  1  0
 16 17  1  1
 17 18  1  0
 19 18  1  0
 20 19  1  0
 20 21  1  0
 22 16  1  0
 23 22  1  0
 24 22  2  0
M  END
$$$$
