GHK.pdb
     RDKit          3D

 24 24  0  0  1  0  0  0  0  0999 V2000
   28.8003  -21.2310  -16.8369 N   0  0  0  0  0  0  0  0  0  0  0  0
   28.2855  -20.2058  -15.9641 C   0  0  0  0  0  0  0  0  0  0  0  0
   27.5712  -20.8545  -14.8168 C   0  0  0  0  0  0  0  0  0  0  0  0
   27.3082  -22.0829  -14.8333 O   0  0  0  0  0  0  0  0  0  0  0  0
   27.1829  -20.1016  -13.7025 N   0  0  0  0  0  0  0  0  0  0  0  0
   26.3644  -20.6670  -12.5932 C   0  0  1  0  0  0  0  0  0  0  0  0
   27.0057  -20.1536  -11.3606 C   0  0  0  0  0  0  0  0  0  0  0  0
   28.2789  -20.8197  -11.0464 C   0  0  0  0  0  0  0  0  0  0  0  0
   28.8716  -21.8116  -11.8275 C   0  0  0  0  0  0  0  0  0  0  0  0
   30.0221  -22.2178  -11.2755 N   0  0  0  0  0  0  0  0  0  0  0  0
   30.1858  -21.5025  -10.1446 C   0  0  0  0  0  0  0  0  0  0  0  0
   29.1328  -20.6691  -10.0213 N   0  0  0  0  0  0  0  0  0  0  0  0
   24.9892  -20.2983  -12.8654 C   0  0  0  0  0  0  0  0  0  0  0  0
   24.7394  -19.0678  -13.1502 O   0  0  0  0  0  0  0  0  0  0  0  0
   23.8749  -21.1877  -12.8507 N   0  0  0  0  0  0  0  0  0  0  0  0
   22.5474  -20.6513  -13.1915 C   0  0  1  0  0  0  0  0  0  0  0  0
   21.9546  -21.5053  -14.2920 C   0  0  0  0  0  0  0  0  0  0  0  0
   21.6256  -20.7283  -15.5328 C   0  0  0  0  0  0  0  0  0  0  0  0
   22.1687  -21.3909  -16.7822 C   0  0  0  0  0  0  0  0  0  0  0  0
   21.9157  -20.5274  -18.0037 C   0  0  0  0  0  0  0  0  0  0  0  0
   22.4247  -21.1703  -19.1775 N   0  0  0  0  0  0  0  0  0  0  0  0
   21.6561  -20.7005  -12.0179 C   0  0  0  0  0  0  0  0  0  0  0  0
   20.4329  -20.0561  -12.0729 O   0  0  0  0  0  0  0  0  0  0  0  0
   21.9286  -21.2935  -10.9526 O   0  0  0  0  0  0  0  0  0  0  0  0
  2  1  1  0
  3  4  2  0
  3  2  1  0
  5  3  1  0
  6  7  1  1
  6  5  1  0
  8  9  2  0
  8  7  1  0
 10  9  1  0
 11 12  2  0
 11 10  1  0
 12  8  1  0
 13  6  1  0
 13 14  2  0
 15 13  1  0
 16 15  1  0
 16 17  1  6
 17 18  1  0
 19 18  1  0
 20 19  1  0
 20 21  1  0
 22 16  1  0
 23 22  1  0
 24 22  2  0
M  END
$$$$
