GHK.pdb
     RDKit          3D

 24 24  0  0  1  0  0  0  0  0999 V2000
   26.0832  -25.2724  -16.2997 N   0  0  0  0  0  0  0  0  0  0  0  0
   25.1012  -24.3563  -16.8233 C   0  0  0  0  0  0  0  0  0  0  0  0
   25.1540  -23.0814  -16.0365 C   0  0  0  0  0  0  0  0  0  0  0  0
   26.2538  -22.5874  -15.6834 O   0  0  0  0  0  0  0  0  0  0  0  0
   23.9756  -22.4157  -15.6795 N   0  0  0  0  0  0  0  0  0  0  0  0
   23.9733  -21.0935  -14.9923 C   0  0  1  0  0  0  0  0  0  0  0  0
   22.7966  -20.3879  -15.5506 C   0  0  0  0  0  0  0  0  0  0  0  0
   23.1176  -19.5575  -16.7214 C   0  0  0  0  0  0  0  0  0  0  0  0
   24.4070  -19.3128  -17.1935 C   0  0  0  0  0  0  0  0  0  0  0  0
   24.3686  -18.5204  -18.2724 N   0  0  0  0  0  0  0  0  0  0  0  0
   23.0698  -18.2462  -18.5086 C   0  0  0  0  0  0  0  0  0  0  0  0
   22.3329  -18.8750  -17.5705 N   0  0  0  0  0  0  0  0  0  0  0  0
   24.0075  -21.3678  -13.5694 C   0  0  0  0  0  0  0  0  0  0  0  0
   23.1670  -22.2223  -13.0992 O   0  0  0  0  0  0  0  0  0  0  0  0
   24.9025  -20.7726  -12.6326 N   0  0  0  0  0  0  0  0  0  0  0  0
   24.6825  -21.0227  -11.1989 C   0  0  1  0  0  0  0  0  0  0  0  0
   25.7467  -20.2840  -10.4157 C   0  0  0  0  0  0  0  0  0  0  0  0
   25.6509  -20.5027   -8.9342 C   0  0  0  0  0  0  0  0  0  0  0  0
   26.6844  -19.7002   -8.1707 C   0  0  0  0  0  0  0  0  0  0  0  0
   26.6210  -20.0126   -6.6874 C   0  0  0  0  0  0  0  0  0  0  0  0
   27.5668  -19.2096   -5.9724 N   0  0  0  0  0  0  0  0  0  0  0  0
   23.3567  -20.5252  -10.7878 C   0  0  0  0  0  0  0  0  0  0  0  0
   22.6637  -21.1947   -9.7947 O   0  0  0  0  0  0  0  0  0  0  0  0
   22.7987  -19.5217  -11.2801 O   0  0  0  0  0  0  0  0  0  0  0  0
  2  1  1  0
  3  4  2  0
  3  2  1  0
  5  3  1  0
  6  7  1  1
  6  5  1  0
  8  9  2  0
  8  7  1  0
 10  9  1  0
 11 12  2  0
 11 10  1  0
 12  8  1  0
 13  6  1  0
 13 14  2  0
 15 13  1  0
 16 15  1  0
 16 17  1  1
 17 18  1  0
 19 18  1  0
 20 19  1  0
 20 21  1  0
 22 16  1  0
 23 22  1  0
 24 22  2  0
M  END
$$$$
