GHK.pdb
     RDKit          3D

 24 24  0  0  1  0  0  0  0  0999 V2000
   23.2249  -14.5796  -19.0927 N   0  0  0  0  0  0  0  0  0  0  0  0
   23.4548  -15.9486  -18.7047 C   0  0  0  0  0  0  0  0  0  0  0  0
   22.7757  -16.2051  -17.3930 C   0  0  0  0  0  0  0  0  0  0  0  0
   23.2647  -15.7734  -16.3193 O   0  0  0  0  0  0  0  0  0  0  0  0
   21.5809  -16.9324  -17.3399 N   0  0  0  0  0  0  0  0  0  0  0  0
   20.9218  -17.3072  -16.0572 C   0  0  1  0  0  0  0  0  0  0  0  0
   19.4729  -17.1645  -16.3297 C   0  0  0  0  0  0  0  0  0  0  0  0
   18.9681  -15.8029  -16.0959 C   0  0  0  0  0  0  0  0  0  0  0  0
   19.7360  -14.7413  -15.6177 C   0  0  0  0  0  0  0  0  0  0  0  0
   18.9903  -13.6339  -15.5119 N   0  0  0  0  0  0  0  0  0  0  0  0
   17.7464  -13.9616  -15.9155 C   0  0  0  0  0  0  0  0  0  0  0  0
   17.7494  -15.2648  -16.2622 N   0  0  0  0  0  0  0  0  0  0  0  0
   21.4348  -18.6140  -15.6960 C   0  0  0  0  0  0  0  0  0  0  0  0
   21.5123  -19.5081  -16.6191 O   0  0  0  0  0  0  0  0  0  0  0  0
   21.8713  -19.0016  -14.3952 N   0  0  0  0  0  0  0  0  0  0  0  0
   22.3509  -20.3794  -14.2001 C   0  0  1  0  0  0  0  0  0  0  0  0
   23.0282  -20.4632  -12.8488 C   0  0  0  0  0  0  0  0  0  0  0  0
   23.4725  -21.8519  -12.4940 C   0  0  0  0  0  0  0  0  0  0  0  0
   24.6072  -22.3311  -13.3760 C   0  0  0  0  0  0  0  0  0  0  0  0
   24.9379  -23.7834  -13.0872 C   0  0  0  0  0  0  0  0  0  0  0  0
   25.9122  -24.2634  -14.0202 N   0  0  0  0  0  0  0  0  0  0  0  0
   21.2205  -21.3258  -14.2260 C   0  0  0  0  0  0  0  0  0  0  0  0
   21.3605  -22.5247  -14.9026 O   0  0  0  0  0  0  0  0  0  0  0  0
   20.1202  -21.1221  -13.6706 O   0  0  0  0  0  0  0  0  0  0  0  0
  2  1  1  0
  3  4  2  0
  3  2  1  0
  5  3  1  0
  6  7  1  6
  6  5  1  0
  8  9  2  0
  8  7  1  0
 10  9  1  0
 11 12  2  0
 11 10  1  0
 12  8  1  0
 13  6  1  0
 13 14  2  0
 15 13  1  0
 16 15  1  0
 16 17  1  1
 17 18  1  0
 19 18  1  0
 20 19  1  0
 20 21  1  0
 22 16  1  0
 23 22  1  0
 24 22  2  0
M  END
$$$$
