GHK.pdb
     RDKit          3D

 24 24  0  0  1  0  0  0  0  0999 V2000
   24.8185  -11.8666  -20.9127 N   0  0  0  0  0  0  0  0  0  0  0  0
   24.8221  -10.4476  -20.6594 C   0  0  0  0  0  0  0  0  0  0  0  0
   24.3590  -10.2009  -19.2552 C   0  0  0  0  0  0  0  0  0  0  0  0
   23.7529  -11.0928  -18.6106 O   0  0  0  0  0  0  0  0  0  0  0  0
   24.5941   -8.9687  -18.6340 N   0  0  0  0  0  0  0  0  0  0  0  0
   24.1287   -8.6608  -17.2524 C   0  0  1  0  0  0  0  0  0  0  0  0
   25.3718   -8.3854  -16.4955 C   0  0  0  0  0  0  0  0  0  0  0  0
   26.1493   -9.5967  -16.1929 C   0  0  0  0  0  0  0  0  0  0  0  0
   25.8180  -10.8820  -16.6214 C   0  0  0  0  0  0  0  0  0  0  0  0
   26.7203  -11.7693  -16.1829 N   0  0  0  0  0  0  0  0  0  0  0  0
   27.6348  -11.0773  -15.4742 C   0  0  0  0  0  0  0  0  0  0  0  0
   27.2786   -9.7768  -15.4895 N   0  0  0  0  0  0  0  0  0  0  0  0
   23.1422   -7.6057  -17.3747 C   0  0  0  0  0  0  0  0  0  0  0  0
   23.4167   -6.6090  -18.1421 O   0  0  0  0  0  0  0  0  0  0  0  0
   21.8775   -7.5742  -16.7171 N   0  0  0  0  0  0  0  0  0  0  0  0
   20.9667   -6.4548  -17.0061 C   0  0  1  0  0  0  0  0  0  0  0  0
   19.5441   -6.9306  -16.8017 C   0  0  0  0  0  0  0  0  0  0  0  0
   18.5171   -5.8905  -17.1409 C   0  0  0  0  0  0  0  0  0  0  0  0
   17.1165   -6.3264  -16.7620 C   0  0  0  0  0  0  0  0  0  0  0  0
   16.1176   -5.2138  -17.0196 C   0  0  0  0  0  0  0  0  0  0  0  0
   14.7994   -5.6395  -16.6573 N   0  0  0  0  0  0  0  0  0  0  0  0
   21.2288   -5.3292  -16.0904 C   0  0  0  0  0  0  0  0  0  0  0  0
   21.7768   -5.5860  -14.8461 O   0  0  0  0  0  0  0  0  0  0  0  0
   20.9874   -4.1333  -16.3592 O   0  0  0  0  0  0  0  0  0  0  0  0
  2  1  1  0
  3  4  2  0
  3  2  1  0
  5  3  1  0
  6  7  1  1
  6  5  1  0
  8  9  2  0
  8  7  1  0
 10  9  1  0
 11 12  2  0
 11 10  1  0
 12  8  1  0
 13  6  1  0
 13 14  2  0
 15 13  1  0
 16 15  1  0
 16 17  1  1
 17 18  1  0
 19 18  1  0
 20 19  1  0
 20 21  1  0
 22 16  1  0
 23 22  1  0
 24 22  2  0
M  END
$$$$
