GHK.pdb
     RDKit          3D

 24 24  0  0  1  0  0  0  0  0999 V2000
   23.1254  -15.7583  -19.4387 N   0  0  0  0  0  0  0  0  0  0  0  0
   23.0334  -15.7086  -18.0011 C   0  0  0  0  0  0  0  0  0  0  0  0
   23.0570  -17.1070  -17.4615 C   0  0  0  0  0  0  0  0  0  0  0  0
   22.9063  -18.0942  -18.2237 O   0  0  0  0  0  0  0  0  0  0  0  0
   23.2480  -17.3396  -16.0945 N   0  0  0  0  0  0  0  0  0  0  0  0
   23.2223  -18.7048  -15.4978 C   0  0  1  0  0  0  0  0  0  0  0  0
   24.4735  -18.7882  -14.7094 C   0  0  0  0  0  0  0  0  0  0  0  0
   25.6765  -18.9422  -15.5415 C   0  0  0  0  0  0  0  0  0  0  0  0
   26.4959  -17.8927  -15.9568 C   0  0  0  0  0  0  0  0  0  0  0  0
   27.5081  -18.3551  -16.7019 N   0  0  0  0  0  0  0  0  0  0  0  0
   27.3577  -19.6928  -16.7767 C   0  0  0  0  0  0  0  0  0  0  0  0
   26.2556  -20.0291  -16.0763 N   0  0  0  0  0  0  0  0  0  0  0  0
   21.9553  -18.8284  -14.8045 C   0  0  0  0  0  0  0  0  0  0  0  0
   21.6656  -17.9441  -13.9147 O   0  0  0  0  0  0  0  0  0  0  0  0
   20.9868  -19.8512  -15.0253 N   0  0  0  0  0  0  0  0  0  0  0  0
   19.7534  -19.8316  -14.2224 C   0  0  1  0  0  0  0  0  0  0  0  0
   18.6466  -19.2280  -15.0605 C   0  0  0  0  0  0  0  0  0  0  0  0
   17.3322  -19.1527  -14.3406 C   0  0  0  0  0  0  0  0  0  0  0  0
   16.2241  -18.6253  -15.2289 C   0  0  0  0  0  0  0  0  0  0  0  0
   14.9274  -18.4936  -14.4524 C   0  0  0  0  0  0  0  0  0  0  0  0
   13.8995  -17.9592  -15.2939 N   0  0  0  0  0  0  0  0  0  0  0  0
   19.3675  -21.2022  -13.8393 C   0  0  0  0  0  0  0  0  0  0  0  0
   18.4715  -21.3848  -12.8008 O   0  0  0  0  0  0  0  0  0  0  0  0
   19.7988  -22.2351  -14.3941 O   0  0  0  0  0  0  0  0  0  0  0  0
  2  1  1  0
  3  4  2  0
  3  2  1  0
  5  3  1  0
  6  7  1  1
  6  5  1  0
  8  9  2  0
  8  7  1  0
 10  9  1  0
 11 12  2  0
 11 10  1  0
 12  8  1  0
 13  6  1  0
 13 14  2  0
 15 13  1  0
 16 15  1  0
 16 17  1  6
 17 18  1  0
 19 18  1  0
 20 19  1  0
 20 21  1  0
 22 16  1  0
 23 22  1  0
 24 22  2  0
M  END
$$$$
