GHK.pdb
     RDKit          3D

 24 24  0  0  1  0  0  0  0  0999 V2000
   25.9671  -12.3861  -21.2337 N   0  0  0  0  0  0  0  0  0  0  0  0
   25.8795  -10.9757  -20.9495 C   0  0  0  0  0  0  0  0  0  0  0  0
   25.4327  -10.7902  -19.5306 C   0  0  0  0  0  0  0  0  0  0  0  0
   24.5275  -11.5107  -19.0409 O   0  0  0  0  0  0  0  0  0  0  0  0
   26.0172   -9.8080  -18.7226 N   0  0  0  0  0  0  0  0  0  0  0  0
   25.5624   -9.5340  -17.3303 C   0  0  1  0  0  0  0  0  0  0  0  0
   26.8007   -9.5859  -16.5191 C   0  0  0  0  0  0  0  0  0  0  0  0
   27.2904  -10.9541  -16.2918 C   0  0  0  0  0  0  0  0  0  0  0  0
   26.6652  -12.1104  -16.7582 C   0  0  0  0  0  0  0  0  0  0  0  0
   27.3534  -13.1976  -16.3870 N   0  0  0  0  0  0  0  0  0  0  0  0
   28.4190  -12.7633  -15.6845 C   0  0  0  0  0  0  0  0  0  0  0  0
   28.3670  -11.4166  -15.6364 N   0  0  0  0  0  0  0  0  0  0  0  0
   24.8148   -8.2930  -17.3771 C   0  0  0  0  0  0  0  0  0  0  0  0
   25.3409   -7.2945  -17.9965 O   0  0  0  0  0  0  0  0  0  0  0  0
   23.5309   -8.0774  -16.7956 N   0  0  0  0  0  0  0  0  0  0  0  0
   22.8918   -6.7642  -16.9787 C   0  0  1  0  0  0  0  0  0  0  0  0
   21.8562   -6.8851  -18.0763 C   0  0  0  0  0  0  0  0  0  0  0  0
   21.1042   -5.6105  -18.3242 C   0  0  0  0  0  0  0  0  0  0  0  0
   20.0580   -5.7666  -19.4088 C   0  0  0  0  0  0  0  0  0  0  0  0
   20.7067   -6.0979  -20.7397 C   0  0  0  0  0  0  0  0  0  0  0  0
   19.7071   -6.2399  -21.7550 N   0  0  0  0  0  0  0  0  0  0  0  0
   22.2214   -6.3409  -15.7355 C   0  0  0  0  0  0  0  0  0  0  0  0
   21.8912   -5.0076  -15.5681 O   0  0  0  0  0  0  0  0  0  0  0  0
   21.9222   -7.1129  -14.8001 O   0  0  0  0  0  0  0  0  0  0  0  0
  2  1  1  0
  3  4  2  0
  3  2  1  0
  5  3  1  0
  6  7  1  1
  6  5  1  0
  8  9  2  0
  8  7  1  0
 10  9  1  0
 11 12  2  0
 11 10  1  0
 12  8  1  0
 13  6  1  0
 13 14  2  0
 15 13  1  0
 16 15  1  0
 16 17  1  6
 17 18  1  0
 19 18  1  0
 20 19  1  0
 20 21  1  0
 22 16  1  0
 23 22  1  0
 24 22  2  0
M  END
$$$$
