QPF.pdb
     RDKit          3D

 28 29  0  0  1  0  0  0  0  0999 V2000
    8.2296  -21.5974   21.6927 N   0  0  0  0  0  0  0  0  0  0  0  0
    7.2518  -21.4232   20.6547 C   0  0  0  0  0  0  0  0  0  0  0  0
    6.7554  -22.4828   20.2009 O   0  0  0  0  0  0  0  0  0  0  0  0
    6.9247  -20.0615   20.2241 C   0  0  0  0  0  0  0  0  0  0  0  0
    7.6494  -18.9760   20.9418 C   0  0  0  0  0  0  0  0  0  0  0  0
    8.1849  -17.8733   20.0685 C   0  0  2  0  0  0  0  0  0  0  0  0
    9.0552  -18.4812   19.0799 N   0  0  0  0  0  0  0  0  0  0  0  0
    8.7982  -16.7599   20.7934 C   0  0  0  0  0  0  0  0  0  0  0  0
   10.0724  -16.8488   20.9407 O   0  0  0  0  0  0  0  0  0  0  0  0
    8.1702  -15.6292   21.3358 N   0  0  0  0  0  0  0  0  0  0  0  0
    6.7907  -15.2265   21.4664 C   0  0  0  0  0  0  0  0  0  0  0  0
    6.8610  -13.7949   20.9051 C   0  0  0  0  0  0  0  0  0  0  0  0
    8.0472  -13.2920   21.7393 C   0  0  0  0  0  0  0  0  0  0  0  0
    8.9105  -14.5102   21.9460 C   0  0  1  0  0  0  0  0  0  0  0  0
    9.0597  -14.7846   23.3972 C   0  0  0  0  0  0  0  0  0  0  0  0
    9.3289  -13.8573   24.2025 O   0  0  0  0  0  0  0  0  0  0  0  0
    8.9065  -16.0904   23.9256 N   0  0  0  0  0  0  0  0  0  0  0  0
    8.3254  -16.2672   25.2657 C   0  0  1  0  0  0  0  0  0  0  0  0
    6.9283  -15.7034   25.2630 C   0  0  0  0  0  0  0  0  0  0  0  0
    6.8671  -14.3579   25.8458 C   0  0  0  0  0  0  0  0  0  0  0  0
    5.7377  -13.5791   25.8184 C   0  0  0  0  0  0  0  0  0  0  0  0
    5.6919  -12.3001   26.3807 C   0  0  0  0  0  0  0  0  0  0  0  0
    6.8364  -11.8258   26.9789 C   0  0  0  0  0  0  0  0  0  0  0  0
    7.9657  -12.5968   27.0095 C   0  0  0  0  0  0  0  0  0  0  0  0
    7.9987  -13.8499   26.4547 C   0  0  0  0  0  0  0  0  0  0  0  0
    8.3849  -17.6880   25.6496 C   0  0  0  0  0  0  0  0  0  0  0  0
    8.4646  -18.0308   26.8511 O   0  0  0  0  0  0  0  0  0  0  0  0
    8.3543  -18.6959   24.6904 O   0  0  0  0  0  0  0  0  0  0  0  0
  2  1  1  0
  2  3  2  0
  4  5  1  0
  4  2  1  0
  5  6  1  0
  6  7  1  6
  8  6  1  0
  8 10  1  0
  9  8  2  0
 10 14  1  0
 10 11  1  0
 12 11  1  0
 13 14  1  0
 13 12  1  0
 14 15  1  1
 16 15  2  0
 17 15  1  0
 18 17  1  0
 18 26  1  0
 19 20  1  0
 18 19  1  6
 20 25  2  0
 21 22  2  0
 21 20  1  0
 22 23  1  0
 23 24  2  0
 25 24  1  0
 26 28  1  0
 27 26  2  0
M  END
$$$$
