QPF.pdb
     RDKit          3D

 28 29  0  0  1  0  0  0  0  0999 V2000
    9.0303  -12.6351   18.4891 N   0  0  0  0  0  0  0  0  0  0  0  0
    8.8417  -12.4377   19.8994 C   0  0  0  0  0  0  0  0  0  0  0  0
    9.5348  -11.5254   20.4118 O   0  0  0  0  0  0  0  0  0  0  0  0
    7.8831  -13.2937   20.6029 C   0  0  0  0  0  0  0  0  0  0  0  0
    7.7760  -14.6868   20.0866 C   0  0  0  0  0  0  0  0  0  0  0  0
    6.7632  -15.5551   20.7835 C   0  0  2  0  0  0  0  0  0  0  0  0
    5.4794  -14.8850   20.6985 N   0  0  0  0  0  0  0  0  0  0  0  0
    7.1320  -15.9592   22.1407 C   0  0  0  0  0  0  0  0  0  0  0  0
    6.3781  -15.4855   23.0682 O   0  0  0  0  0  0  0  0  0  0  0  0
    8.1918  -16.7867   22.5398 N   0  0  0  0  0  0  0  0  0  0  0  0
    9.3255  -17.3511   21.8483 C   0  0  0  0  0  0  0  0  0  0  0  0
    9.2115  -18.8252   22.2769 C   0  0  0  0  0  0  0  0  0  0  0  0
    9.0767  -18.6021   23.7895 C   0  0  0  0  0  0  0  0  0  0  0  0
    8.3491  -17.2881   23.9169 C   0  0  1  0  0  0  0  0  0  0  0  0
    9.1814  -16.3201   24.6745 C   0  0  0  0  0  0  0  0  0  0  0  0
   10.1048  -15.6834   24.1065 O   0  0  0  0  0  0  0  0  0  0  0  0
    8.9692  -16.0794   26.0547 N   0  0  0  0  0  0  0  0  0  0  0  0
    9.9022  -15.2127   26.7917 C   0  0  1  0  0  0  0  0  0  0  0  0
    9.1092  -14.3339   27.7236 C   0  0  0  0  0  0  0  0  0  0  0  0
    8.1052  -13.5307   27.0160 C   0  0  0  0  0  0  0  0  0  0  0  0
    6.7540  -13.7122   27.1709 C   0  0  0  0  0  0  0  0  0  0  0  0
    5.8081  -12.9374   26.4933 C   0  0  0  0  0  0  0  0  0  0  0  0
    6.2749  -11.9615   25.6434 C   0  0  0  0  0  0  0  0  0  0  0  0
    7.6206  -11.7754   25.4841 C   0  0  0  0  0  0  0  0  0  0  0  0
    8.5389  -12.5414   26.1542 C   0  0  0  0  0  0  0  0  0  0  0  0
   10.9104  -16.0384   27.4784 C   0  0  0  0  0  0  0  0  0  0  0  0
   10.7504  -17.2723   27.6175 O   0  0  0  0  0  0  0  0  0  0  0  0
   12.0734  -15.4750   27.9948 O   0  0  0  0  0  0  0  0  0  0  0  0
  2  1  1  0
  2  3  2  0
  4  5  1  0
  4  2  1  0
  5  6  1  0
  6  7  1  1
  8  6  1  0
  8 10  1  0
  9  8  2  0
 10 14  1  0
 10 11  1  0
 12 11  1  0
 13 14  1  0
 13 12  1  0
 14 15  1  1
 16 15  2  0
 17 15  1  0
 18 17  1  0
 18 26  1  0
 19 20  1  0
 18 19  1  1
 20 25  2  0
 21 22  2  0
 21 20  1  0
 22 23  1  0
 23 24  2  0
 25 24  1  0
 26 28  1  0
 27 26  2  0
M  END
$$$$
