QPF.pdb
     RDKit          3D

 28 29  0  0  1  0  0  0  0  0999 V2000
    9.8505  -22.0073   20.0813 N   0  0  0  0  0  0  0  0  0  0  0  0
   10.6316  -21.2616   19.1340 C   0  0  0  0  0  0  0  0  0  0  0  0
   11.7244  -21.7855   18.8077 O   0  0  0  0  0  0  0  0  0  0  0  0
   10.1028  -19.9870   18.6415 C   0  0  0  0  0  0  0  0  0  0  0  0
    9.7902  -18.9793   19.6929 C   0  0  0  0  0  0  0  0  0  0  0  0
    9.8743  -17.5426   19.2521 C   0  0  2  0  0  0  0  0  0  0  0  0
   11.1750  -17.3478   18.6399 N   0  0  0  0  0  0  0  0  0  0  0  0
    9.5556  -16.5626   20.2911 C   0  0  0  0  0  0  0  0  0  0  0  0
   10.5714  -15.9427   20.7777 O   0  0  0  0  0  0  0  0  0  0  0  0
    8.2955  -16.2277   20.8079 N   0  0  0  0  0  0  0  0  0  0  0  0
    6.9614  -16.7239   20.5713 C   0  0  0  0  0  0  0  0  0  0  0  0
    6.2075  -15.4028   20.3345 C   0  0  0  0  0  0  0  0  0  0  0  0
    6.6989  -14.6462   21.5763 C   0  0  0  0  0  0  0  0  0  0  0  0
    8.0918  -15.1707   21.8148 C   0  0  1  0  0  0  0  0  0  0  0  0
    8.1768  -15.7866   23.1628 C   0  0  0  0  0  0  0  0  0  0  0  0
    8.0318  -17.0264   23.3136 O   0  0  0  0  0  0  0  0  0  0  0  0
    8.4216  -15.0077   24.3210 N   0  0  0  0  0  0  0  0  0  0  0  0
    8.5642  -15.6727   25.6256 C   0  0  1  0  0  0  0  0  0  0  0  0
    8.8297  -14.6241   26.6742 C   0  0  0  0  0  0  0  0  0  0  0  0
    7.8613  -13.5226   26.6214 C   0  0  0  0  0  0  0  0  0  0  0  0
    6.5988  -13.6075   27.1522 C   0  0  0  0  0  0  0  0  0  0  0  0
    5.6872  -12.5491   27.0982 C   0  0  0  0  0  0  0  0  0  0  0  0
    6.0951  -11.3877   26.4837 C   0  0  0  0  0  0  0  0  0  0  0  0
    7.3521  -11.2965   25.9524 C   0  0  0  0  0  0  0  0  0  0  0  0
    8.2376  -12.3413   26.0114 C   0  0  0  0  0  0  0  0  0  0  0  0
    7.3693  -16.4890   25.9005 C   0  0  0  0  0  0  0  0  0  0  0  0
    7.3507  -17.3117   26.8440 O   0  0  0  0  0  0  0  0  0  0  0  0
    6.2220  -16.3730   25.1213 O   0  0  0  0  0  0  0  0  0  0  0  0
  2  1  1  0
  2  3  2  0
  4  5  1  0
  4  2  1  0
  5  6  1  0
  6  7  1  1
  8  6  1  0
  8 10  1  0
  9  8  2  0
 10 14  1  0
 10 11  1  0
 12 11  1  0
 13 14  1  0
 13 12  1  0
 14 15  1  1
 16 15  2  0
 17 15  1  0
 18 17  1  0
 18 26  1  0
 19 20  1  0
 18 19  1  1
 20 25  2  0
 21 22  2  0
 21 20  1  0
 22 23  1  0
 23 24  2  0
 25 24  1  0
 26 28  1  0
 27 26  2  0
M  END
$$$$
