QPF.pdb
     RDKit          3D

 28 29  0  0  1  0  0  0  0  0999 V2000
    3.2679  -18.1153   22.3224 N   0  0  0  0  0  0  0  0  0  0  0  0
    4.5883  -18.2884   22.8612 C   0  0  0  0  0  0  0  0  0  0  0  0
    4.6381  -18.5502   24.0876 O   0  0  0  0  0  0  0  0  0  0  0  0
    5.7348  -18.1487   21.9598 C   0  0  0  0  0  0  0  0  0  0  0  0
    5.4035  -17.7290   20.5695 C   0  0  0  0  0  0  0  0  0  0  0  0
    6.5841  -17.5463   19.6541 C   0  0  2  0  0  0  0  0  0  0  0  0
    7.0315  -18.8651   19.2477 N   0  0  0  0  0  0  0  0  0  0  0  0
    7.6496  -16.6979   20.1891 C   0  0  0  0  0  0  0  0  0  0  0  0
    8.7621  -17.3036   20.4095 O   0  0  0  0  0  0  0  0  0  0  0  0
    7.5994  -15.3276   20.4840 N   0  0  0  0  0  0  0  0  0  0  0  0
    6.5339  -14.3547   20.5045 C   0  0  0  0  0  0  0  0  0  0  0  0
    7.1677  -13.2255   19.6721 C   0  0  0  0  0  0  0  0  0  0  0  0
    8.5083  -13.1345   20.4139 C   0  0  0  0  0  0  0  0  0  0  0  0
    8.7842  -14.5428   20.8752 C   0  0  1  0  0  0  0  0  0  0  0  0
    8.9000  -14.5773   22.3547 C   0  0  0  0  0  0  0  0  0  0  0  0
    8.0763  -13.9623   23.0787 O   0  0  0  0  0  0  0  0  0  0  0  0
    9.9345  -15.2976   23.0019 N   0  0  0  0  0  0  0  0  0  0  0  0
   10.2570  -14.9997   24.4062 C   0  0  1  0  0  0  0  0  0  0  0  0
    9.0437  -15.2896   25.2509 C   0  0  0  0  0  0  0  0  0  0  0  0
    9.2868  -15.0528   26.6788 C   0  0  0  0  0  0  0  0  0  0  0  0
    9.0756  -13.8401   27.2849 C   0  0  0  0  0  0  0  0  0  0  0  0
    9.3079  -13.6291   28.6471 C   0  0  0  0  0  0  0  0  0  0  0  0
    9.7661  -14.6941   29.3876 C   0  0  0  0  0  0  0  0  0  0  0  0
    9.9790  -15.9056   28.7897 C   0  0  0  0  0  0  0  0  0  0  0  0
    9.7475  -16.1007   27.4527 C   0  0  0  0  0  0  0  0  0  0  0  0
   11.4515  -15.7592   24.8136 C   0  0  0  0  0  0  0  0  0  0  0  0
   12.4116  -15.1964   25.3871 O   0  0  0  0  0  0  0  0  0  0  0  0
   11.5526  -17.1265   24.5749 O   0  0  0  0  0  0  0  0  0  0  0  0
  2  1  1  0
  2  3  2  0
  4  5  1  0
  4  2  1  0
  5  6  1  0
  6  7  1  1
  8  6  1  0
  8 10  1  0
  9  8  2  0
 10 14  1  0
 10 11  1  0
 12 11  1  0
 13 14  1  0
 13 12  1  0
 14 15  1  1
 16 15  2  0
 17 15  1  0
 18 17  1  0
 18 26  1  0
 19 20  1  0
 18 19  1  1
 20 25  2  0
 21 22  2  0
 21 20  1  0
 22 23  1  0
 23 24  2  0
 25 24  1  0
 26 28  1  0
 27 26  2  0
M  END
$$$$
