QPF.pdb
     RDKit          3D

 28 29  0  0  1  0  0  0  0  0999 V2000
   12.9624  -15.9749   19.6278 N   0  0  0  0  0  0  0  0  0  0  0  0
   12.8420  -14.5617   19.3998 C   0  0  0  0  0  0  0  0  0  0  0  0
   13.9195  -13.9608   19.1692 O   0  0  0  0  0  0  0  0  0  0  0  0
   11.5090  -13.9561   19.4540 C   0  0  0  0  0  0  0  0  0  0  0  0
   10.4389  -14.7088   18.7420 C   0  0  0  0  0  0  0  0  0  0  0  0
    9.0471  -14.1605   18.9082 C   0  0  2  0  0  0  0  0  0  0  0  0
    9.0807  -12.7596   18.5331 N   0  0  0  0  0  0  0  0  0  0  0  0
    8.4422  -14.4092   20.2172 C   0  0  0  0  0  0  0  0  0  0  0  0
    8.3854  -13.3825   20.9890 O   0  0  0  0  0  0  0  0  0  0  0  0
    7.9275  -15.6138   20.7182 N   0  0  0  0  0  0  0  0  0  0  0  0
    7.9753  -16.9811   20.2595 C   0  0  0  0  0  0  0  0  0  0  0  0
    6.4864  -17.3611   20.3513 C   0  0  0  0  0  0  0  0  0  0  0  0
    6.2278  -16.8828   21.7866 C   0  0  0  0  0  0  0  0  0  0  0  0
    7.1455  -15.7003   21.9647 C   0  0  1  0  0  0  0  0  0  0  0  0
    8.0829  -15.9518   23.0880 C   0  0  0  0  0  0  0  0  0  0  0  0
    9.1876  -16.5181   22.8891 O   0  0  0  0  0  0  0  0  0  0  0  0
    7.7708  -15.5672   24.4157 N   0  0  0  0  0  0  0  0  0  0  0  0
    8.6872  -15.9263   25.5093 C   0  0  1  0  0  0  0  0  0  0  0  0
    9.1418  -14.6622   26.1913 C   0  0  0  0  0  0  0  0  0  0  0  0
    8.0232  -13.7711   26.5208 C   0  0  0  0  0  0  0  0  0  0  0  0
    6.8052  -13.8318   25.8918 C   0  0  0  0  0  0  0  0  0  0  0  0
    5.7466  -12.9792   26.2180 C   0  0  0  0  0  0  0  0  0  0  0  0
    5.9588  -12.0515   27.2115 C   0  0  0  0  0  0  0  0  0  0  0  0
    7.1705  -11.9854   27.8424 C   0  0  0  0  0  0  0  0  0  0  0  0
    8.2014  -12.8271   27.5140 C   0  0  0  0  0  0  0  0  0  0  0  0
    8.0272  -16.8794   26.4179 C   0  0  0  0  0  0  0  0  0  0  0  0
    6.8128  -17.1573   26.2932 O   0  0  0  0  0  0  0  0  0  0  0  0
    8.7308  -17.5023   27.4444 O   0  0  0  0  0  0  0  0  0  0  0  0
  2  1  1  0
  2  3  2  0
  4  5  1  0
  4  2  1  0
  5  6  1  0
  6  7  1  1
  8  6  1  0
  8 10  1  0
  9  8  2  0
 10 14  1  0
 10 11  1  0
 12 11  1  0
 13 14  1  0
 13 12  1  0
 14 15  1  1
 16 15  2  0
 17 15  1  0
 18 17  1  0
 18 26  1  0
 19 20  1  0
 18 19  1  1
 20 25  2  0
 21 22  2  0
 21 20  1  0
 22 23  1  0
 23 24  2  0
 25 24  1  0
 26 28  1  0
 27 26  2  0
M  END
$$$$
