QPF.pdb
     RDKit          3D

 28 29  0  0  1  0  0  0  0  0999 V2000
   10.7481  -20.8073   21.0696 N   0  0  0  0  0  0  0  0  0  0  0  0
   11.7295  -19.7632   21.1709 C   0  0  0  0  0  0  0  0  0  0  0  0
   12.6401  -19.9613   22.0116 O   0  0  0  0  0  0  0  0  0  0  0  0
   11.5899  -18.5867   20.3089 C   0  0  0  0  0  0  0  0  0  0  0  0
   10.4547  -18.6350   19.3457 C   0  0  0  0  0  0  0  0  0  0  0  0
   10.0369  -17.3057   18.7766 C   0  0  2  0  0  0  0  0  0  0  0  0
   11.1696  -16.7655   18.0488 N   0  0  0  0  0  0  0  0  0  0  0  0
    9.4593  -16.3767   19.7485 C   0  0  0  0  0  0  0  0  0  0  0  0
   10.1781  -15.3401   19.9970 O   0  0  0  0  0  0  0  0  0  0  0  0
    8.2367  -16.4836   20.4276 N   0  0  0  0  0  0  0  0  0  0  0  0
    7.2081  -17.4947   20.4673 C   0  0  0  0  0  0  0  0  0  0  0  0
    5.9566  -16.6330   20.2202 C   0  0  0  0  0  0  0  0  0  0  0  0
    6.2237  -15.5531   21.2776 C   0  0  0  0  0  0  0  0  0  0  0  0
    7.7259  -15.4425   21.3375 C   0  0  1  0  0  0  0  0  0  0  0  0
    8.2015  -15.7472   22.7103 C   0  0  0  0  0  0  0  0  0  0  0  0
    8.4908  -16.9243   23.0441 O   0  0  0  0  0  0  0  0  0  0  0  0
    8.3456  -14.7322   23.6885 N   0  0  0  0  0  0  0  0  0  0  0  0
    8.8223  -15.0848   25.0350 C   0  0  1  0  0  0  0  0  0  0  0  0
    9.1876  -13.8179   25.7637 C   0  0  0  0  0  0  0  0  0  0  0  0
    9.6297  -14.0720   27.1400 C   0  0  0  0  0  0  0  0  0  0  0  0
   10.7526  -14.7991   27.4451 C   0  0  0  0  0  0  0  0  0  0  0  0
   11.1645  -15.0307   28.7607 C   0  0  0  0  0  0  0  0  0  0  0  0
   10.3976  -14.4987   29.7714 C   0  0  0  0  0  0  0  0  0  0  0  0
    9.2769  -13.7731   29.4742 C   0  0  0  0  0  0  0  0  0  0  0  0
    8.8828  -13.5525   28.1799 C   0  0  0  0  0  0  0  0  0  0  0  0
    7.8013  -15.8883   25.7289 C   0  0  0  0  0  0  0  0  0  0  0  0
    6.5808  -15.6542   25.5777 O   0  0  0  0  0  0  0  0  0  0  0  0
    8.1590  -16.9337   26.5751 O   0  0  0  0  0  0  0  0  0  0  0  0
  2  1  1  0
  2  3  2  0
  4  5  1  0
  4  2  1  0
  5  6  1  0
  6  7  1  1
  8  6  1  0
  8 10  1  0
  9  8  2  0
 10 14  1  0
 10 11  1  0
 12 11  1  0
 13 14  1  0
 13 12  1  0
 14 15  1  1
 16 15  2  0
 17 15  1  0
 18 17  1  0
 18 26  1  0
 19 20  1  0
 18 19  1  1
 20 25  2  0
 21 22  2  0
 21 20  1  0
 22 23  1  0
 23 24  2  0
 25 24  1  0
 26 28  1  0
 27 26  2  0
M  END
$$$$
