QPF.pdb
     RDKit          3D

 28 29  0  0  1  0  0  0  0  0999 V2000
    3.5000  -19.1398   20.4410 N   0  0  0  0  0  0  0  0  0  0  0  0
    3.3891  -18.0158   21.3288 C   0  0  0  0  0  0  0  0  0  0  0  0
    2.2710  -17.4459   21.3372 O   0  0  0  0  0  0  0  0  0  0  0  0
    4.5577  -17.6386   22.1281 C   0  0  0  0  0  0  0  0  0  0  0  0
    5.7986  -18.4124   21.8451 C   0  0  0  0  0  0  0  0  0  0  0  0
    6.6640  -17.8604   20.7443 C   0  0  2  0  0  0  0  0  0  0  0  0
    7.1827  -18.9852   19.9893 N   0  0  0  0  0  0  0  0  0  0  0  0
    7.6929  -16.9187   21.1869 C   0  0  0  0  0  0  0  0  0  0  0  0
    8.7634  -17.4649   21.6440 O   0  0  0  0  0  0  0  0  0  0  0  0
    7.6481  -15.5170   21.1711 N   0  0  0  0  0  0  0  0  0  0  0  0
    6.6326  -14.5601   20.8032 C   0  0  0  0  0  0  0  0  0  0  0  0
    7.4389  -13.6387   19.8701 C   0  0  0  0  0  0  0  0  0  0  0  0
    8.6409  -13.3929   20.7923 C   0  0  0  0  0  0  0  0  0  0  0  0
    8.7815  -14.6691   21.5822 C   0  0  1  0  0  0  0  0  0  0  0  0
    8.6496  -14.3835   23.0330 C   0  0  0  0  0  0  0  0  0  0  0  0
    8.6090  -13.1996   23.4542 O   0  0  0  0  0  0  0  0  0  0  0  0
    8.5659  -15.4251   23.9901 N   0  0  0  0  0  0  0  0  0  0  0  0
    9.5816  -15.5192   25.0504 C   0  0  1  0  0  0  0  0  0  0  0  0
    9.6540  -14.1960   25.7668 C   0  0  0  0  0  0  0  0  0  0  0  0
    8.3261  -13.6678   26.1015 C   0  0  0  0  0  0  0  0  0  0  0  0
    7.1579  -14.2735   25.7127 C   0  0  0  0  0  0  0  0  0  0  0  0
    5.8994  -13.7616   26.0414 C   0  0  0  0  0  0  0  0  0  0  0  0
    5.8565  -12.6044   26.7841 C   0  0  0  0  0  0  0  0  0  0  0  0
    7.0172  -11.9953   27.1747 C   0  0  0  0  0  0  0  0  0  0  0  0
    8.2459  -12.5068   26.8464 C   0  0  0  0  0  0  0  0  0  0  0  0
    9.2690  -16.6519   25.9387 C   0  0  0  0  0  0  0  0  0  0  0  0
    9.9631  -16.8893   26.9532 O   0  0  0  0  0  0  0  0  0  0  0  0
    8.1925  -17.4952   25.6801 O   0  0  0  0  0  0  0  0  0  0  0  0
  2  1  1  0
  2  3  2  0
  4  5  1  0
  4  2  1  0
  5  6  1  0
  6  7  1  1
  8  6  1  0
  8 10  1  0
  9  8  2  0
 10 14  1  0
 10 11  1  0
 12 11  1  0
 13 14  1  0
 13 12  1  0
 14 15  1  1
 16 15  2  0
 17 15  1  0
 18 17  1  0
 18 26  1  0
 19 20  1  0
 18 19  1  1
 20 25  2  0
 21 22  2  0
 21 20  1  0
 22 23  1  0
 23 24  2  0
 25 24  1  0
 26 28  1  0
 27 26  2  0
M  END
$$$$
