QPF.pdb
     RDKit          3D

 28 29  0  0  1  0  0  0  0  0999 V2000
   13.4122  -16.1273   19.7139 N   0  0  0  0  0  0  0  0  0  0  0  0
   13.3379  -14.8560   19.0493 C   0  0  0  0  0  0  0  0  0  0  0  0
   14.3427  -14.5489   18.3628 O   0  0  0  0  0  0  0  0  0  0  0  0
   12.1295  -14.0459   19.2233 C   0  0  0  0  0  0  0  0  0  0  0  0
   10.8470  -14.7471   18.9366 C   0  0  0  0  0  0  0  0  0  0  0  0
    9.6023  -13.9373   19.1821 C   0  0  2  0  0  0  0  0  0  0  0  0
    9.9228  -12.5487   18.9110 N   0  0  0  0  0  0  0  0  0  0  0  0
    8.9746  -14.1571   20.4855 C   0  0  0  0  0  0  0  0  0  0  0  0
    9.3934  -13.3835   21.4232 O   0  0  0  0  0  0  0  0  0  0  0  0
    7.9888  -15.0954   20.8245 N   0  0  0  0  0  0  0  0  0  0  0  0
    7.2751  -16.1006   20.0746 C   0  0  0  0  0  0  0  0  0  0  0  0
    5.8262  -15.7832   20.4863 C   0  0  0  0  0  0  0  0  0  0  0  0
    6.0347  -15.7474   22.0065 C   0  0  0  0  0  0  0  0  0  0  0  0
    7.4402  -15.2330   22.1856 C   0  0  1  0  0  0  0  0  0  0  0  0
    8.2557  -16.2332   22.9193 C   0  0  0  0  0  0  0  0  0  0  0  0
    9.3742  -16.5997   22.4774 O   0  0  0  0  0  0  0  0  0  0  0  0
    7.8082  -16.8086   24.1345 N   0  0  0  0  0  0  0  0  0  0  0  0
    8.5123  -16.4954   25.3879 C   0  0  1  0  0  0  0  0  0  0  0  0
    8.6441  -14.9993   25.5054 C   0  0  0  0  0  0  0  0  0  0  0  0
    9.2661  -14.5903   26.7703 C   0  0  0  0  0  0  0  0  0  0  0  0
   10.5272  -14.9788   27.1463 C   0  0  0  0  0  0  0  0  0  0  0  0
   11.1093  -14.5790   28.3526 C   0  0  0  0  0  0  0  0  0  0  0  0
   10.3690  -13.7645   29.1781 C   0  0  0  0  0  0  0  0  0  0  0  0
    9.1112  -13.3737   28.8094 C   0  0  0  0  0  0  0  0  0  0  0  0
    8.5507  -13.7722   27.6236 C   0  0  0  0  0  0  0  0  0  0  0  0
    7.8055  -17.1139   26.5226 C   0  0  0  0  0  0  0  0  0  0  0  0
    8.4093  -17.8452   27.3400 O   0  0  0  0  0  0  0  0  0  0  0  0
    6.4443  -16.9062   26.7239 O   0  0  0  0  0  0  0  0  0  0  0  0
  2  1  1  0
  2  3  2  0
  4  5  1  0
  4  2  1  0
  5  6  1  0
  6  7  1  1
  8  6  1  0
  8 10  1  0
  9  8  2  0
 10 14  1  0
 10 11  1  0
 12 11  1  0
 13 14  1  0
 13 12  1  0
 14 15  1  1
 16 15  2  0
 17 15  1  0
 18 17  1  0
 18 26  1  0
 19 20  1  0
 18 19  1  1
 20 25  2  0
 21 22  2  0
 21 20  1  0
 22 23  1  0
 23 24  2  0
 25 24  1  0
 26 28  1  0
 27 26  2  0
M  END
$$$$
