NFI.pdb
     RDKit          3D

 28 28  0  0  1  0  0  0  0  0999 V2000
   12.9470  -19.8996   19.0766 N   0  0  0  0  0  0  0  0  0  0  0  0
   11.7753  -19.6767   19.8298 C   0  0  0  0  0  0  0  0  0  0  0  0
   10.7794  -20.3991   19.6473 O   0  0  0  0  0  0  0  0  0  0  0  0
   11.7303  -18.5976   20.8256 C   0  0  0  0  0  0  0  0  0  0  0  0
   10.7875  -17.5363   20.3857 C   0  0  2  0  0  0  0  0  0  0  0  0
   11.1443  -16.9399   19.1146 N   0  0  0  0  0  0  0  0  0  0  0  0
   10.4681  -16.5215   21.4150 C   0  0  0  0  0  0  0  0  0  0  0  0
   11.3190  -15.5967   21.5953 O   0  0  0  0  0  0  0  0  0  0  0  0
    9.2642  -16.5938   22.1555 N   0  0  0  0  0  0  0  0  0  0  0  0
    9.0437  -15.6753   23.2660 C   0  0  1  0  0  0  0  0  0  0  0  0
    7.5928  -15.2764   23.2422 C   0  0  0  0  0  0  0  0  0  0  0  0
    7.1964  -14.2607   24.2053 C   0  0  0  0  0  0  0  0  0  0  0  0
    7.5316  -12.9263   24.0605 C   0  0  0  0  0  0  0  0  0  0  0  0
    7.1417  -11.9816   24.9891 C   0  0  0  0  0  0  0  0  0  0  0  0
    6.4022  -12.3274   26.0979 C   0  0  0  0  0  0  0  0  0  0  0  0
    6.0646  -13.6680   26.2437 C   0  0  0  0  0  0  0  0  0  0  0  0
    6.4529  -14.6212   25.3157 C   0  0  0  0  0  0  0  0  0  0  0  0
    9.3524  -16.3034   24.5602 C   0  0  0  0  0  0  0  0  0  0  0  0
    9.0618  -17.4884   24.7403 O   0  0  0  0  0  0  0  0  0  0  0  0
   10.2280  -12.8457   28.8875 C   0  0  0  0  0  0  0  0  0  0  0  0
   10.5420  -13.7850   27.7668 C   0  0  0  0  0  0  0  0  0  0  0  0
   10.1995  -15.2258   28.0554 C   0  0  2  0  0  0  0  0  0  0  0  0
   10.9384  -15.7150   29.2868 C   0  0  0  0  0  0  0  0  0  0  0  0
   10.3690  -16.1454   26.8838 C   0  0  2  0  0  0  0  0  0  0  0  0
    9.9876  -15.5714   25.6320 N   0  0  0  0  0  0  0  0  0  0  0  0
    9.8922  -17.5244   27.0934 C   0  0  0  0  0  0  0  0  0  0  0  0
    8.5373  -17.8982   26.9579 O   0  0  0  0  0  0  0  0  0  0  0  0
   10.6449  -18.4820   27.4092 O   0  0  0  0  0  0  0  0  0  0  0  0
  1  2  1  0
  2  3  2  0
  4  2  1  0
  4  5  1  0
  5  6  1  6
  7  5  1  0
  7  8  2  0
  9  7  1  0
 10  9  1  0
 11 12  1  0
 10 11  1  1
 12 13  2  0
 12 17  1  0
 13 14  1  0
 14 15  2  0
 16 15  1  0
 17 16  2  0
 18 10  1  0
 19 18  2  0
 21 20  1  0
 22 21  1  0
 22 23  1  1
 24 22  1  0
 24 25  1  6
 25 18  1  0
 26 24  1  0
 27 26  1  0
 28 26  2  0
M  END
$$$$
