NFI.pdb
     RDKit          3D

 28 28  0  0  1  0  0  0  0  0999 V2000
   10.5385  -17.6961   17.0369 N   0  0  0  0  0  0  0  0  0  0  0  0
   11.3894  -17.5784   18.1559 C   0  0  0  0  0  0  0  0  0  0  0  0
   12.3743  -18.3305   18.2622 O   0  0  0  0  0  0  0  0  0  0  0  0
   11.1155  -16.5725   19.1909 C   0  0  0  0  0  0  0  0  0  0  0  0
   10.7201  -17.2395   20.4588 C   0  0  2  0  0  0  0  0  0  0  0  0
    9.7183  -18.2704   20.2789 N   0  0  0  0  0  0  0  0  0  0  0  0
   10.3889  -16.3188   21.5697 C   0  0  0  0  0  0  0  0  0  0  0  0
   11.2580  -15.4438   21.8708 O   0  0  0  0  0  0  0  0  0  0  0  0
    9.1547  -16.4231   22.2544 N   0  0  0  0  0  0  0  0  0  0  0  0
    8.9153  -15.6073   23.4386 C   0  0  1  0  0  0  0  0  0  0  0  0
    7.4495  -15.2673   23.4652 C   0  0  0  0  0  0  0  0  0  0  0  0
    7.0376  -14.3062   24.4766 C   0  0  0  0  0  0  0  0  0  0  0  0
    6.4137  -14.6839   25.6522 C   0  0  0  0  0  0  0  0  0  0  0  0
    6.0337  -13.7512   26.5970 C   0  0  0  0  0  0  0  0  0  0  0  0
    6.2603  -12.4061   26.4094 C   0  0  0  0  0  0  0  0  0  0  0  0
    6.8876  -12.0259   25.2286 C   0  0  0  0  0  0  0  0  0  0  0  0
    7.2713  -12.9567   24.2762 C   0  0  0  0  0  0  0  0  0  0  0  0
    9.2687  -16.3249   24.6735 C   0  0  0  0  0  0  0  0  0  0  0  0
    9.1257  -17.5490   24.7219 O   0  0  0  0  0  0  0  0  0  0  0  0
   10.8378  -14.0356   29.9574 C   0  0  0  0  0  0  0  0  0  0  0  0
   10.3007  -14.4045   28.6111 C   0  0  0  0  0  0  0  0  0  0  0  0
   11.1870  -15.3424   27.8294 C   0  0  2  0  0  0  0  0  0  0  0  0
   12.2704  -14.5708   27.0995 C   0  0  0  0  0  0  0  0  0  0  0  0
   10.4452  -16.2803   26.9255 C   0  0  2  0  0  0  0  0  0  0  0  0
    9.7798  -15.6368   25.8368 N   0  0  0  0  0  0  0  0  0  0  0  0
    9.6410  -17.3084   27.6104 C   0  0  0  0  0  0  0  0  0  0  0  0
    8.2576  -17.4788   27.3847 O   0  0  0  0  0  0  0  0  0  0  0  0
   10.1130  -18.1182   28.4499 O   0  0  0  0  0  0  0  0  0  0  0  0
  1  2  1  0
  2  3  2  0
  4  2  1  0
  4  5  1  0
  5  6  1  6
  7  5  1  0
  7  8  2  0
  9  7  1  0
 10  9  1  0
 11 12  1  0
 10 11  1  1
 12 13  2  0
 12 17  1  0
 13 14  1  0
 14 15  2  0
 16 15  1  0
 17 16  2  0
 18 10  1  0
 19 18  2  0
 21 20  1  0
 22 21  1  0
 22 23  1  6
 24 22  1  0
 24 25  1  1
 25 18  1  0
 26 24  1  0
 27 26  1  0
 28 26  2  0
M  END
$$$$
