NFI.pdb
     RDKit          3D

 28 28  0  0  1  0  0  0  0  0999 V2000
   10.8282  -17.0937   16.7826 N   0  0  0  0  0  0  0  0  0  0  0  0
   11.4725  -17.2971   18.0209 C   0  0  0  0  0  0  0  0  0  0  0  0
   12.2128  -18.2847   18.1748 O   0  0  0  0  0  0  0  0  0  0  0  0
   11.2718  -16.3478   19.1239 C   0  0  0  0  0  0  0  0  0  0  0  0
   10.7326  -17.0554   20.3144 C   0  0  2  0  0  0  0  0  0  0  0  0
    9.6251  -17.9374   20.0074 N   0  0  0  0  0  0  0  0  0  0  0  0
   10.4562  -16.1882   21.4819 C   0  0  0  0  0  0  0  0  0  0  0  0
   11.3900  -15.4150   21.8587 O   0  0  0  0  0  0  0  0  0  0  0  0
    9.2023  -16.2316   22.1366 N   0  0  0  0  0  0  0  0  0  0  0  0
    8.9856  -15.4297   23.3347 C   0  0  1  0  0  0  0  0  0  0  0  0
    7.5106  -15.1461   23.4288 C   0  0  0  0  0  0  0  0  0  0  0  0
    7.1144  -14.1615   24.4237 C   0  0  0  0  0  0  0  0  0  0  0  0
    6.2567  -14.4610   25.4671 C   0  0  0  0  0  0  0  0  0  0  0  0
    5.8972  -13.5078   26.3994 C   0  0  0  0  0  0  0  0  0  0  0  0
    6.3776  -12.2193   26.3304 C   0  0  0  0  0  0  0  0  0  0  0  0
    7.2399  -11.9178   25.2825 C   0  0  0  0  0  0  0  0  0  0  0  0
    7.6045  -12.8695   24.3435 C   0  0  0  0  0  0  0  0  0  0  0  0
    9.4213  -16.1377   24.5487 C   0  0  0  0  0  0  0  0  0  0  0  0
    9.3758  -17.3699   24.5776 O   0  0  0  0  0  0  0  0  0  0  0  0
   10.4176  -12.8803   29.0680 C   0  0  0  0  0  0  0  0  0  0  0  0
   10.6481  -13.7543   27.8764 C   0  0  0  0  0  0  0  0  0  0  0  0
   10.3596  -15.2153   28.1181 C   0  0  2  0  0  0  0  0  0  0  0  0
   11.2325  -15.7552   29.2354 C   0  0  0  0  0  0  0  0  0  0  0  0
   10.4171  -16.0664   26.8855 C   0  0  2  0  0  0  0  0  0  0  0  0
    9.9023  -15.4310   25.7136 N   0  0  0  0  0  0  0  0  0  0  0  0
    9.9795  -17.4625   27.0650 C   0  0  0  0  0  0  0  0  0  0  0  0
    8.6329  -17.8232   27.2895 O   0  0  0  0  0  0  0  0  0  0  0  0
   10.7614  -18.4478   27.0342 O   0  0  0  0  0  0  0  0  0  0  0  0
  1  2  1  0
  2  3  2  0
  4  2  1  0
  4  5  1  0
  5  6  1  6
  7  5  1  0
  7  8  2  0
  9  7  1  0
 10  9  1  0
 11 12  1  0
 10 11  1  1
 12 13  2  0
 12 17  1  0
 13 14  1  0
 14 15  2  0
 16 15  1  0
 17 16  2  0
 18 10  1  0
 19 18  2  0
 21 20  1  0
 22 21  1  0
 22 23  1  1
 24 22  1  0
 24 25  1  6
 25 18  1  0
 26 24  1  0
 27 26  1  0
 28 26  2  0
M  END
$$$$
