NFI.pdb
     RDKit          3D

 28 28  0  0  1  0  0  0  0  0999 V2000
   12.5557  -18.7827   19.0681 N   0  0  0  0  0  0  0  0  0  0  0  0
   12.4975  -17.4258   18.6873 C   0  0  0  0  0  0  0  0  0  0  0  0
   12.9902  -17.0691   17.6024 O   0  0  0  0  0  0  0  0  0  0  0  0
   11.8579  -16.4376   19.5662 C   0  0  0  0  0  0  0  0  0  0  0  0
   11.1394  -17.1259   20.6702 C   0  0  2  0  0  0  0  0  0  0  0  0
   10.0175  -17.9232   20.2180 N   0  0  0  0  0  0  0  0  0  0  0  0
   10.7901  -16.2615   21.8200 C   0  0  0  0  0  0  0  0  0  0  0  0
   11.7423  -15.6362   22.3804 O   0  0  0  0  0  0  0  0  0  0  0  0
    9.4502  -16.1485   22.2615 N   0  0  0  0  0  0  0  0  0  0  0  0
    9.1512  -15.3986   23.4754 C   0  0  1  0  0  0  0  0  0  0  0  0
    7.6784  -15.0890   23.4649 C   0  0  0  0  0  0  0  0  0  0  0  0
    7.2055  -14.2107   24.5236 C   0  0  0  0  0  0  0  0  0  0  0  0
    7.5068  -12.8609   24.5614 C   0  0  0  0  0  0  0  0  0  0  0  0
    7.0441  -12.0484   25.5776 C   0  0  0  0  0  0  0  0  0  0  0  0
    6.2627  -12.5470   26.5958 C   0  0  0  0  0  0  0  0  0  0  0  0
    5.9592  -13.9030   26.5582 C   0  0  0  0  0  0  0  0  0  0  0  0
    6.4205  -14.7240   25.5415 C   0  0  0  0  0  0  0  0  0  0  0  0
    9.4754  -16.1708   24.6850 C   0  0  0  0  0  0  0  0  0  0  0  0
    9.3171  -17.3940   24.6805 O   0  0  0  0  0  0  0  0  0  0  0  0
   10.0528  -13.8332   30.0741 C   0  0  0  0  0  0  0  0  0  0  0  0
    9.6324  -14.7099   28.9377 C   0  0  0  0  0  0  0  0  0  0  0  0
   10.7793  -15.3538   28.1985 C   0  0  2  0  0  0  0  0  0  0  0  0
   11.7933  -14.3096   27.7704 C   0  0  0  0  0  0  0  0  0  0  0  0
   10.3605  -16.2422   27.0660 C   0  0  2  0  0  0  0  0  0  0  0  0
    9.9752  -15.5378   25.8840 N   0  0  0  0  0  0  0  0  0  0  0  0
    9.4618  -17.3505   27.4362 C   0  0  0  0  0  0  0  0  0  0  0  0
    8.1872  -17.5330   26.8567 O   0  0  0  0  0  0  0  0  0  0  0  0
    9.7494  -18.2243   28.2947 O   0  0  0  0  0  0  0  0  0  0  0  0
  1  2  1  0
  2  3  2  0
  4  2  1  0
  4  5  1  0
  5  6  1  6
  7  5  1  0
  7  8  2  0
  9  7  1  0
 10  9  1  0
 11 12  1  0
 10 11  1  1
 12 13  2  0
 12 17  1  0
 13 14  1  0
 14 15  2  0
 16 15  1  0
 17 16  2  0
 18 10  1  0
 19 18  2  0
 21 20  1  0
 22 21  1  0
 22 23  1  6
 24 22  1  0
 24 25  1  6
 25 18  1  0
 26 24  1  0
 27 26  1  0
 28 26  2  0
M  END
$$$$
