NFI.pdb
     RDKit          3D

 28 28  0  0  1  0  0  0  0  0999 V2000
   13.1012  -17.9178   17.7825 N   0  0  0  0  0  0  0  0  0  0  0  0
   11.7732  -17.6697   18.1884 C   0  0  0  0  0  0  0  0  0  0  0  0
   10.8426  -18.3206   17.6812 O   0  0  0  0  0  0  0  0  0  0  0  0
   11.4892  -16.6484   19.2055 C   0  0  0  0  0  0  0  0  0  0  0  0
   11.0524  -17.2953   20.4701 C   0  0  2  0  0  0  0  0  0  0  0  0
   10.0714  -18.3427   20.2722 N   0  0  0  0  0  0  0  0  0  0  0  0
   10.6663  -16.3573   21.5483 C   0  0  0  0  0  0  0  0  0  0  0  0
   11.5124  -15.4657   21.8661 O   0  0  0  0  0  0  0  0  0  0  0  0
    9.4069  -16.4635   22.1852 N   0  0  0  0  0  0  0  0  0  0  0  0
    9.1098  -15.6259   23.3409 C   0  0  1  0  0  0  0  0  0  0  0  0
    7.6303  -15.3506   23.3319 C   0  0  0  0  0  0  0  0  0  0  0  0
    7.1528  -14.4070   24.3308 C   0  0  0  0  0  0  0  0  0  0  0  0
    7.4931  -13.0662   24.3112 C   0  0  0  0  0  0  0  0  0  0  0  0
    7.0251  -12.1908   25.2712 C   0  0  0  0  0  0  0  0  0  0  0  0
    6.1994  -12.6151   26.2880 C   0  0  0  0  0  0  0  0  0  0  0  0
    5.8566  -13.9621   26.3081 C   0  0  0  0  0  0  0  0  0  0  0  0
    6.3229  -14.8460   25.3480 C   0  0  0  0  0  0  0  0  0  0  0  0
    9.4711  -16.2920   24.6021 C   0  0  0  0  0  0  0  0  0  0  0  0
    9.4598  -17.5241   24.6584 O   0  0  0  0  0  0  0  0  0  0  0  0
   10.4395  -12.7967   28.9540 C   0  0  0  0  0  0  0  0  0  0  0  0
   10.6241  -13.7834   27.8453 C   0  0  0  0  0  0  0  0  0  0  0  0
   10.1856  -15.1856   28.1883 C   0  0  2  0  0  0  0  0  0  0  0  0
   10.9604  -15.7115   29.3821 C   0  0  0  0  0  0  0  0  0  0  0  0
   10.2045  -16.1371   27.0302 C   0  0  2  0  0  0  0  0  0  0  0  0
    9.8396  -15.5442   25.7823 N   0  0  0  0  0  0  0  0  0  0  0  0
    9.5857  -17.4504   27.2859 C   0  0  0  0  0  0  0  0  0  0  0  0
   10.3239  -18.5804   27.7006 O   0  0  0  0  0  0  0  0  0  0  0  0
    8.3548  -17.6780   27.1579 O   0  0  0  0  0  0  0  0  0  0  0  0
  1  2  1  0
  2  3  2  0
  4  2  1  0
  4  5  1  0
  5  6  1  6
  7  5  1  0
  7  8  2  0
  9  7  1  0
 10  9  1  0
 11 12  1  0
 10 11  1  1
 12 13  2  0
 12 17  1  0
 13 14  1  0
 14 15  2  0
 16 15  1  0
 17 16  2  0
 18 10  1  0
 19 18  2  0
 21 20  1  0
 22 21  1  0
 22 23  1  1
 24 22  1  0
 24 25  1  6
 25 18  1  0
 26 24  1  0
 27 26  1  0
 28 26  2  0
M  END
$$$$
