NFI.pdb
     RDKit          3D

 28 28  0  0  1  0  0  0  0  0999 V2000
    8.0956  -19.7148   19.4335 N   0  0  0  0  0  0  0  0  0  0  0  0
    9.4351  -19.3862   19.7295 C   0  0  0  0  0  0  0  0  0  0  0  0
   10.3461  -19.7835   18.9817 O   0  0  0  0  0  0  0  0  0  0  0  0
    9.7541  -18.5783   20.9142 C   0  0  0  0  0  0  0  0  0  0  0  0
    9.5790  -17.1343   20.6093 C   0  0  2  0  0  0  0  0  0  0  0  0
   10.3889  -16.6781   19.4981 N   0  0  0  0  0  0  0  0  0  0  0  0
    9.6715  -16.2348   21.7814 C   0  0  0  0  0  0  0  0  0  0  0  0
   10.8357  -15.8883   22.1508 O   0  0  0  0  0  0  0  0  0  0  0  0
    8.5050  -15.7905   22.4483 N   0  0  0  0  0  0  0  0  0  0  0  0
    8.6274  -14.9908   23.6610 C   0  0  1  0  0  0  0  0  0  0  0  0
    7.2747  -14.3981   23.9508 C   0  0  0  0  0  0  0  0  0  0  0  0
    7.1828  -13.5786   25.1492 C   0  0  0  0  0  0  0  0  0  0  0  0
    6.5216  -13.9987   26.2895 C   0  0  0  0  0  0  0  0  0  0  0  0
    6.4499  -13.2015   27.4148 C   0  0  0  0  0  0  0  0  0  0  0  0
    7.0340  -11.9552   27.4498 C   0  0  0  0  0  0  0  0  0  0  0  0
    7.6990  -11.5326   26.3046 C   0  0  0  0  0  0  0  0  0  0  0  0
    7.7745  -12.3275   25.1719 C   0  0  0  0  0  0  0  0  0  0  0  0
    9.0551  -15.8060   24.8088 C   0  0  0  0  0  0  0  0  0  0  0  0
    8.4998  -16.8865   25.0217 O   0  0  0  0  0  0  0  0  0  0  0  0
   14.1122  -16.9295   25.1149 C   0  0  0  0  0  0  0  0  0  0  0  0
   12.6260  -16.8332   25.2521 C   0  0  0  0  0  0  0  0  0  0  0  0
   12.1606  -16.3763   26.6127 C   0  0  2  0  0  0  0  0  0  0  0  0
   12.7171  -17.2775   27.6989 C   0  0  0  0  0  0  0  0  0  0  0  0
   10.6772  -16.1928   26.7263 C   0  0  2  0  0  0  0  0  0  0  0  0
   10.1100  -15.3778   25.6986 N   0  0  0  0  0  0  0  0  0  0  0  0
   10.1829  -15.8960   28.0830 C   0  0  0  0  0  0  0  0  0  0  0  0
   10.0828  -16.8747   29.0959 O   0  0  0  0  0  0  0  0  0  0  0  0
    9.8096  -14.7534   28.4546 O   0  0  0  0  0  0  0  0  0  0  0  0
  1  2  1  0
  2  3  2  0
  4  2  1  0
  4  5  1  0
  5  6  1  6
  7  5  1  0
  7  8  2  0
  9  7  1  0
 10  9  1  0
 11 12  1  0
 10 11  1  1
 12 13  2  0
 12 17  1  0
 13 14  1  0
 14 15  2  0
 16 15  1  0
 17 16  2  0
 18 10  1  0
 19 18  2  0
 21 20  1  0
 22 21  1  0
 22 23  1  1
 24 22  1  0
 24 25  1  6
 25 18  1  0
 26 24  1  0
 27 26  1  0
 28 26  2  0
M  END
$$$$
