NFI.pdb
     RDKit          3D

 28 28  0  0  1  0  0  0  0  0999 V2000
   10.6557  -17.6891   17.0073 N   0  0  0  0  0  0  0  0  0  0  0  0
   11.4589  -17.4236   18.1361 C   0  0  0  0  0  0  0  0  0  0  0  0
   12.5445  -18.0152   18.2721 O   0  0  0  0  0  0  0  0  0  0  0  0
   11.0172  -16.4530   19.1464 C   0  0  0  0  0  0  0  0  0  0  0  0
   10.6670  -17.1543   20.4091 C   0  0  2  0  0  0  0  0  0  0  0  0
    9.6806  -18.2004   20.2321 N   0  0  0  0  0  0  0  0  0  0  0  0
   10.3470  -16.2641   21.5477 C   0  0  0  0  0  0  0  0  0  0  0  0
   11.2223  -15.4022   21.8683 O   0  0  0  0  0  0  0  0  0  0  0  0
    9.1164  -16.3818   22.2366 N   0  0  0  0  0  0  0  0  0  0  0  0
    8.8762  -15.5762   23.4277 C   0  0  1  0  0  0  0  0  0  0  0  0
    7.4059  -15.2576   23.4696 C   0  0  0  0  0  0  0  0  0  0  0  0
    6.9856  -14.3294   24.5079 C   0  0  0  0  0  0  0  0  0  0  0  0
    6.2478  -14.7278   25.6084 C   0  0  0  0  0  0  0  0  0  0  0  0
    5.8623  -13.8264   26.5809 C   0  0  0  0  0  0  0  0  0  0  0  0
    6.1964  -12.4933   26.4969 C   0  0  0  0  0  0  0  0  0  0  0  0
    6.9381  -12.0924   25.3917 C   0  0  0  0  0  0  0  0  0  0  0  0
    7.3280  -12.9917   24.4121 C   0  0  0  0  0  0  0  0  0  0  0  0
    9.2513  -16.2955   24.6551 C   0  0  0  0  0  0  0  0  0  0  0  0
    9.0639  -17.5128   24.7222 O   0  0  0  0  0  0  0  0  0  0  0  0
   10.1982  -13.8577   29.9861 C   0  0  0  0  0  0  0  0  0  0  0  0
    9.6988  -14.7037   28.8583 C   0  0  0  0  0  0  0  0  0  0  0  0
   10.7907  -15.3430   28.0366 C   0  0  2  0  0  0  0  0  0  0  0  0
   11.7349  -14.2892   27.4892 C   0  0  0  0  0  0  0  0  0  0  0  0
   10.2946  -16.2747   26.9721 C   0  0  2  0  0  0  0  0  0  0  0  0
    9.8345  -15.6171   25.7898 N   0  0  0  0  0  0  0  0  0  0  0  0
    9.4184  -17.3610   27.4465 C   0  0  0  0  0  0  0  0  0  0  0  0
    8.0761  -17.5026   27.0317 O   0  0  0  0  0  0  0  0  0  0  0  0
    9.7867  -18.2505   28.2566 O   0  0  0  0  0  0  0  0  0  0  0  0
  1  2  1  0
  2  3  2  0
  4  2  1  0
  4  5  1  0
  5  6  1  6
  7  5  1  0
  7  8  2  0
  9  7  1  0
 10  9  1  0
 11 12  1  0
 10 11  1  1
 12 13  2  0
 12 17  1  0
 13 14  1  0
 14 15  2  0
 16 15  1  0
 17 16  2  0
 18 10  1  0
 19 18  2  0
 21 20  1  0
 22 21  1  0
 22 23  1  6
 24 22  1  0
 24 25  1  6
 25 18  1  0
 26 24  1  0
 27 26  1  0
 28 26  2  0
M  END
$$$$
