CNH.pdb
     RDKit          3D

 25 25  0  0  1  0  0  0  0  0999 V2000
   10.0515  -14.4177   17.7578 N   0  0  0  0  0  0  0  0  0  0  0  0
    8.9395  -13.8378   18.4490 C   0  0  1  0  0  0  0  0  0  0  0  0
    7.7643  -13.5390   17.5482 C   0  0  0  0  0  0  0  0  0  0  0  0
    6.4936  -12.5852   18.3934 S   0  0  0  0  0  0  0  0  0  0  0  0
    8.4959  -14.6627   19.5929 C   0  0  0  0  0  0  0  0  0  0  0  0
    7.5811  -14.3206   20.3859 O   0  0  0  0  0  0  0  0  0  0  0  0
   10.5085  -19.8825   21.8056 N   0  0  0  0  0  0  0  0  0  0  0  0
    9.2704  -19.2614   21.3958 C   0  0  0  0  0  0  0  0  0  0  0  0
    8.2371  -19.7560   21.8286 O   0  0  0  0  0  0  0  0  0  0  0  0
    9.3665  -18.1248   20.5216 C   0  0  0  0  0  0  0  0  0  0  0  0
    8.7149  -16.8162   20.9318 C   0  0  2  0  0  0  0  0  0  0  0  0
    9.1254  -15.9004   19.8156 N   0  0  0  0  0  0  0  0  0  0  0  0
    9.1608  -16.2660   22.1970 C   0  0  0  0  0  0  0  0  0  0  0  0
    8.6591  -15.1299   22.5300 O   0  0  0  0  0  0  0  0  0  0  0  0
   10.0678  -16.7993   23.1297 N   0  0  0  0  0  0  0  0  0  0  0  0
   10.1638  -16.2737   24.5063 C   0  0  1  0  0  0  0  0  0  0  0  0
    8.8711  -16.1678   25.1998 C   0  0  0  0  0  0  0  0  0  0  0  0
    8.1060  -14.9389   25.0571 C   0  0  0  0  0  0  0  0  0  0  0  0
    8.3528  -13.7661   24.3961 C   0  0  0  0  0  0  0  0  0  0  0  0
    7.3072  -12.9192   24.5413 N   0  0  0  0  0  0  0  0  0  0  0  0
    6.4134  -13.5697   25.2921 C   0  0  0  0  0  0  0  0  0  0  0  0
    6.8726  -14.7735   25.6080 N   0  0  0  0  0  0  0  0  0  0  0  0
   11.1843  -17.0767   25.2113 C   0  0  0  0  0  0  0  0  0  0  0  0
   11.1985  -18.3248   25.0896 O   0  0  0  0  0  0  0  0  0  0  0  0
   12.1557  -16.5070   26.0239 O   0  0  0  0  0  0  0  0  0  0  0  0
  2  1  1  6
  3  4  1  0
  3  2  1  0
  5  6  2  0
  5  2  1  0
  7  8  1  0
  8  9  2  0
  8 10  1  0
 11 10  1  6
 11 13  1  0
 11 12  1  0
 12  5  1  0
 13 15  1  0
 14 13  2  0
 15 16  1  0
 16 23  1  0
 17 18  1  0
 16 17  1  1
 18 22  1  0
 19 20  1  0
 19 18  2  0
 20 21  1  0
 21 22  2  0
 23 24  2  0
 23 25  1  0
M  END
$$$$
