CNH.pdb
     RDKit          3D

 25 25  0  0  1  0  0  0  0  0999 V2000
    7.5524  -12.8678   17.3121 N   0  0  0  0  0  0  0  0  0  0  0  0
    7.8969  -14.2513   17.4454 C   0  0  1  0  0  0  0  0  0  0  0  0
    9.1405  -14.6352   16.6786 C   0  0  0  0  0  0  0  0  0  0  0  0
    8.9504  -14.3660   14.9093 S   0  0  0  0  0  0  0  0  0  0  0  0
    8.0334  -14.6636   18.8586 C   0  0  0  0  0  0  0  0  0  0  0  0
    7.6372  -13.9680   19.8291 O   0  0  0  0  0  0  0  0  0  0  0  0
    7.5289  -18.2182   22.5828 N   0  0  0  0  0  0  0  0  0  0  0  0
    6.6623  -18.0574   21.4383 C   0  0  0  0  0  0  0  0  0  0  0  0
    5.5586  -18.5838   21.5057 O   0  0  0  0  0  0  0  0  0  0  0  0
    7.1744  -17.2973   20.3314 C   0  0  0  0  0  0  0  0  0  0  0  0
    8.4981  -16.5688   20.4810 C   0  0  2  0  0  0  0  0  0  0  0  0
    8.6387  -15.9004   19.1444 N   0  0  0  0  0  0  0  0  0  0  0  0
    9.6519  -17.4130   20.7228 C   0  0  0  0  0  0  0  0  0  0  0  0
    9.6925  -18.5193   20.0689 O   0  0  0  0  0  0  0  0  0  0  0  0
   10.7510  -17.1968   21.5726 N   0  0  0  0  0  0  0  0  0  0  0  0
   12.0958  -16.8980   21.0408 C   0  0  1  0  0  0  0  0  0  0  0  0
   12.1205  -15.8169   20.0439 C   0  0  0  0  0  0  0  0  0  0  0  0
   13.4082  -15.3744   19.5324 C   0  0  0  0  0  0  0  0  0  0  0  0
   14.6875  -15.8154   19.7384 C   0  0  0  0  0  0  0  0  0  0  0  0
   15.5578  -15.0834   19.0046 N   0  0  0  0  0  0  0  0  0  0  0  0
   14.8153  -14.1898   18.3442 C   0  0  0  0  0  0  0  0  0  0  0  0
   13.5335  -14.3489   18.6464 N   0  0  0  0  0  0  0  0  0  0  0  0
   12.9900  -16.6965   22.1997 C   0  0  0  0  0  0  0  0  0  0  0  0
   14.2077  -16.4556   22.0215 O   0  0  0  0  0  0  0  0  0  0  0  0
   12.5411  -16.7615   23.5124 O   0  0  0  0  0  0  0  0  0  0  0  0
  2  1  1  1
  3  4  1  0
  3  2  1  0
  5  6  2  0
  5  2  1  0
  7  8  1  0
  8  9  2  0
  8 10  1  0
 11 10  1  6
 11 13  1  0
 11 12  1  0
 12  5  1  0
 13 15  1  0
 14 13  2  0
 15 16  1  0
 16 23  1  0
 17 18  1  0
 16 17  1  6
 18 22  1  0
 19 20  1  0
 19 18  2  0
 20 21  1  0
 21 22  2  0
 23 24  2  0
 23 25  1  0
M  END
$$$$
