CNH.pdb
     RDKit          3D

 25 25  0  0  1  0  0  0  0  0999 V2000
    6.2450  -21.2346   15.2851 N   0  0  0  0  0  0  0  0  0  0  0  0
    6.6156  -20.7996   16.5980 C   0  0  1  0  0  0  0  0  0  0  0  0
    5.7899  -21.4318   17.6936 C   0  0  0  0  0  0  0  0  0  0  0  0
    5.9697  -20.5624   19.2591 S   0  0  0  0  0  0  0  0  0  0  0  0
    8.0536  -21.0048   16.8737 C   0  0  0  0  0  0  0  0  0  0  0  0
    8.6045  -22.1356   16.8974 O   0  0  0  0  0  0  0  0  0  0  0  0
   12.0642  -20.3332   14.8049 N   0  0  0  0  0  0  0  0  0  0  0  0
   11.0988  -19.3100   15.1331 C   0  0  0  0  0  0  0  0  0  0  0  0
   10.4920  -18.8054   14.1967 O   0  0  0  0  0  0  0  0  0  0  0  0
   10.9410  -18.9809   16.5231 C   0  0  0  0  0  0  0  0  0  0  0  0
   10.3171  -19.9995   17.4604 C   0  0  2  0  0  0  0  0  0  0  0  0
    8.8590  -19.8796   17.1247 N   0  0  0  0  0  0  0  0  0  0  0  0
   10.5096  -19.7468   18.8751 C   0  0  0  0  0  0  0  0  0  0  0  0
    9.5180  -19.2139   19.4964 O   0  0  0  0  0  0  0  0  0  0  0  0
   11.6318  -20.0066   19.6814 N   0  0  0  0  0  0  0  0  0  0  0  0
   11.4944  -20.4160   21.0934 C   0  0  1  0  0  0  0  0  0  0  0  0
   10.5094  -21.4855   21.3152 C   0  0  0  0  0  0  0  0  0  0  0  0
   10.3406  -22.0043   22.6636 C   0  0  0  0  0  0  0  0  0  0  0  0
   10.7850  -21.5727   23.8841 C   0  0  0  0  0  0  0  0  0  0  0  0
   10.3341  -22.3926   24.8620 N   0  0  0  0  0  0  0  0  0  0  0  0
    9.6101  -23.3311   24.2450 C   0  0  0  0  0  0  0  0  0  0  0  0
    9.6032  -23.1153   22.9362 N   0  0  0  0  0  0  0  0  0  0  0  0
   12.8522  -20.7057   21.5993 C   0  0  0  0  0  0  0  0  0  0  0  0
   13.3553  -19.9909   22.4985 O   0  0  0  0  0  0  0  0  0  0  0  0
   13.6221  -21.7568   21.1186 O   0  0  0  0  0  0  0  0  0  0  0  0
  2  1  1  6
  3  4  1  0
  3  2  1  0
  5  6  2  0
  5  2  1  0
  7  8  1  0
  8  9  2  0
  8 10  1  0
 11 10  1  6
 11 13  1  0
 11 12  1  0
 12  5  1  0
 13 15  1  0
 14 13  2  0
 15 16  1  0
 16 23  1  0
 17 18  1  0
 16 17  1  6
 18 22  1  0
 19 20  1  0
 19 18  2  0
 20 21  1  0
 21 22  2  0
 23 24  2  0
 23 25  1  0
M  END
$$$$
