CNH.pdb
     RDKit          3D

 25 25  0  0  1  0  0  0  0  0999 V2000
    7.1001  -19.4134   20.1992 N   0  0  0  0  0  0  0  0  0  0  0  0
    6.6848  -18.0850   20.5359 C   0  0  1  0  0  0  0  0  0  0  0  0
    5.5570  -18.0467   21.5402 C   0  0  0  0  0  0  0  0  0  0  0  0
    5.8653  -19.1342   22.9406 S   0  0  0  0  0  0  0  0  0  0  0  0
    7.8070  -17.2483   21.0118 C   0  0  0  0  0  0  0  0  0  0  0  0
    8.9157  -17.7137   21.3816 O   0  0  0  0  0  0  0  0  0  0  0  0
    6.9669  -12.8584   18.8551 N   0  0  0  0  0  0  0  0  0  0  0  0
    8.1629  -13.4846   19.3691 C   0  0  0  0  0  0  0  0  0  0  0  0
    8.9869  -13.8577   18.5435 O   0  0  0  0  0  0  0  0  0  0  0  0
    8.2738  -13.6107   20.7964 C   0  0  0  0  0  0  0  0  0  0  0  0
    8.7631  -14.9199   21.3896 C   0  0  2  0  0  0  0  0  0  0  0  0
    7.6354  -15.8532   21.0574 N   0  0  0  0  0  0  0  0  0  0  0  0
    8.9789  -14.9140   22.8234 C   0  0  0  0  0  0  0  0  0  0  0  0
    8.6991  -13.8180   23.4348 O   0  0  0  0  0  0  0  0  0  0  0  0
    9.4493  -15.9437   23.6573 N   0  0  0  0  0  0  0  0  0  0  0  0
    9.2060  -15.9346   25.1137 C   0  0  1  0  0  0  0  0  0  0  0  0
    7.8028  -15.6993   25.4864 C   0  0  0  0  0  0  0  0  0  0  0  0
    7.4023  -14.3534   25.8661 C   0  0  0  0  0  0  0  0  0  0  0  0
    8.1054  -13.1914   26.0359 C   0  0  0  0  0  0  0  0  0  0  0  0
    7.2672  -12.1832   26.3717 N   0  0  0  0  0  0  0  0  0  0  0  0
    6.0453  -12.7228   26.4086 C   0  0  0  0  0  0  0  0  0  0  0  0
    6.1072  -14.0138   26.1101 N   0  0  0  0  0  0  0  0  0  0  0  0
    9.7970  -17.1721   25.6640 C   0  0  0  0  0  0  0  0  0  0  0  0
    9.9101  -17.3187   26.9043 O   0  0  0  0  0  0  0  0  0  0  0  0
   10.2462  -18.2102   24.8582 O   0  0  0  0  0  0  0  0  0  0  0  0
  2  1  1  1
  3  4  1  0
  3  2  1  0
  5  6  2  0
  5  2  1  0
  7  8  1  0
  8  9  2  0
  8 10  1  0
 11 10  1  1
 11 13  1  0
 11 12  1  0
 12  5  1  0
 13 15  1  0
 14 13  2  0
 15 16  1  0
 16 23  1  0
 17 18  1  0
 16 17  1  6
 18 22  1  0
 19 20  1  0
 19 18  2  0
 20 21  1  0
 21 22  2  0
 23 24  2  0
 23 25  1  0
M  END
$$$$
