CNH.pdb
     RDKit          3D

 25 25  0  0  1  0  0  0  0  0999 V2000
    7.7604  -13.9274   17.9119 N   0  0  0  0  0  0  0  0  0  0  0  0
    8.4492  -13.7355   19.1526 C   0  0  1  0  0  0  0  0  0  0  0  0
    7.8258  -12.6717   20.0252 C   0  0  0  0  0  0  0  0  0  0  0  0
    8.6013  -12.5918   21.6473 S   0  0  0  0  0  0  0  0  0  0  0  0
    8.5892  -14.9922   19.9187 C   0  0  0  0  0  0  0  0  0  0  0  0
    7.7350  -15.9158   19.9051 O   0  0  0  0  0  0  0  0  0  0  0  0
   10.4329  -19.6801   20.6263 N   0  0  0  0  0  0  0  0  0  0  0  0
   11.2820  -18.5498   20.9233 C   0  0  0  0  0  0  0  0  0  0  0  0
   12.3381  -18.7901   21.4948 O   0  0  0  0  0  0  0  0  0  0  0  0
   10.8098  -17.2533   20.5215 C   0  0  0  0  0  0  0  0  0  0  0  0
    9.9772  -16.4338   21.4913 C   0  0  2  0  0  0  0  0  0  0  0  0
    9.7375  -15.1750   20.7096 N   0  0  0  0  0  0  0  0  0  0  0  0
   10.6231  -16.1068   22.7476 C   0  0  0  0  0  0  0  0  0  0  0  0
   11.0344  -14.8953   22.8757 O   0  0  0  0  0  0  0  0  0  0  0  0
   10.8648  -16.9263   23.8643 N   0  0  0  0  0  0  0  0  0  0  0  0
   10.9121  -16.3768   25.2340 C   0  0  1  0  0  0  0  0  0  0  0  0
    9.7661  -15.5212   25.5775 C   0  0  0  0  0  0  0  0  0  0  0  0
    9.7468  -14.8783   26.8822 C   0  0  0  0  0  0  0  0  0  0  0  0
   10.5841  -14.9506   27.9625 C   0  0  0  0  0  0  0  0  0  0  0  0
   10.1487  -14.1299   28.9466 N   0  0  0  0  0  0  0  0  0  0  0  0
    9.0418  -13.5496   28.4735 C   0  0  0  0  0  0  0  0  0  0  0  0
    8.7880  -13.9835   27.2459 N   0  0  0  0  0  0  0  0  0  0  0  0
   11.1394  -17.5111   26.1532 C   0  0  0  0  0  0  0  0  0  0  0  0
   11.4171  -17.3000   27.3577 O   0  0  0  0  0  0  0  0  0  0  0  0
   11.0596  -18.8354   25.7426 O   0  0  0  0  0  0  0  0  0  0  0  0
  2  1  1  6
  3  4  1  0
  3  2  1  0
  5  6  2  0
  5  2  1  0
  7  8  1  0
  8  9  2  0
  8 10  1  0
 11 10  1  6
 11 13  1  0
 11 12  1  0
 12  5  1  0
 13 15  1  0
 14 13  2  0
 15 16  1  0
 16 23  1  0
 17 18  1  0
 16 17  1  1
 18 22  1  0
 19 20  1  0
 19 18  2  0
 20 21  1  0
 21 22  2  0
 23 24  2  0
 23 25  1  0
M  END
$$$$
