CNH.pdb
     RDKit          3D

 25 25  0  0  1  0  0  0  0  0999 V2000
    7.7583  -13.8781   17.7223 N   0  0  0  0  0  0  0  0  0  0  0  0
    8.8825  -13.3192   18.4109 C   0  0  1  0  0  0  0  0  0  0  0  0
    8.5075  -12.6030   19.6869 C   0  0  0  0  0  0  0  0  0  0  0  0
    7.5591  -13.6561   20.7962 S   0  0  0  0  0  0  0  0  0  0  0  0
    9.9281  -14.3262   18.6911 C   0  0  0  0  0  0  0  0  0  0  0  0
    9.7385  -15.5676   18.6161 O   0  0  0  0  0  0  0  0  0  0  0  0
   14.6769  -16.5005   18.4930 N   0  0  0  0  0  0  0  0  0  0  0  0
   14.6531  -15.0664   18.3211 C   0  0  0  0  0  0  0  0  0  0  0  0
   15.7362  -14.5095   18.1937 O   0  0  0  0  0  0  0  0  0  0  0  0
   13.3649  -14.4293   18.3157 C   0  0  0  0  0  0  0  0  0  0  0  0
   12.3327  -14.8342   19.3530 C   0  0  2  0  0  0  0  0  0  0  0  0
   11.2094  -13.8817   19.0631 N   0  0  0  0  0  0  0  0  0  0  0  0
   12.7455  -14.6881   20.7352 C   0  0  0  0  0  0  0  0  0  0  0  0
   13.7523  -13.9173   20.9482 O   0  0  0  0  0  0  0  0  0  0  0  0
   12.1981  -15.2667   21.8939 N   0  0  0  0  0  0  0  0  0  0  0  0
   12.4427  -16.6799   22.2452 C   0  0  1  0  0  0  0  0  0  0  0  0
   12.0846  -17.6329   21.1837 C   0  0  0  0  0  0  0  0  0  0  0  0
   13.1042  -18.5533   20.7049 C   0  0  0  0  0  0  0  0  0  0  0  0
   14.4701  -18.4796   20.6590 C   0  0  0  0  0  0  0  0  0  0  0  0
   14.9823  -19.6202   20.1409 N   0  0  0  0  0  0  0  0  0  0  0  0
   13.9317  -20.3994   19.8672 C   0  0  0  0  0  0  0  0  0  0  0  0
   12.8059  -19.7801   20.1967 N   0  0  0  0  0  0  0  0  0  0  0  0
   13.8372  -16.7769   22.7241 C   0  0  0  0  0  0  0  0  0  0  0  0
   14.7095  -15.9887   22.2875 O   0  0  0  0  0  0  0  0  0  0  0  0
   14.2445  -17.7206   23.6580 O   0  0  0  0  0  0  0  0  0  0  0  0
  2  1  1  1
  3  4  1  0
  3  2  1  0
  5  6  2  0
  5  2  1  0
  7  8  1  0
  8  9  2  0
  8 10  1  0
 11 10  1  6
 11 13  1  0
 11 12  1  0
 12  5  1  0
 13 15  1  0
 14 13  2  0
 15 16  1  0
 16 23  1  0
 17 18  1  0
 16 17  1  6
 18 22  1  0
 19 20  1  0
 19 18  2  0
 20 21  1  0
 21 22  2  0
 23 24  2  0
 23 25  1  0
M  END
$$$$
