CNH.pdb
     RDKit          3D

 25 25  0  0  1  0  0  0  0  0999 V2000
    9.2334  -17.3468   15.5865 N   0  0  0  0  0  0  0  0  0  0  0  0
    8.6154  -16.2596   16.2840 C   0  0  1  0  0  0  0  0  0  0  0  0
    7.4146  -15.6919   15.5645 C   0  0  0  0  0  0  0  0  0  0  0  0
    7.8227  -15.1499   13.8976 S   0  0  0  0  0  0  0  0  0  0  0  0
    8.2449  -16.6181   17.6696 C   0  0  0  0  0  0  0  0  0  0  0  0
    7.6375  -15.8423   18.4518 O   0  0  0  0  0  0  0  0  0  0  0  0
    6.4518  -20.8281   19.0959 N   0  0  0  0  0  0  0  0  0  0  0  0
    7.8566  -20.7517   18.7683 C   0  0  0  0  0  0  0  0  0  0  0  0
    8.2571  -21.4998   17.8853 O   0  0  0  0  0  0  0  0  0  0  0  0
    8.6503  -19.8081   19.5065 C   0  0  0  0  0  0  0  0  0  0  0  0
    8.2316  -18.3489   19.5357 C   0  0  2  0  0  0  0  0  0  0  0  0
    8.5862  -17.8952   18.1495 N   0  0  0  0  0  0  0  0  0  0  0  0
    8.9204  -17.5207   20.5062 C   0  0  0  0  0  0  0  0  0  0  0  0
   10.1976  -17.6573   20.5641 O   0  0  0  0  0  0  0  0  0  0  0  0
    8.3937  -16.5731   21.4016 N   0  0  0  0  0  0  0  0  0  0  0  0
    9.2680  -15.7239   22.2352 C   0  0  1  0  0  0  0  0  0  0  0  0
    8.8478  -14.3161   22.3051 C   0  0  0  0  0  0  0  0  0  0  0  0
    8.8020  -13.5440   21.0732 C   0  0  0  0  0  0  0  0  0  0  0  0
    9.1708  -13.8304   19.7866 C   0  0  0  0  0  0  0  0  0  0  0  0
    8.9018  -12.7787   18.9785 N   0  0  0  0  0  0  0  0  0  0  0  0
    8.3658  -11.8419   19.7665 C   0  0  0  0  0  0  0  0  0  0  0  0
    8.2988  -12.2807   21.0166 N   0  0  0  0  0  0  0  0  0  0  0  0
    9.4127  -16.3958   23.5432 C   0  0  0  0  0  0  0  0  0  0  0  0
   10.1873  -15.9262   24.4104 O   0  0  0  0  0  0  0  0  0  0  0  0
    8.7172  -17.5519   23.8725 O   0  0  0  0  0  0  0  0  0  0  0  0
  2  1  1  6
  3  4  1  0
  3  2  1  0
  5  6  2  0
  5  2  1  0
  7  8  1  0
  8  9  2  0
  8 10  1  0
 11 10  1  6
 11 13  1  0
 11 12  1  0
 12  5  1  0
 13 15  1  0
 14 13  2  0
 15 16  1  0
 16 23  1  0
 17 18  1  0
 16 17  1  1
 18 22  1  0
 19 20  1  0
 19 18  2  0
 20 21  1  0
 21 22  2  0
 23 24  2  0
 23 25  1  0
M  END
$$$$
