CNH.pdb
     RDKit          3D

 25 25  0  0  1  0  0  0  0  0999 V2000
   10.1031  -18.8029   18.9355 N   0  0  0  0  0  0  0  0  0  0  0  0
    9.0537  -18.1898   19.6926 C   0  0  1  0  0  0  0  0  0  0  0  0
    8.5136  -19.0735   20.7922 C   0  0  0  0  0  0  0  0  0  0  0  0
    9.7138  -19.3167   22.1110 S   0  0  0  0  0  0  0  0  0  0  0  0
    9.4546  -16.8819   20.2534 C   0  0  0  0  0  0  0  0  0  0  0  0
   10.6510  -16.5114   20.3719 O   0  0  0  0  0  0  0  0  0  0  0  0
    7.9324  -12.1828   18.9965 N   0  0  0  0  0  0  0  0  0  0  0  0
    7.4459  -13.4809   19.4026 C   0  0  0  0  0  0  0  0  0  0  0  0
    6.9630  -14.1864   18.5259 O   0  0  0  0  0  0  0  0  0  0  0  0
    7.5736  -13.8220   20.7928 C   0  0  0  0  0  0  0  0  0  0  0  0
    8.7670  -14.6425   21.2486 C   0  0  2  0  0  0  0  0  0  0  0  0
    8.4501  -15.9954   20.6810 N   0  0  0  0  0  0  0  0  0  0  0  0
    8.9400  -14.7493   22.6843 C   0  0  0  0  0  0  0  0  0  0  0  0
    8.9407  -13.6431   23.3396 O   0  0  0  0  0  0  0  0  0  0  0  0
    9.1031  -15.8981   23.4784 N   0  0  0  0  0  0  0  0  0  0  0  0
    9.2907  -15.8102   24.9405 C   0  0  1  0  0  0  0  0  0  0  0  0
    8.0435  -15.6136   25.6949 C   0  0  0  0  0  0  0  0  0  0  0  0
    7.4705  -14.2778   25.7517 C   0  0  0  0  0  0  0  0  0  0  0  0
    7.9921  -13.0355   25.5110 C   0  0  0  0  0  0  0  0  0  0  0  0
    7.0385  -12.0890   25.6738 N   0  0  0  0  0  0  0  0  0  0  0  0
    5.9267  -12.7473   26.0148 C   0  0  0  0  0  0  0  0  0  0  0  0
    6.1657  -14.0511   26.0657 N   0  0  0  0  0  0  0  0  0  0  0  0
   10.0878  -16.9847   25.3509 C   0  0  0  0  0  0  0  0  0  0  0  0
   10.4749  -17.0996   26.5382 O   0  0  0  0  0  0  0  0  0  0  0  0
   10.4408  -17.9962   24.4673 O   0  0  0  0  0  0  0  0  0  0  0  0
  2  1  1  1
  3  4  1  0
  3  2  1  0
  5  6  2  0
  5  2  1  0
  7  8  1  0
  8  9  2  0
  8 10  1  0
 11 10  1  1
 11 13  1  0
 11 12  1  0
 12  5  1  0
 13 15  1  0
 14 13  2  0
 15 16  1  0
 16 23  1  0
 17 18  1  0
 16 17  1  1
 18 22  1  0
 19 20  1  0
 19 18  2  0
 20 21  1  0
 21 22  2  0
 23 24  2  0
 23 25  1  0
M  END
$$$$
