CNH.pdb
     RDKit          3D

 25 25  0  0  1  0  0  0  0  0999 V2000
    8.9279  -15.3753   15.4467 N   0  0  0  0  0  0  0  0  0  0  0  0
    9.5458  -14.4653   16.3635 C   0  0  1  0  0  0  0  0  0  0  0  0
    8.5543  -13.6199   17.1277 C   0  0  0  0  0  0  0  0  0  0  0  0
    7.3256  -12.8769   16.0427 S   0  0  0  0  0  0  0  0  0  0  0  0
   10.4539  -15.1489   17.3089 C   0  0  0  0  0  0  0  0  0  0  0  0
   10.4113  -16.3833   17.5474 O   0  0  0  0  0  0  0  0  0  0  0  0
   15.7555  -15.7363   18.1147 N   0  0  0  0  0  0  0  0  0  0  0  0
   14.9947  -14.8052   18.9153 C   0  0  0  0  0  0  0  0  0  0  0  0
   15.4879  -14.4678   19.9842 O   0  0  0  0  0  0  0  0  0  0  0  0
   13.7345  -14.3633   18.3844 C   0  0  0  0  0  0  0  0  0  0  0  0
   12.4533  -15.0118   18.8779 C   0  0  2  0  0  0  0  0  0  0  0  0
   11.4228  -14.3853   17.9842 N   0  0  0  0  0  0  0  0  0  0  0  0
   12.1144  -14.7507   20.2633 C   0  0  0  0  0  0  0  0  0  0  0  0
   11.5845  -13.6058   20.5117 O   0  0  0  0  0  0  0  0  0  0  0  0
   12.2754  -15.5761   21.3901 N   0  0  0  0  0  0  0  0  0  0  0  0
   11.1796  -15.7925   22.3560 C   0  0  1  0  0  0  0  0  0  0  0  0
    9.9001  -16.1711   21.7373 C   0  0  0  0  0  0  0  0  0  0  0  0
    9.0087  -15.1142   21.2853 C   0  0  0  0  0  0  0  0  0  0  0  0
    9.0630  -13.7504   21.3873 C   0  0  0  0  0  0  0  0  0  0  0  0
    7.9927  -13.1931   20.7746 N   0  0  0  0  0  0  0  0  0  0  0  0
    7.2769  -14.2137   20.2930 C   0  0  0  0  0  0  0  0  0  0  0  0
    7.8671  -15.3644   20.5879 N   0  0  0  0  0  0  0  0  0  0  0  0
   11.6783  -16.7338   23.3801 C   0  0  0  0  0  0  0  0  0  0  0  0
   10.9876  -16.9826   24.3967 O   0  0  0  0  0  0  0  0  0  0  0  0
   12.9054  -17.3754   23.2735 O   0  0  0  0  0  0  0  0  0  0  0  0
  2  1  1  1
  3  4  1  0
  3  2  1  0
  5  6  2  0
  5  2  1  0
  7  8  1  0
  8  9  2  0
  8 10  1  0
 11 10  1  6
 11 13  1  0
 11 12  1  0
 12  5  1  0
 13 15  1  0
 14 13  2  0
 15 16  1  0
 16 23  1  0
 17 18  1  0
 16 17  1  6
 18 22  1  0
 19 20  1  0
 19 18  2  0
 20 21  1  0
 21 22  2  0
 23 24  2  0
 23 25  1  0
M  END
$$$$
