PEA.pdb
     RDKit          3D

 22 22  0  0  1  0  0  0  0  0999 V2000
   28.5430  -19.3513  -17.4705 N   0  0  0  0  0  0  0  0  0  0  0  0
   29.0508  -18.3305  -18.3387 C   0  0  0  0  0  0  0  0  0  0  0  0
   28.3469  -17.0360  -18.0197 C   0  0  0  0  0  0  0  0  0  0  0  0
   27.2794  -17.4908  -17.0154 C   0  0  0  0  0  0  0  0  0  0  0  0
   28.0276  -18.6306  -16.3475 C   0  0  1  0  0  0  0  0  0  0  0  0
   27.1612  -19.4478  -15.4763 C   0  0  0  0  0  0  0  0  0  0  0  0
   26.6876  -20.5464  -15.9119 O   0  0  0  0  0  0  0  0  0  0  0  0
   26.8778  -18.9769  -14.1587 N   0  0  0  0  0  0  0  0  0  0  0  0
   25.9726  -19.7052  -13.3304 C   0  0  1  0  0  0  0  0  0  0  0  0
   26.1056  -19.4719  -11.8727 C   0  0  0  0  0  0  0  0  0  0  0  0
   25.1034  -20.1261  -11.0131 C   0  0  0  0  0  0  0  0  0  0  0  0
   25.1390  -21.5525  -10.8039 C   0  0  0  0  0  0  0  0  0  0  0  0
   24.1756  -22.3106  -10.6410 O   0  0  0  0  0  0  0  0  0  0  0  0
   24.5772  -19.4595  -13.8159 C   0  0  0  0  0  0  0  0  0  0  0  0
   24.1757  -18.2790  -13.9347 O   0  0  0  0  0  0  0  0  0  0  0  0
   26.4111  -22.1704  -10.7796 O   0  0  0  0  0  0  0  0  0  0  0  0
   22.0154  -21.4828  -15.5137 C   0  0  0  0  0  0  0  0  0  0  0  0
   22.4229  -20.3297  -14.6220 C   0  0  2  0  0  0  0  0  0  0  0  0
   23.7668  -20.5761  -14.1224 N   0  0  0  0  0  0  0  0  0  0  0  0
   21.4947  -20.2824  -13.4555 C   0  0  0  0  0  0  0  0  0  0  0  0
   21.8607  -20.6257  -12.2983 O   0  0  0  0  0  0  0  0  0  0  0  0
   20.1960  -19.8501  -13.6484 O   0  0  0  0  0  0  0  0  0  0  0  0
  1  5  1  0
  2  1  1  0
  3  4  1  0
  3  2  1  0
  4  5  1  0
  5  6  1  6
  6  7  2  0
  8  9  1  0
  8  6  1  0
  9 14  1  0
  9 10  1  1
 11 10  1  0
 11 12  1  0
 12 13  2  0
 12 16  1  0
 14 15  2  0
 14 19  1  0
 18 17  1  6
 18 20  1  0
 19 18  1  0
 20 22  1  0
 21 20  2  0
M  END
$$$$
