PEA.pdb
     RDKit          3D

 22 22  0  0  1  0  0  0  0  0999 V2000
   44.7169  -11.2803   -8.3727 N   0  0  0  0  0  0  0  0  0  0  0  0
   45.7673  -12.2544   -8.3376 C   0  0  0  0  0  0  0  0  0  0  0  0
   45.9763  -12.6828   -6.9073 C   0  0  0  0  0  0  0  0  0  0  0  0
   45.0596  -11.7157   -6.1460 C   0  0  0  0  0  0  0  0  0  0  0  0
   43.9651  -11.5336   -7.1823 C   0  0  1  0  0  0  0  0  0  0  0  0
   43.0304  -10.4449   -6.8386 C   0  0  0  0  0  0  0  0  0  0  0  0
   42.3430  -10.5197   -5.7695 O   0  0  0  0  0  0  0  0  0  0  0  0
   42.9244   -9.3300   -7.7239 N   0  0  0  0  0  0  0  0  0  0  0  0
   42.1367   -8.2023   -7.3447 C   0  0  1  0  0  0  0  0  0  0  0  0
   42.8184   -6.8882   -7.4183 C   0  0  0  0  0  0  0  0  0  0  0  0
   43.7953   -6.5994   -6.3537 C   0  0  0  0  0  0  0  0  0  0  0  0
   44.4522   -5.3170   -6.2925 C   0  0  0  0  0  0  0  0  0  0  0  0
   44.3337   -4.3754   -7.0854 O   0  0  0  0  0  0  0  0  0  0  0  0
   40.8631   -8.2220   -8.1327 C   0  0  0  0  0  0  0  0  0  0  0  0
   40.9054   -8.5326   -9.3454 O   0  0  0  0  0  0  0  0  0  0  0  0
   45.3349   -5.0943   -5.2100 O   0  0  0  0  0  0  0  0  0  0  0  0
   37.2577   -7.7328   -7.2923 C   0  0  0  0  0  0  0  0  0  0  0  0
   38.4232   -7.9325   -8.2370 C   0  0  2  0  0  0  0  0  0  0  0  0
   39.6596   -7.8882   -7.4715 N   0  0  0  0  0  0  0  0  0  0  0  0
   38.4401   -6.8048   -9.2130 C   0  0  0  0  0  0  0  0  0  0  0  0
   39.1289   -5.7661   -9.0192 O   0  0  0  0  0  0  0  0  0  0  0  0
   37.6789   -6.9009  -10.3627 O   0  0  0  0  0  0  0  0  0  0  0  0
  1  5  1  0
  2  1  1  0
  3  4  1  0
  3  2  1  0
  4  5  1  0
  5  6  1  1
  6  7  2  0
  8  9  1  0
  8  6  1  0
  9 14  1  0
  9 10  1  6
 11 10  1  0
 11 12  1  0
 12 13  2  0
 12 16  1  0
 14 15  2  0
 14 19  1  0
 18 17  1  1
 18 20  1  0
 19 18  1  0
 20 22  1  0
 21 20  2  0
M  END
$$$$
