TEI.pdb
     RDKit          3D

 25 24  0  0  1  0  0  0  0  0999 V2000
   26.6040  -19.7215  -17.0558 C   0  0  0  0  0  0  0  0  0  0  0  0
   27.6130  -19.4545  -15.9595 C   0  0  1  0  0  0  0  0  0  0  0  0
   27.2075  -18.3777  -15.2113 O   0  0  0  0  0  0  0  0  0  0  0  0
   27.8500  -20.6918  -15.1159 C   0  0  2  0  0  0  0  0  0  0  0  0
   28.3276  -21.7330  -16.0018 N   0  0  0  0  0  0  0  0  0  0  0  0
   26.5754  -21.1013  -14.5320 C   0  0  0  0  0  0  0  0  0  0  0  0
   25.7309  -21.7002  -15.2430 O   0  0  0  0  0  0  0  0  0  0  0  0
   26.2066  -20.8650  -13.1750 N   0  0  0  0  0  0  0  0  0  0  0  0
   24.9390  -21.2348  -12.5963 C   0  0  1  0  0  0  0  0  0  0  0  0
   24.9263  -21.2739  -11.0971 C   0  0  0  0  0  0  0  0  0  0  0  0
   26.0760  -20.6464  -10.4017 C   0  0  0  0  0  0  0  0  0  0  0  0
   25.9597  -20.7778   -8.9445 C   0  0  0  0  0  0  0  0  0  0  0  0
   26.8481  -20.3220   -8.2031 O   0  0  0  0  0  0  0  0  0  0  0  0
   23.7808  -20.5050  -13.1328 C   0  0  0  0  0  0  0  0  0  0  0  0
   23.8964  -19.2713  -13.3410 O   0  0  0  0  0  0  0  0  0  0  0  0
   24.8639  -21.4077   -8.3997 O   0  0  0  0  0  0  0  0  0  0  0  0
   21.8013  -20.9965  -17.6806 C   0  0  0  0  0  0  0  0  0  0  0  0
   22.1911  -20.4583  -16.2911 C   0  0  0  0  0  0  0  0  0  0  0  0
   21.0420  -20.7113  -15.3567 C   0  0  2  0  0  0  0  0  0  0  0  0
   19.7614  -20.0841  -15.8626 C   0  0  0  0  0  0  0  0  0  0  0  0
   21.3929  -20.3082  -13.9682 C   0  0  2  0  0  0  0  0  0  0  0  0
   22.5173  -21.0826  -13.4394 N   0  0  0  0  0  0  0  0  0  0  0  0
   20.3079  -20.3933  -12.9777 C   0  0  0  0  0  0  0  0  0  0  0  0
   20.0024  -21.5092  -12.2244 O   0  0  0  0  0  0  0  0  0  0  0  0
   19.5826  -19.3880  -12.7798 O   0  0  0  0  0  0  0  0  0  0  0  0
  2  3  1  0
  2  1  1  6
  4  5  1  6
  4  2  1  0
  6  4  1  0
  7  6  2  0
  8  6  1  0
  9  8  1  0
  9 10  1  1
 11 10  1  0
 12 11  1  0
 13 12  2  0
 14  9  1  0
 14 22  1  0
 15 14  2  0
 16 12  1  0
 17 18  1  0
 19 18  1  0
 19 21  1  0
 19 20  1  6
 21 22  1  1
 21 23  1  0
 23 25  2  0
 23 24  1  0
M  END
$$$$
