TEI.pdb
     RDKit          3D

 25 24  0  0  1  0  0  0  0  0999 V2000
   22.1610  -12.2463  -17.8585 C   0  0  0  0  0  0  0  0  0  0  0  0
   21.2871  -12.8521  -18.9358 C   0  0  1  0  0  0  0  0  0  0  0  0
   21.8344  -14.0362  -19.3623 O   0  0  0  0  0  0  0  0  0  0  0  0
   19.8566  -13.0116  -18.4595 C   0  0  2  0  0  0  0  0  0  0  0  0
   19.0913  -13.5497  -19.5648 N   0  0  0  0  0  0  0  0  0  0  0  0
   19.3383  -11.6914  -18.1105 C   0  0  0  0  0  0  0  0  0  0  0  0
   19.2811  -10.7951  -18.9885 O   0  0  0  0  0  0  0  0  0  0  0  0
   18.8788  -11.3329  -16.8091 N   0  0  0  0  0  0  0  0  0  0  0  0
   18.3690  -10.0325  -16.4519 C   0  0  1  0  0  0  0  0  0  0  0  0
   17.0594  -10.0560  -15.7213 C   0  0  0  0  0  0  0  0  0  0  0  0
   16.2823  -11.3175  -15.7813 C   0  0  0  0  0  0  0  0  0  0  0  0
   15.6981  -11.6515  -14.4769 C   0  0  0  0  0  0  0  0  0  0  0  0
   16.3352  -12.3473  -13.6666 O   0  0  0  0  0  0  0  0  0  0  0  0
   19.3436   -9.1477  -15.7965 C   0  0  0  0  0  0  0  0  0  0  0  0
   20.0337   -9.6127  -14.8553 O   0  0  0  0  0  0  0  0  0  0  0  0
   14.4418  -11.1925  -14.1522 O   0  0  0  0  0  0  0  0  0  0  0  0
   22.4724   -5.5887  -18.5437 C   0  0  0  0  0  0  0  0  0  0  0  0
   21.2725   -5.8432  -17.6121 C   0  0  0  0  0  0  0  0  0  0  0  0
   21.7441   -6.7017  -16.4727 C   0  0  2  0  0  0  0  0  0  0  0  0
   22.4424   -7.9502  -16.9651 C   0  0  0  0  0  0  0  0  0  0  0  0
   20.6308   -6.9781  -15.5251 C   0  0  2  0  0  0  0  0  0  0  0  0
   19.5756   -7.7864  -16.1386 N   0  0  0  0  0  0  0  0  0  0  0  0
   19.9800   -5.7987  -14.9324 C   0  0  0  0  0  0  0  0  0  0  0  0
   20.5577   -4.9492  -14.0101 O   0  0  0  0  0  0  0  0  0  0  0  0
   18.8045   -5.5165  -15.2705 O   0  0  0  0  0  0  0  0  0  0  0  0
  2  3  1  0
  2  1  1  1
  4  5  1  6
  4  2  1  0
  6  4  1  0
  7  6  2  0
  8  6  1  0
  9  8  1  0
  9 10  1  1
 11 10  1  0
 12 11  1  0
 13 12  2  0
 14  9  1  0
 14 22  1  0
 15 14  2  0
 16 12  1  0
 17 18  1  0
 19 18  1  0
 19 21  1  0
 19 20  1  6
 21 22  1  6
 21 23  1  0
 23 25  2  0
 23 24  1  0
M  END
$$$$
