TEI.pdb
     RDKit          3D

 25 24  0  0  1  0  0  0  0  0999 V2000
   28.8737  -18.1213  -17.7751 C   0  0  0  0  0  0  0  0  0  0  0  0
   28.1827  -19.3522  -18.3219 C   0  0  1  0  0  0  0  0  0  0  0  0
   28.9501  -19.9099  -19.3137 O   0  0  0  0  0  0  0  0  0  0  0  0
   27.8564  -20.3373  -17.2165 C   0  0  2  0  0  0  0  0  0  0  0  0
   27.4873  -21.5872  -17.8476 N   0  0  0  0  0  0  0  0  0  0  0  0
   26.7166  -19.8215  -16.4627 C   0  0  0  0  0  0  0  0  0  0  0  0
   26.8899  -18.8962  -15.6313 O   0  0  0  0  0  0  0  0  0  0  0  0
   25.3823  -20.3039  -16.6040 N   0  0  0  0  0  0  0  0  0  0  0  0
   24.2441  -19.7800  -15.8908 C   0  0  1  0  0  0  0  0  0  0  0  0
   23.0497  -19.4902  -16.7505 C   0  0  0  0  0  0  0  0  0  0  0  0
   22.6046  -18.0776  -16.8232 C   0  0  0  0  0  0  0  0  0  0  0  0
   21.1833  -17.9436  -16.4823 C   0  0  0  0  0  0  0  0  0  0  0  0
   20.4397  -18.9402  -16.5005 O   0  0  0  0  0  0  0  0  0  0  0  0
   23.8764  -20.5308  -14.6813 C   0  0  0  0  0  0  0  0  0  0  0  0
   23.8750  -21.7861  -14.7349 O   0  0  0  0  0  0  0  0  0  0  0  0
   20.6748  -16.7107  -16.1421 O   0  0  0  0  0  0  0  0  0  0  0  0
   26.4697  -20.5389  -10.2862 C   0  0  0  0  0  0  0  0  0  0  0  0
   25.5305  -20.9743  -11.4266 C   0  0  0  0  0  0  0  0  0  0  0  0
   24.1578  -20.4428  -11.1253 C   0  0  2  0  0  0  0  0  0  0  0  0
   23.6616  -20.9097   -9.7744 C   0  0  0  0  0  0  0  0  0  0  0  0
   23.2194  -20.7445  -12.2397 C   0  0  2  0  0  0  0  0  0  0  0  0
   23.5125  -19.9505  -13.4343 N   0  0  0  0  0  0  0  0  0  0  0  0
   21.7886  -20.5663  -11.9448 C   0  0  0  0  0  0  0  0  0  0  0  0
   21.0230  -19.4862  -12.3360 O   0  0  0  0  0  0  0  0  0  0  0  0
   21.1875  -21.4489  -11.2849 O   0  0  0  0  0  0  0  0  0  0  0  0
  2  3  1  0
  2  1  1  1
  4  5  1  6
  4  2  1  0
  6  4  1  0
  7  6  2  0
  8  6  1  0
  9  8  1  0
  9 10  1  6
 11 10  1  0
 12 11  1  0
 13 12  2  0
 14  9  1  0
 14 22  1  0
 15 14  2  0
 16 12  1  0
 17 18  1  0
 19 18  1  0
 19 21  1  0
 19 20  1  1
 21 22  1  6
 21 23  1  0
 23 25  2  0
 23 24  1  0
M  END
$$$$
