TEI.pdb
     RDKit          3D

 25 24  0  0  1  0  0  0  0  0999 V2000
   16.5300  -10.0829  -15.9674 C   0  0  0  0  0  0  0  0  0  0  0  0
   17.1439  -10.8523  -17.1174 C   0  0  1  0  0  0  0  0  0  0  0  0
   16.4139  -11.9904  -17.3531 O   0  0  0  0  0  0  0  0  0  0  0  0
   17.2789   -9.9828  -18.3521 C   0  0  2  0  0  0  0  0  0  0  0  0
   17.8674  -10.7996  -19.3928 N   0  0  0  0  0  0  0  0  0  0  0  0
   18.1796   -8.8764  -18.0389 C   0  0  0  0  0  0  0  0  0  0  0  0
   19.4093   -9.0953  -17.9073 O   0  0  0  0  0  0  0  0  0  0  0  0
   17.7551   -7.5261  -17.8661 N   0  0  0  0  0  0  0  0  0  0  0  0
   18.5879   -6.4669  -17.3534 C   0  0  1  0  0  0  0  0  0  0  0  0
   17.9477   -5.1106  -17.3639 C   0  0  0  0  0  0  0  0  0  0  0  0
   18.7661   -3.9806  -16.8615 C   0  0  0  0  0  0  0  0  0  0  0  0
   18.0077   -2.7239  -16.8661 C   0  0  0  0  0  0  0  0  0  0  0  0
   17.7874   -2.1310  -17.9368 O   0  0  0  0  0  0  0  0  0  0  0  0
   19.2288   -6.7575  -16.0623 C   0  0  0  0  0  0  0  0  0  0  0  0
   18.5388   -7.2957  -15.1608 O   0  0  0  0  0  0  0  0  0  0  0  0
   17.5405   -2.2025  -15.6811 O   0  0  0  0  0  0  0  0  0  0  0  0
   23.4438   -9.8918  -13.6791 C   0  0  0  0  0  0  0  0  0  0  0  0
   22.6740   -8.5850  -13.4107 C   0  0  0  0  0  0  0  0  0  0  0  0
   22.0515   -8.1397  -14.7036 C   0  0  2  0  0  0  0  0  0  0  0  0
   23.0849   -7.9845  -15.7976 C   0  0  0  0  0  0  0  0  0  0  0  0
   21.2184   -6.9244  -14.4965 C   0  0  2  0  0  0  0  0  0  0  0  0
   20.5848   -6.4752  -15.7376 N   0  0  0  0  0  0  0  0  0  0  0  0
   21.9083   -5.7597  -13.9193 C   0  0  0  0  0  0  0  0  0  0  0  0
   22.1149   -4.5562  -14.5634 O   0  0  0  0  0  0  0  0  0  0  0  0
   22.3584   -5.8353  -12.7499 O   0  0  0  0  0  0  0  0  0  0  0  0
  2  3  1  0
  2  1  1  1
  4  5  1  6
  4  2  1  0
  6  4  1  0
  7  6  2  0
  8  6  1  0
  9  8  1  0
  9 10  1  1
 11 10  1  0
 12 11  1  0
 13 12  2  0
 14  9  1  0
 14 22  1  0
 15 14  2  0
 16 12  1  0
 17 18  1  0
 19 18  1  0
 19 21  1  0
 19 20  1  6
 21 22  1  6
 21 23  1  0
 23 25  2  0
 23 24  1  0
M  END
$$$$
