TEI.pdb
     RDKit          3D

 25 24  0  0  1  0  0  0  0  0999 V2000
   22.3100  -16.1105  -14.6735 C   0  0  0  0  0  0  0  0  0  0  0  0
   22.2308  -16.7465  -16.0449 C   0  0  1  0  0  0  0  0  0  0  0  0
   22.4288  -18.1004  -15.9379 O   0  0  0  0  0  0  0  0  0  0  0  0
   20.9262  -16.4032  -16.7368 C   0  0  2  0  0  0  0  0  0  0  0  0
   20.9627  -17.0087  -18.0516 N   0  0  0  0  0  0  0  0  0  0  0  0
   20.8476  -14.9513  -16.8756 C   0  0  0  0  0  0  0  0  0  0  0  0
   21.8122  -14.3227  -17.3773 O   0  0  0  0  0  0  0  0  0  0  0  0
   19.7247  -14.1706  -16.4721 N   0  0  0  0  0  0  0  0  0  0  0  0
   19.6713  -12.7306  -16.5189 C   0  0  1  0  0  0  0  0  0  0  0  0
   18.2850  -12.1599  -16.5649 C   0  0  0  0  0  0  0  0  0  0  0  0
   18.1718  -10.6839  -16.6520 C   0  0  0  0  0  0  0  0  0  0  0  0
   16.7744  -10.2453  -16.5548 C   0  0  0  0  0  0  0  0  0  0  0  0
   16.2454  -10.0867  -15.4405 O   0  0  0  0  0  0  0  0  0  0  0  0
   20.5083  -12.0505  -15.5195 C   0  0  0  0  0  0  0  0  0  0  0  0
   20.4194  -12.4129  -14.3198 O   0  0  0  0  0  0  0  0  0  0  0  0
   16.0500  -10.0099  -17.7012 O   0  0  0  0  0  0  0  0  0  0  0  0
   25.5323  -12.2003  -15.3550 C   0  0  0  0  0  0  0  0  0  0  0  0
   24.0393  -12.0497  -15.0079 C   0  0  0  0  0  0  0  0  0  0  0  0
   23.7068  -10.5845  -15.0158 C   0  0  2  0  0  0  0  0  0  0  0  0
   24.6018   -9.8030  -14.0791 C   0  0  0  0  0  0  0  0  0  0  0  0
   22.2556  -10.3718  -14.7662 C   0  0  2  0  0  0  0  0  0  0  0  0
   21.4240  -10.9974  -15.7961 N   0  0  0  0  0  0  0  0  0  0  0  0
   21.8187   -8.9711  -14.6524 C   0  0  0  0  0  0  0  0  0  0  0  0
   21.7929   -8.2371  -13.4834 O   0  0  0  0  0  0  0  0  0  0  0  0
   21.4309   -8.3677  -15.6825 O   0  0  0  0  0  0  0  0  0  0  0  0
  2  3  1  0
  2  1  1  1
  4  5  1  6
  4  2  1  0
  6  4  1  0
  7  6  2  0
  8  6  1  0
  9  8  1  0
  9 10  1  1
 11 10  1  0
 12 11  1  0
 13 12  2  0
 14  9  1  0
 14 22  1  0
 15 14  2  0
 16 12  1  0
 17 18  1  0
 19 18  1  0
 19 21  1  0
 19 20  1  1
 21 22  1  6
 21 23  1  0
 23 25  2  0
 23 24  1  0
M  END
$$$$
