PLV.pdb
     RDKit          3D

 23 23  0  0  1  0  0  0  0  0999 V2000
    7.4127  -16.1888   21.1809 N   0  0  0  0  0  0  0  0  0  0  0  0
    6.8206  -16.0046   19.8804 C   0  0  0  0  0  0  0  0  0  0  0  0
    7.4625  -14.7846   19.2811 C   0  0  0  0  0  0  0  0  0  0  0  0
    8.6401  -14.4372   20.1503 C   0  0  0  0  0  0  0  0  0  0  0  0
    8.6980  -15.5770   21.1326 C   0  0  1  0  0  0  0  0  0  0  0  0
    9.0405  -15.0800   22.5170 C   0  0  0  0  0  0  0  0  0  0  0  0
   10.1710  -14.5768   22.6626 O   0  0  0  0  0  0  0  0  0  0  0  0
    7.3136  -11.7231   25.3559 C   0  0  0  0  0  0  0  0  0  0  0  0
    6.4279  -12.9005   25.1243 C   0  0  2  0  0  0  0  0  0  0  0  0
    5.1697  -12.6678   25.9864 C   0  0  0  0  0  0  0  0  0  0  0  0
    7.0296  -14.2199   25.4235 C   0  0  0  0  0  0  0  0  0  0  0  0
    8.3197  -14.6477   24.8754 C   0  0  2  0  0  0  0  0  0  0  0  0
    8.1077  -15.2005   23.5438 N   0  0  0  0  0  0  0  0  0  0  0  0
    9.1657  -15.4982   25.6905 C   0  0  0  0  0  0  0  0  0  0  0  0
    9.4727  -16.6932   25.4648 O   0  0  0  0  0  0  0  0  0  0  0  0
   11.8457  -13.7660   28.5256 C   0  0  0  0  0  0  0  0  0  0  0  0
   11.2878  -15.1110   28.8485 C   0  0  1  0  0  0  0  0  0  0  0  0
   10.1998  -14.9506   29.8842 C   0  0  0  0  0  0  0  0  0  0  0  0
   10.6844  -15.8352   27.6681 C   0  0  2  0  0  0  0  0  0  0  0  0
    9.7712  -15.0066   26.9240 N   0  0  0  0  0  0  0  0  0  0  0  0
    9.9383  -17.0004   28.1839 C   0  0  0  0  0  0  0  0  0  0  0  0
   10.5997  -18.0780   28.7248 O   0  0  0  0  0  0  0  0  0  0  0  0
    8.6930  -17.0047   28.1270 O   0  0  0  0  0  0  0  0  0  0  0  0
  1  2  1  0
  3  2  1  0
  4  3  1  0
  5  4  1  0
  5  1  1  0
  5  6  1  1
  6  7  2  0
  9  8  1  1
  9 11  1  0
  9 10  1  0
 12 11  1  1
 12 14  1  0
 12 13  1  0
 13  6  1  0
 14 20  1  0
 15 14  2  0
 17 16  1  6
 17 19  1  0
 18 17  1  0
 19 21  1  0
 19 20  1  1
 21 23  2  0
 21 22  1  0
M  END
$$$$
