PLV.pdb
     RDKit          3D

 23 23  0  0  1  0  0  0  0  0999 V2000
    6.9285  -14.8682   20.4641 N   0  0  0  0  0  0  0  0  0  0  0  0
    6.3450  -14.2981   19.2765 C   0  0  0  0  0  0  0  0  0  0  0  0
    7.0892  -13.0220   18.9980 C   0  0  0  0  0  0  0  0  0  0  0  0
    8.3001  -13.0172   19.8905 C   0  0  0  0  0  0  0  0  0  0  0  0
    8.2632  -14.3763   20.5375 C   0  0  1  0  0  0  0  0  0  0  0  0
    8.6599  -14.2930   21.9923 C   0  0  0  0  0  0  0  0  0  0  0  0
    9.8784  -14.1874   22.2306 O   0  0  0  0  0  0  0  0  0  0  0  0
    5.8811  -12.5686   27.1463 C   0  0  0  0  0  0  0  0  0  0  0  0
    7.0943  -13.1980   26.5492 C   0  0  2  0  0  0  0  0  0  0  0  0
    8.2669  -12.2417   26.8505 C   0  0  0  0  0  0  0  0  0  0  0  0
    7.0148  -13.4867   25.0991 C   0  0  0  0  0  0  0  0  0  0  0  0
    7.9862  -14.3352   24.4033 C   0  0  2  0  0  0  0  0  0  0  0  0
    7.6783  -14.3362   22.9789 N   0  0  0  0  0  0  0  0  0  0  0  0
    8.2195  -15.6733   24.9116 C   0  0  0  0  0  0  0  0  0  0  0  0
    7.3514  -16.5320   25.1982 O   0  0  0  0  0  0  0  0  0  0  0  0
   10.4833  -18.3826   23.3068 C   0  0  0  0  0  0  0  0  0  0  0  0
   10.8349  -18.2318   24.7483 C   0  0  1  0  0  0  0  0  0  0  0  0
   12.1092  -17.4276   24.8567 C   0  0  0  0  0  0  0  0  0  0  0  0
    9.7850  -17.5279   25.5755 C   0  0  2  0  0  0  0  0  0  0  0  0
    9.5714  -16.1686   25.1503 N   0  0  0  0  0  0  0  0  0  0  0  0
   10.2500  -17.5078   26.9769 C   0  0  0  0  0  0  0  0  0  0  0  0
   10.3475  -18.6709   27.7042 O   0  0  0  0  0  0  0  0  0  0  0  0
   10.5574  -16.4213   27.5049 O   0  0  0  0  0  0  0  0  0  0  0  0
  1  2  1  0
  3  2  1  0
  4  3  1  0
  5  4  1  0
  5  1  1  0
  5  6  1  1
  6  7  2  0
  9  8  1  6
  9 11  1  0
  9 10  1  0
 12 11  1  1
 12 14  1  0
 12 13  1  0
 13  6  1  0
 14 20  1  0
 15 14  2  0
 17 16  1  6
 17 19  1  0
 18 17  1  0
 19 21  1  0
 19 20  1  6
 21 23  2  0
 21 22  1  0
M  END
$$$$
