PLV.pdb
     RDKit          3D

 23 23  0  0  1  0  0  0  0  0999 V2000
    7.3253  -15.5248   21.0435 N   0  0  0  0  0  0  0  0  0  0  0  0
    6.7894  -15.1514   19.7594 C   0  0  0  0  0  0  0  0  0  0  0  0
    7.5310  -13.9191   19.3221 C   0  0  0  0  0  0  0  0  0  0  0  0
    8.7005  -13.7576   20.2543 C   0  0  0  0  0  0  0  0  0  0  0  0
    8.6498  -15.0037   21.0982 C   0  0  1  0  0  0  0  0  0  0  0  0
    8.9800  -14.6941   22.5390 C   0  0  0  0  0  0  0  0  0  0  0  0
   10.1372  -14.2942   22.7701 O   0  0  0  0  0  0  0  0  0  0  0  0
    7.4521  -11.6455   25.7783 C   0  0  0  0  0  0  0  0  0  0  0  0
    6.4787  -12.7119   25.4044 C   0  0  2  0  0  0  0  0  0  0  0  0
    5.2414  -12.4975   26.3007 C   0  0  0  0  0  0  0  0  0  0  0  0
    6.9771  -14.1009   25.5251 C   0  0  0  0  0  0  0  0  0  0  0  0
    8.2374  -14.5480   24.9256 C   0  0  2  0  0  0  0  0  0  0  0  0
    8.0077  -14.8628   23.5214 N   0  0  0  0  0  0  0  0  0  0  0  0
    8.9902  -15.5873   25.6013 C   0  0  0  0  0  0  0  0  0  0  0  0
    8.9123  -16.8233   25.4032 O   0  0  0  0  0  0  0  0  0  0  0  0
   12.7696  -14.8490   27.5611 C   0  0  0  0  0  0  0  0  0  0  0  0
   11.7846  -15.7653   28.2050 C   0  0  1  0  0  0  0  0  0  0  0  0
   11.0662  -15.0144   29.3016 C   0  0  0  0  0  0  0  0  0  0  0  0
   10.7332  -16.3089   27.2664 C   0  0  2  0  0  0  0  0  0  0  0  0
    9.9657  -15.2648   26.6379 N   0  0  0  0  0  0  0  0  0  0  0  0
    9.8119  -17.1505   28.0558 C   0  0  0  0  0  0  0  0  0  0  0  0
   10.2309  -18.3476   28.5875 O   0  0  0  0  0  0  0  0  0  0  0  0
    8.6398  -16.7686   28.2413 O   0  0  0  0  0  0  0  0  0  0  0  0
  1  2  1  0
  3  2  1  0
  4  3  1  0
  5  4  1  0
  5  1  1  0
  5  6  1  1
  6  7  2  0
  9  8  1  1
  9 11  1  0
  9 10  1  0
 12 11  1  1
 12 14  1  0
 12 13  1  0
 13  6  1  0
 14 20  1  0
 15 14  2  0
 17 16  1  6
 17 19  1  0
 18 17  1  0
 19 21  1  0
 19 20  1  1
 21 23  2  0
 21 22  1  0
M  END
$$$$
