PLV.pdb
     RDKit          3D

 23 23  0  0  1  0  0  0  0  0999 V2000
    7.0837  -14.7991   20.8251 N   0  0  0  0  0  0  0  0  0  0  0  0
    6.5104  -14.1628   19.6666 C   0  0  0  0  0  0  0  0  0  0  0  0
    7.3071  -12.9121   19.4205 C   0  0  0  0  0  0  0  0  0  0  0  0
    8.5289  -12.9918   20.2944 C   0  0  0  0  0  0  0  0  0  0  0  0
    8.4400  -14.3696   20.8952 C   0  0  1  0  0  0  0  0  0  0  0  0
    8.8596  -14.3544   22.3459 C   0  0  0  0  0  0  0  0  0  0  0  0
   10.0746  -14.1937   22.5710 O   0  0  0  0  0  0  0  0  0  0  0  0
    8.2467  -11.7285   26.1089 C   0  0  0  0  0  0  0  0  0  0  0  0
    7.0809  -12.4850   25.5676 C   0  0  2  0  0  0  0  0  0  0  0  0
    5.8642  -12.0658   26.4185 C   0  0  0  0  0  0  0  0  0  0  0  0
    7.2272  -13.9584   25.5551 C   0  0  0  0  0  0  0  0  0  0  0  0
    8.2412  -14.6497   24.7540 C   0  0  2  0  0  0  0  0  0  0  0  0
    7.9014  -14.5156   23.3433 N   0  0  0  0  0  0  0  0  0  0  0  0
    8.5826  -16.0148   25.1053 C   0  0  0  0  0  0  0  0  0  0  0  0
    7.7951  -16.9858   25.2060 O   0  0  0  0  0  0  0  0  0  0  0  0
   11.5421  -18.6299   23.5258 C   0  0  0  0  0  0  0  0  0  0  0  0
   11.6367  -18.1310   24.9281 C   0  0  1  0  0  0  0  0  0  0  0  0
   12.4786  -16.8767   24.9425 C   0  0  0  0  0  0  0  0  0  0  0  0
   10.3073  -17.7897   25.5592 C   0  0  2  0  0  0  0  0  0  0  0  0
    9.9602  -16.4020   25.3917 N   0  0  0  0  0  0  0  0  0  0  0  0
   10.4058  -18.0718   27.0052 C   0  0  0  0  0  0  0  0  0  0  0  0
   10.5750  -19.3576   27.4628 O   0  0  0  0  0  0  0  0  0  0  0  0
   10.3345  -17.1306   27.8194 O   0  0  0  0  0  0  0  0  0  0  0  0
  1  2  1  0
  3  2  1  0
  4  3  1  0
  5  4  1  0
  5  1  1  0
  5  6  1  1
  6  7  2  0
  9  8  1  1
  9 11  1  0
  9 10  1  0
 12 11  1  1
 12 14  1  0
 12 13  1  0
 13  6  1  0
 14 20  1  0
 15 14  2  0
 17 16  1  6
 17 19  1  0
 18 17  1  0
 19 21  1  0
 19 20  1  1
 21 23  2  0
 21 22  1  0
M  END
$$$$
