PLV.pdb
     RDKit          3D

 23 23  0  0  1  0  0  0  0  0999 V2000
    7.0471  -14.7294   20.7114 N   0  0  0  0  0  0  0  0  0  0  0  0
    6.5244  -14.0356   19.5620 C   0  0  0  0  0  0  0  0  0  0  0  0
    7.3513  -12.7916   19.3939 C   0  0  0  0  0  0  0  0  0  0  0  0
    8.5416  -12.9304   20.3032 C   0  0  0  0  0  0  0  0  0  0  0  0
    8.4078  -14.3296   20.8434 C   0  0  1  0  0  0  0  0  0  0  0  0
    8.7789  -14.3815   22.3064 C   0  0  0  0  0  0  0  0  0  0  0  0
    9.9856  -14.2326   22.5789 O   0  0  0  0  0  0  0  0  0  0  0  0
    8.0825  -11.8666   26.1995 C   0  0  0  0  0  0  0  0  0  0  0  0
    6.9079  -12.5235   25.5566 C   0  0  2  0  0  0  0  0  0  0  0  0
    5.6780  -12.1225   26.3974 C   0  0  0  0  0  0  0  0  0  0  0  0
    6.9936  -13.9959   25.4253 C   0  0  0  0  0  0  0  0  0  0  0  0
    8.0695  -14.6669   24.6905 C   0  0  2  0  0  0  0  0  0  0  0  0
    7.7881  -14.5875   23.2629 N   0  0  0  0  0  0  0  0  0  0  0  0
    8.4496  -16.0060   25.0977 C   0  0  0  0  0  0  0  0  0  0  0  0
    7.6798  -16.9648   25.3453 O   0  0  0  0  0  0  0  0  0  0  0  0
   11.3999  -18.0349   23.3114 C   0  0  0  0  0  0  0  0  0  0  0  0
   11.4782  -18.1514   24.7962 C   0  0  1  0  0  0  0  0  0  0  0  0
   12.5900  -17.2593   25.2963 C   0  0  0  0  0  0  0  0  0  0  0  0
   10.2153  -17.7481   25.5204 C   0  0  2  0  0  0  0  0  0  0  0  0
    9.8507  -16.3781   25.2667 N   0  0  0  0  0  0  0  0  0  0  0  0
   10.4538  -17.9037   26.9693 C   0  0  0  0  0  0  0  0  0  0  0  0
   10.6082  -19.1506   27.5285 O   0  0  0  0  0  0  0  0  0  0  0  0
   10.5156  -16.8902   27.6924 O   0  0  0  0  0  0  0  0  0  0  0  0
  1  2  1  0
  3  2  1  0
  4  3  1  0
  5  4  1  0
  5  1  1  0
  5  6  1  1
  6  7  2  0
  9  8  1  1
  9 11  1  0
  9 10  1  0
 12 11  1  1
 12 14  1  0
 12 13  1  0
 13  6  1  0
 14 20  1  0
 15 14  2  0
 17 16  1  6
 17 19  1  0
 18 17  1  0
 19 21  1  0
 19 20  1  1
 21 23  2  0
 21 22  1  0
M  END
$$$$
