PLV.pdb
     RDKit          3D

 23 23  0  0  1  0  0  0  0  0999 V2000
    8.5460  -14.8814   20.2485 N   0  0  0  0  0  0  0  0  0  0  0  0
    8.1197  -15.6085   19.0801 C   0  0  0  0  0  0  0  0  0  0  0  0
    7.2526  -16.7369   19.5645 C   0  0  0  0  0  0  0  0  0  0  0  0
    6.9600  -16.4726   21.0162 C   0  0  0  0  0  0  0  0  0  0  0  0
    7.5627  -15.1132   21.2526 C   0  0  1  0  0  0  0  0  0  0  0  0
    8.2369  -15.0486   22.6025 C   0  0  0  0  0  0  0  0  0  0  0  0
    9.4709  -15.2208   22.6158 O   0  0  0  0  0  0  0  0  0  0  0  0
    8.0855  -11.7018   26.0613 C   0  0  0  0  0  0  0  0  0  0  0  0
    6.9160  -12.5886   25.7961 C   0  0  2  0  0  0  0  0  0  0  0  0
    5.7911  -12.1091   26.7369 C   0  0  0  0  0  0  0  0  0  0  0  0
    7.1621  -14.0381   25.9721 C   0  0  0  0  0  0  0  0  0  0  0  0
    8.0399  -14.8084   25.0868 C   0  0  2  0  0  0  0  0  0  0  0  0
    7.4759  -14.8066   23.7431 N   0  0  0  0  0  0  0  0  0  0  0  0
    8.4461  -16.1361   25.5059 C   0  0  0  0  0  0  0  0  0  0  0  0
    7.7069  -17.1388   25.6516 O   0  0  0  0  0  0  0  0  0  0  0  0
   11.2799  -18.1202   23.8349 C   0  0  0  0  0  0  0  0  0  0  0  0
   11.4515  -18.2190   25.3132 C   0  0  1  0  0  0  0  0  0  0  0  0
   12.6032  -17.3344   25.7295 C   0  0  0  0  0  0  0  0  0  0  0  0
   10.2422  -17.7912   26.1109 C   0  0  2  0  0  0  0  0  0  0  0  0
    9.8395  -16.4403   25.8155 N   0  0  0  0  0  0  0  0  0  0  0  0
   10.5933  -17.8676   27.5431 C   0  0  0  0  0  0  0  0  0  0  0  0
   10.8587  -19.0776   28.1403 O   0  0  0  0  0  0  0  0  0  0  0  0
   10.6491  -16.8205   28.2171 O   0  0  0  0  0  0  0  0  0  0  0  0
  1  2  1  0
  3  2  1  0
  4  3  1  0
  5  4  1  0
  5  1  1  0
  5  6  1  1
  6  7  2  0
  9  8  1  1
  9 11  1  0
  9 10  1  0
 12 11  1  1
 12 14  1  0
 12 13  1  0
 13  6  1  0
 14 20  1  0
 15 14  2  0
 17 16  1  6
 17 19  1  0
 18 17  1  0
 19 21  1  0
 19 20  1  6
 21 23  2  0
 21 22  1  0
M  END
$$$$
