YIT.pdb
     RDKit          3D

 28 28  0  0  1  0  0  0  0  0999 V2000
    6.8862  -18.7157   16.3053 O   0  0  0  0  0  0  0  0  0  0  0  0
    7.2898  -18.3349   17.5665 C   0  0  0  0  0  0  0  0  0  0  0  0
    8.6132  -18.0557   17.8251 C   0  0  0  0  0  0  0  0  0  0  0  0
    9.0175  -17.6765   19.0797 C   0  0  0  0  0  0  0  0  0  0  0  0
    8.1051  -17.5696   20.0990 C   0  0  0  0  0  0  0  0  0  0  0  0
    8.6207  -17.1487   21.4400 C   0  0  0  0  0  0  0  0  0  0  0  0
    8.7069  -15.6412   21.5086 C   0  0  2  0  0  0  0  0  0  0  0  0
    9.5542  -15.1386   20.4705 N   0  0  0  0  0  0  0  0  0  0  0  0
    9.1678  -15.2606   22.8637 C   0  0  0  0  0  0  0  0  0  0  0  0
   10.3741  -15.0360   23.1241 O   0  0  0  0  0  0  0  0  0  0  0  0
    6.7827  -17.8450   19.8549 C   0  0  0  0  0  0  0  0  0  0  0  0
    6.3905  -18.2237   18.5945 C   0  0  0  0  0  0  0  0  0  0  0  0
    6.0144  -11.9202   25.6645 C   0  0  0  0  0  0  0  0  0  0  0  0
    7.1293  -12.7079   25.0894 C   0  0  0  0  0  0  0  0  0  0  0  0
    7.6680  -13.8386   25.8859 C   0  0  2  0  0  0  0  0  0  0  0  0
    7.9463  -13.4993   27.3437 C   0  0  0  0  0  0  0  0  0  0  0  0
    8.6650  -14.7021   25.2380 C   0  0  2  0  0  0  0  0  0  0  0  0
    8.2280  -15.1417   23.9120 N   0  0  0  0  0  0  0  0  0  0  0  0
    8.9486  -15.9289   25.9957 C   0  0  0  0  0  0  0  0  0  0  0  0
    8.0483  -16.7134   26.3811 O   0  0  0  0  0  0  0  0  0  0  0  0
   12.0031  -19.6144   26.9024 C   0  0  0  0  0  0  0  0  0  0  0  0
   11.7456  -18.2710   26.2616 C   0  0  1  0  0  0  0  0  0  0  0  0
   11.5153  -18.4592   24.9012 O   0  0  0  0  0  0  0  0  0  0  0  0
   10.5343  -17.5969   26.9207 C   0  0  2  0  0  0  0  0  0  0  0  0
   10.2734  -16.3209   26.3513 N   0  0  0  0  0  0  0  0  0  0  0  0
   10.7743  -17.5125   28.3849 C   0  0  0  0  0  0  0  0  0  0  0  0
   10.8132  -18.6931   29.1034 O   0  0  0  0  0  0  0  0  0  0  0  0
   10.9330  -16.3821   28.9206 O   0  0  0  0  0  0  0  0  0  0  0  0
  2  1  1  0
  3  2  2  0
  4  3  1  0
  5 11  1  0
  5  4  2  0
  6  5  1  0
  7  6  1  0
  7  8  1  6
  9 10  2  0
  9  7  1  0
 11 12  2  0
 12  2  1  0
 14 13  1  0
 15 14  1  0
 15 16  1  1
 17 18  1  6
 17 15  1  0
 18  9  1  0
 19 17  1  0
 20 19  2  0
 22 23  1  0
 22 24  1  0
 22 21  1  1
 24 25  1  6
 25 19  1  0
 26 24  1  0
 26 27  1  0
 28 26  2  0
M  END
$$$$
