YIT.pdb
     RDKit          3D

 28 28  0  0  1  0  0  0  0  0999 V2000
    7.2183  -13.5983   15.4456 O   0  0  0  0  0  0  0  0  0  0  0  0
    7.3406  -13.9242   16.7788 C   0  0  0  0  0  0  0  0  0  0  0  0
    7.3048  -15.2393   17.1857 C   0  0  0  0  0  0  0  0  0  0  0  0
    7.4262  -15.5663   18.5121 C   0  0  0  0  0  0  0  0  0  0  0  0
    7.5857  -14.5835   19.4563 C   0  0  0  0  0  0  0  0  0  0  0  0
    7.7135  -15.0174   20.8834 C   0  0  0  0  0  0  0  0  0  0  0  0
    9.0750  -14.6361   21.4178 C   0  0  2  0  0  0  0  0  0  0  0  0
   10.1078  -15.2910   20.6746 N   0  0  0  0  0  0  0  0  0  0  0  0
    9.1153  -14.9539   22.8638 C   0  0  0  0  0  0  0  0  0  0  0  0
    9.9618  -15.7384   23.3554 O   0  0  0  0  0  0  0  0  0  0  0  0
    7.6232  -13.2685   19.0645 C   0  0  0  0  0  0  0  0  0  0  0  0
    7.5005  -12.9540   17.7333 C   0  0  0  0  0  0  0  0  0  0  0  0
    6.9866  -12.0029   27.9461 C   0  0  0  0  0  0  0  0  0  0  0  0
    7.8372  -13.0082   27.2678 C   0  0  0  0  0  0  0  0  0  0  0  0
    7.5877  -13.2767   25.8296 C   0  0  2  0  0  0  0  0  0  0  0  0
    6.1145  -13.3807   25.4597 C   0  0  0  0  0  0  0  0  0  0  0  0
    8.4748  -14.2394   25.1619 C   0  0  2  0  0  0  0  0  0  0  0  0
    8.1739  -14.3608   23.7346 N   0  0  0  0  0  0  0  0  0  0  0  0
    8.3737  -15.5984   25.7118 C   0  0  0  0  0  0  0  0  0  0  0  0
    7.2978  -16.2437   25.7358 O   0  0  0  0  0  0  0  0  0  0  0  0
    9.2036  -18.7929   24.7092 C   0  0  0  0  0  0  0  0  0  0  0  0
    9.9555  -18.6764   26.0141 C   0  0  1  0  0  0  0  0  0  0  0  0
   11.2923  -18.4005   25.7389 O   0  0  0  0  0  0  0  0  0  0  0  0
    9.3458  -17.5615   26.8751 C   0  0  2  0  0  0  0  0  0  0  0  0
    9.4949  -16.2879   26.2618 N   0  0  0  0  0  0  0  0  0  0  0  0
    9.9706  -17.6048   28.2229 C   0  0  0  0  0  0  0  0  0  0  0  0
    9.7766  -18.7385   28.9900 O   0  0  0  0  0  0  0  0  0  0  0  0
   10.6497  -16.6196   28.6207 O   0  0  0  0  0  0  0  0  0  0  0  0
  2  1  1  0
  3  2  2  0
  4  3  1  0
  5 11  1  0
  5  4  2  0
  6  5  1  0
  7  6  1  0
  7  8  1  6
  9 10  2  0
  9  7  1  0
 11 12  2  0
 12  2  1  0
 14 13  1  0
 15 14  1  0
 15 16  1  1
 17 18  1  6
 17 15  1  0
 18  9  1  0
 19 17  1  0
 20 19  2  0
 22 23  1  0
 22 24  1  0
 22 21  1  6
 24 25  1  6
 25 19  1  0
 26 24  1  0
 26 27  1  0
 28 26  2  0
M  END
$$$$
