YIT.pdb
     RDKit          3D

 28 28  0  0  1  0  0  0  0  0999 V2000
    6.7947  -14.6478   15.1539 O   0  0  0  0  0  0  0  0  0  0  0  0
    7.1016  -14.7871   16.4900 C   0  0  0  0  0  0  0  0  0  0  0  0
    6.5435  -15.8012   17.2359 C   0  0  0  0  0  0  0  0  0  0  0  0
    6.8474  -15.9420   18.5659 C   0  0  0  0  0  0  0  0  0  0  0  0
    7.7153  -15.0708   19.1745 C   0  0  0  0  0  0  0  0  0  0  0  0
    7.9999  -15.2891   20.6280 C   0  0  0  0  0  0  0  0  0  0  0  0
    8.9281  -14.2110   21.1387 C   0  0  2  0  0  0  0  0  0  0  0  0
   10.1551  -14.2141   20.4020 N   0  0  0  0  0  0  0  0  0  0  0  0
    9.1278  -14.4159   22.5918 C   0  0  0  0  0  0  0  0  0  0  0  0
   10.1988  -14.8654   23.0655 O   0  0  0  0  0  0  0  0  0  0  0  0
    8.2788  -14.0554   18.4426 C   0  0  0  0  0  0  0  0  0  0  0  0
    7.9666  -13.9250   17.1117 C   0  0  0  0  0  0  0  0  0  0  0  0
    6.8165  -11.9567   27.7914 C   0  0  0  0  0  0  0  0  0  0  0  0
    7.6495  -12.9592   27.0878 C   0  0  0  0  0  0  0  0  0  0  0  0
    7.4441  -13.1361   25.6285 C   0  0  2  0  0  0  0  0  0  0  0  0
    5.9828  -13.2070   25.2072 C   0  0  0  0  0  0  0  0  0  0  0  0
    8.3473  -14.0613   24.9300 C   0  0  2  0  0  0  0  0  0  0  0  0
    8.0847  -14.0988   23.4905 N   0  0  0  0  0  0  0  0  0  0  0  0
    8.2291  -15.4496   25.3972 C   0  0  0  0  0  0  0  0  0  0  0  0
    7.1571  -16.0988   25.3353 O   0  0  0  0  0  0  0  0  0  0  0  0
    9.6970  -18.3721   24.0503 C   0  0  0  0  0  0  0  0  0  0  0  0
   10.1009  -18.4402   25.5042 C   0  0  1  0  0  0  0  0  0  0  0  0
   11.4313  -18.0457   25.6196 O   0  0  0  0  0  0  0  0  0  0  0  0
    9.1977  -17.5271   26.3448 C   0  0  2  0  0  0  0  0  0  0  0  0
    9.3281  -16.1654   25.9584 N   0  0  0  0  0  0  0  0  0  0  0  0
    9.5203  -17.7294   27.7813 C   0  0  0  0  0  0  0  0  0  0  0  0
    9.2704  -18.9729   28.3318 O   0  0  0  0  0  0  0  0  0  0  0  0
   10.0056  -16.7741   28.4458 O   0  0  0  0  0  0  0  0  0  0  0  0
  2  1  1  0
  3  2  2  0
  4  3  1  0
  5 11  1  0
  5  4  2  0
  6  5  1  0
  7  6  1  0
  7  8  1  6
  9 10  2  0
  9  7  1  0
 11 12  2  0
 12  2  1  0
 14 13  1  0
 15 14  1  0
 15 16  1  1
 17 18  1  6
 17 15  1  0
 18  9  1  0
 19 17  1  0
 20 19  2  0
 22 23  1  0
 22 24  1  0
 22 21  1  6
 24 25  1  6
 25 19  1  0
 26 24  1  0
 26 27  1  0
 28 26  2  0
M  END
$$$$
