YIT.pdb
     RDKit          3D

 28 28  0  0  1  0  0  0  0  0999 V2000
    2.3392  -22.6291   22.4830 O   0  0  0  0  0  0  0  0  0  0  0  0
    3.2902  -21.7084   22.8656 C   0  0  0  0  0  0  0  0  0  0  0  0
    4.4628  -22.1170   23.4610 C   0  0  0  0  0  0  0  0  0  0  0  0
    5.4110  -21.2025   23.8427 C   0  0  0  0  0  0  0  0  0  0  0  0
    5.2037  -19.8620   23.6359 C   0  0  0  0  0  0  0  0  0  0  0  0
    6.2844  -18.9246   24.0771 C   0  0  0  0  0  0  0  0  0  0  0  0
    6.4351  -17.8038   23.0743 C   0  0  2  0  0  0  0  0  0  0  0  0
    6.8167  -18.3214   21.7958 N   0  0  0  0  0  0  0  0  0  0  0  0
    7.4058  -16.8229   23.6121 C   0  0  0  0  0  0  0  0  0  0  0  0
    8.6044  -16.7930   23.2432 O   0  0  0  0  0  0  0  0  0  0  0  0
    4.0394  -19.4409   23.0433 C   0  0  0  0  0  0  0  0  0  0  0  0
    3.0977  -20.3664   22.6656 C   0  0  0  0  0  0  0  0  0  0  0  0
    7.6269  -11.6673   27.1369 C   0  0  0  0  0  0  0  0  0  0  0  0
    8.2362  -12.8750   26.5332 C   0  0  0  0  0  0  0  0  0  0  0  0
    7.3418  -13.8343   25.8384 C   0  0  2  0  0  0  0  0  0  0  0  0
    6.0185  -14.0824   26.5493 C   0  0  0  0  0  0  0  0  0  0  0  0
    7.9664  -15.0207   25.2368 C   0  0  2  0  0  0  0  0  0  0  0  0
    6.9831  -15.8800   24.5757 N   0  0  0  0  0  0  0  0  0  0  0  0
    8.6527  -15.8739   26.2169 C   0  0  0  0  0  0  0  0  0  0  0  0
    8.0386  -16.6292   27.0087 O   0  0  0  0  0  0  0  0  0  0  0  0
   12.6461  -18.4955   27.2487 C   0  0  0  0  0  0  0  0  0  0  0  0
   12.0198  -17.3839   26.4401 C   0  0  1  0  0  0  0  0  0  0  0  0
   11.7621  -17.8539   25.1549 O   0  0  0  0  0  0  0  0  0  0  0  0
   10.7200  -16.9148   27.1084 C   0  0  2  0  0  0  0  0  0  0  0  0
   10.0734  -15.9074   26.3420 N   0  0  0  0  0  0  0  0  0  0  0  0
   11.0330  -16.4496   28.4848 C   0  0  0  0  0  0  0  0  0  0  0  0
   11.0487  -15.0871   28.7194 O   0  0  0  0  0  0  0  0  0  0  0  0
   11.2714  -17.2998   29.3848 O   0  0  0  0  0  0  0  0  0  0  0  0
  2  1  1  0
  3  2  2  0
  4  3  1  0
  5 11  1  0
  5  4  2  0
  6  5  1  0
  7  6  1  0
  7  8  1  6
  9 10  2  0
  9  7  1  0
 11 12  2  0
 12  2  1  0
 14 13  1  0
 15 14  1  0
 15 16  1  1
 17 18  1  1
 17 15  1  0
 18  9  1  0
 19 17  1  0
 20 19  2  0
 22 23  1  0
 22 24  1  0
 22 21  1  1
 24 25  1  6
 25 19  1  0
 26 24  1  0
 26 27  1  0
 28 26  2  0
M  END
$$$$
