YIT.pdb
     RDKit          3D

 28 28  0  0  1  0  0  0  0  0999 V2000
    6.3705  -20.1377   17.4503 O   0  0  0  0  0  0  0  0  0  0  0  0
    6.8692  -19.5724   18.6037 C   0  0  0  0  0  0  0  0  0  0  0  0
    6.0971  -18.7150   19.3554 C   0  0  0  0  0  0  0  0  0  0  0  0
    6.5912  -18.1510   20.5038 C   0  0  0  0  0  0  0  0  0  0  0  0
    7.8671  -18.4343   20.9216 C   0  0  0  0  0  0  0  0  0  0  0  0
    8.3358  -17.7827   22.1854 C   0  0  0  0  0  0  0  0  0  0  0  0
    8.4742  -16.2923   21.9758 C   0  0  2  0  0  0  0  0  0  0  0  0
    9.3116  -16.0191   20.8479 N   0  0  0  0  0  0  0  0  0  0  0  0
    8.9814  -15.6891   23.2297 C   0  0  0  0  0  0  0  0  0  0  0  0
   10.2063  -15.5428   23.4569 O   0  0  0  0  0  0  0  0  0  0  0  0
    8.6476  -19.2873   20.1817 C   0  0  0  0  0  0  0  0  0  0  0  0
    8.1414  -19.8456   19.0336 C   0  0  0  0  0  0  0  0  0  0  0  0
    5.9657  -11.8651   25.7305 C   0  0  0  0  0  0  0  0  0  0  0  0
    7.0270  -12.7424   25.1846 C   0  0  0  0  0  0  0  0  0  0  0  0
    7.6148  -13.7676   26.0826 C   0  0  2  0  0  0  0  0  0  0  0  0
    7.9967  -13.2460   27.4610 C   0  0  0  0  0  0  0  0  0  0  0  0
    8.5596  -14.7219   25.4855 C   0  0  2  0  0  0  0  0  0  0  0  0
    8.0662  -15.2575   24.2159 N   0  0  0  0  0  0  0  0  0  0  0  0
    8.8223  -15.8884   26.3398 C   0  0  0  0  0  0  0  0  0  0  0  0
    7.9542  -16.7605   26.5853 O   0  0  0  0  0  0  0  0  0  0  0  0
   10.5110  -18.6823   25.6158 C   0  0  0  0  0  0  0  0  0  0  0  0
   11.2143  -18.2866   26.8927 C   0  0  1  0  0  0  0  0  0  0  0  0
   12.4344  -17.6985   26.5695 O   0  0  0  0  0  0  0  0  0  0  0  0
   10.3435  -17.3068   27.6913 C   0  0  2  0  0  0  0  0  0  0  0  0
   10.0883  -16.1172   26.9563 N   0  0  0  0  0  0  0  0  0  0  0  0
   11.0108  -17.0248   28.9888 C   0  0  0  0  0  0  0  0  0  0  0  0
   11.4342  -15.7311   29.2311 O   0  0  0  0  0  0  0  0  0  0  0  0
   11.1687  -17.9611   29.8184 O   0  0  0  0  0  0  0  0  0  0  0  0
  2  1  1  0
  3  2  2  0
  4  3  1  0
  5 11  1  0
  5  4  2  0
  6  5  1  0
  7  6  1  0
  7  8  1  6
  9 10  2  0
  9  7  1  0
 11 12  2  0
 12  2  1  0
 14 13  1  0
 15 14  1  0
 15 16  1  1
 17 18  1  6
 17 15  1  0
 18  9  1  0
 19 17  1  0
 20 19  2  0
 22 23  1  0
 22 24  1  0
 22 21  1  6
 24 25  1  6
 25 19  1  0
 26 24  1  0
 26 27  1  0
 28 26  2  0
M  END
$$$$
