YIT.pdb
     RDKit          3D

 28 28  0  0  1  0  0  0  0  0999 V2000
    3.3879  -22.2040   21.1354 O   0  0  0  0  0  0  0  0  0  0  0  0
    4.3061  -21.3795   21.7484 C   0  0  0  0  0  0  0  0  0  0  0  0
    3.9015  -20.2209   22.3731 C   0  0  0  0  0  0  0  0  0  0  0  0
    4.8135  -19.3986   22.9840 C   0  0  0  0  0  0  0  0  0  0  0  0
    6.1474  -19.7201   22.9812 C   0  0  0  0  0  0  0  0  0  0  0  0
    7.0823  -18.7751   23.6699 C   0  0  0  0  0  0  0  0  0  0  0  0
    7.3290  -17.5666   22.7962 C   0  0  2  0  0  0  0  0  0  0  0  0
    7.9771  -17.9503   21.5792 N   0  0  0  0  0  0  0  0  0  0  0  0
    8.1071  -16.5769   23.5762 C   0  0  0  0  0  0  0  0  0  0  0  0
    9.3547  -16.4820   23.4862 O   0  0  0  0  0  0  0  0  0  0  0  0
    6.5644  -20.8722   22.3623 C   0  0  0  0  0  0  0  0  0  0  0  0
    5.6415  -21.6872   21.7541 C   0  0  0  0  0  0  0  0  0  0  0  0
    7.3605  -11.5611   27.2094 C   0  0  0  0  0  0  0  0  0  0  0  0
    8.1141  -12.7530   26.7557 C   0  0  0  0  0  0  0  0  0  0  0  0
    7.4263  -13.7122   25.8559 C   0  0  2  0  0  0  0  0  0  0  0  0
    5.9848  -14.0101   26.2445 C   0  0  0  0  0  0  0  0  0  0  0  0
    8.2035  -14.8666   25.3839 C   0  0  2  0  0  0  0  0  0  0  0  0
    7.4357  -15.7006   24.4581 N   0  0  0  0  0  0  0  0  0  0  0  0
    8.6319  -15.7595   26.4697 C   0  0  0  0  0  0  0  0  0  0  0  0
    7.8390  -16.5167   27.0799 O   0  0  0  0  0  0  0  0  0  0  0  0
   10.9970  -18.4400   26.1007 C   0  0  0  0  0  0  0  0  0  0  0  0
   11.4941  -17.7116   27.3271 C   0  0  1  0  0  0  0  0  0  0  0  0
   12.6186  -16.9664   26.9818 O   0  0  0  0  0  0  0  0  0  0  0  0
   10.3930  -16.7943   27.8768 C   0  0  2  0  0  0  0  0  0  0  0  0
    9.9859  -15.8322   26.9128 N   0  0  0  0  0  0  0  0  0  0  0  0
   10.8845  -16.1550   29.1252 C   0  0  0  0  0  0  0  0  0  0  0  0
   11.1301  -16.9689   30.2156 O   0  0  0  0  0  0  0  0  0  0  0  0
   11.0603  -14.9068   29.1520 O   0  0  0  0  0  0  0  0  0  0  0  0
  2  1  1  0
  3  2  2  0
  4  3  1  0
  5 11  1  0
  5  4  2  0
  6  5  1  0
  7  6  1  0
  7  8  1  6
  9 10  2  0
  9  7  1  0
 11 12  2  0
 12  2  1  0
 14 13  1  0
 15 14  1  0
 15 16  1  1
 17 18  1  6
 17 15  1  0
 18  9  1  0
 19 17  1  0
 20 19  2  0
 22 23  1  0
 22 24  1  0
 22 21  1  6
 24 25  1  6
 25 19  1  0
 26 24  1  0
 26 27  1  0
 28 26  2  0
M  END
$$$$
