YIT.pdb
     RDKit          3D

 28 28  0  0  1  0  0  0  0  0999 V2000
   10.4607  -14.2677   30.8540 O   0  0  0  0  0  0  0  0  0  0  0  0
   10.2728  -14.5841   29.5261 C   0  0  0  0  0  0  0  0  0  0  0  0
   10.5492  -15.8503   29.0608 C   0  0  0  0  0  0  0  0  0  0  0  0
   10.3630  -16.1678   27.7396 C   0  0  0  0  0  0  0  0  0  0  0  0
    9.8968  -15.2243   26.8592 C   0  0  0  0  0  0  0  0  0  0  0  0
    9.7171  -15.6453   25.4338 C   0  0  0  0  0  0  0  0  0  0  0  0
    8.2447  -15.7161   25.0994 C   0  0  2  0  0  0  0  0  0  0  0  0
    7.5783  -16.6456   25.9597 N   0  0  0  0  0  0  0  0  0  0  0  0
    8.1071  -16.0577   23.6649 C   0  0  0  0  0  0  0  0  0  0  0  0
    7.6655  -17.1662   23.2780 O   0  0  0  0  0  0  0  0  0  0  0  0
    9.6173  -13.9581   27.3097 C   0  0  0  0  0  0  0  0  0  0  0  0
    9.8079  -13.6526   28.6350 C   0  0  0  0  0  0  0  0  0  0  0  0
    7.2895  -11.8211   20.2859 C   0  0  0  0  0  0  0  0  0  0  0  0
    7.2489  -13.1462   20.9468 C   0  0  0  0  0  0  0  0  0  0  0  0
    8.1694  -14.2004   20.4527 C   0  0  2  0  0  0  0  0  0  0  0  0
    8.1156  -14.4218   18.9474 C   0  0  0  0  0  0  0  0  0  0  0  0
    8.2938  -15.4187   21.2651 C   0  0  2  0  0  0  0  0  0  0  0  0
    8.4822  -15.1124   22.6840 N   0  0  0  0  0  0  0  0  0  0  0  0
    9.4364  -16.2582   20.8791 C   0  0  0  0  0  0  0  0  0  0  0  0
   10.4063  -16.4797   21.6438 O   0  0  0  0  0  0  0  0  0  0  0  0
   10.4416  -18.6815   21.6811 C   0  0  0  0  0  0  0  0  0  0  0  0
   10.3868  -19.0886   20.2275 C   0  0  1  0  0  0  0  0  0  0  0  0
    9.1711  -19.7223   19.9842 O   0  0  0  0  0  0  0  0  0  0  0  0
   10.5348  -17.8529   19.3290 C   0  0  2  0  0  0  0  0  0  0  0  0
    9.5290  -16.8862   19.6015 N   0  0  0  0  0  0  0  0  0  0  0  0
   10.5131  -18.2909   17.9091 C   0  0  0  0  0  0  0  0  0  0  0  0
   11.6632  -18.8542   17.3879 O   0  0  0  0  0  0  0  0  0  0  0  0
    9.4608  -18.1377   17.2315 O   0  0  0  0  0  0  0  0  0  0  0  0
  2  1  1  0
  3  2  2  0
  4  3  1  0
  5 11  1  0
  5  4  2  0
  6  5  1  0
  7  6  1  0
  7  8  1  1
  9 10  2  0
  9  7  1  0
 11 12  2  0
 12  2  1  0
 14 13  1  0
 15 14  1  0
 15 16  1  6
 17 18  1  1
 17 15  1  0
 18  9  1  0
 19 17  1  0
 20 19  2  0
 22 23  1  0
 22 24  1  0
 22 21  1  1
 24 25  1  6
 25 19  1  0
 26 24  1  0
 26 27  1  0
 28 26  2  0
M  END
$$$$
