YIT.pdb
     RDKit          3D

 28 28  0  0  1  0  0  0  0  0999 V2000
    6.1959  -19.2665   16.6492 O   0  0  0  0  0  0  0  0  0  0  0  0
    6.7776  -18.7505   17.7867 C   0  0  0  0  0  0  0  0  0  0  0  0
    6.0931  -18.7395   18.9816 C   0  0  0  0  0  0  0  0  0  0  0  0
    6.6698  -18.2264   20.1152 C   0  0  0  0  0  0  0  0  0  0  0  0
    7.9424  -17.7148   20.0746 C   0  0  0  0  0  0  0  0  0  0  0  0
    8.5057  -17.1744   21.3521 C   0  0  0  0  0  0  0  0  0  0  0  0
    8.4918  -15.6633   21.3226 C   0  0  2  0  0  0  0  0  0  0  0  0
    9.2858  -15.1746   20.2369 N   0  0  0  0  0  0  0  0  0  0  0  0
    8.9490  -15.1658   22.6406 C   0  0  0  0  0  0  0  0  0  0  0  0
   10.1621  -15.1168   22.9557 O   0  0  0  0  0  0  0  0  0  0  0  0
    8.6360  -17.7196   18.8901 C   0  0  0  0  0  0  0  0  0  0  0  0
    8.0475  -18.2361   17.7619 C   0  0  0  0  0  0  0  0  0  0  0  0
    6.8384  -11.8152   27.4472 C   0  0  0  0  0  0  0  0  0  0  0  0
    7.7795  -12.7907   26.8497 C   0  0  0  0  0  0  0  0  0  0  0  0
    7.4471  -13.3544   25.5176 C   0  0  2  0  0  0  0  0  0  0  0  0
    5.9965  -13.7917   25.3682 C   0  0  0  0  0  0  0  0  0  0  0  0
    8.4403  -14.2420   24.8966 C   0  0  2  0  0  0  0  0  0  0  0  0
    7.9975  -14.7269   23.5885 N   0  0  0  0  0  0  0  0  0  0  0  0
    8.7247  -15.4419   25.6958 C   0  0  0  0  0  0  0  0  0  0  0  0
    7.8761  -16.3452   25.8917 O   0  0  0  0  0  0  0  0  0  0  0  0
   11.8205  -18.8399   27.1773 C   0  0  0  0  0  0  0  0  0  0  0  0
   11.5434  -17.5557   26.4318 C   0  0  1  0  0  0  0  0  0  0  0  0
   11.3922  -17.8459   25.0783 O   0  0  0  0  0  0  0  0  0  0  0  0
   10.2733  -16.8917   26.9813 C   0  0  2  0  0  0  0  0  0  0  0  0
    9.9914  -15.6703   26.3112 N   0  0  0  0  0  0  0  0  0  0  0  0
   10.4330  -16.6969   28.4459 C   0  0  0  0  0  0  0  0  0  0  0  0
   10.4854  -17.8228   29.2466 O   0  0  0  0  0  0  0  0  0  0  0  0
   10.5148  -15.5266   28.9080 O   0  0  0  0  0  0  0  0  0  0  0  0
  2  1  1  0
  3  2  2  0
  4  3  1  0
  5 11  1  0
  5  4  2  0
  6  5  1  0
  7  6  1  0
  7  8  1  6
  9 10  2  0
  9  7  1  0
 11 12  2  0
 12  2  1  0
 14 13  1  0
 15 14  1  0
 15 16  1  1
 17 18  1  6
 17 15  1  0
 18  9  1  0
 19 17  1  0
 20 19  2  0
 22 23  1  0
 22 24  1  0
 22 21  1  1
 24 25  1  6
 25 19  1  0
 26 24  1  0
 26 27  1  0
 28 26  2  0
M  END
$$$$
