AMF.pdb
     RDKit          3D

 25 25  0  0  1  0  0  0  0  0999 V2000
   27.6743  -19.4133  -16.9004 C   0  0  0  0  0  0  0  0  0  0  0  0
   28.0353  -20.6558  -16.0842 C   0  0  2  0  0  0  0  0  0  0  0  0
   28.3541  -21.7624  -16.9427 N   0  0  0  0  0  0  0  0  0  0  0  0
   26.9101  -20.9607  -15.1625 C   0  0  0  0  0  0  0  0  0  0  0  0
   25.9890  -21.6798  -15.5677 O   0  0  0  0  0  0  0  0  0  0  0  0
   24.5413  -21.3946   -7.6560 C   0  0  0  0  0  0  0  0  0  0  0  0
   25.7607  -20.6696   -8.7821 S   0  0  0  0  0  0  0  0  0  0  0  0
   25.1488  -20.9732  -10.4828 C   0  0  0  0  0  0  0  0  0  0  0  0
   26.2035  -20.6100  -11.4906 C   0  0  0  0  0  0  0  0  0  0  0  0
   25.7750  -20.7823  -12.9049 C   0  0  2  0  0  0  0  0  0  0  0  0
   26.8531  -20.4579  -13.8355 N   0  0  0  0  0  0  0  0  0  0  0  0
   24.5377  -20.0500  -13.2650 C   0  0  0  0  0  0  0  0  0  0  0  0
   24.4724  -18.8274  -13.5418 O   0  0  0  0  0  0  0  0  0  0  0  0
   23.3246  -20.7878  -13.3016 N   0  0  0  0  0  0  0  0  0  0  0  0
   22.1077  -20.2842  -13.9170 C   0  0  1  0  0  0  0  0  0  0  0  0
   22.4273  -20.2070  -15.4129 C   0  0  0  0  0  0  0  0  0  0  0  0
   21.2234  -19.7676  -16.1369 C   0  0  0  0  0  0  0  0  0  0  0  0
   20.7693  -18.4672  -16.1673 C   0  0  0  0  0  0  0  0  0  0  0  0
   19.6326  -18.1503  -16.8778 C   0  0  0  0  0  0  0  0  0  0  0  0
   18.9242  -19.1238  -17.5731 C   0  0  0  0  0  0  0  0  0  0  0  0
   19.3724  -20.4141  -17.5444 C   0  0  0  0  0  0  0  0  0  0  0  0
   20.5169  -20.7491  -16.8326 C   0  0  0  0  0  0  0  0  0  0  0  0
   21.0243  -21.2285  -13.6223 C   0  0  0  0  0  0  0  0  0  0  0  0
   21.2653  -22.5795  -13.6776 O   0  0  0  0  0  0  0  0  0  0  0  0
   19.8880  -20.8157  -13.3242 O   0  0  0  0  0  0  0  0  0  0  0  0
  2  1  1  6
  2  4  1  0
  3  2  1  0
  4 11  1  0
  4  5  2  0
  6  7  1  0
  8  7  1  0
  9  8  1  0
 10  9  1  1
 11 10  1  0
 12 10  1  0
 12 13  2  0
 14 15  1  0
 14 12  1  0
 16 17  1  0
 15 16  1  6
 17 18  2  0
 19 18  1  0
 20 19  2  0
 21 20  1  0
 22 21  2  0
 22 17  1  0
 23 15  1  0
 24 23  1  0
 25 23  2  0
M  END
$$$$
