AMF.pdb
     RDKit          3D

 25 25  0  0  1  0  0  0  0  0999 V2000
   26.0370  -18.4925  -14.1402 C   0  0  0  0  0  0  0  0  0  0  0  0
   27.5437  -18.5877  -13.8931 C   0  0  2  0  0  0  0  0  0  0  0  0
   28.2747  -18.5132  -15.1274 N   0  0  0  0  0  0  0  0  0  0  0  0
   27.8229  -19.8412  -13.1451 C   0  0  0  0  0  0  0  0  0  0  0  0
   27.4809  -20.9196  -13.6450 O   0  0  0  0  0  0  0  0  0  0  0  0
   33.3585  -23.1385  -11.1394 C   0  0  0  0  0  0  0  0  0  0  0  0
   32.6020  -22.1691   -9.8095 S   0  0  0  0  0  0  0  0  0  0  0  0
   30.7897  -22.2443  -10.0722 C   0  0  0  0  0  0  0  0  0  0  0  0
   30.3224  -21.0396  -10.8406 C   0  0  0  0  0  0  0  0  0  0  0  0
   28.8788  -21.0724  -11.1993 C   0  0  2  0  0  0  0  0  0  0  0  0
   28.4670  -19.8470  -11.8794 N   0  0  0  0  0  0  0  0  0  0  0  0
   27.9712  -21.3695  -10.0658 C   0  0  0  0  0  0  0  0  0  0  0  0
   28.0469  -22.3764   -9.3200 O   0  0  0  0  0  0  0  0  0  0  0  0
   26.9297  -20.4418   -9.7974 N   0  0  0  0  0  0  0  0  0  0  0  0
   26.0156  -20.5778   -8.6754 C   0  0  1  0  0  0  0  0  0  0  0  0
   26.1449  -19.2621   -7.9021 C   0  0  0  0  0  0  0  0  0  0  0  0
   27.0585  -19.4632   -6.7657 C   0  0  0  0  0  0  0  0  0  0  0  0
   27.9797  -18.5322   -6.3383 C   0  0  0  0  0  0  0  0  0  0  0  0
   28.7904  -18.8092   -5.2597 C   0  0  0  0  0  0  0  0  0  0  0  0
   28.6997  -20.0210   -4.5842 C   0  0  0  0  0  0  0  0  0  0  0  0
   27.7870  -20.9460   -5.0062 C   0  0  0  0  0  0  0  0  0  0  0  0
   26.9626  -20.6812   -6.0921 C   0  0  0  0  0  0  0  0  0  0  0  0
   24.6653  -20.7838   -9.2109 C   0  0  0  0  0  0  0  0  0  0  0  0
   24.4563  -20.7336  -10.5674 O   0  0  0  0  0  0  0  0  0  0  0  0
   23.7072  -21.0022   -8.4462 O   0  0  0  0  0  0  0  0  0  0  0  0
  2  1  1  6
  2  4  1  0
  3  2  1  0
  4 11  1  0
  4  5  2  0
  6  7  1  0
  8  7  1  0
  9  8  1  0
 10  9  1  1
 11 10  1  0
 12 10  1  0
 12 13  2  0
 14 15  1  0
 14 12  1  0
 16 17  1  0
 15 16  1  6
 17 18  2  0
 19 18  1  0
 20 19  2  0
 21 20  1  0
 22 21  2  0
 22 17  1  0
 23 15  1  0
 24 23  1  0
 25 23  2  0
M  END
$$$$
