AMF.pdb
     RDKit          3D

 25 25  0  0  1  0  0  0  0  0999 V2000
   21.3905  -18.8352  -11.5502 C   0  0  0  0  0  0  0  0  0  0  0  0
   21.8800  -20.1370  -12.1874 C   0  0  2  0  0  0  0  0  0  0  0  0
   20.8152  -21.0964  -12.2841 N   0  0  0  0  0  0  0  0  0  0  0  0
   23.0312  -20.6473  -11.3981 C   0  0  0  0  0  0  0  0  0  0  0  0
   22.8056  -21.3464  -10.4031 O   0  0  0  0  0  0  0  0  0  0  0  0
   29.3801  -21.4565  -13.0326 C   0  0  0  0  0  0  0  0  0  0  0  0
   28.0044  -22.0457  -14.0529 S   0  0  0  0  0  0  0  0  0  0  0  0
   26.5058  -21.9803  -12.9999 C   0  0  0  0  0  0  0  0  0  0  0  0
   26.7185  -21.0410  -11.8455 C   0  0  0  0  0  0  0  0  0  0  0  0
   25.5206  -20.8623  -10.9813 C   0  0  2  0  0  0  0  0  0  0  0  0
   24.3790  -20.3626  -11.7434 N   0  0  0  0  0  0  0  0  0  0  0  0
   25.7503  -20.0268   -9.7788 C   0  0  0  0  0  0  0  0  0  0  0  0
   25.5296  -18.7937   -9.6987 O   0  0  0  0  0  0  0  0  0  0  0  0
   26.2615  -20.6698   -8.6200 N   0  0  0  0  0  0  0  0  0  0  0  0
   26.9785  -19.9629   -7.5715 C   0  0  1  0  0  0  0  0  0  0  0  0
   26.6696  -20.7431   -6.2902 C   0  0  0  0  0  0  0  0  0  0  0  0
   27.4563  -20.1753   -5.1833 C   0  0  0  0  0  0  0  0  0  0  0  0
   26.9593  -19.2849   -4.2568 C   0  0  0  0  0  0  0  0  0  0  0  0
   27.7723  -18.8106   -3.2511 C   0  0  0  0  0  0  0  0  0  0  0  0
   29.0988  -19.2142   -3.1481 C   0  0  0  0  0  0  0  0  0  0  0  0
   29.5941  -20.0969   -4.0657 C   0  0  0  0  0  0  0  0  0  0  0  0
   28.7867  -20.5840   -5.0853 C   0  0  0  0  0  0  0  0  0  0  0  0
   28.4067  -19.9777   -7.9072 C   0  0  0  0  0  0  0  0  0  0  0  0
   29.2126  -18.9435   -7.4983 O   0  0  0  0  0  0  0  0  0  0  0  0
   28.8938  -20.9188   -8.5610 O   0  0  0  0  0  0  0  0  0  0  0  0
  2  1  1  1
  2  4  1  0
  3  2  1  0
  4 11  1  0
  4  5  2  0
  6  7  1  0
  8  7  1  0
  9  8  1  0
 10  9  1  6
 11 10  1  0
 12 10  1  0
 12 13  2  0
 14 15  1  0
 14 12  1  0
 16 17  1  0
 15 16  1  1
 17 18  2  0
 19 18  1  0
 20 19  2  0
 21 20  1  0
 22 21  2  0
 22 17  1  0
 23 15  1  0
 24 23  1  0
 25 23  2  0
M  END
$$$$
