AMF.pdb
     RDKit          3D

 25 25  0  0  1  0  0  0  0  0999 V2000
   27.5969  -19.2262  -15.5122 C   0  0  0  0  0  0  0  0  0  0  0  0
   28.0871  -20.5079  -14.8362 C   0  0  2  0  0  0  0  0  0  0  0  0
   28.3413  -21.5375  -15.8050 N   0  0  0  0  0  0  0  0  0  0  0  0
   27.0837  -20.9217  -13.8210 C   0  0  0  0  0  0  0  0  0  0  0  0
   26.1853  -21.7023  -14.1580 O   0  0  0  0  0  0  0  0  0  0  0  0
   27.5116  -20.7585   -7.0573 C   0  0  0  0  0  0  0  0  0  0  0  0
   25.9391  -19.9581   -7.4660 S   0  0  0  0  0  0  0  0  0  0  0  0
   25.4186  -20.6254   -9.0917 C   0  0  0  0  0  0  0  0  0  0  0  0
   26.4301  -20.2772  -10.1480 C   0  0  0  0  0  0  0  0  0  0  0  0
   26.0477  -20.7099  -11.5191 C   0  0  2  0  0  0  0  0  0  0  0  0
   27.1178  -20.4551  -12.4801 N   0  0  0  0  0  0  0  0  0  0  0  0
   24.7657  -20.1469  -12.0052 C   0  0  0  0  0  0  0  0  0  0  0  0
   24.6269  -19.0274  -12.5558 O   0  0  0  0  0  0  0  0  0  0  0  0
   23.5961  -20.9352  -11.8369 N   0  0  0  0  0  0  0  0  0  0  0  0
   22.3945  -20.7524  -12.6343 C   0  0  1  0  0  0  0  0  0  0  0  0
   22.7461  -21.3243  -14.0109 C   0  0  0  0  0  0  0  0  0  0  0  0
   22.6309  -20.2555  -15.0163 C   0  0  0  0  0  0  0  0  0  0  0  0
   23.1130  -20.3478  -16.3037 C   0  0  0  0  0  0  0  0  0  0  0  0
   22.9534  -19.2945  -17.1768 C   0  0  0  0  0  0  0  0  0  0  0  0
   22.3097  -18.1263  -16.7846 C   0  0  0  0  0  0  0  0  0  0  0  0
   21.8308  -18.0323  -15.5085 C   0  0  0  0  0  0  0  0  0  0  0  0
   21.9839  -19.0858  -14.6166 C   0  0  0  0  0  0  0  0  0  0  0  0
   21.3016  -21.4845  -11.9847 C   0  0  0  0  0  0  0  0  0  0  0  0
   20.0382  -20.9464  -11.9668 O   0  0  0  0  0  0  0  0  0  0  0  0
   21.5101  -22.5887  -11.4482 O   0  0  0  0  0  0  0  0  0  0  0  0
  2  1  1  6
  2  4  1  0
  3  2  1  0
  4 11  1  0
  4  5  2  0
  6  7  1  0
  8  7  1  0
  9  8  1  0
 10  9  1  1
 11 10  1  0
 12 10  1  0
 12 13  2  0
 14 15  1  0
 14 12  1  0
 16 17  1  0
 15 16  1  6
 17 18  2  0
 19 18  1  0
 20 19  2  0
 21 20  1  0
 22 21  2  0
 22 17  1  0
 23 15  1  0
 24 23  1  0
 25 23  2  0
M  END
$$$$
