AMF.pdb
     RDKit          3D

 25 25  0  0  1  0  0  0  0  0999 V2000
   24.3152  -17.6381  -17.9000 C   0  0  0  0  0  0  0  0  0  0  0  0
   23.8077  -18.5705  -19.0016 C   0  0  2  0  0  0  0  0  0  0  0  0
   23.4180  -17.8273  -20.1675 N   0  0  0  0  0  0  0  0  0  0  0  0
   22.6945  -19.3888  -18.4542 C   0  0  0  0  0  0  0  0  0  0  0  0
   21.6942  -18.8108  -18.0125 O   0  0  0  0  0  0  0  0  0  0  0  0
   22.4304  -25.6181  -19.5225 C   0  0  0  0  0  0  0  0  0  0  0  0
   21.2351  -24.7192  -20.5441 S   0  0  0  0  0  0  0  0  0  0  0  0
   21.1558  -23.0132  -19.8789 C   0  0  0  0  0  0  0  0  0  0  0  0
   21.6379  -22.9842  -18.4552 C   0  0  0  0  0  0  0  0  0  0  0  0
   21.6657  -21.6241  -17.8526 C   0  0  2  0  0  0  0  0  0  0  0  0
   22.7363  -20.8079  -18.4196 N   0  0  0  0  0  0  0  0  0  0  0  0
   21.7279  -21.6099  -16.3719 C   0  0  0  0  0  0  0  0  0  0  0  0
   22.7534  -21.8421  -15.6862 O   0  0  0  0  0  0  0  0  0  0  0  0
   20.5321  -21.3092  -15.6669 N   0  0  0  0  0  0  0  0  0  0  0  0
   20.4647  -21.2280  -14.2171 C   0  0  1  0  0  0  0  0  0  0  0  0
   21.2251  -19.9474  -13.8598 C   0  0  0  0  0  0  0  0  0  0  0  0
   21.0798  -19.6916  -12.4176 C   0  0  0  0  0  0  0  0  0  0  0  0
   20.0681  -18.9389  -11.8626 C   0  0  0  0  0  0  0  0  0  0  0  0
   20.0120  -18.7585  -10.4982 C   0  0  0  0  0  0  0  0  0  0  0  0
   20.9640  -19.3249   -9.6580 C   0  0  0  0  0  0  0  0  0  0  0  0
   21.9683  -20.0716  -10.2060 C   0  0  0  0  0  0  0  0  0  0  0  0
   22.0382  -20.2626  -11.5798 C   0  0  0  0  0  0  0  0  0  0  0  0
   19.0508  -21.1678  -13.8299 C   0  0  0  0  0  0  0  0  0  0  0  0
   18.6476  -21.7184  -12.6381 O   0  0  0  0  0  0  0  0  0  0  0  0
   18.2133  -20.6234  -14.5733 O   0  0  0  0  0  0  0  0  0  0  0  0
  2  1  1  1
  2  4  1  0
  3  2  1  0
  4 11  1  0
  4  5  2  0
  6  7  1  0
  8  7  1  0
  9  8  1  0
 10  9  1  6
 11 10  1  0
 12 10  1  0
 12 13  2  0
 14 15  1  0
 14 12  1  0
 16 17  1  0
 15 16  1  6
 17 18  2  0
 19 18  1  0
 20 19  2  0
 21 20  1  0
 22 21  2  0
 22 17  1  0
 23 15  1  0
 24 23  1  0
 25 23  2  0
M  END
$$$$
