AMF.pdb
     RDKit          3D

 25 25  0  0  1  0  0  0  0  0999 V2000
   24.9171  -17.0531  -19.7848 C   0  0  0  0  0  0  0  0  0  0  0  0
   26.2821  -16.8527  -19.1238 C   0  0  2  0  0  0  0  0  0  0  0  0
   26.3707  -17.5846  -17.8909 N   0  0  0  0  0  0  0  0  0  0  0  0
   26.5075  -15.3960  -18.9342 C   0  0  0  0  0  0  0  0  0  0  0  0
   25.6394  -14.7312  -18.3561 O   0  0  0  0  0  0  0  0  0  0  0  0
   32.2875  -14.0115  -20.0110 C   0  0  0  0  0  0  0  0  0  0  0  0
   31.9042  -13.1589  -18.4596 S   0  0  0  0  0  0  0  0  0  0  0  0
   30.1113  -13.3948  -18.1614 C   0  0  0  0  0  0  0  0  0  0  0  0
   29.3180  -12.9336  -19.3522 C   0  0  0  0  0  0  0  0  0  0  0  0
   27.8759  -13.2952  -19.2964 C   0  0  2  0  0  0  0  0  0  0  0  0
   27.6810  -14.7398  -19.3915 N   0  0  0  0  0  0  0  0  0  0  0  0
   27.0271  -12.5887  -20.2849 C   0  0  0  0  0  0  0  0  0  0  0  0
   26.8923  -12.9137  -21.4898 O   0  0  0  0  0  0  0  0  0  0  0  0
   26.3052  -11.4506  -19.8366 N   0  0  0  0  0  0  0  0  0  0  0  0
   25.4604  -10.6522  -20.7097 C   0  0  1  0  0  0  0  0  0  0  0  0
   24.1290  -11.4073  -20.7653 C   0  0  0  0  0  0  0  0  0  0  0  0
   23.4094  -11.0178  -21.9888 C   0  0  0  0  0  0  0  0  0  0  0  0
   23.0011   -9.7326  -22.2714 C   0  0  0  0  0  0  0  0  0  0  0  0
   22.3362   -9.4632  -23.4472 C   0  0  0  0  0  0  0  0  0  0  0  0
   22.0641  -10.4701  -24.3666 C   0  0  0  0  0  0  0  0  0  0  0  0
   22.4679  -11.7454  -24.0887 C   0  0  0  0  0  0  0  0  0  0  0  0
   23.1393  -12.0326  -22.9074 C   0  0  0  0  0  0  0  0  0  0  0  0
   25.3246   -9.3177  -20.1155 C   0  0  0  0  0  0  0  0  0  0  0  0
   24.8323   -8.2828  -20.8723 O   0  0  0  0  0  0  0  0  0  0  0  0
   25.6531   -9.1151  -18.9317 O   0  0  0  0  0  0  0  0  0  0  0  0
  2  1  1  1
  2  4  1  0
  3  2  1  0
  4 11  1  0
  4  5  2  0
  6  7  1  0
  8  7  1  0
  9  8  1  0
 10  9  1  6
 11 10  1  0
 12 10  1  0
 12 13  2  0
 14 15  1  0
 14 12  1  0
 16 17  1  0
 15 16  1  1
 17 18  2  0
 19 18  1  0
 20 19  2  0
 21 20  1  0
 22 21  2  0
 22 17  1  0
 23 15  1  0
 24 23  1  0
 25 23  2  0
M  END
$$$$
