WIG.pdb
     RDKit          3D

 27 28  0  0  1  0  0  0  0  0999 V2000
    6.4111  -18.5485   24.9802 N   0  0  0  0  0  0  0  0  0  0  0  0
    6.5854  -17.1761   24.6126 C   0  0  1  0  0  0  0  0  0  0  0  0
    7.4007  -16.5265   25.7403 C   0  0  0  0  0  0  0  0  0  0  0  0
    6.8188  -15.2235   26.1407 C   0  0  0  0  0  0  0  0  0  0  0  0
    5.4971  -14.9509   26.3705 C   0  0  0  0  0  0  0  0  0  0  0  0
    5.4153  -13.6527   26.7084 N   0  0  0  0  0  0  0  0  0  0  0  0
    6.6210  -13.0797   26.7063 C   0  0  0  0  0  0  0  0  0  0  0  0
    7.0232  -11.7847   26.9849 C   0  0  0  0  0  0  0  0  0  0  0  0
    8.3694  -11.5087   26.8913 C   0  0  0  0  0  0  0  0  0  0  0  0
    9.3092  -12.4561   26.5376 C   0  0  0  0  0  0  0  0  0  0  0  0
    8.8808  -13.7307   26.2673 C   0  0  0  0  0  0  0  0  0  0  0  0
    7.5248  -14.0581   26.3491 C   0  0  0  0  0  0  0  0  0  0  0  0
    7.4343  -17.0788   23.3990 C   0  0  0  0  0  0  0  0  0  0  0  0
    7.7394  -18.1268   22.7873 O   0  0  0  0  0  0  0  0  0  0  0  0
    7.1942  -12.4482   20.1260 C   0  0  0  0  0  0  0  0  0  0  0  0
    7.1351  -13.9160   20.4942 C   0  0  0  0  0  0  0  0  0  0  0  0
    8.4819  -14.2849   21.0674 C   0  0  2  0  0  0  0  0  0  0  0  0
    9.5382  -14.1191   20.0114 C   0  0  0  0  0  0  0  0  0  0  0  0
    8.5122  -15.7182   21.5721 C   0  0  2  0  0  0  0  0  0  0  0  0
    7.9276  -15.8543   22.8829 N   0  0  0  0  0  0  0  0  0  0  0  0
    9.8992  -16.2752   21.5305 C   0  0  0  0  0  0  0  0  0  0  0  0
   10.4764  -16.4368   20.4249 O   0  0  0  0  0  0  0  0  0  0  0  0
   10.5728  -16.6257   22.7510 N   0  0  0  0  0  0  0  0  0  0  0  0
   11.8532  -17.2563   22.6298 C   0  0  0  0  0  0  0  0  0  0  0  0
   12.9837  -16.3735   22.8877 C   0  0  0  0  0  0  0  0  0  0  0  0
   12.8070  -15.1490   23.0545 O   0  0  0  0  0  0  0  0  0  0  0  0
   14.2653  -16.8769   22.9514 O   0  0  0  0  0  0  0  0  0  0  0  0
  2  1  1  1
  3  2  1  0
  4  3  1  0
  4  5  2  0
  6  5  1  0
  7  6  1  0
  8  7  2  0
  9  8  1  0
 10  9  2  0
 10 11  1  0
 11 12  2  0
 12  7  1  0
 12  4  1  0
 13  2  1  0
 14 13  2  0
 16 15  1  0
 17 16  1  0
 17 18  1  6
 19 17  1  0
 19 20  1  1
 20 13  1  0
 21 19  1  0
 22 21  2  0
 23 21  1  0
 24 23  1  0
 25 24  1  0
 25 27  1  0
 26 25  2  0
M  END
$$$$
