WIG.pdb
     RDKit          3D

 27 28  0  0  1  0  0  0  0  0999 V2000
    6.5572  -17.1800   25.7191 N   0  0  0  0  0  0  0  0  0  0  0  0
    7.1460  -16.0505   25.0659 C   0  0  1  0  0  0  0  0  0  0  0  0
    8.4653  -15.7664   25.7988 C   0  0  0  0  0  0  0  0  0  0  0  0
    8.2965  -14.6983   26.8125 C   0  0  0  0  0  0  0  0  0  0  0  0
    8.8162  -14.6793   28.0788 C   0  0  0  0  0  0  0  0  0  0  0  0
    8.4173  -13.5307   28.6514 N   0  0  0  0  0  0  0  0  0  0  0  0
    7.6668  -12.8124   27.8131 C   0  0  0  0  0  0  0  0  0  0  0  0
    7.0455  -11.5839   27.9591 C   0  0  0  0  0  0  0  0  0  0  0  0
    6.3304  -11.1071   26.8828 C   0  0  0  0  0  0  0  0  0  0  0  0
    6.2144  -11.7955   25.6917 C   0  0  0  0  0  0  0  0  0  0  0  0
    6.8409  -13.0102   25.5766 C   0  0  0  0  0  0  0  0  0  0  0  0
    7.5779  -13.5346   26.6417 C   0  0  0  0  0  0  0  0  0  0  0  0
    7.5296  -16.4089   23.6776 C   0  0  0  0  0  0  0  0  0  0  0  0
    7.6522  -17.6170   23.3756 O   0  0  0  0  0  0  0  0  0  0  0  0
    8.5834  -12.4270   19.5822 C   0  0  0  0  0  0  0  0  0  0  0  0
    8.8605  -13.4386   20.6748 C   0  0  0  0  0  0  0  0  0  0  0  0
    8.0730  -14.6818   20.3393 C   0  0  2  0  0  0  0  0  0  0  0  0
    6.6080  -14.3496   20.2931 C   0  0  0  0  0  0  0  0  0  0  0  0
    8.2942  -15.7876   21.3582 C   0  0  2  0  0  0  0  0  0  0  0  0
    7.7688  -15.4534   22.6584 N   0  0  0  0  0  0  0  0  0  0  0  0
    9.7375  -16.1712   21.4327 C   0  0  0  0  0  0  0  0  0  0  0  0
   10.5221  -15.5182   22.1672 O   0  0  0  0  0  0  0  0  0  0  0  0
   10.2287  -17.2839   20.6666 N   0  0  0  0  0  0  0  0  0  0  0  0
   11.6449  -17.4991   20.6659 C   0  0  0  0  0  0  0  0  0  0  0  0
   12.2972  -17.1963   19.3983 C   0  0  0  0  0  0  0  0  0  0  0  0
   11.6215  -16.8861   18.3955 O   0  0  0  0  0  0  0  0  0  0  0  0
   13.6701  -17.2478   19.2872 O   0  0  0  0  0  0  0  0  0  0  0  0
  2  1  1  1
  3  2  1  0
  4  3  1  0
  4  5  2  0
  6  5  1  0
  7  6  1  0
  8  7  2  0
  9  8  1  0
 10  9  2  0
 10 11  1  0
 11 12  2  0
 12  7  1  0
 12  4  1  0
 13  2  1  0
 14 13  2  0
 16 15  1  0
 17 16  1  0
 17 18  1  1
 19 17  1  0
 19 20  1  1
 20 13  1  0
 21 19  1  0
 22 21  2  0
 23 21  1  0
 24 23  1  0
 25 24  1  0
 25 27  1  0
 26 25  2  0
M  END
$$$$
