WIG.pdb
     RDKit          3D

 27 28  0  0  1  0  0  0  0  0999 V2000
    6.8981  -19.1679   26.5297 N   0  0  0  0  0  0  0  0  0  0  0  0
    7.5464  -17.9202   26.7987 C   0  0  1  0  0  0  0  0  0  0  0  0
    9.0521  -18.2175   26.8502 C   0  0  0  0  0  0  0  0  0  0  0  0
    9.6720  -17.6376   28.0652 C   0  0  0  0  0  0  0  0  0  0  0  0
   10.0770  -18.3157   29.1833 C   0  0  0  0  0  0  0  0  0  0  0  0
   10.5799  -17.4062   30.0354 N   0  0  0  0  0  0  0  0  0  0  0  0
   10.5168  -16.1775   29.5175 C   0  0  0  0  0  0  0  0  0  0  0  0
   10.9079  -14.9479   30.0191 C   0  0  0  0  0  0  0  0  0  0  0  0
   10.7024  -13.8461   29.2186 C   0  0  0  0  0  0  0  0  0  0  0  0
   10.1335  -13.9235   27.9630 C   0  0  0  0  0  0  0  0  0  0  0  0
    9.7560  -15.1554   27.4928 C   0  0  0  0  0  0  0  0  0  0  0  0
    9.9445  -16.3019   28.2690 C   0  0  0  0  0  0  0  0  0  0  0  0
    7.3611  -16.9939   25.6539 C   0  0  0  0  0  0  0  0  0  0  0  0
    6.9323  -17.4484   24.5699 O   0  0  0  0  0  0  0  0  0  0  0  0
    5.7824  -11.9359   26.7259 C   0  0  0  0  0  0  0  0  0  0  0  0
    5.7239  -13.1391   25.8080 C   0  0  0  0  0  0  0  0  0  0  0  0
    7.0820  -13.2724   25.1630 C   0  0  2  0  0  0  0  0  0  0  0  0
    7.1860  -12.3125   24.0114 C   0  0  0  0  0  0  0  0  0  0  0  0
    7.3336  -14.6816   24.6524 C   0  0  2  0  0  0  0  0  0  0  0  0
    7.6438  -15.6062   25.7141 N   0  0  0  0  0  0  0  0  0  0  0  0
    8.3882  -14.6908   23.5925 C   0  0  0  0  0  0  0  0  0  0  0  0
    8.1698  -14.1331   22.4866 O   0  0  0  0  0  0  0  0  0  0  0  0
    9.6498  -15.3354   23.8357 N   0  0  0  0  0  0  0  0  0  0  0  0
   10.5984  -15.3355   22.7623 C   0  0  0  0  0  0  0  0  0  0  0  0
   11.8646  -15.9831   23.0804 C   0  0  0  0  0  0  0  0  0  0  0  0
   12.0362  -16.5298   24.1895 O   0  0  0  0  0  0  0  0  0  0  0  0
   12.8920  -16.0020   22.1618 O   0  0  0  0  0  0  0  0  0  0  0  0
  2  1  1  6
  3  2  1  0
  4  3  1  0
  4  5  2  0
  6  5  1  0
  7  6  1  0
  8  7  2  0
  9  8  1  0
 10  9  2  0
 10 11  1  0
 11 12  2  0
 12  7  1  0
 12  4  1  0
 13  2  1  0
 14 13  2  0
 16 15  1  0
 17 16  1  0
 17 18  1  6
 19 17  1  0
 19 20  1  1
 20 13  1  0
 21 19  1  0
 22 21  2  0
 23 21  1  0
 24 23  1  0
 25 24  1  0
 25 27  1  0
 26 25  2  0
M  END
$$$$
