WIG.pdb
     RDKit          3D

 27 28  0  0  1  0  0  0  0  0999 V2000
    6.5908  -17.3462   25.3601 N   0  0  0  0  0  0  0  0  0  0  0  0
    7.1346  -16.2083   24.6829 C   0  0  1  0  0  0  0  0  0  0  0  0
    8.4142  -15.8250   25.4404 C   0  0  0  0  0  0  0  0  0  0  0  0
    8.1180  -14.8998   26.5598 C   0  0  0  0  0  0  0  0  0  0  0  0
    8.2530  -15.1599   27.8971 C   0  0  0  0  0  0  0  0  0  0  0  0
    7.8757  -14.0501   28.5545 N   0  0  0  0  0  0  0  0  0  0  0  0
    7.5053  -13.0909   27.7031 C   0  0  0  0  0  0  0  0  0  0  0  0
    7.0499  -11.8007   27.9143 C   0  0  0  0  0  0  0  0  0  0  0  0
    6.7464  -11.0491   26.8008 C   0  0  0  0  0  0  0  0  0  0  0  0
    6.8773  -11.5263   25.5119 C   0  0  0  0  0  0  0  0  0  0  0  0
    7.3308  -12.8085   25.3340 C   0  0  0  0  0  0  0  0  0  0  0  0
    7.6514  -13.6090   26.4335 C   0  0  0  0  0  0  0  0  0  0  0  0
    7.5776  -16.5921   23.3193 C   0  0  0  0  0  0  0  0  0  0  0  0
    7.1959  -17.6844   22.8430 O   0  0  0  0  0  0  0  0  0  0  0  0
    7.3248  -12.1018   20.6094 C   0  0  0  0  0  0  0  0  0  0  0  0
    7.0978  -13.5565   20.9646 C   0  0  0  0  0  0  0  0  0  0  0  0
    8.3305  -14.3158   20.5375 C   0  0  2  0  0  0  0  0  0  0  0  0
    8.3957  -14.3614   19.0368 C   0  0  0  0  0  0  0  0  0  0  0  0
    8.3367  -15.7380   21.0732 C   0  0  2  0  0  0  0  0  0  0  0  0
    8.4183  -15.7857   22.5117 N   0  0  0  0  0  0  0  0  0  0  0  0
    9.4191  -16.5494   20.4359 C   0  0  0  0  0  0  0  0  0  0  0  0
    9.1849  -17.1833   19.3753 O   0  0  0  0  0  0  0  0  0  0  0  0
   10.7253  -16.6056   21.0334 N   0  0  0  0  0  0  0  0  0  0  0  0
   11.4635  -17.8224   20.8709 C   0  0  0  0  0  0  0  0  0  0  0  0
   12.8512  -17.7454   21.3093 C   0  0  0  0  0  0  0  0  0  0  0  0
   13.2593  -16.7561   21.9520 O   0  0  0  0  0  0  0  0  0  0  0  0
   13.7344  -18.7636   21.0210 O   0  0  0  0  0  0  0  0  0  0  0  0
  2  1  1  1
  3  2  1  0
  4  3  1  0
  4  5  2  0
  6  5  1  0
  7  6  1  0
  8  7  2  0
  9  8  1  0
 10  9  2  0
 10 11  1  0
 11 12  2  0
 12  7  1  0
 12  4  1  0
 13  2  1  0
 14 13  2  0
 16 15  1  0
 17 16  1  0
 17 18  1  6
 19 17  1  0
 19 20  1  1
 20 13  1  0
 21 19  1  0
 22 21  2  0
 23 21  1  0
 24 23  1  0
 25 24  1  0
 25 27  1  0
 26 25  2  0
M  END
$$$$
