WIG.pdb
     RDKit          3D

 27 28  0  0  1  0  0  0  0  0999 V2000
    6.6413  -18.5531   25.2193 N   0  0  0  0  0  0  0  0  0  0  0  0
    6.7124  -17.2219   24.6976 C   0  0  1  0  0  0  0  0  0  0  0  0
    7.5595  -16.4129   25.6907 C   0  0  0  0  0  0  0  0  0  0  0  0
    6.8484  -15.1887   26.1293 C   0  0  0  0  0  0  0  0  0  0  0  0
    5.4965  -15.0345   26.2802 C   0  0  0  0  0  0  0  0  0  0  0  0
    5.2873  -13.7724   26.6921 N   0  0  0  0  0  0  0  0  0  0  0  0
    6.4400  -13.1099   26.8125 C   0  0  0  0  0  0  0  0  0  0  0  0
    6.7163  -11.8100   27.1999 C   0  0  0  0  0  0  0  0  0  0  0  0
    8.0388  -11.4259   27.2208 C   0  0  0  0  0  0  0  0  0  0  0  0
    9.0740  -12.2722   26.8767 C   0  0  0  0  0  0  0  0  0  0  0  0
    8.7693  -13.5545   26.4970 C   0  0  0  0  0  0  0  0  0  0  0  0
    7.4420  -13.9896   26.4605 C   0  0  0  0  0  0  0  0  0  0  0  0
    7.4748  -17.2151   23.4242 C   0  0  0  0  0  0  0  0  0  0  0  0
    7.8563  -18.3041   22.9404 O   0  0  0  0  0  0  0  0  0  0  0  0
    8.2149  -12.3146   20.4899 C   0  0  0  0  0  0  0  0  0  0  0  0
    8.5515  -13.5321   21.3255 C   0  0  0  0  0  0  0  0  0  0  0  0
    7.9511  -14.7290   20.6286 C   0  0  2  0  0  0  0  0  0  0  0  0
    6.4585  -14.5700   20.5566 C   0  0  0  0  0  0  0  0  0  0  0  0
    8.2728  -16.0277   21.3496 C   0  0  2  0  0  0  0  0  0  0  0  0
    7.8019  -16.0339   22.7121 N   0  0  0  0  0  0  0  0  0  0  0  0
    9.7333  -16.3391   21.2734 C   0  0  0  0  0  0  0  0  0  0  0  0
   10.2690  -16.5616   20.1576 O   0  0  0  0  0  0  0  0  0  0  0  0
   10.5248  -16.3845   22.4725 N   0  0  0  0  0  0  0  0  0  0  0  0
   11.8839  -16.8170   22.3395 C   0  0  0  0  0  0  0  0  0  0  0  0
   12.7659  -15.8403   21.7134 C   0  0  0  0  0  0  0  0  0  0  0  0
   12.3035  -14.7863   21.2301 O   0  0  0  0  0  0  0  0  0  0  0  0
   14.1240  -16.0652   21.6454 O   0  0  0  0  0  0  0  0  0  0  0  0
  2  1  1  1
  3  2  1  0
  4  3  1  0
  4  5  2  0
  6  5  1  0
  7  6  1  0
  8  7  2  0
  9  8  1  0
 10  9  2  0
 10 11  1  0
 11 12  2  0
 12  7  1  0
 12  4  1  0
 13  2  1  0
 14 13  2  0
 16 15  1  0
 17 16  1  0
 17 18  1  1
 19 17  1  0
 19 20  1  1
 20 13  1  0
 21 19  1  0
 22 21  2  0
 23 21  1  0
 24 23  1  0
 25 24  1  0
 25 27  1  0
 26 25  2  0
M  END
$$$$
