WIG.pdb
     RDKit          3D

 27 28  0  0  1  0  0  0  0  0999 V2000
    6.4709  -17.8971   25.1934 N   0  0  0  0  0  0  0  0  0  0  0  0
    7.0386  -16.6162   24.9001 C   0  0  1  0  0  0  0  0  0  0  0  0
    8.2923  -16.4875   25.7775 C   0  0  0  0  0  0  0  0  0  0  0  0
    8.1214  -15.4339   26.8058 C   0  0  0  0  0  0  0  0  0  0  0  0
    8.3648  -15.5499   28.1480 C   0  0  0  0  0  0  0  0  0  0  0  0
    8.0783  -14.3607   28.7048 N   0  0  0  0  0  0  0  0  0  0  0  0
    7.6628  -13.4878   27.7842 C   0  0  0  0  0  0  0  0  0  0  0  0
    7.2648  -12.1657   27.8853 C   0  0  0  0  0  0  0  0  0  0  0  0
    6.8871  -11.5304   26.7230 C   0  0  0  0  0  0  0  0  0  0  0  0
    6.8915  -12.1515   25.4900 C   0  0  0  0  0  0  0  0  0  0  0  0
    7.2908  -13.4619   25.4212 C   0  0  0  0  0  0  0  0  0  0  0  0
    7.6828  -14.1479   26.5736 C   0  0  0  0  0  0  0  0  0  0  0  0
    7.5271  -16.5855   23.4988 C   0  0  0  0  0  0  0  0  0  0  0  0
    7.5685  -17.6533   22.8480 O   0  0  0  0  0  0  0  0  0  0  0  0
    6.5969  -12.2275   20.5934 C   0  0  0  0  0  0  0  0  0  0  0  0
    6.7375  -13.7341   20.6580 C   0  0  0  0  0  0  0  0  0  0  0  0
    8.2084  -14.0370   20.8102 C   0  0  2  0  0  0  0  0  0  0  0  0
    8.8587  -14.0556   19.4555 C   0  0  0  0  0  0  0  0  0  0  0  0
    8.4463  -15.3764   21.4880 C   0  0  2  0  0  0  0  0  0  0  0  0
    7.9555  -15.4041   22.8432 N   0  0  0  0  0  0  0  0  0  0  0  0
    9.8881  -15.7667   21.4194 C   0  0  0  0  0  0  0  0  0  0  0  0
   10.4196  -16.0074   20.3053 O   0  0  0  0  0  0  0  0  0  0  0  0
   10.6663  -15.8671   22.6238 N   0  0  0  0  0  0  0  0  0  0  0  0
   12.0629  -16.1489   22.4748 C   0  0  0  0  0  0  0  0  0  0  0  0
   12.4017  -17.5639   22.5575 C   0  0  0  0  0  0  0  0  0  0  0  0
   11.5363  -18.4370   22.3401 O   0  0  0  0  0  0  0  0  0  0  0  0
   13.6827  -17.9599   22.8770 O   0  0  0  0  0  0  0  0  0  0  0  0
  2  1  1  1
  3  2  1  0
  4  3  1  0
  4  5  2  0
  6  5  1  0
  7  6  1  0
  8  7  2  0
  9  8  1  0
 10  9  2  0
 10 11  1  0
 11 12  2  0
 12  7  1  0
 12  4  1  0
 13  2  1  0
 14 13  2  0
 16 15  1  0
 17 16  1  0
 17 18  1  6
 19 17  1  0
 19 20  1  1
 20 13  1  0
 21 19  1  0
 22 21  2  0
 23 21  1  0
 24 23  1  0
 25 24  1  0
 25 27  1  0
 26 25  2  0
M  END
$$$$
