WIG.pdb
     RDKit          3D

 27 28  0  0  1  0  0  0  0  0999 V2000
    6.6864  -18.3550   25.0436 N   0  0  0  0  0  0  0  0  0  0  0  0
    6.8024  -17.0210   24.5376 C   0  0  1  0  0  0  0  0  0  0  0  0
    7.6829  -16.2549   25.5357 C   0  0  0  0  0  0  0  0  0  0  0  0
    6.9298  -15.1520   26.1786 C   0  0  0  0  0  0  0  0  0  0  0  0
    5.6342  -15.1905   26.6189 C   0  0  0  0  0  0  0  0  0  0  0  0
    5.3561  -13.9799   27.1320 N   0  0  0  0  0  0  0  0  0  0  0  0
    6.4111  -13.1670   27.0420 C   0  0  0  0  0  0  0  0  0  0  0  0
    6.5927  -11.8509   27.4311 C   0  0  0  0  0  0  0  0  0  0  0  0
    7.8269  -11.2876   27.1932 C   0  0  0  0  0  0  0  0  0  0  0  0
    8.8646  -11.9737   26.5944 C   0  0  0  0  0  0  0  0  0  0  0  0
    8.6550  -13.2764   26.2197 C   0  0  0  0  0  0  0  0  0  0  0  0
    7.4194  -13.8904   26.4406 C   0  0  0  0  0  0  0  0  0  0  0  0
    7.5582  -17.0258   23.2602 C   0  0  0  0  0  0  0  0  0  0  0  0
    7.9369  -18.1193   22.7843 O   0  0  0  0  0  0  0  0  0  0  0  0
    8.1555  -12.1093   20.4236 C   0  0  0  0  0  0  0  0  0  0  0  0
    8.6606  -13.3719   21.0904 C   0  0  0  0  0  0  0  0  0  0  0  0
    7.9306  -14.5314   20.4570 C   0  0  2  0  0  0  0  0  0  0  0  0
    6.4489  -14.2926   20.5338 C   0  0  0  0  0  0  0  0  0  0  0  0
    8.2523  -15.8491   21.1426 C   0  0  2  0  0  0  0  0  0  0  0  0
    7.8818  -15.8512   22.5359 N   0  0  0  0  0  0  0  0  0  0  0  0
    9.6899  -16.2163   20.9575 C   0  0  0  0  0  0  0  0  0  0  0  0
   10.1468  -16.3942   19.7995 O   0  0  0  0  0  0  0  0  0  0  0  0
   10.5491  -16.3661   22.1002 N   0  0  0  0  0  0  0  0  0  0  0  0
   11.8405  -16.9423   21.8724 C   0  0  0  0  0  0  0  0  0  0  0  0
   12.8788  -15.9754   21.5394 C   0  0  0  0  0  0  0  0  0  0  0  0
   12.5994  -14.7663   21.4036 O   0  0  0  0  0  0  0  0  0  0  0  0
   14.1851  -16.3809   21.3692 O   0  0  0  0  0  0  0  0  0  0  0  0
  2  1  1  1
  3  2  1  0
  4  3  1  0
  4  5  2  0
  6  5  1  0
  7  6  1  0
  8  7  2  0
  9  8  1  0
 10  9  2  0
 10 11  1  0
 11 12  2  0
 12  7  1  0
 12  4  1  0
 13  2  1  0
 14 13  2  0
 16 15  1  0
 17 16  1  0
 17 18  1  1
 19 17  1  0
 19 20  1  1
 20 13  1  0
 21 19  1  0
 22 21  2  0
 23 21  1  0
 24 23  1  0
 25 24  1  0
 25 27  1  0
 26 25  2  0
M  END
$$$$
