WIG.pdb
     RDKit          3D

 27 28  0  0  1  0  0  0  0  0999 V2000
    6.3463  -18.4084   24.4387 N   0  0  0  0  0  0  0  0  0  0  0  0
    6.6430  -17.0205   24.2515 C   0  0  1  0  0  0  0  0  0  0  0  0
    7.2723  -16.5320   25.5643 C   0  0  0  0  0  0  0  0  0  0  0  0
    6.6245  -15.2861   26.0385 C   0  0  0  0  0  0  0  0  0  0  0  0
    5.3157  -15.1312   26.4088 C   0  0  0  0  0  0  0  0  0  0  0  0
    5.1571  -13.8460   26.7682 N   0  0  0  0  0  0  0  0  0  0  0  0
    6.3013  -13.1692   26.6462 C   0  0  0  0  0  0  0  0  0  0  0  0
    6.6162  -11.8445   26.8959 C   0  0  0  0  0  0  0  0  0  0  0  0
    7.9158  -11.4510   26.6649 C   0  0  0  0  0  0  0  0  0  0  0  0
    8.8921  -12.3113   26.2037 C   0  0  0  0  0  0  0  0  0  0  0  0
    8.5503  -13.6181   25.9652 C   0  0  0  0  0  0  0  0  0  0  0  0
    7.2442  -14.0636   26.1851 C   0  0  0  0  0  0  0  0  0  0  0  0
    7.6976  -16.8609   23.2194 C   0  0  0  0  0  0  0  0  0  0  0  0
    8.2016  -17.8839   22.7047 O   0  0  0  0  0  0  0  0  0  0  0  0
    6.8870  -12.3110   20.1110 C   0  0  0  0  0  0  0  0  0  0  0  0
    7.0652  -13.7826   20.4212 C   0  0  0  0  0  0  0  0  0  0  0  0
    8.4623  -13.9558   20.9659 C   0  0  2  0  0  0  0  0  0  0  0  0
    9.4624  -13.6306   19.8922 C   0  0  0  0  0  0  0  0  0  0  0  0
    8.7104  -15.3730   21.4556 C   0  0  2  0  0  0  0  0  0  0  0  0
    8.1756  -15.6028   22.7745 N   0  0  0  0  0  0  0  0  0  0  0  0
   10.1629  -15.7212   21.3851 C   0  0  0  0  0  0  0  0  0  0  0  0
   10.7562  -15.7118   20.2763 O   0  0  0  0  0  0  0  0  0  0  0  0
   10.8809  -16.0663   22.5817 N   0  0  0  0  0  0  0  0  0  0  0  0
   12.2610  -16.4199   22.4335 C   0  0  0  0  0  0  0  0  0  0  0  0
   12.9668  -16.6235   23.6922 C   0  0  0  0  0  0  0  0  0  0  0  0
   12.3394  -16.6724   24.7703 O   0  0  0  0  0  0  0  0  0  0  0  0
   14.3377  -16.7652   23.7116 O   0  0  0  0  0  0  0  0  0  0  0  0
  2  1  1  1
  3  2  1  0
  4  3  1  0
  4  5  2  0
  6  5  1  0
  7  6  1  0
  8  7  2  0
  9  8  1  0
 10  9  2  0
 10 11  1  0
 11 12  2  0
 12  7  1  0
 12  4  1  0
 13  2  1  0
 14 13  2  0
 16 15  1  0
 17 16  1  0
 17 18  1  6
 19 17  1  0
 19 20  1  1
 20 13  1  0
 21 19  1  0
 22 21  2  0
 23 21  1  0
 24 23  1  0
 25 24  1  0
 25 27  1  0
 26 25  2  0
M  END
$$$$
