PMC.pdb
     RDKit          3D

 22 22  0  0  1  0  0  0  0  0999 V2000
   28.1355  -20.7392  -16.0712 N   0  0  0  0  0  0  0  0  0  0  0  0
   28.7948  -19.7266  -16.9086 C   0  0  0  0  0  0  0  0  0  0  0  0
   27.8692  -18.5371  -16.6719 C   0  0  0  0  0  0  0  0  0  0  0  0
   27.5245  -18.6388  -15.1997 C   0  0  0  0  0  0  0  0  0  0  0  0
   28.0268  -19.9970  -14.8080 C   0  0  1  0  0  0  0  0  0  0  0  0
   27.1376  -20.7160  -13.8967 C   0  0  0  0  0  0  0  0  0  0  0  0
   26.4629  -21.6798  -14.3276 O   0  0  0  0  0  0  0  0  0  0  0  0
   26.3949  -19.2640   -7.4847 C   0  0  0  0  0  0  0  0  0  0  0  0
   26.0798  -21.0409   -7.6739 S   0  0  0  0  0  0  0  0  0  0  0  0
   25.3935  -21.2737   -9.3551 C   0  0  0  0  0  0  0  0  0  0  0  0
   26.3470  -20.6436  -10.3098 C   0  0  0  0  0  0  0  0  0  0  0  0
   25.9712  -21.0167  -11.7401 C   0  0  2  0  0  0  0  0  0  0  0  0
   27.0249  -20.3446  -12.5396 N   0  0  0  0  0  0  0  0  0  0  0  0
   24.6497  -20.4888  -12.1302 C   0  0  0  0  0  0  0  0  0  0  0  0
   24.5044  -19.2464  -12.3155 O   0  0  0  0  0  0  0  0  0  0  0  0
   23.4824  -21.2680  -12.3303 N   0  0  0  0  0  0  0  0  0  0  0  0
   22.2340  -20.6764  -12.7691 C   0  0  1  0  0  0  0  0  0  0  0  0
   21.8399  -21.3839  -14.0510 C   0  0  0  0  0  0  0  0  0  0  0  0
   23.0122  -20.9898  -15.3827 S   0  0  0  0  0  0  0  0  0  0  0  0
   21.1613  -20.8265  -11.7714 C   0  0  0  0  0  0  0  0  0  0  0  0
   19.9112  -20.3116  -12.0648 O   0  0  0  0  0  0  0  0  0  0  0  0
   21.3868  -21.4020  -10.6999 O   0  0  0  0  0  0  0  0  0  0  0  0
  1  5  1  0
  1  2  1  0
  2  3  1  0
  4  3  1  0
  5  4  1  0
  5  6  1  1
  6 13  1  0
  7  6  2  0
  8  9  1  0
 10  9  1  0
 11 10  1  0
 12 11  1  1
 12 13  1  0
 12 14  1  0
 14 15  2  0
 14 16  1  0
 16 17  1  0
 17 18  1  6
 17 20  1  0
 18 19  1  0
 20 21  1  0
 22 20  2  0
M  END
$$$$
