PMC.pdb
     RDKit          3D

 22 22  0  0  1  0  0  0  0  0999 V2000
   25.3972  -11.9411  -16.1224 N   0  0  0  0  0  0  0  0  0  0  0  0
   26.4354  -12.9586  -16.3419 C   0  0  0  0  0  0  0  0  0  0  0  0
   25.5731  -14.1268  -16.8102 C   0  0  0  0  0  0  0  0  0  0  0  0
   24.5257  -13.4702  -17.6868 C   0  0  0  0  0  0  0  0  0  0  0  0
   24.6974  -12.0053  -17.4126 C   0  0  1  0  0  0  0  0  0  0  0  0
   23.4373  -11.2695  -17.3193 C   0  0  0  0  0  0  0  0  0  0  0  0
   22.6726  -11.2299  -18.3110 O   0  0  0  0  0  0  0  0  0  0  0  0
   18.5112   -9.8970  -12.8213 C   0  0  0  0  0  0  0  0  0  0  0  0
   19.5964  -11.3436  -12.9694 S   0  0  0  0  0  0  0  0  0  0  0  0
   20.3090  -11.2919  -14.6549 C   0  0  0  0  0  0  0  0  0  0  0  0
   21.2643  -10.1501  -14.6931 C   0  0  0  0  0  0  0  0  0  0  0  0
   21.7459   -9.9246  -16.1225 C   0  0  2  0  0  0  0  0  0  0  0  0
   23.0657  -10.6024  -16.1322 N   0  0  0  0  0  0  0  0  0  0  0  0
   21.9284   -8.4943  -16.4355 C   0  0  0  0  0  0  0  0  0  0  0  0
   22.8987   -7.8633  -15.9264 O   0  0  0  0  0  0  0  0  0  0  0  0
   21.0931   -7.7288  -17.2877 N   0  0  0  0  0  0  0  0  0  0  0  0
   21.3415   -6.3233  -17.5409 C   0  0  1  0  0  0  0  0  0  0  0  0
   20.4912   -5.9356  -18.7349 C   0  0  0  0  0  0  0  0  0  0  0  0
   20.7839   -4.2005  -19.1893 S   0  0  0  0  0  0  0  0  0  0  0  0
   20.9918   -5.4758  -16.3885 C   0  0  0  0  0  0  0  0  0  0  0  0
   21.8563   -4.4555  -16.0341 O   0  0  0  0  0  0  0  0  0  0  0  0
   19.9460   -5.6826  -15.7610 O   0  0  0  0  0  0  0  0  0  0  0  0
  1  5  1  0
  1  2  1  0
  2  3  1  0
  4  3  1  0
  5  4  1  0
  5  6  1  1
  6 13  1  0
  7  6  2  0
  8  9  1  0
 10  9  1  0
 11 10  1  0
 12 11  1  1
 12 13  1  0
 12 14  1  0
 14 15  2  0
 14 16  1  0
 16 17  1  0
 17 18  1  6
 17 20  1  0
 18 19  1  0
 20 21  1  0
 22 20  2  0
M  END
$$$$
