PMC.pdb
     RDKit          3D

 22 22  0  0  1  0  0  0  0  0999 V2000
   27.4209  -18.9404  -15.5121 N   0  0  0  0  0  0  0  0  0  0  0  0
   28.5394  -18.5354  -16.3760 C   0  0  0  0  0  0  0  0  0  0  0  0
   29.6400  -19.4431  -15.8352 C   0  0  0  0  0  0  0  0  0  0  0  0
   28.9247  -20.7516  -15.5653 C   0  0  0  0  0  0  0  0  0  0  0  0
   27.4724  -20.3976  -15.6912 C   0  0  1  0  0  0  0  0  0  0  0  0
   26.6185  -21.0405  -14.6935 C   0  0  0  0  0  0  0  0  0  0  0  0
   26.2992  -22.2432  -14.8394 O   0  0  0  0  0  0  0  0  0  0  0  0
   27.2014  -20.2261   -8.8318 C   0  0  0  0  0  0  0  0  0  0  0  0
   25.4233  -20.5111   -8.6089 S   0  0  0  0  0  0  0  0  0  0  0  0
   24.7823  -21.0982  -10.2200 C   0  0  0  0  0  0  0  0  0  0  0  0
   25.6659  -20.5324  -11.2769 C   0  0  0  0  0  0  0  0  0  0  0  0
   25.2389  -21.0553  -12.6444 C   0  0  2  0  0  0  0  0  0  0  0  0
   26.1467  -20.3313  -13.5680 N   0  0  0  0  0  0  0  0  0  0  0  0
   23.8400  -20.7133  -12.9656 C   0  0  0  0  0  0  0  0  0  0  0  0
   23.4920  -19.4989  -13.0218 O   0  0  0  0  0  0  0  0  0  0  0  0
   22.8082  -21.6482  -13.2324 N   0  0  0  0  0  0  0  0  0  0  0  0
   21.4598  -21.2271  -13.5571 C   0  0  1  0  0  0  0  0  0  0  0  0
   20.9272  -22.2113  -14.5803 C   0  0  0  0  0  0  0  0  0  0  0  0
   22.0232  -22.2808  -16.0284 S   0  0  0  0  0  0  0  0  0  0  0  0
   20.5776  -21.2134  -12.3781 C   0  0  0  0  0  0  0  0  0  0  0  0
   19.2882  -20.7340  -12.5250 O   0  0  0  0  0  0  0  0  0  0  0  0
   20.9929  -21.6242  -11.2877 O   0  0  0  0  0  0  0  0  0  0  0  0
  1  5  1  0
  1  2  1  0
  2  3  1  0
  4  3  1  0
  5  4  1  0
  5  6  1  1
  6 13  1  0
  7  6  2  0
  8  9  1  0
 10  9  1  0
 11 10  1  0
 12 11  1  1
 12 13  1  0
 12 14  1  0
 14 15  2  0
 14 16  1  0
 16 17  1  0
 17 18  1  6
 17 20  1  0
 18 19  1  0
 20 21  1  0
 22 20  2  0
M  END
$$$$
