PMC.pdb
     RDKit          3D

 22 22  0  0  1  0  0  0  0  0999 V2000
   18.5791  -23.8767  -13.9449 N   0  0  0  0  0  0  0  0  0  0  0  0
   19.3435  -23.6614  -15.1822 C   0  0  0  0  0  0  0  0  0  0  0  0
   19.0673  -22.1792  -15.4150 C   0  0  0  0  0  0  0  0  0  0  0  0
   19.1094  -21.5838  -14.0221 C   0  0  0  0  0  0  0  0  0  0  0  0
   19.1108  -22.7830  -13.1207 C   0  0  1  0  0  0  0  0  0  0  0  0
   18.2811  -22.6263  -11.9270 C   0  0  0  0  0  0  0  0  0  0  0  0
   18.6187  -21.8014  -11.0464 O   0  0  0  0  0  0  0  0  0  0  0  0
   12.3196  -22.1949  -12.2925 C   0  0  0  0  0  0  0  0  0  0  0  0
   12.2303  -22.9686  -10.6537 S   0  0  0  0  0  0  0  0  0  0  0  0
   13.9166  -22.8890   -9.9457 C   0  0  0  0  0  0  0  0  0  0  0  0
   14.8721  -23.1604  -11.0553 C   0  0  0  0  0  0  0  0  0  0  0  0
   16.3032  -23.1147  -10.5300 C   0  0  2  0  0  0  0  0  0  0  0  0
   17.1060  -23.3874  -11.7475 N   0  0  0  0  0  0  0  0  0  0  0  0
   16.5672  -24.1625   -9.5252 C   0  0  0  0  0  0  0  0  0  0  0  0
   16.5643  -25.3774   -9.8757 O   0  0  0  0  0  0  0  0  0  0  0  0
   16.8391  -23.9323   -8.1530 N   0  0  0  0  0  0  0  0  0  0  0  0
   17.1035  -25.0205   -7.2328 C   0  0  1  0  0  0  0  0  0  0  0  0
   18.3354  -24.6335   -6.4379 C   0  0  0  0  0  0  0  0  0  0  0  0
   19.7585  -24.3966   -7.5431 S   0  0  0  0  0  0  0  0  0  0  0  0
   15.9784  -25.2637   -6.3142 C   0  0  0  0  0  0  0  0  0  0  0  0
   16.0251  -26.3776   -5.4951 O   0  0  0  0  0  0  0  0  0  0  0  0
   15.0202  -24.4819   -6.2862 O   0  0  0  0  0  0  0  0  0  0  0  0
  1  5  1  0
  1  2  1  0
  2  3  1  0
  4  3  1  0
  5  4  1  0
  5  6  1  1
  6 13  1  0
  7  6  2  0
  8  9  1  0
 10  9  1  0
 11 10  1  0
 12 11  1  6
 12 13  1  0
 12 14  1  0
 14 15  2  0
 14 16  1  0
 16 17  1  0
 17 18  1  1
 17 20  1  0
 18 19  1  0
 20 21  1  0
 22 20  2  0
M  END
$$$$
