PMC.pdb
     RDKit          3D

 22 22  0  0  1  0  0  0  0  0999 V2000
   27.4296  -19.3282  -15.4067 N   0  0  0  0  0  0  0  0  0  0  0  0
   28.5482  -19.0883  -16.3300 C   0  0  0  0  0  0  0  0  0  0  0  0
   29.5708  -20.0761  -15.7769 C   0  0  0  0  0  0  0  0  0  0  0  0
   28.7368  -21.2867  -15.4090 C   0  0  0  0  0  0  0  0  0  0  0  0
   27.3244  -20.7903  -15.5048 C   0  0  1  0  0  0  0  0  0  0  0  0
   26.4499  -21.2870  -14.4435 C   0  0  0  0  0  0  0  0  0  0  0  0
   25.9885  -22.4494  -14.5195 O   0  0  0  0  0  0  0  0  0  0  0  0
   27.2901  -20.7342   -8.3036 C   0  0  0  0  0  0  0  0  0  0  0  0
   25.5540  -20.2095   -8.3584 S   0  0  0  0  0  0  0  0  0  0  0  0
   24.8429  -20.9155   -9.8905 C   0  0  0  0  0  0  0  0  0  0  0  0
   25.6984  -20.4613  -11.0217 C   0  0  0  0  0  0  0  0  0  0  0  0
   25.1935  -21.0646  -12.3283 C   0  0  2  0  0  0  0  0  0  0  0  0
   26.1152  -20.4812  -13.3340 N   0  0  0  0  0  0  0  0  0  0  0  0
   23.8098  -20.6567  -12.6383 C   0  0  0  0  0  0  0  0  0  0  0  0
   23.5286  -19.4277  -12.7347 O   0  0  0  0  0  0  0  0  0  0  0  0
   22.7229  -21.5416  -12.8518 N   0  0  0  0  0  0  0  0  0  0  0  0
   21.3840  -21.0569  -13.1228 C   0  0  1  0  0  0  0  0  0  0  0  0
   20.7242  -22.0757  -14.0316 C   0  0  0  0  0  0  0  0  0  0  0  0
   21.6980  -22.3012  -15.5494 S   0  0  0  0  0  0  0  0  0  0  0  0
   20.5859  -20.8987  -11.8954 C   0  0  0  0  0  0  0  0  0  0  0  0
   19.3455  -20.2931  -11.9891 O   0  0  0  0  0  0  0  0  0  0  0  0
   21.0266  -21.3025  -10.8124 O   0  0  0  0  0  0  0  0  0  0  0  0
  1  5  1  0
  1  2  1  0
  2  3  1  0
  4  3  1  0
  5  4  1  0
  5  6  1  1
  6 13  1  0
  7  6  2  0
  8  9  1  0
 10  9  1  0
 11 10  1  0
 12 11  1  1
 12 13  1  0
 12 14  1  0
 14 15  2  0
 14 16  1  0
 16 17  1  0
 17 18  1  6
 17 20  1  0
 18 19  1  0
 20 21  1  0
 22 20  2  0
M  END
$$$$
