PMC.pdb
     RDKit          3D

 22 22  0  0  1  0  0  0  0  0999 V2000
   36.3530  -27.3038    4.1306 N   0  0  0  0  0  0  0  0  0  0  0  0
   37.0738  -28.4040    3.4738 C   0  0  0  0  0  0  0  0  0  0  0  0
   38.1947  -27.6237    2.7939 C   0  0  0  0  0  0  0  0  0  0  0  0
   38.5678  -26.5687    3.8158 C   0  0  0  0  0  0  0  0  0  0  0  0
   37.4662  -26.6491    4.8310 C   0  0  1  0  0  0  0  0  0  0  0  0
   37.0272  -25.3473    5.3315 C   0  0  0  0  0  0  0  0  0  0  0  0
   37.8323  -24.6294    5.9689 O   0  0  0  0  0  0  0  0  0  0  0  0
   32.6349  -20.7884    2.9690 C   0  0  0  0  0  0  0  0  0  0  0  0
   32.0395  -21.5215    4.5184 S   0  0  0  0  0  0  0  0  0  0  0  0
   33.5247  -21.9305    5.5075 C   0  0  0  0  0  0  0  0  0  0  0  0
   34.0659  -23.2127    4.9776 C   0  0  0  0  0  0  0  0  0  0  0  0
   35.3400  -23.5871    5.7277 C   0  0  2  0  0  0  0  0  0  0  0  0
   35.7126  -24.8836    5.1100 N   0  0  0  0  0  0  0  0  0  0  0  0
   35.1059  -23.7825    7.1713 C   0  0  0  0  0  0  0  0  0  0  0  0
   34.5034  -24.8200    7.5706 O   0  0  0  0  0  0  0  0  0  0  0  0
   35.5098  -22.8891    8.1954 N   0  0  0  0  0  0  0  0  0  0  0  0
   35.2821  -23.1794    9.5971 C   0  0  1  0  0  0  0  0  0  0  0  0
   36.6432  -23.4122   10.2236 C   0  0  0  0  0  0  0  0  0  0  0  0
   36.4854  -23.6585   12.0173 S   0  0  0  0  0  0  0  0  0  0  0  0
   34.5989  -22.0768   10.2942 C   0  0  0  0  0  0  0  0  0  0  0  0
   33.9564  -22.3496   11.4887 O   0  0  0  0  0  0  0  0  0  0  0  0
   34.6071  -20.9379    9.8114 O   0  0  0  0  0  0  0  0  0  0  0  0
  1  5  1  0
  1  2  1  0
  2  3  1  0
  4  3  1  0
  5  4  1  0
  5  6  1  6
  6 13  1  0
  7  6  2  0
  8  9  1  0
 10  9  1  0
 11 10  1  0
 12 11  1  6
 12 13  1  0
 12 14  1  0
 14 15  2  0
 14 16  1  0
 16 17  1  0
 17 18  1  1
 17 20  1  0
 18 19  1  0
 20 21  1  0
 22 20  2  0
M  END
$$$$
