PMC.pdb
     RDKit          3D

 22 22  0  0  1  0  0  0  0  0999 V2000
   26.9727  -18.4059  -15.3722 N   0  0  0  0  0  0  0  0  0  0  0  0
   28.0583  -17.7990  -16.1560 C   0  0  0  0  0  0  0  0  0  0  0  0
   29.1592  -18.8322  -15.9368 C   0  0  0  0  0  0  0  0  0  0  0  0
   28.4232  -20.1559  -15.9870 C   0  0  0  0  0  0  0  0  0  0  0  0
   26.9764  -19.7627  -15.9356 C   0  0  1  0  0  0  0  0  0  0  0  0
   26.1551  -20.6380  -15.1005 C   0  0  0  0  0  0  0  0  0  0  0  0
   25.7955  -21.7529  -15.5448 O   0  0  0  0  0  0  0  0  0  0  0  0
   26.7456  -20.5401   -9.1129 C   0  0  0  0  0  0  0  0  0  0  0  0
   24.9527  -20.7983   -9.0069 S   0  0  0  0  0  0  0  0  0  0  0  0
   24.3043  -20.6690  -10.7140 C   0  0  0  0  0  0  0  0  0  0  0  0
   25.4019  -21.0796  -11.6330 C   0  0  0  0  0  0  0  0  0  0  0  0
   24.8729  -21.1802  -13.0599 C   0  0  2  0  0  0  0  0  0  0  0  0
   25.7594  -20.2505  -13.8022 N   0  0  0  0  0  0  0  0  0  0  0  0
   23.4756  -20.7207  -13.1754 C   0  0  0  0  0  0  0  0  0  0  0  0
   23.1707  -19.5516  -12.8022 O   0  0  0  0  0  0  0  0  0  0  0  0
   22.3999  -21.4889  -13.6879 N   0  0  0  0  0  0  0  0  0  0  0  0
   21.0797  -20.9226  -13.8813 C   0  0  1  0  0  0  0  0  0  0  0  0
   20.7021  -21.1742  -15.3281 C   0  0  0  0  0  0  0  0  0  0  0  0
   21.9138  -20.4085  -16.4455 S   0  0  0  0  0  0  0  0  0  0  0  0
   20.0735  -21.5306  -12.9945 C   0  0  0  0  0  0  0  0  0  0  0  0
   18.8133  -20.9622  -12.9400 O   0  0  0  0  0  0  0  0  0  0  0  0
   20.3620  -22.5263  -12.3196 O   0  0  0  0  0  0  0  0  0  0  0  0
  1  5  1  0
  1  2  1  0
  2  3  1  0
  4  3  1  0
  5  4  1  0
  5  6  1  1
  6 13  1  0
  7  6  2  0
  8  9  1  0
 10  9  1  0
 11 10  1  0
 12 11  1  1
 12 13  1  0
 12 14  1  0
 14 15  2  0
 14 16  1  0
 16 17  1  0
 17 18  1  6
 17 20  1  0
 18 19  1  0
 20 21  1  0
 22 20  2  0
M  END
$$$$
