PMC.pdb
     RDKit          3D

 22 22  0  0  1  0  0  0  0  0999 V2000
   27.5705  -19.6355  -15.5230 N   0  0  0  0  0  0  0  0  0  0  0  0
   28.6478  -19.5456  -16.5194 C   0  0  0  0  0  0  0  0  0  0  0  0
   29.5451  -20.6866  -16.0499 C   0  0  0  0  0  0  0  0  0  0  0  0
   28.5651  -21.7668  -15.6382 C   0  0  0  0  0  0  0  0  0  0  0  0
   27.2403  -21.0630  -15.6297 C   0  0  1  0  0  0  0  0  0  0  0  0
   26.3744  -21.4463  -14.5156 C   0  0  0  0  0  0  0  0  0  0  0  0
   25.7181  -22.5114  -14.5840 O   0  0  0  0  0  0  0  0  0  0  0  0
   27.5940  -20.7025   -8.2666 C   0  0  0  0  0  0  0  0  0  0  0  0
   25.9273  -19.9982   -8.4027 S   0  0  0  0  0  0  0  0  0  0  0  0
   25.1378  -20.7992   -9.8471 C   0  0  0  0  0  0  0  0  0  0  0  0
   25.9802  -20.4899  -11.0357 C   0  0  0  0  0  0  0  0  0  0  0  0
   25.3696  -21.1215  -12.2824 C   0  0  2  0  0  0  0  0  0  0  0  0
   26.2637  -20.6384  -13.3634 N   0  0  0  0  0  0  0  0  0  0  0  0
   23.9952  -20.6489  -12.5367 C   0  0  0  0  0  0  0  0  0  0  0  0
   23.8012  -19.4441  -12.8679 O   0  0  0  0  0  0  0  0  0  0  0  0
   22.8252  -21.4446  -12.4475 N   0  0  0  0  0  0  0  0  0  0  0  0
   21.5202  -20.9290  -12.8108 C   0  0  1  0  0  0  0  0  0  0  0  0
   20.7911  -22.0475  -13.5297 C   0  0  0  0  0  0  0  0  0  0  0  0
   19.0424  -21.6160  -13.7718 S   0  0  0  0  0  0  0  0  0  0  0  0
   20.7389  -20.5036  -11.6372 C   0  0  0  0  0  0  0  0  0  0  0  0
   19.6140  -19.7245  -11.8412 O   0  0  0  0  0  0  0  0  0  0  0  0
   21.0919  -20.8422  -10.5010 O   0  0  0  0  0  0  0  0  0  0  0  0
  1  5  1  0
  1  2  1  0
  2  3  1  0
  4  3  1  0
  5  4  1  0
  5  6  1  1
  6 13  1  0
  7  6  2  0
  8  9  1  0
 10  9  1  0
 11 10  1  0
 12 11  1  1
 12 13  1  0
 12 14  1  0
 14 15  2  0
 14 16  1  0
 16 17  1  0
 17 18  1  1
 17 20  1  0
 18 19  1  0
 20 21  1  0
 22 20  2  0
M  END
$$$$
