DLE.pdb
     RDKit          3D

 26 25  0  0  1  0  0  0  0  0999 V2000
   26.9862  -18.6153  -15.3733 N   0  0  0  0  0  0  0  0  0  0  0  0
   26.2604  -19.6871  -16.0019 C   0  0  1  0  0  0  0  0  0  0  0  0
   27.2648  -20.7153  -16.4850 C   0  0  0  0  0  0  0  0  0  0  0  0
   28.0260  -20.2266  -17.6519 C   0  0  0  0  0  0  0  0  0  0  0  0
   27.8954  -19.0748  -18.1308 O   0  0  0  0  0  0  0  0  0  0  0  0
   25.3467  -20.3844  -15.0601 C   0  0  0  0  0  0  0  0  0  0  0  0
   24.7812  -21.4577  -15.4748 O   0  0  0  0  0  0  0  0  0  0  0  0
   28.9423  -21.1220  -18.2406 O   0  0  0  0  0  0  0  0  0  0  0  0
   25.8908  -22.3535  -11.0067 C   0  0  0  0  0  0  0  0  0  0  0  0
   25.8160  -20.8188  -10.9364 C   0  0  2  0  0  0  0  0  0  0  0  0
   26.0736  -20.4697   -9.4930 C   0  0  0  0  0  0  0  0  0  0  0  0
   24.4904  -20.4252  -11.4314 C   0  0  0  0  0  0  0  0  0  0  0  0
   24.1994  -20.5794  -12.8714 C   0  0  2  0  0  0  0  0  0  0  0  0
   25.1045  -19.8884  -13.7505 N   0  0  0  0  0  0  0  0  0  0  0  0
   22.7828  -20.2425  -13.2506 C   0  0  0  0  0  0  0  0  0  0  0  0
   22.4124  -19.0389  -13.2308 O   0  0  0  0  0  0  0  0  0  0  0  0
   21.8484  -21.2186  -13.6303 N   0  0  0  0  0  0  0  0  0  0  0  0
   20.4587  -20.8827  -14.0498 C   0  0  1  0  0  0  0  0  0  0  0  0
   20.2373  -21.2699  -15.4551 C   0  0  0  0  0  0  0  0  0  0  0  0
   20.7261  -20.2299  -16.4114 C   0  0  0  0  0  0  0  0  0  0  0  0
   21.2880  -20.8575  -17.6552 C   0  0  0  0  0  0  0  0  0  0  0  0
   20.5572  -21.3890  -18.5333 O   0  0  0  0  0  0  0  0  0  0  0  0
   19.5091  -21.5528  -13.1345 C   0  0  0  0  0  0  0  0  0  0  0  0
   18.1857  -21.0488  -13.0559 O   0  0  0  0  0  0  0  0  0  0  0  0
   22.6672  -20.8603  -17.8672 O   0  0  0  0  0  0  0  0  0  0  0  0
   19.7355  -22.5299  -12.4076 O   0  0  0  0  0  0  0  0  0  0  0  0
  2  1  1  1
  2  3  1  0
  4  8  1  0
  4  3  1  0
  5  4  2  0
  6  7  2  0
  6  2  1  0
 10  9  1  1
 10 11  1  0
 10 12  1  0
 13 12  1  1
 13 14  1  0
 14  6  1  0
 15 16  2  0
 15 13  1  0
 17 15  1  0
 18 19  1  6
 18 17  1  0
 20 19  1  0
 20 21  1  0
 21 22  2  0
 23 18  1  0
 24 23  1  0
 25 21  1  0
 26 23  2  0
M  END
$$$$
