DLE.pdb
     RDKit          3D

 26 25  0  0  1  0  0  0  0  0999 V2000
   20.3474  -20.8970  -11.0370 N   0  0  0  0  0  0  0  0  0  0  0  0
   21.6290  -21.3844  -11.4733 C   0  0  1  0  0  0  0  0  0  0  0  0
   21.7049  -21.2249  -12.9794 C   0  0  0  0  0  0  0  0  0  0  0  0
   20.7787  -22.1431  -13.6716 C   0  0  0  0  0  0  0  0  0  0  0  0
   19.9767  -22.8989  -13.0728 O   0  0  0  0  0  0  0  0  0  0  0  0
   22.7585  -20.6084  -10.8989 C   0  0  0  0  0  0  0  0  0  0  0  0
   22.5914  -19.3455  -10.7541 O   0  0  0  0  0  0  0  0  0  0  0  0
   20.8177  -22.1511  -15.0809 O   0  0  0  0  0  0  0  0  0  0  0  0
   28.0102  -21.1836   -7.7935 C   0  0  0  0  0  0  0  0  0  0  0  0
   27.1121  -20.2405   -8.6120 C   0  0  2  0  0  0  0  0  0  0  0  0
   26.6554  -19.1798   -7.6436 C   0  0  0  0  0  0  0  0  0  0  0  0
   26.0293  -21.0551   -9.1789 C   0  0  0  0  0  0  0  0  0  0  0  0
   25.1193  -20.4344  -10.1631 C   0  0  2  0  0  0  0  0  0  0  0  0
   23.9779  -21.2333  -10.5219 N   0  0  0  0  0  0  0  0  0  0  0  0
   25.8038  -19.9544  -11.4142 C   0  0  0  0  0  0  0  0  0  0  0  0
   26.3165  -18.8042  -11.4299 O   0  0  0  0  0  0  0  0  0  0  0  0
   25.8983  -20.7393  -12.5739 N   0  0  0  0  0  0  0  0  0  0  0  0
   26.5667  -20.2617  -13.8171 C   0  0  1  0  0  0  0  0  0  0  0  0
   27.4448  -21.3114  -14.3654 C   0  0  0  0  0  0  0  0  0  0  0  0
   28.0752  -20.9025  -15.6579 C   0  0  0  0  0  0  0  0  0  0  0  0
   28.9667  -21.9862  -16.1938 C   0  0  0  0  0  0  0  0  0  0  0  0
   29.6444  -21.8448  -17.2467 O   0  0  0  0  0  0  0  0  0  0  0  0
   25.5295  -19.8452  -14.7863 C   0  0  0  0  0  0  0  0  0  0  0  0
   25.8966  -18.9353  -15.8104 O   0  0  0  0  0  0  0  0  0  0  0  0
   29.0651  -23.2012  -15.5147 O   0  0  0  0  0  0  0  0  0  0  0  0
   24.3448  -20.2059  -14.8136 O   0  0  0  0  0  0  0  0  0  0  0  0
  2  1  1  1
  2  3  1  0
  4  8  1  0
  4  3  1  0
  5  4  2  0
  6  7  2  0
  6  2  1  0
 10  9  1  1
 10 11  1  0
 10 12  1  0
 13 12  1  6
 13 14  1  0
 14  6  1  0
 15 16  2  0
 15 13  1  0
 17 15  1  0
 18 19  1  6
 18 17  1  0
 20 19  1  0
 20 21  1  0
 21 22  2  0
 23 18  1  0
 24 23  1  0
 25 21  1  0
 26 23  2  0
M  END
$$$$
