DLE.pdb
     RDKit          3D

 26 25  0  0  1  0  0  0  0  0999 V2000
   27.9142  -21.5984  -16.2209 N   0  0  0  0  0  0  0  0  0  0  0  0
   27.0311  -20.5655  -15.7476 C   0  0  1  0  0  0  0  0  0  0  0  0
   26.3654  -19.9279  -16.9516 C   0  0  0  0  0  0  0  0  0  0  0  0
   27.3314  -19.1667  -17.7685 C   0  0  0  0  0  0  0  0  0  0  0  0
   27.8830  -18.1088  -17.3818 O   0  0  0  0  0  0  0  0  0  0  0  0
   25.9450  -21.0973  -14.8841 C   0  0  0  0  0  0  0  0  0  0  0  0
   25.4572  -22.2427  -15.1902 O   0  0  0  0  0  0  0  0  0  0  0  0
   27.6328  -19.6780  -19.0474 O   0  0  0  0  0  0  0  0  0  0  0  0
   26.0440  -22.3597  -10.7200 C   0  0  0  0  0  0  0  0  0  0  0  0
   25.8585  -20.8340  -10.7808 C   0  0  2  0  0  0  0  0  0  0  0  0
   25.8953  -20.3674   -9.3482 C   0  0  0  0  0  0  0  0  0  0  0  0
   24.5885  -20.5779  -11.4728 C   0  0  0  0  0  0  0  0  0  0  0  0
   24.4709  -20.9548  -12.8962 C   0  0  2  0  0  0  0  0  0  0  0  0
   25.4612  -20.3719  -13.7618 N   0  0  0  0  0  0  0  0  0  0  0  0
   23.1031  -20.7266  -13.4803 C   0  0  0  0  0  0  0  0  0  0  0  0
   22.7827  -19.5685  -13.8574 O   0  0  0  0  0  0  0  0  0  0  0  0
   22.1610  -21.7568  -13.6262 N   0  0  0  0  0  0  0  0  0  0  0  0
   20.7839  -21.5210  -14.1439 C   0  0  1  0  0  0  0  0  0  0  0  0
   20.1058  -22.8036  -14.4061 C   0  0  0  0  0  0  0  0  0  0  0  0
   18.7178  -22.6125  -14.9278 C   0  0  0  0  0  0  0  0  0  0  0  0
   18.0670  -23.9312  -15.2346 C   0  0  0  0  0  0  0  0  0  0  0  0
   18.6849  -25.0260  -15.1486 O   0  0  0  0  0  0  0  0  0  0  0  0
   20.0429  -20.6921  -13.1678 C   0  0  0  0  0  0  0  0  0  0  0  0
   19.1577  -19.7021  -13.6654 O   0  0  0  0  0  0  0  0  0  0  0  0
   16.7288  -23.9682  -15.6284 O   0  0  0  0  0  0  0  0  0  0  0  0
   20.1026  -20.7603  -11.9324 O   0  0  0  0  0  0  0  0  0  0  0  0
  2  1  1  6
  2  3  1  0
  4  8  1  0
  4  3  1  0
  5  4  2  0
  6  7  2  0
  6  2  1  0
 10  9  1  1
 10 11  1  0
 10 12  1  0
 13 12  1  1
 13 14  1  0
 14  6  1  0
 15 16  2  0
 15 13  1  0
 17 15  1  0
 18 19  1  1
 18 17  1  0
 20 19  1  0
 20 21  1  0
 21 22  2  0
 23 18  1  0
 24 23  1  0
 25 21  1  0
 26 23  2  0
M  END
$$$$
