DLE.pdb
     RDKit          3D

 26 25  0  0  1  0  0  0  0  0999 V2000
   22.4310  -27.0618  -14.7900 N   0  0  0  0  0  0  0  0  0  0  0  0
   21.7772  -26.0288  -14.0308 C   0  0  1  0  0  0  0  0  0  0  0  0
   21.7795  -26.4441  -12.5724 C   0  0  0  0  0  0  0  0  0  0  0  0
   20.9666  -27.6565  -12.3501 C   0  0  0  0  0  0  0  0  0  0  0  0
   20.2454  -28.1781  -13.2338 O   0  0  0  0  0  0  0  0  0  0  0  0
   22.4892  -24.7270  -14.1108 C   0  0  0  0  0  0  0  0  0  0  0  0
   22.1068  -23.7972  -13.3151 O   0  0  0  0  0  0  0  0  0  0  0  0
   21.0220  -28.2395  -11.0676 O   0  0  0  0  0  0  0  0  0  0  0  0
   27.6189  -22.3495  -16.5813 C   0  0  0  0  0  0  0  0  0  0  0  0
   26.3093  -22.0210  -15.8442 C   0  0  2  0  0  0  0  0  0  0  0  0
   26.7274  -21.3359  -14.5685 C   0  0  0  0  0  0  0  0  0  0  0  0
   25.5912  -23.2872  -15.6490 C   0  0  0  0  0  0  0  0  0  0  0  0
   24.2363  -23.2479  -15.0619 C   0  0  2  0  0  0  0  0  0  0  0  0
   23.5525  -24.5132  -15.0291 N   0  0  0  0  0  0  0  0  0  0  0  0
   23.3334  -22.2099  -15.6713 C   0  0  0  0  0  0  0  0  0  0  0  0
   22.8670  -22.4039  -16.8250 O   0  0  0  0  0  0  0  0  0  0  0  0
   22.9838  -21.0253  -15.0044 N   0  0  0  0  0  0  0  0  0  0  0  0
   22.0658  -20.0105  -15.5938 C   0  0  1  0  0  0  0  0  0  0  0  0
   20.8464  -19.8821  -14.7751 C   0  0  0  0  0  0  0  0  0  0  0  0
   20.7826  -18.5717  -14.0581 C   0  0  0  0  0  0  0  0  0  0  0  0
   19.5188  -18.4535  -13.2549 C   0  0  0  0  0  0  0  0  0  0  0  0
   18.7108  -19.4113  -13.1214 O   0  0  0  0  0  0  0  0  0  0  0  0
   22.7894  -18.7259  -15.7148 C   0  0  0  0  0  0  0  0  0  0  0  0
   22.4832  -17.8857  -16.8156 O   0  0  0  0  0  0  0  0  0  0  0  0
   19.2101  -17.2486  -12.6224 O   0  0  0  0  0  0  0  0  0  0  0  0
   23.6550  -18.2811  -14.9485 O   0  0  0  0  0  0  0  0  0  0  0  0
  2  1  1  6
  2  3  1  0
  4  8  1  0
  4  3  1  0
  5  4  2  0
  6  7  2  0
  6  2  1  0
 10  9  1  6
 10 11  1  0
 10 12  1  0
 13 12  1  6
 13 14  1  0
 14  6  1  0
 15 16  2  0
 15 13  1  0
 17 15  1  0
 18 19  1  1
 18 17  1  0
 20 19  1  0
 20 21  1  0
 21 22  2  0
 23 18  1  0
 24 23  1  0
 25 21  1  0
 26 23  2  0
M  END
$$$$
