DLE.pdb
     RDKit          3D

 26 25  0  0  1  0  0  0  0  0999 V2000
   15.3502  -10.9878  -12.3513 N   0  0  0  0  0  0  0  0  0  0  0  0
   16.2995  -10.0263  -11.8564 C   0  0  1  0  0  0  0  0  0  0  0  0
   17.0970   -9.5031  -13.0351 C   0  0  0  0  0  0  0  0  0  0  0  0
   17.9362  -10.5587  -13.6365 C   0  0  0  0  0  0  0  0  0  0  0  0
   17.9299  -11.7520  -13.2505 O   0  0  0  0  0  0  0  0  0  0  0  0
   15.6433   -8.8530  -11.2233 C   0  0  0  0  0  0  0  0  0  0  0  0
   14.6849   -8.2961  -11.8674 O   0  0  0  0  0  0  0  0  0  0  0  0
   18.7803  -10.1788  -14.6999 O   0  0  0  0  0  0  0  0  0  0  0  0
   12.4660   -7.2184   -8.5838 C   0  0  0  0  0  0  0  0  0  0  0  0
   13.4795   -8.1719   -7.9285 C   0  0  2  0  0  0  0  0  0  0  0  0
   12.9781   -8.3875   -6.5236 C   0  0  0  0  0  0  0  0  0  0  0  0
   14.7978   -7.5297   -8.0132 C   0  0  0  0  0  0  0  0  0  0  0  0
   15.3651   -7.2546   -9.3490 C   0  0  2  0  0  0  0  0  0  0  0  0
   16.0552   -8.3621   -9.9547 N   0  0  0  0  0  0  0  0  0  0  0  0
   16.2411   -6.0324   -9.4038 C   0  0  0  0  0  0  0  0  0  0  0  0
   17.3305   -6.0299   -8.7719 O   0  0  0  0  0  0  0  0  0  0  0  0
   15.8953   -4.8856  -10.1356 N   0  0  0  0  0  0  0  0  0  0  0  0
   16.7525   -3.6676  -10.1760 C   0  0  1  0  0  0  0  0  0  0  0  0
   17.5601   -3.6471  -11.4094 C   0  0  0  0  0  0  0  0  0  0  0  0
   16.7116   -3.6097  -12.6397 C   0  0  0  0  0  0  0  0  0  0  0  0
   17.5562   -3.5287  -13.8793 C   0  0  0  0  0  0  0  0  0  0  0  0
   17.8921   -4.5503  -14.5361 O   0  0  0  0  0  0  0  0  0  0  0  0
   15.8886   -2.4723  -10.0598 C   0  0  0  0  0  0  0  0  0  0  0  0
   16.5123   -1.2053   -9.9287 O   0  0  0  0  0  0  0  0  0  0  0  0
   17.9934   -2.2862  -14.3397 O   0  0  0  0  0  0  0  0  0  0  0  0
   14.6503   -2.4424  -10.0641 O   0  0  0  0  0  0  0  0  0  0  0  0
  2  1  1  6
  2  3  1  0
  4  8  1  0
  4  3  1  0
  5  4  2  0
  6  7  2  0
  6  2  1  0
 10  9  1  6
 10 11  1  0
 10 12  1  0
 13 12  1  1
 13 14  1  0
 14  6  1  0
 15 16  2  0
 15 13  1  0
 17 15  1  0
 18 19  1  6
 18 17  1  0
 20 19  1  0
 20 21  1  0
 21 22  2  0
 23 18  1  0
 24 23  1  0
 25 21  1  0
 26 23  2  0
M  END
$$$$
