DLE.pdb
     RDKit          3D

 26 25  0  0  1  0  0  0  0  0999 V2000
   20.9215  -16.5392  -14.9955 N   0  0  0  0  0  0  0  0  0  0  0  0
   20.9251  -15.5242  -16.0155 C   0  0  1  0  0  0  0  0  0  0  0  0
   19.5366  -14.9183  -16.0809 C   0  0  0  0  0  0  0  0  0  0  0  0
   18.5093  -15.9401  -16.3648 C   0  0  0  0  0  0  0  0  0  0  0  0
   18.5712  -16.7333  -17.3344 O   0  0  0  0  0  0  0  0  0  0  0  0
   21.8668  -14.4157  -15.7116 C   0  0  0  0  0  0  0  0  0  0  0  0
   21.7554  -13.8453  -14.5688 O   0  0  0  0  0  0  0  0  0  0  0  0
   17.4108  -16.0071  -15.4837 O   0  0  0  0  0  0  0  0  0  0  0  0
   27.5605  -13.0709  -16.6374 C   0  0  0  0  0  0  0  0  0  0  0  0
   26.2515  -12.8033  -15.8753 C   0  0  2  0  0  0  0  0  0  0  0  0
   26.3158  -13.6754  -14.6478 C   0  0  0  0  0  0  0  0  0  0  0  0
   25.1450  -13.1174  -16.7888 C   0  0  0  0  0  0  0  0  0  0  0  0
   23.7597  -12.9315  -16.3108 C   0  0  2  0  0  0  0  0  0  0  0  0
   22.8546  -13.9987  -16.6445 N   0  0  0  0  0  0  0  0  0  0  0  0
   23.1455  -11.6160  -16.7065 C   0  0  0  0  0  0  0  0  0  0  0  0
   22.5723  -11.5182  -17.8235 O   0  0  0  0  0  0  0  0  0  0  0  0
   23.1823  -10.4839  -15.8776 N   0  0  0  0  0  0  0  0  0  0  0  0
   22.5720   -9.1814  -16.2663 C   0  0  1  0  0  0  0  0  0  0  0  0
   22.5069   -8.2761  -15.1045 C   0  0  0  0  0  0  0  0  0  0  0  0
   21.9332   -6.9419  -15.4592 C   0  0  0  0  0  0  0  0  0  0  0  0
   21.8398   -6.0528  -14.2520 C   0  0  0  0  0  0  0  0  0  0  0  0
   22.3060   -6.3861  -13.1297 O   0  0  0  0  0  0  0  0  0  0  0  0
   23.3562   -8.6002  -17.3781 C   0  0  0  0  0  0  0  0  0  0  0  0
   22.6518   -7.9894  -18.4468 O   0  0  0  0  0  0  0  0  0  0  0  0
   21.2207   -4.8067  -14.3556 O   0  0  0  0  0  0  0  0  0  0  0  0
   24.5894   -8.5805  -17.4919 O   0  0  0  0  0  0  0  0  0  0  0  0
  2  1  1  1
  2  3  1  0
  4  8  1  0
  4  3  1  0
  5  4  2  0
  6  7  2  0
  6  2  1  0
 10  9  1  6
 10 11  1  0
 10 12  1  0
 13 12  1  6
 13 14  1  0
 14  6  1  0
 15 16  2  0
 15 13  1  0
 17 15  1  0
 18 19  1  1
 18 17  1  0
 20 19  1  0
 20 21  1  0
 21 22  2  0
 23 18  1  0
 24 23  1  0
 25 21  1  0
 26 23  2  0
M  END
$$$$
