DLE.pdb
     RDKit          3D

 26 25  0  0  1  0  0  0  0  0999 V2000
   20.0804  -13.0700  -17.8387 N   0  0  0  0  0  0  0  0  0  0  0  0
   20.6575  -11.8335  -18.2956 C   0  0  1  0  0  0  0  0  0  0  0  0
   19.5364  -10.8277  -18.4710 C   0  0  0  0  0  0  0  0  0  0  0  0
   18.5514  -11.2795  -19.4739 C   0  0  0  0  0  0  0  0  0  0  0  0
   17.3185  -11.3440  -19.2532 O   0  0  0  0  0  0  0  0  0  0  0  0
   21.6095  -11.2529  -17.3135 C   0  0  0  0  0  0  0  0  0  0  0  0
   21.2406  -11.2178  -16.0861 O   0  0  0  0  0  0  0  0  0  0  0  0
   19.0493  -11.6521  -20.7392 O   0  0  0  0  0  0  0  0  0  0  0  0
   27.5355  -10.4966  -16.3530 C   0  0  0  0  0  0  0  0  0  0  0  0
   26.1496   -9.9887  -15.9204 C   0  0  2  0  0  0  0  0  0  0  0  0
   26.0223  -10.3592  -14.4650 C   0  0  0  0  0  0  0  0  0  0  0  0
   25.1599  -10.6245  -16.8000 C   0  0  0  0  0  0  0  0  0  0  0  0
   23.7590  -10.1598  -16.7395 C   0  0  2  0  0  0  0  0  0  0  0  0
   22.8801  -10.7550  -17.7104 N   0  0  0  0  0  0  0  0  0  0  0  0
   23.6066   -8.6634  -16.7815 C   0  0  0  0  0  0  0  0  0  0  0  0
   23.8938   -8.0473  -17.8417 O   0  0  0  0  0  0  0  0  0  0  0  0
   23.1530   -7.9177  -15.6822 N   0  0  0  0  0  0  0  0  0  0  0  0
   22.8641   -6.4583  -15.7635 C   0  0  1  0  0  0  0  0  0  0  0  0
   21.8107   -6.1968  -16.7614 C   0  0  0  0  0  0  0  0  0  0  0  0
   20.4386   -6.3548  -16.1891 C   0  0  0  0  0  0  0  0  0  0  0  0
   19.3844   -6.0392  -17.2116 C   0  0  0  0  0  0  0  0  0  0  0  0
   19.6634   -5.7880  -18.4145 O   0  0  0  0  0  0  0  0  0  0  0  0
   22.4863   -5.9712  -14.4187 C   0  0  0  0  0  0  0  0  0  0  0  0
   22.4335   -4.5703  -14.2041 O   0  0  0  0  0  0  0  0  0  0  0  0
   18.0402   -6.0211  -16.8378 O   0  0  0  0  0  0  0  0  0  0  0  0
   22.2008   -6.6584  -13.4284 O   0  0  0  0  0  0  0  0  0  0  0  0
  2  1  1  1
  2  3  1  0
  4  8  1  0
  4  3  1  0
  5  4  2  0
  6  7  2  0
  6  2  1  0
 10  9  1  6
 10 11  1  0
 10 12  1  0
 13 12  1  6
 13 14  1  0
 14  6  1  0
 15 16  2  0
 15 13  1  0
 17 15  1  0
 18 19  1  6
 18 17  1  0
 20 19  1  0
 20 21  1  0
 21 22  2  0
 23 18  1  0
 24 23  1  0
 25 21  1  0
 26 23  2  0
M  END
$$$$
