DLE.pdb
     RDKit          3D

 26 25  0  0  1  0  0  0  0  0999 V2000
   20.9105  -13.0128  -16.0228 N   0  0  0  0  0  0  0  0  0  0  0  0
   20.9673  -11.7642  -16.7359 C   0  0  1  0  0  0  0  0  0  0  0  0
   19.5820  -11.1477  -16.7156 C   0  0  0  0  0  0  0  0  0  0  0  0
   18.6233  -11.9359  -17.5153 C   0  0  0  0  0  0  0  0  0  0  0  0
   18.9691  -12.7817  -18.3744 O   0  0  0  0  0  0  0  0  0  0  0  0
   21.8855  -10.7857  -16.0975 C   0  0  0  0  0  0  0  0  0  0  0  0
   21.6596  -10.4785  -14.8735 O   0  0  0  0  0  0  0  0  0  0  0  0
   17.2520  -11.7069  -17.2811 O   0  0  0  0  0  0  0  0  0  0  0  0
   25.9558  -10.8942  -14.6346 C   0  0  0  0  0  0  0  0  0  0  0  0
   25.9225  -10.7507  -16.1657 C   0  0  2  0  0  0  0  0  0  0  0  0
   27.3581  -10.8623  -16.6109 C   0  0  0  0  0  0  0  0  0  0  0  0
   25.2895   -9.4602  -16.4674 C   0  0  0  0  0  0  0  0  0  0  0  0
   23.8574   -9.2845  -16.1509 C   0  0  2  0  0  0  0  0  0  0  0  0
   22.9730  -10.2095  -16.8081 N   0  0  0  0  0  0  0  0  0  0  0  0
   23.3515   -7.8821  -16.3545 C   0  0  0  0  0  0  0  0  0  0  0  0
   23.5396   -7.3174  -17.4644 O   0  0  0  0  0  0  0  0  0  0  0  0
   22.6719   -7.1699  -15.3540 N   0  0  0  0  0  0  0  0  0  0  0  0
   22.1493   -5.7901  -15.5617 C   0  0  1  0  0  0  0  0  0  0  0  0
   20.7711   -5.8346  -16.0835 C   0  0  0  0  0  0  0  0  0  0  0  0
   19.8258   -6.4882  -15.1272 C   0  0  0  0  0  0  0  0  0  0  0  0
   18.4116   -6.4182  -15.6288 C   0  0  0  0  0  0  0  0  0  0  0  0
   18.0290   -5.5439  -16.4518 O   0  0  0  0  0  0  0  0  0  0  0  0
   22.2339   -5.0506  -14.2832 C   0  0  0  0  0  0  0  0  0  0  0  0
   21.9471   -3.6617  -14.2926 O   0  0  0  0  0  0  0  0  0  0  0  0
   17.4714   -7.3474  -15.1822 O   0  0  0  0  0  0  0  0  0  0  0  0
   22.5325   -5.5106  -13.1725 O   0  0  0  0  0  0  0  0  0  0  0  0
  2  1  1  1
  2  3  1  0
  4  8  1  0
  4  3  1  0
  5  4  2  0
  6  7  2  0
  6  2  1  0
 10  9  1  1
 10 11  1  0
 10 12  1  0
 13 12  1  6
 13 14  1  0
 14  6  1  0
 15 16  2  0
 15 13  1  0
 17 15  1  0
 18 19  1  1
 18 17  1  0
 20 19  1  0
 20 21  1  0
 21 22  2  0
 23 18  1  0
 24 23  1  0
 25 21  1  0
 26 23  2  0
M  END
$$$$
