DLE.pdb
     RDKit          3D

 26 25  0  0  1  0  0  0  0  0999 V2000
   19.4572  -12.6495  -17.7565 N   0  0  0  0  0  0  0  0  0  0  0  0
   18.8271  -11.8010  -16.7798 C   0  0  1  0  0  0  0  0  0  0  0  0
   18.0315  -12.6812  -15.8356 C   0  0  0  0  0  0  0  0  0  0  0  0
   16.9620  -13.4124  -16.5438 C   0  0  0  0  0  0  0  0  0  0  0  0
   16.4564  -13.0246  -17.6240 O   0  0  0  0  0  0  0  0  0  0  0  0
   19.8121  -11.0581  -15.9517 C   0  0  0  0  0  0  0  0  0  0  0  0
   19.3779  -10.4936  -14.8856 O   0  0  0  0  0  0  0  0  0  0  0  0
   16.5029  -14.6076  -15.9534 O   0  0  0  0  0  0  0  0  0  0  0  0
   23.6247  -12.2125  -13.7676 C   0  0  0  0  0  0  0  0  0  0  0  0
   23.8464  -12.0345  -15.2792 C   0  0  2  0  0  0  0  0  0  0  0  0
   25.2875  -12.4046  -15.5201 C   0  0  0  0  0  0  0  0  0  0  0  0
   23.5118  -10.6424  -15.6066 C   0  0  0  0  0  0  0  0  0  0  0  0
   22.1012  -10.2140  -15.5130 C   0  0  2  0  0  0  0  0  0  0  0  0
   21.1823  -10.9723  -16.3192 N   0  0  0  0  0  0  0  0  0  0  0  0
   21.8881   -8.7456  -15.7632 C   0  0  0  0  0  0  0  0  0  0  0  0
   21.8256   -8.3284  -16.9499 O   0  0  0  0  0  0  0  0  0  0  0  0
   21.7530   -7.8125  -14.7234 N   0  0  0  0  0  0  0  0  0  0  0  0
   21.5650   -6.3549  -14.9691 C   0  0  1  0  0  0  0  0  0  0  0  0
   20.1682   -6.0724  -15.3467 C   0  0  0  0  0  0  0  0  0  0  0  0
   19.9157   -4.6095  -15.5238 C   0  0  0  0  0  0  0  0  0  0  0  0
   18.5139   -4.3544  -15.9998 C   0  0  0  0  0  0  0  0  0  0  0  0
   17.6993   -5.2870  -16.2334 O   0  0  0  0  0  0  0  0  0  0  0  0
   21.9726   -5.6106  -13.7573 C   0  0  0  0  0  0  0  0  0  0  0  0
   22.2634   -4.2285  -13.8864 O   0  0  0  0  0  0  0  0  0  0  0  0
   18.0761   -3.0439  -16.1943 O   0  0  0  0  0  0  0  0  0  0  0  0
   22.0934   -6.0606  -12.6096 O   0  0  0  0  0  0  0  0  0  0  0  0
  2  1  1  6
  2  3  1  0
  4  8  1  0
  4  3  1  0
  5  4  2  0
  6  7  2  0
  6  2  1  0
 10  9  1  1
 10 11  1  0
 10 12  1  0
 13 12  1  6
 13 14  1  0
 14  6  1  0
 15 16  2  0
 15 13  1  0
 17 15  1  0
 18 19  1  1
 18 17  1  0
 20 19  1  0
 20 21  1  0
 21 22  2  0
 23 18  1  0
 24 23  1  0
 25 21  1  0
 26 23  2  0
M  END
$$$$
