DLE.pdb
     RDKit          3D

 26 25  0  0  1  0  0  0  0  0999 V2000
   19.6448  -18.2991  -14.7903 N   0  0  0  0  0  0  0  0  0  0  0  0
   20.3912  -19.4151  -15.3082 C   0  0  1  0  0  0  0  0  0  0  0  0
   21.5262  -18.8701  -16.1534 C   0  0  0  0  0  0  0  0  0  0  0  0
   21.0280  -18.0073  -17.2430 C   0  0  0  0  0  0  0  0  0  0  0  0
   20.0630  -18.3141  -17.9830 O   0  0  0  0  0  0  0  0  0  0  0  0
   21.0078  -20.2351  -14.2332 C   0  0  0  0  0  0  0  0  0  0  0  0
   21.7275  -21.2329  -14.5937 O   0  0  0  0  0  0  0  0  0  0  0  0
   21.6896  -16.7781  -17.4410 O   0  0  0  0  0  0  0  0  0  0  0  0
   22.0556  -20.0428   -8.1699 C   0  0  0  0  0  0  0  0  0  0  0  0
   22.2278  -20.8742   -9.4524 C   0  0  2  0  0  0  0  0  0  0  0  0
   23.7068  -21.1427   -9.5616 C   0  0  0  0  0  0  0  0  0  0  0  0
   21.6679  -20.0872  -10.5589 C   0  0  0  0  0  0  0  0  0  0  0  0
   21.4004  -20.7652  -11.8437 C   0  0  2  0  0  0  0  0  0  0  0  0
   20.8128  -19.9319  -12.8586 N   0  0  0  0  0  0  0  0  0  0  0  0
   20.5982  -22.0316  -11.7138 C   0  0  0  0  0  0  0  0  0  0  0  0
   21.1853  -23.1419  -11.8078 O   0  0  0  0  0  0  0  0  0  0  0  0
   19.2127  -22.0302  -11.4889 N   0  0  0  0  0  0  0  0  0  0  0  0
   18.5018  -23.1658  -10.8369 C   0  0  1  0  0  0  0  0  0  0  0  0
   18.9705  -23.3384   -9.4498 C   0  0  0  0  0  0  0  0  0  0  0  0
   18.2671  -24.4574   -8.7509 C   0  0  0  0  0  0  0  0  0  0  0  0
   18.7591  -24.6104   -7.3398 C   0  0  0  0  0  0  0  0  0  0  0  0
   19.6389  -23.8559   -6.8453 O   0  0  0  0  0  0  0  0  0  0  0  0
   17.0449  -22.9171  -10.9023 C   0  0  0  0  0  0  0  0  0  0  0  0
   16.1715  -24.0328  -10.8411 O   0  0  0  0  0  0  0  0  0  0  0  0
   18.2339  -25.6167   -6.5284 O   0  0  0  0  0  0  0  0  0  0  0  0
   16.4783  -21.8204  -11.0061 O   0  0  0  0  0  0  0  0  0  0  0  0
  2  1  1  1
  2  3  1  0
  4  8  1  0
  4  3  1  0
  5  4  2  0
  6  7  2  0
  6  2  1  0
 10  9  1  1
 10 11  1  0
 10 12  1  0
 13 12  1  1
 13 14  1  0
 14  6  1  0
 15 16  2  0
 15 13  1  0
 17 15  1  0
 18 19  1  1
 18 17  1  0
 20 19  1  0
 20 21  1  0
 21 22  2  0
 23 18  1  0
 24 23  1  0
 25 21  1  0
 26 23  2  0
M  END
$$$$
