DLE.pdb
     RDKit          3D

 26 25  0  0  1  0  0  0  0  0999 V2000
   19.6568  -12.9286  -16.5608 N   0  0  0  0  0  0  0  0  0  0  0  0
   19.6987  -11.5664  -17.0228 C   0  0  1  0  0  0  0  0  0  0  0  0
   18.3121  -10.9733  -16.8647 C   0  0  0  0  0  0  0  0  0  0  0  0
   17.3606  -11.5461  -17.8377 C   0  0  0  0  0  0  0  0  0  0  0  0
   17.6972  -12.3340  -18.7536 O   0  0  0  0  0  0  0  0  0  0  0  0
   20.6237  -10.7226  -16.2227 C   0  0  0  0  0  0  0  0  0  0  0  0
   20.2103  -10.3176  -15.0787 O   0  0  0  0  0  0  0  0  0  0  0  0
   16.0076  -11.1716  -17.7081 O   0  0  0  0  0  0  0  0  0  0  0  0
   24.4680  -11.1637  -13.9782 C   0  0  0  0  0  0  0  0  0  0  0  0
   24.6610  -11.1517  -15.5042 C   0  0  2  0  0  0  0  0  0  0  0  0
   26.1256  -11.4296  -15.7261 C   0  0  0  0  0  0  0  0  0  0  0  0
   24.2091   -9.8410  -15.9890 C   0  0  0  0  0  0  0  0  0  0  0  0
   22.7692   -9.5190  -15.9171 C   0  0  2  0  0  0  0  0  0  0  0  0
   21.9167  -10.3744  -16.6989 N   0  0  0  0  0  0  0  0  0  0  0  0
   22.4460   -8.0814  -16.2218 C   0  0  0  0  0  0  0  0  0  0  0  0
   22.4757   -7.6862  -17.4172 O   0  0  0  0  0  0  0  0  0  0  0  0
   22.1083   -7.1537  -15.2240 N   0  0  0  0  0  0  0  0  0  0  0  0
   21.7981   -5.7273  -15.5226 C   0  0  1  0  0  0  0  0  0  0  0  0
   20.4340   -5.6002  -16.0672 C   0  0  0  0  0  0  0  0  0  0  0  0
   19.3886   -5.9697  -15.0643 C   0  0  0  0  0  0  0  0  0  0  0  0
   18.0079   -5.7404  -15.6099 C   0  0  0  0  0  0  0  0  0  0  0  0
   17.8009   -5.1140  -16.6835 O   0  0  0  0  0  0  0  0  0  0  0  0
   21.9782   -4.9316  -14.2885 C   0  0  0  0  0  0  0  0  0  0  0  0
   22.2316   -5.6233  -13.0766 O   0  0  0  0  0  0  0  0  0  0  0  0
   16.8997   -6.2333  -14.9199 O   0  0  0  0  0  0  0  0  0  0  0  0
   21.9345   -3.6983  -14.1819 O   0  0  0  0  0  0  0  0  0  0  0  0
  2  1  1  1
  2  3  1  0
  4  8  1  0
  4  3  1  0
  5  4  2  0
  6  7  2  0
  6  2  1  0
 10  9  1  1
 10 11  1  0
 10 12  1  0
 13 12  1  6
 13 14  1  0
 14  6  1  0
 15 16  2  0
 15 13  1  0
 17 15  1  0
 18 19  1  1
 18 17  1  0
 20 19  1  0
 20 21  1  0
 21 22  2  0
 23 18  1  0
 24 23  1  0
 25 21  1  0
 26 23  2  0
M  END
$$$$
