GGD.pdb
     RDKit          3D

 17 16  0  0  1  0  0  0  0  0999 V2000
   28.4948  -20.3033  -18.1721 N   0  0  0  0  0  0  0  0  0  0  0  0
   27.6531  -19.2908  -17.6064 C   0  0  0  0  0  0  0  0  0  0  0  0
   27.4537  -19.5100  -16.1519 C   0  0  0  0  0  0  0  0  0  0  0  0
   26.7581  -18.6589  -15.5363 O   0  0  0  0  0  0  0  0  0  0  0  0
   28.0128  -20.6208  -15.4688 N   0  0  0  0  0  0  0  0  0  0  0  0
   27.6894  -20.8180  -14.0837 C   0  0  0  0  0  0  0  0  0  0  0  0
   26.3039  -21.3642  -13.9223 C   0  0  0  0  0  0  0  0  0  0  0  0
   26.0640  -22.5672  -14.1809 O   0  0  0  0  0  0  0  0  0  0  0  0
   25.2273  -20.5573  -13.4785 N   0  0  0  0  0  0  0  0  0  0  0  0
   23.9269  -21.0978  -13.1425 C   0  0  1  0  0  0  0  0  0  0  0  0
   23.4324  -20.6003  -11.8108 C   0  0  0  0  0  0  0  0  0  0  0  0
   22.0929  -21.0645  -11.4506 C   0  0  0  0  0  0  0  0  0  0  0  0
   21.9246  -21.7785  -10.4371 O   0  0  0  0  0  0  0  0  0  0  0  0
   23.0051  -20.8486  -14.2458 C   0  0  0  0  0  0  0  0  0  0  0  0
   22.9112  -19.7522  -14.8643 O   0  0  0  0  0  0  0  0  0  0  0  0
   20.9733  -20.7438  -12.1959 O   0  0  0  0  0  0  0  0  0  0  0  0
   22.1645  -21.8653  -14.6638 O   0  0  0  0  0  0  0  0  0  0  0  0
  1  2  1  0
  3  2  1  0
  3  4  2  0
  5  6  1  0
  5  3  1  0
  7  8  2  0
  7  6  1  0
  9  7  1  0
 10  9  1  0
 10 14  1  0
 10 11  1  1
 12 16  1  0
 12 11  1  0
 13 12  2  0
 14 17  1  0
 15 14  2  0
M  END
$$$$
