GGD.pdb
     RDKit          3D

 17 16  0  0  1  0  0  0  0  0999 V2000
   14.4786  -14.2630  -15.4273 N   0  0  0  0  0  0  0  0  0  0  0  0
   14.8478  -13.2754  -16.3979 C   0  0  0  0  0  0  0  0  0  0  0  0
   15.0869  -11.9576  -15.7581 C   0  0  0  0  0  0  0  0  0  0  0  0
   14.1365  -11.4643  -15.0943 O   0  0  0  0  0  0  0  0  0  0  0  0
   16.3221  -11.2697  -15.8772 N   0  0  0  0  0  0  0  0  0  0  0  0
   16.4893  -10.0197  -15.1906 C   0  0  0  0  0  0  0  0  0  0  0  0
   17.8714   -9.4750  -15.3839 C   0  0  0  0  0  0  0  0  0  0  0  0
   18.7212  -10.1235  -16.0388 O   0  0  0  0  0  0  0  0  0  0  0  0
   18.2671   -8.2266  -14.8437 N   0  0  0  0  0  0  0  0  0  0  0  0
   19.6008   -7.6872  -15.0068 C   0  0  1  0  0  0  0  0  0  0  0  0
   19.5847   -6.2078  -15.2834 C   0  0  0  0  0  0  0  0  0  0  0  0
   18.9668   -5.8365  -16.5561 C   0  0  0  0  0  0  0  0  0  0  0  0
   19.2355   -6.4757  -17.5974 O   0  0  0  0  0  0  0  0  0  0  0  0
   20.4140   -8.0644  -13.8555 C   0  0  0  0  0  0  0  0  0  0  0  0
   19.9512   -8.5151  -12.7711 O   0  0  0  0  0  0  0  0  0  0  0  0
   18.0758   -4.7850  -16.6670 O   0  0  0  0  0  0  0  0  0  0  0  0
   21.7893   -7.9293  -13.9292 O   0  0  0  0  0  0  0  0  0  0  0  0
  1  2  1  0
  3  2  1  0
  3  4  2  0
  5  6  1  0
  5  3  1  0
  7  8  2  0
  7  6  1  0
  9  7  1  0
 10  9  1  0
 10 14  1  0
 10 11  1  1
 12 16  1  0
 12 11  1  0
 13 12  2  0
 14 17  1  0
 15 14  2  0
M  END
$$$$
