GGD.pdb
     RDKit          3D

 17 16  0  0  1  0  0  0  0  0999 V2000
   27.5261  -22.2800  -16.2462 N   0  0  0  0  0  0  0  0  0  0  0  0
   27.1870  -21.0627  -15.5702 C   0  0  0  0  0  0  0  0  0  0  0  0
   26.5564  -21.3373  -14.2548 C   0  0  0  0  0  0  0  0  0  0  0  0
   27.3020  -21.7961  -13.3489 O   0  0  0  0  0  0  0  0  0  0  0  0
   25.1791  -21.1004  -14.0100 N   0  0  0  0  0  0  0  0  0  0  0  0
   24.7039  -21.1080  -12.6550 C   0  0  0  0  0  0  0  0  0  0  0  0
   23.2651  -20.6972  -12.5822 C   0  0  0  0  0  0  0  0  0  0  0  0
   22.6619  -20.6976  -11.4831 O   0  0  0  0  0  0  0  0  0  0  0  0
   22.5404  -20.2988  -13.7324 N   0  0  0  0  0  0  0  0  0  0  0  0
   21.1500  -19.8977  -13.6851 C   0  0  1  0  0  0  0  0  0  0  0  0
   20.9046  -18.6122  -14.4285 C   0  0  0  0  0  0  0  0  0  0  0  0
   19.5017  -18.2016  -14.4810 C   0  0  0  0  0  0  0  0  0  0  0  0
   18.7692  -18.3305  -13.4751 O   0  0  0  0  0  0  0  0  0  0  0  0
   20.3159  -21.0079  -14.1331 C   0  0  0  0  0  0  0  0  0  0  0  0
   19.0557  -21.0277  -14.0639 O   0  0  0  0  0  0  0  0  0  0  0  0
   18.9304  -17.6632  -15.6192 O   0  0  0  0  0  0  0  0  0  0  0  0
   20.9205  -22.1286  -14.6748 O   0  0  0  0  0  0  0  0  0  0  0  0
  1  2  1  0
  3  2  1  0
  3  4  2  0
  5  6  1  0
  5  3  1  0
  7  8  2  0
  7  6  1  0
  9  7  1  0
 10  9  1  0
 10 14  1  0
 10 11  1  6
 12 16  1  0
 12 11  1  0
 13 12  2  0
 14 17  1  0
 15 14  2  0
M  END
$$$$
