GGD.pdb
     RDKit          3D

 17 16  0  0  1  0  0  0  0  0999 V2000
   18.2354  -11.2779  -18.4834 N   0  0  0  0  0  0  0  0  0  0  0  0
   19.4936  -11.1466  -17.8101 C   0  0  0  0  0  0  0  0  0  0  0  0
   19.3021  -10.8695  -16.3645 C   0  0  0  0  0  0  0  0  0  0  0  0
   19.0940  -11.8611  -15.6157 O   0  0  0  0  0  0  0  0  0  0  0  0
   19.3477   -9.5553  -15.8317 N   0  0  0  0  0  0  0  0  0  0  0  0
   19.1823   -9.3740  -14.4169 C   0  0  0  0  0  0  0  0  0  0  0  0
   19.3225   -7.9324  -14.0345 C   0  0  0  0  0  0  0  0  0  0  0  0
   19.1667   -7.5760  -12.8427 O   0  0  0  0  0  0  0  0  0  0  0  0
   19.6313   -6.9309  -14.9876 N   0  0  0  0  0  0  0  0  0  0  0  0
   19.8200   -5.5399  -14.6327 C   0  0  1  0  0  0  0  0  0  0  0  0
   21.2100   -5.0569  -14.9494 C   0  0  0  0  0  0  0  0  0  0  0  0
   22.2663   -5.6959  -14.1649 C   0  0  0  0  0  0  0  0  0  0  0  0
   22.9698   -6.5978  -14.6716 O   0  0  0  0  0  0  0  0  0  0  0  0
   18.7632   -4.7417  -15.2451 C   0  0  0  0  0  0  0  0  0  0  0  0
   18.0230   -5.1391  -16.1872 O   0  0  0  0  0  0  0  0  0  0  0  0
   22.5323   -5.3418  -12.8551 O   0  0  0  0  0  0  0  0  0  0  0  0
   18.5345   -3.4580  -14.7817 O   0  0  0  0  0  0  0  0  0  0  0  0
  1  2  1  0
  3  2  1  0
  3  4  2  0
  5  6  1  0
  5  3  1  0
  7  8  2  0
  7  6  1  0
  9  7  1  0
 10  9  1  0
 10 14  1  0
 10 11  1  6
 12 16  1  0
 12 11  1  0
 13 12  2  0
 14 17  1  0
 15 14  2  0
M  END
$$$$
