GGD.pdb
     RDKit          3D

 17 16  0  0  1  0  0  0  0  0999 V2000
   16.1799  -10.5157  -17.3995 N   0  0  0  0  0  0  0  0  0  0  0  0
   16.0483   -9.1377  -17.7705 C   0  0  0  0  0  0  0  0  0  0  0  0
   15.7827   -8.2858  -16.5843 C   0  0  0  0  0  0  0  0  0  0  0  0
   14.6298   -8.3515  -16.0808 O   0  0  0  0  0  0  0  0  0  0  0  0
   16.7691   -7.4304  -16.0289 N   0  0  0  0  0  0  0  0  0  0  0  0
   16.4430   -6.6622  -14.8604 C   0  0  0  0  0  0  0  0  0  0  0  0
   17.6056   -5.8277  -14.4176 C   0  0  0  0  0  0  0  0  0  0  0  0
   17.4703   -4.9959  -13.4894 O   0  0  0  0  0  0  0  0  0  0  0  0
   18.8829   -5.9427  -15.0195 N   0  0  0  0  0  0  0  0  0  0  0  0
   20.0121   -5.1252  -14.6285 C   0  0  1  0  0  0  0  0  0  0  0  0
   21.1101   -5.9386  -13.9974 C   0  0  0  0  0  0  0  0  0  0  0  0
   22.3263   -5.1837  -13.6967 C   0  0  0  0  0  0  0  0  0  0  0  0
   22.3701   -4.4306  -12.6988 O   0  0  0  0  0  0  0  0  0  0  0  0
   20.4477   -4.3316  -15.7728 C   0  0  0  0  0  0  0  0  0  0  0  0
   20.0400   -4.4999  -16.9555 O   0  0  0  0  0  0  0  0  0  0  0  0
   23.4606   -5.2643  -14.4833 O   0  0  0  0  0  0  0  0  0  0  0  0
   21.3700   -3.3185  -15.5778 O   0  0  0  0  0  0  0  0  0  0  0  0
  1  2  1  0
  3  2  1  0
  3  4  2  0
  5  6  1  0
  5  3  1  0
  7  8  2  0
  7  6  1  0
  9  7  1  0
 10  9  1  0
 10 14  1  0
 10 11  1  6
 12 16  1  0
 12 11  1  0
 13 12  2  0
 14 17  1  0
 15 14  2  0
M  END
$$$$
