GGD.pdb
     RDKit          3D

 17 16  0  0  1  0  0  0  0  0999 V2000
   25.0161  -13.3370  -16.0349 N   0  0  0  0  0  0  0  0  0  0  0  0
   25.9510  -14.0054  -16.8910 C   0  0  0  0  0  0  0  0  0  0  0  0
   26.2133  -15.3891  -16.4223 C   0  0  0  0  0  0  0  0  0  0  0  0
   26.3033  -16.2835  -17.3049 O   0  0  0  0  0  0  0  0  0  0  0  0
   26.3588  -15.7093  -15.0477 N   0  0  0  0  0  0  0  0  0  0  0  0
   26.7058  -17.0537  -14.6814 C   0  0  0  0  0  0  0  0  0  0  0  0
   25.5160  -17.9609  -14.7564 C   0  0  0  0  0  0  0  0  0  0  0  0
   25.6213  -19.1696  -14.4409 O   0  0  0  0  0  0  0  0  0  0  0  0
   24.2459  -17.4975  -15.1795 N   0  0  0  0  0  0  0  0  0  0  0  0
   23.1144  -18.3787  -15.3782 C   0  0  1  0  0  0  0  0  0  0  0  0
   21.9557  -18.0247  -14.4851 C   0  0  0  0  0  0  0  0  0  0  0  0
   20.7598  -18.8409  -14.6927 C   0  0  0  0  0  0  0  0  0  0  0  0
   20.8582  -20.0810  -14.8250 O   0  0  0  0  0  0  0  0  0  0  0  0
   22.7775  -18.4130  -16.7975 C   0  0  0  0  0  0  0  0  0  0  0  0
   21.8696  -19.1325  -17.2989 O   0  0  0  0  0  0  0  0  0  0  0  0
   19.4915  -18.2935  -14.7515 O   0  0  0  0  0  0  0  0  0  0  0  0
   23.4851  -17.6126  -17.6770 O   0  0  0  0  0  0  0  0  0  0  0  0
  1  2  1  0
  3  2  1  0
  3  4  2  0
  5  6  1  0
  5  3  1  0
  7  8  2  0
  7  6  1  0
  9  7  1  0
 10  9  1  0
 10 14  1  0
 10 11  1  1
 12 16  1  0
 12 11  1  0
 13 12  2  0
 14 17  1  0
 15 14  2  0
M  END
$$$$
