GGD.pdb
     RDKit          3D

 17 16  0  0  1  0  0  0  0  0999 V2000
   16.2135  -14.1602  -15.9408 N   0  0  0  0  0  0  0  0  0  0  0  0
   17.3060  -13.5713  -15.2243 C   0  0  0  0  0  0  0  0  0  0  0  0
   17.7806  -12.3336  -15.8922 C   0  0  0  0  0  0  0  0  0  0  0  0
   17.7275  -12.3076  -17.1507 O   0  0  0  0  0  0  0  0  0  0  0  0
   18.2747  -11.2206  -15.1640 N   0  0  0  0  0  0  0  0  0  0  0  0
   18.6594  -10.0376  -15.8812 C   0  0  0  0  0  0  0  0  0  0  0  0
   19.2005   -8.9928  -14.9540 C   0  0  0  0  0  0  0  0  0  0  0  0
   19.0562   -9.1110  -13.7143 O   0  0  0  0  0  0  0  0  0  0  0  0
   19.8853   -7.8486  -15.4324 N   0  0  0  0  0  0  0  0  0  0  0  0
   20.4750   -6.8611  -14.5529 C   0  0  1  0  0  0  0  0  0  0  0  0
   21.7466   -6.2861  -15.1168 C   0  0  0  0  0  0  0  0  0  0  0  0
   22.4003   -5.3018  -14.2547 C   0  0  0  0  0  0  0  0  0  0  0  0
   22.2094   -5.3210  -13.0185 O   0  0  0  0  0  0  0  0  0  0  0  0
   19.4703   -5.8574  -14.2178 C   0  0  0  0  0  0  0  0  0  0  0  0
   18.6997   -5.3109  -15.0551 O   0  0  0  0  0  0  0  0  0  0  0  0
   23.2419   -4.3246  -14.7534 O   0  0  0  0  0  0  0  0  0  0  0  0
   19.3304   -5.4583  -12.9002 O   0  0  0  0  0  0  0  0  0  0  0  0
  1  2  1  0
  3  2  1  0
  3  4  2  0
  5  6  1  0
  5  3  1  0
  7  8  2  0
  7  6  1  0
  9  7  1  0
 10  9  1  0
 10 14  1  0
 10 11  1  6
 12 16  1  0
 12 11  1  0
 13 12  2  0
 14 17  1  0
 15 14  2  0
M  END
$$$$
