GGD.pdb
     RDKit          3D

 17 16  0  0  1  0  0  0  0  0999 V2000
   16.9094  -14.4952  -15.2896 N   0  0  0  0  0  0  0  0  0  0  0  0
   16.7722  -13.0821  -15.0941 C   0  0  0  0  0  0  0  0  0  0  0  0
   17.9809  -12.3564  -15.5587 C   0  0  0  0  0  0  0  0  0  0  0  0
   18.6323  -12.8778  -16.5025 O   0  0  0  0  0  0  0  0  0  0  0  0
   18.3992  -11.1309  -14.9789 N   0  0  0  0  0  0  0  0  0  0  0  0
   19.5565  -10.4699  -15.5131 C   0  0  0  0  0  0  0  0  0  0  0  0
   19.7860   -9.1504  -14.8420 C   0  0  0  0  0  0  0  0  0  0  0  0
   19.8642   -9.0811  -13.5927 O   0  0  0  0  0  0  0  0  0  0  0  0
   19.9216   -7.9483  -15.5792 N   0  0  0  0  0  0  0  0  0  0  0  0
   20.2645   -6.6835  -14.9635 C   0  0  1  0  0  0  0  0  0  0  0  0
   21.5287   -6.7719  -14.1515 C   0  0  0  0  0  0  0  0  0  0  0  0
   21.9330   -5.5151  -13.5219 C   0  0  0  0  0  0  0  0  0  0  0  0
   21.1721   -4.9435  -12.7100 O   0  0  0  0  0  0  0  0  0  0  0  0
   20.2913   -5.6442  -15.9873 C   0  0  0  0  0  0  0  0  0  0  0  0
   20.1345   -4.4126  -15.7590 O   0  0  0  0  0  0  0  0  0  0  0  0
   23.1484   -4.9118  -13.7878 O   0  0  0  0  0  0  0  0  0  0  0  0
   20.5009   -6.0041  -17.3069 O   0  0  0  0  0  0  0  0  0  0  0  0
  1  2  1  0
  3  2  1  0
  3  4  2  0
  5  6  1  0
  5  3  1  0
  7  8  2  0
  7  6  1  0
  9  7  1  0
 10  9  1  0
 10 14  1  0
 10 11  1  6
 12 16  1  0
 12 11  1  0
 13 12  2  0
 14 17  1  0
 15 14  2  0
M  END
$$$$
