GGD.pdb
     RDKit          3D

 17 16  0  0  1  0  0  0  0  0999 V2000
   17.0453  -12.4468  -16.3268 N   0  0  0  0  0  0  0  0  0  0  0  0
   17.8784  -12.5128  -17.4910 C   0  0  0  0  0  0  0  0  0  0  0  0
   18.5556  -11.2157  -17.7402 C   0  0  0  0  0  0  0  0  0  0  0  0
   17.9116  -10.3515  -18.3925 O   0  0  0  0  0  0  0  0  0  0  0  0
   19.8675  -10.9432  -17.2735 N   0  0  0  0  0  0  0  0  0  0  0  0
   20.4488   -9.6592  -17.5479 C   0  0  0  0  0  0  0  0  0  0  0  0
   20.3296   -8.7458  -16.3666 C   0  0  0  0  0  0  0  0  0  0  0  0
   19.5063   -8.9951  -15.4546 O   0  0  0  0  0  0  0  0  0  0  0  0
   21.1286   -7.5834  -16.2345 N   0  0  0  0  0  0  0  0  0  0  0  0
   21.0830   -6.7271  -15.0679 C   0  0  1  0  0  0  0  0  0  0  0  0
   22.4351   -6.1609  -14.7263 C   0  0  0  0  0  0  0  0  0  0  0  0
   22.4539   -5.3173  -13.5315 C   0  0  0  0  0  0  0  0  0  0  0  0
   22.6981   -4.0941  -13.6274 O   0  0  0  0  0  0  0  0  0  0  0  0
   20.0491   -5.7149  -15.2568 C   0  0  0  0  0  0  0  0  0  0  0  0
   19.7648   -5.1828  -16.3656 O   0  0  0  0  0  0  0  0  0  0  0  0
   22.2082   -5.8199  -12.2670 O   0  0  0  0  0  0  0  0  0  0  0  0
   19.3145   -5.2905  -14.1636 O   0  0  0  0  0  0  0  0  0  0  0  0
  1  2  1  0
  3  2  1  0
  3  4  2  0
  5  6  1  0
  5  3  1  0
  7  8  2  0
  7  6  1  0
  9  7  1  0
 10  9  1  0
 10 14  1  0
 10 11  1  6
 12 16  1  0
 12 11  1  0
 13 12  2  0
 14 17  1  0
 15 14  2  0
M  END
$$$$
