VSH.pdb
     RDKit          3D

 24 24  0  0  1  0  0  0  0  0999 V2000
   12.2840  -19.4722   17.4932 C   0  0  0  0  0  0  0  0  0  0  0  0
   10.9402  -19.7626   18.1321 C   0  0  2  0  0  0  0  0  0  0  0  0
   10.2507  -20.8291   17.3452 C   0  0  0  0  0  0  0  0  0  0  0  0
   10.1758  -18.4659   18.1861 C   0  0  2  0  0  0  0  0  0  0  0  0
   10.1803  -17.8745   16.8832 N   0  0  0  0  0  0  0  0  0  0  0  0
   10.7026  -17.5519   19.2316 C   0  0  0  0  0  0  0  0  0  0  0  0
   11.7641  -16.9348   19.0555 O   0  0  0  0  0  0  0  0  0  0  0  0
    8.9002  -17.3693   23.1202 O   0  0  0  0  0  0  0  0  0  0  0  0
    9.3975  -16.2093   22.5384 C   0  0  0  0  0  0  0  0  0  0  0  0
   10.4851  -16.5256   21.5351 C   0  0  2  0  0  0  0  0  0  0  0  0
   10.0144  -17.3543   20.4597 N   0  0  0  0  0  0  0  0  0  0  0  0
   11.6397  -17.1468   22.1916 C   0  0  0  0  0  0  0  0  0  0  0  0
   12.0830  -18.2388   21.7494 O   0  0  0  0  0  0  0  0  0  0  0  0
   12.2817  -16.5502   23.3231 N   0  0  0  0  0  0  0  0  0  0  0  0
   13.6874  -16.7836   23.5813 C   0  0  1  0  0  0  0  0  0  0  0  0
   14.5245  -16.4536   22.3598 C   0  0  0  0  0  0  0  0  0  0  0  0
   15.9714  -16.7060   22.6272 C   0  0  0  0  0  0  0  0  0  0  0  0
   16.5076  -17.2034   23.7960 C   0  0  0  0  0  0  0  0  0  0  0  0
   17.8401  -17.2914   23.6596 N   0  0  0  0  0  0  0  0  0  0  0  0
   18.1676  -16.8607   22.4276 C   0  0  0  0  0  0  0  0  0  0  0  0
   17.0124  -16.5083   21.8145 N   0  0  0  0  0  0  0  0  0  0  0  0
   14.1226  -16.0296   24.7648 C   0  0  0  0  0  0  0  0  0  0  0  0
   13.8418  -14.8234   24.9305 O   0  0  0  0  0  0  0  0  0  0  0  0
   14.8712  -16.6738   25.7350 O   0  0  0  0  0  0  0  0  0  0  0  0
  2  1  1  6
  2  4  1  0
  3  2  1  0
  4  6  1  0
  4  5  1  6
  6  7  2  0
  9  8  1  0
 10  9  1  1
 10 12  1  0
 11 10  1  0
 11  6  1  0
 12 13  2  0
 14 12  1  0
 14 15  1  0
 15 22  1  0
 15 16  1  6
 17 21  1  0
 17 16  1  0
 18 17  2  0
 19 18  1  0
 19 20  1  0
 20 21  2  0
 22 23  2  0
 22 24  1  0
M  END
$$$$
