VSH.pdb
     RDKit          3D

 24 24  0  0  1  0  0  0  0  0999 V2000
   11.3684  -17.4687   13.6629 C   0  0  0  0  0  0  0  0  0  0  0  0
   11.6523  -17.0911   15.1034 C   0  0  2  0  0  0  0  0  0  0  0  0
   12.2219  -18.2772   15.8112 C   0  0  0  0  0  0  0  0  0  0  0  0
   10.3628  -16.5950   15.7032 C   0  0  2  0  0  0  0  0  0  0  0  0
    9.7782  -15.6402   14.8121 N   0  0  0  0  0  0  0  0  0  0  0  0
   10.5570  -16.0555   17.0733 C   0  0  0  0  0  0  0  0  0  0  0  0
   11.2828  -15.0684   17.2672 O   0  0  0  0  0  0  0  0  0  0  0  0
    9.2244  -18.2691   20.4234 O   0  0  0  0  0  0  0  0  0  0  0  0
    9.1405  -16.8847   20.5117 C   0  0  0  0  0  0  0  0  0  0  0  0
   10.1088  -16.2180   19.5591 C   0  0  2  0  0  0  0  0  0  0  0  0
    9.9234  -16.6466   18.2002 N   0  0  0  0  0  0  0  0  0  0  0  0
   11.4956  -16.4399   19.9804 C   0  0  0  0  0  0  0  0  0  0  0  0
   12.3614  -16.7295   19.1138 O   0  0  0  0  0  0  0  0  0  0  0  0
   11.8988  -16.3378   21.3499 N   0  0  0  0  0  0  0  0  0  0  0  0
   13.2144  -15.8416   21.6962 C   0  0  1  0  0  0  0  0  0  0  0  0
   13.4675  -14.4878   21.0598 C   0  0  0  0  0  0  0  0  0  0  0  0
   14.2480  -14.6359   19.7958 C   0  0  0  0  0  0  0  0  0  0  0  0
   14.6833  -15.8217   19.2432 C   0  0  0  0  0  0  0  0  0  0  0  0
   15.3498  -15.5536   18.1093 N   0  0  0  0  0  0  0  0  0  0  0  0
   15.3499  -14.2208   17.9249 C   0  0  0  0  0  0  0  0  0  0  0  0
   14.6722  -13.6799   18.9655 N   0  0  0  0  0  0  0  0  0  0  0  0
   13.3786  -15.8012   23.1557 C   0  0  0  0  0  0  0  0  0  0  0  0
   14.4828  -15.5859   23.6993 O   0  0  0  0  0  0  0  0  0  0  0  0
   12.2730  -16.0085   23.9628 O   0  0  0  0  0  0  0  0  0  0  0  0
  2  1  1  6
  2  4  1  0
  3  2  1  0
  4  6  1  0
  4  5  1  6
  6  7  2  0
  9  8  1  0
 10  9  1  1
 10 12  1  0
 11 10  1  0
 11  6  1  0
 12 13  2  0
 14 12  1  0
 14 15  1  0
 15 22  1  0
 15 16  1  1
 17 21  1  0
 17 16  1  0
 18 17  2  0
 19 18  1  0
 19 20  1  0
 20 21  2  0
 22 23  2  0
 22 24  1  0
M  END
$$$$
