VSH.pdb
     RDKit          3D

 24 24  0  0  1  0  0  0  0  0999 V2000
    8.8725  -19.1022   16.3521 C   0  0  0  0  0  0  0  0  0  0  0  0
    9.2253  -18.6039   17.7396 C   0  0  2  0  0  0  0  0  0  0  0  0
    8.5063  -19.4369   18.7502 C   0  0  0  0  0  0  0  0  0  0  0  0
    8.8661  -17.1424   17.7999 C   0  0  2  0  0  0  0  0  0  0  0  0
    9.3710  -16.4958   16.6275 N   0  0  0  0  0  0  0  0  0  0  0  0
    9.3391  -16.5038   19.0547 C   0  0  0  0  0  0  0  0  0  0  0  0
   10.5522  -16.3807   19.2832 O   0  0  0  0  0  0  0  0  0  0  0  0
    6.6322  -15.7538   22.2363 O   0  0  0  0  0  0  0  0  0  0  0  0
    7.6345  -14.8167   22.0157 C   0  0  0  0  0  0  0  0  0  0  0  0
    8.8074  -15.4344   21.2862 C   0  0  2  0  0  0  0  0  0  0  0  0
    8.4261  -16.0159   20.0288 N   0  0  0  0  0  0  0  0  0  0  0  0
    9.4822  -16.4291   22.1259 C   0  0  0  0  0  0  0  0  0  0  0  0
    9.7701  -17.5522   21.6356 O   0  0  0  0  0  0  0  0  0  0  0  0
    9.8257  -16.1643   23.4898 N   0  0  0  0  0  0  0  0  0  0  0  0
   11.0445  -16.6990   24.0605 C   0  0  1  0  0  0  0  0  0  0  0  0
   12.2417  -16.3660   23.1901 C   0  0  0  0  0  0  0  0  0  0  0  0
   12.6004  -17.5245   22.3195 C   0  0  0  0  0  0  0  0  0  0  0  0
   11.9146  -18.7172   22.2299 C   0  0  0  0  0  0  0  0  0  0  0  0
   12.5378  -19.5110   21.3447 N   0  0  0  0  0  0  0  0  0  0  0  0
   13.6081  -18.8509   20.8662 C   0  0  0  0  0  0  0  0  0  0  0  0
   13.6277  -17.6407   21.4742 N   0  0  0  0  0  0  0  0  0  0  0  0
   11.2177  -16.2199   25.4386 C   0  0  0  0  0  0  0  0  0  0  0  0
   10.4952  -15.3285   25.9331 O   0  0  0  0  0  0  0  0  0  0  0  0
   12.2161  -16.7727   26.2224 O   0  0  0  0  0  0  0  0  0  0  0  0
  2  1  1  6
  2  4  1  0
  3  2  1  0
  4  6  1  0
  4  5  1  6
  6  7  2  0
  9  8  1  0
 10  9  1  1
 10 12  1  0
 11 10  1  0
 11  6  1  0
 12 13  2  0
 14 12  1  0
 14 15  1  0
 15 22  1  0
 15 16  1  6
 17 21  1  0
 17 16  1  0
 18 17  2  0
 19 18  1  0
 19 20  1  0
 20 21  2  0
 22 23  2  0
 22 24  1  0
M  END
$$$$
