HVK.pdb
     RDKit          3D

 27 27  0  0  1  0  0  0  0  0999 V2000
   10.0641  -13.7050   20.6914 N   0  0  0  0  0  0  0  0  0  0  0  0
    8.8022  -13.7571   21.4059 C   0  0  1  0  0  0  0  0  0  0  0  0
    7.9993  -14.8913   20.8029 C   0  0  0  0  0  0  0  0  0  0  0  0
    7.6593  -14.5926   19.3877 C   0  0  0  0  0  0  0  0  0  0  0  0
    7.9989  -13.4307   18.7259 C   0  0  0  0  0  0  0  0  0  0  0  0
    7.5509  -13.4613   17.4640 N   0  0  0  0  0  0  0  0  0  0  0  0
    6.9263  -14.6484   17.3309 C   0  0  0  0  0  0  0  0  0  0  0  0
    6.9938  -15.3343   18.5026 N   0  0  0  0  0  0  0  0  0  0  0  0
    9.0176  -14.0298   22.8544 C   0  0  0  0  0  0  0  0  0  0  0  0
    9.9801  -14.7324   23.2400 O   0  0  0  0  0  0  0  0  0  0  0  0
    6.0379  -13.1291   25.9264 C   0  0  0  0  0  0  0  0  0  0  0  0
    7.5135  -12.8165   26.1350 C   0  0  1  0  0  0  0  0  0  0  0  0
    7.8748  -12.7371   27.5616 C   0  0  0  0  0  0  0  0  0  0  0  0
    8.3018  -13.7011   25.2488 C   0  0  2  0  0  0  0  0  0  0  0  0
    8.1306  -13.4951   23.8306 N   0  0  0  0  0  0  0  0  0  0  0  0
    8.3529  -15.1282   25.6535 C   0  0  0  0  0  0  0  0  0  0  0  0
    7.3533  -15.8330   25.3628 O   0  0  0  0  0  0  0  0  0  0  0  0
    9.4202  -15.7577   26.3357 N   0  0  0  0  0  0  0  0  0  0  0  0
    9.3263  -17.1718   26.7531 C   0  0  1  0  0  0  0  0  0  0  0  0
   10.3190  -17.9667   25.9738 C   0  0  0  0  0  0  0  0  0  0  0  0
   10.4464  -19.3920   26.4662 C   0  0  0  0  0  0  0  0  0  0  0  0
   11.4195  -20.1901   25.6621 C   0  0  0  0  0  0  0  0  0  0  0  0
   11.5695  -21.6035   26.1319 C   0  0  0  0  0  0  0  0  0  0  0  0
   12.6044  -22.2276   25.2955 N   0  0  0  0  0  0  0  0  0  0  0  0
    9.6924  -17.1941   28.1938 C   0  0  0  0  0  0  0  0  0  0  0  0
   10.3129  -16.2221   28.6970 O   0  0  0  0  0  0  0  0  0  0  0  0
    9.3857  -18.2470   29.0449 O   0  0  0  0  0  0  0  0  0  0  0  0
  2  3  1  0
  2  1  1  6
  4  3  1  0
  5  4  2  0
  6  5  1  0
  7  6  1  0
  7  8  2  0
  8  4  1  0
  9  2  1  0
 10  9  2  0
 12 11  1  1
 12 14  1  0
 13 12  1  0
 14 15  1  6
 15  9  1  0
 16 17  2  0
 16 14  1  0
 18 16  1  0
 19 20  1  6
 19 18  1  0
 20 21  1  0
 21 22  1  0
 23 22  1  0
 24 23  1  0
 25 27  1  0
 25 19  1  0
 26 25  2  0
M  END
$$$$
