HVK.pdb
     RDKit          3D

 27 27  0  0  1  0  0  0  0  0999 V2000
   12.1751  -17.2618   18.9247 N   0  0  0  0  0  0  0  0  0  0  0  0
   10.8498  -17.5183   19.4573 C   0  0  1  0  0  0  0  0  0  0  0  0
   10.9288  -18.8171   20.2326 C   0  0  0  0  0  0  0  0  0  0  0  0
   10.8958  -19.9784   19.3065 C   0  0  0  0  0  0  0  0  0  0  0  0
    9.8695  -20.2532   18.4264 C   0  0  0  0  0  0  0  0  0  0  0  0
   10.1335  -21.3667   17.7303 N   0  0  0  0  0  0  0  0  0  0  0  0
   11.3321  -21.7948   18.1745 C   0  0  0  0  0  0  0  0  0  0  0  0
   11.7932  -20.9485   19.1331 N   0  0  0  0  0  0  0  0  0  0  0  0
   10.4218  -16.4276   20.3771 C   0  0  0  0  0  0  0  0  0  0  0  0
   11.2228  -15.9313   21.2024 O   0  0  0  0  0  0  0  0  0  0  0  0
    7.0011  -13.2802   22.0210 C   0  0  0  0  0  0  0  0  0  0  0  0
    7.5084  -14.0819   20.8300 C   0  0  1  0  0  0  0  0  0  0  0  0
    7.7851  -13.2326   19.6578 C   0  0  0  0  0  0  0  0  0  0  0  0
    8.5647  -15.0006   21.3091 C   0  0  2  0  0  0  0  0  0  0  0  0
    9.0901  -15.9273   20.3353 N   0  0  0  0  0  0  0  0  0  0  0  0
    8.3339  -15.5942   22.6497 C   0  0  0  0  0  0  0  0  0  0  0  0
    7.8154  -16.7391   22.6779 O   0  0  0  0  0  0  0  0  0  0  0  0
    8.6422  -14.9858   23.8889 N   0  0  0  0  0  0  0  0  0  0  0  0
    8.3428  -15.6671   25.1652 C   0  0  1  0  0  0  0  0  0  0  0  0
    8.7867  -14.7928   26.2890 C   0  0  0  0  0  0  0  0  0  0  0  0
    9.8008  -15.4639   27.1898 C   0  0  0  0  0  0  0  0  0  0  0  0
   10.2403  -14.5826   28.3125 C   0  0  0  0  0  0  0  0  0  0  0  0
   11.2406  -15.2242   29.2229 C   0  0  0  0  0  0  0  0  0  0  0  0
   11.6117  -14.2205   30.2303 N   0  0  0  0  0  0  0  0  0  0  0  0
    6.8643  -15.8179   25.2067 C   0  0  0  0  0  0  0  0  0  0  0  0
    6.1315  -14.9533   24.6606 O   0  0  0  0  0  0  0  0  0  0  0  0
    6.2207  -16.8806   25.8261 O   0  0  0  0  0  0  0  0  0  0  0  0
  2  3  1  0
  2  1  1  1
  4  3  1  0
  5  4  2  0
  6  5  1  0
  7  6  1  0
  7  8  2  0
  8  4  1  0
  9  2  1  0
 10  9  2  0
 12 11  1  1
 12 14  1  0
 13 12  1  0
 14 15  1  6
 15  9  1  0
 16 17  2  0
 16 14  1  0
 18 16  1  0
 19 20  1  1
 19 18  1  0
 20 21  1  0
 21 22  1  0
 23 22  1  0
 24 23  1  0
 25 27  1  0
 25 19  1  0
 26 25  2  0
M  END
$$$$
