HVK.pdb
     RDKit          3D

 27 27  0  0  1  0  0  0  0  0999 V2000
    9.8538  -13.7903   20.5803 N   0  0  0  0  0  0  0  0  0  0  0  0
    8.5701  -13.8094   21.2566 C   0  0  1  0  0  0  0  0  0  0  0  0
    7.7904  -14.9788   20.6919 C   0  0  0  0  0  0  0  0  0  0  0  0
    7.4947  -14.7600   19.2523 C   0  0  0  0  0  0  0  0  0  0  0  0
    8.0082  -13.7297   18.4920 C   0  0  0  0  0  0  0  0  0  0  0  0
    7.5553  -13.8040   17.2337 N   0  0  0  0  0  0  0  0  0  0  0  0
    6.7527  -14.8865   17.2019 C   0  0  0  0  0  0  0  0  0  0  0  0
    6.7177  -15.4659   18.4311 N   0  0  0  0  0  0  0  0  0  0  0  0
    8.7404  -14.0013   22.7240 C   0  0  0  0  0  0  0  0  0  0  0  0
    9.7601  -14.5643   23.1845 O   0  0  0  0  0  0  0  0  0  0  0  0
    7.3991  -12.8947   27.3312 C   0  0  0  0  0  0  0  0  0  0  0  0
    7.0439  -12.7132   25.8616 C   0  0  1  0  0  0  0  0  0  0  0  0
    6.9804  -11.2938   25.4701 C   0  0  0  0  0  0  0  0  0  0  0  0
    7.8859  -13.6343   25.0667 C   0  0  2  0  0  0  0  0  0  0  0  0
    7.7442  -13.5469   23.6331 N   0  0  0  0  0  0  0  0  0  0  0  0
    7.9774  -15.0223   25.5846 C   0  0  0  0  0  0  0  0  0  0  0  0
    6.9218  -15.7045   25.5589 O   0  0  0  0  0  0  0  0  0  0  0  0
    9.1407  -15.6375   26.1032 N   0  0  0  0  0  0  0  0  0  0  0  0
    9.1093  -17.0314   26.5920 C   0  0  1  0  0  0  0  0  0  0  0  0
   10.2448  -17.7784   25.9779 C   0  0  0  0  0  0  0  0  0  0  0  0
   10.2466  -17.7055   24.4663 C   0  0  0  0  0  0  0  0  0  0  0  0
   11.4324  -18.3833   23.8623 C   0  0  0  0  0  0  0  0  0  0  0  0
   11.5141  -18.2370   22.3748 C   0  0  0  0  0  0  0  0  0  0  0  0
   12.8043  -18.8036   21.9568 N   0  0  0  0  0  0  0  0  0  0  0  0
    9.3060  -16.9493   28.0633 C   0  0  0  0  0  0  0  0  0  0  0  0
    9.2487  -17.9942   28.7617 O   0  0  0  0  0  0  0  0  0  0  0  0
    9.5558  -15.7612   28.7366 O   0  0  0  0  0  0  0  0  0  0  0  0
  2  3  1  0
  2  1  1  6
  4  3  1  0
  5  4  2  0
  6  5  1  0
  7  6  1  0
  7  8  2  0
  8  4  1  0
  9  2  1  0
 10  9  2  0
 12 11  1  1
 12 14  1  0
 13 12  1  0
 14 15  1  6
 15  9  1  0
 16 17  2  0
 16 14  1  0
 18 16  1  0
 19 20  1  6
 19 18  1  0
 20 21  1  0
 21 22  1  0
 23 22  1  0
 24 23  1  0
 25 27  1  0
 25 19  1  0
 26 25  2  0
M  END
$$$$
