HVK.pdb
     RDKit          3D

 27 27  0  0  1  0  0  0  0  0999 V2000
    8.2124  -15.9793   20.9546 N   0  0  0  0  0  0  0  0  0  0  0  0
    7.2479  -15.8453   22.0305 C   0  0  1  0  0  0  0  0  0  0  0  0
    6.7812  -17.2428   22.3822 C   0  0  0  0  0  0  0  0  0  0  0  0
    6.0267  -17.8395   21.2498 C   0  0  0  0  0  0  0  0  0  0  0  0
    5.9063  -17.2706   19.9988 C   0  0  0  0  0  0  0  0  0  0  0  0
    5.1660  -18.0488   19.1985 N   0  0  0  0  0  0  0  0  0  0  0  0
    4.8189  -19.1129   19.9497 C   0  0  0  0  0  0  0  0  0  0  0  0
    5.3438  -18.9828   21.1969 N   0  0  0  0  0  0  0  0  0  0  0  0
    7.8694  -15.2228   23.2327 C   0  0  0  0  0  0  0  0  0  0  0  0
    9.0869  -15.3800   23.4812 O   0  0  0  0  0  0  0  0  0  0  0  0
    7.5505  -12.4240   27.2812 C   0  0  0  0  0  0  0  0  0  0  0  0
    6.8407  -12.8257   25.9953 C   0  0  1  0  0  0  0  0  0  0  0  0
    6.5065  -11.6643   25.1518 C   0  0  0  0  0  0  0  0  0  0  0  0
    7.5837  -13.9540   25.3918 C   0  0  2  0  0  0  0  0  0  0  0  0
    7.0885  -14.4350   24.1244 N   0  0  0  0  0  0  0  0  0  0  0  0
    7.9877  -15.0280   26.3333 C   0  0  0  0  0  0  0  0  0  0  0  0
    7.0833  -15.8135   26.7145 O   0  0  0  0  0  0  0  0  0  0  0  0
    9.2925  -15.2400   26.8368 N   0  0  0  0  0  0  0  0  0  0  0  0
    9.5747  -16.3471   27.7737 C   0  0  1  0  0  0  0  0  0  0  0  0
   10.5160  -17.2998   27.1174 C   0  0  0  0  0  0  0  0  0  0  0  0
   10.8955  -18.4601   28.0119 C   0  0  0  0  0  0  0  0  0  0  0  0
   11.8152  -19.4247   27.3381 C   0  0  0  0  0  0  0  0  0  0  0  0
   12.1928  -20.5925   28.1953 C   0  0  0  0  0  0  0  0  0  0  0  0
   12.9034  -21.5473   27.3330 N   0  0  0  0  0  0  0  0  0  0  0  0
   10.2375  -15.7236   28.9493 C   0  0  0  0  0  0  0  0  0  0  0  0
   10.7332  -14.5715   28.8504 O   0  0  0  0  0  0  0  0  0  0  0  0
   10.3486  -16.3470   30.1847 O   0  0  0  0  0  0  0  0  0  0  0  0
  2  3  1  0
  2  1  1  6
  4  3  1  0
  5  4  2  0
  6  5  1  0
  7  6  1  0
  7  8  2  0
  8  4  1  0
  9  2  1  0
 10  9  2  0
 12 11  1  1
 12 14  1  0
 13 12  1  0
 14 15  1  6
 15  9  1  0
 16 17  2  0
 16 14  1  0
 18 16  1  0
 19 20  1  6
 19 18  1  0
 20 21  1  0
 21 22  1  0
 23 22  1  0
 24 23  1  0
 25 27  1  0
 25 19  1  0
 26 25  2  0
M  END
$$$$
