HVK.pdb
     RDKit          3D

 27 27  0  0  1  0  0  0  0  0999 V2000
    9.2472  -17.4085   16.4299 N   0  0  0  0  0  0  0  0  0  0  0  0
    8.2261  -17.2631   17.4506 C   0  0  1  0  0  0  0  0  0  0  0  0
    7.8418  -18.6598   17.8934 C   0  0  0  0  0  0  0  0  0  0  0  0
    7.0440  -19.3383   16.8395 C   0  0  0  0  0  0  0  0  0  0  0  0
    6.0096  -18.7541   16.1381 C   0  0  0  0  0  0  0  0  0  0  0  0
    5.4902  -19.6208   15.2588 N   0  0  0  0  0  0  0  0  0  0  0  0
    6.2014  -20.7562   15.4077 C   0  0  0  0  0  0  0  0  0  0  0  0
    7.1456  -20.5814   16.3697 N   0  0  0  0  0  0  0  0  0  0  0  0
    8.7454  -16.5063   18.6239 C   0  0  0  0  0  0  0  0  0  0  0  0
    9.9117  -16.6895   19.0420 O   0  0  0  0  0  0  0  0  0  0  0  0
    8.0719  -13.1701   22.2081 C   0  0  0  0  0  0  0  0  0  0  0  0
    7.6148  -13.6367   20.8326 C   0  0  1  0  0  0  0  0  0  0  0  0
    7.6367  -12.5518   19.8353 C   0  0  0  0  0  0  0  0  0  0  0  0
    8.3111  -14.9046   20.5211 C   0  0  2  0  0  0  0  0  0  0  0  0
    7.9229  -15.5575   19.2940 N   0  0  0  0  0  0  0  0  0  0  0  0
    8.4978  -15.8283   21.6679 C   0  0  0  0  0  0  0  0  0  0  0  0
    7.4923  -16.4921   22.0269 O   0  0  0  0  0  0  0  0  0  0  0  0
    9.6998  -16.0220   22.3878 N   0  0  0  0  0  0  0  0  0  0  0  0
    9.7742  -16.9994   23.4933 C   0  0  1  0  0  0  0  0  0  0  0  0
   11.0699  -17.7317   23.3970 C   0  0  0  0  0  0  0  0  0  0  0  0
   11.2843  -18.6987   24.5412 C   0  0  0  0  0  0  0  0  0  0  0  0
   12.6313  -19.3424   24.5013 C   0  0  0  0  0  0  0  0  0  0  0  0
   12.8007  -20.4424   25.5024 C   0  0  0  0  0  0  0  0  0  0  0  0
   14.2119  -20.8504   25.4589 N   0  0  0  0  0  0  0  0  0  0  0  0
    9.7480  -16.1977   24.7451 C   0  0  0  0  0  0  0  0  0  0  0  0
   10.1271  -14.9982   24.7281 O   0  0  0  0  0  0  0  0  0  0  0  0
    9.3204  -16.7001   25.9665 O   0  0  0  0  0  0  0  0  0  0  0  0
  2  3  1  0
  2  1  1  6
  4  3  1  0
  5  4  2  0
  6  5  1  0
  7  6  1  0
  7  8  2  0
  8  4  1  0
  9  2  1  0
 10  9  2  0
 12 11  1  1
 12 14  1  0
 13 12  1  0
 14 15  1  6
 15  9  1  0
 16 17  2  0
 16 14  1  0
 18 16  1  0
 19 20  1  6
 19 18  1  0
 20 21  1  0
 21 22  1  0
 23 22  1  0
 24 23  1  0
 25 27  1  0
 25 19  1  0
 26 25  2  0
M  END
$$$$
