HVK.pdb
     RDKit          3D

 27 27  0  0  1  0  0  0  0  0999 V2000
    9.9089  -14.2250   20.7845 N   0  0  0  0  0  0  0  0  0  0  0  0
    8.6683  -14.0202   21.5087 C   0  0  1  0  0  0  0  0  0  0  0  0
    7.6622  -15.0046   20.9492 C   0  0  0  0  0  0  0  0  0  0  0  0
    7.3605  -14.6891   19.5289 C   0  0  0  0  0  0  0  0  0  0  0  0
    8.0064  -13.7243   18.7836 C   0  0  0  0  0  0  0  0  0  0  0  0
    7.5090  -13.6803   17.5407 N   0  0  0  0  0  0  0  0  0  0  0  0
    6.5453  -14.6221   17.5037 C   0  0  0  0  0  0  0  0  0  0  0  0
    6.4573  -15.2340   18.7143 N   0  0  0  0  0  0  0  0  0  0  0  0
    8.8479  -14.2823   22.9641 C   0  0  0  0  0  0  0  0  0  0  0  0
    9.7233  -15.0808   23.3701 O   0  0  0  0  0  0  0  0  0  0  0  0
    6.0144  -12.9577   25.9915 C   0  0  0  0  0  0  0  0  0  0  0  0
    7.5120  -12.7718   26.1941 C   0  0  1  0  0  0  0  0  0  0  0  0
    7.8777  -12.6676   27.6180 C   0  0  0  0  0  0  0  0  0  0  0  0
    8.2178  -13.7593   25.3479 C   0  0  2  0  0  0  0  0  0  0  0  0
    8.0254  -13.6280   23.9236 N   0  0  0  0  0  0  0  0  0  0  0  0
    8.1842  -15.1597   25.8388 C   0  0  0  0  0  0  0  0  0  0  0  0
    7.1245  -15.8040   25.6335 O   0  0  0  0  0  0  0  0  0  0  0  0
    9.2332  -15.8253   26.5151 N   0  0  0  0  0  0  0  0  0  0  0  0
    9.0797  -17.2240   26.9655 C   0  0  1  0  0  0  0  0  0  0  0  0
   10.1649  -18.0444   26.3541 C   0  0  0  0  0  0  0  0  0  0  0  0
   10.1684  -17.9805   24.8421 C   0  0  0  0  0  0  0  0  0  0  0  0
   11.2338  -18.8337   24.2360 C   0  0  0  0  0  0  0  0  0  0  0  0
   11.3103  -18.7292   22.7446 C   0  0  0  0  0  0  0  0  0  0  0  0
   12.4473  -19.5545   22.3131 N   0  0  0  0  0  0  0  0  0  0  0  0
    9.2500  -17.1951   28.4421 C   0  0  0  0  0  0  0  0  0  0  0  0
    9.5950  -16.1276   29.0116 O   0  0  0  0  0  0  0  0  0  0  0  0
    9.0476  -18.3003   29.2574 O   0  0  0  0  0  0  0  0  0  0  0  0
  2  3  1  0
  2  1  1  6
  4  3  1  0
  5  4  2  0
  6  5  1  0
  7  6  1  0
  7  8  2  0
  8  4  1  0
  9  2  1  0
 10  9  2  0
 12 11  1  1
 12 14  1  0
 13 12  1  0
 14 15  1  6
 15  9  1  0
 16 17  2  0
 16 14  1  0
 18 16  1  0
 19 20  1  6
 19 18  1  0
 20 21  1  0
 21 22  1  0
 23 22  1  0
 24 23  1  0
 25 27  1  0
 25 19  1  0
 26 25  2  0
M  END
$$$$
