HVK.pdb
     RDKit          3D

 27 27  0  0  1  0  0  0  0  0999 V2000
    9.3339  -17.8244   16.2705 N   0  0  0  0  0  0  0  0  0  0  0  0
    8.2777  -17.3858   17.1637 C   0  0  1  0  0  0  0  0  0  0  0  0
    7.6298  -18.6333   17.7281 C   0  0  0  0  0  0  0  0  0  0  0  0
    6.6502  -19.1933   16.7614 C   0  0  0  0  0  0  0  0  0  0  0  0
    6.4036  -18.6791   15.5051 C   0  0  0  0  0  0  0  0  0  0  0  0
    5.4688  -19.4038   14.8766 N   0  0  0  0  0  0  0  0  0  0  0  0
    5.1253  -20.3788   15.7417 C   0  0  0  0  0  0  0  0  0  0  0  0
    5.8455  -20.2482   16.8871 N   0  0  0  0  0  0  0  0  0  0  0  0
    8.8271  -16.5731   18.2847 C   0  0  0  0  0  0  0  0  0  0  0  0
    9.9729  -16.7960   18.7389 O   0  0  0  0  0  0  0  0  0  0  0  0
    6.3148  -13.7948   20.4825 C   0  0  0  0  0  0  0  0  0  0  0  0
    7.7891  -13.4896   20.2548 C   0  0  1  0  0  0  0  0  0  0  0  0
    8.3326  -12.5608   21.2618 C   0  0  0  0  0  0  0  0  0  0  0  0
    8.4925  -14.7686   20.0124 C   0  0  2  0  0  0  0  0  0  0  0  0
    8.0576  -15.5246   18.8625 N   0  0  0  0  0  0  0  0  0  0  0  0
    8.7508  -15.5932   21.2192 C   0  0  0  0  0  0  0  0  0  0  0  0
    7.8542  -16.4117   21.5455 O   0  0  0  0  0  0  0  0  0  0  0  0
    9.9091  -15.5355   22.0290 N   0  0  0  0  0  0  0  0  0  0  0  0
   10.0742  -16.4414   23.1844 C   0  0  1  0  0  0  0  0  0  0  0  0
   11.4692  -16.9690   23.1820 C   0  0  0  0  0  0  0  0  0  0  0  0
   11.7151  -17.9838   24.2776 C   0  0  0  0  0  0  0  0  0  0  0  0
   13.0709  -18.6037   24.1892 C   0  0  0  0  0  0  0  0  0  0  0  0
   13.2711  -19.7465   25.1353 C   0  0  0  0  0  0  0  0  0  0  0  0
   14.5435  -20.3869   24.7735 N   0  0  0  0  0  0  0  0  0  0  0  0
    9.8627  -15.6004   24.3920 C   0  0  0  0  0  0  0  0  0  0  0  0
   10.0303  -14.3553   24.3247 O   0  0  0  0  0  0  0  0  0  0  0  0
    9.4816  -16.1134   25.6243 O   0  0  0  0  0  0  0  0  0  0  0  0
  2  3  1  0
  2  1  1  6
  4  3  1  0
  5  4  2  0
  6  5  1  0
  7  6  1  0
  7  8  2  0
  8  4  1  0
  9  2  1  0
 10  9  2  0
 12 11  1  1
 12 14  1  0
 13 12  1  0
 14 15  1  6
 15  9  1  0
 16 17  2  0
 16 14  1  0
 18 16  1  0
 19 20  1  1
 19 18  1  0
 20 21  1  0
 21 22  1  0
 23 22  1  0
 24 23  1  0
 25 27  1  0
 25 19  1  0
 26 25  2  0
M  END
$$$$
