HVK.pdb
     RDKit          3D

 27 27  0  0  1  0  0  0  0  0999 V2000
    8.5049  -15.7322   20.7053 N   0  0  0  0  0  0  0  0  0  0  0  0
    7.7520  -15.9921   21.9182 C   0  0  1  0  0  0  0  0  0  0  0  0
    7.6579  -17.4967   22.0661 C   0  0  0  0  0  0  0  0  0  0  0  0
    6.8516  -18.0783   20.9620 C   0  0  0  0  0  0  0  0  0  0  0  0
    5.4760  -18.1834   20.9641 C   0  0  0  0  0  0  0  0  0  0  0  0
    5.0468  -18.7505   19.8290 N   0  0  0  0  0  0  0  0  0  0  0  0
    6.1579  -19.0036   19.1090 C   0  0  0  0  0  0  0  0  0  0  0  0
    7.2540  -18.5937   19.8006 N   0  0  0  0  0  0  0  0  0  0  0  0
    8.4451  -15.4284   23.1102 C   0  0  0  0  0  0  0  0  0  0  0  0
    9.6768  -15.5874   23.2726 O   0  0  0  0  0  0  0  0  0  0  0  0
    6.2101  -13.2481   26.0661 C   0  0  0  0  0  0  0  0  0  0  0  0
    7.6919  -12.9620   25.8635 C   0  0  1  0  0  0  0  0  0  0  0  0
    8.3088  -12.3312   27.0440 C   0  0  0  0  0  0  0  0  0  0  0  0
    8.3213  -14.1733   25.2926 C   0  0  2  0  0  0  0  0  0  0  0  0
    7.7180  -14.6959   24.0902 N   0  0  0  0  0  0  0  0  0  0  0  0
    8.7132  -15.2128   26.2768 C   0  0  0  0  0  0  0  0  0  0  0  0
    7.8081  -15.9969   26.6596 O   0  0  0  0  0  0  0  0  0  0  0  0
   10.0070  -15.3938   26.8191 N   0  0  0  0  0  0  0  0  0  0  0  0
   10.2840  -16.4854   27.7754 C   0  0  1  0  0  0  0  0  0  0  0  0
   11.6708  -16.9829   27.5436 C   0  0  0  0  0  0  0  0  0  0  0  0
   12.0530  -18.1124   28.4756 C   0  0  0  0  0  0  0  0  0  0  0  0
   13.4825  -18.5182   28.3265 C   0  0  0  0  0  0  0  0  0  0  0  0
   13.8444  -19.7401   29.1119 C   0  0  0  0  0  0  0  0  0  0  0  0
   15.2921  -19.9394   28.9549 N   0  0  0  0  0  0  0  0  0  0  0  0
   10.1952  -15.8722   29.1268 C   0  0  0  0  0  0  0  0  0  0  0  0
   10.3435  -14.6302   29.2616 O   0  0  0  0  0  0  0  0  0  0  0  0
    9.9523  -16.6010   30.2832 O   0  0  0  0  0  0  0  0  0  0  0  0
  2  3  1  0
  2  1  1  6
  4  3  1  0
  5  4  2  0
  6  5  1  0
  7  6  1  0
  7  8  2  0
  8  4  1  0
  9  2  1  0
 10  9  2  0
 12 11  1  1
 12 14  1  0
 13 12  1  0
 14 15  1  6
 15  9  1  0
 16 17  2  0
 16 14  1  0
 18 16  1  0
 19 20  1  6
 19 18  1  0
 20 21  1  0
 21 22  1  0
 23 22  1  0
 24 23  1  0
 25 27  1  0
 25 19  1  0
 26 25  2  0
M  END
$$$$
