HVK.pdb
     RDKit          3D

 27 27  0  0  1  0  0  0  0  0999 V2000
   12.6492  -15.2346   17.1346 N   0  0  0  0  0  0  0  0  0  0  0  0
   11.2766  -15.5555   17.4791 C   0  0  1  0  0  0  0  0  0  0  0  0
   11.1357  -17.0602   17.3774 C   0  0  0  0  0  0  0  0  0  0  0  0
   10.9704  -17.4723   15.9595 C   0  0  0  0  0  0  0  0  0  0  0  0
   10.8433  -16.6012   14.8973 C   0  0  0  0  0  0  0  0  0  0  0  0
   10.7104  -17.2775   13.7488 N   0  0  0  0  0  0  0  0  0  0  0  0
   10.7540  -18.5809   14.0900 C   0  0  0  0  0  0  0  0  0  0  0  0
   10.9122  -18.6963   15.4352 N   0  0  0  0  0  0  0  0  0  0  0  0
   10.9602  -15.1300   18.8711 C   0  0  0  0  0  0  0  0  0  0  0  0
   11.8201  -15.2085   19.7785 O   0  0  0  0  0  0  0  0  0  0  0  0
    8.6432  -12.0255   19.6684 C   0  0  0  0  0  0  0  0  0  0  0  0
    8.2590  -13.1564   20.6129 C   0  0  1  0  0  0  0  0  0  0  0  0
    6.8456  -13.5499   20.4725 C   0  0  0  0  0  0  0  0  0  0  0  0
    9.3016  -14.2028   20.5273 C   0  0  2  0  0  0  0  0  0  0  0  0
    9.6703  -14.6246   19.1972 N   0  0  0  0  0  0  0  0  0  0  0  0
    9.1719  -15.3138   21.5028 C   0  0  0  0  0  0  0  0  0  0  0  0
    8.6847  -16.3893   21.0713 O   0  0  0  0  0  0  0  0  0  0  0  0
    9.5440  -15.2658   22.8667 N   0  0  0  0  0  0  0  0  0  0  0  0
    9.3929  -16.4497   23.7375 C   0  0  1  0  0  0  0  0  0  0  0  0
   10.4642  -16.4195   24.7747 C   0  0  0  0  0  0  0  0  0  0  0  0
   10.4394  -17.6320   25.6801 C   0  0  0  0  0  0  0  0  0  0  0  0
   11.5119  -17.5924   26.7186 C   0  0  0  0  0  0  0  0  0  0  0  0
   11.5826  -18.8313   27.5558 C   0  0  0  0  0  0  0  0  0  0  0  0
   12.6459  -18.6201   28.5482 N   0  0  0  0  0  0  0  0  0  0  0  0
    8.0648  -16.3057   24.3900 C   0  0  0  0  0  0  0  0  0  0  0  0
    7.5059  -15.1792   24.4297 O   0  0  0  0  0  0  0  0  0  0  0  0
    7.3813  -17.3627   24.9753 O   0  0  0  0  0  0  0  0  0  0  0  0
  2  3  1  0
  2  1  1  1
  4  3  1  0
  5  4  2  0
  6  5  1  0
  7  6  1  0
  7  8  2  0
  8  4  1  0
  9  2  1  0
 10  9  2  0
 12 11  1  6
 12 14  1  0
 13 12  1  0
 14 15  1  6
 15  9  1  0
 16 17  2  0
 16 14  1  0
 18 16  1  0
 19 20  1  1
 19 18  1  0
 20 21  1  0
 21 22  1  0
 23 22  1  0
 24 23  1  0
 25 27  1  0
 25 19  1  0
 26 25  2  0
M  END
$$$$
