VKN.pdb
     RDKit          3D

 25 24  0  0  1  0  0  0  0  0999 V2000
    6.2968  -22.3677   18.7124 C   0  0  0  0  0  0  0  0  0  0  0  0
    6.8482  -23.3706   19.6704 C   0  0  1  0  0  0  0  0  0  0  0  0
    7.4527  -24.5254   18.9136 C   0  0  0  0  0  0  0  0  0  0  0  0
    7.8126  -22.7820   20.6717 C   0  0  2  0  0  0  0  0  0  0  0  0
    7.1592  -21.7408   21.4401 N   0  0  0  0  0  0  0  0  0  0  0  0
    9.0724  -22.3051   20.0584 C   0  0  0  0  0  0  0  0  0  0  0  0
    9.9752  -23.1451   19.7340 O   0  0  0  0  0  0  0  0  0  0  0  0
    9.3557  -20.9524   19.7986 N   0  0  0  0  0  0  0  0  0  0  0  0
   10.6498  -20.4977   19.1992 C   0  0  1  0  0  0  0  0  0  0  0  0
   10.1862  -19.6986   18.0317 C   0  0  0  0  0  0  0  0  0  0  0  0
   10.0763  -20.3204   16.6964 C   0  0  0  0  0  0  0  0  0  0  0  0
    9.7491  -19.3266   15.6347 C   0  0  0  0  0  0  0  0  0  0  0  0
    9.6736  -20.0500   14.2945 C   0  0  0  0  0  0  0  0  0  0  0  0
    9.2945  -19.0063   13.3310 N   0  0  0  0  0  0  0  0  0  0  0  0
   11.4960  -19.8864   20.1681 C   0  0  0  0  0  0  0  0  0  0  0  0
   12.6947  -19.5442   19.8540 O   0  0  0  0  0  0  0  0  0  0  0  0
   13.1485  -22.9958   24.1036 N   0  0  0  0  0  0  0  0  0  0  0  0
   12.2296  -21.9178   24.2048 C   0  0  0  0  0  0  0  0  0  0  0  0
   12.0776  -21.4026   25.3606 O   0  0  0  0  0  0  0  0  0  0  0  0
   11.4958  -21.4248   23.0343 C   0  0  0  0  0  0  0  0  0  0  0  0
   11.9758  -20.0305   22.6329 C   0  0  2  0  0  0  0  0  0  0  0  0
   11.1570  -19.5678   21.5409 N   0  0  0  0  0  0  0  0  0  0  0  0
   13.4147  -20.0873   22.2762 C   0  0  0  0  0  0  0  0  0  0  0  0
   14.3924  -19.2568   22.7411 O   0  0  0  0  0  0  0  0  0  0  0  0
   13.7558  -21.0058   21.4568 O   0  0  0  0  0  0  0  0  0  0  0  0
  2  1  1  6
  2  4  1  0
  3  2  1  0
  4  5  1  6
  6  4  1  0
  6  7  2  0
  8  6  1  0
  9  8  1  0
  9 10  1  6
 11 10  1  0
 12 11  1  0
 13 12  1  0
 13 14  1  0
 15  9  1  0
 16 15  2  0
 18 17  1  0
 18 20  1  0
 19 18  2  0
 21 20  1  6
 21 22  1  0
 22 15  1  0
 23 21  1  0
 24 23  1  0
 25 23  2  0
M  END
$$$$
