VKN.pdb
     RDKit          3D

 25 24  0  0  1  0  0  0  0  0999 V2000
    9.0242  -12.9621   20.2698 C   0  0  0  0  0  0  0  0  0  0  0  0
    7.7981  -13.4732   19.5892 C   0  0  1  0  0  0  0  0  0  0  0  0
    7.2301  -12.4081   18.6867 C   0  0  0  0  0  0  0  0  0  0  0  0
    8.0118  -14.7784   18.8612 C   0  0  2  0  0  0  0  0  0  0  0  0
    6.7997  -15.1657   18.1667 N   0  0  0  0  0  0  0  0  0  0  0  0
    8.5138  -15.8604   19.7375 C   0  0  0  0  0  0  0  0  0  0  0  0
    7.7326  -16.3970   20.5904 O   0  0  0  0  0  0  0  0  0  0  0  0
    9.8293  -16.3560   19.6971 N   0  0  0  0  0  0  0  0  0  0  0  0
   10.3075  -17.4548   20.5941 C   0  0  1  0  0  0  0  0  0  0  0  0
   10.9935  -18.3619   19.6334 C   0  0  0  0  0  0  0  0  0  0  0  0
   11.5992  -19.6255   20.1004 C   0  0  0  0  0  0  0  0  0  0  0  0
   10.5738  -20.6272   20.5096 C   0  0  0  0  0  0  0  0  0  0  0  0
   11.2848  -21.9004   20.9554 C   0  0  0  0  0  0  0  0  0  0  0  0
   10.2077  -22.7755   21.4406 N   0  0  0  0  0  0  0  0  0  0  0  0
   11.0319  -16.9488   21.7111 C   0  0  0  0  0  0  0  0  0  0  0  0
   11.6964  -15.8533   21.6067 O   0  0  0  0  0  0  0  0  0  0  0  0
    9.9190  -14.9824   24.2258 N   0  0  0  0  0  0  0  0  0  0  0  0
   10.0482  -15.8598   25.3348 C   0  0  0  0  0  0  0  0  0  0  0  0
    9.2383  -15.6815   26.3026 O   0  0  0  0  0  0  0  0  0  0  0  0
   11.0639  -16.9179   25.3597 C   0  0  0  0  0  0  0  0  0  0  0  0
   11.8911  -16.9150   24.0747 C   0  0  2  0  0  0  0  0  0  0  0  0
   11.1112  -17.5358   23.0340 N   0  0  0  0  0  0  0  0  0  0  0  0
   13.1763  -17.6166   24.3131 C   0  0  0  0  0  0  0  0  0  0  0  0
   14.3068  -17.0670   24.8438 O   0  0  0  0  0  0  0  0  0  0  0  0
   13.2128  -18.8511   23.9871 O   0  0  0  0  0  0  0  0  0  0  0  0
  2  1  1  6
  2  4  1  0
  3  2  1  0
  4  5  1  1
  6  4  1  0
  6  7  2  0
  8  6  1  0
  9  8  1  0
  9 10  1  6
 11 10  1  0
 12 11  1  0
 13 12  1  0
 13 14  1  0
 15  9  1  0
 16 15  2  0
 18 17  1  0
 18 20  1  0
 19 18  2  0
 21 20  1  1
 21 22  1  0
 22 15  1  0
 23 21  1  0
 24 23  1  0
 25 23  2  0
M  END
$$$$
