VKN.pdb
     RDKit          3D

 25 24  0  0  1  0  0  0  0  0999 V2000
    8.2628  -12.5110   19.1694 C   0  0  0  0  0  0  0  0  0  0  0  0
    7.9265  -13.1313   20.4846 C   0  0  1  0  0  0  0  0  0  0  0  0
    6.4674  -13.5073   20.5169 C   0  0  0  0  0  0  0  0  0  0  0  0
    8.8194  -14.2925   20.8501 C   0  0  2  0  0  0  0  0  0  0  0  0
    8.7757  -15.3012   19.8099 N   0  0  0  0  0  0  0  0  0  0  0  0
    8.5199  -14.8627   22.1827 C   0  0  0  0  0  0  0  0  0  0  0  0
    8.5951  -14.1228   23.2184 O   0  0  0  0  0  0  0  0  0  0  0  0
    8.1464  -16.2014   22.3974 N   0  0  0  0  0  0  0  0  0  0  0  0
    7.8949  -16.7620   23.7624 C   0  0  1  0  0  0  0  0  0  0  0  0
    7.2921  -18.0861   23.4468 C   0  0  0  0  0  0  0  0  0  0  0  0
    6.9416  -19.0256   24.5312 C   0  0  0  0  0  0  0  0  0  0  0  0
    6.4457  -20.3314   24.0104 C   0  0  0  0  0  0  0  0  0  0  0  0
    5.9528  -21.1705   25.1843 C   0  0  0  0  0  0  0  0  0  0  0  0
    5.4136  -22.3908   24.5667 N   0  0  0  0  0  0  0  0  0  0  0  0
    9.0593  -16.7054   24.5805 C   0  0  0  0  0  0  0  0  0  0  0  0
   10.1322  -16.1517   24.1389 O   0  0  0  0  0  0  0  0  0  0  0  0
    9.4966  -12.8944   28.2764 N   0  0  0  0  0  0  0  0  0  0  0  0
    9.8622  -14.2518   28.0758 C   0  0  0  0  0  0  0  0  0  0  0  0
   10.7699  -14.7183   28.8393 O   0  0  0  0  0  0  0  0  0  0  0  0
    9.2232  -15.0721   27.0412 C   0  0  0  0  0  0  0  0  0  0  0  0
    9.8874  -16.4448   26.9411 C   0  0  2  0  0  0  0  0  0  0  0  0
    9.1968  -17.2085   25.9329 N   0  0  0  0  0  0  0  0  0  0  0  0
    9.8589  -17.1053   28.2692 C   0  0  0  0  0  0  0  0  0  0  0  0
    9.1822  -18.2470   28.5858 O   0  0  0  0  0  0  0  0  0  0  0  0
   10.5371  -16.5414   29.1932 O   0  0  0  0  0  0  0  0  0  0  0  0
  2  1  1  6
  2  4  1  0
  3  2  1  0
  4  5  1  6
  6  4  1  0
  6  7  2  0
  8  6  1  0
  9  8  1  0
  9 10  1  6
 11 10  1  0
 12 11  1  0
 13 12  1  0
 13 14  1  0
 15  9  1  0
 16 15  2  0
 18 17  1  0
 18 20  1  0
 19 18  2  0
 21 20  1  1
 21 22  1  0
 22 15  1  0
 23 21  1  0
 24 23  1  0
 25 23  2  0
M  END
$$$$
