VKN.pdb
     RDKit          3D

 25 24  0  0  1  0  0  0  0  0999 V2000
    8.8344  -13.3267   17.1448 C   0  0  0  0  0  0  0  0  0  0  0  0
    8.8334  -13.9835   18.4851 C   0  0  1  0  0  0  0  0  0  0  0  0
    9.6748  -13.1860   19.4482 C   0  0  0  0  0  0  0  0  0  0  0  0
    7.4492  -14.2483   19.0263 C   0  0  2  0  0  0  0  0  0  0  0  0
    6.6931  -13.0129   19.0868 N   0  0  0  0  0  0  0  0  0  0  0  0
    7.4560  -14.9537   20.3274 C   0  0  0  0  0  0  0  0  0  0  0  0
    7.3896  -14.2838   21.4103 O   0  0  0  0  0  0  0  0  0  0  0  0
    7.5322  -16.3516   20.4617 N   0  0  0  0  0  0  0  0  0  0  0  0
    7.5468  -17.0367   21.7925 C   0  0  1  0  0  0  0  0  0  0  0  0
    6.5375  -18.1136   21.5972 C   0  0  0  0  0  0  0  0  0  0  0  0
    6.3139  -19.1280   22.6471 C   0  0  0  0  0  0  0  0  0  0  0  0
    5.3106  -20.1525   22.2395 C   0  0  0  0  0  0  0  0  0  0  0  0
    5.1534  -21.1607   23.3727 C   0  0  0  0  0  0  0  0  0  0  0  0
    4.2318  -22.1751   22.8407 N   0  0  0  0  0  0  0  0  0  0  0  0
    8.8679  -17.3864   22.1933 C   0  0  0  0  0  0  0  0  0  0  0  0
    9.8639  -17.1400   21.4187 O   0  0  0  0  0  0  0  0  0  0  0  0
   13.1712  -15.8450   24.1572 N   0  0  0  0  0  0  0  0  0  0  0  0
   11.9577  -15.9107   24.8919 C   0  0  0  0  0  0  0  0  0  0  0  0
   12.0315  -15.6683   26.1409 O   0  0  0  0  0  0  0  0  0  0  0  0
   10.6853  -16.2401   24.2406 C   0  0  0  0  0  0  0  0  0  0  0  0
   10.5530  -17.7474   24.0253 C   0  0  2  0  0  0  0  0  0  0  0  0
    9.2615  -18.0087   23.4418 N   0  0  0  0  0  0  0  0  0  0  0  0
   10.7417  -18.4493   25.3186 C   0  0  0  0  0  0  0  0  0  0  0  0
    9.8341  -18.5218   26.3348 O   0  0  0  0  0  0  0  0  0  0  0  0
   11.8637  -19.0377   25.4814 O   0  0  0  0  0  0  0  0  0  0  0  0
  2  1  1  6
  2  4  1  0
  3  2  1  0
  4  5  1  1
  6  4  1  0
  6  7  2  0
  8  6  1  0
  9  8  1  0
  9 10  1  6
 11 10  1  0
 12 11  1  0
 13 12  1  0
 13 14  1  0
 15  9  1  0
 16 15  2  0
 18 17  1  0
 18 20  1  0
 19 18  2  0
 21 20  1  1
 21 22  1  0
 22 15  1  0
 23 21  1  0
 24 23  1  0
 25 23  2  0
M  END
$$$$
