VKN.pdb
     RDKit          3D

 25 24  0  0  1  0  0  0  0  0999 V2000
    7.4052  -12.4775   21.2947 C   0  0  0  0  0  0  0  0  0  0  0  0
    7.5381  -13.6847   20.4270 C   0  0  1  0  0  0  0  0  0  0  0  0
    7.8871  -13.2702   19.0207 C   0  0  0  0  0  0  0  0  0  0  0  0
    8.4992  -14.7149   20.9695 C   0  0  2  0  0  0  0  0  0  0  0  0
    8.5971  -15.8352   20.0548 N   0  0  0  0  0  0  0  0  0  0  0  0
    8.1701  -15.1537   22.3442 C   0  0  0  0  0  0  0  0  0  0  0  0
    8.0251  -14.2861   23.2672 O   0  0  0  0  0  0  0  0  0  0  0  0
    7.9998  -16.4985   22.7189 N   0  0  0  0  0  0  0  0  0  0  0  0
    7.5985  -16.9083   24.1015 C   0  0  1  0  0  0  0  0  0  0  0  0
    7.1076  -18.2966   23.8825 C   0  0  0  0  0  0  0  0  0  0  0  0
    6.8576  -19.1911   25.0310 C   0  0  0  0  0  0  0  0  0  0  0  0
    6.4198  -20.5507   24.6045 C   0  0  0  0  0  0  0  0  0  0  0  0
    6.2284  -21.4146   25.8463 C   0  0  0  0  0  0  0  0  0  0  0  0
    5.9877  -22.7672   25.3230 N   0  0  0  0  0  0  0  0  0  0  0  0
    8.6410  -16.6801   25.0447 C   0  0  0  0  0  0  0  0  0  0  0  0
    9.8455  -17.0389   24.7747 O   0  0  0  0  0  0  0  0  0  0  0  0
    8.7167  -12.4498   27.4270 N   0  0  0  0  0  0  0  0  0  0  0  0
    9.6219  -13.5351   27.2886 C   0  0  0  0  0  0  0  0  0  0  0  0
   10.5425  -13.4043   26.4170 O   0  0  0  0  0  0  0  0  0  0  0  0
    9.4999  -14.7435   28.1111 C   0  0  0  0  0  0  0  0  0  0  0  0
    9.6286  -16.0042   27.2569 C   0  0  2  0  0  0  0  0  0  0  0  0
    8.5161  -16.0453   26.3417 N   0  0  0  0  0  0  0  0  0  0  0  0
    9.6791  -17.1957   28.1394 C   0  0  0  0  0  0  0  0  0  0  0  0
    8.8364  -18.2678   28.0929 O   0  0  0  0  0  0  0  0  0  0  0  0
   10.6045  -17.2054   29.0198 O   0  0  0  0  0  0  0  0  0  0  0  0
  2  1  1  1
  2  4  1  0
  3  2  1  0
  4  5  1  6
  6  4  1  0
  6  7  2  0
  8  6  1  0
  9  8  1  0
  9 10  1  6
 11 10  1  0
 12 11  1  0
 13 12  1  0
 13 14  1  0
 15  9  1  0
 16 15  2  0
 18 17  1  0
 18 20  1  0
 19 18  2  0
 21 20  1  1
 21 22  1  0
 22 15  1  0
 23 21  1  0
 24 23  1  0
 25 23  2  0
M  END
$$$$
