VKN.pdb
     RDKit          3D

 25 24  0  0  1  0  0  0  0  0999 V2000
    6.0792  -11.4290   27.2107 C   0  0  0  0  0  0  0  0  0  0  0  0
    6.9068  -12.3659   26.3953 C   0  0  1  0  0  0  0  0  0  0  0  0
    8.0603  -12.8805   27.2176 C   0  0  0  0  0  0  0  0  0  0  0  0
    6.1111  -13.4867   25.7710 C   0  0  2  0  0  0  0  0  0  0  0  0
    5.5359  -14.3250   26.8042 N   0  0  0  0  0  0  0  0  0  0  0  0
    6.8869  -14.2772   24.7893 C   0  0  0  0  0  0  0  0  0  0  0  0
    7.3680  -15.4086   25.1272 O   0  0  0  0  0  0  0  0  0  0  0  0
    7.1402  -13.8598   23.4704 N   0  0  0  0  0  0  0  0  0  0  0  0
    8.0089  -14.6349   22.5294 C   0  0  1  0  0  0  0  0  0  0  0  0
    7.7584  -13.9423   21.2355 C   0  0  0  0  0  0  0  0  0  0  0  0
    8.2498  -14.5229   19.9694 C   0  0  0  0  0  0  0  0  0  0  0  0
    7.8709  -13.7005   18.7852 C   0  0  0  0  0  0  0  0  0  0  0  0
    8.4509  -14.3498   17.5334 C   0  0  0  0  0  0  0  0  0  0  0  0
    8.1004  -13.4290   16.4423 N   0  0  0  0  0  0  0  0  0  0  0  0
    9.3444  -14.7457   23.0116 C   0  0  0  0  0  0  0  0  0  0  0  0
    9.6875  -14.1583   24.1025 O   0  0  0  0  0  0  0  0  0  0  0  0
   10.9520  -19.6915   24.7063 N   0  0  0  0  0  0  0  0  0  0  0  0
   11.1415  -18.2846   24.7409 C   0  0  0  0  0  0  0  0  0  0  0  0
   12.0245  -17.8462   25.5487 O   0  0  0  0  0  0  0  0  0  0  0  0
   10.3586  -17.3853   23.8864 C   0  0  0  0  0  0  0  0  0  0  0  0
   11.2601  -16.3654   23.1917 C   0  0  2  0  0  0  0  0  0  0  0  0
   10.4291  -15.4905   22.4038 N   0  0  0  0  0  0  0  0  0  0  0  0
   12.2698  -17.0773   22.3704 C   0  0  0  0  0  0  0  0  0  0  0  0
   13.6069  -16.8088   22.3279 O   0  0  0  0  0  0  0  0  0  0  0  0
   11.8319  -18.0296   21.6404 O   0  0  0  0  0  0  0  0  0  0  0  0
  2  1  1  1
  2  4  1  0
  3  2  1  0
  4  5  1  1
  6  4  1  0
  6  7  2  0
  8  6  1  0
  9  8  1  0
  9 10  1  6
 11 10  1  0
 12 11  1  0
 13 12  1  0
 13 14  1  0
 15  9  1  0
 16 15  2  0
 18 17  1  0
 18 20  1  0
 19 18  2  0
 21 20  1  6
 21 22  1  0
 22 15  1  0
 23 21  1  0
 24 23  1  0
 25 23  2  0
M  END
$$$$
