VKN.pdb
     RDKit          3D

 25 24  0  0  1  0  0  0  0  0999 V2000
    8.4959  -12.6694   21.1963 C   0  0  0  0  0  0  0  0  0  0  0  0
    7.7551  -13.3483   20.0927 C   0  0  1  0  0  0  0  0  0  0  0  0
    7.6835  -12.4432   18.8897 C   0  0  0  0  0  0  0  0  0  0  0  0
    8.3051  -14.7106   19.7454 C   0  0  2  0  0  0  0  0  0  0  0  0
    7.5957  -15.2587   18.6062 N   0  0  0  0  0  0  0  0  0  0  0  0
    8.3127  -15.6469   20.8916 C   0  0  0  0  0  0  0  0  0  0  0  0
    7.2093  -16.0790   21.3624 O   0  0  0  0  0  0  0  0  0  0  0  0
    9.4832  -16.1097   21.5189 N   0  0  0  0  0  0  0  0  0  0  0  0
    9.4581  -16.9968   22.7244 C   0  0  1  0  0  0  0  0  0  0  0  0
   10.1036  -18.2360   22.2102 C   0  0  0  0  0  0  0  0  0  0  0  0
    9.7721  -19.5503   22.7968 C   0  0  0  0  0  0  0  0  0  0  0  0
   10.4872  -20.6690   22.1190 C   0  0  0  0  0  0  0  0  0  0  0  0
   10.1411  -21.9726   22.8302 C   0  0  0  0  0  0  0  0  0  0  0  0
   10.8590  -23.0090   22.0741 N   0  0  0  0  0  0  0  0  0  0  0  0
   10.0069  -16.3505   23.8687 C   0  0  0  0  0  0  0  0  0  0  0  0
   11.0806  -15.6515   23.7622 O   0  0  0  0  0  0  0  0  0  0  0  0
    9.3149  -13.4017   29.1322 N   0  0  0  0  0  0  0  0  0  0  0  0
   10.0021  -14.2210   28.1978 C   0  0  0  0  0  0  0  0  0  0  0  0
   11.2423  -14.4192   28.4147 O   0  0  0  0  0  0  0  0  0  0  0  0
    9.3140  -14.8086   27.0433 C   0  0  0  0  0  0  0  0  0  0  0  0
   10.2163  -15.8040   26.3148 C   0  0  2  0  0  0  0  0  0  0  0  0
    9.4731  -16.3673   25.2162 N   0  0  0  0  0  0  0  0  0  0  0  0
   10.6836  -16.8380   27.2705 C   0  0  0  0  0  0  0  0  0  0  0  0
    9.9271  -17.8389   27.8068 O   0  0  0  0  0  0  0  0  0  0  0  0
   11.9123  -16.7733   27.6137 O   0  0  0  0  0  0  0  0  0  0  0  0
  2  1  1  1
  2  4  1  0
  3  2  1  0
  4  5  1  6
  6  4  1  0
  6  7  2  0
  8  6  1  0
  9  8  1  0
  9 10  1  6
 11 10  1  0
 12 11  1  0
 13 12  1  0
 13 14  1  0
 15  9  1  0
 16 15  2  0
 18 17  1  0
 18 20  1  0
 19 18  2  0
 21 20  1  1
 21 22  1  0
 22 15  1  0
 23 21  1  0
 24 23  1  0
 25 23  2  0
M  END
$$$$
