VKN.pdb
     RDKit          3D

 25 24  0  0  1  0  0  0  0  0999 V2000
    8.2787  -12.1942   25.8906 C   0  0  0  0  0  0  0  0  0  0  0  0
    7.0168  -12.6301   26.5580 C   0  0  1  0  0  0  0  0  0  0  0  0
    6.3219  -11.4406   27.1694 C   0  0  0  0  0  0  0  0  0  0  0  0
    6.0996  -13.4210   25.6566 C   0  0  2  0  0  0  0  0  0  0  0  0
    4.9507  -13.8920   26.4046 N   0  0  0  0  0  0  0  0  0  0  0  0
    6.7859  -14.5249   24.9489 C   0  0  0  0  0  0  0  0  0  0  0  0
    6.9327  -15.6519   25.5269 O   0  0  0  0  0  0  0  0  0  0  0  0
    7.3036  -14.4195   23.6456 N   0  0  0  0  0  0  0  0  0  0  0  0
    8.0405  -15.5367   22.9751 C   0  0  1  0  0  0  0  0  0  0  0  0
    8.1816  -15.0237   21.5846 C   0  0  0  0  0  0  0  0  0  0  0  0
    8.8770  -15.8267   20.5584 C   0  0  0  0  0  0  0  0  0  0  0  0
    8.1993  -17.1300   20.3046 C   0  0  0  0  0  0  0  0  0  0  0  0
    9.0265  -17.9234   19.2990 C   0  0  0  0  0  0  0  0  0  0  0  0
    8.3087  -19.1980   19.1526 N   0  0  0  0  0  0  0  0  0  0  0  0
    9.2079  -15.9109   23.7000 C   0  0  0  0  0  0  0  0  0  0  0  0
   10.0781  -15.0223   24.0253 O   0  0  0  0  0  0  0  0  0  0  0  0
    8.4269  -18.7130   26.8762 N   0  0  0  0  0  0  0  0  0  0  0  0
    9.7718  -18.2583   26.8426 C   0  0  0  0  0  0  0  0  0  0  0  0
   10.1443  -17.5036   27.7996 O   0  0  0  0  0  0  0  0  0  0  0  0
   10.6830  -18.6423   25.7591 C   0  0  0  0  0  0  0  0  0  0  0  0
   10.8446  -17.5064   24.7495 C   0  0  2  0  0  0  0  0  0  0  0  0
    9.5574  -17.2407   24.1585 N   0  0  0  0  0  0  0  0  0  0  0  0
   11.8633  -17.8846   23.7395 C   0  0  0  0  0  0  0  0  0  0  0  0
   11.6563  -18.0134   22.3970 O   0  0  0  0  0  0  0  0  0  0  0  0
   13.0405  -18.1064   24.1829 O   0  0  0  0  0  0  0  0  0  0  0  0
  2  1  1  6
  2  4  1  0
  3  2  1  0
  4  5  1  1
  6  4  1  0
  6  7  2  0
  8  6  1  0
  9  8  1  0
  9 10  1  6
 11 10  1  0
 12 11  1  0
 13 12  1  0
 13 14  1  0
 15  9  1  0
 16 15  2  0
 18 17  1  0
 18 20  1  0
 19 18  2  0
 21 20  1  1
 21 22  1  0
 22 15  1  0
 23 21  1  0
 24 23  1  0
 25 23  2  0
M  END
$$$$
