VKN.pdb
     RDKit          3D

 25 24  0  0  1  0  0  0  0  0999 V2000
    6.0569  -11.8623   27.2579 C   0  0  0  0  0  0  0  0  0  0  0  0
    6.9328  -12.6481   26.3397 C   0  0  1  0  0  0  0  0  0  0  0  0
    8.1912  -13.0610   27.0590 C   0  0  0  0  0  0  0  0  0  0  0  0
    6.2347  -13.8231   25.6985 C   0  0  2  0  0  0  0  0  0  0  0  0
    5.8495  -14.7868   26.7106 N   0  0  0  0  0  0  0  0  0  0  0  0
    7.0229  -14.4496   24.6136 C   0  0  0  0  0  0  0  0  0  0  0  0
    7.5571  -15.5924   24.7990 O   0  0  0  0  0  0  0  0  0  0  0  0
    7.2321  -13.8595   23.3544 N   0  0  0  0  0  0  0  0  0  0  0  0
    8.0862  -14.4886   22.2982 C   0  0  1  0  0  0  0  0  0  0  0  0
    7.8032  -13.6268   21.1176 C   0  0  0  0  0  0  0  0  0  0  0  0
    7.4687  -14.2325   19.8128 C   0  0  0  0  0  0  0  0  0  0  0  0
    8.1814  -13.5715   18.6826 C   0  0  0  0  0  0  0  0  0  0  0  0
    7.7214  -14.2077   17.3755 C   0  0  0  0  0  0  0  0  0  0  0  0
    8.4884  -13.5095   16.3336 N   0  0  0  0  0  0  0  0  0  0  0  0
    9.4324  -14.6514   22.7335 C   0  0  0  0  0  0  0  0  0  0  0  0
    9.9582  -13.7976   23.5381 O   0  0  0  0  0  0  0  0  0  0  0  0
   10.1349  -17.8766   26.7342 N   0  0  0  0  0  0  0  0  0  0  0  0
   10.7255  -17.7760   25.4466 C   0  0  0  0  0  0  0  0  0  0  0  0
   11.8681  -18.3206   25.2975 O   0  0  0  0  0  0  0  0  0  0  0  0
   10.0494  -17.0802   24.3464 C   0  0  0  0  0  0  0  0  0  0  0  0
   11.0621  -16.4510   23.3903 C   0  0  2  0  0  0  0  0  0  0  0  0
   10.3372  -15.7262   22.3774 N   0  0  0  0  0  0  0  0  0  0  0  0
   11.9258  -17.5124   22.8173 C   0  0  0  0  0  0  0  0  0  0  0  0
   11.5012  -18.6915   22.2779 O   0  0  0  0  0  0  0  0  0  0  0  0
   13.1829  -17.2867   22.8365 O   0  0  0  0  0  0  0  0  0  0  0  0
  2  1  1  1
  2  4  1  0
  3  2  1  0
  4  5  1  1
  6  4  1  0
  6  7  2  0
  8  6  1  0
  9  8  1  0
  9 10  1  6
 11 10  1  0
 12 11  1  0
 13 12  1  0
 13 14  1  0
 15  9  1  0
 16 15  2  0
 18 17  1  0
 18 20  1  0
 19 18  2  0
 21 20  1  1
 21 22  1  0
 22 15  1  0
 23 21  1  0
 24 23  1  0
 25 23  2  0
M  END
$$$$
