VKN.pdb
     RDKit          3D

 25 24  0  0  1  0  0  0  0  0999 V2000
    7.7163  -12.2056   20.6049 C   0  0  0  0  0  0  0  0  0  0  0  0
    8.0037  -13.2463   19.5743 C   0  0  1  0  0  0  0  0  0  0  0  0
    8.3865  -12.5886   18.2734 C   0  0  0  0  0  0  0  0  0  0  0  0
    9.0248  -14.2669   20.0157 C   0  0  2  0  0  0  0  0  0  0  0  0
    9.2957  -15.1986   18.9387 N   0  0  0  0  0  0  0  0  0  0  0  0
    8.6501  -14.9647   21.2661 C   0  0  0  0  0  0  0  0  0  0  0  0
    8.4375  -14.2905   22.3272 O   0  0  0  0  0  0  0  0  0  0  0  0
    8.5065  -16.3596   21.3733 N   0  0  0  0  0  0  0  0  0  0  0  0
    8.1540  -17.0399   22.6592 C   0  0  1  0  0  0  0  0  0  0  0  0
    7.3097  -18.1723   22.1888 C   0  0  0  0  0  0  0  0  0  0  0  0
    6.9923  -19.2949   23.0947 C   0  0  0  0  0  0  0  0  0  0  0  0
    6.1223  -20.3169   22.4460 C   0  0  0  0  0  0  0  0  0  0  0  0
    5.9017  -21.4641   23.4260 C   0  0  0  0  0  0  0  0  0  0  0  0
    5.2107  -22.4958   22.6388 N   0  0  0  0  0  0  0  0  0  0  0  0
    9.3085  -17.3137   23.4469 C   0  0  0  0  0  0  0  0  0  0  0  0
   10.3784  -17.7594   22.8908 O   0  0  0  0  0  0  0  0  0  0  0  0
   12.5672  -18.6656   27.2327 N   0  0  0  0  0  0  0  0  0  0  0  0
   11.3182  -18.3645   27.8375 C   0  0  0  0  0  0  0  0  0  0  0  0
   11.2212  -18.5840   29.0892 O   0  0  0  0  0  0  0  0  0  0  0  0
   10.1992  -17.8265   27.0565 C   0  0  0  0  0  0  0  0  0  0  0  0
   10.5837  -17.6649   25.5862 C   0  0  2  0  0  0  0  0  0  0  0  0
    9.4476  -17.1314   24.8781 N   0  0  0  0  0  0  0  0  0  0  0  0
   11.0241  -18.9738   25.0442 C   0  0  0  0  0  0  0  0  0  0  0  0
   12.2749  -19.2777   24.5916 O   0  0  0  0  0  0  0  0  0  0  0  0
   10.1386  -19.8936   25.0049 O   0  0  0  0  0  0  0  0  0  0  0  0
  2  1  1  1
  2  4  1  0
  3  2  1  0
  4  5  1  6
  6  4  1  0
  6  7  2  0
  8  6  1  0
  9  8  1  0
  9 10  1  6
 11 10  1  0
 12 11  1  0
 13 12  1  0
 13 14  1  0
 15  9  1  0
 16 15  2  0
 18 17  1  0
 18 20  1  0
 19 18  2  0
 21 20  1  1
 21 22  1  0
 22 15  1  0
 23 21  1  0
 24 23  1  0
 25 23  2  0
M  END
$$$$
