VKN.pdb
     RDKit          3D

 25 24  0  0  1  0  0  0  0  0999 V2000
    9.0119  -22.5896   18.7919 C   0  0  0  0  0  0  0  0  0  0  0  0
    9.4163  -21.1912   19.1217 C   0  0  1  0  0  0  0  0  0  0  0  0
   10.9182  -21.0701   19.0903 C   0  0  0  0  0  0  0  0  0  0  0  0
    8.7453  -20.1497   18.2591 C   0  0  2  0  0  0  0  0  0  0  0  0
    8.9922  -20.4287   16.8582 N   0  0  0  0  0  0  0  0  0  0  0  0
    9.1204  -18.7638   18.6187 C   0  0  0  0  0  0  0  0  0  0  0  0
   10.0727  -18.1854   17.9989 O   0  0  0  0  0  0  0  0  0  0  0  0
    8.4839  -18.0146   19.6244 N   0  0  0  0  0  0  0  0  0  0  0  0
    8.9323  -16.6412   20.0160 C   0  0  1  0  0  0  0  0  0  0  0  0
    7.6602  -16.0203   20.4774 C   0  0  0  0  0  0  0  0  0  0  0  0
    7.6026  -14.5778   20.7898 C   0  0  0  0  0  0  0  0  0  0  0  0
    8.1668  -13.7387   19.6945 C   0  0  0  0  0  0  0  0  0  0  0  0
    7.9872  -12.2698   20.0619 C   0  0  0  0  0  0  0  0  0  0  0  0
    8.5917  -11.5316   18.9435 N   0  0  0  0  0  0  0  0  0  0  0  0
   10.0477  -16.6807   20.9008 C   0  0  0  0  0  0  0  0  0  0  0  0
   10.0735  -17.5255   21.8694 O   0  0  0  0  0  0  0  0  0  0  0  0
   13.6431  -13.9051   19.2311 N   0  0  0  0  0  0  0  0  0  0  0  0
   13.7931  -15.0221   20.0951 C   0  0  0  0  0  0  0  0  0  0  0  0
   14.3102  -16.0712   19.5888 O   0  0  0  0  0  0  0  0  0  0  0  0
   13.3736  -14.9656   21.4996 C   0  0  0  0  0  0  0  0  0  0  0  0
   12.3022  -16.0146   21.7949 C   0  0  2  0  0  0  0  0  0  0  0  0
   11.2354  -15.8522   20.8397 N   0  0  0  0  0  0  0  0  0  0  0  0
   11.8355  -15.8632   23.1950 C   0  0  0  0  0  0  0  0  0  0  0  0
   10.5506  -15.6377   23.5950 O   0  0  0  0  0  0  0  0  0  0  0  0
   12.7317  -15.9561   24.1004 O   0  0  0  0  0  0  0  0  0  0  0  0
  2  1  1  6
  2  4  1  0
  3  2  1  0
  4  5  1  6
  6  4  1  0
  6  7  2  0
  8  6  1  0
  9  8  1  0
  9 10  1  1
 11 10  1  0
 12 11  1  0
 13 12  1  0
 13 14  1  0
 15  9  1  0
 16 15  2  0
 18 17  1  0
 18 20  1  0
 19 18  2  0
 21 20  1  6
 21 22  1  0
 22 15  1  0
 23 21  1  0
 24 23  1  0
 25 23  2  0
M  END
$$$$
