VKN.pdb
     RDKit          3D

 25 24  0  0  1  0  0  0  0  0999 V2000
    8.2807  -11.8421   19.7935 C   0  0  0  0  0  0  0  0  0  0  0  0
    8.6319  -13.1608   20.3977 C   0  0  1  0  0  0  0  0  0  0  0  0
    7.9395  -13.3172   21.7273 C   0  0  0  0  0  0  0  0  0  0  0  0
    8.3720  -14.3326   19.4819 C   0  0  2  0  0  0  0  0  0  0  0  0
    6.9791  -14.3522   19.0810 N   0  0  0  0  0  0  0  0  0  0  0  0
    8.7977  -15.6285   20.0566 C   0  0  0  0  0  0  0  0  0  0  0  0
    7.9498  -16.3574   20.6694 O   0  0  0  0  0  0  0  0  0  0  0  0
   10.1085  -16.1308   19.9735 N   0  0  0  0  0  0  0  0  0  0  0  0
   10.4954  -17.4741   20.5090 C   0  0  1  0  0  0  0  0  0  0  0  0
   11.2228  -18.0696   19.3546 C   0  0  0  0  0  0  0  0  0  0  0  0
   10.4770  -18.6816   18.2362 C   0  0  0  0  0  0  0  0  0  0  0  0
   11.3816  -19.2534   17.1985 C   0  0  0  0  0  0  0  0  0  0  0  0
   10.5303  -19.8637   16.0903 C   0  0  0  0  0  0  0  0  0  0  0  0
   11.5025  -20.3320   15.0918 N   0  0  0  0  0  0  0  0  0  0  0  0
   11.1535  -17.3725   21.7679 C   0  0  0  0  0  0  0  0  0  0  0  0
   12.0347  -16.4572   21.9635 O   0  0  0  0  0  0  0  0  0  0  0  0
   11.4679  -18.3529   27.6704 N   0  0  0  0  0  0  0  0  0  0  0  0
   11.9369  -18.8796   26.4378 C   0  0  0  0  0  0  0  0  0  0  0  0
   13.1224  -19.3475   26.4300 O   0  0  0  0  0  0  0  0  0  0  0  0
   11.0945  -18.8838   25.2369 C   0  0  0  0  0  0  0  0  0  0  0  0
   11.7013  -18.0125   24.1378 C   0  0  2  0  0  0  0  0  0  0  0  0
   10.9364  -18.2081   22.9322 N   0  0  0  0  0  0  0  0  0  0  0  0
   13.1321  -18.3634   23.9629 C   0  0  0  0  0  0  0  0  0  0  0  0
   14.1823  -17.8250   24.6477 O   0  0  0  0  0  0  0  0  0  0  0  0
   13.3898  -19.2558   23.0861 O   0  0  0  0  0  0  0  0  0  0  0  0
  2  1  1  6
  2  4  1  0
  3  2  1  0
  4  5  1  1
  6  4  1  0
  6  7  2  0
  8  6  1  0
  9  8  1  0
  9 10  1  6
 11 10  1  0
 12 11  1  0
 13 12  1  0
 13 14  1  0
 15  9  1  0
 16 15  2  0
 18 17  1  0
 18 20  1  0
 19 18  2  0
 21 20  1  1
 21 22  1  0
 22 15  1  0
 23 21  1  0
 24 23  1  0
 25 23  2  0
M  END
$$$$
