HFM.pdb
     RDKit          3D

 30 31  0  0  1  0  0  0  0  0999 V2000
   27.9921  -21.5565  -13.7694 N   0  0  0  0  0  0  0  0  0  0  0  0
   27.2487  -20.4817  -13.1553 C   0  0  1  0  0  0  0  0  0  0  0  0
   26.2305  -19.8892  -14.1308 C   0  0  0  0  0  0  0  0  0  0  0  0
   26.9982  -19.0920  -15.1204 C   0  0  0  0  0  0  0  0  0  0  0  0
   27.5562  -17.8378  -14.8688 C   0  0  0  0  0  0  0  0  0  0  0  0
   28.1709  -17.4492  -16.0200 N   0  0  0  0  0  0  0  0  0  0  0  0
   28.0167  -18.3917  -16.9469 C   0  0  0  0  0  0  0  0  0  0  0  0
   27.3061  -19.3851  -16.3989 N   0  0  0  0  0  0  0  0  0  0  0  0
   26.6068  -20.8813  -11.8906 C   0  0  0  0  0  0  0  0  0  0  0  0
   26.1053  -22.0282  -11.7765 O   0  0  0  0  0  0  0  0  0  0  0  0
   26.5718  -19.9522  -10.8268 N   0  0  0  0  0  0  0  0  0  0  0  0
   26.0188  -20.3599   -9.5153 C   0  0  1  0  0  0  0  0  0  0  0  0
   26.3836  -19.3337   -8.4999 C   0  0  0  0  0  0  0  0  0  0  0  0
   26.5377  -19.7644   -7.1209 C   0  0  0  0  0  0  0  0  0  0  0  0
   25.6313  -20.6911   -6.6068 C   0  0  0  0  0  0  0  0  0  0  0  0
   25.8209  -21.1223   -5.3199 C   0  0  0  0  0  0  0  0  0  0  0  0
   26.8625  -20.6885   -4.5033 C   0  0  0  0  0  0  0  0  0  0  0  0
   27.7256  -19.7682   -5.0767 C   0  0  0  0  0  0  0  0  0  0  0  0
   27.5949  -19.2927   -6.3604 C   0  0  0  0  0  0  0  0  0  0  0  0
   24.5615  -20.4248   -9.7211 C   0  0  0  0  0  0  0  0  0  0  0  0
   24.0322  -19.6845  -10.6251 O   0  0  0  0  0  0  0  0  0  0  0  0
   19.5073  -24.0106   -7.2438 C   0  0  0  0  0  0  0  0  0  0  0  0
   20.2672  -22.7517   -6.1858 S   0  0  0  0  0  0  0  0  0  0  0  0
   21.2662  -21.6617   -7.2259 C   0  0  0  0  0  0  0  0  0  0  0  0
   21.6004  -22.4068   -8.5092 C   0  0  0  0  0  0  0  0  0  0  0  0
   22.3144  -21.3818   -9.4138 C   0  0  2  0  0  0  0  0  0  0  0  0
   23.6847  -21.2862   -8.9644 N   0  0  0  0  0  0  0  0  0  0  0  0
   21.6269  -20.1089   -9.2319 C   0  0  0  0  0  0  0  0  0  0  0  0
   22.0901  -19.1951   -8.5336 O   0  0  0  0  0  0  0  0  0  0  0  0
   20.3899  -19.9255   -9.8811 O   0  0  0  0  0  0  0  0  0  0  0  0
  2  1  1  6
  2  3  1  0
  3  4  1  0
  4  5  2  0
  5  6  1  0
  7  6  1  0
  8  4  1  0
  8  7  2  0
  9  2  1  0
  9 11  1  0
 10  9  2  0
 12 11  1  0
 12 13  1  1
 13 14  1  0
 14 15  2  0
 14 19  1  0
 15 16  1  0
 16 17  2  0
 18 17  1  0
 19 18  2  0
 20 12  1  0
 21 20  2  0
 22 23  1  0
 24 23  1  0
 25 24  1  0
 26 25  1  1
 26 27  1  0
 26 28  1  0
 27 20  1  0
 28 30  1  0
 29 28  2  0
M  END
$$$$
