HFM.pdb
     RDKit          3D

 30 31  0  0  1  0  0  0  0  0999 V2000
   27.7493  -21.7867  -16.7384 N   0  0  0  0  0  0  0  0  0  0  0  0
   27.2270  -20.7033  -15.9394 C   0  0  1  0  0  0  0  0  0  0  0  0
   26.0953  -19.9775  -16.6688 C   0  0  0  0  0  0  0  0  0  0  0  0
   26.7163  -19.2398  -17.7977 C   0  0  0  0  0  0  0  0  0  0  0  0
   27.2500  -17.9535  -17.7082 C   0  0  0  0  0  0  0  0  0  0  0  0
   27.7168  -17.6404  -18.9484 N   0  0  0  0  0  0  0  0  0  0  0  0
   27.4967  -18.6585  -19.7769 C   0  0  0  0  0  0  0  0  0  0  0  0
   26.8907  -19.6254  -19.0769 N   0  0  0  0  0  0  0  0  0  0  0  0
   26.8049  -21.1367  -14.5958 C   0  0  0  0  0  0  0  0  0  0  0  0
   26.4141  -22.3171  -14.4113 O   0  0  0  0  0  0  0  0  0  0  0  0
   26.8514  -20.2017  -13.5378 N   0  0  0  0  0  0  0  0  0  0  0  0
   26.6023  -20.6522  -12.1497 C   0  0  1  0  0  0  0  0  0  0  0  0
   27.4237  -19.8267  -11.2217 C   0  0  0  0  0  0  0  0  0  0  0  0
   27.2451  -20.0255   -9.7936 C   0  0  0  0  0  0  0  0  0  0  0  0
   28.0678  -20.9425   -9.1402 C   0  0  0  0  0  0  0  0  0  0  0  0
   27.9178  -21.0813   -7.7852 C   0  0  0  0  0  0  0  0  0  0  0  0
   26.9950  -20.3613   -7.0303 C   0  0  0  0  0  0  0  0  0  0  0  0
   26.2100  -19.4683   -7.7423 C   0  0  0  0  0  0  0  0  0  0  0  0
   26.3067  -19.2786   -9.1008 C   0  0  0  0  0  0  0  0  0  0  0  0
   25.1607  -20.4386  -11.9338 C   0  0  0  0  0  0  0  0  0  0  0  0
   24.6343  -20.8440  -10.8366 O   0  0  0  0  0  0  0  0  0  0  0  0
   21.4307  -18.7603  -17.6557 C   0  0  0  0  0  0  0  0  0  0  0  0
   21.5601  -20.0712  -16.4122 S   0  0  0  0  0  0  0  0  0  0  0  0
   22.0295  -19.3176  -14.8375 C   0  0  0  0  0  0  0  0  0  0  0  0
   22.1607  -20.4248  -13.8028 C   0  0  0  0  0  0  0  0  0  0  0  0
   22.8815  -19.7872  -12.5975 C   0  0  2  0  0  0  0  0  0  0  0  0
   24.2971  -19.7864  -12.8889 N   0  0  0  0  0  0  0  0  0  0  0  0
   22.5979  -20.6311  -11.4428 C   0  0  0  0  0  0  0  0  0  0  0  0
   22.1129  -20.1835  -10.3932 O   0  0  0  0  0  0  0  0  0  0  0  0
   22.8917  -22.0058  -11.5389 O   0  0  0  0  0  0  0  0  0  0  0  0
  2  1  1  6
  2  3  1  0
  3  4  1  0
  4  5  2  0
  5  6  1  0
  7  6  1  0
  8  4  1  0
  8  7  2  0
  9  2  1  0
  9 11  1  0
 10  9  2  0
 12 11  1  0
 12 13  1  1
 13 14  1  0
 14 15  2  0
 14 19  1  0
 15 16  1  0
 16 17  2  0
 18 17  1  0
 19 18  2  0
 20 12  1  0
 21 20  2  0
 22 23  1  0
 24 23  1  0
 25 24  1  0
 26 25  1  6
 26 27  1  0
 26 28  1  0
 27 20  1  0
 28 30  1  0
 29 28  2  0
M  END
$$$$
