HFM.pdb
     RDKit          3D

 30 31  0  0  1  0  0  0  0  0999 V2000
   26.0563  -21.3472  -13.5148 N   0  0  0  0  0  0  0  0  0  0  0  0
   25.2925  -20.6252  -12.5247 C   0  0  1  0  0  0  0  0  0  0  0  0
   23.7935  -20.7093  -12.8170 C   0  0  0  0  0  0  0  0  0  0  0  0
   23.5702  -20.0220  -14.1140 C   0  0  0  0  0  0  0  0  0  0  0  0
   23.3682  -18.6490  -14.2609 C   0  0  0  0  0  0  0  0  0  0  0  0
   23.2043  -18.4218  -15.5935 N   0  0  0  0  0  0  0  0  0  0  0  0
   23.2953  -19.5728  -16.2556 C   0  0  0  0  0  0  0  0  0  0  0  0
   23.5169  -20.5397  -15.3567 N   0  0  0  0  0  0  0  0  0  0  0  0
   25.5929  -21.0542  -11.1474 C   0  0  0  0  0  0  0  0  0  0  0  0
   25.4718  -22.2634  -10.8265 O   0  0  0  0  0  0  0  0  0  0  0  0
   26.0143  -20.0821  -10.2128 N   0  0  0  0  0  0  0  0  0  0  0  0
   26.3646  -20.4936   -8.8345 C   0  0  1  0  0  0  0  0  0  0  0  0
   27.2888  -19.4822   -8.2511 C   0  0  0  0  0  0  0  0  0  0  0  0
   27.7599  -19.6929   -6.8930 C   0  0  0  0  0  0  0  0  0  0  0  0
   27.5056  -18.7081   -5.9390 C   0  0  0  0  0  0  0  0  0  0  0  0
   27.9146  -18.9456   -4.6528 C   0  0  0  0  0  0  0  0  0  0  0  0
   28.5657  -20.1088   -4.2494 C   0  0  0  0  0  0  0  0  0  0  0  0
   28.7866  -21.0447   -5.2474 C   0  0  0  0  0  0  0  0  0  0  0  0
   28.4039  -20.8722   -6.5568 C   0  0  0  0  0  0  0  0  0  0  0  0
   25.0810  -20.5352   -8.1126 C   0  0  0  0  0  0  0  0  0  0  0  0
   24.2227  -19.6062   -8.3258 O   0  0  0  0  0  0  0  0  0  0  0  0
   18.8034  -24.0701   -5.6287 C   0  0  0  0  0  0  0  0  0  0  0  0
   20.5110  -24.2940   -6.1906 S   0  0  0  0  0  0  0  0  0  0  0  0
   21.3585  -22.7007   -6.0847 C   0  0  0  0  0  0  0  0  0  0  0  0
   22.7347  -22.8535   -6.7142 C   0  0  0  0  0  0  0  0  0  0  0  0
   23.4188  -21.4796   -6.5619 C   0  0  2  0  0  0  0  0  0  0  0  0
   24.7237  -21.5737   -7.1760 N   0  0  0  0  0  0  0  0  0  0  0  0
   23.5442  -21.2280   -5.1311 C   0  0  0  0  0  0  0  0  0  0  0  0
   22.6475  -20.6854   -4.4688 O   0  0  0  0  0  0  0  0  0  0  0  0
   24.7359  -21.6226   -4.4912 O   0  0  0  0  0  0  0  0  0  0  0  0
  2  1  1  6
  2  3  1  0
  3  4  1  0
  4  5  2  0
  5  6  1  0
  7  6  1  0
  8  4  1  0
  8  7  2  0
  9  2  1  0
  9 11  1  0
 10  9  2  0
 12 11  1  0
 12 13  1  1
 13 14  1  0
 14 15  2  0
 14 19  1  0
 15 16  1  0
 16 17  2  0
 18 17  1  0
 19 18  2  0
 20 12  1  0
 21 20  2  0
 22 23  1  0
 24 23  1  0
 25 24  1  0
 26 25  1  1
 26 27  1  0
 26 28  1  0
 27 20  1  0
 28 30  1  0
 29 28  2  0
M  END
$$$$
