HFM.pdb
     RDKit          3D

 30 31  0  0  1  0  0  0  0  0999 V2000
   25.7932  -21.0693  -13.4223 N   0  0  0  0  0  0  0  0  0  0  0  0
   25.5757  -20.0926  -12.3812 C   0  0  1  0  0  0  0  0  0  0  0  0
   24.4295  -19.1471  -12.7443 C   0  0  0  0  0  0  0  0  0  0  0  0
   24.7693  -18.5461  -14.0587 C   0  0  0  0  0  0  0  0  0  0  0  0
   24.4901  -19.1300  -15.2951 C   0  0  0  0  0  0  0  0  0  0  0  0
   24.9565  -18.2713  -16.2434 N   0  0  0  0  0  0  0  0  0  0  0  0
   25.4983  -17.2084  -15.6535 C   0  0  0  0  0  0  0  0  0  0  0  0
   25.3833  -17.3780  -14.3306 N   0  0  0  0  0  0  0  0  0  0  0  0
   25.3633  -20.7059  -11.0584 C   0  0  0  0  0  0  0  0  0  0  0  0
   24.5024  -21.6108  -10.9172 O   0  0  0  0  0  0  0  0  0  0  0  0
   26.1432  -20.2541   -9.9703 N   0  0  0  0  0  0  0  0  0  0  0  0
   26.4020  -21.1596   -8.8280 C   0  0  1  0  0  0  0  0  0  0  0  0
   27.7430  -20.8470   -8.2611 C   0  0  0  0  0  0  0  0  0  0  0  0
   27.7990  -20.1745   -6.9744 C   0  0  0  0  0  0  0  0  0  0  0  0
   28.0160  -20.9417   -5.8303 C   0  0  0  0  0  0  0  0  0  0  0  0
   28.1142  -20.2851   -4.6315 C   0  0  0  0  0  0  0  0  0  0  0  0
   28.0098  -18.9030   -4.4946 C   0  0  0  0  0  0  0  0  0  0  0  0
   27.7943  -18.2023   -5.6707 C   0  0  0  0  0  0  0  0  0  0  0  0
   27.6854  -18.7958   -6.9063 C   0  0  0  0  0  0  0  0  0  0  0  0
   25.3256  -20.8723   -7.8640 C   0  0  0  0  0  0  0  0  0  0  0  0
   25.0458  -19.6492   -7.5978 O   0  0  0  0  0  0  0  0  0  0  0  0
   20.2715  -24.4101   -6.6853 C   0  0  0  0  0  0  0  0  0  0  0  0
   19.9155  -23.1361   -5.4477 S   0  0  0  0  0  0  0  0  0  0  0  0
   21.3361  -22.0221   -5.3529 C   0  0  0  0  0  0  0  0  0  0  0  0
   22.3618  -22.4738   -6.3812 C   0  0  0  0  0  0  0  0  0  0  0  0
   23.5112  -21.4484   -6.3033 C   0  0  2  0  0  0  0  0  0  0  0  0
   24.5531  -21.8949   -7.1999 N   0  0  0  0  0  0  0  0  0  0  0  0
   23.9866  -21.4528   -4.9248 C   0  0  0  0  0  0  0  0  0  0  0  0
   24.8628  -22.2333   -4.5245 O   0  0  0  0  0  0  0  0  0  0  0  0
   23.4189  -20.5285   -4.0255 O   0  0  0  0  0  0  0  0  0  0  0  0
  2  1  1  6
  2  3  1  0
  3  4  1  0
  4  5  2  0
  5  6  1  0
  7  6  1  0
  8  4  1  0
  8  7  2  0
  9  2  1  0
  9 11  1  0
 10  9  2  0
 12 11  1  0
 12 13  1  1
 13 14  1  0
 14 15  2  0
 14 19  1  0
 15 16  1  0
 16 17  2  0
 18 17  1  0
 19 18  2  0
 20 12  1  0
 21 20  2  0
 22 23  1  0
 24 23  1  0
 25 24  1  0
 26 25  1  1
 26 27  1  0
 26 28  1  0
 27 20  1  0
 28 30  1  0
 29 28  2  0
M  END
$$$$
