HFM.pdb
     RDKit          3D

 30 31  0  0  1  0  0  0  0  0999 V2000
   15.4965  -20.3440    1.2526 N   0  0  0  0  0  0  0  0  0  0  0  0
   15.3637  -20.1150    2.6720 C   0  0  1  0  0  0  0  0  0  0  0  0
   14.8552  -21.3682    3.3865 C   0  0  0  0  0  0  0  0  0  0  0  0
   13.5202  -21.6763    2.8144 C   0  0  0  0  0  0  0  0  0  0  0  0
   12.4167  -20.8238    2.8688 C   0  0  0  0  0  0  0  0  0  0  0  0
   11.3974  -21.4684    2.2366 N   0  0  0  0  0  0  0  0  0  0  0  0
   11.8202  -22.6547    1.8061 C   0  0  0  0  0  0  0  0  0  0  0  0
   13.1061  -22.7774    2.1576 N   0  0  0  0  0  0  0  0  0  0  0  0
   16.6054  -19.6156    3.2884 C   0  0  0  0  0  0  0  0  0  0  0  0
   17.7196  -20.0257    2.8759 O   0  0  0  0  0  0  0  0  0  0  0  0
   16.5086  -18.6774    4.3403 N   0  0  0  0  0  0  0  0  0  0  0  0
   17.7393  -18.0759    4.9018 C   0  0  1  0  0  0  0  0  0  0  0  0
   17.5117  -16.6188    5.1074 C   0  0  0  0  0  0  0  0  0  0  0  0
   17.9147  -15.7100    4.0479 C   0  0  0  0  0  0  0  0  0  0  0  0
   18.5399  -16.2381    2.9188 C   0  0  0  0  0  0  0  0  0  0  0  0
   18.8692  -15.3725    1.9087 C   0  0  0  0  0  0  0  0  0  0  0  0
   18.6150  -14.0037    1.9481 C   0  0  0  0  0  0  0  0  0  0  0  0
   17.9921  -13.5462    3.0985 C   0  0  0  0  0  0  0  0  0  0  0  0
   17.6345  -14.3574    4.1496 C   0  0  0  0  0  0  0  0  0  0  0  0
   17.9557  -18.7764    6.1796 C   0  0  0  0  0  0  0  0  0  0  0  0
   16.9371  -19.0755    6.8996 O   0  0  0  0  0  0  0  0  0  0  0  0
   20.4525  -24.5680    5.6601 C   0  0  0  0  0  0  0  0  0  0  0  0
   21.0985  -23.2901    6.7697 S   0  0  0  0  0  0  0  0  0  0  0  0
   19.8587  -21.9825    6.9147 C   0  0  0  0  0  0  0  0  0  0  0  0
   20.4006  -20.9181    7.8565 C   0  0  0  0  0  0  0  0  0  0  0  0
   19.3013  -19.8399    7.9454 C   0  0  2  0  0  0  0  0  0  0  0  0
   19.2578  -19.1579    6.6719 N   0  0  0  0  0  0  0  0  0  0  0  0
   19.6987  -18.9199    9.0046 C   0  0  0  0  0  0  0  0  0  0  0  0
   20.0867  -17.7652    8.7735 O   0  0  0  0  0  0  0  0  0  0  0  0
   19.6336  -19.3752   10.3364 O   0  0  0  0  0  0  0  0  0  0  0  0
  2  1  1  6
  2  3  1  0
  3  4  1  0
  4  5  2  0
  5  6  1  0
  7  6  1  0
  8  4  1  0
  8  7  2  0
  9  2  1  0
  9 11  1  0
 10  9  2  0
 12 11  1  0
 12 13  1  1
 13 14  1  0
 14 15  2  0
 14 19  1  0
 15 16  1  0
 16 17  2  0
 18 17  1  0
 19 18  2  0
 20 12  1  0
 21 20  2  0
 22 23  1  0
 24 23  1  0
 25 24  1  0
 26 25  1  6
 26 27  1  0
 26 28  1  0
 27 20  1  0
 28 30  1  0
 29 28  2  0
M  END
$$$$
