HFM.pdb
     RDKit          3D

 30 31  0  0  1  0  0  0  0  0999 V2000
   25.4317  -20.6049  -16.3249 N   0  0  0  0  0  0  0  0  0  0  0  0
   25.3630  -20.0140  -15.0092 C   0  0  1  0  0  0  0  0  0  0  0  0
   23.9116  -19.7901  -14.5815 C   0  0  0  0  0  0  0  0  0  0  0  0
   23.3132  -18.8555  -15.5677 C   0  0  0  0  0  0  0  0  0  0  0  0
   22.2262  -19.1568  -16.3894 C   0  0  0  0  0  0  0  0  0  0  0  0
   21.9881  -18.0459  -17.1400 N   0  0  0  0  0  0  0  0  0  0  0  0
   22.8643  -17.0965  -16.8201 C   0  0  0  0  0  0  0  0  0  0  0  0
   23.6652  -17.5900  -15.8678 N   0  0  0  0  0  0  0  0  0  0  0  0
   26.1049  -20.7862  -13.9970 C   0  0  0  0  0  0  0  0  0  0  0  0
   25.7829  -21.9772  -13.7562 O   0  0  0  0  0  0  0  0  0  0  0  0
   27.1717  -20.1589  -13.3155 N   0  0  0  0  0  0  0  0  0  0  0  0
   27.9673  -20.9286  -12.3326 C   0  0  1  0  0  0  0  0  0  0  0  0
   29.3434  -20.3620  -12.2787 C   0  0  0  0  0  0  0  0  0  0  0  0
   30.2832  -20.9435  -11.3356 C   0  0  0  0  0  0  0  0  0  0  0  0
   30.4353  -20.3394  -10.0880 C   0  0  0  0  0  0  0  0  0  0  0  0
   31.2898  -20.9295   -9.1937 C   0  0  0  0  0  0  0  0  0  0  0  0
   32.0094  -22.0916   -9.4613 C   0  0  0  0  0  0  0  0  0  0  0  0
   31.8114  -22.6388  -10.7190 C   0  0  0  0  0  0  0  0  0  0  0  0
   30.9705  -22.1002  -11.6644 C   0  0  0  0  0  0  0  0  0  0  0  0
   27.2595  -20.7559  -11.0521 C   0  0  0  0  0  0  0  0  0  0  0  0
   26.8753  -19.5800  -10.7131 O   0  0  0  0  0  0  0  0  0  0  0  0
   29.5662  -20.6838   -5.4820 C   0  0  0  0  0  0  0  0  0  0  0  0
   28.1247  -19.6104   -5.7095 S   0  0  0  0  0  0  0  0  0  0  0  0
   26.8990  -20.5043   -6.6925 C   0  0  0  0  0  0  0  0  0  0  0  0
   27.4563  -20.6826   -8.0965 C   0  0  0  0  0  0  0  0  0  0  0  0
   26.3939  -21.4916   -8.8683 C   0  0  2  0  0  0  0  0  0  0  0  0
   26.9618  -21.8427  -10.1501 N   0  0  0  0  0  0  0  0  0  0  0  0
   25.2419  -20.6149   -9.0427 C   0  0  0  0  0  0  0  0  0  0  0  0
   25.2741  -19.6077   -9.7650 O   0  0  0  0  0  0  0  0  0  0  0  0
   24.0538  -20.9381   -8.3575 O   0  0  0  0  0  0  0  0  0  0  0  0
  2  1  1  6
  2  3  1  0
  3  4  1  0
  4  5  2  0
  5  6  1  0
  7  6  1  0
  8  4  1  0
  8  7  2  0
  9  2  1  0
  9 11  1  0
 10  9  2  0
 12 11  1  0
 12 13  1  1
 13 14  1  0
 14 15  2  0
 14 19  1  0
 15 16  1  0
 16 17  2  0
 18 17  1  0
 19 18  2  0
 20 12  1  0
 21 20  2  0
 22 23  1  0
 24 23  1  0
 25 24  1  0
 26 25  1  1
 26 27  1  0
 26 28  1  0
 27 20  1  0
 28 30  1  0
 29 28  2  0
M  END
$$$$
