HFM.pdb
     RDKit          3D

 30 31  0  0  1  0  0  0  0  0999 V2000
   23.8112  -20.5467  -16.8453 N   0  0  0  0  0  0  0  0  0  0  0  0
   23.4505  -20.5323  -15.4472 C   0  0  1  0  0  0  0  0  0  0  0  0
   22.2630  -21.4572  -15.1756 C   0  0  0  0  0  0  0  0  0  0  0  0
   21.0890  -20.8604  -15.8610 C   0  0  0  0  0  0  0  0  0  0  0  0
   21.1158  -19.6729  -16.5935 C   0  0  0  0  0  0  0  0  0  0  0  0
   19.8505  -19.4740  -17.0558 N   0  0  0  0  0  0  0  0  0  0  0  0
   19.0659  -20.4681  -16.6466 C   0  0  0  0  0  0  0  0  0  0  0  0
   19.8189  -21.3059  -15.9234 N   0  0  0  0  0  0  0  0  0  0  0  0
   24.5855  -20.8463  -14.5615 C   0  0  0  0  0  0  0  0  0  0  0  0
   25.3325  -21.8233  -14.8213 O   0  0  0  0  0  0  0  0  0  0  0  0
   24.8061  -20.0303  -13.4295 N   0  0  0  0  0  0  0  0  0  0  0  0
   26.0226  -20.2278  -12.6092 C   0  0  1  0  0  0  0  0  0  0  0  0
   26.8356  -18.9808  -12.6470 C   0  0  0  0  0  0  0  0  0  0  0  0
   27.3710  -18.5551  -13.9288 C   0  0  0  0  0  0  0  0  0  0  0  0
   26.8393  -17.4132  -14.5272 C   0  0  0  0  0  0  0  0  0  0  0  0
   27.3895  -16.9991  -15.7120 C   0  0  0  0  0  0  0  0  0  0  0  0
   28.4434  -17.6521  -16.3465 C   0  0  0  0  0  0  0  0  0  0  0  0
   28.9232  -18.7789  -15.6980 C   0  0  0  0  0  0  0  0  0  0  0  0
   28.4191  -19.2505  -14.5087 C   0  0  0  0  0  0  0  0  0  0  0  0
   25.5240  -20.5089  -11.2517 C   0  0  0  0  0  0  0  0  0  0  0  0
   24.6195  -19.7462  -10.7562 O   0  0  0  0  0  0  0  0  0  0  0  0
   28.2071  -18.1730   -7.4373 C   0  0  0  0  0  0  0  0  0  0  0  0
   27.7145  -19.3782   -6.1778 S   0  0  0  0  0  0  0  0  0  0  0  0
   26.5568  -20.5457   -6.9292 C   0  0  0  0  0  0  0  0  0  0  0  0
   26.7640  -20.5150   -8.4358 C   0  0  0  0  0  0  0  0  0  0  0  0
   25.7480  -21.5188   -9.0179 C   0  0  2  0  0  0  0  0  0  0  0  0
   25.9909  -21.6073  -10.4399 N   0  0  0  0  0  0  0  0  0  0  0  0
   24.4210  -20.9725   -8.7592 C   0  0  0  0  0  0  0  0  0  0  0  0
   23.7684  -21.2593   -7.7449 O   0  0  0  0  0  0  0  0  0  0  0  0
   23.8733  -20.0859   -9.7076 O   0  0  0  0  0  0  0  0  0  0  0  0
  2  1  1  6
  2  3  1  0
  3  4  1  0
  4  5  2  0
  5  6  1  0
  7  6  1  0
  8  4  1  0
  8  7  2  0
  9  2  1  0
  9 11  1  0
 10  9  2  0
 12 11  1  0
 12 13  1  1
 13 14  1  0
 14 15  2  0
 14 19  1  0
 15 16  1  0
 16 17  2  0
 18 17  1  0
 19 18  2  0
 20 12  1  0
 21 20  2  0
 22 23  1  0
 24 23  1  0
 25 24  1  0
 26 25  1  1
 26 27  1  0
 26 28  1  0
 27 20  1  0
 28 30  1  0
 29 28  2  0
M  END
$$$$
