MPD.pdb
     RDKit          3D

 24 24  0  0  1  0  0  0  0  0999 V2000
   28.1572  -12.4376  -15.7814 C   0  0  0  0  0  0  0  0  0  0  0  0
   27.6641  -13.9409  -16.6727 S   0  0  0  0  0  0  0  0  0  0  0  0
   25.8946  -14.2688  -16.4725 C   0  0  0  0  0  0  0  0  0  0  0  0
   25.1100  -12.9965  -16.2465 C   0  0  0  0  0  0  0  0  0  0  0  0
   23.6402  -13.3659  -16.2113 C   0  0  2  0  0  0  0  0  0  0  0  0
   23.3256  -14.0539  -17.4156 N   0  0  0  0  0  0  0  0  0  0  0  0
   22.7804  -12.2431  -15.8529 C   0  0  0  0  0  0  0  0  0  0  0  0
   22.1431  -11.7075  -16.8290 O   0  0  0  0  0  0  0  0  0  0  0  0
   22.5708  -11.6853  -14.5771 N   0  0  0  0  0  0  0  0  0  0  0  0
   23.1551  -11.9563  -13.2841 C   0  0  0  0  0  0  0  0  0  0  0  0
   21.8963  -12.0134  -12.4051 C   0  0  0  0  0  0  0  0  0  0  0  0
   21.1944  -10.7521  -12.8635 C   0  0  0  0  0  0  0  0  0  0  0  0
   21.6121  -10.6027  -14.2880 C   0  0  1  0  0  0  0  0  0  0  0  0
   22.1501   -9.2903  -14.6495 C   0  0  0  0  0  0  0  0  0  0  0  0
   23.4023   -9.1684  -14.8153 O   0  0  0  0  0  0  0  0  0  0  0  0
   21.3836   -8.1074  -14.8380 N   0  0  0  0  0  0  0  0  0  0  0  0
   22.0294   -6.8348  -15.1826 C   0  0  1  0  0  0  0  0  0  0  0  0
   21.2575   -6.2090  -16.3223 C   0  0  0  0  0  0  0  0  0  0  0  0
   21.9370   -4.9534  -16.7368 C   0  0  0  0  0  0  0  0  0  0  0  0
   23.0341   -4.5744  -16.2622 O   0  0  0  0  0  0  0  0  0  0  0  0
   22.0164   -5.9073  -14.0340 C   0  0  0  0  0  0  0  0  0  0  0  0
   21.1591   -5.9742  -13.1196 O   0  0  0  0  0  0  0  0  0  0  0  0
   21.3611   -4.1170  -17.7046 O   0  0  0  0  0  0  0  0  0  0  0  0
   22.9817   -4.9286  -13.9585 O   0  0  0  0  0  0  0  0  0  0  0  0
  1  2  1  0
  3  2  1  0
  4  3  1  0
  5  7  1  0
  5  4  1  0
  5  6  1  6
  7  8  2  0
  9 13  1  0
  9  7  1  0
 10 11  1  0
 10  9  1  0
 11 12  1  0
 12 13  1  0
 13 14  1  1
 14 15  2  0
 16 14  1  0
 17 16  1  0
 17 21  1  0
 17 18  1  6
 19 20  2  0
 19 18  1  0
 21 24  1  0
 22 21  2  0
 23 19  1  0
M  END
$$$$
