MPD.pdb
     RDKit          3D

 24 24  0  0  1  0  0  0  0  0999 V2000
   18.3684  -18.2235   11.1375 C   0  0  0  0  0  0  0  0  0  0  0  0
   16.9199  -17.2123   10.7172 S   0  0  0  0  0  0  0  0  0  0  0  0
   16.8017  -16.9509    8.9294 C   0  0  0  0  0  0  0  0  0  0  0  0
   18.0995  -16.4356    8.3503 C   0  0  0  0  0  0  0  0  0  0  0  0
   17.9088  -16.2963    6.8529 C   0  0  2  0  0  0  0  0  0  0  0  0
   16.7083  -15.5693    6.6232 N   0  0  0  0  0  0  0  0  0  0  0  0
   18.0567  -17.5611    6.1411 C   0  0  0  0  0  0  0  0  0  0  0  0
   17.0523  -17.9056    5.4212 O   0  0  0  0  0  0  0  0  0  0  0  0
   19.1591  -18.4372    6.1516 N   0  0  0  0  0  0  0  0  0  0  0  0
   20.3872  -18.4536    6.9119 C   0  0  0  0  0  0  0  0  0  0  0  0
   21.4117  -18.7226    5.7991 C   0  0  0  0  0  0  0  0  0  0  0  0
   20.7388  -19.8810    5.0925 C   0  0  0  0  0  0  0  0  0  0  0  0
   19.2820  -19.6324    5.2964 C   0  0  1  0  0  0  0  0  0  0  0  0
   18.5216  -20.7631    5.8312 C   0  0  0  0  0  0  0  0  0  0  0  0
   18.2444  -20.7813    7.0694 O   0  0  0  0  0  0  0  0  0  0  0  0
   18.0511  -21.8724    5.0761 N   0  0  0  0  0  0  0  0  0  0  0  0
   17.3101  -22.9648    5.7186 C   0  0  1  0  0  0  0  0  0  0  0  0
   16.0324  -23.1875    4.9414 C   0  0  0  0  0  0  0  0  0  0  0  0
   15.2781  -24.3099    5.5589 C   0  0  0  0  0  0  0  0  0  0  0  0
   15.6863  -24.9468    6.5590 O   0  0  0  0  0  0  0  0  0  0  0  0
   18.0963  -24.2144    5.7087 C   0  0  0  0  0  0  0  0  0  0  0  0
   19.0323  -24.4187    4.8978 O   0  0  0  0  0  0  0  0  0  0  0  0
   14.0422  -24.7137    5.0321 O   0  0  0  0  0  0  0  0  0  0  0  0
   17.7945  -25.1973    6.6242 O   0  0  0  0  0  0  0  0  0  0  0  0
  1  2  1  0
  3  2  1  0
  4  3  1  0
  5  7  1  0
  5  4  1  0
  5  6  1  1
  7  8  2  0
  9 13  1  0
  9  7  1  0
 10 11  1  0
 10  9  1  0
 11 12  1  0
 12 13  1  0
 13 14  1  1
 14 15  2  0
 16 14  1  0
 17 16  1  0
 17 21  1  0
 17 18  1  6
 19 20  2  0
 19 18  1  0
 21 24  1  0
 22 21  2  0
 23 19  1  0
M  END
$$$$
