MPD.pdb
     RDKit          3D

 24 24  0  0  1  0  0  0  0  0999 V2000
   24.1781  -11.6900  -21.1046 C   0  0  0  0  0  0  0  0  0  0  0  0
   22.3830  -11.8474  -21.3293 S   0  0  0  0  0  0  0  0  0  0  0  0
   21.5767  -12.3793  -19.7979 C   0  0  0  0  0  0  0  0  0  0  0  0
   21.4530  -11.2457  -18.8055 C   0  0  0  0  0  0  0  0  0  0  0  0
   20.8511  -11.8134  -17.5354 C   0  0  2  0  0  0  0  0  0  0  0  0
   19.5658  -12.3362  -17.8475 N   0  0  0  0  0  0  0  0  0  0  0  0
   20.9283  -10.8908  -16.4080 C   0  0  0  0  0  0  0  0  0  0  0  0
   19.8792  -10.1798  -16.2087 O   0  0  0  0  0  0  0  0  0  0  0  0
   22.0062  -10.6916  -15.5240 N   0  0  0  0  0  0  0  0  0  0  0  0
   23.3209  -11.2836  -15.4370 C   0  0  0  0  0  0  0  0  0  0  0  0
   23.4002  -11.5900  -13.9336 C   0  0  0  0  0  0  0  0  0  0  0  0
   22.9372  -10.2639  -13.3672 C   0  0  0  0  0  0  0  0  0  0  0  0
   21.9960   -9.7385  -14.3987 C   0  0  1  0  0  0  0  0  0  0  0  0
   22.2555   -8.3687  -14.8449 C   0  0  0  0  0  0  0  0  0  0  0  0
   22.6660   -8.1805  -16.0309 O   0  0  0  0  0  0  0  0  0  0  0  0
   22.0869   -7.1978  -14.0560 N   0  0  0  0  0  0  0  0  0  0  0  0
   22.1555   -5.8619  -14.6611 C   0  0  1  0  0  0  0  0  0  0  0  0
   21.1022   -5.7808  -15.7429 C   0  0  0  0  0  0  0  0  0  0  0  0
   21.1403   -4.4274  -16.3568 C   0  0  0  0  0  0  0  0  0  0  0  0
   22.1737   -3.7183  -16.3984 O   0  0  0  0  0  0  0  0  0  0  0  0
   21.8879   -4.8126  -13.6576 C   0  0  0  0  0  0  0  0  0  0  0  0
   22.4828   -3.7074  -13.6588 O   0  0  0  0  0  0  0  0  0  0  0  0
   19.9872   -3.8725  -16.9318 O   0  0  0  0  0  0  0  0  0  0  0  0
   20.9487   -5.0516  -12.6797 O   0  0  0  0  0  0  0  0  0  0  0  0
  1  2  1  0
  3  2  1  0
  4  3  1  0
  5  7  1  0
  5  4  1  0
  5  6  1  6
  7  8  2  0
  9 13  1  0
  9  7  1  0
 10 11  1  0
 10  9  1  0
 11 12  1  0
 12 13  1  0
 13 14  1  6
 14 15  2  0
 16 14  1  0
 17 16  1  0
 17 21  1  0
 17 18  1  6
 19 20  2  0
 19 18  1  0
 21 24  1  0
 22 21  2  0
 23 19  1  0
M  END
$$$$
