MPD.pdb
     RDKit          3D

 24 24  0  0  1  0  0  0  0  0999 V2000
   21.2619  -12.0380    7.1706 C   0  0  0  0  0  0  0  0  0  0  0  0
   20.7269  -11.2505    5.6243 S   0  0  0  0  0  0  0  0  0  0  0  0
   19.0662  -11.7968    5.1530 C   0  0  0  0  0  0  0  0  0  0  0  0
   18.8545  -13.2650    5.4442 C   0  0  0  0  0  0  0  0  0  0  0  0
   17.4073  -13.5893    5.1308 C   0  0  2  0  0  0  0  0  0  0  0  0
   16.5810  -12.7837    5.9619 N   0  0  0  0  0  0  0  0  0  0  0  0
   17.1342  -15.0224    5.1252 C   0  0  0  0  0  0  0  0  0  0  0  0
   16.5991  -15.4825    6.1965 O   0  0  0  0  0  0  0  0  0  0  0  0
   17.3862  -15.9482    4.0946 N   0  0  0  0  0  0  0  0  0  0  0  0
   17.8646  -15.7964    2.7400 C   0  0  0  0  0  0  0  0  0  0  0  0
   16.8671  -16.6846    1.9808 C   0  0  0  0  0  0  0  0  0  0  0  0
   16.9035  -17.9262    2.8472 C   0  0  0  0  0  0  0  0  0  0  0  0
   17.1882  -17.4045    4.2156 C   0  0  1  0  0  0  0  0  0  0  0  0
   18.3029  -18.0479    4.9128 C   0  0  0  0  0  0  0  0  0  0  0  0
   19.4683  -17.5643    4.7774 O   0  0  0  0  0  0  0  0  0  0  0  0
   18.2024  -19.1932    5.7496 N   0  0  0  0  0  0  0  0  0  0  0  0
   19.3415  -19.6390    6.5613 C   0  0  1  0  0  0  0  0  0  0  0  0
   19.6991  -18.5270    7.5212 C   0  0  0  0  0  0  0  0  0  0  0  0
   20.8507  -18.9585    8.3566 C   0  0  0  0  0  0  0  0  0  0  0  0
   20.9859  -20.1262    8.7935 O   0  0  0  0  0  0  0  0  0  0  0  0
   18.9964  -20.8456    7.3390 C   0  0  0  0  0  0  0  0  0  0  0  0
   17.8783  -21.0002    7.8880 O   0  0  0  0  0  0  0  0  0  0  0  0
   21.8628  -18.0499    8.6999 O   0  0  0  0  0  0  0  0  0  0  0  0
   19.9355  -21.8439    7.4696 O   0  0  0  0  0  0  0  0  0  0  0  0
  1  2  1  0
  3  2  1  0
  4  3  1  0
  5  7  1  0
  5  4  1  0
  5  6  1  1
  7  8  2  0
  9 13  1  0
  9  7  1  0
 10 11  1  0
 10  9  1  0
 11 12  1  0
 12 13  1  0
 13 14  1  6
 14 15  2  0
 16 14  1  0
 17 16  1  0
 17 21  1  0
 17 18  1  1
 19 20  2  0
 19 18  1  0
 21 24  1  0
 22 21  2  0
 23 19  1  0
M  END
$$$$
