MPD.pdb
     RDKit          3D

 24 24  0  0  1  0  0  0  0  0999 V2000
    9.1300  -23.8965    0.6447 C   0  0  0  0  0  0  0  0  0  0  0  0
   10.1855  -23.8182    2.1203 S   0  0  0  0  0  0  0  0  0  0  0  0
   11.7076  -22.8960    1.7870 C   0  0  0  0  0  0  0  0  0  0  0  0
   12.1169  -22.9940    0.3350 C   0  0  0  0  0  0  0  0  0  0  0  0
   13.3249  -22.0996    0.1390 C   0  0  2  0  0  0  0  0  0  0  0  0
   13.0486  -20.8408    0.7405 N   0  0  0  0  0  0  0  0  0  0  0  0
   13.7983  -22.0780   -1.2408 C   0  0  0  0  0  0  0  0  0  0  0  0
   13.8048  -20.9233   -1.7999 O   0  0  0  0  0  0  0  0  0  0  0  0
   14.2431  -23.1624   -2.0210 N   0  0  0  0  0  0  0  0  0  0  0  0
   14.3719  -24.5750   -1.7478 C   0  0  0  0  0  0  0  0  0  0  0  0
   15.7792  -24.8484   -2.3001 C   0  0  0  0  0  0  0  0  0  0  0  0
   15.6727  -24.1670   -3.6485 C   0  0  0  0  0  0  0  0  0  0  0  0
   14.7123  -23.0496   -3.4146 C   0  0  1  0  0  0  0  0  0  0  0  0
   13.5962  -22.9739   -4.3587 C   0  0  0  0  0  0  0  0  0  0  0  0
   12.4151  -22.8888   -3.9022 O   0  0  0  0  0  0  0  0  0  0  0  0
   13.7117  -22.9866   -5.7760 N   0  0  0  0  0  0  0  0  0  0  0  0
   12.5741  -22.6250   -6.6306 C   0  0  1  0  0  0  0  0  0  0  0  0
   12.1277  -21.2302   -6.2546 C   0  0  0  0  0  0  0  0  0  0  0  0
   10.9794  -20.8399   -7.1143 C   0  0  0  0  0  0  0  0  0  0  0  0
   10.2616  -21.6683   -7.7235 O   0  0  0  0  0  0  0  0  0  0  0  0
   12.9601  -22.6326   -8.0557 C   0  0  0  0  0  0  0  0  0  0  0  0
   14.0804  -22.2321   -8.4556 O   0  0  0  0  0  0  0  0  0  0  0  0
   10.6422  -19.4888   -7.2836 O   0  0  0  0  0  0  0  0  0  0  0  0
   12.0583  -23.0971   -8.9865 O   0  0  0  0  0  0  0  0  0  0  0  0
  1  2  1  0
  3  2  1  0
  4  3  1  0
  5  7  1  0
  5  4  1  0
  5  6  1  6
  7  8  2  0
  9 13  1  0
  9  7  1  0
 10 11  1  0
 10  9  1  0
 11 12  1  0
 12 13  1  0
 13 14  1  6
 14 15  2  0
 16 14  1  0
 17 16  1  0
 17 21  1  0
 17 18  1  1
 19 20  2  0
 19 18  1  0
 21 24  1  0
 22 21  2  0
 23 19  1  0
M  END
$$$$
