MPD.pdb
     RDKit          3D

 24 24  0  0  1  0  0  0  0  0999 V2000
   21.3302  -21.4394   -8.8094 C   0  0  0  0  0  0  0  0  0  0  0  0
   22.7313  -21.1831   -7.6830 S   0  0  0  0  0  0  0  0  0  0  0  0
   24.2761  -20.9613   -8.6013 C   0  0  0  0  0  0  0  0  0  0  0  0
   24.0228  -20.6308  -10.0545 C   0  0  0  0  0  0  0  0  0  0  0  0
   25.3704  -20.5157  -10.7389 C   0  0  2  0  0  0  0  0  0  0  0  0
   26.1978  -19.6678   -9.9521 N   0  0  0  0  0  0  0  0  0  0  0  0
   25.2618  -20.1942  -12.1577 C   0  0  0  0  0  0  0  0  0  0  0  0
   25.0472  -18.9578  -12.4246 O   0  0  0  0  0  0  0  0  0  0  0  0
   25.3635  -21.0709  -13.2549 N   0  0  0  0  0  0  0  0  0  0  0  0
   25.5386  -22.5017  -13.3495 C   0  0  0  0  0  0  0  0  0  0  0  0
   26.6448  -22.5872  -14.4122 C   0  0  0  0  0  0  0  0  0  0  0  0
   26.0823  -21.6470  -15.4579 C   0  0  0  0  0  0  0  0  0  0  0  0
   25.3044  -20.6495  -14.6669 C   0  0  1  0  0  0  0  0  0  0  0  0
   23.9267  -20.4331  -15.1116 C   0  0  0  0  0  0  0  0  0  0  0  0
   23.0064  -21.1565  -14.6218 O   0  0  0  0  0  0  0  0  0  0  0  0
   23.5098  -19.4639  -16.0651 N   0  0  0  0  0  0  0  0  0  0  0  0
   22.0885  -19.2783  -16.3826 C   0  0  1  0  0  0  0  0  0  0  0  0
   21.7808  -17.7994  -16.3164 C   0  0  0  0  0  0  0  0  0  0  0  0
   20.3464  -17.5870  -16.6439 C   0  0  0  0  0  0  0  0  0  0  0  0
   19.5366  -18.5254  -16.8341 O   0  0  0  0  0  0  0  0  0  0  0  0
   21.7822  -19.7671  -17.7417 C   0  0  0  0  0  0  0  0  0  0  0  0
   20.6187  -20.0621  -18.1087 O   0  0  0  0  0  0  0  0  0  0  0  0
   19.8252  -16.2895  -16.7564 O   0  0  0  0  0  0  0  0  0  0  0  0
   22.8110  -19.9061  -18.6460 O   0  0  0  0  0  0  0  0  0  0  0  0
  1  2  1  0
  3  2  1  0
  4  3  1  0
  5  7  1  0
  5  4  1  0
  5  6  1  1
  7  8  2  0
  9 13  1  0
  9  7  1  0
 10 11  1  0
 10  9  1  0
 11 12  1  0
 12 13  1  0
 13 14  1  6
 14 15  2  0
 16 14  1  0
 17 16  1  0
 17 21  1  0
 17 18  1  6
 19 20  2  0
 19 18  1  0
 21 24  1  0
 22 21  2  0
 23 19  1  0
M  END
$$$$
