MPD.pdb
     RDKit          3D

 24 24  0  0  1  0  0  0  0  0999 V2000
   27.1965  -20.6726   -3.5679 C   0  0  0  0  0  0  0  0  0  0  0  0
   28.6048  -20.7725   -4.7099 S   0  0  0  0  0  0  0  0  0  0  0  0
   28.4013  -19.6306   -6.1003 C   0  0  0  0  0  0  0  0  0  0  0  0
   27.6919  -20.2844   -7.2643 C   0  0  0  0  0  0  0  0  0  0  0  0
   27.5006  -19.2282   -8.3348 C   0  0  2  0  0  0  0  0  0  0  0  0
   26.7361  -18.1654   -7.7793 N   0  0  0  0  0  0  0  0  0  0  0  0
   27.0333  -19.7809   -9.6014 C   0  0  0  0  0  0  0  0  0  0  0  0
   25.8218  -19.4936   -9.9109 O   0  0  0  0  0  0  0  0  0  0  0  0
   27.7470  -20.5828  -10.5126 N   0  0  0  0  0  0  0  0  0  0  0  0
   28.8976  -21.4435  -10.3640 C   0  0  0  0  0  0  0  0  0  0  0  0
   29.7415  -21.0079  -11.5716 C   0  0  0  0  0  0  0  0  0  0  0  0
   28.6876  -21.0421  -12.6587 C   0  0  0  0  0  0  0  0  0  0  0  0
   27.4204  -20.7094  -11.9451 C   0  0  1  0  0  0  0  0  0  0  0  0
   26.3119  -21.6387  -12.1690 C   0  0  0  0  0  0  0  0  0  0  0  0
   26.0159  -22.4675  -11.2547 O   0  0  0  0  0  0  0  0  0  0  0  0
   25.5136  -21.7034  -13.3440 N   0  0  0  0  0  0  0  0  0  0  0  0
   24.0485  -21.7500  -13.2613 C   0  0  1  0  0  0  0  0  0  0  0  0
   23.5824  -20.5393  -12.4847 C   0  0  0  0  0  0  0  0  0  0  0  0
   22.0987  -20.5622  -12.3948 C   0  0  0  0  0  0  0  0  0  0  0  0
   21.4728  -21.1381  -11.4732 O   0  0  0  0  0  0  0  0  0  0  0  0
   23.4417  -21.7143  -14.6067 C   0  0  0  0  0  0  0  0  0  0  0  0
   23.8659  -20.9661  -15.5209 O   0  0  0  0  0  0  0  0  0  0  0  0
   21.3154  -19.9213  -13.3662 O   0  0  0  0  0  0  0  0  0  0  0  0
   22.3675  -22.5330  -14.8738 O   0  0  0  0  0  0  0  0  0  0  0  0
  1  2  1  0
  3  2  1  0
  4  3  1  0
  5  7  1  0
  5  4  1  0
  5  6  1  1
  7  8  2  0
  9 13  1  0
  9  7  1  0
 10 11  1  0
 10  9  1  0
 11 12  1  0
 12 13  1  0
 13 14  1  1
 14 15  2  0
 16 14  1  0
 17 16  1  0
 17 21  1  0
 17 18  1  1
 19 20  2  0
 19 18  1  0
 21 24  1  0
 22 21  2  0
 23 19  1  0
M  END
$$$$
