MPD.pdb
     RDKit          3D

 24 24  0  0  1  0  0  0  0  0999 V2000
   23.0053  -20.7580  -20.9084 C   0  0  0  0  0  0  0  0  0  0  0  0
   24.4782  -19.6975  -20.8497 S   0  0  0  0  0  0  0  0  0  0  0  0
   24.8561  -19.1970  -19.1511 C   0  0  0  0  0  0  0  0  0  0  0  0
   23.6010  -18.9968  -18.3325 C   0  0  0  0  0  0  0  0  0  0  0  0
   24.0267  -18.6100  -16.9299 C   0  0  2  0  0  0  0  0  0  0  0  0
   24.9493  -19.5852  -16.4605 N   0  0  0  0  0  0  0  0  0  0  0  0
   22.8984  -18.3007  -16.0585 C   0  0  0  0  0  0  0  0  0  0  0  0
   22.5405  -19.2462  -15.2686 O   0  0  0  0  0  0  0  0  0  0  0  0
   22.1651  -17.1009  -15.9837 N   0  0  0  0  0  0  0  0  0  0  0  0
   22.2145  -15.8762  -16.7481 C   0  0  0  0  0  0  0  0  0  0  0  0
   22.1922  -14.8320  -15.6213 C   0  0  0  0  0  0  0  0  0  0  0  0
   21.0445  -15.3638  -14.7885 C   0  0  0  0  0  0  0  0  0  0  0  0
   21.0927  -16.8391  -15.0058 C   0  0  1  0  0  0  0  0  0  0  0  0
   19.8277  -17.4553  -15.4094 C   0  0  0  0  0  0  0  0  0  0  0  0
   19.8047  -18.1731  -16.4556 O   0  0  0  0  0  0  0  0  0  0  0  0
   18.5893  -17.3232  -14.7230 N   0  0  0  0  0  0  0  0  0  0  0  0
   17.5773  -18.3854  -14.7780 C   0  0  1  0  0  0  0  0  0  0  0  0
   18.1666  -19.6296  -14.1527 C   0  0  0  0  0  0  0  0  0  0  0  0
   17.1524  -20.7160  -14.1854 C   0  0  0  0  0  0  0  0  0  0  0  0
   15.9976  -20.5671  -14.6510 O   0  0  0  0  0  0  0  0  0  0  0  0
   16.3672  -18.0020  -14.0241 C   0  0  0  0  0  0  0  0  0  0  0  0
   15.2134  -18.0764  -14.5127 O   0  0  0  0  0  0  0  0  0  0  0  0
   17.4555  -21.9898  -13.6819 O   0  0  0  0  0  0  0  0  0  0  0  0
   16.5051  -17.5446  -12.7329 O   0  0  0  0  0  0  0  0  0  0  0  0
  1  2  1  0
  3  2  1  0
  4  3  1  0
  5  7  1  0
  5  4  1  0
  5  6  1  1
  7  8  2  0
  9 13  1  0
  9  7  1  0
 10 11  1  0
 10  9  1  0
 11 12  1  0
 12 13  1  0
 13 14  1  6
 14 15  2  0
 16 14  1  0
 17 16  1  0
 17 21  1  0
 17 18  1  1
 19 20  2  0
 19 18  1  0
 21 24  1  0
 22 21  2  0
 23 19  1  0
M  END
$$$$
