KNK.pdb
     RDKit          3D

 27 26  0  0  1  0  0  0  0  0999 V2000
   25.8671  -21.7373  -15.5486 N   0  0  0  0  0  0  0  0  0  0  0  0
   24.4432  -21.9497  -15.7929 C   0  0  1  0  0  0  0  0  0  0  0  0
   24.0934  -23.3786  -15.9149 C   0  0  0  0  0  0  0  0  0  0  0  0
   24.8660  -24.2701  -16.7883 C   0  0  0  0  0  0  0  0  0  0  0  0
   24.4927  -25.6733  -16.9826 C   0  0  0  0  0  0  0  0  0  0  0  0
   25.3362  -26.4908  -17.8803 C   0  0  0  0  0  0  0  0  0  0  0  0
   25.0100  -27.9075  -17.8645 N   0  0  0  0  0  0  0  0  0  0  0  0
   23.6991  -21.4707  -14.5275 C   0  0  0  0  0  0  0  0  0  0  0  0
   24.3428  -21.5675  -13.4742 O   0  0  0  0  0  0  0  0  0  0  0  0
   20.4288  -19.0160  -11.5294 N   0  0  0  0  0  0  0  0  0  0  0  0
   20.3948  -18.3794  -12.7868 C   0  0  0  0  0  0  0  0  0  0  0  0
   19.8422  -17.2706  -12.9036 O   0  0  0  0  0  0  0  0  0  0  0  0
   21.0122  -19.0297  -13.9516 C   0  0  0  0  0  0  0  0  0  0  0  0
   21.6154  -20.4017  -13.6072 C   0  0  2  0  0  0  0  0  0  0  0  0
   22.3925  -20.9762  -14.6475 N   0  0  0  0  0  0  0  0  0  0  0  0
   20.5294  -21.2699  -13.1537 C   0  0  0  0  0  0  0  0  0  0  0  0
   19.7045  -21.8027  -13.9780 O   0  0  0  0  0  0  0  0  0  0  0  0
   20.3010  -21.5892  -11.7888 N   0  0  0  0  0  0  0  0  0  0  0  0
   19.2725  -22.5277  -11.4049 C   0  0  1  0  0  0  0  0  0  0  0  0
   19.3945  -22.9277   -9.9551 C   0  0  0  0  0  0  0  0  0  0  0  0
   18.3979  -23.9431   -9.5243 C   0  0  0  0  0  0  0  0  0  0  0  0
   18.4463  -24.2430   -8.0484 C   0  0  0  0  0  0  0  0  0  0  0  0
   17.4138  -25.3047   -7.6905 C   0  0  0  0  0  0  0  0  0  0  0  0
   17.4671  -25.6777   -6.3104 N   0  0  0  0  0  0  0  0  0  0  0  0
   17.9626  -21.9874  -11.7510 C   0  0  0  0  0  0  0  0  0  0  0  0
   17.7475  -20.7547  -11.6433 O   0  0  0  0  0  0  0  0  0  0  0  0
   16.8894  -22.7601  -12.2098 O   0  0  0  0  0  0  0  0  0  0  0  0
  2  1  1  1
  3  2  1  0
  4  3  1  0
  5  4  1  0
  5  6  1  0
  7  6  1  0
  8  9  2  0
  8  2  1  0
 10 11  1  0
 11 13  1  0
 12 11  2  0
 14 13  1  6
 14 15  1  0
 15  8  1  0
 16 14  1  0
 17 16  2  0
 18 16  1  0
 19 25  1  0
 19 18  1  0
 20 21  1  0
 19 20  1  1
 22 23  1  0
 22 21  1  0
 23 24  1  0
 25 27  1  0
 26 25  2  0
M  END
$$$$
