KNK.pdb
     RDKit          3D

 27 26  0  0  1  0  0  0  0  0999 V2000
   26.0845  -21.9901  -11.4043 N   0  0  0  0  0  0  0  0  0  0  0  0
   24.9049  -21.6355  -12.1884 C   0  0  1  0  0  0  0  0  0  0  0  0
   23.7932  -21.1408  -11.3526 C   0  0  0  0  0  0  0  0  0  0  0  0
   22.6169  -21.9794  -11.0927 C   0  0  0  0  0  0  0  0  0  0  0  0
   22.0532  -22.8574  -12.1211 C   0  0  0  0  0  0  0  0  0  0  0  0
   20.8268  -23.6112  -11.7842 C   0  0  0  0  0  0  0  0  0  0  0  0
   19.7249  -22.7729  -11.3405 N   0  0  0  0  0  0  0  0  0  0  0  0
   25.3016  -20.4290  -13.0668 C   0  0  0  0  0  0  0  0  0  0  0  0
   25.6492  -19.4185  -12.4413 O   0  0  0  0  0  0  0  0  0  0  0  0
   27.9903  -18.6651  -14.8013 N   0  0  0  0  0  0  0  0  0  0  0  0
   27.8384  -19.3483  -16.0252 C   0  0  0  0  0  0  0  0  0  0  0  0
   28.8369  -19.5861  -16.7285 O   0  0  0  0  0  0  0  0  0  0  0  0
   26.5014  -19.7751  -16.4622 C   0  0  0  0  0  0  0  0  0  0  0  0
   25.4214  -19.5006  -15.4024 C   0  0  2  0  0  0  0  0  0  0  0  0
   25.2449  -20.5502  -14.4626 N   0  0  0  0  0  0  0  0  0  0  0  0
   24.1878  -19.1394  -16.0999 C   0  0  0  0  0  0  0  0  0  0  0  0
   23.0349  -19.4521  -15.6343 O   0  0  0  0  0  0  0  0  0  0  0  0
   24.1634  -18.4264  -17.3279 N   0  0  0  0  0  0  0  0  0  0  0  0
   22.9797  -17.7173  -17.7547 C   0  0  1  0  0  0  0  0  0  0  0  0
   22.4886  -16.7618  -16.6952 C   0  0  0  0  0  0  0  0  0  0  0  0
   21.2238  -16.0663  -17.0505 C   0  0  0  0  0  0  0  0  0  0  0  0
   20.7789  -15.0644  -16.0167 C   0  0  0  0  0  0  0  0  0  0  0  0
   19.4780  -14.4001  -16.4498 C   0  0  0  0  0  0  0  0  0  0  0  0
   18.9343  -13.5481  -15.4374 N   0  0  0  0  0  0  0  0  0  0  0  0
   23.2286  -17.0796  -19.0428 C   0  0  0  0  0  0  0  0  0  0  0  0
   24.3883  -16.6971  -19.3362 O   0  0  0  0  0  0  0  0  0  0  0  0
   22.2439  -16.8527  -20.0113 O   0  0  0  0  0  0  0  0  0  0  0  0
  2  1  1  1
  3  2  1  0
  4  3  1  0
  5  4  1  0
  5  6  1  0
  7  6  1  0
  8  9  2  0
  8  2  1  0
 10 11  1  0
 11 13  1  0
 12 11  2  0
 14 13  1  6
 14 15  1  0
 15  8  1  0
 16 14  1  0
 17 16  2  0
 18 16  1  0
 19 25  1  0
 19 18  1  0
 20 21  1  0
 19 20  1  1
 22 23  1  0
 22 21  1  0
 23 24  1  0
 25 27  1  0
 26 25  2  0
M  END
$$$$
