KNK.pdb
     RDKit          3D

 27 26  0  0  1  0  0  0  0  0999 V2000
   21.2720  -14.9008  -17.8170 N   0  0  0  0  0  0  0  0  0  0  0  0
   19.8914  -14.7841  -17.3560 C   0  0  1  0  0  0  0  0  0  0  0  0
   19.5338  -15.8155  -16.3623 C   0  0  0  0  0  0  0  0  0  0  0  0
   19.4577  -17.2313  -16.7420 C   0  0  0  0  0  0  0  0  0  0  0  0
   18.2198  -17.8284  -17.2491 C   0  0  0  0  0  0  0  0  0  0  0  0
   18.2572  -19.2506  -17.6510 C   0  0  0  0  0  0  0  0  0  0  0  0
   16.9541  -19.8012  -17.9860 N   0  0  0  0  0  0  0  0  0  0  0  0
   19.7911  -13.4483  -16.5878 C   0  0  0  0  0  0  0  0  0  0  0  0
   19.6455  -13.5590  -15.3631 O   0  0  0  0  0  0  0  0  0  0  0  0
   20.0750   -7.3618  -17.7063 N   0  0  0  0  0  0  0  0  0  0  0  0
   20.1645   -8.5036  -16.8842 C   0  0  0  0  0  0  0  0  0  0  0  0
   20.0416   -8.3888  -15.6513 O   0  0  0  0  0  0  0  0  0  0  0  0
   20.4025   -9.8221  -17.4889 C   0  0  0  0  0  0  0  0  0  0  0  0
   19.6310  -10.9441  -16.7742 C   0  0  2  0  0  0  0  0  0  0  0  0
   19.8680  -12.2421  -17.2986 N   0  0  0  0  0  0  0  0  0  0  0  0
   18.2149  -10.5788  -16.7608 C   0  0  0  0  0  0  0  0  0  0  0  0
   17.4947  -10.6365  -17.8199 O   0  0  0  0  0  0  0  0  0  0  0  0
   17.5318  -10.1372  -15.5966 N   0  0  0  0  0  0  0  0  0  0  0  0
   16.1568   -9.6997  -15.6600 C   0  0  1  0  0  0  0  0  0  0  0  0
   15.2522  -10.5792  -14.8324 C   0  0  0  0  0  0  0  0  0  0  0  0
   13.8397  -10.1181  -14.7878 C   0  0  0  0  0  0  0  0  0  0  0  0
   12.9407  -11.0157  -13.9774 C   0  0  0  0  0  0  0  0  0  0  0  0
   11.4953  -10.5438  -14.0751 C   0  0  0  0  0  0  0  0  0  0  0  0
   10.5919  -11.3943  -13.3632 N   0  0  0  0  0  0  0  0  0  0  0  0
   16.0758   -8.2866  -15.3074 C   0  0  0  0  0  0  0  0  0  0  0  0
   16.9933   -7.7582  -14.6319 O   0  0  0  0  0  0  0  0  0  0  0  0
   15.0207   -7.4436  -15.6751 O   0  0  0  0  0  0  0  0  0  0  0  0
  2  1  1  1
  3  2  1  0
  4  3  1  0
  5  4  1  0
  5  6  1  0
  7  6  1  0
  8  9  2  0
  8  2  1  0
 10 11  1  0
 11 13  1  0
 12 11  2  0
 14 13  1  6
 14 15  1  0
 15  8  1  0
 16 14  1  0
 17 16  2  0
 18 16  1  0
 19 25  1  0
 19 18  1  0
 20 21  1  0
 19 20  1  1
 22 23  1  0
 22 21  1  0
 23 24  1  0
 25 27  1  0
 26 25  2  0
M  END
$$$$
