KNK.pdb
     RDKit          3D

 27 26  0  0  1  0  0  0  0  0999 V2000
   23.5967  -22.6842  -13.5387 N   0  0  0  0  0  0  0  0  0  0  0  0
   22.9995  -21.3558  -13.4354 C   0  0  1  0  0  0  0  0  0  0  0  0
   22.9897  -20.6341  -14.7231 C   0  0  0  0  0  0  0  0  0  0  0  0
   24.2452  -20.2507  -15.3798 C   0  0  0  0  0  0  0  0  0  0  0  0
   25.2526  -21.2448  -15.7582 C   0  0  0  0  0  0  0  0  0  0  0  0
   26.4728  -20.7617  -16.4390 C   0  0  0  0  0  0  0  0  0  0  0  0
   27.4564  -21.8023  -16.6906 N   0  0  0  0  0  0  0  0  0  0  0  0
   21.5085  -21.5646  -13.0919 C   0  0  0  0  0  0  0  0  0  0  0  0
   20.8654  -20.5240  -12.9002 O   0  0  0  0  0  0  0  0  0  0  0  0
   18.2877  -21.8339  -14.6299 N   0  0  0  0  0  0  0  0  0  0  0  0
   18.2744  -23.2378  -14.7582 C   0  0  0  0  0  0  0  0  0  0  0  0
   17.6927  -23.7648  -15.7237 O   0  0  0  0  0  0  0  0  0  0  0  0
   18.9478  -24.0697  -13.7505 C   0  0  0  0  0  0  0  0  0  0  0  0
   19.6678  -23.2304  -12.6819 C   0  0  2  0  0  0  0  0  0  0  0  0
   20.9982  -22.8687  -13.0214 N   0  0  0  0  0  0  0  0  0  0  0  0
   19.5727  -23.9446  -11.4091 C   0  0  0  0  0  0  0  0  0  0  0  0
   20.6006  -24.1390  -10.6679 O   0  0  0  0  0  0  0  0  0  0  0  0
   18.3579  -24.4731  -10.8975 N   0  0  0  0  0  0  0  0  0  0  0  0
   18.3342  -25.2323   -9.6690 C   0  0  1  0  0  0  0  0  0  0  0  0
   17.4210  -24.6069   -8.6435 C   0  0  0  0  0  0  0  0  0  0  0  0
   17.3278  -25.3728   -7.3728 C   0  0  0  0  0  0  0  0  0  0  0  0
   16.3507  -24.7847   -6.3880 C   0  0  0  0  0  0  0  0  0  0  0  0
   16.2112  -25.6948   -5.1741 C   0  0  0  0  0  0  0  0  0  0  0  0
   15.2740  -25.1923   -4.2172 N   0  0  0  0  0  0  0  0  0  0  0  0
   18.0143  -26.6253   -9.9602 C   0  0  0  0  0  0  0  0  0  0  0  0
   17.3121  -26.9082  -10.9624 O   0  0  0  0  0  0  0  0  0  0  0  0
   18.4429  -27.7092   -9.1852 O   0  0  0  0  0  0  0  0  0  0  0  0
  2  1  1  6
  3  2  1  0
  4  3  1  0
  5  4  1  0
  5  6  1  0
  7  6  1  0
  8  9  2  0
  8  2  1  0
 10 11  1  0
 11 13  1  0
 12 11  2  0
 14 13  1  6
 14 15  1  0
 15  8  1  0
 16 14  1  0
 17 16  2  0
 18 16  1  0
 19 25  1  0
 19 18  1  0
 20 21  1  0
 19 20  1  1
 22 23  1  0
 22 21  1  0
 23 24  1  0
 25 27  1  0
 26 25  2  0
M  END
$$$$
