KNK.pdb
     RDKit          3D

 27 26  0  0  1  0  0  0  0  0999 V2000
   20.5987  -10.1851  -17.5969 N   0  0  0  0  0  0  0  0  0  0  0  0
   19.4552  -10.3905  -16.7124 C   0  0  1  0  0  0  0  0  0  0  0  0
   19.5606  -11.6346  -15.9249 C   0  0  0  0  0  0  0  0  0  0  0  0
   19.6137  -12.9426  -16.5888 C   0  0  0  0  0  0  0  0  0  0  0  0
   19.6424  -14.1936  -15.8271 C   0  0  0  0  0  0  0  0  0  0  0  0
   19.7448  -15.4582  -16.5862 C   0  0  0  0  0  0  0  0  0  0  0  0
   19.8873  -16.6372  -15.7475 N   0  0  0  0  0  0  0  0  0  0  0  0
   19.4959   -9.2581  -15.6634 C   0  0  0  0  0  0  0  0  0  0  0  0
   18.6893   -9.3789  -14.7318 O   0  0  0  0  0  0  0  0  0  0  0  0
   22.3654   -5.4210  -12.7418 N   0  0  0  0  0  0  0  0  0  0  0  0
   22.0159   -5.2620  -14.0983 C   0  0  0  0  0  0  0  0  0  0  0  0
   21.7776   -4.1258  -14.5462 O   0  0  0  0  0  0  0  0  0  0  0  0
   21.9354   -6.4395  -14.9746 C   0  0  0  0  0  0  0  0  0  0  0  0
   20.5310   -7.0659  -14.9891 C   0  0  2  0  0  0  0  0  0  0  0  0
   20.4083   -8.2059  -15.8267 N   0  0  0  0  0  0  0  0  0  0  0  0
   19.5706   -6.0105  -15.3096 C   0  0  0  0  0  0  0  0  0  0  0  0
   19.4391   -5.5596  -16.5025 O   0  0  0  0  0  0  0  0  0  0  0  0
   18.7201   -5.4076  -14.3452 N   0  0  0  0  0  0  0  0  0  0  0  0
   17.6672   -4.5022  -14.7422 C   0  0  1  0  0  0  0  0  0  0  0  0
   16.3393   -4.8919  -14.1410 C   0  0  0  0  0  0  0  0  0  0  0  0
   15.2255   -3.9721  -14.4923 C   0  0  0  0  0  0  0  0  0  0  0  0
   13.8863   -4.4243  -13.9703 C   0  0  0  0  0  0  0  0  0  0  0  0
   12.7873   -3.4840  -14.4491 C   0  0  0  0  0  0  0  0  0  0  0  0
   11.4934   -3.8661  -13.9733 N   0  0  0  0  0  0  0  0  0  0  0  0
   18.0616   -3.1304  -14.4416 C   0  0  0  0  0  0  0  0  0  0  0  0
   18.7569   -2.8896  -13.4238 O   0  0  0  0  0  0  0  0  0  0  0  0
   17.7153   -2.0231  -15.2245 O   0  0  0  0  0  0  0  0  0  0  0  0
  2  1  1  6
  3  2  1  0
  4  3  1  0
  5  4  1  0
  5  6  1  0
  7  6  1  0
  8  9  2  0
  8  2  1  0
 10 11  1  0
 11 13  1  0
 12 11  2  0
 14 13  1  6
 14 15  1  0
 15  8  1  0
 16 14  1  0
 17 16  2  0
 18 16  1  0
 19 25  1  0
 19 18  1  0
 20 21  1  0
 19 20  1  1
 22 23  1  0
 22 21  1  0
 23 24  1  0
 25 27  1  0
 26 25  2  0
M  END
$$$$
