KNK.pdb
     RDKit          3D

 27 26  0  0  1  0  0  0  0  0999 V2000
   18.1070  -10.6777  -17.4830 N   0  0  0  0  0  0  0  0  0  0  0  0
   17.2761  -10.9223  -16.3075 C   0  0  1  0  0  0  0  0  0  0  0  0
   17.6859  -12.1282  -15.5613 C   0  0  0  0  0  0  0  0  0  0  0  0
   17.3375  -13.4684  -16.0483 C   0  0  0  0  0  0  0  0  0  0  0  0
   17.8681  -14.6799  -15.4185 C   0  0  0  0  0  0  0  0  0  0  0  0
   17.4916  -15.9823  -16.0082 C   0  0  0  0  0  0  0  0  0  0  0  0
   18.1300  -17.1226  -15.3711 N   0  0  0  0  0  0  0  0  0  0  0  0
   17.5310   -9.7525  -15.3322 C   0  0  0  0  0  0  0  0  0  0  0  0
   16.9595   -9.8499  -14.2381 O   0  0  0  0  0  0  0  0  0  0  0  0
   20.5214   -8.7905  -13.1557 N   0  0  0  0  0  0  0  0  0  0  0  0
   21.1053   -7.9498  -14.1251 C   0  0  0  0  0  0  0  0  0  0  0  0
   22.3429   -7.8302  -14.1749 O   0  0  0  0  0  0  0  0  0  0  0  0
   20.2484   -7.2200  -15.0706 C   0  0  0  0  0  0  0  0  0  0  0  0
   18.7641   -7.5965  -14.9291 C   0  0  2  0  0  0  0  0  0  0  0  0
   18.3609   -8.6956  -15.7326 N   0  0  0  0  0  0  0  0  0  0  0  0
   17.9697   -6.3910  -15.1628 C   0  0  0  0  0  0  0  0  0  0  0  0
   17.6316   -6.0262  -16.3444 O   0  0  0  0  0  0  0  0  0  0  0  0
   17.5154   -5.5394  -14.1211 N   0  0  0  0  0  0  0  0  0  0  0  0
   16.7778   -4.3325  -14.4133 C   0  0  1  0  0  0  0  0  0  0  0  0
   15.4840   -4.2675  -13.6395 C   0  0  0  0  0  0  0  0  0  0  0  0
   14.6654   -3.0622  -13.9344 C   0  0  0  0  0  0  0  0  0  0  0  0
   13.3343   -3.0533  -13.2282 C   0  0  0  0  0  0  0  0  0  0  0  0
   12.4958   -1.8702  -13.6956 C   0  0  0  0  0  0  0  0  0  0  0  0
   11.2192   -1.8152  -13.0524 N   0  0  0  0  0  0  0  0  0  0  0  0
   17.6369   -3.1717  -14.2084 C   0  0  0  0  0  0  0  0  0  0  0  0
   17.3010   -2.0559  -14.6771 O   0  0  0  0  0  0  0  0  0  0  0  0
   18.8476   -3.2034  -13.5066 O   0  0  0  0  0  0  0  0  0  0  0  0
  2  1  1  6
  3  2  1  0
  4  3  1  0
  5  4  1  0
  5  6  1  0
  7  6  1  0
  8  9  2  0
  8  2  1  0
 10 11  1  0
 11 13  1  0
 12 11  2  0
 14 13  1  6
 14 15  1  0
 15  8  1  0
 16 14  1  0
 17 16  2  0
 18 16  1  0
 19 25  1  0
 19 18  1  0
 20 21  1  0
 19 20  1  1
 22 23  1  0
 22 21  1  0
 23 24  1  0
 25 27  1  0
 26 25  2  0
M  END
$$$$
