KNK.pdb
     RDKit          3D

 27 26  0  0  1  0  0  0  0  0999 V2000
   26.5091  -21.5239   -9.8095 N   0  0  0  0  0  0  0  0  0  0  0  0
   25.4108  -20.5651   -9.8894 C   0  0  1  0  0  0  0  0  0  0  0  0
   25.6996  -19.3073   -9.1727 C   0  0  0  0  0  0  0  0  0  0  0  0
   26.1768  -19.3252   -7.7847 C   0  0  0  0  0  0  0  0  0  0  0  0
   27.4922  -19.8625   -7.4281 C   0  0  0  0  0  0  0  0  0  0  0  0
   27.9401  -19.7100   -6.0275 C   0  0  0  0  0  0  0  0  0  0  0  0
   29.2958  -20.1781   -5.7897 N   0  0  0  0  0  0  0  0  0  0  0  0
   25.2888  -20.1520  -11.3723 C   0  0  0  0  0  0  0  0  0  0  0  0
   24.9051  -18.9900  -11.5616 O   0  0  0  0  0  0  0  0  0  0  0  0
   27.7578  -20.6647  -16.4409 N   0  0  0  0  0  0  0  0  0  0  0  0
   26.6815  -21.4440  -15.9698 C   0  0  0  0  0  0  0  0  0  0  0  0
   25.8106  -21.8404  -16.7653 O   0  0  0  0  0  0  0  0  0  0  0  0
   26.5951  -21.7829  -14.5421 C   0  0  0  0  0  0  0  0  0  0  0  0
   25.6756  -20.8255  -13.7657 C   0  0  2  0  0  0  0  0  0  0  0  0
   25.6076  -21.0831  -12.3710 N   0  0  0  0  0  0  0  0  0  0  0  0
   24.3659  -20.8325  -14.4165 C   0  0  0  0  0  0  0  0  0  0  0  0
   23.5530  -21.8148  -14.2828 O   0  0  0  0  0  0  0  0  0  0  0  0
   23.8937  -19.7729  -15.2358 N   0  0  0  0  0  0  0  0  0  0  0  0
   22.5220  -19.7334  -15.6863 C   0  0  1  0  0  0  0  0  0  0  0  0
   22.1665  -18.3909  -16.2764 C   0  0  0  0  0  0  0  0  0  0  0  0
   20.7396  -18.2665  -16.6743 C   0  0  0  0  0  0  0  0  0  0  0  0
   20.4094  -16.9453  -17.3192 C   0  0  0  0  0  0  0  0  0  0  0  0
   18.9356  -16.8977  -17.7025 C   0  0  0  0  0  0  0  0  0  0  0  0
   18.7314  -17.0312  -19.1121 N   0  0  0  0  0  0  0  0  0  0  0  0
   22.2709  -20.8508  -16.5896 C   0  0  0  0  0  0  0  0  0  0  0  0
   21.2445  -21.5584  -16.4369 O   0  0  0  0  0  0  0  0  0  0  0  0
   23.1114  -21.2092  -17.6499 O   0  0  0  0  0  0  0  0  0  0  0  0
  2  1  1  6
  3  2  1  0
  4  3  1  0
  5  4  1  0
  5  6  1  0
  7  6  1  0
  8  9  2  0
  8  2  1  0
 10 11  1  0
 11 13  1  0
 12 11  2  0
 14 13  1  6
 14 15  1  0
 15  8  1  0
 16 14  1  0
 17 16  2  0
 18 16  1  0
 19 25  1  0
 19 18  1  0
 20 21  1  0
 19 20  1  6
 22 23  1  0
 22 21  1  0
 23 24  1  0
 25 27  1  0
 26 25  2  0
M  END
$$$$
