KNK.pdb
     RDKit          3D

 27 26  0  0  1  0  0  0  0  0999 V2000
   25.5625  -20.6946  -15.4106 N   0  0  0  0  0  0  0  0  0  0  0  0
   24.1615  -20.5204  -15.7833 C   0  0  1  0  0  0  0  0  0  0  0  0
   23.6735  -21.5879  -16.6785 C   0  0  0  0  0  0  0  0  0  0  0  0
   24.6051  -22.5507  -17.2784 C   0  0  0  0  0  0  0  0  0  0  0  0
   25.2743  -23.5783  -16.4770 C   0  0  0  0  0  0  0  0  0  0  0  0
   26.0378  -24.6208  -17.1953 C   0  0  0  0  0  0  0  0  0  0  0  0
   26.7177  -25.5604  -16.3186 N   0  0  0  0  0  0  0  0  0  0  0  0
   23.3340  -20.6849  -14.4900 C   0  0  0  0  0  0  0  0  0  0  0  0
   23.9686  -21.1043  -13.5129 O   0  0  0  0  0  0  0  0  0  0  0  0
   19.6862  -19.9081  -11.0354 N   0  0  0  0  0  0  0  0  0  0  0  0
   19.6027  -18.8647  -11.9799 C   0  0  0  0  0  0  0  0  0  0  0  0
   18.8912  -17.8718  -11.7427 O   0  0  0  0  0  0  0  0  0  0  0  0
   20.3565  -18.9568  -13.2385 C   0  0  0  0  0  0  0  0  0  0  0  0
   21.1144  -20.2880  -13.3732 C   0  0  2  0  0  0  0  0  0  0  0  0
   21.9697  -20.3617  -14.5042 N   0  0  0  0  0  0  0  0  0  0  0  0
   20.1335  -21.3716  -13.3222 C   0  0  0  0  0  0  0  0  0  0  0  0
   19.3006  -21.5712  -14.2761 O   0  0  0  0  0  0  0  0  0  0  0  0
   20.0227  -22.2759  -12.2327 N   0  0  0  0  0  0  0  0  0  0  0  0
   19.2160  -23.4697  -12.3339 C   0  0  1  0  0  0  0  0  0  0  0  0
   19.6030  -24.4948  -11.2964 C   0  0  0  0  0  0  0  0  0  0  0  0
   18.8702  -25.7823  -11.4189 C   0  0  0  0  0  0  0  0  0  0  0  0
   19.2816  -26.8070  -10.3936 C   0  0  0  0  0  0  0  0  0  0  0  0
   18.5200  -28.1084  -10.6115 C   0  0  0  0  0  0  0  0  0  0  0  0
   18.7751  -29.0712   -9.5847 N   0  0  0  0  0  0  0  0  0  0  0  0
   17.8028  -23.1103  -12.2977 C   0  0  0  0  0  0  0  0  0  0  0  0
   17.4478  -22.0255  -11.7739 O   0  0  0  0  0  0  0  0  0  0  0  0
   16.7756  -23.9056  -12.8187 O   0  0  0  0  0  0  0  0  0  0  0  0
  2  1  1  1
  3  2  1  0
  4  3  1  0
  5  4  1  0
  5  6  1  0
  7  6  1  0
  8  9  2  0
  8  2  1  0
 10 11  1  0
 11 13  1  0
 12 11  2  0
 14 13  1  6
 14 15  1  0
 15  8  1  0
 16 14  1  0
 17 16  2  0
 18 16  1  0
 19 25  1  0
 19 18  1  0
 20 21  1  0
 19 20  1  1
 22 23  1  0
 22 21  1  0
 23 24  1  0
 25 27  1  0
 26 25  2  0
M  END
$$$$
