NLM.pdb
     RDKit          3D

 25 24  0  0  1  0  0  0  0  0999 V2000
    7.8507  -19.7737   16.9604 N   0  0  0  0  0  0  0  0  0  0  0  0
    8.9181  -19.6239   17.8644 C   0  0  0  0  0  0  0  0  0  0  0  0
    9.5825  -20.6150   18.2120 O   0  0  0  0  0  0  0  0  0  0  0  0
    9.2480  -18.2925   18.3987 C   0  0  0  0  0  0  0  0  0  0  0  0
    9.2374  -18.2390   19.9063 C   0  0  2  0  0  0  0  0  0  0  0  0
    7.9206  -18.5030   20.4487 N   0  0  0  0  0  0  0  0  0  0  0  0
    9.6718  -16.9103   20.4139 C   0  0  0  0  0  0  0  0  0  0  0  0
   10.8455  -16.4620   20.1714 O   0  0  0  0  0  0  0  0  0  0  0  0
    8.8007  -12.9868   18.9620 C   0  0  0  0  0  0  0  0  0  0  0  0
    7.8322  -13.7138   19.8187 C   0  0  2  0  0  0  0  0  0  0  0  0
    6.5164  -12.8976   19.7886 C   0  0  0  0  0  0  0  0  0  0  0  0
    8.2125  -13.8424   21.2175 C   0  0  0  0  0  0  0  0  0  0  0  0
    9.3347  -14.7242   21.6628 C   0  0  2  0  0  0  0  0  0  0  0  0
    8.8512  -16.0687   21.1771 N   0  0  0  0  0  0  0  0  0  0  0  0
    9.4202  -14.8960   23.1063 C   0  0  0  0  0  0  0  0  0  0  0  0
    9.5846  -13.8474   23.8338 O   0  0  0  0  0  0  0  0  0  0  0  0
    6.2617  -11.7568   27.0425 C   0  0  0  0  0  0  0  0  0  0  0  0
    6.2154  -13.4896   26.5777 S   0  0  0  0  0  0  0  0  0  0  0  0
    7.8361  -14.1448   26.1609 C   0  0  0  0  0  0  0  0  0  0  0  0
    7.8335  -15.5701   25.7147 C   0  0  0  0  0  0  0  0  0  0  0  0
    9.2138  -16.0783   25.2934 C   0  0  2  0  0  0  0  0  0  0  0  0
    9.3308  -16.0986   23.8573 N   0  0  0  0  0  0  0  0  0  0  0  0
    9.3358  -17.4197   25.8743 C   0  0  0  0  0  0  0  0  0  0  0  0
    9.3621  -18.4622   25.1382 O   0  0  0  0  0  0  0  0  0  0  0  0
    9.4279  -17.6125   27.2265 O   0  0  0  0  0  0  0  0  0  0  0  0
  1  2  1  0
  2  3  2  0
  2  4  1  0
  5  6  1  6
  5  4  1  0
  7  5  1  0
  8  7  2  0
 10  9  1  6
 10 12  1  0
 11 10  1  0
 13 12  1  1
 13 14  1  0
 14  7  1  0
 15 13  1  0
 15 16  2  0
 18 17  1  0
 19 20  1  0
 19 18  1  0
 21 20  1  6
 21 22  1  0
 22 15  1  0
 23 21  1  0
 24 23  2  0
 25 23  1  0
M  END
$$$$
