NLM.pdb
     RDKit          3D

 25 24  0  0  1  0  0  0  0  0999 V2000
   10.2613  -20.0994   17.2212 N   0  0  0  0  0  0  0  0  0  0  0  0
   10.8774  -19.7598   18.4395 C   0  0  0  0  0  0  0  0  0  0  0  0
   11.4531  -20.6336   19.1101 O   0  0  0  0  0  0  0  0  0  0  0  0
   10.8402  -18.3688   18.9197 C   0  0  0  0  0  0  0  0  0  0  0  0
   10.4137  -18.2505   20.3620 C   0  0  2  0  0  0  0  0  0  0  0  0
    9.0696  -18.7475   20.5721 N   0  0  0  0  0  0  0  0  0  0  0  0
   10.4476  -16.8402   20.8329 C   0  0  0  0  0  0  0  0  0  0  0  0
   11.5232  -16.1497   20.7740 O   0  0  0  0  0  0  0  0  0  0  0  0
    8.1785  -12.8032   19.5857 C   0  0  0  0  0  0  0  0  0  0  0  0
    7.5423  -13.9732   20.2389 C   0  0  2  0  0  0  0  0  0  0  0  0
    6.0361  -13.6391   20.3733 C   0  0  0  0  0  0  0  0  0  0  0  0
    8.0242  -14.2769   21.5781 C   0  0  0  0  0  0  0  0  0  0  0  0
    9.4199  -14.7458   21.8380 C   0  0  2  0  0  0  0  0  0  0  0  0
    9.3334  -16.1759   21.3638 N   0  0  0  0  0  0  0  0  0  0  0  0
    9.7510  -14.8763   23.2500 C   0  0  0  0  0  0  0  0  0  0  0  0
    9.7548  -13.8123   23.9736 O   0  0  0  0  0  0  0  0  0  0  0  0
   10.7810  -13.6216   29.7750 C   0  0  0  0  0  0  0  0  0  0  0  0
   10.7499  -14.0439   28.0310 S   0  0  0  0  0  0  0  0  0  0  0  0
    9.4950  -15.2663   27.6302 C   0  0  0  0  0  0  0  0  0  0  0  0
    9.2125  -15.4104   26.1708 C   0  0  0  0  0  0  0  0  0  0  0  0
   10.3780  -16.0104   25.3818 C   0  0  2  0  0  0  0  0  0  0  0  0
   10.0688  -16.0560   23.9751 N   0  0  0  0  0  0  0  0  0  0  0  0
   10.5875  -17.3496   25.9426 C   0  0  0  0  0  0  0  0  0  0  0  0
   10.9770  -17.5116   27.1473 O   0  0  0  0  0  0  0  0  0  0  0  0
   10.3741  -18.4811   25.2021 O   0  0  0  0  0  0  0  0  0  0  0  0
  1  2  1  0
  2  3  2  0
  2  4  1  0
  5  6  1  6
  5  4  1  0
  7  5  1  0
  8  7  2  0
 10  9  1  1
 10 12  1  0
 11 10  1  0
 13 12  1  1
 13 14  1  0
 14  7  1  0
 15 13  1  0
 15 16  2  0
 18 17  1  0
 19 20  1  0
 19 18  1  0
 21 20  1  1
 21 22  1  0
 22 15  1  0
 23 21  1  0
 24 23  2  0
 25 23  1  0
M  END
$$$$
