NLM.pdb
     RDKit          3D

 25 24  0  0  1  0  0  0  0  0999 V2000
    8.7814  -19.4087   16.5951 N   0  0  0  0  0  0  0  0  0  0  0  0
    9.5241  -19.5128   17.7853 C   0  0  0  0  0  0  0  0  0  0  0  0
    9.7686  -20.6309   18.2699 O   0  0  0  0  0  0  0  0  0  0  0  0
   10.0117  -18.2970   18.4566 C   0  0  0  0  0  0  0  0  0  0  0  0
    9.6038  -18.2159   19.9068 C   0  0  2  0  0  0  0  0  0  0  0  0
    8.1866  -18.4557   20.0852 N   0  0  0  0  0  0  0  0  0  0  0  0
    9.9088  -16.8829   20.4916 C   0  0  0  0  0  0  0  0  0  0  0  0
   11.1051  -16.4295   20.5140 O   0  0  0  0  0  0  0  0  0  0  0  0
    8.8816  -12.6305   19.1408 C   0  0  0  0  0  0  0  0  0  0  0  0
    7.8916  -13.5552   19.7453 C   0  0  2  0  0  0  0  0  0  0  0  0
    6.5180  -12.8444   19.6671 C   0  0  0  0  0  0  0  0  0  0  0  0
    8.1160  -13.8780   21.1465 C   0  0  0  0  0  0  0  0  0  0  0  0
    9.2894  -14.6843   21.6029 C   0  0  2  0  0  0  0  0  0  0  0  0
    8.9353  -16.0426   21.0488 N   0  0  0  0  0  0  0  0  0  0  0  0
    9.3360  -14.9066   23.0412 C   0  0  0  0  0  0  0  0  0  0  0  0
    9.8442  -13.9852   23.7819 O   0  0  0  0  0  0  0  0  0  0  0  0
    6.9516  -11.4843   27.4492 C   0  0  0  0  0  0  0  0  0  0  0  0
    6.5557  -13.1316   26.8573 S   0  0  0  0  0  0  0  0  0  0  0  0
    8.0162  -14.1095   26.4833 C   0  0  0  0  0  0  0  0  0  0  0  0
    7.7322  -15.4332   25.8525 C   0  0  0  0  0  0  0  0  0  0  0  0
    8.9628  -16.0784   25.2119 C   0  0  2  0  0  0  0  0  0  0  0  0
    8.8707  -16.0309   23.7745 N   0  0  0  0  0  0  0  0  0  0  0  0
    8.9949  -17.4556   25.7158 C   0  0  0  0  0  0  0  0  0  0  0  0
    8.9971  -17.7049   26.9676 O   0  0  0  0  0  0  0  0  0  0  0  0
    9.0224  -18.5311   24.8690 O   0  0  0  0  0  0  0  0  0  0  0  0
  1  2  1  0
  2  3  2  0
  2  4  1  0
  5  6  1  6
  5  4  1  0
  7  5  1  0
  8  7  2  0
 10  9  1  1
 10 12  1  0
 11 10  1  0
 13 12  1  1
 13 14  1  0
 14  7  1  0
 15 13  1  0
 15 16  2  0
 18 17  1  0
 19 20  1  0
 19 18  1  0
 21 20  1  1
 21 22  1  0
 22 15  1  0
 23 21  1  0
 24 23  2  0
 25 23  1  0
M  END
$$$$
