NLM.pdb
     RDKit          3D

 25 24  0  0  1  0  0  0  0  0999 V2000
    9.0475  -18.1887   18.5144 N   0  0  0  0  0  0  0  0  0  0  0  0
    8.9119  -16.7893   18.4647 C   0  0  0  0  0  0  0  0  0  0  0  0
    8.7275  -16.2208   17.3750 O   0  0  0  0  0  0  0  0  0  0  0  0
    8.9886  -15.9985   19.7038 C   0  0  0  0  0  0  0  0  0  0  0  0
    9.2481  -16.8395   20.9291 C   0  0  2  0  0  0  0  0  0  0  0  0
    8.1025  -17.6531   21.2804 N   0  0  0  0  0  0  0  0  0  0  0  0
    9.5813  -16.0020   22.1121 C   0  0  0  0  0  0  0  0  0  0  0  0
   10.5523  -15.1693   22.0795 O   0  0  0  0  0  0  0  0  0  0  0  0
    7.9335  -12.4454   24.8259 C   0  0  0  0  0  0  0  0  0  0  0  0
    7.2346  -13.7474   24.6962 C   0  0  2  0  0  0  0  0  0  0  0  0
    5.9841  -13.6701   25.6065 C   0  0  0  0  0  0  0  0  0  0  0  0
    7.9965  -14.9089   25.1304 C   0  0  0  0  0  0  0  0  0  0  0  0
    9.3176  -15.2682   24.5296 C   0  0  2  0  0  0  0  0  0  0  0  0
    8.8765  -16.0587   23.3222 N   0  0  0  0  0  0  0  0  0  0  0  0
   10.0819  -16.2341   25.3063 C   0  0  0  0  0  0  0  0  0  0  0  0
   10.6532  -17.2017   24.6792 O   0  0  0  0  0  0  0  0  0  0  0  0
   10.8134  -12.7235   28.7253 C   0  0  0  0  0  0  0  0  0  0  0  0
   10.5307  -14.3607   29.4038 S   0  0  0  0  0  0  0  0  0  0  0  0
   11.8533  -15.5147   29.0185 C   0  0  0  0  0  0  0  0  0  0  0  0
   11.4036  -16.9203   28.7895 C   0  0  0  0  0  0  0  0  0  0  0  0
   11.1588  -17.2483   27.3152 C   0  0  2  0  0  0  0  0  0  0  0  0
   10.3085  -16.2555   26.7086 N   0  0  0  0  0  0  0  0  0  0  0  0
   10.5444  -18.5803   27.3030 C   0  0  0  0  0  0  0  0  0  0  0  0
    9.3473  -18.7557   26.8963 O   0  0  0  0  0  0  0  0  0  0  0  0
   11.2255  -19.6907   27.7243 O   0  0  0  0  0  0  0  0  0  0  0  0
  1  2  1  0
  2  3  2  0
  2  4  1  0
  5  6  1  1
  5  4  1  0
  7  5  1  0
  8  7  2  0
 10  9  1  1
 10 12  1  0
 11 10  1  0
 13 12  1  1
 13 14  1  0
 14  7  1  0
 15 13  1  0
 15 16  2  0
 18 17  1  0
 19 20  1  0
 19 18  1  0
 21 20  1  1
 21 22  1  0
 22 15  1  0
 23 21  1  0
 24 23  2  0
 25 23  1  0
M  END
$$$$
