NLM.pdb
     RDKit          3D

 25 24  0  0  1  0  0  0  0  0999 V2000
    6.9009  -17.8828   17.6033 N   0  0  0  0  0  0  0  0  0  0  0  0
    7.1928  -18.1156   18.9596 C   0  0  0  0  0  0  0  0  0  0  0  0
    6.8744  -19.1944   19.4881 O   0  0  0  0  0  0  0  0  0  0  0  0
    7.8758  -17.0807   19.7530 C   0  0  0  0  0  0  0  0  0  0  0  0
    8.0793  -17.4764   21.1945 C   0  0  2  0  0  0  0  0  0  0  0  0
    6.8235  -17.7371   21.8673 N   0  0  0  0  0  0  0  0  0  0  0  0
    8.7864  -16.4170   21.9624 C   0  0  0  0  0  0  0  0  0  0  0  0
    9.9033  -15.9417   21.5577 O   0  0  0  0  0  0  0  0  0  0  0  0
    7.4007  -12.0085   23.9234 C   0  0  0  0  0  0  0  0  0  0  0  0
    6.9071  -13.3269   24.3911 C   0  0  2  0  0  0  0  0  0  0  0  0
    6.0405  -13.0544   25.6454 C   0  0  0  0  0  0  0  0  0  0  0  0
    7.9390  -14.2711   24.7931 C   0  0  0  0  0  0  0  0  0  0  0  0
    9.0058  -14.7365   23.8546 C   0  0  2  0  0  0  0  0  0  0  0  0
    8.2970  -15.8717   23.1572 N   0  0  0  0  0  0  0  0  0  0  0  0
   10.1306  -15.3901   24.5088 C   0  0  0  0  0  0  0  0  0  0  0  0
   11.2576  -14.7700   24.5419 O   0  0  0  0  0  0  0  0  0  0  0  0
   10.3611  -13.4985   29.4638 C   0  0  0  0  0  0  0  0  0  0  0  0
   10.8940  -15.1003   30.0730 S   0  0  0  0  0  0  0  0  0  0  0  0
   11.2569  -16.2645   28.7530 C   0  0  0  0  0  0  0  0  0  0  0  0
   10.4892  -16.0334   27.4930 C   0  0  0  0  0  0  0  0  0  0  0  0
   10.9770  -16.8842   26.3186 C   0  0  2  0  0  0  0  0  0  0  0  0
   10.1611  -16.6560   25.1529 N   0  0  0  0  0  0  0  0  0  0  0  0
   10.9015  -18.2748   26.7792 C   0  0  0  0  0  0  0  0  0  0  0  0
   10.0333  -19.0839   26.3091 O   0  0  0  0  0  0  0  0  0  0  0  0
   11.7564  -18.7655   27.7292 O   0  0  0  0  0  0  0  0  0  0  0  0
  1  2  1  0
  2  3  2  0
  2  4  1  0
  5  6  1  1
  5  4  1  0
  7  5  1  0
  8  7  2  0
 10  9  1  1
 10 12  1  0
 11 10  1  0
 13 12  1  1
 13 14  1  0
 14  7  1  0
 15 13  1  0
 15 16  2  0
 18 17  1  0
 19 20  1  0
 19 18  1  0
 21 20  1  1
 21 22  1  0
 22 15  1  0
 23 21  1  0
 24 23  2  0
 25 23  1  0
M  END
$$$$
