NLM.pdb
     RDKit          3D

 25 24  0  0  1  0  0  0  0  0999 V2000
    9.8999  -19.3274   17.8493 N   0  0  0  0  0  0  0  0  0  0  0  0
    8.9393  -18.4212   18.3339 C   0  0  0  0  0  0  0  0  0  0  0  0
    7.7416  -18.5655   18.0348 O   0  0  0  0  0  0  0  0  0  0  0  0
    9.3530  -17.3018   19.1957 C   0  0  0  0  0  0  0  0  0  0  0  0
    9.2145  -17.6035   20.6673 C   0  0  2  0  0  0  0  0  0  0  0  0
    7.8835  -18.0658   21.0027 N   0  0  0  0  0  0  0  0  0  0  0  0
    9.4963  -16.4069   21.5043 C   0  0  0  0  0  0  0  0  0  0  0  0
   10.5977  -15.7656   21.3904 O   0  0  0  0  0  0  0  0  0  0  0  0
    6.2080  -13.5116   25.7937 C   0  0  0  0  0  0  0  0  0  0  0  0
    7.5425  -13.5554   25.1476 C   0  0  2  0  0  0  0  0  0  0  0  0
    7.7974  -12.1437   24.5642 C   0  0  0  0  0  0  0  0  0  0  0  0
    7.6685  -14.4935   24.0422 C   0  0  0  0  0  0  0  0  0  0  0  0
    8.9701  -14.7428   23.3500 C   0  0  2  0  0  0  0  0  0  0  0  0
    8.6011  -15.9025   22.4575 N   0  0  0  0  0  0  0  0  0  0  0  0
   10.0065  -15.2944   24.2113 C   0  0  0  0  0  0  0  0  0  0  0  0
   11.1031  -14.6337   24.3413 O   0  0  0  0  0  0  0  0  0  0  0  0
    9.7957  -13.1082   29.4608 C   0  0  0  0  0  0  0  0  0  0  0  0
    9.8384  -14.8445   29.9126 S   0  0  0  0  0  0  0  0  0  0  0  0
   10.5944  -15.8766   28.6505 C   0  0  0  0  0  0  0  0  0  0  0  0
    9.9324  -15.8073   27.3135 C   0  0  0  0  0  0  0  0  0  0  0  0
   10.6634  -16.6037   26.2307 C   0  0  2  0  0  0  0  0  0  0  0  0
    9.9754  -16.4956   24.9692 N   0  0  0  0  0  0  0  0  0  0  0  0
   10.7055  -17.9869   26.7175 C   0  0  0  0  0  0  0  0  0  0  0  0
   10.0276  -18.9101   26.1541 O   0  0  0  0  0  0  0  0  0  0  0  0
   11.4720  -18.3482   27.7928 O   0  0  0  0  0  0  0  0  0  0  0  0
  1  2  1  0
  2  3  2  0
  2  4  1  0
  5  6  1  6
  5  4  1  0
  7  5  1  0
  8  7  2  0
 10  9  1  6
 10 12  1  0
 11 10  1  0
 13 12  1  1
 13 14  1  0
 14  7  1  0
 15 13  1  0
 15 16  2  0
 18 17  1  0
 19 20  1  0
 19 18  1  0
 21 20  1  1
 21 22  1  0
 22 15  1  0
 23 21  1  0
 24 23  2  0
 25 23  1  0
M  END
$$$$
