INT.pdb
     RDKit          3D

 24 23  0  0  1  0  0  0  0  0999 V2000
    5.9640  -11.5675   26.2764 C   0  0  0  0  0  0  0  0  0  0  0  0
    5.6691  -12.8496   25.5529 C   0  0  0  0  0  0  0  0  0  0  0  0
    6.8955  -13.7162   25.5659 C   0  0  2  0  0  0  0  0  0  0  0  0
    8.0926  -13.0194   24.9494 C   0  0  0  0  0  0  0  0  0  0  0  0
    6.6950  -14.9980   24.7887 C   0  0  2  0  0  0  0  0  0  0  0  0
    5.5064  -15.6700   25.2796 N   0  0  0  0  0  0  0  0  0  0  0  0
    7.8690  -15.8806   24.8182 C   0  0  0  0  0  0  0  0  0  0  0  0
    7.8743  -16.8513   25.6115 O   0  0  0  0  0  0  0  0  0  0  0  0
    9.9256  -17.5063   20.9359 N   0  0  0  0  0  0  0  0  0  0  0  0
   10.4522  -16.3358   21.5237 C   0  0  0  0  0  0  0  0  0  0  0  0
   10.3683  -15.2643   20.8922 O   0  0  0  0  0  0  0  0  0  0  0  0
   11.0745  -16.3912   22.8332 C   0  0  0  0  0  0  0  0  0  0  0  0
   10.1356  -16.6081   23.9740 C   0  0  2  0  0  0  0  0  0  0  0  0
    9.0216  -15.7065   23.9936 N   0  0  0  0  0  0  0  0  0  0  0  0
   10.9483  -16.4933   25.2394 C   0  0  0  0  0  0  0  0  0  0  0  0
   12.0571  -17.0783   25.3365 O   0  0  0  0  0  0  0  0  0  0  0  0
   11.4319  -14.5432   29.7784 C   0  0  0  0  0  0  0  0  0  0  0  0
   10.5279  -14.7066   28.5784 C   0  0  1  0  0  0  0  0  0  0  0  0
   10.2910  -13.4469   28.0299 O   0  0  0  0  0  0  0  0  0  0  0  0
   11.2305  -15.6188   27.5934 C   0  0  2  0  0  0  0  0  0  0  0  0
   10.4992  -15.7323   26.3515 N   0  0  0  0  0  0  0  0  0  0  0  0
   11.3371  -16.9598   28.2700 C   0  0  0  0  0  0  0  0  0  0  0  0
   10.4248  -17.8173   28.0523 O   0  0  0  0  0  0  0  0  0  0  0  0
   12.3652  -17.3040   29.1070 O   0  0  0  0  0  0  0  0  0  0  0  0
  1  2  1  0
  3  2  1  0
  3  5  1  0
  3  4  1  6
  5  7  1  0
  5  6  1  1
  7  8  2  0
  9 10  1  0
 10 12  1  0
 11 10  2  0
 13 12  1  6
 14 13  1  0
 14  7  1  0
 15 21  1  0
 15 13  1  0
 16 15  2  0
 18 17  1  1
 19 18  1  0
 20 18  1  0
 20 21  1  6
 22 24  1  0
 22 20  1  0
 23 22  2  0
M  END
$$$$
