INT.pdb
     RDKit          3D

 24 23  0  0  1  0  0  0  0  0999 V2000
    5.8496  -11.6621   26.5564 C   0  0  0  0  0  0  0  0  0  0  0  0
    5.6259  -12.8417   25.6550 C   0  0  0  0  0  0  0  0  0  0  0  0
    6.8739  -13.6762   25.6162 C   0  0  2  0  0  0  0  0  0  0  0  0
    8.0443  -12.9239   25.0139 C   0  0  0  0  0  0  0  0  0  0  0  0
    6.6951  -14.9296   24.7891 C   0  0  2  0  0  0  0  0  0  0  0  0
    5.4642  -15.5882   25.1849 N   0  0  0  0  0  0  0  0  0  0  0  0
    7.8460  -15.8395   24.8639 C   0  0  0  0  0  0  0  0  0  0  0  0
    7.8754  -16.7018   25.7734 O   0  0  0  0  0  0  0  0  0  0  0  0
   10.3687  -15.9015   20.5988 N   0  0  0  0  0  0  0  0  0  0  0  0
   10.3297  -16.8722   21.6232 C   0  0  0  0  0  0  0  0  0  0  0  0
    9.7087  -17.9326   21.4136 O   0  0  0  0  0  0  0  0  0  0  0  0
   11.0009  -16.6298   22.8864 C   0  0  0  0  0  0  0  0  0  0  0  0
   10.1142  -16.6349   24.0880 C   0  0  2  0  0  0  0  0  0  0  0  0
    8.9499  -15.8092   23.9587 N   0  0  0  0  0  0  0  0  0  0  0  0
   10.9595  -16.2005   25.2592 C   0  0  0  0  0  0  0  0  0  0  0  0
   11.6922  -15.1825   25.1699 O   0  0  0  0  0  0  0  0  0  0  0  0
   11.2083  -14.6792   29.4830 C   0  0  0  0  0  0  0  0  0  0  0  0
   10.5384  -15.2842   28.2710 C   0  0  1  0  0  0  0  0  0  0  0  0
   10.3313  -14.2750   27.3316 O   0  0  0  0  0  0  0  0  0  0  0  0
   11.4520  -16.3664   27.7322 C   0  0  2  0  0  0  0  0  0  0  0  0
   10.9600  -16.9135   26.4877 N   0  0  0  0  0  0  0  0  0  0  0  0
   11.5075  -17.4323   28.7944 C   0  0  0  0  0  0  0  0  0  0  0  0
   10.9291  -18.5404   28.5650 O   0  0  0  0  0  0  0  0  0  0  0  0
   12.1483  -17.2705   29.9941 O   0  0  0  0  0  0  0  0  0  0  0  0
  1  2  1  0
  3  2  1  0
  3  5  1  0
  3  4  1  6
  5  7  1  0
  5  6  1  1
  7  8  2  0
  9 10  1  0
 10 12  1  0
 11 10  2  0
 13 12  1  6
 14 13  1  0
 14  7  1  0
 15 21  1  0
 15 13  1  0
 16 15  2  0
 18 17  1  1
 19 18  1  0
 20 18  1  0
 20 21  1  6
 22 24  1  0
 22 20  1  0
 23 22  2  0
M  END
$$$$
