INT.pdb
     RDKit          3D

 24 23  0  0  1  0  0  0  0  0999 V2000
    7.0074  -12.5418   19.8905 C   0  0  0  0  0  0  0  0  0  0  0  0
    7.8191  -13.1001   18.7576 C   0  0  0  0  0  0  0  0  0  0  0  0
    8.9336  -13.9378   19.3156 C   0  0  2  0  0  0  0  0  0  0  0  0
    9.8221  -13.1500   20.2581 C   0  0  0  0  0  0  0  0  0  0  0  0
    9.8335  -14.4842   18.2298 C   0  0  2  0  0  0  0  0  0  0  0  0
    9.0203  -15.1483   17.2284 N   0  0  0  0  0  0  0  0  0  0  0  0
   10.8889  -15.3669   18.7448 C   0  0  0  0  0  0  0  0  0  0  0  0
   10.6155  -16.5708   18.9626 O   0  0  0  0  0  0  0  0  0  0  0  0
   15.2289  -13.8885   17.4263 N   0  0  0  0  0  0  0  0  0  0  0  0
   14.9997  -15.1702   17.9719 C   0  0  0  0  0  0  0  0  0  0  0  0
   15.1261  -16.1634   17.2291 O   0  0  0  0  0  0  0  0  0  0  0  0
   14.6262  -15.3156   19.3663 C   0  0  0  0  0  0  0  0  0  0  0  0
   13.2275  -15.7815   19.6040 C   0  0  2  0  0  0  0  0  0  0  0  0
   12.2243  -14.9419   19.0186 N   0  0  0  0  0  0  0  0  0  0  0  0
   13.0462  -15.8819   21.0980 C   0  0  0  0  0  0  0  0  0  0  0  0
   13.2938  -14.8936   21.8350 O   0  0  0  0  0  0  0  0  0  0  0  0
   10.8680  -18.0425   24.9010 C   0  0  0  0  0  0  0  0  0  0  0  0
   11.0998  -18.0377   23.4075 C   0  0  1  0  0  0  0  0  0  0  0  0
    9.9684  -17.5095   22.7873 O   0  0  0  0  0  0  0  0  0  0  0  0
   12.3284  -17.1937   23.1351 C   0  0  2  0  0  0  0  0  0  0  0  0
   12.5962  -17.0774   21.7191 N   0  0  0  0  0  0  0  0  0  0  0  0
   13.4703  -17.8813   23.8356 C   0  0  0  0  0  0  0  0  0  0  0  0
   14.1398  -18.7459   23.1880 O   0  0  0  0  0  0  0  0  0  0  0  0
   13.8255  -17.6239   25.1331 O   0  0  0  0  0  0  0  0  0  0  0  0
  1  2  1  0
  3  2  1  0
  3  5  1  0
  3  4  1  1
  5  7  1  0
  5  6  1  6
  7  8  2  0
  9 10  1  0
 10 12  1  0
 11 10  2  0
 13 12  1  1
 14 13  1  0
 14  7  1  0
 15 21  1  0
 15 13  1  0
 16 15  2  0
 18 17  1  1
 19 18  1  0
 20 18  1  0
 20 21  1  6
 22 24  1  0
 22 20  1  0
 23 22  2  0
M  END
$$$$
