INT.pdb
     RDKit          3D

 24 23  0  0  1  0  0  0  0  0999 V2000
    7.5536  -12.1013   20.4000 C   0  0  0  0  0  0  0  0  0  0  0  0
    7.5689  -13.5357   19.9569 C   0  0  0  0  0  0  0  0  0  0  0  0
    8.6899  -13.7374   18.9782 C   0  0  2  0  0  0  0  0  0  0  0  0
    8.5434  -12.8554   17.7538 C   0  0  0  0  0  0  0  0  0  0  0  0
    8.7586  -15.1628   18.4772 C   0  0  2  0  0  0  0  0  0  0  0  0
    7.5560  -15.4590   17.7215 N   0  0  0  0  0  0  0  0  0  0  0  0
    8.9805  -16.1415   19.5501 C   0  0  0  0  0  0  0  0  0  0  0  0
    8.0129  -16.8340   19.9447 O   0  0  0  0  0  0  0  0  0  0  0  0
   11.6939  -20.2524   22.2820 N   0  0  0  0  0  0  0  0  0  0  0  0
   11.9961  -18.8755   22.3591 C   0  0  0  0  0  0  0  0  0  0  0  0
   12.4863  -18.4331   23.4164 O   0  0  0  0  0  0  0  0  0  0  0  0
   11.7375  -18.0054   21.2272 C   0  0  0  0  0  0  0  0  0  0  0  0
   10.4402  -17.2673   21.2767 C   0  0  2  0  0  0  0  0  0  0  0  0
   10.2410  -16.3617   20.1838 N   0  0  0  0  0  0  0  0  0  0  0  0
   10.3988  -16.5405   22.5976 C   0  0  0  0  0  0  0  0  0  0  0  0
   11.2461  -15.6486   22.8579 O   0  0  0  0  0  0  0  0  0  0  0  0
    7.6477  -14.5176   24.2771 C   0  0  0  0  0  0  0  0  0  0  0  0
    7.9446  -15.6935   25.1788 C   0  0  1  0  0  0  0  0  0  0  0  0
    6.9994  -16.6882   24.9321 O   0  0  0  0  0  0  0  0  0  0  0  0
    9.3484  -16.1706   24.8660 C   0  0  2  0  0  0  0  0  0  0  0  0
    9.4169  -16.8313   23.5819 N   0  0  0  0  0  0  0  0  0  0  0  0
    9.7216  -17.1220   25.9720 C   0  0  0  0  0  0  0  0  0  0  0  0
    9.8837  -18.3484   25.6809 O   0  0  0  0  0  0  0  0  0  0  0  0
    9.8956  -16.7353   27.2744 O   0  0  0  0  0  0  0  0  0  0  0  0
  1  2  1  0
  3  2  1  0
  3  5  1  0
  3  4  1  6
  5  7  1  0
  5  6  1  1
  7  8  2  0
  9 10  1  0
 10 12  1  0
 11 10  2  0
 13 12  1  6
 14 13  1  0
 14  7  1  0
 15 21  1  0
 15 13  1  0
 16 15  2  0
 18 17  1  6
 19 18  1  0
 20 18  1  0
 20 21  1  6
 22 24  1  0
 22 20  1  0
 23 22  2  0
M  END
$$$$
