INT.pdb
     RDKit          3D

 24 23  0  0  1  0  0  0  0  0999 V2000
    5.7119  -12.2863   27.2216 C   0  0  0  0  0  0  0  0  0  0  0  0
    5.5963  -13.3027   26.1227 C   0  0  0  0  0  0  0  0  0  0  0  0
    6.9251  -13.9760   25.9322 C   0  0  2  0  0  0  0  0  0  0  0  0
    8.0026  -12.9997   25.5032 C   0  0  0  0  0  0  0  0  0  0  0  0
    6.8709  -15.0524   24.8713 C   0  0  2  0  0  0  0  0  0  0  0  0
    5.7290  -15.9113   25.1240 N   0  0  0  0  0  0  0  0  0  0  0  0
    8.1172  -15.8230   24.7667 C   0  0  0  0  0  0  0  0  0  0  0  0
    8.1748  -16.9534   25.3059 O   0  0  0  0  0  0  0  0  0  0  0  0
   13.8593  -15.8078   22.5921 N   0  0  0  0  0  0  0  0  0  0  0  0
   12.5982  -16.4381   22.6657 C   0  0  0  0  0  0  0  0  0  0  0  0
   12.5469  -17.6790   22.5582 O   0  0  0  0  0  0  0  0  0  0  0  0
   11.3965  -15.6491   22.8622 C   0  0  0  0  0  0  0  0  0  0  0  0
   10.4788  -16.1449   23.9308 C   0  0  2  0  0  0  0  0  0  0  0  0
    9.2850  -15.3667   24.0833 N   0  0  0  0  0  0  0  0  0  0  0  0
   11.2734  -16.1755   25.2124 C   0  0  0  0  0  0  0  0  0  0  0  0
   12.4127  -16.7069   25.2400 O   0  0  0  0  0  0  0  0  0  0  0  0
   11.1112  -13.3984   28.2914 C   0  0  0  0  0  0  0  0  0  0  0  0
   10.8359  -14.8166   28.7352 C   0  0  1  0  0  0  0  0  0  0  0  0
    9.4561  -14.9853   28.8424 O   0  0  0  0  0  0  0  0  0  0  0  0
   11.4310  -15.7472   27.6979 C   0  0  2  0  0  0  0  0  0  0  0  0
   10.7730  -15.6142   26.4175 N   0  0  0  0  0  0  0  0  0  0  0  0
   11.2581  -17.1413   28.2403 C   0  0  0  0  0  0  0  0  0  0  0  0
   10.5033  -17.9437   27.6066 O   0  0  0  0  0  0  0  0  0  0  0  0
   11.8713  -17.5898   29.3800 O   0  0  0  0  0  0  0  0  0  0  0  0
  1  2  1  0
  3  2  1  0
  3  5  1  0
  3  4  1  6
  5  7  1  0
  5  6  1  1
  7  8  2  0
  9 10  1  0
 10 12  1  0
 11 10  2  0
 13 12  1  6
 14 13  1  0
 14  7  1  0
 15 21  1  0
 15 13  1  0
 16 15  2  0
 18 17  1  6
 19 18  1  0
 20 18  1  0
 20 21  1  6
 22 24  1  0
 22 20  1  0
 23 22  2  0
M  END
$$$$
