INT.pdb
     RDKit          3D

 24 23  0  0  1  0  0  0  0  0999 V2000
    7.4017  -12.1998   20.3617 C   0  0  0  0  0  0  0  0  0  0  0  0
    7.4654  -13.6303   19.9101 C   0  0  0  0  0  0  0  0  0  0  0  0
    8.5890  -13.7871   18.9262 C   0  0  2  0  0  0  0  0  0  0  0  0
    8.3560  -12.9836   17.6618 C   0  0  0  0  0  0  0  0  0  0  0  0
    8.7722  -15.2253   18.4958 C   0  0  2  0  0  0  0  0  0  0  0  0
    7.5811  -15.6665   17.7944 N   0  0  0  0  0  0  0  0  0  0  0  0
    9.1102  -16.1223   19.6090 C   0  0  0  0  0  0  0  0  0  0  0  0
    8.1912  -16.7729   20.1602 O   0  0  0  0  0  0  0  0  0  0  0  0
   13.4148  -18.3109   19.2525 N   0  0  0  0  0  0  0  0  0  0  0  0
   12.4230  -18.5973   20.2155 C   0  0  0  0  0  0  0  0  0  0  0  0
   11.8090  -19.6790   20.1325 O   0  0  0  0  0  0  0  0  0  0  0  0
   12.1339  -17.6466   21.2727 C   0  0  0  0  0  0  0  0  0  0  0  0
   10.7459  -17.0955   21.2693 C   0  0  2  0  0  0  0  0  0  0  0  0
   10.4330  -16.3070   20.1142 N   0  0  0  0  0  0  0  0  0  0  0  0
   10.5908  -16.2892   22.5345 C   0  0  0  0  0  0  0  0  0  0  0  0
   10.6113  -15.0326   22.4925 O   0  0  0  0  0  0  0  0  0  0  0  0
    8.7998  -14.5027   23.6805 C   0  0  0  0  0  0  0  0  0  0  0  0
    8.6279  -15.5396   24.7665 C   0  0  1  0  0  0  0  0  0  0  0  0
    7.6626  -16.4563   24.3523 O   0  0  0  0  0  0  0  0  0  0  0  0
    9.9713  -16.2064   24.9830 C   0  0  2  0  0  0  0  0  0  0  0  0
   10.4184  -16.9087   23.8010 N   0  0  0  0  0  0  0  0  0  0  0  0
    9.7811  -17.1650   26.1287 C   0  0  0  0  0  0  0  0  0  0  0  0
    9.5281  -16.6856   27.2781 O   0  0  0  0  0  0  0  0  0  0  0  0
    9.8662  -18.5257   25.9971 O   0  0  0  0  0  0  0  0  0  0  0  0
  1  2  1  0
  3  2  1  0
  3  5  1  0
  3  4  1  6
  5  7  1  0
  5  6  1  1
  7  8  2  0
  9 10  1  0
 10 12  1  0
 11 10  2  0
 13 12  1  6
 14 13  1  0
 14  7  1  0
 15 21  1  0
 15 13  1  0
 16 15  2  0
 18 17  1  6
 19 18  1  0
 20 18  1  0
 20 21  1  6
 22 24  1  0
 22 20  1  0
 23 22  2  0
M  END
$$$$
