INT.pdb
     RDKit          3D

 24 23  0  0  1  0  0  0  0  0999 V2000
    7.1351  -12.0552   20.1204 C   0  0  0  0  0  0  0  0  0  0  0  0
    7.5981  -13.4617   19.8726 C   0  0  0  0  0  0  0  0  0  0  0  0
    8.0419  -14.0708   21.1715 C   0  0  2  0  0  0  0  0  0  0  0  0
    9.2073  -13.3195   21.7846 C   0  0  0  0  0  0  0  0  0  0  0  0
    8.4934  -15.5043   21.0031 C   0  0  2  0  0  0  0  0  0  0  0  0
    7.4443  -16.2580   20.3423 N   0  0  0  0  0  0  0  0  0  0  0  0
    8.9002  -16.1335   22.2668 C   0  0  0  0  0  0  0  0  0  0  0  0
    8.0144  -16.5998   23.0214 O   0  0  0  0  0  0  0  0  0  0  0  0
   11.3064  -20.0220   23.0069 N   0  0  0  0  0  0  0  0  0  0  0  0
   11.8785  -18.7624   22.7257 C   0  0  0  0  0  0  0  0  0  0  0  0
   12.3473  -18.5634   21.5879 O   0  0  0  0  0  0  0  0  0  0  0  0
   11.9142  -17.7311   23.7457 C   0  0  0  0  0  0  0  0  0  0  0  0
   10.6564  -16.9398   23.8932 C   0  0  2  0  0  0  0  0  0  0  0  0
   10.2552  -16.2523   22.7013 N   0  0  0  0  0  0  0  0  0  0  0  0
   10.8772  -15.9722   25.0289 C   0  0  0  0  0  0  0  0  0  0  0  0
   11.6765  -15.0106   24.8969 O   0  0  0  0  0  0  0  0  0  0  0  0
    8.9796  -13.4142   26.6333 C   0  0  0  0  0  0  0  0  0  0  0  0
    9.1784  -14.4290   27.7355 C   0  0  1  0  0  0  0  0  0  0  0  0
    8.0448  -15.2380   27.7999 O   0  0  0  0  0  0  0  0  0  0  0  0
   10.4179  -15.2342   27.4018 C   0  0  2  0  0  0  0  0  0  0  0  0
   10.2014  -16.1084   26.2708 N   0  0  0  0  0  0  0  0  0  0  0  0
   10.7401  -16.0344   28.6360 C   0  0  0  0  0  0  0  0  0  0  0  0
   10.6231  -17.2986   28.5805 O   0  0  0  0  0  0  0  0  0  0  0  0
   11.1527  -15.4717   29.8147 O   0  0  0  0  0  0  0  0  0  0  0  0
  1  2  1  0
  3  2  1  0
  3  5  1  0
  3  4  1  6
  5  7  1  0
  5  6  1  1
  7  8  2  0
  9 10  1  0
 10 12  1  0
 11 10  2  0
 13 12  1  6
 14 13  1  0
 14  7  1  0
 15 21  1  0
 15 13  1  0
 16 15  2  0
 18 17  1  6
 19 18  1  0
 20 18  1  0
 20 21  1  6
 22 24  1  0
 22 20  1  0
 23 22  2  0
M  END
$$$$
