TDL.pdb
     RDKit          3D

 24 23  0  0  1  0  0  0  0  0999 V2000
    8.1214  -12.6349   18.9360 C   0  0  0  0  0  0  0  0  0  0  0  0
    8.4966  -13.3584   20.2087 C   0  0  1  0  0  0  0  0  0  0  0  0
    7.9274  -12.6695   21.2791 O   0  0  0  0  0  0  0  0  0  0  0  0
    7.9673  -14.7770   20.1940 C   0  0  2  0  0  0  0  0  0  0  0  0
    6.5422  -14.7445   19.9909 N   0  0  0  0  0  0  0  0  0  0  0  0
    8.2320  -15.4286   21.5023 C   0  0  0  0  0  0  0  0  0  0  0  0
    7.2794  -15.5386   22.2946 O   0  0  0  0  0  0  0  0  0  0  0  0
    9.5096  -15.9205   21.8725 N   0  0  0  0  0  0  0  0  0  0  0  0
    9.7609  -16.6275   23.1114 C   0  0  1  0  0  0  0  0  0  0  0  0
   10.8704  -17.6237   22.9993 C   0  0  0  0  0  0  0  0  0  0  0  0
   10.7070  -18.6239   21.9634 C   0  0  0  0  0  0  0  0  0  0  0  0
    9.8357  -19.5127   22.0760 O   0  0  0  0  0  0  0  0  0  0  0  0
    9.9249  -15.6956   24.2578 C   0  0  0  0  0  0  0  0  0  0  0  0
   10.8445  -14.8338   24.3093 O   0  0  0  0  0  0  0  0  0  0  0  0
   11.4980  -18.6264   20.8347 O   0  0  0  0  0  0  0  0  0  0  0  0
    8.1041  -12.2425   26.2031 C   0  0  0  0  0  0  0  0  0  0  0  0
    7.1827  -13.4720   26.2714 C   0  0  2  0  0  0  0  0  0  0  0  0
    5.8698  -13.0052   26.7857 C   0  0  0  0  0  0  0  0  0  0  0  0
    7.8893  -14.5022   27.0713 C   0  0  0  0  0  0  0  0  0  0  0  0
    9.2018  -14.9729   26.5626 C   0  0  2  0  0  0  0  0  0  0  0  0
    9.0354  -15.7354   25.3682 N   0  0  0  0  0  0  0  0  0  0  0  0
    9.7774  -15.8704   27.6294 C   0  0  0  0  0  0  0  0  0  0  0  0
    9.8021  -17.1207   27.5210 O   0  0  0  0  0  0  0  0  0  0  0  0
   10.3049  -15.3127   28.7826 O   0  0  0  0  0  0  0  0  0  0  0  0
  2  1  1  6
  2  4  1  0
  3  2  1  0
  4  6  1  0
  4  5  1  1
  6  7  2  0
  8  6  1  0
  8  9  1  0
  9 13  1  0
  9 10  1  6
 10 11  1  0
 11 12  2  0
 11 15  1  0
 13 14  2  0
 17 16  1  1
 17 18  1  0
 19 17  1  0
 20 19  1  1
 20 22  1  0
 21 13  1  0
 21 20  1  0
 22 24  1  0
 23 22  2  0
M  END
$$$$
