TDL.pdb
     RDKit          3D

 24 23  0  0  1  0  0  0  0  0999 V2000
    6.9329  -13.0172   19.6741 C   0  0  0  0  0  0  0  0  0  0  0  0
    7.6699  -13.7311   20.7837 C   0  0  1  0  0  0  0  0  0  0  0  0
    6.7974  -13.8652   21.8630 O   0  0  0  0  0  0  0  0  0  0  0  0
    8.1154  -15.1061   20.3321 C   0  0  2  0  0  0  0  0  0  0  0  0
    6.9713  -15.8362   19.8512 N   0  0  0  0  0  0  0  0  0  0  0  0
    8.6902  -15.8533   21.4801 C   0  0  0  0  0  0  0  0  0  0  0  0
    7.9942  -16.7484   21.9917 O   0  0  0  0  0  0  0  0  0  0  0  0
    9.9810  -15.5863   22.0032 N   0  0  0  0  0  0  0  0  0  0  0  0
   10.4581  -16.1293   23.2584 C   0  0  1  0  0  0  0  0  0  0  0  0
   11.9484  -16.1009   23.3769 C   0  0  0  0  0  0  0  0  0  0  0  0
   12.6724  -16.7015   22.2745 C   0  0  0  0  0  0  0  0  0  0  0  0
   13.4394  -16.0093   21.5714 O   0  0  0  0  0  0  0  0  0  0  0  0
    9.7666  -15.5195   24.4245 C   0  0  0  0  0  0  0  0  0  0  0  0
    9.0653  -14.4753   24.3313 O   0  0  0  0  0  0  0  0  0  0  0  0
   12.5395  -18.0392   21.9703 O   0  0  0  0  0  0  0  0  0  0  0  0
    8.3131  -13.0902   27.0523 C   0  0  0  0  0  0  0  0  0  0  0  0
    7.8340  -13.8617   25.8111 C   0  0  2  0  0  0  0  0  0  0  0  0
    6.6246  -13.1642   25.3041 C   0  0  0  0  0  0  0  0  0  0  0  0
    7.6715  -15.2797   26.2150 C   0  0  0  0  0  0  0  0  0  0  0  0
    8.8728  -15.9776   26.7372 C   0  0  2  0  0  0  0  0  0  0  0  0
    9.8674  -16.0975   25.7212 N   0  0  0  0  0  0  0  0  0  0  0  0
    8.4243  -17.3612   27.1363 C   0  0  0  0  0  0  0  0  0  0  0  0
    7.7002  -17.5750   28.1391 O   0  0  0  0  0  0  0  0  0  0  0  0
    8.8162  -18.4533   26.3794 O   0  0  0  0  0  0  0  0  0  0  0  0
  2  1  1  6
  2  4  1  0
  3  2  1  0
  4  6  1  0
  4  5  1  1
  6  7  2  0
  8  6  1  0
  8  9  1  0
  9 13  1  0
  9 10  1  1
 10 11  1  0
 11 12  2  0
 11 15  1  0
 13 14  2  0
 17 16  1  1
 17 18  1  0
 19 17  1  0
 20 19  1  6
 20 22  1  0
 21 13  1  0
 21 20  1  0
 22 24  1  0
 23 22  2  0
M  END
$$$$
