TDL.pdb
     RDKit          3D

 24 23  0  0  1  0  0  0  0  0999 V2000
    7.8215  -12.0862   19.3921 C   0  0  0  0  0  0  0  0  0  0  0  0
    8.2063  -13.1034   20.4415 C   0  0  1  0  0  0  0  0  0  0  0  0
    7.2652  -13.0393   21.4684 O   0  0  0  0  0  0  0  0  0  0  0  0
    8.2087  -14.5005   19.8574 C   0  0  2  0  0  0  0  0  0  0  0  0
    6.9383  -14.7481   19.2267 N   0  0  0  0  0  0  0  0  0  0  0  0
    8.3888  -15.5007   20.9407 C   0  0  0  0  0  0  0  0  0  0  0  0
    7.4141  -16.2164   21.2322 O   0  0  0  0  0  0  0  0  0  0  0  0
    9.6110  -15.6648   21.6410 N   0  0  0  0  0  0  0  0  0  0  0  0
    9.7801  -16.5962   22.7374 C   0  0  1  0  0  0  0  0  0  0  0  0
   10.7992  -17.6527   22.4527 C   0  0  0  0  0  0  0  0  0  0  0  0
   11.0057  -18.6204   23.5115 C   0  0  0  0  0  0  0  0  0  0  0  0
   10.0421  -19.0146   24.2031 O   0  0  0  0  0  0  0  0  0  0  0  0
   10.0079  -15.8964   24.0289 C   0  0  0  0  0  0  0  0  0  0  0  0
   11.1501  -15.5174   24.4064 O   0  0  0  0  0  0  0  0  0  0  0  0
   12.2562  -19.1305   23.7862 O   0  0  0  0  0  0  0  0  0  0  0  0
    8.8193  -12.1141   25.9194 C   0  0  0  0  0  0  0  0  0  0  0  0
    7.6048  -13.0458   25.7701 C   0  0  2  0  0  0  0  0  0  0  0  0
    6.4011  -12.2545   26.1320 C   0  0  0  0  0  0  0  0  0  0  0  0
    7.8816  -14.2561   26.5818 C   0  0  0  0  0  0  0  0  0  0  0  0
    9.0757  -15.0585   26.2166 C   0  0  2  0  0  0  0  0  0  0  0  0
    8.9274  -15.6182   24.9126 N   0  0  0  0  0  0  0  0  0  0  0  0
    9.1566  -16.1848   27.2165 C   0  0  0  0  0  0  0  0  0  0  0  0
    9.3635  -15.9907   28.4393 O   0  0  0  0  0  0  0  0  0  0  0  0
    8.9989  -17.4930   26.7890 O   0  0  0  0  0  0  0  0  0  0  0  0
  2  1  1  6
  2  4  1  0
  3  2  1  0
  4  6  1  0
  4  5  1  1
  6  7  2  0
  8  6  1  0
  8  9  1  0
  9 13  1  0
  9 10  1  6
 10 11  1  0
 11 12  2  0
 11 15  1  0
 13 14  2  0
 17 16  1  1
 17 18  1  0
 19 17  1  0
 20 19  1  1
 20 22  1  0
 21 13  1  0
 21 20  1  0
 22 24  1  0
 23 22  2  0
M  END
$$$$
