TDL.pdb
     RDKit          3D

 24 23  0  0  1  0  0  0  0  0999 V2000
    8.2463  -12.2827   18.9720 C   0  0  0  0  0  0  0  0  0  0  0  0
    8.4981  -13.1734   20.1668 C   0  0  1  0  0  0  0  0  0  0  0  0
    7.5266  -12.8910   21.1263 O   0  0  0  0  0  0  0  0  0  0  0  0
    8.3999  -14.6332   19.7762 C   0  0  2  0  0  0  0  0  0  0  0  0
    7.0741  -14.8990   19.2816 N   0  0  0  0  0  0  0  0  0  0  0  0
    8.6287  -15.4912   20.9670 C   0  0  0  0  0  0  0  0  0  0  0  0
    7.6283  -15.9100   21.5763 O   0  0  0  0  0  0  0  0  0  0  0  0
    9.9241  -15.8428   21.4247 N   0  0  0  0  0  0  0  0  0  0  0  0
   10.1594  -16.6266   22.6198 C   0  0  1  0  0  0  0  0  0  0  0  0
   11.4056  -17.4492   22.5414 C   0  0  0  0  0  0  0  0  0  0  0  0
   11.4971  -18.3336   21.3970 C   0  0  0  0  0  0  0  0  0  0  0  0
   10.5442  -19.0873   21.1039 O   0  0  0  0  0  0  0  0  0  0  0  0
   10.0826  -15.7967   23.8507 C   0  0  0  0  0  0  0  0  0  0  0  0
   11.0064  -15.0138   24.2035 O   0  0  0  0  0  0  0  0  0  0  0  0
   12.6244  -18.3709   20.6049 O   0  0  0  0  0  0  0  0  0  0  0  0
    5.9547  -12.7634   26.3655 C   0  0  0  0  0  0  0  0  0  0  0  0
    7.4235  -13.1905   26.5257 C   0  0  2  0  0  0  0  0  0  0  0  0
    8.2411  -12.2538   25.7129 C   0  0  0  0  0  0  0  0  0  0  0  0
    7.5002  -14.6290   26.1720 C   0  0  0  0  0  0  0  0  0  0  0  0
    8.8528  -15.2063   25.9712 C   0  0  2  0  0  0  0  0  0  0  0  0
    8.9424  -15.8501   24.7010 N   0  0  0  0  0  0  0  0  0  0  0  0
    9.0398  -16.2437   27.0499 C   0  0  0  0  0  0  0  0  0  0  0  0
    9.1896  -15.9429   28.2594 O   0  0  0  0  0  0  0  0  0  0  0  0
    9.0497  -17.5875   26.7137 O   0  0  0  0  0  0  0  0  0  0  0  0
  2  1  1  6
  2  4  1  0
  3  2  1  0
  4  6  1  0
  4  5  1  1
  6  7  2  0
  8  6  1  0
  8  9  1  0
  9 13  1  0
  9 10  1  6
 10 11  1  0
 11 12  2  0
 11 15  1  0
 13 14  2  0
 17 16  1  6
 17 18  1  0
 19 17  1  0
 20 19  1  1
 20 22  1  0
 21 13  1  0
 21 20  1  0
 22 24  1  0
 23 22  2  0
M  END
$$$$
