TDL.pdb
     RDKit          3D

 24 23  0  0  1  0  0  0  0  0999 V2000
    7.8671  -12.2410   19.2091 C   0  0  0  0  0  0  0  0  0  0  0  0
    8.2706  -13.1747   20.3269 C   0  0  1  0  0  0  0  0  0  0  0  0
    7.5470  -12.8210   21.4652 O   0  0  0  0  0  0  0  0  0  0  0  0
    7.9551  -14.6108   19.9650 C   0  0  2  0  0  0  0  0  0  0  0  0
    6.5456  -14.7286   19.6955 N   0  0  0  0  0  0  0  0  0  0  0  0
    8.2827  -15.5031   21.1064 C   0  0  0  0  0  0  0  0  0  0  0  0
    7.3386  -15.9233   21.7989 O   0  0  0  0  0  0  0  0  0  0  0  0
    9.6100  -15.8856   21.4279 N   0  0  0  0  0  0  0  0  0  0  0  0
    9.9442  -16.7171   22.5658 C   0  0  1  0  0  0  0  0  0  0  0  0
   11.1673  -17.5475   22.3416 C   0  0  0  0  0  0  0  0  0  0  0  0
   11.5022  -18.4648   23.4125 C   0  0  0  0  0  0  0  0  0  0  0  0
   10.5991  -19.0524   24.0458 O   0  0  0  0  0  0  0  0  0  0  0  0
    9.9915  -15.9349   23.8289 C   0  0  0  0  0  0  0  0  0  0  0  0
   10.9227  -15.1272   24.0958 O   0  0  0  0  0  0  0  0  0  0  0  0
   12.8116  -18.7150   23.7622 O   0  0  0  0  0  0  0  0  0  0  0  0
    6.0818  -13.0735   26.5726 C   0  0  0  0  0  0  0  0  0  0  0  0
    7.5771  -13.4308   26.6143 C   0  0  2  0  0  0  0  0  0  0  0  0
    8.2533  -12.5981   25.5869 C   0  0  0  0  0  0  0  0  0  0  0  0
    7.6780  -14.9025   26.4587 C   0  0  0  0  0  0  0  0  0  0  0  0
    9.0077  -15.4564   26.1006 C   0  0  2  0  0  0  0  0  0  0  0  0
    8.9694  -16.0653   24.8108 N   0  0  0  0  0  0  0  0  0  0  0  0
    9.3184  -16.5194   27.1246 C   0  0  0  0  0  0  0  0  0  0  0  0
    9.1839  -17.7451   26.8899 O   0  0  0  0  0  0  0  0  0  0  0  0
    9.7713  -16.1493   28.3804 O   0  0  0  0  0  0  0  0  0  0  0  0
  2  1  1  6
  2  4  1  0
  3  2  1  0
  4  6  1  0
  4  5  1  1
  6  7  2  0
  8  6  1  0
  8  9  1  0
  9 13  1  0
  9 10  1  6
 10 11  1  0
 11 12  2  0
 11 15  1  0
 13 14  2  0
 17 16  1  6
 17 18  1  0
 19 17  1  0
 20 19  1  1
 20 22  1  0
 21 13  1  0
 21 20  1  0
 22 24  1  0
 23 22  2  0
M  END
$$$$
