TDL.pdb
     RDKit          3D

 24 23  0  0  1  0  0  0  0  0999 V2000
    8.7568  -12.4239   20.8397 C   0  0  0  0  0  0  0  0  0  0  0  0
    7.7339  -13.1431   19.9909 C   0  0  1  0  0  0  0  0  0  0  0  0
    7.6907  -12.5168   18.7459 O   0  0  0  0  0  0  0  0  0  0  0  0
    8.1202  -14.5951   19.8026 C   0  0  2  0  0  0  0  0  0  0  0  0
    7.1558  -15.2300   18.9424 N   0  0  0  0  0  0  0  0  0  0  0  0
    8.1028  -15.2964   21.1119 C   0  0  0  0  0  0  0  0  0  0  0  0
    7.1534  -16.0670   21.3404 O   0  0  0  0  0  0  0  0  0  0  0  0
    9.1124  -15.1211   22.0923 N   0  0  0  0  0  0  0  0  0  0  0  0
    9.7007  -16.2183   22.8326 C   0  0  1  0  0  0  0  0  0  0  0  0
   11.0301  -16.6392   22.2928 C   0  0  0  0  0  0  0  0  0  0  0  0
   11.6809  -17.7169   23.0106 C   0  0  0  0  0  0  0  0  0  0  0  0
   11.0764  -18.7902   23.2216 O   0  0  0  0  0  0  0  0  0  0  0  0
    9.7207  -15.9523   24.2950 C   0  0  0  0  0  0  0  0  0  0  0  0
   10.1580  -16.7869   25.1335 O   0  0  0  0  0  0  0  0  0  0  0  0
   12.9717  -17.5938   23.4777 O   0  0  0  0  0  0  0  0  0  0  0  0
    8.1743  -11.6856   25.8098 C   0  0  0  0  0  0  0  0  0  0  0  0
    7.1820  -12.8450   25.6193 C   0  0  2  0  0  0  0  0  0  0  0  0
    5.8273  -12.3127   25.9152 C   0  0  0  0  0  0  0  0  0  0  0  0
    7.6597  -13.9702   26.4596 C   0  0  0  0  0  0  0  0  0  0  0  0
    9.0374  -14.4638   26.2119 C   0  0  2  0  0  0  0  0  0  0  0  0
    9.2382  -14.7218   24.8231 N   0  0  0  0  0  0  0  0  0  0  0  0
    9.1683  -15.7635   26.9660 C   0  0  0  0  0  0  0  0  0  0  0  0
    9.0817  -16.8831   26.4050 O   0  0  0  0  0  0  0  0  0  0  0  0
    9.3934  -15.7429   28.3327 O   0  0  0  0  0  0  0  0  0  0  0  0
  2  1  1  1
  2  4  1  0
  3  2  1  0
  4  6  1  0
  4  5  1  6
  6  7  2  0
  8  6  1  0
  8  9  1  0
  9 13  1  0
  9 10  1  6
 10 11  1  0
 11 12  2  0
 11 15  1  0
 13 14  2  0
 17 16  1  1
 17 18  1  0
 19 17  1  0
 20 19  1  6
 20 22  1  0
 21 13  1  0
 21 20  1  0
 22 24  1  0
 23 22  2  0
M  END
$$$$
