TDL.pdb
     RDKit          3D

 24 23  0  0  1  0  0  0  0  0999 V2000
    7.2829  -12.3660   20.1301 C   0  0  0  0  0  0  0  0  0  0  0  0
    7.8791  -13.4716   20.9705 C   0  0  1  0  0  0  0  0  0  0  0  0
    6.8757  -13.9697   21.8008 O   0  0  0  0  0  0  0  0  0  0  0  0
    8.3976  -14.5911   20.0925 C   0  0  2  0  0  0  0  0  0  0  0  0
    7.3845  -14.9419   19.1313 N   0  0  0  0  0  0  0  0  0  0  0  0
    8.6836  -15.7910   20.9200 C   0  0  0  0  0  0  0  0  0  0  0  0
    8.6289  -16.9018   20.3628 O   0  0  0  0  0  0  0  0  0  0  0  0
    9.0110  -15.7153   22.2978 N   0  0  0  0  0  0  0  0  0  0  0  0
   10.0400  -16.5258   22.9161 C   0  0  1  0  0  0  0  0  0  0  0  0
   11.3091  -16.5588   22.1261 C   0  0  0  0  0  0  0  0  0  0  0  0
   12.3830  -17.3409   22.7053 C   0  0  0  0  0  0  0  0  0  0  0  0
   13.3987  -16.7758   23.1646 O   0  0  0  0  0  0  0  0  0  0  0  0
   10.2480  -16.1637   24.3427 C   0  0  0  0  0  0  0  0  0  0  0  0
   11.1601  -16.6735   25.0492 O   0  0  0  0  0  0  0  0  0  0  0  0
   12.3189  -18.7163   22.7671 O   0  0  0  0  0  0  0  0  0  0  0  0
    7.9363  -11.7136   25.4819 C   0  0  0  0  0  0  0  0  0  0  0  0
    7.7213  -13.2320   25.5981 C   0  0  2  0  0  0  0  0  0  0  0  0
    6.2636  -13.4535   25.7775 C   0  0  0  0  0  0  0  0  0  0  0  0
    8.6122  -13.7168   26.6805 C   0  0  0  0  0  0  0  0  0  0  0  0
    9.4811  -14.8803   26.3730 C   0  0  2  0  0  0  0  0  0  0  0  0
    9.4117  -15.2085   24.9862 N   0  0  0  0  0  0  0  0  0  0  0  0
    8.9395  -16.0412   27.1691 C   0  0  0  0  0  0  0  0  0  0  0  0
    9.0106  -16.0949   28.4212 O   0  0  0  0  0  0  0  0  0  0  0  0
    8.3357  -17.1005   26.5116 O   0  0  0  0  0  0  0  0  0  0  0  0
  2  1  1  6
  2  4  1  0
  3  2  1  0
  4  6  1  0
  4  5  1  6
  6  7  2  0
  8  6  1  0
  8  9  1  0
  9 13  1  0
  9 10  1  6
 10 11  1  0
 11 12  2  0
 11 15  1  0
 13 14  2  0
 17 16  1  1
 17 18  1  0
 19 17  1  0
 20 19  1  6
 20 22  1  0
 21 13  1  0
 21 20  1  0
 22 24  1  0
 23 22  2  0
M  END
$$$$
