TDL.pdb
     RDKit          3D

 24 23  0  0  1  0  0  0  0  0999 V2000
    7.5334  -12.5607   20.9425 C   0  0  0  0  0  0  0  0  0  0  0  0
    8.2453  -13.2502   19.8015 C   0  0  1  0  0  0  0  0  0  0  0  0
    9.6177  -13.1003   19.9972 O   0  0  0  0  0  0  0  0  0  0  0  0
    7.9066  -14.7258   19.7728 C   0  0  2  0  0  0  0  0  0  0  0  0
    6.5128  -14.8815   19.4465 N   0  0  0  0  0  0  0  0  0  0  0  0
    8.1361  -15.3229   21.1133 C   0  0  0  0  0  0  0  0  0  0  0  0
    7.2001  -15.2797   21.9315 O   0  0  0  0  0  0  0  0  0  0  0  0
    9.3627  -15.9295   21.4857 N   0  0  0  0  0  0  0  0  0  0  0  0
    9.5685  -16.5911   22.7577 C   0  0  1  0  0  0  0  0  0  0  0  0
   10.6740  -17.5972   22.7193 C   0  0  0  0  0  0  0  0  0  0  0  0
   10.6275  -18.5317   21.6127 C   0  0  0  0  0  0  0  0  0  0  0  0
   11.3967  -18.3939   20.6374 O   0  0  0  0  0  0  0  0  0  0  0  0
    9.7016  -15.6179   23.8734 C   0  0  0  0  0  0  0  0  0  0  0  0
   10.6376  -14.7745   23.9341 O   0  0  0  0  0  0  0  0  0  0  0  0
    9.7439  -19.5894   21.6009 O   0  0  0  0  0  0  0  0  0  0  0  0
    8.1040  -11.9288   25.9802 C   0  0  0  0  0  0  0  0  0  0  0  0
    7.0886  -13.0653   25.7738 C   0  0  2  0  0  0  0  0  0  0  0  0
    5.7560  -12.5348   26.1597 C   0  0  0  0  0  0  0  0  0  0  0  0
    7.5886  -14.2392   26.5302 C   0  0  0  0  0  0  0  0  0  0  0  0
    8.8996  -14.8014   26.1201 C   0  0  2  0  0  0  0  0  0  0  0  0
    8.7616  -15.5943   24.9419 N   0  0  0  0  0  0  0  0  0  0  0  0
    9.3549  -15.6927   27.2484 C   0  0  0  0  0  0  0  0  0  0  0  0
    9.7693  -15.2401   28.3434 O   0  0  0  0  0  0  0  0  0  0  0  0
    9.3225  -17.0686   27.0904 O   0  0  0  0  0  0  0  0  0  0  0  0
  2  1  1  1
  2  4  1  0
  3  2  1  0
  4  6  1  0
  4  5  1  1
  6  7  2  0
  8  6  1  0
  8  9  1  0
  9 13  1  0
  9 10  1  6
 10 11  1  0
 11 12  2  0
 11 15  1  0
 13 14  2  0
 17 16  1  1
 17 18  1  0
 19 17  1  0
 20 19  1  1
 20 22  1  0
 21 13  1  0
 21 20  1  0
 22 24  1  0
 23 22  2  0
M  END
$$$$
