WAC.pdb
     RDKit          3D

 26 27  0  0  1  0  0  0  0  0999 V2000
    6.1763  -17.7988   23.5857 N   0  0  0  0  0  0  0  0  0  0  0  0
    6.5934  -16.4152   23.4130 C   0  0  1  0  0  0  0  0  0  0  0  0
    7.5424  -16.0003   24.5253 C   0  0  0  0  0  0  0  0  0  0  0  0
    6.8615  -15.1313   25.5170 C   0  0  0  0  0  0  0  0  0  0  0  0
    5.8130  -15.4865   26.3667 C   0  0  0  0  0  0  0  0  0  0  0  0
    5.5036  -14.3976   27.0919 N   0  0  0  0  0  0  0  0  0  0  0  0
    6.3047  -13.3664   26.7448 C   0  0  0  0  0  0  0  0  0  0  0  0
    6.3965  -12.0586   27.1779 C   0  0  0  0  0  0  0  0  0  0  0  0
    7.3488  -11.2198   26.6113 C   0  0  0  0  0  0  0  0  0  0  0  0
    8.2082  -11.6496   25.6283 C   0  0  0  0  0  0  0  0  0  0  0  0
    8.1175  -12.9551   25.1951 C   0  0  0  0  0  0  0  0  0  0  0  0
    7.1606  -13.7938   25.7660 C   0  0  0  0  0  0  0  0  0  0  0  0
    7.2815  -16.2207   22.1118 C   0  0  0  0  0  0  0  0  0  0  0  0
    7.8333  -17.2002   21.5812 O   0  0  0  0  0  0  0  0  0  0  0  0
    7.7566  -13.4876   19.6127 C   0  0  0  0  0  0  0  0  0  0  0  0
    8.0484  -14.8692   20.1711 C   0  0  2  0  0  0  0  0  0  0  0  0
    7.3476  -14.9766   21.4336 N   0  0  0  0  0  0  0  0  0  0  0  0
    9.5205  -15.0422   20.3935 C   0  0  0  0  0  0  0  0  0  0  0  0
   10.3186  -14.9745   19.4367 O   0  0  0  0  0  0  0  0  0  0  0  0
   10.0489  -15.2859   21.6852 N   0  0  0  0  0  0  0  0  0  0  0  0
   11.4167  -15.5393   21.9803 C   0  0  1  0  0  0  0  0  0  0  0  0
   11.7750  -15.3218   23.4306 C   0  0  0  0  0  0  0  0  0  0  0  0
   10.5874  -16.0925   24.5451 S   0  0  0  0  0  0  0  0  0  0  0  0
   11.7345  -16.9488   21.6493 C   0  0  0  0  0  0  0  0  0  0  0  0
   12.9259  -17.3772   21.6440 O   0  0  0  0  0  0  0  0  0  0  0  0
   10.7202  -17.8247   21.3381 O   0  0  0  0  0  0  0  0  0  0  0  0
  2  1  1  1
  2 13  1  0
  3  4  1  0
  3  2  1  0
  4 12  1  0
  5  4  2  0
  5  6  1  0
  6  7  1  0
  7  8  1  0
  8  9  2  0
 10  9  1  0
 11 10  2  0
 12  7  2  0
 12 11  1  0
 13 14  2  0
 16 15  1  1
 16 18  1  0
 17 13  1  0
 17 16  1  0
 18 20  1  0
 18 19  2  0
 20 21  1  0
 21 24  1  0
 21 22  1  1
 22 23  1  0
 24 25  2  0
 24 26  1  0
M  END
$$$$
