WAC.pdb
     RDKit          3D

 26 27  0  0  1  0  0  0  0  0999 V2000
    6.4903  -18.4286   24.2286 N   0  0  0  0  0  0  0  0  0  0  0  0
    6.7476  -17.0284   23.9261 C   0  0  1  0  0  0  0  0  0  0  0  0
    7.7123  -16.4317   24.9376 C   0  0  0  0  0  0  0  0  0  0  0  0
    7.0599  -15.3672   25.7401 C   0  0  0  0  0  0  0  0  0  0  0  0
    5.8812  -15.4747   26.4795 C   0  0  0  0  0  0  0  0  0  0  0  0
    5.6565  -14.2757   27.0445 N   0  0  0  0  0  0  0  0  0  0  0  0
    6.6354  -13.4102   26.7003 C   0  0  0  0  0  0  0  0  0  0  0  0
    6.8701  -12.0845   27.0064 C   0  0  0  0  0  0  0  0  0  0  0  0
    7.9938  -11.4548   26.4848 C   0  0  0  0  0  0  0  0  0  0  0  0
    8.8856  -12.1100   25.6693 C   0  0  0  0  0  0  0  0  0  0  0  0
    8.6523  -13.4336   25.3630 C   0  0  0  0  0  0  0  0  0  0  0  0
    7.5236  -14.0622   25.8883 C   0  0  0  0  0  0  0  0  0  0  0  0
    7.3321  -16.8710   22.5704 C   0  0  0  0  0  0  0  0  0  0  0  0
    7.8396  -17.8662   22.0249 O   0  0  0  0  0  0  0  0  0  0  0  0
    7.6102  -14.2120   19.9651 C   0  0  0  0  0  0  0  0  0  0  0  0
    7.9579  -15.5714   20.5454 C   0  0  2  0  0  0  0  0  0  0  0  0
    7.3463  -15.6458   21.8558 N   0  0  0  0  0  0  0  0  0  0  0  0
    9.4439  -15.7205   20.6718 C   0  0  0  0  0  0  0  0  0  0  0  0
   10.1876  -15.5135   19.6913 O   0  0  0  0  0  0  0  0  0  0  0  0
   10.0471  -16.0977   21.8968 N   0  0  0  0  0  0  0  0  0  0  0  0
   11.4429  -16.2684   22.1087 C   0  0  1  0  0  0  0  0  0  0  0  0
   11.9095  -15.8174   23.4718 C   0  0  0  0  0  0  0  0  0  0  0  0
   11.7069  -14.0422   23.7043 S   0  0  0  0  0  0  0  0  0  0  0  0
   11.7853  -17.7041   21.9730 C   0  0  0  0  0  0  0  0  0  0  0  0
   10.8924  -18.5874   21.8124 O   0  0  0  0  0  0  0  0  0  0  0  0
   13.1015  -18.1019   22.0207 O   0  0  0  0  0  0  0  0  0  0  0  0
  2  1  1  1
  2 13  1  0
  3  4  1  0
  3  2  1  0
  4 12  1  0
  5  4  2  0
  5  6  1  0
  6  7  1  0
  7  8  1  0
  8  9  2  0
 10  9  1  0
 11 10  2  0
 12  7  2  0
 12 11  1  0
 13 14  2  0
 16 15  1  1
 16 18  1  0
 17 13  1  0
 17 16  1  0
 18 20  1  0
 18 19  2  0
 20 21  1  0
 21 24  1  0
 21 22  1  1
 22 23  1  0
 24 25  2  0
 24 26  1  0
M  END
$$$$
