WAC.pdb
     RDKit          3D

 26 27  0  0  1  0  0  0  0  0999 V2000
    6.6060  -17.5742   25.2172 N   0  0  0  0  0  0  0  0  0  0  0  0
    6.8925  -16.3174   24.5414 C   0  0  1  0  0  0  0  0  0  0  0  0
    8.1679  -15.6962   25.0866 C   0  0  0  0  0  0  0  0  0  0  0  0
    7.9083  -14.9498   26.3428 C   0  0  0  0  0  0  0  0  0  0  0  0
    8.0859  -15.4119   27.6476 C   0  0  0  0  0  0  0  0  0  0  0  0
    7.7294  -14.4134   28.4742 N   0  0  0  0  0  0  0  0  0  0  0  0
    7.3335  -13.3379   27.7584 C   0  0  0  0  0  0  0  0  0  0  0  0
    6.8805  -12.0838   28.1165 C   0  0  0  0  0  0  0  0  0  0  0  0
    6.5424  -11.1734   27.1224 C   0  0  0  0  0  0  0  0  0  0  0  0
    6.6438  -11.4800   25.7863 C   0  0  0  0  0  0  0  0  0  0  0  0
    7.0958  -12.7318   25.4275 C   0  0  0  0  0  0  0  0  0  0  0  0
    7.4342  -13.6428   26.4279 C   0  0  0  0  0  0  0  0  0  0  0  0
    7.0563  -16.5194   23.0797 C   0  0  0  0  0  0  0  0  0  0  0  0
    7.2285  -17.6758   22.6570 O   0  0  0  0  0  0  0  0  0  0  0  0
    6.9859  -14.4676   19.9621 C   0  0  0  0  0  0  0  0  0  0  0  0
    7.3215  -15.7293   20.7373 C   0  0  2  0  0  0  0  0  0  0  0  0
    7.0281  -15.4657   22.1305 N   0  0  0  0  0  0  0  0  0  0  0  0
    8.7734  -16.0672   20.5815 C   0  0  0  0  0  0  0  0  0  0  0  0
    9.2513  -16.3064   19.4539 O   0  0  0  0  0  0  0  0  0  0  0  0
    9.6424  -16.1255   21.6988 N   0  0  0  0  0  0  0  0  0  0  0  0
   11.0266  -16.4479   21.6488 C   0  0  1  0  0  0  0  0  0  0  0  0
   11.8517  -15.7455   22.7000 C   0  0  0  0  0  0  0  0  0  0  0  0
   10.8312  -15.0657   24.0202 S   0  0  0  0  0  0  0  0  0  0  0  0
   11.1956  -17.9066   21.8509 C   0  0  0  0  0  0  0  0  0  0  0  0
   10.2128  -18.6578   22.1209 O   0  0  0  0  0  0  0  0  0  0  0  0
   12.4453  -18.4724   21.7455 O   0  0  0  0  0  0  0  0  0  0  0  0
  2  1  1  1
  2 13  1  0
  3  4  1  0
  3  2  1  0
  4 12  1  0
  5  4  2  0
  5  6  1  0
  6  7  1  0
  7  8  1  0
  8  9  2  0
 10  9  1  0
 11 10  2  0
 12  7  2  0
 12 11  1  0
 13 14  2  0
 16 15  1  6
 16 18  1  0
 17 13  1  0
 17 16  1  0
 18 20  1  0
 18 19  2  0
 20 21  1  0
 21 24  1  0
 21 22  1  1
 22 23  1  0
 24 25  2  0
 24 26  1  0
M  END
$$$$
