WAC.pdb
     RDKit          3D

 26 27  0  0  1  0  0  0  0  0999 V2000
    6.2495  -17.9686   24.0213 N   0  0  0  0  0  0  0  0  0  0  0  0
    6.7918  -16.6710   23.6465 C   0  0  1  0  0  0  0  0  0  0  0  0
    7.7061  -16.1386   24.7375 C   0  0  0  0  0  0  0  0  0  0  0  0
    6.9766  -15.2261   25.6528 C   0  0  0  0  0  0  0  0  0  0  0  0
    5.9618  -15.5675   26.5479 C   0  0  0  0  0  0  0  0  0  0  0  0
    5.5859  -14.4375   27.1715 N   0  0  0  0  0  0  0  0  0  0  0  0
    6.3126  -13.3931   26.7166 C   0  0  0  0  0  0  0  0  0  0  0  0
    6.3196  -12.0468   27.0228 C   0  0  0  0  0  0  0  0  0  0  0  0
    7.2082  -11.2045   26.3653 C   0  0  0  0  0  0  0  0  0  0  0  0
    8.0862  -11.6680   25.4146 C   0  0  0  0  0  0  0  0  0  0  0  0
    8.0801  -13.0120   25.1080 C   0  0  0  0  0  0  0  0  0  0  0  0
    7.1870  -13.8541   25.7698 C   0  0  0  0  0  0  0  0  0  0  0  0
    7.5685  -16.7584   22.3842 C   0  0  0  0  0  0  0  0  0  0  0  0
    7.8757  -17.8837   21.9544 O   0  0  0  0  0  0  0  0  0  0  0  0
    8.5943  -14.5074   19.6168 C   0  0  0  0  0  0  0  0  0  0  0  0
    8.7238  -15.8005   20.4020 C   0  0  2  0  0  0  0  0  0  0  0  0
    7.9837  -15.6280   21.6345 N   0  0  0  0  0  0  0  0  0  0  0  0
   10.1631  -16.0815   20.7117 C   0  0  0  0  0  0  0  0  0  0  0  0
   11.0016  -16.1811   19.7929 O   0  0  0  0  0  0  0  0  0  0  0  0
   10.6144  -16.2416   22.0449 N   0  0  0  0  0  0  0  0  0  0  0  0
   11.9615  -16.4774   22.4350 C   0  0  1  0  0  0  0  0  0  0  0  0
   12.2372  -16.1628   23.8856 C   0  0  0  0  0  0  0  0  0  0  0  0
   11.5832  -14.5542   24.3664 S   0  0  0  0  0  0  0  0  0  0  0  0
   12.2891  -17.9067   22.2189 C   0  0  0  0  0  0  0  0  0  0  0  0
   11.4000  -18.7516   21.9048 O   0  0  0  0  0  0  0  0  0  0  0  0
   13.5871  -18.3408   22.3597 O   0  0  0  0  0  0  0  0  0  0  0  0
  2  1  1  1
  2 13  1  0
  3  4  1  0
  3  2  1  0
  4 12  1  0
  5  4  2  0
  5  6  1  0
  6  7  1  0
  7  8  1  0
  8  9  2  0
 10  9  1  0
 11 10  2  0
 12  7  2  0
 12 11  1  0
 13 14  2  0
 16 15  1  6
 16 18  1  0
 17 13  1  0
 17 16  1  0
 18 20  1  0
 18 19  2  0
 20 21  1  0
 21 24  1  0
 21 22  1  1
 22 23  1  0
 24 25  2  0
 24 26  1  0
M  END
$$$$
