WAC.pdb
     RDKit          3D

 26 27  0  0  1  0  0  0  0  0999 V2000
    7.0410  -17.7289   24.6289 N   0  0  0  0  0  0  0  0  0  0  0  0
    7.9317  -16.6078   24.3684 C   0  0  1  0  0  0  0  0  0  0  0  0
    8.0894  -15.7500   25.6131 C   0  0  0  0  0  0  0  0  0  0  0  0
    6.9124  -14.8678   25.8110 C   0  0  0  0  0  0  0  0  0  0  0  0
    5.6145  -15.2591   26.1425 C   0  0  0  0  0  0  0  0  0  0  0  0
    4.8706  -14.1419   26.2189 N   0  0  0  0  0  0  0  0  0  0  0  0
    5.6325  -13.0584   25.9520 C   0  0  0  0  0  0  0  0  0  0  0  0
    5.3600  -11.7059   25.9000 C   0  0  0  0  0  0  0  0  0  0  0  0
    6.3827  -10.8176   25.5897 C   0  0  0  0  0  0  0  0  0  0  0  0
    7.6646  -11.2413   25.3309 C   0  0  0  0  0  0  0  0  0  0  0  0
    7.9378  -12.5914   25.3824 C   0  0  0  0  0  0  0  0  0  0  0  0
    6.9089  -13.4798   25.6942 C   0  0  0  0  0  0  0  0  0  0  0  0
    9.2762  -17.0770   23.9482 C   0  0  0  0  0  0  0  0  0  0  0  0
    9.6581  -18.1975   24.3282 O   0  0  0  0  0  0  0  0  0  0  0  0
   12.1056  -15.8748   21.8290 C   0  0  0  0  0  0  0  0  0  0  0  0
   11.5045  -16.7856   22.8847 C   0  0  2  0  0  0  0  0  0  0  0  0
   10.1567  -16.3191   23.1344 N   0  0  0  0  0  0  0  0  0  0  0  0
   12.3053  -16.7181   24.1499 C   0  0  0  0  0  0  0  0  0  0  0  0
   13.5250  -16.9821   24.1431 O   0  0  0  0  0  0  0  0  0  0  0  0
   11.7095  -16.3559   25.3830 N   0  0  0  0  0  0  0  0  0  0  0  0
   12.3934  -16.2385   26.6243 C   0  0  1  0  0  0  0  0  0  0  0  0
   11.9897  -15.0255   27.4273 C   0  0  0  0  0  0  0  0  0  0  0  0
   10.5720  -15.3565   28.4888 S   0  0  0  0  0  0  0  0  0  0  0  0
   12.1111  -17.4351   27.4522 C   0  0  0  0  0  0  0  0  0  0  0  0
   11.2517  -18.2967   27.1026 O   0  0  0  0  0  0  0  0  0  0  0  0
   12.7918  -17.6278   28.6322 O   0  0  0  0  0  0  0  0  0  0  0  0
  2  1  1  1
  2 13  1  0
  3  4  1  0
  3  2  1  0
  4 12  1  0
  5  4  2  0
  5  6  1  0
  6  7  1  0
  7  8  1  0
  8  9  2  0
 10  9  1  0
 11 10  2  0
 12  7  2  0
 12 11  1  0
 13 14  2  0
 16 15  1  6
 16 18  1  0
 17 13  1  0
 17 16  1  0
 18 20  1  0
 18 19  2  0
 20 21  1  0
 21 24  1  0
 21 22  1  1
 22 23  1  0
 24 25  2  0
 24 26  1  0
M  END
$$$$
