WAC.pdb
     RDKit          3D

 26 27  0  0  1  0  0  0  0  0999 V2000
    6.2754  -18.2043   23.5029 N   0  0  0  0  0  0  0  0  0  0  0  0
    6.5834  -16.7827   23.4551 C   0  0  1  0  0  0  0  0  0  0  0  0
    7.6182  -16.4243   24.5090 C   0  0  0  0  0  0  0  0  0  0  0  0
    7.0539  -15.5010   25.5247 C   0  0  0  0  0  0  0  0  0  0  0  0
    6.2164  -15.8334   26.5903 C   0  0  0  0  0  0  0  0  0  0  0  0
    5.9466  -14.6953   27.2531 N   0  0  0  0  0  0  0  0  0  0  0  0
    6.5721  -13.6544   26.6606 C   0  0  0  0  0  0  0  0  0  0  0  0
    6.6211  -12.3032   26.9398 C   0  0  0  0  0  0  0  0  0  0  0  0
    7.3720  -11.4667   26.1226 C   0  0  0  0  0  0  0  0  0  0  0  0
    8.0721  -11.9408   25.0388 C   0  0  0  0  0  0  0  0  0  0  0  0
    8.0239  -13.2897   24.7590 C   0  0  0  0  0  0  0  0  0  0  0  0
    7.2694  -14.1260   25.5814 C   0  0  0  0  0  0  0  0  0  0  0  0
    7.1142  -16.3932   22.1244 C   0  0  0  0  0  0  0  0  0  0  0  0
    7.5072  -17.2896   21.3578 O   0  0  0  0  0  0  0  0  0  0  0  0
    7.3189  -13.3002   20.0540 C   0  0  0  0  0  0  0  0  0  0  0  0
    7.6301  -14.7623   20.3201 C   0  0  2  0  0  0  0  0  0  0  0  0
    7.2005  -15.0514   21.6723 N   0  0  0  0  0  0  0  0  0  0  0  0
    9.1020  -15.0145   20.1924 C   0  0  0  0  0  0  0  0  0  0  0  0
    9.8224  -14.2419   19.5281 O   0  0  0  0  0  0  0  0  0  0  0  0
    9.7177  -16.1277   20.8157 N   0  0  0  0  0  0  0  0  0  0  0  0
   10.9648  -16.1028   21.4986 C   0  0  1  0  0  0  0  0  0  0  0  0
   10.9595  -15.2446   22.7407 C   0  0  0  0  0  0  0  0  0  0  0  0
   12.4982  -15.3846   23.6677 S   0  0  0  0  0  0  0  0  0  0  0  0
   11.3234  -17.4808   21.9106 C   0  0  0  0  0  0  0  0  0  0  0  0
   12.5076  -17.7898   22.2351 O   0  0  0  0  0  0  0  0  0  0  0  0
   10.3562  -18.4586   21.9461 O   0  0  0  0  0  0  0  0  0  0  0  0
  2  1  1  6
  2 13  1  0
  3  4  1  0
  3  2  1  0
  4 12  1  0
  5  4  2  0
  5  6  1  0
  6  7  1  0
  7  8  1  0
  8  9  2  0
 10  9  1  0
 11 10  2  0
 12  7  2  0
 12 11  1  0
 13 14  2  0
 16 15  1  1
 16 18  1  0
 17 13  1  0
 17 16  1  0
 18 20  1  0
 18 19  2  0
 20 21  1  0
 21 24  1  0
 21 22  1  1
 22 23  1  0
 24 25  2  0
 24 26  1  0
M  END
$$$$
