WAC.pdb
     RDKit          3D

 26 27  0  0  1  0  0  0  0  0999 V2000
    6.2370  -17.5003   23.9317 N   0  0  0  0  0  0  0  0  0  0  0  0
    6.7021  -16.1749   23.5507 C   0  0  1  0  0  0  0  0  0  0  0  0
    7.8005  -15.7035   24.4895 C   0  0  0  0  0  0  0  0  0  0  0  0
    7.2382  -14.9627   25.6461 C   0  0  0  0  0  0  0  0  0  0  0  0
    6.6025  -15.5054   26.7636 C   0  0  0  0  0  0  0  0  0  0  0  0
    6.2520  -14.4791   27.5581 N   0  0  0  0  0  0  0  0  0  0  0  0
    6.6340  -13.3093   27.0001 C   0  0  0  0  0  0  0  0  0  0  0  0
    6.5153  -11.9929   27.3993 C   0  0  0  0  0  0  0  0  0  0  0  0
    7.0223  -10.9871   26.5853 C   0  0  0  0  0  0  0  0  0  0  0  0
    7.6418  -11.2588   25.3886 C   0  0  0  0  0  0  0  0  0  0  0  0
    7.7608  -12.5727   24.9890 C   0  0  0  0  0  0  0  0  0  0  0  0
    7.2509  -13.5794   25.8085 C   0  0  0  0  0  0  0  0  0  0  0  0
    7.2352  -16.1711   22.1650 C   0  0  0  0  0  0  0  0  0  0  0  0
    7.9366  -17.1295   21.7975 O   0  0  0  0  0  0  0  0  0  0  0  0
    7.2475  -13.8603   19.2261 C   0  0  0  0  0  0  0  0  0  0  0  0
    7.6955  -15.1089   19.9648 C   0  0  2  0  0  0  0  0  0  0  0  0
    6.9908  -15.1333   21.2294 N   0  0  0  0  0  0  0  0  0  0  0  0
    9.1736  -15.0682   20.2103 C   0  0  0  0  0  0  0  0  0  0  0  0
    9.6720  -14.1817   20.9335 O   0  0  0  0  0  0  0  0  0  0  0  0
   10.0448  -16.0256   19.6349 N   0  0  0  0  0  0  0  0  0  0  0  0
   11.2689  -16.4717   20.2048 C   0  0  1  0  0  0  0  0  0  0  0  0
   11.1047  -17.1418   21.5476 C   0  0  0  0  0  0  0  0  0  0  0  0
   11.6004  -16.0674   22.9063 S   0  0  0  0  0  0  0  0  0  0  0  0
   11.9036  -17.4522   19.2921 C   0  0  0  0  0  0  0  0  0  0  0  0
   11.2725  -18.4605   18.8582 O   0  0  0  0  0  0  0  0  0  0  0  0
   13.2099  -17.2755   18.8981 O   0  0  0  0  0  0  0  0  0  0  0  0
  2  1  1  1
  2 13  1  0
  3  4  1  0
  3  2  1  0
  4 12  1  0
  5  4  2  0
  5  6  1  0
  6  7  1  0
  7  8  1  0
  8  9  2  0
 10  9  1  0
 11 10  2  0
 12  7  2  0
 12 11  1  0
 13 14  2  0
 16 15  1  1
 16 18  1  0
 17 13  1  0
 17 16  1  0
 18 20  1  0
 18 19  2  0
 20 21  1  0
 21 24  1  0
 21 22  1  1
 22 23  1  0
 24 25  2  0
 24 26  1  0
M  END
$$$$
