WAC.pdb
     RDKit          3D

 26 27  0  0  1  0  0  0  0  0999 V2000
    6.3929  -17.5932   24.2492 N   0  0  0  0  0  0  0  0  0  0  0  0
    6.7724  -16.2893   23.7259 C   0  0  1  0  0  0  0  0  0  0  0  0
    7.7075  -15.5780   24.6901 C   0  0  0  0  0  0  0  0  0  0  0  0
    6.9518  -14.7301   25.6453 C   0  0  0  0  0  0  0  0  0  0  0  0
    5.9162  -15.1326   26.4898 C   0  0  0  0  0  0  0  0  0  0  0  0
    5.5204  -14.0473   27.1775 N   0  0  0  0  0  0  0  0  0  0  0  0
    6.2542  -12.9734   26.8115 C   0  0  0  0  0  0  0  0  0  0  0  0
    6.2483  -11.6505   27.2065 C   0  0  0  0  0  0  0  0  0  0  0  0
    7.1498  -10.7643   26.6291 C   0  0  0  0  0  0  0  0  0  0  0  0
    8.0531  -11.1616   25.6721 C   0  0  0  0  0  0  0  0  0  0  0  0
    8.0599  -12.4821   25.2769 C   0  0  0  0  0  0  0  0  0  0  0  0
    7.1538  -13.3685   25.8585 C   0  0  0  0  0  0  0  0  0  0  0  0
    7.4576  -16.4160   22.4149 C   0  0  0  0  0  0  0  0  0  0  0  0
    8.1147  -17.4464   22.1870 O   0  0  0  0  0  0  0  0  0  0  0  0
    7.9089  -14.3706   19.3184 C   0  0  0  0  0  0  0  0  0  0  0  0
    8.2516  -15.5361   20.2294 C   0  0  2  0  0  0  0  0  0  0  0  0
    7.4072  -15.4258   21.4004 N   0  0  0  0  0  0  0  0  0  0  0  0
    9.6925  -15.4738   20.6373 C   0  0  0  0  0  0  0  0  0  0  0  0
   10.3656  -14.4433   20.4320 O   0  0  0  0  0  0  0  0  0  0  0  0
   10.3312  -16.5725   21.2633 N   0  0  0  0  0  0  0  0  0  0  0  0
   11.6797  -16.5925   21.7144 C   0  0  1  0  0  0  0  0  0  0  0  0
   11.8261  -16.9495   23.1740 C   0  0  0  0  0  0  0  0  0  0  0  0
   11.2644  -15.6227   24.2559 S   0  0  0  0  0  0  0  0  0  0  0  0
   12.4414  -17.5947   20.9319 C   0  0  0  0  0  0  0  0  0  0  0  0
   13.6934  -17.7285   21.0643 O   0  0  0  0  0  0  0  0  0  0  0  0
   11.7852  -18.4067   20.0357 O   0  0  0  0  0  0  0  0  0  0  0  0
  2  1  1  1
  2 13  1  0
  3  4  1  0
  3  2  1  0
  4 12  1  0
  5  4  2  0
  5  6  1  0
  6  7  1  0
  7  8  1  0
  8  9  2  0
 10  9  1  0
 11 10  2  0
 12  7  2  0
 12 11  1  0
 13 14  2  0
 16 15  1  6
 16 18  1  0
 17 13  1  0
 17 16  1  0
 18 20  1  0
 18 19  2  0
 20 21  1  0
 21 24  1  0
 21 22  1  1
 22 23  1  0
 24 25  2  0
 24 26  1  0
M  END
$$$$
