WAC.pdb
     RDKit          3D

 26 27  0  0  1  0  0  0  0  0999 V2000
    6.2431  -17.2200   22.9887 N   0  0  0  0  0  0  0  0  0  0  0  0
    6.7261  -15.8665   22.7582 C   0  0  1  0  0  0  0  0  0  0  0  0
    7.9015  -15.5560   23.6702 C   0  0  0  0  0  0  0  0  0  0  0  0
    7.4420  -15.1736   25.0286 C   0  0  0  0  0  0  0  0  0  0  0  0
    7.0212  -16.0308   26.0463 C   0  0  0  0  0  0  0  0  0  0  0  0
    6.6937  -15.2641   27.1009 N   0  0  0  0  0  0  0  0  0  0  0  0
    6.8858  -13.9601   26.8035 C   0  0  0  0  0  0  0  0  0  0  0  0
    6.7051  -12.7945   27.5212 C   0  0  0  0  0  0  0  0  0  0  0  0
    6.9993  -11.5751   26.9230 C   0  0  0  0  0  0  0  0  0  0  0  0
    7.4671  -11.4883   25.6333 C   0  0  0  0  0  0  0  0  0  0  0  0
    7.6479  -12.6514   24.9158 C   0  0  0  0  0  0  0  0  0  0  0  0
    7.3515  -13.8732   25.5194 C   0  0  0  0  0  0  0  0  0  0  0  0
    7.1630  -15.6851   21.3509 C   0  0  0  0  0  0  0  0  0  0  0  0
    7.3272  -16.6963   20.6466 O   0  0  0  0  0  0  0  0  0  0  0  0
    7.5647  -12.8542   18.9625 C   0  0  0  0  0  0  0  0  0  0  0  0
    7.6915  -14.3189   19.3421 C   0  0  2  0  0  0  0  0  0  0  0  0
    7.4060  -14.4196   20.7581 N   0  0  0  0  0  0  0  0  0  0  0  0
    9.0812  -14.8103   19.0704 C   0  0  0  0  0  0  0  0  0  0  0  0
    9.5020  -14.9067   17.8996 O   0  0  0  0  0  0  0  0  0  0  0  0
    9.9542  -15.1777   20.1239 N   0  0  0  0  0  0  0  0  0  0  0  0
   11.2342  -15.7754   19.9613 C   0  0  1  0  0  0  0  0  0  0  0  0
   12.2970  -15.1871   20.8577 C   0  0  0  0  0  0  0  0  0  0  0  0
   12.5864  -13.4428   20.5111 S   0  0  0  0  0  0  0  0  0  0  0  0
   11.1405  -17.2219   20.2713 C   0  0  0  0  0  0  0  0  0  0  0  0
   10.0636  -17.7439   20.6846 O   0  0  0  0  0  0  0  0  0  0  0  0
   12.2426  -18.0296   20.1107 O   0  0  0  0  0  0  0  0  0  0  0  0
  2  1  1  6
  2 13  1  0
  3  4  1  0
  3  2  1  0
  4 12  1  0
  5  4  2  0
  5  6  1  0
  6  7  1  0
  7  8  1  0
  8  9  2  0
 10  9  1  0
 11 10  2  0
 12  7  2  0
 12 11  1  0
 13 14  2  0
 16 15  1  1
 16 18  1  0
 17 13  1  0
 17 16  1  0
 18 20  1  0
 18 19  2  0
 20 21  1  0
 21 24  1  0
 21 22  1  1
 22 23  1  0
 24 25  2  0
 24 26  1  0
M  END
$$$$
