WAC.pdb
     RDKit          3D

 26 27  0  0  1  0  0  0  0  0999 V2000
    6.8852  -17.8623   24.1311 N   0  0  0  0  0  0  0  0  0  0  0  0
    7.6818  -16.7266   23.6908 C   0  0  1  0  0  0  0  0  0  0  0  0
    8.3056  -16.0176   24.8815 C   0  0  0  0  0  0  0  0  0  0  0  0
    7.3091  -15.1749   25.5883 C   0  0  0  0  0  0  0  0  0  0  0  0
    6.1864  -15.6122   26.2924 C   0  0  0  0  0  0  0  0  0  0  0  0
    5.5655  -14.5188   26.7680 N   0  0  0  0  0  0  0  0  0  0  0  0
    6.2390  -13.4065   26.4006 C   0  0  0  0  0  0  0  0  0  0  0  0
    6.0275  -12.0608   26.6255 C   0  0  0  0  0  0  0  0  0  0  0  0
    6.9220  -11.1351   26.1018 C   0  0  0  0  0  0  0  0  0  0  0  0
    8.0172  -11.5149   25.3629 C   0  0  0  0  0  0  0  0  0  0  0  0
    8.2294  -12.8582   25.1378 C   0  0  0  0  0  0  0  0  0  0  0  0
    7.3296  -13.7843   25.6648 C   0  0  0  0  0  0  0  0  0  0  0  0
    8.7704  -17.1568   22.7774 C   0  0  0  0  0  0  0  0  0  0  0  0
    9.4129  -18.1821   23.0631 O   0  0  0  0  0  0  0  0  0  0  0  0
   10.3908  -15.9323   19.6387 C   0  0  0  0  0  0  0  0  0  0  0  0
   10.3398  -16.8026   20.8819 C   0  0  2  0  0  0  0  0  0  0  0  0
    9.1237  -16.4640   21.5911 N   0  0  0  0  0  0  0  0  0  0  0  0
   11.5268  -16.5336   21.7566 C   0  0  0  0  0  0  0  0  0  0  0  0
   11.5142  -15.5863   22.5689 O   0  0  0  0  0  0  0  0  0  0  0  0
   12.6909  -17.3382   21.6905 N   0  0  0  0  0  0  0  0  0  0  0  0
   13.8448  -17.1848   22.5073 C   0  0  1  0  0  0  0  0  0  0  0  0
   13.9231  -18.1797   23.6401 C   0  0  0  0  0  0  0  0  0  0  0  0
   15.4362  -17.9953   24.6006 S   0  0  0  0  0  0  0  0  0  0  0  0
   15.0588  -17.3605   21.6751 C   0  0  0  0  0  0  0  0  0  0  0  0
   16.0942  -16.6542   21.8539 O   0  0  0  0  0  0  0  0  0  0  0  0
   15.0756  -18.3107   20.6802 O   0  0  0  0  0  0  0  0  0  0  0  0
  2  1  1  1
  2 13  1  0
  3  4  1  0
  3  2  1  0
  4 12  1  0
  5  4  2  0
  5  6  1  0
  6  7  1  0
  7  8  1  0
  8  9  2  0
 10  9  1  0
 11 10  2  0
 12  7  2  0
 12 11  1  0
 13 14  2  0
 16 15  1  6
 16 18  1  0
 17 13  1  0
 17 16  1  0
 18 20  1  0
 18 19  2  0
 20 21  1  0
 21 24  1  0
 21 22  1  1
 22 23  1  0
 24 25  2  0
 24 26  1  0
M  END
$$$$
