MNH.pdb
     RDKit          3D

 27 27  0  0  1  0  0  0  0  0999 V2000
   27.2369  -20.1714  -20.2192 C   0  0  0  0  0  0  0  0  0  0  0  0
   29.0000  -20.1773  -19.8312 S   0  0  0  0  0  0  0  0  0  0  0  0
   29.2276  -19.7202  -18.0694 C   0  0  0  0  0  0  0  0  0  0  0  0
   28.1023  -20.3633  -17.3207 C   0  0  0  0  0  0  0  0  0  0  0  0
   27.3164  -19.4255  -16.4385 C   0  0  2  0  0  0  0  0  0  0  0  0
   28.3016  -18.5176  -15.8600 N   0  0  0  0  0  0  0  0  0  0  0  0
   26.6173  -20.2021  -15.4109 C   0  0  0  0  0  0  0  0  0  0  0  0
   25.8305  -21.1276  -15.7282 O   0  0  0  0  0  0  0  0  0  0  0  0
   25.5433  -21.0092   -9.3227 N   0  0  0  0  0  0  0  0  0  0  0  0
   25.6375  -21.2919  -10.6832 C   0  0  0  0  0  0  0  0  0  0  0  0
   24.9028  -22.2383  -11.1288 O   0  0  0  0  0  0  0  0  0  0  0  0
   26.4892  -20.6241  -11.6723 C   0  0  0  0  0  0  0  0  0  0  0  0
   25.9061  -20.5476  -13.0433 C   0  0  2  0  0  0  0  0  0  0  0  0
   26.7892  -19.9529  -14.0007 N   0  0  0  0  0  0  0  0  0  0  0  0
   24.5842  -19.8598  -12.9879 C   0  0  0  0  0  0  0  0  0  0  0  0
   24.5980  -18.6115  -12.8440 O   0  0  0  0  0  0  0  0  0  0  0  0
   23.3558  -20.5541  -13.0900 N   0  0  0  0  0  0  0  0  0  0  0  0
   22.0494  -19.8439  -13.1155 C   0  0  1  0  0  0  0  0  0  0  0  0
   21.9533  -18.9964  -14.3260 C   0  0  0  0  0  0  0  0  0  0  0  0
   20.6889  -18.3263  -14.6046 C   0  0  0  0  0  0  0  0  0  0  0  0
   19.8927  -17.5054  -13.8784 C   0  0  0  0  0  0  0  0  0  0  0  0
   18.8698  -17.1302  -14.6784 N   0  0  0  0  0  0  0  0  0  0  0  0
   19.0318  -17.7081  -15.8785 C   0  0  0  0  0  0  0  0  0  0  0  0
   20.1292  -18.4405  -15.8627 N   0  0  0  0  0  0  0  0  0  0  0  0
   20.9997  -20.9062  -13.1276 C   0  0  0  0  0  0  0  0  0  0  0  0
   21.1970  -22.0114  -13.6135 O   0  0  0  0  0  0  0  0  0  0  0  0
   19.7217  -20.6843  -12.5754 O   0  0  0  0  0  0  0  0  0  0  0  0
  2  1  1  0
  3  2  1  0
  4  3  1  0
  4  5  1  0
  5  6  1  1
  7  5  1  0
  7  8  2  0
 10 12  1  0
 10  9  1  0
 11 10  2  0
 13 12  1  1
 13 14  1  0
 14  7  1  0
 15 13  1  0
 16 15  2  0
 17 15  1  0
 18 25  1  0
 18 17  1  0
 18 19  1  6
 20 19  1  0
 21 20  2  0
 22 23  1  0
 22 21  1  0
 23 24  2  0
 24 20  1  0
 25 27  1  0
 26 25  2  0
M  END
$$$$
