MNH.pdb
     RDKit          3D

 27 27  0  0  1  0  0  0  0  0999 V2000
    9.9363  -10.9737  -10.8803 C   0  0  0  0  0  0  0  0  0  0  0  0
   10.8397  -12.1853   -9.8928 S   0  0  0  0  0  0  0  0  0  0  0  0
   12.5605  -12.3040  -10.5167 C   0  0  0  0  0  0  0  0  0  0  0  0
   13.0089  -10.9002  -10.7792 C   0  0  0  0  0  0  0  0  0  0  0  0
   14.4002  -10.7805  -11.3497 C   0  0  2  0  0  0  0  0  0  0  0  0
   15.2267  -11.6814  -10.5529 N   0  0  0  0  0  0  0  0  0  0  0  0
   14.8472   -9.3888  -11.2430 C   0  0  0  0  0  0  0  0  0  0  0  0
   14.2725   -8.4774  -11.8876 O   0  0  0  0  0  0  0  0  0  0  0  0
   17.0189   -4.8042   -9.7783 N   0  0  0  0  0  0  0  0  0  0  0  0
   16.9042   -5.7493   -8.7617 C   0  0  0  0  0  0  0  0  0  0  0  0
   17.1088   -5.3412   -7.5678 O   0  0  0  0  0  0  0  0  0  0  0  0
   16.5730   -7.1705   -8.9035 C   0  0  0  0  0  0  0  0  0  0  0  0
   16.3338   -7.6155  -10.3072 C   0  0  2  0  0  0  0  0  0  0  0  0
   15.9532   -8.9922  -10.4066 N   0  0  0  0  0  0  0  0  0  0  0  0
   17.5256   -7.2952  -11.1442 C   0  0  0  0  0  0  0  0  0  0  0  0
   17.8745   -6.0892  -11.1995 O   0  0  0  0  0  0  0  0  0  0  0  0
   18.2494   -8.2821  -11.8539 N   0  0  0  0  0  0  0  0  0  0  0  0
   19.3453   -7.9301  -12.7957 C   0  0  1  0  0  0  0  0  0  0  0  0
   20.1556   -9.1299  -13.1065 C   0  0  0  0  0  0  0  0  0  0  0  0
   21.1569   -9.0361  -14.1619 C   0  0  0  0  0  0  0  0  0  0  0  0
   21.6345   -8.0056  -14.9004 C   0  0  0  0  0  0  0  0  0  0  0  0
   22.6129   -8.5002  -15.6910 N   0  0  0  0  0  0  0  0  0  0  0  0
   22.7387   -9.8133  -15.4443 C   0  0  0  0  0  0  0  0  0  0  0  0
   21.8667  -10.1663  -14.5192 N   0  0  0  0  0  0  0  0  0  0  0  0
   18.6820   -7.4052  -14.0266 C   0  0  0  0  0  0  0  0  0  0  0  0
   17.6831   -7.9277  -14.5016 O   0  0  0  0  0  0  0  0  0  0  0  0
   19.1792   -6.2738  -14.7049 O   0  0  0  0  0  0  0  0  0  0  0  0
  2  1  1  0
  3  2  1  0
  4  3  1  0
  4  5  1  0
  5  6  1  1
  7  5  1  0
  7  8  2  0
 10 12  1  0
 10  9  1  0
 11 10  2  0
 13 12  1  1
 13 14  1  0
 14  7  1  0
 15 13  1  0
 16 15  2  0
 17 15  1  0
 18 25  1  0
 18 17  1  0
 18 19  1  6
 20 19  1  0
 21 20  2  0
 22 23  1  0
 22 21  1  0
 23 24  2  0
 24 20  1  0
 25 27  1  0
 26 25  2  0
M  END
$$$$
