MNH.pdb
     RDKit          3D

 27 27  0  0  1  0  0  0  0  0999 V2000
   24.5836  -20.9827   -7.4986 C   0  0  0  0  0  0  0  0  0  0  0  0
   24.8007  -20.5510   -9.2381 S   0  0  0  0  0  0  0  0  0  0  0  0
   26.5351  -20.8913   -9.7283 C   0  0  0  0  0  0  0  0  0  0  0  0
   26.7033  -20.3169  -11.1003 C   0  0  0  0  0  0  0  0  0  0  0  0
   25.4945  -20.4537  -11.9922 C   0  0  2  0  0  0  0  0  0  0  0  0
   25.4795  -21.8500  -12.4164 N   0  0  0  0  0  0  0  0  0  0  0  0
   25.6271  -19.5375  -13.1284 C   0  0  0  0  0  0  0  0  0  0  0  0
   25.8470  -18.3148  -12.9464 O   0  0  0  0  0  0  0  0  0  0  0  0
   28.4030  -19.7187  -14.8507 N   0  0  0  0  0  0  0  0  0  0  0  0
   27.9216  -19.8317  -16.1526 C   0  0  0  0  0  0  0  0  0  0  0  0
   28.7316  -20.2867  -17.0306 O   0  0  0  0  0  0  0  0  0  0  0  0
   26.5816  -19.4865  -16.6373 C   0  0  0  0  0  0  0  0  0  0  0  0
   25.6318  -19.0442  -15.5752 C   0  0  2  0  0  0  0  0  0  0  0  0
   25.5147  -19.9788  -14.4968 N   0  0  0  0  0  0  0  0  0  0  0  0
   24.3121  -18.7173  -16.1877 C   0  0  0  0  0  0  0  0  0  0  0  0
   23.4177  -19.5970  -16.1150 O   0  0  0  0  0  0  0  0  0  0  0  0
   24.0505  -17.4828  -16.8272 N   0  0  0  0  0  0  0  0  0  0  0  0
   22.7022  -17.1377  -17.3517 C   0  0  1  0  0  0  0  0  0  0  0  0
   22.4280  -15.6973  -17.1450 C   0  0  0  0  0  0  0  0  0  0  0  0
   21.1890  -15.1439  -17.6779 C   0  0  0  0  0  0  0  0  0  0  0  0
   20.8761  -14.5101  -18.8336 C   0  0  0  0  0  0  0  0  0  0  0  0
   19.5443  -14.2800  -18.8153 N   0  0  0  0  0  0  0  0  0  0  0  0
   19.0427  -14.7645  -17.6689 C   0  0  0  0  0  0  0  0  0  0  0  0
   20.0194  -15.2955  -16.9582 N   0  0  0  0  0  0  0  0  0  0  0  0
   22.7262  -17.4691  -18.8077 C   0  0  0  0  0  0  0  0  0  0  0  0
   23.7506  -17.4061  -19.4734 O   0  0  0  0  0  0  0  0  0  0  0  0
   21.5605  -17.8733  -19.4898 O   0  0  0  0  0  0  0  0  0  0  0  0
  2  1  1  0
  3  2  1  0
  4  3  1  0
  4  5  1  0
  5  6  1  6
  7  5  1  0
  7  8  2  0
 10 12  1  0
 10  9  1  0
 11 10  2  0
 13 12  1  6
 13 14  1  0
 14  7  1  0
 15 13  1  0
 16 15  2  0
 17 15  1  0
 18 25  1  0
 18 17  1  0
 18 19  1  6
 20 19  1  0
 21 20  2  0
 22 23  1  0
 22 21  1  0
 23 24  2  0
 24 20  1  0
 25 27  1  0
 26 25  2  0
M  END
$$$$
