MNH.pdb
     RDKit          3D

 27 27  0  0  1  0  0  0  0  0999 V2000
   34.3405   -8.3545  -16.8819 C   0  0  0  0  0  0  0  0  0  0  0  0
   32.5939   -7.9115  -16.9942 S   0  0  0  0  0  0  0  0  0  0  0  0
   32.1079   -7.8325  -18.7611 C   0  0  0  0  0  0  0  0  0  0  0  0
   30.6627   -7.4432  -18.7813 C   0  0  0  0  0  0  0  0  0  0  0  0
   29.7139   -8.5224  -18.3223 C   0  0  2  0  0  0  0  0  0  0  0  0
   29.9889   -9.6723  -19.1777 N   0  0  0  0  0  0  0  0  0  0  0  0
   28.3353   -8.0473  -18.4697 C   0  0  0  0  0  0  0  0  0  0  0  0
   27.9537   -6.9943  -17.9024 O   0  0  0  0  0  0  0  0  0  0  0  0
   26.7896   -6.5254  -21.4512 N   0  0  0  0  0  0  0  0  0  0  0  0
   25.8310   -7.5219  -21.6182 C   0  0  0  0  0  0  0  0  0  0  0  0
   25.3195   -7.6419  -22.7835 O   0  0  0  0  0  0  0  0  0  0  0  0
   25.3361   -8.4574  -20.6036 C   0  0  0  0  0  0  0  0  0  0  0  0
   25.9866   -8.3258  -19.2675 C   0  0  2  0  0  0  0  0  0  0  0  0
   27.3544   -8.7490  -19.2606 N   0  0  0  0  0  0  0  0  0  0  0  0
   25.1692   -9.0333  -18.2404 C   0  0  0  0  0  0  0  0  0  0  0  0
   25.2445  -10.2875  -18.2187 O   0  0  0  0  0  0  0  0  0  0  0  0
   24.3390   -8.3508  -17.3205 N   0  0  0  0  0  0  0  0  0  0  0  0
   23.6884   -9.0480  -16.1792 C   0  0  1  0  0  0  0  0  0  0  0  0
   24.7076   -9.4696  -15.1912 C   0  0  0  0  0  0  0  0  0  0  0  0
   25.4060  -10.7303  -15.4104 C   0  0  0  0  0  0  0  0  0  0  0  0
   25.3704  -11.6517  -16.4028 C   0  0  0  0  0  0  0  0  0  0  0  0
   26.2911  -12.5956  -16.1052 N   0  0  0  0  0  0  0  0  0  0  0  0
   26.8864  -12.2623  -14.9496 C   0  0  0  0  0  0  0  0  0  0  0  0
   26.3687  -11.1331  -14.5048 N   0  0  0  0  0  0  0  0  0  0  0  0
   22.7415   -8.0629  -15.5765 C   0  0  0  0  0  0  0  0  0  0  0  0
   22.9041   -6.8550  -15.6811 O   0  0  0  0  0  0  0  0  0  0  0  0
   21.6063   -8.4811  -14.8526 O   0  0  0  0  0  0  0  0  0  0  0  0
  2  1  1  0
  3  2  1  0
  4  3  1  0
  4  5  1  0
  5  6  1  6
  7  5  1  0
  7  8  2  0
 10 12  1  0
 10  9  1  0
 11 10  2  0
 13 12  1  6
 13 14  1  0
 14  7  1  0
 15 13  1  0
 16 15  2  0
 17 15  1  0
 18 25  1  0
 18 17  1  0
 18 19  1  1
 20 19  1  0
 21 20  2  0
 22 23  1  0
 22 21  1  0
 23 24  2  0
 24 20  1  0
 25 27  1  0
 26 25  2  0
M  END
$$$$
