MNH.pdb
     RDKit          3D

 27 27  0  0  1  0  0  0  0  0999 V2000
   25.4003  -21.6859   -9.4241 C   0  0  0  0  0  0  0  0  0  0  0  0
   24.6472  -20.3734  -10.4088 S   0  0  0  0  0  0  0  0  0  0  0  0
   25.9700  -19.4197  -11.2485 C   0  0  0  0  0  0  0  0  0  0  0  0
   26.2689  -20.1486  -12.5213 C   0  0  0  0  0  0  0  0  0  0  0  0
   25.2658  -19.9242  -13.6253 C   0  0  2  0  0  0  0  0  0  0  0  0
   24.3146  -21.0256  -13.5170 N   0  0  0  0  0  0  0  0  0  0  0  0
   25.9605  -19.9252  -14.9158 C   0  0  0  0  0  0  0  0  0  0  0  0
   27.2147  -19.9093  -14.9711 O   0  0  0  0  0  0  0  0  0  0  0  0
   27.0948  -22.6136  -17.0028 N   0  0  0  0  0  0  0  0  0  0  0  0
   26.1484  -22.9818  -16.0497 C   0  0  0  0  0  0  0  0  0  0  0  0
   26.4138  -24.0109  -15.3395 O   0  0  0  0  0  0  0  0  0  0  0  0
   24.8717  -22.3200  -15.7639 C   0  0  0  0  0  0  0  0  0  0  0  0
   24.5851  -21.1291  -16.6155 C   0  0  2  0  0  0  0  0  0  0  0  0
   25.2567  -19.9440  -16.1745 N   0  0  0  0  0  0  0  0  0  0  0  0
   23.1107  -20.9364  -16.7275 C   0  0  0  0  0  0  0  0  0  0  0  0
   22.6208  -20.9546  -17.8846 O   0  0  0  0  0  0  0  0  0  0  0  0
   22.2772  -20.7403  -15.6013 N   0  0  0  0  0  0  0  0  0  0  0  0
   20.7952  -20.6940  -15.7168 C   0  0  1  0  0  0  0  0  0  0  0  0
   20.2015  -21.9316  -15.1613 C   0  0  0  0  0  0  0  0  0  0  0  0
   19.8854  -23.0208  -16.0772 C   0  0  0  0  0  0  0  0  0  0  0  0
   20.0305  -23.1817  -17.4145 C   0  0  0  0  0  0  0  0  0  0  0  0
   19.6223  -24.4353  -17.7129 N   0  0  0  0  0  0  0  0  0  0  0  0
   19.2331  -25.0390  -16.5794 C   0  0  0  0  0  0  0  0  0  0  0  0
   19.3824  -24.2032  -15.5694 N   0  0  0  0  0  0  0  0  0  0  0  0
   20.3553  -19.4988  -14.9369 C   0  0  0  0  0  0  0  0  0  0  0  0
   21.1350  -18.8340  -14.2686 O   0  0  0  0  0  0  0  0  0  0  0  0
   19.0104  -19.0762  -14.9337 O   0  0  0  0  0  0  0  0  0  0  0  0
  2  1  1  0
  3  2  1  0
  4  3  1  0
  4  5  1  0
  5  6  1  6
  7  5  1  0
  7  8  2  0
 10 12  1  0
 10  9  1  0
 11 10  2  0
 13 12  1  1
 13 14  1  0
 14  7  1  0
 15 13  1  0
 16 15  2  0
 17 15  1  0
 18 25  1  0
 18 17  1  0
 18 19  1  1
 20 19  1  0
 21 20  2  0
 22 23  1  0
 22 21  1  0
 23 24  2  0
 24 20  1  0
 25 27  1  0
 26 25  2  0
M  END
$$$$
