MNH.pdb
     RDKit          3D

 27 27  0  0  1  0  0  0  0  0999 V2000
   20.9027   -9.6464  -25.6573 C   0  0  0  0  0  0  0  0  0  0  0  0
   21.6892  -10.0864  -24.0930 S   0  0  0  0  0  0  0  0  0  0  0  0
   20.5199  -11.0866  -23.0946 C   0  0  0  0  0  0  0  0  0  0  0  0
   19.6597  -10.1105  -22.3543 C   0  0  0  0  0  0  0  0  0  0  0  0
   20.3942   -9.2642  -21.3445 C   0  0  2  0  0  0  0  0  0  0  0  0
   21.4405  -10.1250  -20.8022 N   0  0  0  0  0  0  0  0  0  0  0  0
   19.4549   -8.8248  -20.3089 C   0  0  0  0  0  0  0  0  0  0  0  0
   18.5265   -8.0243  -20.5803 O   0  0  0  0  0  0  0  0  0  0  0  0
   16.7464  -10.7721  -19.0717 N   0  0  0  0  0  0  0  0  0  0  0  0
   17.1798  -10.8163  -17.7488 C   0  0  0  0  0  0  0  0  0  0  0  0
   16.7477  -11.7821  -17.0315 O   0  0  0  0  0  0  0  0  0  0  0  0
   18.0820   -9.8755  -17.0777 C   0  0  0  0  0  0  0  0  0  0  0  0
   18.6204   -8.7970  -17.9566 C   0  0  2  0  0  0  0  0  0  0  0  0
   19.5407   -9.2779  -18.9424 N   0  0  0  0  0  0  0  0  0  0  0  0
   19.2048   -7.7118  -17.1173 C   0  0  0  0  0  0  0  0  0  0  0  0
   18.4296   -7.1328  -16.3155 O   0  0  0  0  0  0  0  0  0  0  0  0
   20.5648   -7.3305  -17.1984 N   0  0  0  0  0  0  0  0  0  0  0  0
   21.1331   -6.2539  -16.3441 C   0  0  1  0  0  0  0  0  0  0  0  0
   22.1597   -6.8127  -15.4350 C   0  0  0  0  0  0  0  0  0  0  0  0
   21.7334   -7.7412  -14.3950 C   0  0  0  0  0  0  0  0  0  0  0  0
   20.5209   -8.1891  -13.9896 C   0  0  0  0  0  0  0  0  0  0  0  0
   20.7367   -9.1003  -13.0148 N   0  0  0  0  0  0  0  0  0  0  0  0
   22.0598   -9.2145  -12.8222 C   0  0  0  0  0  0  0  0  0  0  0  0
   22.6902   -8.4004  -13.6474 N   0  0  0  0  0  0  0  0  0  0  0  0
   21.7382   -5.2585  -17.2787 C   0  0  0  0  0  0  0  0  0  0  0  0
   21.7158   -5.4073  -18.4927 O   0  0  0  0  0  0  0  0  0  0  0  0
   22.3688   -4.0909  -16.8029 O   0  0  0  0  0  0  0  0  0  0  0  0
  2  1  1  0
  3  2  1  0
  4  3  1  0
  4  5  1  0
  5  6  1  1
  7  5  1  0
  7  8  2  0
 10 12  1  0
 10  9  1  0
 11 10  2  0
 13 12  1  1
 13 14  1  0
 14  7  1  0
 15 13  1  0
 16 15  2  0
 17 15  1  0
 18 25  1  0
 18 17  1  0
 18 19  1  1
 20 19  1  0
 21 20  2  0
 22 23  1  0
 22 21  1  0
 23 24  2  0
 24 20  1  0
 25 27  1  0
 26 25  2  0
M  END
$$$$
