MNH.pdb
     RDKit          3D

 27 27  0  0  1  0  0  0  0  0999 V2000
   47.3504  -10.3368   -5.0732 C   0  0  0  0  0  0  0  0  0  0  0  0
   45.5758  -10.4919   -5.3662 S   0  0  0  0  0  0  0  0  0  0  0  0
   45.3019  -11.1276   -7.0648 C   0  0  0  0  0  0  0  0  0  0  0  0
   43.8227  -11.0941   -7.2915 C   0  0  0  0  0  0  0  0  0  0  0  0
   43.1520   -9.8073   -6.8794 C   0  0  2  0  0  0  0  0  0  0  0  0
   42.3205  -10.1520   -5.7308 N   0  0  0  0  0  0  0  0  0  0  0  0
   42.3554   -9.2984   -7.9994 C   0  0  0  0  0  0  0  0  0  0  0  0
   42.9101   -8.8704   -9.0412 O   0  0  0  0  0  0  0  0  0  0  0  0
   41.1305  -11.0004  -10.5790 N   0  0  0  0  0  0  0  0  0  0  0  0
   39.7772  -10.7423  -10.3749 C   0  0  0  0  0  0  0  0  0  0  0  0
   38.9486  -11.5865  -10.8594 O   0  0  0  0  0  0  0  0  0  0  0  0
   39.1875   -9.6045   -9.6626 C   0  0  0  0  0  0  0  0  0  0  0  0
   40.1794   -8.6733   -9.0504 C   0  0  2  0  0  0  0  0  0  0  0  0
   40.9139   -9.2601   -7.9705 N   0  0  0  0  0  0  0  0  0  0  0  0
   39.4987   -7.4081   -8.6513 C   0  0  0  0  0  0  0  0  0  0  0  0
   38.9124   -7.4037   -7.5398 O   0  0  0  0  0  0  0  0  0  0  0  0
   39.4967   -6.2510   -9.4653 N   0  0  0  0  0  0  0  0  0  0  0  0
   38.7990   -5.0024   -9.0575 C   0  0  1  0  0  0  0  0  0  0  0  0
   39.7875   -3.9624   -8.6911 C   0  0  0  0  0  0  0  0  0  0  0  0
   40.7057   -4.2350   -7.5921 C   0  0  0  0  0  0  0  0  0  0  0  0
   42.0527   -4.3576   -7.5157 C   0  0  0  0  0  0  0  0  0  0  0  0
   42.3636   -4.5471   -6.2139 N   0  0  0  0  0  0  0  0  0  0  0  0
   41.2285   -4.5404   -5.4983 C   0  0  0  0  0  0  0  0  0  0  0  0
   40.2052   -4.3523   -6.3097 N   0  0  0  0  0  0  0  0  0  0  0  0
   37.9916   -4.5736  -10.2384 C   0  0  0  0  0  0  0  0  0  0  0  0
   38.0286   -5.1718  -11.3048 O   0  0  0  0  0  0  0  0  0  0  0  0
   37.1416   -3.4504  -10.1801 O   0  0  0  0  0  0  0  0  0  0  0  0
  2  1  1  0
  3  2  1  0
  4  3  1  0
  4  5  1  0
  5  6  1  1
  7  5  1  0
  7  8  2  0
 10 12  1  0
 10  9  1  0
 11 10  2  0
 13 12  1  1
 13 14  1  0
 14  7  1  0
 15 13  1  0
 16 15  2  0
 17 15  1  0
 18 25  1  0
 18 17  1  0
 18 19  1  6
 20 19  1  0
 21 20  2  0
 22 23  1  0
 22 21  1  0
 23 24  2  0
 24 20  1  0
 25 27  1  0
 26 25  2  0
M  END
$$$$
