MNH.pdb
     RDKit          3D

 27 27  0  0  1  0  0  0  0  0999 V2000
   20.5130  -15.8479  -19.6800 C   0  0  0  0  0  0  0  0  0  0  0  0
   18.8553  -15.7946  -20.3929 S   0  0  0  0  0  0  0  0  0  0  0  0
   17.6620  -15.2810  -19.0980 C   0  0  0  0  0  0  0  0  0  0  0  0
   18.0020  -13.8648  -18.7527 C   0  0  0  0  0  0  0  0  0  0  0  0
   17.4622  -13.3939  -17.4251 C   0  0  2  0  0  0  0  0  0  0  0  0
   16.0268  -13.6519  -17.4748 N   0  0  0  0  0  0  0  0  0  0  0  0
   17.7572  -11.9675  -17.2631 C   0  0  0  0  0  0  0  0  0  0  0  0
   18.9426  -11.5551  -17.2330 O   0  0  0  0  0  0  0  0  0  0  0  0
   13.9170   -9.0046  -18.7920 N   0  0  0  0  0  0  0  0  0  0  0  0
   15.2747   -8.8407  -18.5286 C   0  0  0  0  0  0  0  0  0  0  0  0
   16.0621   -8.8366  -19.5355 O   0  0  0  0  0  0  0  0  0  0  0  0
   15.9112   -8.6707  -17.2188 C   0  0  0  0  0  0  0  0  0  0  0  0
   17.0569   -9.5908  -16.9609 C   0  0  2  0  0  0  0  0  0  0  0  0
   16.7216  -10.9724  -17.1310 N   0  0  0  0  0  0  0  0  0  0  0  0
   17.6325   -9.3090  -15.6145 C   0  0  0  0  0  0  0  0  0  0  0  0
   17.0187   -9.7787  -14.6236 O   0  0  0  0  0  0  0  0  0  0  0  0
   18.8131   -8.5514  -15.4307 N   0  0  0  0  0  0  0  0  0  0  0  0
   19.3842   -8.2981  -14.0811 C   0  0  1  0  0  0  0  0  0  0  0  0
   20.6752   -9.0080  -13.9322 C   0  0  0  0  0  0  0  0  0  0  0  0
   21.4414   -8.8044  -12.7088 C   0  0  0  0  0  0  0  0  0  0  0  0
   21.1609   -8.2078  -11.5254 C   0  0  0  0  0  0  0  0  0  0  0  0
   22.2372   -8.3796  -10.7260 N   0  0  0  0  0  0  0  0  0  0  0  0
   23.1662   -9.0718  -11.4033 C   0  0  0  0  0  0  0  0  0  0  0  0
   22.7097   -9.3438  -12.6110 N   0  0  0  0  0  0  0  0  0  0  0  0
   19.5776   -6.8204  -13.9830 C   0  0  0  0  0  0  0  0  0  0  0  0
   19.6843   -6.1103  -14.9733 O   0  0  0  0  0  0  0  0  0  0  0  0
   19.6470   -6.1685  -12.7349 O   0  0  0  0  0  0  0  0  0  0  0  0
  2  1  1  0
  3  2  1  0
  4  3  1  0
  4  5  1  0
  5  6  1  6
  7  5  1  0
  7  8  2  0
 10 12  1  0
 10  9  1  0
 11 10  2  0
 13 12  1  1
 13 14  1  0
 14  7  1  0
 15 13  1  0
 16 15  2  0
 17 15  1  0
 18 25  1  0
 18 17  1  0
 18 19  1  6
 20 19  1  0
 21 20  2  0
 22 23  1  0
 22 21  1  0
 23 24  2  0
 24 20  1  0
 25 27  1  0
 26 25  2  0
M  END
$$$$
