MNH.pdb
     RDKit          3D

 27 27  0  0  1  0  0  0  0  0999 V2000
   30.5770  -19.6729  -12.2016 C   0  0  0  0  0  0  0  0  0  0  0  0
   30.8028  -21.4640  -12.2154 S   0  0  0  0  0  0  0  0  0  0  0  0
   30.4706  -22.0971  -13.9046 C   0  0  0  0  0  0  0  0  0  0  0  0
   29.2567  -21.3703  -14.3934 C   0  0  0  0  0  0  0  0  0  0  0  0
   28.8042  -21.7617  -15.7782 C   0  0  2  0  0  0  0  0  0  0  0  0
   29.9367  -21.4764  -16.6532 N   0  0  0  0  0  0  0  0  0  0  0  0
   27.6213  -20.9753  -16.1393 C   0  0  0  0  0  0  0  0  0  0  0  0
   27.6959  -20.0551  -16.9902 O   0  0  0  0  0  0  0  0  0  0  0  0
   23.8323  -18.3460  -18.5043 N   0  0  0  0  0  0  0  0  0  0  0  0
   23.8301  -19.5634  -17.8278 C   0  0  0  0  0  0  0  0  0  0  0  0
   22.6889  -20.0610  -17.5377 O   0  0  0  0  0  0  0  0  0  0  0  0
   24.9950  -20.3474  -17.4061 C   0  0  0  0  0  0  0  0  0  0  0  0
   25.1987  -20.4122  -15.9296 C   0  0  2  0  0  0  0  0  0  0  0  0
   26.3263  -21.2083  -15.5490 N   0  0  0  0  0  0  0  0  0  0  0  0
   23.9393  -20.8611  -15.2694 C   0  0  0  0  0  0  0  0  0  0  0  0
   23.5382  -22.0212  -15.5384 O   0  0  0  0  0  0  0  0  0  0  0  0
   23.2090  -20.0411  -14.3773 N   0  0  0  0  0  0  0  0  0  0  0  0
   22.3473  -20.6126  -13.3083 C   0  0  1  0  0  0  0  0  0  0  0  0
   22.7681  -20.0986  -11.9849 C   0  0  0  0  0  0  0  0  0  0  0  0
   23.9425  -20.6881  -11.3536 C   0  0  0  0  0  0  0  0  0  0  0  0
   24.8135  -21.6545  -11.7311 C   0  0  0  0  0  0  0  0  0  0  0  0
   25.7567  -21.7414  -10.7667 N   0  0  0  0  0  0  0  0  0  0  0  0
   25.4743  -20.8431   -9.8107 C   0  0  0  0  0  0  0  0  0  0  0  0
   24.3773  -20.1885  -10.1410 N   0  0  0  0  0  0  0  0  0  0  0  0
   20.9527  -20.1822  -13.6251 C   0  0  0  0  0  0  0  0  0  0  0  0
   19.9879  -20.5766  -12.9847 O   0  0  0  0  0  0  0  0  0  0  0  0
   20.6795  -19.2940  -14.6852 O   0  0  0  0  0  0  0  0  0  0  0  0
  2  1  1  0
  3  2  1  0
  4  3  1  0
  4  5  1  0
  5  6  1  6
  7  5  1  0
  7  8  2  0
 10 12  1  0
 10  9  1  0
 11 10  2  0
 13 12  1  6
 13 14  1  0
 14  7  1  0
 15 13  1  0
 16 15  2  0
 17 15  1  0
 18 25  1  0
 18 17  1  0
 18 19  1  1
 20 19  1  0
 21 20  2  0
 22 23  1  0
 22 21  1  0
 23 24  2  0
 24 20  1  0
 25 27  1  0
 26 25  2  0
M  END
$$$$
