MNH.pdb
     RDKit          3D

 27 27  0  0  1  0  0  0  0  0999 V2000
   29.8549  -20.7288   -9.6872 C   0  0  0  0  0  0  0  0  0  0  0  0
   30.6477  -21.7320  -10.9617 S   0  0  0  0  0  0  0  0  0  0  0  0
   30.3510  -20.9633  -12.6005 C   0  0  0  0  0  0  0  0  0  0  0  0
   28.9574  -20.4184  -12.5617 C   0  0  0  0  0  0  0  0  0  0  0  0
   28.0004  -21.0683  -13.5298 C   0  0  2  0  0  0  0  0  0  0  0  0
   28.7807  -21.3238  -14.7363 N   0  0  0  0  0  0  0  0  0  0  0  0
   26.8799  -20.1587  -13.7845 C   0  0  0  0  0  0  0  0  0  0  0  0
   26.2854  -19.5893  -12.8366 O   0  0  0  0  0  0  0  0  0  0  0  0
   27.0992  -17.8831  -18.0812 N   0  0  0  0  0  0  0  0  0  0  0  0
   26.1107  -17.6613  -17.1254 C   0  0  0  0  0  0  0  0  0  0  0  0
   26.1123  -16.5217  -16.5464 O   0  0  0  0  0  0  0  0  0  0  0  0
   25.0592  -18.5915  -16.7026 C   0  0  0  0  0  0  0  0  0  0  0  0
   25.2082  -19.1061  -15.3102 C   0  0  2  0  0  0  0  0  0  0  0  0
   26.4034  -19.8699  -15.1148 N   0  0  0  0  0  0  0  0  0  0  0  0
   23.9828  -19.8616  -14.9216 C   0  0  0  0  0  0  0  0  0  0  0  0
   23.8695  -21.0306  -15.3686 O   0  0  0  0  0  0  0  0  0  0  0  0
   22.9781  -19.3137  -14.0898 N   0  0  0  0  0  0  0  0  0  0  0  0
   21.8741  -20.1432  -13.5374 C   0  0  1  0  0  0  0  0  0  0  0  0
   21.8491  -20.0405  -12.0604 C   0  0  0  0  0  0  0  0  0  0  0  0
   22.8967  -20.7121  -11.3008 C   0  0  0  0  0  0  0  0  0  0  0  0
   23.9381  -21.5034  -11.6537 C   0  0  0  0  0  0  0  0  0  0  0  0
   24.6249  -21.7874  -10.5246 N   0  0  0  0  0  0  0  0  0  0  0  0
   24.0192  -21.1808   -9.4922 C   0  0  0  0  0  0  0  0  0  0  0  0
   22.9663  -20.5198   -9.9344 N   0  0  0  0  0  0  0  0  0  0  0  0
   20.6134  -19.6023  -14.1276 C   0  0  0  0  0  0  0  0  0  0  0  0
   20.5659  -18.5075  -14.6713 O   0  0  0  0  0  0  0  0  0  0  0  0
   19.4086  -20.3333  -14.0862 O   0  0  0  0  0  0  0  0  0  0  0  0
  2  1  1  0
  3  2  1  0
  4  3  1  0
  4  5  1  0
  5  6  1  6
  7  5  1  0
  7  8  2  0
 10 12  1  0
 10  9  1  0
 11 10  2  0
 13 12  1  6
 13 14  1  0
 14  7  1  0
 15 13  1  0
 16 15  2  0
 17 15  1  0
 18 25  1  0
 18 17  1  0
 18 19  1  1
 20 19  1  0
 21 20  2  0
 22 23  1  0
 22 21  1  0
 23 24  2  0
 24 20  1  0
 25 27  1  0
 26 25  2  0
M  END
$$$$
