MNH.pdb
     RDKit          3D

 27 27  0  0  1  0  0  0  0  0999 V2000
   28.1291  -15.3386  -15.2917 C   0  0  0  0  0  0  0  0  0  0  0  0
   26.9599  -16.7128  -15.2311 S   0  0  0  0  0  0  0  0  0  0  0  0
   25.3541  -16.1648  -15.9278 C   0  0  0  0  0  0  0  0  0  0  0  0
   25.1837  -14.7361  -15.5150 C   0  0  0  0  0  0  0  0  0  0  0  0
   23.8969  -14.0974  -15.9751 C   0  0  2  0  0  0  0  0  0  0  0  0
   23.6023  -14.7037  -17.2694 N   0  0  0  0  0  0  0  0  0  0  0  0
   24.0883  -12.6482  -16.0799 C   0  0  0  0  0  0  0  0  0  0  0  0
   24.3188  -11.9544  -15.0592 O   0  0  0  0  0  0  0  0  0  0  0  0
   26.1271   -7.9049  -18.4286 N   0  0  0  0  0  0  0  0  0  0  0  0
   25.0043   -8.6326  -18.8153 C   0  0  0  0  0  0  0  0  0  0  0  0
   24.0348   -7.9723  -19.3233 O   0  0  0  0  0  0  0  0  0  0  0  0
   24.8036  -10.0809  -18.7065 C   0  0  0  0  0  0  0  0  0  0  0  0
   24.2496  -10.5345  -17.3977 C   0  0  2  0  0  0  0  0  0  0  0  0
   24.0239  -11.9472  -17.3386 N   0  0  0  0  0  0  0  0  0  0  0  0
   23.0231   -9.7506  -17.0741 C   0  0  0  0  0  0  0  0  0  0  0  0
   21.9544  -10.1122  -17.6274 O   0  0  0  0  0  0  0  0  0  0  0  0
   23.0322   -8.6469  -16.1891 N   0  0  0  0  0  0  0  0  0  0  0  0
   21.8017   -7.8667  -15.8905 C   0  0  1  0  0  0  0  0  0  0  0  0
   21.2349   -8.2868  -14.5885 C   0  0  0  0  0  0  0  0  0  0  0  0
   20.3316   -9.4307  -14.5622 C   0  0  0  0  0  0  0  0  0  0  0  0
   19.9504  -10.3351  -15.4961 C   0  0  0  0  0  0  0  0  0  0  0  0
   19.1348  -11.2223  -14.8839 N   0  0  0  0  0  0  0  0  0  0  0  0
   19.0153  -10.8730  -13.5938 C   0  0  0  0  0  0  0  0  0  0  0  0
   19.7321   -9.7881  -13.3698 N   0  0  0  0  0  0  0  0  0  0  0  0
   22.2190   -6.4333  -15.8491 C   0  0  0  0  0  0  0  0  0  0  0  0
   23.3846   -6.0899  -15.9906 O   0  0  0  0  0  0  0  0  0  0  0  0
   21.2825   -5.3998  -15.6436 O   0  0  0  0  0  0  0  0  0  0  0  0
  2  1  1  0
  3  2  1  0
  4  3  1  0
  4  5  1  0
  5  6  1  6
  7  5  1  0
  7  8  2  0
 10 12  1  0
 10  9  1  0
 11 10  2  0
 13 12  1  6
 13 14  1  0
 14  7  1  0
 15 13  1  0
 16 15  2  0
 17 15  1  0
 18 25  1  0
 18 17  1  0
 18 19  1  1
 20 19  1  0
 21 20  2  0
 22 23  1  0
 22 21  1  0
 23 24  2  0
 24 20  1  0
 25 27  1  0
 26 25  2  0
M  END
$$$$
