MNH.pdb
     RDKit          3D

 27 27  0  0  1  0  0  0  0  0999 V2000
   28.3066  -10.9457  -17.8461 C   0  0  0  0  0  0  0  0  0  0  0  0
   28.1315  -11.0542  -16.0525 S   0  0  0  0  0  0  0  0  0  0  0  0
   26.5802  -11.9485  -15.6546 C   0  0  0  0  0  0  0  0  0  0  0  0
   25.4592  -11.0253  -16.0177 C   0  0  0  0  0  0  0  0  0  0  0  0
   24.0809  -11.6195  -15.8670 C   0  0  2  0  0  0  0  0  0  0  0  0
   24.0262  -12.7231  -16.8202 N   0  0  0  0  0  0  0  0  0  0  0  0
   23.0780  -10.5920  -16.1605 C   0  0  0  0  0  0  0  0  0  0  0  0
   22.8793  -10.2049  -17.3382 O   0  0  0  0  0  0  0  0  0  0  0  0
   19.6869  -11.3187  -16.3528 N   0  0  0  0  0  0  0  0  0  0  0  0
   19.2731  -10.4740  -15.3256 C   0  0  0  0  0  0  0  0  0  0  0  0
   18.1758  -10.7703  -14.7408 O   0  0  0  0  0  0  0  0  0  0  0  0
   19.9561   -9.2739  -14.8330 C   0  0  0  0  0  0  0  0  0  0  0  0
   21.2783   -9.0061  -15.4700 C   0  0  2  0  0  0  0  0  0  0  0  0
   22.2754   -9.9766  -15.1322 N   0  0  0  0  0  0  0  0  0  0  0  0
   21.7128   -7.6145  -15.1566 C   0  0  0  0  0  0  0  0  0  0  0  0
   22.2556   -7.4261  -14.0390 O   0  0  0  0  0  0  0  0  0  0  0  0
   21.5352   -6.5370  -16.0560 N   0  0  0  0  0  0  0  0  0  0  0  0
   22.1063   -5.1892  -15.7928 C   0  0  1  0  0  0  0  0  0  0  0  0
   22.2961   -4.4583  -17.0665 C   0  0  0  0  0  0  0  0  0  0  0  0
   22.7672   -3.0797  -17.0113 C   0  0  0  0  0  0  0  0  0  0  0  0
   23.4071   -2.3539  -16.0632 C   0  0  0  0  0  0  0  0  0  0  0  0
   23.6556   -1.1353  -16.5927 N   0  0  0  0  0  0  0  0  0  0  0  0
   23.1788   -1.1091  -17.8467 C   0  0  0  0  0  0  0  0  0  0  0  0
   22.6338   -2.2773  -18.1282 N   0  0  0  0  0  0  0  0  0  0  0  0
   21.1212   -4.4845  -14.9191 C   0  0  0  0  0  0  0  0  0  0  0  0
   21.3511   -3.3859  -14.4326 O   0  0  0  0  0  0  0  0  0  0  0  0
   19.8699   -5.0560  -14.6110 O   0  0  0  0  0  0  0  0  0  0  0  0
  2  1  1  0
  3  2  1  0
  4  3  1  0
  4  5  1  0
  5  6  1  6
  7  5  1  0
  7  8  2  0
 10 12  1  0
 10  9  1  0
 11 10  2  0
 13 12  1  1
 13 14  1  0
 14  7  1  0
 15 13  1  0
 16 15  2  0
 17 15  1  0
 18 25  1  0
 18 17  1  0
 18 19  1  6
 20 19  1  0
 21 20  2  0
 22 23  1  0
 22 21  1  0
 23 24  2  0
 24 20  1  0
 25 27  1  0
 26 25  2  0
M  END
$$$$
