KLT.pdb
     RDKit          3D

 25 24  0  0  1  0  0  0  0  0999 V2000
    6.9154  -15.3603   21.1841 N   0  0  0  0  0  0  0  0  0  0  0  0
    8.2685  -14.8311   21.1654 C   0  0  1  0  0  0  0  0  0  0  0  0
    8.4562  -13.6889   20.2307 C   0  0  0  0  0  0  0  0  0  0  0  0
    7.7105  -13.8672   18.9334 C   0  0  0  0  0  0  0  0  0  0  0  0
    8.5698  -13.5996   17.7272 C   0  0  0  0  0  0  0  0  0  0  0  0
    7.7529  -13.6804   16.4594 C   0  0  0  0  0  0  0  0  0  0  0  0
    8.5793  -13.3706   15.2952 N   0  0  0  0  0  0  0  0  0  0  0  0
    8.6814  -14.5789   22.5586 C   0  0  0  0  0  0  0  0  0  0  0  0
    9.8418  -14.2355   22.8921 O   0  0  0  0  0  0  0  0  0  0  0  0
    5.4089  -12.3337   26.5830 C   0  0  0  0  0  0  0  0  0  0  0  0
    6.6274  -12.5693   25.6604 C   0  0  1  0  0  0  0  0  0  0  0  0
    7.6441  -11.5625   26.0771 C   0  0  0  0  0  0  0  0  0  0  0  0
    7.0003  -13.9927   25.8418 C   0  0  0  0  0  0  0  0  0  0  0  0
    8.0896  -14.5600   25.0168 C   0  0  2  0  0  0  0  0  0  0  0  0
    7.7239  -14.7225   23.6435 N   0  0  0  0  0  0  0  0  0  0  0  0
    8.7646  -15.7374   25.6192 C   0  0  0  0  0  0  0  0  0  0  0  0
    8.7897  -15.8420   26.8528 O   0  0  0  0  0  0  0  0  0  0  0  0
    8.8872  -19.8036   24.1765 C   0  0  0  0  0  0  0  0  0  0  0  0
   10.1736  -19.0619   24.4655 C   0  0  1  0  0  0  0  0  0  0  0  0
   10.8242  -18.7353   23.2424 O   0  0  0  0  0  0  0  0  0  0  0  0
   10.0425  -17.8954   25.3541 C   0  0  2  0  0  0  0  0  0  0  0  0
    9.3790  -16.7351   24.8410 N   0  0  0  0  0  0  0  0  0  0  0  0
   11.4493  -17.5393   25.8053 C   0  0  0  0  0  0  0  0  0  0  0  0
   11.9103  -16.4266   25.5624 O   0  0  0  0  0  0  0  0  0  0  0  0
   12.1563  -18.4950   26.4761 O   0  0  0  0  0  0  0  0  0  0  0  0
  2  1  1  1
  2  8  1  0
  3  2  1  0
  4  5  1  0
  4  3  1  0
  6  7  1  0
  6  5  1  0
  8  9  2  0
 11 10  1  1
 11 13  1  0
 12 11  1  0
 14 13  1  1
 15  8  1  0
 15 14  1  0
 16 17  2  0
 16 14  1  0
 19 18  1  6
 19 21  1  0
 20 19  1  0
 21 22  1  6
 22 16  1  0
 23 25  1  0
 23 21  1  0
 24 23  2  0
M  END
$$$$
