KLT.pdb
     RDKit          3D

 25 24  0  0  1  0  0  0  0  0999 V2000
    9.7782  -15.7503   20.2278 N   0  0  0  0  0  0  0  0  0  0  0  0
    8.5490  -15.8471   20.9966 C   0  0  1  0  0  0  0  0  0  0  0  0
    7.8639  -17.1622   20.8750 C   0  0  0  0  0  0  0  0  0  0  0  0
    8.7130  -18.3098   21.3575 C   0  0  0  0  0  0  0  0  0  0  0  0
    8.0012  -19.6335   21.2778 C   0  0  0  0  0  0  0  0  0  0  0  0
    8.9419  -20.7679   21.6085 C   0  0  0  0  0  0  0  0  0  0  0  0
    8.2438  -22.0495   21.5439 N   0  0  0  0  0  0  0  0  0  0  0  0
    8.8357  -15.4119   22.3762 C   0  0  0  0  0  0  0  0  0  0  0  0
    9.9437  -15.5733   22.9437 O   0  0  0  0  0  0  0  0  0  0  0  0
    8.4490  -12.1069   26.4984 C   0  0  0  0  0  0  0  0  0  0  0  0
    7.1274  -12.9057   26.4144 C   0  0  1  0  0  0  0  0  0  0  0  0
    6.0627  -11.9638   26.8616 C   0  0  0  0  0  0  0  0  0  0  0  0
    7.0347  -13.3844   25.0143 C   0  0  0  0  0  0  0  0  0  0  0  0
    8.0009  -14.3982   24.5370 C   0  0  2  0  0  0  0  0  0  0  0  0
    7.8073  -14.7520   23.1646 N   0  0  0  0  0  0  0  0  0  0  0  0
    8.1793  -15.5533   25.4528 C   0  0  0  0  0  0  0  0  0  0  0  0
    7.1885  -16.2323   25.7538 O   0  0  0  0  0  0  0  0  0  0  0  0
   10.3211  -18.7782   25.0614 C   0  0  0  0  0  0  0  0  0  0  0  0
   10.7008  -18.0162   26.3118 C   0  0  1  0  0  0  0  0  0  0  0  0
   11.9772  -17.4114   26.1361 O   0  0  0  0  0  0  0  0  0  0  0  0
    9.6936  -17.0577   26.7959 C   0  0  2  0  0  0  0  0  0  0  0  0
    9.4303  -15.9017   25.9933 N   0  0  0  0  0  0  0  0  0  0  0  0
   10.1333  -16.6402   28.1895 C   0  0  0  0  0  0  0  0  0  0  0  0
   10.2975  -15.4513   28.4527 O   0  0  0  0  0  0  0  0  0  0  0  0
   10.3323  -17.6287   29.1096 O   0  0  0  0  0  0  0  0  0  0  0  0
  2  1  1  6
  2  8  1  0
  3  2  1  0
  4  5  1  0
  4  3  1  0
  6  7  1  0
  6  5  1  0
  8  9  2  0
 11 10  1  6
 11 13  1  0
 12 11  1  0
 14 13  1  1
 15  8  1  0
 15 14  1  0
 16 17  2  0
 16 14  1  0
 19 18  1  6
 19 21  1  0
 20 19  1  0
 21 22  1  6
 22 16  1  0
 23 25  1  0
 23 21  1  0
 24 23  2  0
M  END
$$$$
