KLT.pdb
     RDKit          3D

 25 24  0  0  1  0  0  0  0  0999 V2000
    6.8718  -16.2099   21.1134 N   0  0  0  0  0  0  0  0  0  0  0  0
    7.9242  -15.2389   20.8669 C   0  0  1  0  0  0  0  0  0  0  0  0
    7.6189  -14.2854   19.7663 C   0  0  0  0  0  0  0  0  0  0  0  0
    8.8406  -13.8974   18.9741 C   0  0  0  0  0  0  0  0  0  0  0  0
    8.5058  -13.1016   17.7413 C   0  0  0  0  0  0  0  0  0  0  0  0
    8.5707  -13.9718   16.5085 C   0  0  0  0  0  0  0  0  0  0  0  0
    8.1608  -13.2183   15.3259 N   0  0  0  0  0  0  0  0  0  0  0  0
    8.2864  -14.6185   22.1549 C   0  0  0  0  0  0  0  0  0  0  0  0
    9.3965  -14.0786   22.3827 O   0  0  0  0  0  0  0  0  0  0  0  0
    7.6669  -11.3668   26.3006 C   0  0  0  0  0  0  0  0  0  0  0  0
    6.7743  -12.6216   26.4439 C   0  0  1  0  0  0  0  0  0  0  0  0
    5.5267  -12.1500   27.1088 C   0  0  0  0  0  0  0  0  0  0  0  0
    6.6222  -13.1660   25.0733 C   0  0  0  0  0  0  0  0  0  0  0  0
    7.6597  -14.0785   24.5443 C   0  0  2  0  0  0  0  0  0  0  0  0
    7.3352  -14.6058   23.2548 N   0  0  0  0  0  0  0  0  0  0  0  0
    8.1427  -15.0880   25.5201 C   0  0  0  0  0  0  0  0  0  0  0  0
    8.2796  -14.7528   26.7043 O   0  0  0  0  0  0  0  0  0  0  0  0
    6.6095  -18.8465   25.8819 C   0  0  0  0  0  0  0  0  0  0  0  0
    8.1171  -18.7933   25.7698 C   0  0  1  0  0  0  0  0  0  0  0  0
    8.5228  -19.3100   24.5071 O   0  0  0  0  0  0  0  0  0  0  0  0
    8.7245  -17.4830   26.0553 C   0  0  2  0  0  0  0  0  0  0  0  0
    8.4537  -16.4086   25.1485 N   0  0  0  0  0  0  0  0  0  0  0  0
   10.2224  -17.7176   26.1589 C   0  0  0  0  0  0  0  0  0  0  0  0
   10.6672  -18.4913   27.0034 O   0  0  0  0  0  0  0  0  0  0  0  0
   11.0275  -17.0412   25.2885 O   0  0  0  0  0  0  0  0  0  0  0  0
  2  1  1  1
  2  8  1  0
  3  2  1  0
  4  5  1  0
  4  3  1  0
  6  7  1  0
  6  5  1  0
  8  9  2  0
 11 10  1  6
 11 13  1  0
 12 11  1  0
 14 13  1  1
 15  8  1  0
 15 14  1  0
 16 17  2  0
 16 14  1  0
 19 18  1  6
 19 21  1  0
 20 19  1  0
 21 22  1  6
 22 16  1  0
 23 25  1  0
 23 21  1  0
 24 23  2  0
M  END
$$$$
