KLT.pdb
     RDKit          3D

 25 24  0  0  1  0  0  0  0  0999 V2000
    7.7912  -15.4626   21.2789 N   0  0  0  0  0  0  0  0  0  0  0  0
    9.0138  -14.7029   21.4773 C   0  0  1  0  0  0  0  0  0  0  0  0
    9.0837  -13.4527   20.6739 C   0  0  0  0  0  0  0  0  0  0  0  0
    9.3354  -13.7119   19.2109 C   0  0  0  0  0  0  0  0  0  0  0  0
    8.1181  -13.4702   18.3596 C   0  0  0  0  0  0  0  0  0  0  0  0
    8.3759  -13.8789   16.9286 C   0  0  0  0  0  0  0  0  0  0  0  0
    7.1874  -13.6560   16.1088 N   0  0  0  0  0  0  0  0  0  0  0  0
    9.2164  -14.5311   22.9280 C   0  0  0  0  0  0  0  0  0  0  0  0
   10.2992  -14.1598   23.4431 O   0  0  0  0  0  0  0  0  0  0  0  0
    5.5574  -12.4358   26.5575 C   0  0  0  0  0  0  0  0  0  0  0  0
    6.8560  -12.7173   25.7663 C   0  0  1  0  0  0  0  0  0  0  0  0
    7.8588  -11.7453   26.2865 C   0  0  0  0  0  0  0  0  0  0  0  0
    7.1577  -14.1523   25.9853 C   0  0  0  0  0  0  0  0  0  0  0  0
    8.3036  -14.7613   25.2748 C   0  0  2  0  0  0  0  0  0  0  0  0
    8.1278  -14.7940   23.8556 N   0  0  0  0  0  0  0  0  0  0  0  0
    8.7842  -16.0354   25.8667 C   0  0  0  0  0  0  0  0  0  0  0  0
    8.5967  -16.2386   27.0737 O   0  0  0  0  0  0  0  0  0  0  0  0
    8.4127  -19.9553   24.4386 C   0  0  0  0  0  0  0  0  0  0  0  0
    9.8117  -19.4440   24.7029 C   0  0  1  0  0  0  0  0  0  0  0  0
   10.4810  -19.2173   23.4673 O   0  0  0  0  0  0  0  0  0  0  0  0
    9.8985  -18.2825   25.6033 C   0  0  2  0  0  0  0  0  0  0  0  0
    9.4470  -17.0172   25.1082 N   0  0  0  0  0  0  0  0  0  0  0  0
   11.3505  -18.1869   26.0418 C   0  0  0  0  0  0  0  0  0  0  0  0
   11.8518  -19.0871   26.7111 O   0  0  0  0  0  0  0  0  0  0  0  0
   12.0506  -17.0777   25.6641 O   0  0  0  0  0  0  0  0  0  0  0  0
  2  1  1  1
  2  8  1  0
  3  2  1  0
  4  5  1  0
  4  3  1  0
  6  7  1  0
  6  5  1  0
  8  9  2  0
 11 10  1  1
 11 13  1  0
 12 11  1  0
 14 13  1  1
 15  8  1  0
 15 14  1  0
 16 17  2  0
 16 14  1  0
 19 18  1  6
 19 21  1  0
 20 19  1  0
 21 22  1  6
 22 16  1  0
 23 25  1  0
 23 21  1  0
 24 23  2  0
M  END
$$$$
