KLT.pdb
     RDKit          3D

 25 24  0  0  1  0  0  0  0  0999 V2000
    7.0860  -15.7706   21.1924 N   0  0  0  0  0  0  0  0  0  0  0  0
    8.3802  -15.1202   21.3082 C   0  0  1  0  0  0  0  0  0  0  0  0
    8.4767  -13.8338   20.5670 C   0  0  0  0  0  0  0  0  0  0  0  0
    8.1131  -13.9700   19.1110 C   0  0  0  0  0  0  0  0  0  0  0  0
    8.9043  -13.0458   18.2251 C   0  0  0  0  0  0  0  0  0  0  0  0
    8.4285  -13.1379   16.7946 C   0  0  0  0  0  0  0  0  0  0  0  0
    9.2463  -12.2948   15.9259 N   0  0  0  0  0  0  0  0  0  0  0  0
    8.7317  -15.0503   22.7388 C   0  0  0  0  0  0  0  0  0  0  0  0
    9.8907  -14.8212   23.1630 O   0  0  0  0  0  0  0  0  0  0  0  0
    5.9013  -12.5122   26.7772 C   0  0  0  0  0  0  0  0  0  0  0  0
    7.0380  -12.9995   25.8486 C   0  0  1  0  0  0  0  0  0  0  0  0
    8.2673  -12.3040   26.3238 C   0  0  0  0  0  0  0  0  0  0  0  0
    7.0379  -14.4784   25.9543 C   0  0  0  0  0  0  0  0  0  0  0  0
    8.0095  -15.2551   25.1534 C   0  0  2  0  0  0  0  0  0  0  0  0
    7.7106  -15.2508   23.7545 N   0  0  0  0  0  0  0  0  0  0  0  0
    8.3329  -16.5926   25.7113 C   0  0  0  0  0  0  0  0  0  0  0  0
    7.4064  -17.3822   25.9382 O   0  0  0  0  0  0  0  0  0  0  0  0
   10.1755  -19.5026   24.1826 C   0  0  0  0  0  0  0  0  0  0  0  0
   10.8667  -19.0982   25.4660 C   0  0  1  0  0  0  0  0  0  0  0  0
   12.1040  -18.4622   25.1648 O   0  0  0  0  0  0  0  0  0  0  0  0
   10.0485  -18.3078   26.4005 C   0  0  2  0  0  0  0  0  0  0  0  0
    9.6510  -16.9937   25.9945 N   0  0  0  0  0  0  0  0  0  0  0  0
   10.8282  -18.2414   27.7033 C   0  0  0  0  0  0  0  0  0  0  0  0
   11.1603  -17.1531   28.1670 O   0  0  0  0  0  0  0  0  0  0  0  0
   11.1335  -19.4227   28.3153 O   0  0  0  0  0  0  0  0  0  0  0  0
  2  1  1  1
  2  8  1  0
  3  2  1  0
  4  5  1  0
  4  3  1  0
  6  7  1  0
  6  5  1  0
  8  9  2  0
 11 10  1  1
 11 13  1  0
 12 11  1  0
 14 13  1  1
 15  8  1  0
 15 14  1  0
 16 17  2  0
 16 14  1  0
 19 18  1  6
 19 21  1  0
 20 19  1  0
 21 22  1  6
 22 16  1  0
 23 25  1  0
 23 21  1  0
 24 23  2  0
M  END
$$$$
