KLT.pdb
     RDKit          3D

 25 24  0  0  1  0  0  0  0  0999 V2000
    6.9485  -16.0463   20.8310 N   0  0  0  0  0  0  0  0  0  0  0  0
    8.3743  -15.7769   20.9062 C   0  0  1  0  0  0  0  0  0  0  0  0
    8.8579  -14.8022   19.8915 C   0  0  0  0  0  0  0  0  0  0  0  0
    8.1902  -14.9744   18.5515 C   0  0  0  0  0  0  0  0  0  0  0  0
    9.1652  -14.9293   17.4059 C   0  0  0  0  0  0  0  0  0  0  0  0
    8.4381  -14.9625   16.0825 C   0  0  0  0  0  0  0  0  0  0  0  0
    9.3595  -14.6857   14.9831 N   0  0  0  0  0  0  0  0  0  0  0  0
    8.7052  -15.4460   22.3048 C   0  0  0  0  0  0  0  0  0  0  0  0
    9.8766  -15.2851   22.7263 O   0  0  0  0  0  0  0  0  0  0  0  0
    6.0203  -12.0390   26.2475 C   0  0  0  0  0  0  0  0  0  0  0  0
    7.2853  -12.6766   25.6271 C   0  0  1  0  0  0  0  0  0  0  0  0
    8.3430  -12.5612   26.6705 C   0  0  0  0  0  0  0  0  0  0  0  0
    6.8934  -14.0527   25.2388 C   0  0  0  0  0  0  0  0  0  0  0  0
    7.9131  -14.9515   24.6546 C   0  0  2  0  0  0  0  0  0  0  0  0
    7.6471  -15.2855   23.2894 N   0  0  0  0  0  0  0  0  0  0  0  0
    8.2751  -16.1073   25.5135 C   0  0  0  0  0  0  0  0  0  0  0  0
    7.3872  -16.6523   26.1826 O   0  0  0  0  0  0  0  0  0  0  0  0
    9.8116  -19.4812   24.3359 C   0  0  0  0  0  0  0  0  0  0  0  0
   10.6581  -18.8410   25.4139 C   0  0  1  0  0  0  0  0  0  0  0  0
   11.8661  -18.3474   24.8454 O   0  0  0  0  0  0  0  0  0  0  0  0
    9.9742  -17.8266   26.2329 C   0  0  2  0  0  0  0  0  0  0  0  0
    9.5889  -16.6028   25.5976 N   0  0  0  0  0  0  0  0  0  0  0  0
   10.8879  -17.5405   27.4131 C   0  0  0  0  0  0  0  0  0  0  0  0
   11.3315  -16.4081   27.5876 O   0  0  0  0  0  0  0  0  0  0  0  0
   11.1833  -18.5799   28.2472 O   0  0  0  0  0  0  0  0  0  0  0  0
  2  1  1  1
  2  8  1  0
  3  2  1  0
  4  5  1  0
  4  3  1  0
  6  7  1  0
  6  5  1  0
  8  9  2  0
 11 10  1  1
 11 13  1  0
 12 11  1  0
 14 13  1  1
 15  8  1  0
 15 14  1  0
 16 17  2  0
 16 14  1  0
 19 18  1  6
 19 21  1  0
 20 19  1  0
 21 22  1  6
 22 16  1  0
 23 25  1  0
 23 21  1  0
 24 23  2  0
M  END
$$$$
