KLT.pdb
     RDKit          3D

 25 24  0  0  1  0  0  0  0  0999 V2000
    9.7040  -15.2462   20.6852 N   0  0  0  0  0  0  0  0  0  0  0  0
    8.6887  -15.9041   21.4898 C   0  0  1  0  0  0  0  0  0  0  0  0
    8.5499  -17.3593   21.2131 C   0  0  0  0  0  0  0  0  0  0  0  0
    7.9558  -17.6420   19.8574 C   0  0  0  0  0  0  0  0  0  0  0  0
    7.6561  -19.1017   19.6467 C   0  0  0  0  0  0  0  0  0  0  0  0
    7.1649  -19.3498   18.2401 C   0  0  0  0  0  0  0  0  0  0  0  0
    5.8046  -19.8820   18.2575 N   0  0  0  0  0  0  0  0  0  0  0  0
    8.9237  -15.5515   22.9024 C   0  0  0  0  0  0  0  0  0  0  0  0
   10.0626  -15.4870   23.4262 O   0  0  0  0  0  0  0  0  0  0  0  0
    5.6706  -12.2326   26.2446 C   0  0  0  0  0  0  0  0  0  0  0  0
    6.9317  -12.8004   25.5524 C   0  0  1  0  0  0  0  0  0  0  0  0
    8.0793  -12.0502   26.1365 C   0  0  0  0  0  0  0  0  0  0  0  0
    6.9058  -14.2612   25.8043 C   0  0  0  0  0  0  0  0  0  0  0  0
    7.9506  -15.1131   25.1947 C   0  0  2  0  0  0  0  0  0  0  0  0
    7.8026  -15.2518   23.7787 N   0  0  0  0  0  0  0  0  0  0  0  0
    8.2011  -16.3862   25.9166 C   0  0  0  0  0  0  0  0  0  0  0  0
    7.2609  -17.1769   26.0719 O   0  0  0  0  0  0  0  0  0  0  0  0
   10.2343  -19.3456   24.8675 C   0  0  0  0  0  0  0  0  0  0  0  0
   10.7655  -18.8306   26.1869 C   0  0  1  0  0  0  0  0  0  0  0  0
   12.0130  -18.1772   25.9797 O   0  0  0  0  0  0  0  0  0  0  0  0
    9.8276  -18.0039   26.9644 C   0  0  2  0  0  0  0  0  0  0  0  0
    9.4649  -16.7249   26.4332 N   0  0  0  0  0  0  0  0  0  0  0  0
   10.4400  -17.8441   28.3460 C   0  0  0  0  0  0  0  0  0  0  0  0
   10.7423  -16.7273   28.7598 O   0  0  0  0  0  0  0  0  0  0  0  0
   10.6329  -18.9760   29.0841 O   0  0  0  0  0  0  0  0  0  0  0  0
  2  1  1  6
  2  8  1  0
  3  2  1  0
  4  5  1  0
  4  3  1  0
  6  7  1  0
  6  5  1  0
  8  9  2  0
 11 10  1  1
 11 13  1  0
 12 11  1  0
 14 13  1  1
 15  8  1  0
 15 14  1  0
 16 17  2  0
 16 14  1  0
 19 18  1  6
 19 21  1  0
 20 19  1  0
 21 22  1  6
 22 16  1  0
 23 25  1  0
 23 21  1  0
 24 23  2  0
M  END
$$$$
