RIY.pdb
     RDKit          3D

 32 32  0  0  1  0  0  0  0  0999 V2000
    4.0587  -19.0983   20.2081 N   0  0  0  0  0  0  0  0  0  0  0  0
    4.3714  -19.1724   18.8255 C   0  0  0  0  0  0  0  0  0  0  0  0
    3.6826  -19.9484   18.0766 N   0  0  0  0  0  0  0  0  0  0  0  0
    5.4454  -18.3741   18.3396 N   0  0  0  0  0  0  0  0  0  0  0  0
    6.4458  -17.9043   19.2692 C   0  0  0  0  0  0  0  0  0  0  0  0
    6.0462  -18.1808   20.6766 C   0  0  0  0  0  0  0  0  0  0  0  0
    7.1438  -17.7973   21.6785 C   0  0  0  0  0  0  0  0  0  0  0  0
    7.2413  -16.3040   21.6062 C   0  0  2  0  0  0  0  0  0  0  0  0
    7.6549  -15.9286   20.2711 N   0  0  0  0  0  0  0  0  0  0  0  0
    8.0830  -15.6948   22.6690 C   0  0  0  0  0  0  0  0  0  0  0  0
    9.3250  -15.9136   22.7001 O   0  0  0  0  0  0  0  0  0  0  0  0
    3.9557  -20.0883   17.0851 C   0  0  0  0  0  0  0  0  0  0  0  0
    5.9919  -11.7766   26.5542 C   0  0  0  0  0  0  0  0  0  0  0  0
    6.2244  -13.0255   25.7167 C   0  0  2  0  0  0  0  0  0  0  0  0
    7.6544  -12.9832   25.2193 C   0  0  0  0  0  0  0  0  0  0  0  0
    7.7586  -11.8616   24.2371 C   0  0  1  0  0  0  0  0  0  0  0  0
    8.1456  -14.2915   24.7328 N   0  0  0  0  0  0  0  0  0  0  0  0
    7.4371  -14.8726   23.6328 C   0  0  0  0  0  0  0  0  0  0  0  0
    8.1159  -15.2539   25.9016 O   0  0  0  0  0  0  0  0  0  0  0  0
    7.0539  -15.8726   26.1761 O   0  0  0  0  0  0  0  0  0  0  0  0
    9.0769  -22.8353   29.1868 C   0  0  0  0  0  0  0  0  0  0  0  0
    9.1107  -21.6123   28.5469 C   0  0  0  0  0  0  0  0  0  0  0  0
   10.2844  -21.1212   28.0095 C   0  0  0  0  0  0  0  0  0  0  0  0
   10.2830  -19.8984   27.3781 C   0  0  0  0  0  0  0  0  0  0  0  0
    9.1236  -19.1706   27.2829 C   0  0  0  0  0  0  0  0  0  0  0  0
    9.1331  -17.8648   26.6118 C   0  0  1  0  0  0  0  0  0  0  0  0
    9.2541  -16.7061   27.5624 N   0  0  0  0  0  0  0  0  0  0  0  0
    9.2515  -15.4954   26.7160 C   0  0  0  0  0  0  0  0  0  0  0  0
   10.5184  -16.8149   28.3184 O   0  0  0  0  0  0  0  0  0  0  0  0
   11.5835  -16.4356   27.7198 C   0  0  0  0  0  0  0  0  0  0  0  0
    7.9448  -19.6622   27.8218 C   0  0  0  0  0  0  0  0  0  0  0  0
    7.9536  -20.8788   28.4479 O   0  0  0  0  0  0  0  0  0  0  0  0
  2  1  1  0
  2  3  2  0
  4  2  1  0
  5  4  1  0
  6  5  1  0
  7  6  1  0
  8  9  1  6
  8  7  1  0
 10  8  1  0
 11 10  2  0
 13 12  1  0
 14 13  1  0
 14 16  1  0
 14 15  1  1
 16 18  1  0
 16 17  1  6
 17 10  1  0
 18 27  1  0
 19 18  2  0
 21 22  2  0
 21 20  1  0
 23 22  1  0
 24 23  2  0
 25 24  1  0
 26 25  1  1
 27 26  1  0
 28 26  1  0
 28 32  1  0
 29 28  2  0
 30 24  1  0
 30 31  2  0
 31 21  1  0
M  END
$$$$
