RIY.pdb
     RDKit          3D

 32 32  0  0  1  0  0  0  0  0999 V2000
    6.6896  -20.4519   19.1516 N   0  0  0  0  0  0  0  0  0  0  0  0
    5.7069  -19.6075   18.5720 C   0  0  0  0  0  0  0  0  0  0  0  0
    5.2038  -19.9303   17.4405 N   0  0  0  0  0  0  0  0  0  0  0  0
    5.3296  -18.4341   19.2846 N   0  0  0  0  0  0  0  0  0  0  0  0
    6.0782  -18.0574   20.4608 C   0  0  0  0  0  0  0  0  0  0  0  0
    7.5204  -17.8665   20.1437 C   0  0  0  0  0  0  0  0  0  0  0  0
    8.3347  -17.4423   21.3736 C   0  0  0  0  0  0  0  0  0  0  0  0
    8.1439  -15.9602   21.4825 C   0  0  2  0  0  0  0  0  0  0  0  0
    8.5770  -15.3431   20.2472 N   0  0  0  0  0  0  0  0  0  0  0  0
    8.7667  -15.3511   22.6867 C   0  0  0  0  0  0  0  0  0  0  0  0
   10.0190  -15.2147   22.7550 O   0  0  0  0  0  0  0  0  0  0  0  0
    4.5358  -19.2909   16.9692 C   0  0  0  0  0  0  0  0  0  0  0  0
    5.7216  -11.8665   25.9473 C   0  0  0  0  0  0  0  0  0  0  0  0
    6.8002  -12.4450   25.0433 C   0  0  2  0  0  0  0  0  0  0  0  0
    7.4347  -13.6094   25.7754 C   0  0  0  0  0  0  0  0  0  0  0  0
    7.9709  -13.0912   27.0705 C   0  0  2  0  0  0  0  0  0  0  0  0
    8.4051  -14.3627   24.9505 N   0  0  0  0  0  0  0  0  0  0  0  0
    7.9042  -14.9400   23.7399 C   0  0  0  0  0  0  0  0  0  0  0  0
    8.9855  -15.4609   25.8168 O   0  0  0  0  0  0  0  0  0  0  0  0
    8.2641  -16.4343   26.1602 O   0  0  0  0  0  0  0  0  0  0  0  0
   14.4630  -19.7408   31.2155 C   0  0  0  0  0  0  0  0  0  0  0  0
   13.9114  -18.8840   30.2838 C   0  0  0  0  0  0  0  0  0  0  0  0
   13.9535  -19.1754   28.9344 C   0  0  0  0  0  0  0  0  0  0  0  0
   13.3938  -18.2994   28.0324 C   0  0  0  0  0  0  0  0  0  0  0  0
   12.7980  -17.1433   28.4699 C   0  0  0  0  0  0  0  0  0  0  0  0
   12.2080  -16.2125   27.4998 C   0  0  1  0  0  0  0  0  0  0  0  0
   10.7764  -16.5276   27.1648 N   0  0  0  0  0  0  0  0  0  0  0  0
   10.3303  -15.4430   26.2667 C   0  0  0  0  0  0  0  0  0  0  0  0
    9.9706  -16.5486   28.4025 O   0  0  0  0  0  0  0  0  0  0  0  0
    9.5887  -15.4174   28.8621 C   0  0  0  0  0  0  0  0  0  0  0  0
   12.7549  -16.8494   29.8240 C   0  0  0  0  0  0  0  0  0  0  0  0
   13.3132  -17.7252   30.7149 O   0  0  0  0  0  0  0  0  0  0  0  0
  2  1  1  0
  2  3  2  0
  4  2  1  0
  5  4  1  0
  6  5  1  0
  7  6  1  0
  8  9  1  6
  8  7  1  0
 10  8  1  0
 11 10  2  0
 13 12  1  0
 14 13  1  0
 14 16  1  0
 14 15  1  6
 16 18  1  0
 16 17  1  6
 17 10  1  0
 18 27  1  0
 19 18  2  0
 21 22  2  0
 21 20  1  0
 23 22  1  0
 24 23  2  0
 25 24  1  0
 26 25  1  6
 27 26  1  0
 28 26  1  0
 28 32  1  0
 29 28  2  0
 30 24  1  0
 30 31  2  0
 31 21  1  0
M  END
$$$$
