RIY.pdb
     RDKit          3D

 32 32  0  0  1  0  0  0  0  0999 V2000
   12.2867  -19.0090   14.4272 N   0  0  0  0  0  0  0  0  0  0  0  0
   11.3154  -19.9869   14.0881 C   0  0  0  0  0  0  0  0  0  0  0  0
   11.1455  -20.2883   12.8561 N   0  0  0  0  0  0  0  0  0  0  0  0
   10.5728  -20.5858   15.1449 N   0  0  0  0  0  0  0  0  0  0  0  0
   10.6124  -19.9847   16.4574 C   0  0  0  0  0  0  0  0  0  0  0  0
   10.3644  -18.5183   16.3866 C   0  0  0  0  0  0  0  0  0  0  0  0
   11.1781  -17.7402   17.4298 C   0  0  0  0  0  0  0  0  0  0  0  0
   10.4494  -17.9336   18.7246 C   0  0  2  0  0  0  0  0  0  0  0  0
    9.1272  -18.4498   18.4420 N   0  0  0  0  0  0  0  0  0  0  0  0
   10.4303  -16.7326   19.6000 C   0  0  0  0  0  0  0  0  0  0  0  0
   11.4895  -16.0790   19.8061 O   0  0  0  0  0  0  0  0  0  0  0  0
   10.4105  -20.9695   12.5860 C   0  0  0  0  0  0  0  0  0  0  0  0
    6.9449  -12.6811   19.6383 C   0  0  0  0  0  0  0  0  0  0  0  0
    8.0574  -13.7188   19.6709 C   0  0  2  0  0  0  0  0  0  0  0  0
    8.0723  -14.3302   21.0566 C   0  0  0  0  0  0  0  0  0  0  0  0
    8.1418  -13.2106   22.0441 C   0  0  2  0  0  0  0  0  0  0  0  0
    9.1017  -15.3799   21.2239 N   0  0  0  0  0  0  0  0  0  0  0  0
    9.1888  -16.3624   20.1863 C   0  0  0  0  0  0  0  0  0  0  0  0
    8.8333  -16.0770   22.5413 O   0  0  0  0  0  0  0  0  0  0  0  0
    7.8151  -16.8071   22.6669 O   0  0  0  0  0  0  0  0  0  0  0  0
    6.1692  -11.4980   28.9331 C   0  0  0  0  0  0  0  0  0  0  0  0
    6.7034  -12.1509   27.8399 C   0  0  0  0  0  0  0  0  0  0  0  0
    5.9197  -12.4737   26.7494 C   0  0  0  0  0  0  0  0  0  0  0  0
    6.4841  -13.1246   25.6762 C   0  0  0  0  0  0  0  0  0  0  0  0
    7.8168  -13.4517   25.6886 C   0  0  0  0  0  0  0  0  0  0  0  0
    8.4088  -14.1504   24.5412 C   0  0  2  0  0  0  0  0  0  0  0  0
    9.1206  -15.4202   24.9180 N   0  0  0  0  0  0  0  0  0  0  0  0
    9.6935  -15.9430   23.6608 C   0  0  0  0  0  0  0  0  0  0  0  0
    8.1544  -16.3785   25.4925 O   0  0  0  0  0  0  0  0  0  0  0  0
    8.3287  -16.7108   26.7156 C   0  0  0  0  0  0  0  0  0  0  0  0
    8.6046  -13.1282   26.7824 C   0  0  0  0  0  0  0  0  0  0  0  0
    8.0367  -12.4809   27.8458 O   0  0  0  0  0  0  0  0  0  0  0  0
  2  1  1  0
  2  3  2  0
  4  2  1  0
  5  4  1  0
  6  5  1  0
  7  6  1  0
  8  9  1  6
  8  7  1  0
 10  8  1  0
 11 10  2  0
 13 12  1  0
 14 13  1  0
 14 16  1  0
 14 15  1  1
 16 18  1  0
 16 17  1  6
 17 10  1  0
 18 27  1  0
 19 18  2  0
 21 22  2  0
 21 20  1  0
 23 22  1  0
 24 23  2  0
 25 24  1  0
 26 25  1  1
 27 26  1  0
 28 26  1  0
 28 32  1  0
 29 28  2  0
 30 24  1  0
 30 31  2  0
 31 21  1  0
M  END
$$$$
