RIY.pdb
     RDKit          3D

 32 32  0  0  1  0  0  0  0  0999 V2000
   10.8560  -18.9425   14.4134 N   0  0  0  0  0  0  0  0  0  0  0  0
    9.6268  -18.6769   13.7552 C   0  0  0  0  0  0  0  0  0  0  0  0
    9.6496  -18.1132   12.6066 N   0  0  0  0  0  0  0  0  0  0  0  0
    8.4216  -19.0530   14.4133 N   0  0  0  0  0  0  0  0  0  0  0  0
    8.4495  -19.3091   15.8343 C   0  0  0  0  0  0  0  0  0  0  0  0
    9.0739  -18.1778   16.5739 C   0  0  0  0  0  0  0  0  0  0  0  0
   10.0896  -18.6573   17.6199 C   0  0  0  0  0  0  0  0  0  0  0  0
    9.4072  -18.4842   18.9425 C   0  0  2  0  0  0  0  0  0  0  0  0
    7.9758  -18.5537   18.7404 N   0  0  0  0  0  0  0  0  0  0  0  0
    9.8306  -17.2741   19.6944 C   0  0  0  0  0  0  0  0  0  0  0  0
   11.0559  -17.0072   19.8319 O   0  0  0  0  0  0  0  0  0  0  0  0
    8.7655  -17.7863   12.1723 C   0  0  0  0  0  0  0  0  0  0  0  0
    6.3397  -12.8121   20.1159 C   0  0  0  0  0  0  0  0  0  0  0  0
    7.5054  -13.7423   19.8138 C   0  0  2  0  0  0  0  0  0  0  0  0
    8.0176  -14.2779   21.1348 C   0  0  0  0  0  0  0  0  0  0  0  0
    8.3320  -13.1057   22.0068 C   0  0  2  0  0  0  0  0  0  0  0  0
    9.1138  -15.2604   20.9843 N   0  0  0  0  0  0  0  0  0  0  0  0
    8.8119  -16.4482   20.2443 C   0  0  0  0  0  0  0  0  0  0  0  0
    9.5728  -15.6491   22.3741 O   0  0  0  0  0  0  0  0  0  0  0  0
    8.7617  -16.1866   23.1736 O   0  0  0  0  0  0  0  0  0  0  0  0
   10.1687  -14.4699   30.4770 C   0  0  0  0  0  0  0  0  0  0  0  0
   10.0995  -14.5705   29.1016 C   0  0  0  0  0  0  0  0  0  0  0  0
    9.6636  -15.7310   28.4928 C   0  0  0  0  0  0  0  0  0  0  0  0
    9.6068  -15.7975   27.1193 C   0  0  0  0  0  0  0  0  0  0  0  0
    9.9810  -14.7184   26.3586 C   0  0  0  0  0  0  0  0  0  0  0  0
    9.9217  -14.8005   24.8940 C   0  0  1  0  0  0  0  0  0  0  0  0
   11.1460  -15.4220   24.2810 N   0  0  0  0  0  0  0  0  0  0  0  0
   10.8999  -15.4321   22.8244 C   0  0  0  0  0  0  0  0  0  0  0  0
   11.3140  -16.7969   24.7941 O   0  0  0  0  0  0  0  0  0  0  0  0
   12.4326  -17.0728   25.3502 C   0  0  0  0  0  0  0  0  0  0  0  0
   10.4187  -13.5529   26.9683 C   0  0  0  0  0  0  0  0  0  0  0  0
   10.4724  -13.4940   28.3343 O   0  0  0  0  0  0  0  0  0  0  0  0
  2  1  1  0
  2  3  2  0
  4  2  1  0
  5  4  1  0
  6  5  1  0
  7  6  1  0
  8  9  1  6
  8  7  1  0
 10  8  1  0
 11 10  2  0
 13 12  1  0
 14 13  1  0
 14 16  1  0
 14 15  1  1
 16 18  1  0
 16 17  1  6
 17 10  1  0
 18 27  1  0
 19 18  2  0
 21 22  2  0
 21 20  1  0
 23 22  1  0
 24 23  2  0
 25 24  1  0
 26 25  1  6
 27 26  1  0
 28 26  1  0
 28 32  1  0
 29 28  2  0
 30 24  1  0
 30 31  2  0
 31 21  1  0
M  END
$$$$
