RIY.pdb
     RDKit          3D

 32 32  0  0  1  0  0  0  0  0999 V2000
    7.7350  -15.4460   15.4576 N   0  0  0  0  0  0  0  0  0  0  0  0
    7.4681  -14.3795   16.3554 C   0  0  0  0  0  0  0  0  0  0  0  0
    7.9288  -13.2161   16.0879 N   0  0  0  0  0  0  0  0  0  0  0  0
    6.6963  -14.6621   17.5180 N   0  0  0  0  0  0  0  0  0  0  0  0
    6.7688  -15.9801   18.1040 C   0  0  0  0  0  0  0  0  0  0  0  0
    8.0424  -16.1684   18.8518 C   0  0  0  0  0  0  0  0  0  0  0  0
    7.8497  -16.0415   20.3692 C   0  0  0  0  0  0  0  0  0  0  0  0
    8.0114  -14.5822   20.6679 C   0  0  2  0  0  0  0  0  0  0  0  0
    8.7264  -13.9597   19.5744 N   0  0  0  0  0  0  0  0  0  0  0  0
    8.6134  -14.2937   21.9958 C   0  0  0  0  0  0  0  0  0  0  0  0
    9.8630  -14.1663   22.1135 O   0  0  0  0  0  0  0  0  0  0  0  0
    7.7558  -12.4277   16.7404 C   0  0  0  0  0  0  0  0  0  0  0  0
    6.9252  -11.2087   25.1508 C   0  0  0  0  0  0  0  0  0  0  0  0
    6.1991  -12.5435   25.0698 C   0  0  1  0  0  0  0  0  0  0  0  0
    7.1851  -13.6252   25.4592 C   0  0  0  0  0  0  0  0  0  0  0  0
    7.7196  -13.2841   26.8125 C   0  0  2  0  0  0  0  0  0  0  0  0
    8.2119  -13.8832   24.4254 N   0  0  0  0  0  0  0  0  0  0  0  0
    7.7345  -14.1734   23.1072 C   0  0  0  0  0  0  0  0  0  0  0  0
    9.0641  -15.0389   24.9064 O   0  0  0  0  0  0  0  0  0  0  0  0
    8.5185  -16.1272   25.2284 O   0  0  0  0  0  0  0  0  0  0  0  0
   11.1582  -15.1602   31.9705 C   0  0  0  0  0  0  0  0  0  0  0  0
   10.9254  -15.5452   30.6651 C   0  0  0  0  0  0  0  0  0  0  0  0
   11.0430  -16.8663   30.2798 C   0  0  0  0  0  0  0  0  0  0  0  0
   10.8038  -17.2159   28.9703 C   0  0  0  0  0  0  0  0  0  0  0  0
   10.4511  -16.2587   28.0525 C   0  0  0  0  0  0  0  0  0  0  0  0
   10.2027  -16.6405   26.6568 C   0  0  2  0  0  0  0  0  0  0  0  0
   11.1918  -16.0488   25.6911 N   0  0  0  0  0  0  0  0  0  0  0  0
   10.4755  -14.9499   25.0116 C   0  0  0  0  0  0  0  0  0  0  0  0
   11.6141  -17.0789   24.7203 O   0  0  0  0  0  0  0  0  0  0  0  0
   11.2515  -16.9102   23.5051 C   0  0  0  0  0  0  0  0  0  0  0  0
   10.3326  -14.9323   28.4377 C   0  0  0  0  0  0  0  0  0  0  0  0
   10.5717  -14.5922   29.7413 O   0  0  0  0  0  0  0  0  0  0  0  0
  2  1  1  0
  2  3  2  0
  4  2  1  0
  5  4  1  0
  6  5  1  0
  7  6  1  0
  8  9  1  6
  8  7  1  0
 10  8  1  0
 11 10  2  0
 13 12  1  0
 14 13  1  0
 14 16  1  0
 14 15  1  1
 16 18  1  0
 16 17  1  6
 17 10  1  0
 18 27  1  0
 19 18  2  0
 21 22  2  0
 21 20  1  0
 23 22  1  0
 24 23  2  0
 25 24  1  0
 26 25  1  1
 27 26  1  0
 28 26  1  0
 28 32  1  0
 29 28  2  0
 30 24  1  0
 30 31  2  0
 31 21  1  0
M  END
$$$$
