RIY.pdb
     RDKit          3D

 32 32  0  0  1  0  0  0  0  0999 V2000
   12.2125  -23.6971   20.3432 N   0  0  0  0  0  0  0  0  0  0  0  0
   12.9196  -22.4696   20.4333 C   0  0  0  0  0  0  0  0  0  0  0  0
   14.1228  -22.4797   20.8689 N   0  0  0  0  0  0  0  0  0  0  0  0
   12.2475  -21.2803   20.0324 N   0  0  0  0  0  0  0  0  0  0  0  0
   10.8689  -21.3628   19.6102 C   0  0  0  0  0  0  0  0  0  0  0  0
   10.3789  -20.0492   19.1091 C   0  0  0  0  0  0  0  0  0  0  0  0
    9.0878  -19.6046   19.8099 C   0  0  0  0  0  0  0  0  0  0  0  0
    8.6447  -18.3738   19.0793 C   0  0  2  0  0  0  0  0  0  0  0  0
    8.8467  -18.5766   17.6607 N   0  0  0  0  0  0  0  0  0  0  0  0
    9.2541  -17.1140   19.5796 C   0  0  0  0  0  0  0  0  0  0  0  0
   10.4023  -16.7647   19.1909 O   0  0  0  0  0  0  0  0  0  0  0  0
   14.6848  -21.6073   20.8588 C   0  0  0  0  0  0  0  0  0  0  0  0
    6.1082  -12.6411   19.8835 C   0  0  0  0  0  0  0  0  0  0  0  0
    7.2883  -13.5680   19.6315 C   0  0  2  0  0  0  0  0  0  0  0  0
    7.8252  -14.0020   20.9797 C   0  0  0  0  0  0  0  0  0  0  0  0
    8.1840  -12.7678   21.7422 C   0  0  2  0  0  0  0  0  0  0  0  0
    8.8988  -15.0159   20.8852 N   0  0  0  0  0  0  0  0  0  0  0  0
    8.5004  -16.3364   20.5013 C   0  0  0  0  0  0  0  0  0  0  0  0
    9.5858  -15.0808   22.2332 O   0  0  0  0  0  0  0  0  0  0  0  0
   10.1131  -14.0448   22.7174 O   0  0  0  0  0  0  0  0  0  0  0  0
   10.5443  -15.0797   30.5892 C   0  0  0  0  0  0  0  0  0  0  0  0
   10.2414  -15.1232   29.2428 C   0  0  0  0  0  0  0  0  0  0  0  0
   10.3375  -13.9937   28.4537 C   0  0  0  0  0  0  0  0  0  0  0  0
   10.0281  -14.0721   27.1150 C   0  0  0  0  0  0  0  0  0  0  0  0
    9.6261  -15.2641   26.5667 C   0  0  0  0  0  0  0  0  0  0  0  0
    9.2934  -15.3367   25.1386 C   0  0  1  0  0  0  0  0  0  0  0  0
   10.2350  -16.2039   24.3497 N   0  0  0  0  0  0  0  0  0  0  0  0
    9.6627  -16.2777   22.9899 C   0  0  0  0  0  0  0  0  0  0  0  0
   10.3047  -17.5459   24.9631 O   0  0  0  0  0  0  0  0  0  0  0  0
    9.4119  -18.3903   24.6074 C   0  0  0  0  0  0  0  0  0  0  0  0
    9.5292  -16.3986   27.3575 C   0  0  0  0  0  0  0  0  0  0  0  0
    9.8387  -16.3132   28.6876 O   0  0  0  0  0  0  0  0  0  0  0  0
  2  1  1  0
  2  3  2  0
  4  2  1  0
  5  4  1  0
  6  5  1  0
  7  6  1  0
  8  9  1  6
  8  7  1  0
 10  8  1  0
 11 10  2  0
 13 12  1  0
 14 13  1  0
 14 16  1  0
 14 15  1  1
 16 18  1  0
 16 17  1  6
 17 10  1  0
 18 27  1  0
 19 18  2  0
 21 22  2  0
 21 20  1  0
 23 22  1  0
 24 23  2  0
 25 24  1  0
 26 25  1  6
 27 26  1  0
 28 26  1  0
 28 32  1  0
 29 28  2  0
 30 24  1  0
 30 31  2  0
 31 21  1  0
M  END
$$$$
