RIY.pdb
     RDKit          3D

 32 32  0  0  1  0  0  0  0  0999 V2000
    9.7324  -14.5102   16.1040 N   0  0  0  0  0  0  0  0  0  0  0  0
    8.3197  -14.4600   16.2323 C   0  0  0  0  0  0  0  0  0  0  0  0
    7.6843  -13.4873   15.6960 N   0  0  0  0  0  0  0  0  0  0  0  0
    7.6772  -15.5026   16.9585 N   0  0  0  0  0  0  0  0  0  0  0  0
    8.2322  -15.9195   18.2249 C   0  0  0  0  0  0  0  0  0  0  0  0
    8.3028  -14.7822   19.1832 C   0  0  0  0  0  0  0  0  0  0  0  0
    9.2292  -15.0792   20.3704 C   0  0  0  0  0  0  0  0  0  0  0  0
    8.3491  -15.6958   21.4144 C   0  0  2  0  0  0  0  0  0  0  0  0
    6.9685  -15.4099   21.0875 N   0  0  0  0  0  0  0  0  0  0  0  0
    8.7052  -15.3264   22.8093 C   0  0  0  0  0  0  0  0  0  0  0  0
    9.8864  -15.4786   23.2256 O   0  0  0  0  0  0  0  0  0  0  0  0
    6.6491  -13.4478   15.7580 C   0  0  0  0  0  0  0  0  0  0  0  0
    6.3547  -11.5236   27.0450 C   0  0  0  0  0  0  0  0  0  0  0  0
    7.3930  -12.5872   26.7192 C   0  0  2  0  0  0  0  0  0  0  0  0
    6.9398  -13.2988   25.4612 C   0  0  0  0  0  0  0  0  0  0  0  0
    5.5962  -13.8924   25.7365 C   0  0  2  0  0  0  0  0  0  0  0  0
    7.9458  -14.2430   24.9263 N   0  0  0  0  0  0  0  0  0  0  0  0
    7.6737  -14.8068   23.6387 C   0  0  0  0  0  0  0  0  0  0  0  0
    8.1003  -15.3642   25.9324 O   0  0  0  0  0  0  0  0  0  0  0  0
    7.1645  -16.1906   26.0973 O   0  0  0  0  0  0  0  0  0  0  0  0
    5.5898  -21.7717   26.5882 C   0  0  0  0  0  0  0  0  0  0  0  0
    6.5797  -20.8097   26.5517 C   0  0  0  0  0  0  0  0  0  0  0  0
    7.2868  -20.4711   27.6887 C   0  0  0  0  0  0  0  0  0  0  0  0
    8.2673  -19.5079   27.6172 C   0  0  0  0  0  0  0  0  0  0  0  0
    8.5410  -18.8870   26.4245 C   0  0  0  0  0  0  0  0  0  0  0  0
    9.5853  -17.8572   26.3592 C   0  0  2  0  0  0  0  0  0  0  0  0
    9.4566  -16.8080   27.4286 N   0  0  0  0  0  0  0  0  0  0  0  0
    9.2737  -15.5295   26.7114 C   0  0  0  0  0  0  0  0  0  0  0  0
   10.6867  -16.7796   28.2459 O   0  0  0  0  0  0  0  0  0  0  0  0
   10.9298  -17.8135   28.9592 C   0  0  0  0  0  0  0  0  0  0  0  0
    7.8321  -19.2258   25.2824 C   0  0  0  0  0  0  0  0  0  0  0  0
    6.8590  -20.1846   25.3610 O   0  0  0  0  0  0  0  0  0  0  0  0
  2  1  1  0
  2  3  2  0
  4  2  1  0
  5  4  1  0
  6  5  1  0
  7  6  1  0
  8  9  1  6
  8  7  1  0
 10  8  1  0
 11 10  2  0
 13 12  1  0
 14 13  1  0
 14 16  1  0
 14 15  1  6
 16 18  1  0
 16 17  1  1
 17 10  1  0
 18 27  1  0
 19 18  2  0
 21 22  2  0
 21 20  1  0
 23 22  1  0
 24 23  2  0
 25 24  1  0
 26 25  1  1
 27 26  1  0
 28 26  1  0
 28 32  1  0
 29 28  2  0
 30 24  1  0
 30 31  2  0
 31 21  1  0
M  END
$$$$
