RIY.pdb
     RDKit          3D

 32 32  0  0  1  0  0  0  0  0999 V2000
    7.2411  -21.2537   20.4986 N   0  0  0  0  0  0  0  0  0  0  0  0
    7.7489  -20.8822   19.2262 C   0  0  0  0  0  0  0  0  0  0  0  0
    8.4757  -21.7161   18.5830 N   0  0  0  0  0  0  0  0  0  0  0  0
    7.4218  -19.5893   18.7278 N   0  0  0  0  0  0  0  0  0  0  0  0
    6.8288  -18.6228   19.6222 C   0  0  0  0  0  0  0  0  0  0  0  0
    7.8433  -17.6508   20.1151 C   0  0  0  0  0  0  0  0  0  0  0  0
    7.6172  -17.2696   21.5845 C   0  0  0  0  0  0  0  0  0  0  0  0
    7.7213  -15.7756   21.6263 C   0  0  2  0  0  0  0  0  0  0  0  0
    8.3129  -15.3154   20.3882 N   0  0  0  0  0  0  0  0  0  0  0  0
    8.4089  -15.2447   22.8323 C   0  0  0  0  0  0  0  0  0  0  0  0
    9.6400  -15.4569   23.0075 O   0  0  0  0  0  0  0  0  0  0  0  0
    8.8772  -21.4517   17.6632 C   0  0  0  0  0  0  0  0  0  0  0  0
    5.6597  -11.3341   25.8403 C   0  0  0  0  0  0  0  0  0  0  0  0
    6.7711  -11.9699   25.0182 C   0  0  2  0  0  0  0  0  0  0  0  0
    7.3107  -13.1439   25.8088 C   0  0  0  0  0  0  0  0  0  0  0  0
    7.9437  -12.6013   27.0490 C   0  0  2  0  0  0  0  0  0  0  0  0
    8.1689  -14.0455   25.0086 N   0  0  0  0  0  0  0  0  0  0  0  0
    7.6306  -14.5039   23.7638 C   0  0  0  0  0  0  0  0  0  0  0  0
    8.5027  -15.2438   25.8723 O   0  0  0  0  0  0  0  0  0  0  0  0
    8.0755  -16.3844   25.5521 O   0  0  0  0  0  0  0  0  0  0  0  0
   13.9030  -21.3340   27.6047 C   0  0  0  0  0  0  0  0  0  0  0  0
   13.2023  -20.1809   27.3117 C   0  0  0  0  0  0  0  0  0  0  0  0
   13.5689  -19.3737   26.2526 C   0  0  0  0  0  0  0  0  0  0  0  0
   12.8485  -18.2312   25.9881 C   0  0  0  0  0  0  0  0  0  0  0  0
   11.7731  -17.8950   26.7713 C   0  0  0  0  0  0  0  0  0  0  0  0
   11.0138  -16.6717   26.4844 C   0  0  2  0  0  0  0  0  0  0  0  0
    9.9823  -16.3503   27.5302 N   0  0  0  0  0  0  0  0  0  0  0  0
    9.2902  -15.1381   27.0469 C   0  0  0  0  0  0  0  0  0  0  0  0
   10.6499  -16.0931   28.8225 O   0  0  0  0  0  0  0  0  0  0  0  0
   11.2624  -14.9765   28.9438 C   0  0  0  0  0  0  0  0  0  0  0  0
   11.4039  -18.7042   27.8346 C   0  0  0  0  0  0  0  0  0  0  0  0
   12.1245  -19.8387   28.0914 O   0  0  0  0  0  0  0  0  0  0  0  0
  2  1  1  0
  2  3  2  0
  4  2  1  0
  5  4  1  0
  6  5  1  0
  7  6  1  0
  8  9  1  6
  8  7  1  0
 10  8  1  0
 11 10  2  0
 13 12  1  0
 14 13  1  0
 14 16  1  0
 14 15  1  1
 16 18  1  0
 16 17  1  6
 17 10  1  0
 18 27  1  0
 19 18  2  0
 21 22  2  0
 21 20  1  0
 23 22  1  0
 24 23  2  0
 25 24  1  0
 26 25  1  6
 27 26  1  0
 28 26  1  0
 28 32  1  0
 29 28  2  0
 30 24  1  0
 30 31  2  0
 31 21  1  0
M  END
$$$$
