RIY.pdb
     RDKit          3D

 32 32  0  0  1  0  0  0  0  0999 V2000
    9.0127  -12.7050   18.1817 N   0  0  0  0  0  0  0  0  0  0  0  0
    8.4728  -13.4909   17.1302 C   0  0  0  0  0  0  0  0  0  0  0  0
    8.3409  -12.9657   15.9708 N   0  0  0  0  0  0  0  0  0  0  0  0
    8.1012  -14.8338   17.4226 N   0  0  0  0  0  0  0  0  0  0  0  0
    8.6549  -15.4753   18.5920 C   0  0  0  0  0  0  0  0  0  0  0  0
    7.6869  -15.4627   19.7232 C   0  0  0  0  0  0  0  0  0  0  0  0
    7.9752  -16.5691   20.7472 C   0  0  0  0  0  0  0  0  0  0  0  0
    7.2084  -16.1816   21.9747 C   0  0  2  0  0  0  0  0  0  0  0  0
    5.8721  -15.7869   21.5836 N   0  0  0  0  0  0  0  0  0  0  0  0
    7.8882  -15.1702   22.8256 C   0  0  0  0  0  0  0  0  0  0  0  0
    8.7812  -14.4249   22.3370 O   0  0  0  0  0  0  0  0  0  0  0  0
    7.8836  -13.5012   15.2084 C   0  0  0  0  0  0  0  0  0  0  0  0
    5.1692  -12.0090   26.1979 C   0  0  0  0  0  0  0  0  0  0  0  0
    6.1650  -12.5715   25.1941 C   0  0  2  0  0  0  0  0  0  0  0  0
    7.1814  -13.3871   25.9659 C   0  0  0  0  0  0  0  0  0  0  0  0
    7.8480  -12.4727   26.9420 C   0  0  2  0  0  0  0  0  0  0  0  0
    8.1001  -14.1549   25.0964 N   0  0  0  0  0  0  0  0  0  0  0  0
    7.4967  -15.0844   24.1899 C   0  0  0  0  0  0  0  0  0  0  0  0
    9.0649  -14.8992   25.9956 O   0  0  0  0  0  0  0  0  0  0  0  0
    8.9853  -14.7659   27.2453 O   0  0  0  0  0  0  0  0  0  0  0  0
    8.6348  -20.8660   30.9466 C   0  0  0  0  0  0  0  0  0  0  0  0
    8.7122  -20.0928   29.8052 C   0  0  0  0  0  0  0  0  0  0  0  0
    7.6708  -20.0537   28.8988 C   0  0  0  0  0  0  0  0  0  0  0  0
    7.7807  -19.2723   27.7712 C   0  0  0  0  0  0  0  0  0  0  0  0
    8.9174  -18.5368   27.5477 C   0  0  0  0  0  0  0  0  0  0  0  0
    9.0275  -17.7101   26.3394 C   0  0  2  0  0  0  0  0  0  0  0  0
   10.3524  -17.0104   26.2136 N   0  0  0  0  0  0  0  0  0  0  0  0
   10.0724  -15.7565   25.4846 C   0  0  0  0  0  0  0  0  0  0  0  0
   11.2918  -17.8603   25.4538 O   0  0  0  0  0  0  0  0  0  0  0  0
   11.2387  -17.7818   24.1780 C   0  0  0  0  0  0  0  0  0  0  0  0
    9.9634  -18.5750   28.4565 C   0  0  0  0  0  0  0  0  0  0  0  0
    9.8470  -19.3539   29.5755 O   0  0  0  0  0  0  0  0  0  0  0  0
  2  1  1  0
  2  3  2  0
  4  2  1  0
  5  4  1  0
  6  5  1  0
  7  6  1  0
  8  9  1  6
  8  7  1  0
 10  8  1  0
 11 10  2  0
 13 12  1  0
 14 13  1  0
 14 16  1  0
 14 15  1  1
 16 18  1  0
 16 17  1  6
 17 10  1  0
 18 27  1  0
 19 18  2  0
 21 22  2  0
 21 20  1  0
 23 22  1  0
 24 23  2  0
 25 24  1  0
 26 25  1  1
 27 26  1  0
 28 26  1  0
 28 32  1  0
 29 28  2  0
 30 24  1  0
 30 31  2  0
 31 21  1  0
M  END
$$$$
