RIY.pdb
     RDKit          3D

 32 32  0  0  1  0  0  0  0  0999 V2000
    9.0061  -15.3604   14.6307 N   0  0  0  0  0  0  0  0  0  0  0  0
    8.2059  -14.1895   14.6879 C   0  0  0  0  0  0  0  0  0  0  0  0
    7.9659  -13.5512   13.6051 N   0  0  0  0  0  0  0  0  0  0  0  0
    7.7087  -13.7812   15.9580 N   0  0  0  0  0  0  0  0  0  0  0  0
    7.9716  -14.6084   17.1123 C   0  0  0  0  0  0  0  0  0  0  0  0
    6.7936  -14.6551   18.0217 C   0  0  0  0  0  0  0  0  0  0  0  0
    7.0241  -13.8578   19.3128 C   0  0  0  0  0  0  0  0  0  0  0  0
    7.8438  -14.7539   20.1902 C   0  0  2  0  0  0  0  0  0  0  0  0
    7.0809  -15.9499   20.4763 N   0  0  0  0  0  0  0  0  0  0  0  0
    8.3724  -14.0945   21.4128 C   0  0  0  0  0  0  0  0  0  0  0  0
    9.0946  -13.0645   21.3181 O   0  0  0  0  0  0  0  0  0  0  0  0
    7.4838  -12.6328   13.6411 C   0  0  0  0  0  0  0  0  0  0  0  0
    6.6694  -11.9991   26.5618 C   0  0  0  0  0  0  0  0  0  0  0  0
    7.8692  -12.6578   25.8971 C   0  0  2  0  0  0  0  0  0  0  0  0
    7.3544  -13.4759   24.7311 C   0  0  0  0  0  0  0  0  0  0  0  0
    6.3577  -14.4514   25.2682 C   0  0  2  0  0  0  0  0  0  0  0  0
    8.4323  -14.0683   23.9084 N   0  0  0  0  0  0  0  0  0  0  0  0
    8.0366  -14.6679   22.6700 C   0  0  0  0  0  0  0  0  0  0  0  0
    9.1355  -15.1074   24.7564 O   0  0  0  0  0  0  0  0  0  0  0  0
    8.4986  -16.1110   25.1724 O   0  0  0  0  0  0  0  0  0  0  0  0
   10.4770  -14.8030   31.8228 C   0  0  0  0  0  0  0  0  0  0  0  0
   10.4049  -15.3177   30.5435 C   0  0  0  0  0  0  0  0  0  0  0  0
   10.6523  -16.6541   30.2979 C   0  0  0  0  0  0  0  0  0  0  0  0
   10.5717  -17.1344   29.0106 C   0  0  0  0  0  0  0  0  0  0  0  0
   10.2482  -16.2917   27.9771 C   0  0  0  0  0  0  0  0  0  0  0  0
   10.1695  -16.8123   26.6066 C   0  0  2  0  0  0  0  0  0  0  0  0
   11.1718  -16.1911   25.6737 N   0  0  0  0  0  0  0  0  0  0  0  0
   10.5048  -15.0001   25.1092 C   0  0  0  0  0  0  0  0  0  0  0  0
   11.5192  -17.1526   24.6075 O   0  0  0  0  0  0  0  0  0  0  0  0
   10.8703  -17.0559   23.5092 C   0  0  0  0  0  0  0  0  0  0  0  0
    9.9995  -14.9502   28.2221 C   0  0  0  0  0  0  0  0  0  0  0  0
   10.0812  -14.4797   29.5045 O   0  0  0  0  0  0  0  0  0  0  0  0
  2  1  1  0
  2  3  2  0
  4  2  1  0
  5  4  1  0
  6  5  1  0
  7  6  1  0
  8  9  1  1
  8  7  1  0
 10  8  1  0
 11 10  2  0
 13 12  1  0
 14 13  1  0
 14 16  1  0
 14 15  1  6
 16 18  1  0
 16 17  1  1
 17 10  1  0
 18 27  1  0
 19 18  2  0
 21 22  2  0
 21 20  1  0
 23 22  1  0
 24 23  2  0
 25 24  1  0
 26 25  1  1
 27 26  1  0
 28 26  1  0
 28 32  1  0
 29 28  2  0
 30 24  1  0
 30 31  2  0
 31 21  1  0
M  END
$$$$
