RIY.pdb
     RDKit          3D

 32 32  0  0  1  0  0  0  0  0999 V2000
    9.2520  -20.0946   17.3915 N   0  0  0  0  0  0  0  0  0  0  0  0
    8.0259  -19.7491   16.7655 C   0  0  0  0  0  0  0  0  0  0  0  0
    7.6223  -20.4449   15.7703 N   0  0  0  0  0  0  0  0  0  0  0  0
    7.3029  -18.6359   17.2804 N   0  0  0  0  0  0  0  0  0  0  0  0
    7.9793  -17.7033   18.1512 C   0  0  0  0  0  0  0  0  0  0  0  0
    7.0424  -16.6641   18.6603 C   0  0  0  0  0  0  0  0  0  0  0  0
    7.7520  -15.6177   19.5304 C   0  0  0  0  0  0  0  0  0  0  0  0
    7.7476  -16.1868   20.9164 C   0  0  2  0  0  0  0  0  0  0  0  0
    6.3769  -16.4109   21.3232 N   0  0  0  0  0  0  0  0  0  0  0  0
    8.5257  -15.3947   21.9043 C   0  0  0  0  0  0  0  0  0  0  0  0
    9.7326  -15.1051   21.6783 O   0  0  0  0  0  0  0  0  0  0  0  0
    6.7333  -20.2005   15.2937 C   0  0  0  0  0  0  0  0  0  0  0  0
    5.6702  -12.4407   25.8099 C   0  0  0  0  0  0  0  0  0  0  0  0
    6.5520  -12.8474   24.6384 C   0  0  2  0  0  0  0  0  0  0  0  0
    7.6909  -13.6796   25.1903 C   0  0  0  0  0  0  0  0  0  0  0  0
    8.4190  -12.8424   26.1915 C   0  0  2  0  0  0  0  0  0  0  0  0
    8.5404  -14.2822   24.1392 N   0  0  0  0  0  0  0  0  0  0  0  0
    7.8623  -14.9886   23.0948 C   0  0  0  0  0  0  0  0  0  0  0  0
    9.5116  -15.2234   24.8206 O   0  0  0  0  0  0  0  0  0  0  0  0
    9.1093  -16.3393   25.2435 O   0  0  0  0  0  0  0  0  0  0  0  0
   10.7820  -15.2053   32.0507 C   0  0  0  0  0  0  0  0  0  0  0  0
   10.7745  -15.5747   30.7203 C   0  0  0  0  0  0  0  0  0  0  0  0
   10.9928  -16.8854   30.3432 C   0  0  0  0  0  0  0  0  0  0  0  0
   10.9785  -17.2194   29.0082 C   0  0  0  0  0  0  0  0  0  0  0  0
   10.7494  -16.2573   28.0570 C   0  0  0  0  0  0  0  0  0  0  0  0
   10.7409  -16.6224   26.6350 C   0  0  2  0  0  0  0  0  0  0  0  0
   11.7090  -15.8229   25.8077 N   0  0  0  0  0  0  0  0  0  0  0  0
   10.8796  -14.8994   25.0069 C   0  0  0  0  0  0  0  0  0  0  0  0
   12.4795  -16.7293   24.9321 O   0  0  0  0  0  0  0  0  0  0  0  0
   12.2912  -16.6129   23.6721 C   0  0  0  0  0  0  0  0  0  0  0  0
   10.5301  -14.9414   28.4339 C   0  0  0  0  0  0  0  0  0  0  0  0
   10.5455  -14.6167   29.7631 O   0  0  0  0  0  0  0  0  0  0  0  0
  2  1  1  0
  2  3  2  0
  4  2  1  0
  5  4  1  0
  6  5  1  0
  7  6  1  0
  8  9  1  1
  8  7  1  0
 10  8  1  0
 11 10  2  0
 13 12  1  0
 14 13  1  0
 14 16  1  0
 14 15  1  1
 16 18  1  0
 16 17  1  6
 17 10  1  0
 18 27  1  0
 19 18  2  0
 21 22  2  0
 21 20  1  0
 23 22  1  0
 24 23  2  0
 25 24  1  0
 26 25  1  1
 27 26  1  0
 28 26  1  0
 28 32  1  0
 29 28  2  0
 30 24  1  0
 30 31  2  0
 31 21  1  0
M  END
$$$$
