RIY.pdb
     RDKit          3D

 32 32  0  0  1  0  0  0  0  0999 V2000
    8.0708  -18.5540   16.8633 N   0  0  0  0  0  0  0  0  0  0  0  0
    9.3648  -18.6621   17.4367 C   0  0  0  0  0  0  0  0  0  0  0  0
   10.3831  -18.3482   16.7282 N   0  0  0  0  0  0  0  0  0  0  0  0
    9.4639  -19.1196   18.7813 N   0  0  0  0  0  0  0  0  0  0  0  0
    8.2617  -19.5141   19.4777 C   0  0  0  0  0  0  0  0  0  0  0  0
    7.5077  -18.3270   19.9667 C   0  0  0  0  0  0  0  0  0  0  0  0
    7.6757  -18.1136   21.4773 C   0  0  0  0  0  0  0  0  0  0  0  0
    6.7614  -16.9773   21.8204 C   0  0  2  0  0  0  0  0  0  0  0  0
    5.8730  -16.7408   20.7027 N   0  0  0  0  0  0  0  0  0  0  0  0
    7.4602  -15.7481   22.2784 C   0  0  0  0  0  0  0  0  0  0  0  0
    8.2951  -15.1738   21.5270 O   0  0  0  0  0  0  0  0  0  0  0  0
   11.3390  -18.4597   17.1169 C   0  0  0  0  0  0  0  0  0  0  0  0
    6.8296  -11.5011   26.7466 C   0  0  0  0  0  0  0  0  0  0  0  0
    7.7227  -12.1382   25.6921 C   0  0  2  0  0  0  0  0  0  0  0  0
    7.0085  -13.3675   25.1698 C   0  0  0  0  0  0  0  0  0  0  0  0
    6.6361  -14.2088   26.3475 C   0  0  2  0  0  0  0  0  0  0  0  0
    7.7565  -14.0730   24.1056 N   0  0  0  0  0  0  0  0  0  0  0  0
    7.1536  -15.2596   23.5782 C   0  0  0  0  0  0  0  0  0  0  0  0
    9.1226  -14.4190   24.6600 O   0  0  0  0  0  0  0  0  0  0  0  0
    9.8837  -13.5018   25.0666 O   0  0  0  0  0  0  0  0  0  0  0  0
   10.4925  -14.6827   31.4259 C   0  0  0  0  0  0  0  0  0  0  0  0
   10.5819  -15.2313   30.1619 C   0  0  0  0  0  0  0  0  0  0  0  0
   10.5404  -14.4345   29.0345 C   0  0  0  0  0  0  0  0  0  0  0  0
   10.6323  -15.0139   27.7895 C   0  0  0  0  0  0  0  0  0  0  0  0
   10.7638  -16.3744   27.6679 C   0  0  0  0  0  0  0  0  0  0  0  0
   10.8561  -16.9837   26.3354 C   0  0  2  0  0  0  0  0  0  0  0  0
   10.9714  -15.9763   25.2251 N   0  0  0  0  0  0  0  0  0  0  0  0
    9.5922  -15.7545   24.7447 C   0  0  0  0  0  0  0  0  0  0  0  0
   11.8211  -16.5217   24.1469 O   0  0  0  0  0  0  0  0  0  0  0  0
   13.0656  -16.6623   24.4079 C   0  0  0  0  0  0  0  0  0  0  0  0
   10.8057  -17.1754   28.7985 C   0  0  0  0  0  0  0  0  0  0  0  0
   10.7141  -16.5924   30.0331 O   0  0  0  0  0  0  0  0  0  0  0  0
  2  1  1  0
  2  3  2  0
  4  2  1  0
  5  4  1  0
  6  5  1  0
  7  6  1  0
  8  9  1  6
  8  7  1  0
 10  8  1  0
 11 10  2  0
 13 12  1  0
 14 13  1  0
 14 16  1  0
 14 15  1  6
 16 18  1  0
 16 17  1  1
 17 10  1  0
 18 27  1  0
 19 18  2  0
 21 22  2  0
 21 20  1  0
 23 22  1  0
 24 23  2  0
 25 24  1  0
 26 25  1  1
 27 26  1  0
 28 26  1  0
 28 32  1  0
 29 28  2  0
 30 24  1  0
 30 31  2  0
 31 21  1  0
M  END
$$$$
