RIY.pdb
     RDKit          3D

 32 32  0  0  1  0  0  0  0  0999 V2000
   10.5101  -19.7973   14.4002 N   0  0  0  0  0  0  0  0  0  0  0  0
   11.5308  -18.9004   13.9899 C   0  0  0  0  0  0  0  0  0  0  0  0
   12.2903  -19.2323   13.0149 N   0  0  0  0  0  0  0  0  0  0  0  0
   11.6591  -17.6680   14.6911 N   0  0  0  0  0  0  0  0  0  0  0  0
   10.7452  -17.3778   15.7710 C   0  0  0  0  0  0  0  0  0  0  0  0
   10.7806  -18.4449   16.8088 C   0  0  0  0  0  0  0  0  0  0  0  0
   11.5388  -18.0054   18.0688 C   0  0  0  0  0  0  0  0  0  0  0  0
   10.5181  -18.0075   19.1656 C   0  0  2  0  0  0  0  0  0  0  0  0
    9.2471  -18.4306   18.6180 N   0  0  0  0  0  0  0  0  0  0  0  0
   10.4301  -16.7302   19.9205 C   0  0  0  0  0  0  0  0  0  0  0  0
   11.4605  -16.0244   20.0984 O   0  0  0  0  0  0  0  0  0  0  0  0
   13.1129  -18.6463   12.7761 C   0  0  0  0  0  0  0  0  0  0  0  0
    6.6026  -12.8315   19.4533 C   0  0  0  0  0  0  0  0  0  0  0  0
    7.9057  -13.5919   19.6511 C   0  0  2  0  0  0  0  0  0  0  0  0
    7.8014  -14.3457   20.9606 C   0  0  0  0  0  0  0  0  0  0  0  0
    7.4542  -13.3564   22.0256 C   0  0  2  0  0  0  0  0  0  0  0  0
    8.9828  -15.1891   21.2481 N   0  0  0  0  0  0  0  0  0  0  0  0
    9.1572  -16.3484   20.4264 C   0  0  0  0  0  0  0  0  0  0  0  0
    8.8941  -15.6208   22.6969 O   0  0  0  0  0  0  0  0  0  0  0  0
    8.1201  -16.5587   23.0242 O   0  0  0  0  0  0  0  0  0  0  0  0
   10.3135  -15.9985   31.3819 C   0  0  0  0  0  0  0  0  0  0  0  0
   10.3538  -15.6996   30.0345 C   0  0  0  0  0  0  0  0  0  0  0  0
   10.7071  -16.6557   29.1025 C   0  0  0  0  0  0  0  0  0  0  0  0
   10.7371  -16.3241   27.7671 C   0  0  0  0  0  0  0  0  0  0  0  0
   10.4187  -15.0519   27.3631 C   0  0  0  0  0  0  0  0  0  0  0  0
   10.4583  -14.7064   25.9368 C   0  0  1  0  0  0  0  0  0  0  0  0
    9.4773  -15.4865   25.1062 N   0  0  0  0  0  0  0  0  0  0  0  0
    9.6584  -15.0059   23.7211 C   0  0  0  0  0  0  0  0  0  0  0  0
    8.1038  -15.2185   25.5790 O   0  0  0  0  0  0  0  0  0  0  0  0
    7.5592  -14.1303   25.1841 C   0  0  0  0  0  0  0  0  0  0  0  0
   10.0638  -14.0912   28.2974 C   0  0  0  0  0  0  0  0  0  0  0  0
   10.0359  -14.4281   29.6233 O   0  0  0  0  0  0  0  0  0  0  0  0
  2  1  1  0
  2  3  2  0
  4  2  1  0
  5  4  1  0
  6  5  1  0
  7  6  1  0
  8  9  1  6
  8  7  1  0
 10  8  1  0
 11 10  2  0
 13 12  1  0
 14 13  1  0
 14 16  1  0
 14 15  1  6
 16 18  1  0
 16 17  1  1
 17 10  1  0
 18 27  1  0
 19 18  2  0
 21 22  2  0
 21 20  1  0
 23 22  1  0
 24 23  2  0
 25 24  1  0
 26 25  1  6
 27 26  1  0
 28 26  1  0
 28 32  1  0
 29 28  2  0
 30 24  1  0
 30 31  2  0
 31 21  1  0
M  END
$$$$
