HGF.pdb
     RDKit          3D

 26 27  0  0  1  0  0  0  0  0999 V2000
    8.2517  -15.4351   22.4926 N   0  0  0  0  0  0  0  0  0  0  0  0
    8.8674  -16.4422   21.6487 C   0  0  1  0  0  0  0  0  0  0  0  0
    9.3514  -15.8407   20.3460 C   0  0  0  0  0  0  0  0  0  0  0  0
    8.4974  -14.7058   19.9939 C   0  0  0  0  0  0  0  0  0  0  0  0
    7.2879  -14.7431   19.3503 C   0  0  0  0  0  0  0  0  0  0  0  0
    6.8854  -13.4480   19.2552 N   0  0  0  0  0  0  0  0  0  0  0  0
    7.8192  -12.6644   19.8205 C   0  0  0  0  0  0  0  0  0  0  0  0
    8.8333  -13.4176   20.2889 N   0  0  0  0  0  0  0  0  0  0  0  0
   10.0950  -16.9140   22.3504 C   0  0  0  0  0  0  0  0  0  0  0  0
   10.8502  -17.6968   21.7187 O   0  0  0  0  0  0  0  0  0  0  0  0
   10.4046  -16.5031   23.6712 N   0  0  0  0  0  0  0  0  0  0  0  0
   11.5512  -17.0259   24.3379 C   0  0  0  0  0  0  0  0  0  0  0  0
   11.6276  -16.5696   25.7662 C   0  0  0  0  0  0  0  0  0  0  0  0
   12.6311  -16.8298   26.4840 O   0  0  0  0  0  0  0  0  0  0  0  0
   10.5730  -15.8280   26.3598 N   0  0  0  0  0  0  0  0  0  0  0  0
   10.5767  -15.3393   27.6991 C   0  0  1  0  0  0  0  0  0  0  0  0
   10.1575  -13.8839   27.7954 C   0  0  0  0  0  0  0  0  0  0  0  0
    8.9388  -13.6232   27.0059 C   0  0  0  0  0  0  0  0  0  0  0  0
    8.9098  -13.6255   25.6350 C   0  0  0  0  0  0  0  0  0  0  0  0
    7.7326  -13.3769   24.9464 C   0  0  0  0  0  0  0  0  0  0  0  0
    6.5667  -13.1222   25.6325 C   0  0  0  0  0  0  0  0  0  0  0  0
    6.5779  -13.1159   27.0077 C   0  0  0  0  0  0  0  0  0  0  0  0
    7.7629  -13.3663   27.6731 C   0  0  0  0  0  0  0  0  0  0  0  0
    9.8113  -16.1909   28.6376 C   0  0  0  0  0  0  0  0  0  0  0  0
    9.0514  -17.2661   28.1663 O   0  0  0  0  0  0  0  0  0  0  0  0
    9.8024  -15.9989   29.8785 O   0  0  0  0  0  0  0  0  0  0  0  0
  2  9  1  0
  2  1  1  1
  3  2  1  0
  4  8  1  0
  4  3  1  0
  5  4  2  0
  6  5  1  0
  6  7  1  0
  7  8  2  0
  9 11  1  0
 10  9  2  0
 11 12  1  0
 13 12  1  0
 13 14  2  0
 15 13  1  0
 16 15  1  0
 16 24  1  0
 16 17  1  6
 18 23  1  0
 18 17  1  0
 19 18  2  0
 20 21  2  0
 20 19  1  0
 21 22  1  0
 22 23  2  0
 24 26  2  0
 24 25  1  0
M  END
$$$$
