HGF.pdb
     RDKit          3D

 26 27  0  0  1  0  0  0  0  0999 V2000
   10.2081  -20.1452   17.9027 N   0  0  0  0  0  0  0  0  0  0  0  0
   10.9174  -19.1529   18.6887 C   0  0  1  0  0  0  0  0  0  0  0  0
   11.5415  -18.0974   17.8001 C   0  0  0  0  0  0  0  0  0  0  0  0
   12.8700  -18.5457   17.3814 C   0  0  0  0  0  0  0  0  0  0  0  0
   13.2062  -19.1682   16.2074 C   0  0  0  0  0  0  0  0  0  0  0  0
   14.5469  -19.3815   16.2788 N   0  0  0  0  0  0  0  0  0  0  0  0
   14.9967  -18.9049   17.4519 C   0  0  0  0  0  0  0  0  0  0  0  0
   13.9777  -18.3791   18.1590 N   0  0  0  0  0  0  0  0  0  0  0  0
    9.9022  -18.4337   19.5096 C   0  0  0  0  0  0  0  0  0  0  0  0
    8.6992  -18.5464   19.1597 O   0  0  0  0  0  0  0  0  0  0  0  0
   10.2681  -17.6553   20.6362 N   0  0  0  0  0  0  0  0  0  0  0  0
    9.2953  -17.3094   21.6192 C   0  0  0  0  0  0  0  0  0  0  0  0
    9.8958  -16.5329   22.7553 C   0  0  0  0  0  0  0  0  0  0  0  0
   10.7001  -17.0712   23.5636 O   0  0  0  0  0  0  0  0  0  0  0  0
    9.5801  -15.1643   22.9600 N   0  0  0  0  0  0  0  0  0  0  0  0
    9.0501  -14.6244   24.1684 C   0  0  1  0  0  0  0  0  0  0  0  0
    7.6908  -13.9774   23.9771 C   0  0  0  0  0  0  0  0  0  0  0  0
    7.3362  -13.1237   25.1269 C   0  0  0  0  0  0  0  0  0  0  0  0
    8.0747  -12.0371   25.5194 C   0  0  0  0  0  0  0  0  0  0  0  0
    7.6898  -11.2687   26.6073 C   0  0  0  0  0  0  0  0  0  0  0  0
    6.5528  -11.5867   27.3151 C   0  0  0  0  0  0  0  0  0  0  0  0
    5.8005  -12.6734   26.9352 C   0  0  0  0  0  0  0  0  0  0  0  0
    6.2033  -13.4249   25.8476 C   0  0  0  0  0  0  0  0  0  0  0  0
    9.0414  -15.5910   25.2897 C   0  0  0  0  0  0  0  0  0  0  0  0
    8.2250  -16.7256   25.2463 O   0  0  0  0  0  0  0  0  0  0  0  0
    9.7495  -15.4484   26.3169 O   0  0  0  0  0  0  0  0  0  0  0  0
  2  9  1  0
  2  1  1  6
  3  2  1  0
  4  8  1  0
  4  3  1  0
  5  4  2  0
  6  5  1  0
  6  7  1  0
  7  8  2  0
  9 11  1  0
 10  9  2  0
 11 12  1  0
 13 12  1  0
 13 14  2  0
 15 13  1  0
 16 15  1  0
 16 24  1  0
 16 17  1  6
 18 23  1  0
 18 17  1  0
 19 18  2  0
 20 21  2  0
 20 19  1  0
 21 22  1  0
 22 23  2  0
 24 26  2  0
 24 25  1  0
M  END
$$$$
