HGF.pdb
     RDKit          3D

 26 27  0  0  1  0  0  0  0  0999 V2000
    7.9821  -12.9572   21.4883 N   0  0  0  0  0  0  0  0  0  0  0  0
    6.9459  -13.9615   21.6408 C   0  0  1  0  0  0  0  0  0  0  0  0
    6.3901  -14.3804   20.2960 C   0  0  0  0  0  0  0  0  0  0  0  0
    7.3625  -14.0560   19.2517 C   0  0  0  0  0  0  0  0  0  0  0  0
    7.7352  -12.8095   18.8205 C   0  0  0  0  0  0  0  0  0  0  0  0
    8.6598  -13.0219   17.8467 N   0  0  0  0  0  0  0  0  0  0  0  0
    8.8339  -14.3463   17.7001 C   0  0  0  0  0  0  0  0  0  0  0  0
    8.0412  -15.0151   18.5598 N   0  0  0  0  0  0  0  0  0  0  0  0
    7.5941  -15.1809   22.2019 C   0  0  0  0  0  0  0  0  0  0  0  0
    6.8402  -16.1402   22.5082 O   0  0  0  0  0  0  0  0  0  0  0  0
    8.9972  -15.2638   22.3850 N   0  0  0  0  0  0  0  0  0  0  0  0
    9.5777  -16.4171   22.9893 C   0  0  0  0  0  0  0  0  0  0  0  0
   10.0338  -16.1463   24.3939 C   0  0  0  0  0  0  0  0  0  0  0  0
   11.2009  -15.7346   24.6355 O   0  0  0  0  0  0  0  0  0  0  0  0
    9.1672  -16.3433   25.5006 N   0  0  0  0  0  0  0  0  0  0  0  0
    9.5224  -16.1133   26.8620 C   0  0  1  0  0  0  0  0  0  0  0  0
    8.3846  -15.5243   27.6753 C   0  0  0  0  0  0  0  0  0  0  0  0
    7.9199  -14.2471   27.1016 C   0  0  0  0  0  0  0  0  0  0  0  0
    8.7486  -13.1840   26.8501 C   0  0  0  0  0  0  0  0  0  0  0  0
    8.2550  -12.0084   26.3057 C   0  0  0  0  0  0  0  0  0  0  0  0
    6.9165  -11.8891   26.0072 C   0  0  0  0  0  0  0  0  0  0  0  0
    6.0711  -12.9457   26.2532 C   0  0  0  0  0  0  0  0  0  0  0  0
    6.5853  -14.1078   26.7963 C   0  0  0  0  0  0  0  0  0  0  0  0
   10.1096  -17.2999   27.5246 C   0  0  0  0  0  0  0  0  0  0  0  0
   10.7257  -17.1860   28.7749 O   0  0  0  0  0  0  0  0  0  0  0  0
   10.0874  -18.4462   27.0126 O   0  0  0  0  0  0  0  0  0  0  0  0
  2  9  1  0
  2  1  1  6
  3  2  1  0
  4  8  1  0
  4  3  1  0
  5  4  2  0
  6  5  1  0
  6  7  1  0
  7  8  2  0
  9 11  1  0
 10  9  2  0
 11 12  1  0
 13 12  1  0
 13 14  2  0
 15 13  1  0
 16 15  1  0
 16 24  1  0
 16 17  1  1
 18 23  1  0
 18 17  1  0
 19 18  2  0
 20 21  2  0
 20 19  1  0
 21 22  1  0
 22 23  2  0
 24 26  2  0
 24 25  1  0
M  END
$$$$
