HGF.pdb
     RDKit          3D

 26 27  0  0  1  0  0  0  0  0999 V2000
    9.2282  -16.1998   18.9671 N   0  0  0  0  0  0  0  0  0  0  0  0
    8.4457  -15.1549   19.6008 C   0  0  1  0  0  0  0  0  0  0  0  0
    7.2189  -14.8181   18.7796 C   0  0  0  0  0  0  0  0  0  0  0  0
    7.6393  -14.3125   17.4724 C   0  0  0  0  0  0  0  0  0  0  0  0
    8.2318  -13.1074   17.1980 C   0  0  0  0  0  0  0  0  0  0  0  0
    8.4335  -13.0980   15.8536 N   0  0  0  0  0  0  0  0  0  0  0  0
    7.9783  -14.2542   15.3420 C   0  0  0  0  0  0  0  0  0  0  0  0
    7.4789  -15.0297   16.3238 N   0  0  0  0  0  0  0  0  0  0  0  0
    7.9272  -15.7099   20.8834 C   0  0  0  0  0  0  0  0  0  0  0  0
    6.8657  -16.3825   20.8283 O   0  0  0  0  0  0  0  0  0  0  0  0
    8.5950  -15.4937   22.1148 N   0  0  0  0  0  0  0  0  0  0  0  0
    8.0864  -16.0619   23.3193 C   0  0  0  0  0  0  0  0  0  0  0  0
    8.9652  -15.7592   24.4983 C   0  0  0  0  0  0  0  0  0  0  0  0
   10.1297  -15.2998   24.3464 O   0  0  0  0  0  0  0  0  0  0  0  0
    8.5166  -15.9788   25.8269 N   0  0  0  0  0  0  0  0  0  0  0  0
    9.2608  -15.6572   26.9996 C   0  0  1  0  0  0  0  0  0  0  0  0
    8.4788  -14.7969   27.9750 C   0  0  0  0  0  0  0  0  0  0  0  0
    7.7990  -13.6847   27.2841 C   0  0  0  0  0  0  0  0  0  0  0  0
    6.5513  -13.7900   26.7253 C   0  0  0  0  0  0  0  0  0  0  0  0
    5.9605  -12.7082   26.0909 C   0  0  0  0  0  0  0  0  0  0  0  0
    6.6215  -11.5033   26.0115 C   0  0  0  0  0  0  0  0  0  0  0  0
    7.8737  -11.3802   26.5666 C   0  0  0  0  0  0  0  0  0  0  0  0
    8.4431  -12.4719   27.1939 C   0  0  0  0  0  0  0  0  0  0  0  0
    9.8481  -16.8415   27.6661 C   0  0  0  0  0  0  0  0  0  0  0  0
   10.8446  -16.6924   28.6360 O   0  0  0  0  0  0  0  0  0  0  0  0
    9.4925  -18.0167   27.4033 O   0  0  0  0  0  0  0  0  0  0  0  0
  2  9  1  0
  2  1  1  6
  3  2  1  0
  4  8  1  0
  4  3  1  0
  5  4  2  0
  6  5  1  0
  6  7  1  0
  7  8  2  0
  9 11  1  0
 10  9  2  0
 11 12  1  0
 13 12  1  0
 13 14  2  0
 15 13  1  0
 16 15  1  0
 16 24  1  0
 16 17  1  1
 18 23  1  0
 18 17  1  0
 19 18  2  0
 20 21  2  0
 20 19  1  0
 21 22  1  0
 22 23  2  0
 24 26  2  0
 24 25  1  0
M  END
$$$$
