HGF.pdb
     RDKit          3D

 26 27  0  0  1  0  0  0  0  0999 V2000
    8.0253  -16.9023   19.9274 N   0  0  0  0  0  0  0  0  0  0  0  0
    8.2590  -15.7138   20.7264 C   0  0  1  0  0  0  0  0  0  0  0  0
    7.2654  -14.6231   20.3853 C   0  0  0  0  0  0  0  0  0  0  0  0
    7.5705  -14.0934   19.0558 C   0  0  0  0  0  0  0  0  0  0  0  0
    8.2813  -12.9609   18.7546 C   0  0  0  0  0  0  0  0  0  0  0  0
    8.2982  -12.8912   17.3970 N   0  0  0  0  0  0  0  0  0  0  0  0
    7.6223  -13.9427   16.9037 C   0  0  0  0  0  0  0  0  0  0  0  0
    7.1583  -14.7081   17.9105 N   0  0  0  0  0  0  0  0  0  0  0  0
    7.9821  -16.0760   22.1455 C   0  0  0  0  0  0  0  0  0  0  0  0
    6.7849  -16.0199   22.5273 O   0  0  0  0  0  0  0  0  0  0  0  0
    9.0166  -16.4674   23.0319 N   0  0  0  0  0  0  0  0  0  0  0  0
    8.7206  -16.7807   24.3907 C   0  0  0  0  0  0  0  0  0  0  0  0
    9.5289  -15.9526   25.3473 C   0  0  0  0  0  0  0  0  0  0  0  0
   10.4658  -15.2122   24.9425 O   0  0  0  0  0  0  0  0  0  0  0  0
    9.2668  -15.9729   26.7421 N   0  0  0  0  0  0  0  0  0  0  0  0
   10.0470  -15.2969   27.7256 C   0  0  1  0  0  0  0  0  0  0  0  0
    9.2257  -14.3449   28.5754 C   0  0  0  0  0  0  0  0  0  0  0  0
    8.3073  -13.5415   27.7462 C   0  0  0  0  0  0  0  0  0  0  0  0
    7.0651  -13.9726   27.3574 C   0  0  0  0  0  0  0  0  0  0  0  0
    6.2433  -13.1711   26.5800 C   0  0  0  0  0  0  0  0  0  0  0  0
    6.6642  -11.9218   26.1838 C   0  0  0  0  0  0  0  0  0  0  0  0
    7.9074  -11.4738   26.5648 C   0  0  0  0  0  0  0  0  0  0  0  0
    8.7095  -12.2898   27.3397 C   0  0  0  0  0  0  0  0  0  0  0  0
   10.8602  -16.2102   28.5601 C   0  0  0  0  0  0  0  0  0  0  0  0
   10.7417  -17.5968   28.4224 O   0  0  0  0  0  0  0  0  0  0  0  0
   11.6812  -15.7996   29.4169 O   0  0  0  0  0  0  0  0  0  0  0  0
  2  9  1  0
  2  1  1  6
  3  2  1  0
  4  8  1  0
  4  3  1  0
  5  4  2  0
  6  5  1  0
  6  7  1  0
  7  8  2  0
  9 11  1  0
 10  9  2  0
 11 12  1  0
 13 12  1  0
 13 14  2  0
 15 13  1  0
 16 15  1  0
 16 24  1  0
 16 17  1  1
 18 23  1  0
 18 17  1  0
 19 18  2  0
 20 21  2  0
 20 19  1  0
 21 22  1  0
 22 23  2  0
 24 26  2  0
 24 25  1  0
M  END
$$$$
