HGF.pdb
     RDKit          3D

 26 27  0  0  1  0  0  0  0  0999 V2000
    9.6418  -15.6383   19.3364 N   0  0  0  0  0  0  0  0  0  0  0  0
    8.7459  -14.7254   20.0216 C   0  0  1  0  0  0  0  0  0  0  0  0
    7.3600  -14.7615   19.4127 C   0  0  0  0  0  0  0  0  0  0  0  0
    7.4437  -14.3757   18.0037 C   0  0  0  0  0  0  0  0  0  0  0  0
    6.8447  -14.9913   16.9357 C   0  0  0  0  0  0  0  0  0  0  0  0
    7.2141  -14.2695   15.8445 N   0  0  0  0  0  0  0  0  0  0  0  0
    8.0051  -13.2594   16.2442 C   0  0  0  0  0  0  0  0  0  0  0  0
    8.1660  -13.2991   17.5811 N   0  0  0  0  0  0  0  0  0  0  0  0
    8.5830  -15.2311   21.4143 C   0  0  0  0  0  0  0  0  0  0  0  0
    7.7489  -14.6371   22.1449 O   0  0  0  0  0  0  0  0  0  0  0  0
    9.3310  -16.3321   21.9014 N   0  0  0  0  0  0  0  0  0  0  0  0
   10.4483  -16.1199   22.7611 C   0  0  0  0  0  0  0  0  0  0  0  0
   10.0499  -16.1108   24.2086 C   0  0  0  0  0  0  0  0  0  0  0  0
   10.8642  -15.7718   25.1097 O   0  0  0  0  0  0  0  0  0  0  0  0
    8.7418  -16.4827   24.6148 N   0  0  0  0  0  0  0  0  0  0  0  0
    8.2974  -16.5430   25.9681 C   0  0  1  0  0  0  0  0  0  0  0  0
    6.9530  -15.8704   26.1762 C   0  0  0  0  0  0  0  0  0  0  0  0
    7.0653  -14.4030   26.0731 C   0  0  0  0  0  0  0  0  0  0  0  0
    7.4463  -13.5977   27.1154 C   0  0  0  0  0  0  0  0  0  0  0  0
    7.5378  -12.2233   26.9581 C   0  0  0  0  0  0  0  0  0  0  0  0
    7.2457  -11.6418   25.7450 C   0  0  0  0  0  0  0  0  0  0  0  0
    6.8618  -12.4348   24.6890 C   0  0  0  0  0  0  0  0  0  0  0  0
    6.7775  -13.8024   24.8689 C   0  0  0  0  0  0  0  0  0  0  0  0
    8.3160  -17.9115   26.5324 C   0  0  0  0  0  0  0  0  0  0  0  0
    8.6332  -19.0101   25.7273 O   0  0  0  0  0  0  0  0  0  0  0  0
    8.0540  -18.1552   27.7361 O   0  0  0  0  0  0  0  0  0  0  0  0
  2  9  1  0
  2  1  1  6
  3  2  1  0
  4  8  1  0
  4  3  1  0
  5  4  2  0
  6  5  1  0
  6  7  1  0
  7  8  2  0
  9 11  1  0
 10  9  2  0
 11 12  1  0
 13 12  1  0
 13 14  2  0
 15 13  1  0
 16 15  1  0
 16 24  1  0
 16 17  1  6
 18 23  1  0
 18 17  1  0
 19 18  2  0
 20 21  2  0
 20 19  1  0
 21 22  1  0
 22 23  2  0
 24 26  2  0
 24 25  1  0
M  END
$$$$
