HGF.pdb
     RDKit          3D

 26 27  0  0  1  0  0  0  0  0999 V2000
    7.8358  -18.4292   17.0692 N   0  0  0  0  0  0  0  0  0  0  0  0
    8.8832  -17.5608   17.5735 C   0  0  1  0  0  0  0  0  0  0  0  0
    8.5453  -16.1039   17.3361 C   0  0  0  0  0  0  0  0  0  0  0  0
    8.6311  -15.8178   15.9036 C   0  0  0  0  0  0  0  0  0  0  0  0
    9.7611  -15.7816   15.1288 C   0  0  0  0  0  0  0  0  0  0  0  0
    9.3335  -15.4794   13.8742 N   0  0  0  0  0  0  0  0  0  0  0  0
    7.9972  -15.3395   13.8970 C   0  0  0  0  0  0  0  0  0  0  0  0
    7.5318  -15.5441   15.1446 N   0  0  0  0  0  0  0  0  0  0  0  0
    8.9170  -17.7262   19.0545 C   0  0  0  0  0  0  0  0  0  0  0  0
    7.8393  -17.5396   19.6759 O   0  0  0  0  0  0  0  0  0  0  0  0
   10.1068  -18.0781   19.7397 N   0  0  0  0  0  0  0  0  0  0  0  0
   11.1708  -17.1376   19.8649 C   0  0  0  0  0  0  0  0  0  0  0  0
   11.1054  -16.3845   21.1621 C   0  0  0  0  0  0  0  0  0  0  0  0
   12.0868  -15.7110   21.5784 O   0  0  0  0  0  0  0  0  0  0  0  0
    9.9360  -16.4028   21.9663 N   0  0  0  0  0  0  0  0  0  0  0  0
    9.7581  -15.6429   23.1594 C   0  0  1  0  0  0  0  0  0  0  0  0
    8.3852  -15.0025   23.2497 C   0  0  0  0  0  0  0  0  0  0  0  0
    8.0758  -14.2231   22.0359 C   0  0  0  0  0  0  0  0  0  0  0  0
    8.7316  -13.0700   21.6889 C   0  0  0  0  0  0  0  0  0  0  0  0
    8.3993  -12.3811   20.5326 C   0  0  0  0  0  0  0  0  0  0  0  0
    7.3993  -12.8470   19.7093 C   0  0  0  0  0  0  0  0  0  0  0  0
    6.7312  -14.0021   20.0423 C   0  0  0  0  0  0  0  0  0  0  0  0
    7.0793  -14.6721   21.1998 C   0  0  0  0  0  0  0  0  0  0  0  0
   10.0914  -16.3949   24.3902 C   0  0  0  0  0  0  0  0  0  0  0  0
   10.4161  -17.7539   24.3293 O   0  0  0  0  0  0  0  0  0  0  0  0
   10.1005  -15.8666   25.5293 O   0  0  0  0  0  0  0  0  0  0  0  0
  2  9  1  0
  2  1  1  6
  3  2  1  0
  4  8  1  0
  4  3  1  0
  5  4  2  0
  6  5  1  0
  6  7  1  0
  7  8  2  0
  9 11  1  0
 10  9  2  0
 11 12  1  0
 13 12  1  0
 13 14  2  0
 15 13  1  0
 16 15  1  0
 16 24  1  0
 16 17  1  1
 18 23  1  0
 18 17  1  0
 19 18  2  0
 20 21  2  0
 20 19  1  0
 21 22  1  0
 22 23  2  0
 24 26  2  0
 24 25  1  0
M  END
$$$$
