HGF.pdb
     RDKit          3D

 26 27  0  0  1  0  0  0  0  0999 V2000
   11.5421  -20.2466   19.3953 N   0  0  0  0  0  0  0  0  0  0  0  0
   11.8088  -18.8903   18.9539 C   0  0  1  0  0  0  0  0  0  0  0  0
   11.1929  -18.6276   17.5957 C   0  0  0  0  0  0  0  0  0  0  0  0
   11.9139  -19.4001   16.5834 C   0  0  0  0  0  0  0  0  0  0  0  0
   13.2621  -19.3941   16.3366 C   0  0  0  0  0  0  0  0  0  0  0  0
   13.4493  -20.2692   15.3132 N   0  0  0  0  0  0  0  0  0  0  0  0
   12.2576  -20.7801   14.9602 C   0  0  0  0  0  0  0  0  0  0  0  0
   11.2840  -20.2590   15.7319 N   0  0  0  0  0  0  0  0  0  0  0  0
   11.1039  -17.9745   19.8953 C   0  0  0  0  0  0  0  0  0  0  0  0
   11.4043  -16.7542   19.8393 O   0  0  0  0  0  0  0  0  0  0  0  0
   10.1366  -18.4498   20.8159 N   0  0  0  0  0  0  0  0  0  0  0  0
    9.5525  -17.5643   21.7682 C   0  0  0  0  0  0  0  0  0  0  0  0
   10.3717  -17.4683   23.0228 C   0  0  0  0  0  0  0  0  0  0  0  0
   11.2215  -18.3516   23.3191 O   0  0  0  0  0  0  0  0  0  0  0  0
   10.2195  -16.3793   23.9203 N   0  0  0  0  0  0  0  0  0  0  0  0
   10.9152  -16.2421   25.1571 C   0  0  1  0  0  0  0  0  0  0  0  0
   10.9693  -14.8063   25.6455 C   0  0  0  0  0  0  0  0  0  0  0  0
   10.5376  -14.7013   27.0522 C   0  0  0  0  0  0  0  0  0  0  0  0
    9.2428  -14.4553   27.4306 C   0  0  0  0  0  0  0  0  0  0  0  0
    8.8951  -14.3707   28.7700 C   0  0  0  0  0  0  0  0  0  0  0  0
    9.8506  -14.5336   29.7475 C   0  0  0  0  0  0  0  0  0  0  0  0
   11.1542  -14.7809   29.3856 C   0  0  0  0  0  0  0  0  0  0  0  0
   11.4777  -14.8609   28.0445 C   0  0  0  0  0  0  0  0  0  0  0  0
   10.4258  -17.1590   26.2114 C   0  0  0  0  0  0  0  0  0  0  0  0
    9.0817  -17.5428   26.2545 O   0  0  0  0  0  0  0  0  0  0  0  0
   11.1728  -17.6309   27.1037 O   0  0  0  0  0  0  0  0  0  0  0  0
  2  9  1  0
  2  1  1  1
  3  2  1  0
  4  8  1  0
  4  3  1  0
  5  4  2  0
  6  5  1  0
  6  7  1  0
  7  8  2  0
  9 11  1  0
 10  9  2  0
 11 12  1  0
 13 12  1  0
 13 14  2  0
 15 13  1  0
 16 15  1  0
 16 24  1  0
 16 17  1  1
 18 23  1  0
 18 17  1  0
 19 18  2  0
 20 21  2  0
 20 19  1  0
 21 22  1  0
 22 23  2  0
 24 26  2  0
 24 25  1  0
M  END
$$$$
