KHW.pdb
     RDKit          3D

 34 36  0  0  1  0  0  0  0  0999 V2000
    8.1863  -17.6054   18.8004 N   0  0  0  0  0  0  0  0  0  0  0  0
    9.1867  -16.8631   19.5929 C   0  0  1  0  0  0  0  0  0  0  0  0
    8.8094  -15.4294   19.6983 C   0  0  0  0  0  0  0  0  0  0  0  0
    8.6102  -14.7213   18.4315 C   0  0  0  0  0  0  0  0  0  0  0  0
    8.2719  -13.3005   18.3377 C   0  0  0  0  0  0  0  0  0  0  0  0
    8.0968  -12.6521   17.0120 C   0  0  0  0  0  0  0  0  0  0  0  0
    7.7744  -11.2280   17.3258 N   0  0  0  0  0  0  0  0  0  0  0  0
    9.2179  -17.4840   20.9772 C   0  0  0  0  0  0  0  0  0  0  0  0
    8.1359  -17.8468   21.4898 O   0  0  0  0  0  0  0  0  0  0  0  0
   10.4218  -17.6651   21.7015 N   0  0  0  0  0  0  0  0  0  0  0  0
   10.4791  -18.2835   22.9943 C   0  0  1  0  0  0  0  0  0  0  0  0
   11.2765  -19.5654   23.0010 C   0  0  0  0  0  0  0  0  0  0  0  0
   10.6084  -20.6816   22.2939 C   0  0  0  0  0  0  0  0  0  0  0  0
   10.8998  -20.9584   20.9753 C   0  0  0  0  0  0  0  0  0  0  0  0
   10.1480  -22.0105   20.6136 N   0  0  0  0  0  0  0  0  0  0  0  0
    9.4093  -22.3808   21.6720 C   0  0  0  0  0  0  0  0  0  0  0  0
    9.7048  -21.5570   22.6881 N   0  0  0  0  0  0  0  0  0  0  0  0
   10.9507  -17.3452   24.0544 C   0  0  0  0  0  0  0  0  0  0  0  0
   12.0008  -16.6706   23.9295 O   0  0  0  0  0  0  0  0  0  0  0  0
   10.2395  -17.1529   25.2792 N   0  0  0  0  0  0  0  0  0  0  0  0
   10.6490  -16.3790   26.3871 C   0  0  1  0  0  0  0  0  0  0  0  0
   10.1126  -15.0072   26.5264 C   0  0  0  0  0  0  0  0  0  0  0  0
    8.6603  -14.8599   26.3402 C   0  0  0  0  0  0  0  0  0  0  0  0
    7.6741  -15.8025   26.1537 C   0  0  0  0  0  0  0  0  0  0  0  0
    6.4835  -15.1699   26.0219 N   0  0  0  0  0  0  0  0  0  0  0  0
    6.6565  -13.8398   26.1160 C   0  0  0  0  0  0  0  0  0  0  0  0
    5.8124  -12.7497   26.0561 C   0  0  0  0  0  0  0  0  0  0  0  0
    6.2606  -11.4468   26.1865 C   0  0  0  0  0  0  0  0  0  0  0  0
    7.6245  -11.2629   26.3854 C   0  0  0  0  0  0  0  0  0  0  0  0
    8.4552  -12.3411   26.4441 C   0  0  0  0  0  0  0  0  0  0  0  0
    8.0102  -13.6450   26.3140 C   0  0  0  0  0  0  0  0  0  0  0  0
   10.4803  -17.0655   27.6945 C   0  0  0  0  0  0  0  0  0  0  0  0
    9.8204  -18.1199   27.7427 O   0  0  0  0  0  0  0  0  0  0  0  0
   11.0399  -16.5446   28.8270 O   0  0  0  0  0  0  0  0  0  0  0  0
  2  1  1  6
  3  2  1  0
  4  3  1  0
  5  4  1  0
  6  5  1  0
  6  7  1  0
  8  9  2  0
  8  2  1  0
 10  8  1  0
 11 10  1  0
 11 12  1  6
 12 13  1  0
 13 17  1  0
 13 14  2  0
 14 15  1  0
 16 15  1  0
 17 16  2  0
 18 20  1  0
 18 11  1  0
 19 18  2  0
 21 22  1  1
 21 20  1  0
 22 23  1  0
 23 31  1  0
 24 23  2  0
 24 25  1  0
 25 26  1  0
 26 27  2  0
 27 28  1  0
 29 28  2  0
 30 29  1  0
 31 30  2  0
 31 26  1  0
 32 21  1  0
 32 34  1  0
 33 32  2  0
M  END
$$$$
