KHW.pdb
     RDKit          3D

 34 36  0  0  1  0  0  0  0  0999 V2000
    9.8800  -15.5706   18.0936 N   0  0  0  0  0  0  0  0  0  0  0  0
    9.6630  -14.7202   19.2808 C   0  0  1  0  0  0  0  0  0  0  0  0
    8.4680  -13.8566   19.0928 C   0  0  0  0  0  0  0  0  0  0  0  0
    7.7960  -13.9611   17.7953 C   0  0  0  0  0  0  0  0  0  0  0  0
    8.2374  -13.2559   16.5911 C   0  0  0  0  0  0  0  0  0  0  0  0
    7.4470  -13.3389   15.3354 C   0  0  0  0  0  0  0  0  0  0  0  0
    8.2630  -12.6027   14.3242 N   0  0  0  0  0  0  0  0  0  0  0  0
    9.4421  -15.6439   20.4643 C   0  0  0  0  0  0  0  0  0  0  0  0
    8.3206  -15.6407   21.0187 O   0  0  0  0  0  0  0  0  0  0  0  0
   10.4552  -16.5026   20.9572 N   0  0  0  0  0  0  0  0  0  0  0  0
   10.2747  -17.3687   22.0861 C   0  0  1  0  0  0  0  0  0  0  0  0
   10.8805  -18.7366   21.8838 C   0  0  0  0  0  0  0  0  0  0  0  0
   10.1435  -19.5718   20.9082 C   0  0  0  0  0  0  0  0  0  0  0  0
   10.6128  -19.7378   19.6228 C   0  0  0  0  0  0  0  0  0  0  0  0
    9.7442  -20.5359   18.9815 N   0  0  0  0  0  0  0  0  0  0  0  0
    8.7621  -20.8594   19.8381 C   0  0  0  0  0  0  0  0  0  0  0  0
    9.0240  -20.2609   21.0092 N   0  0  0  0  0  0  0  0  0  0  0  0
   10.7447  -16.7498   23.3599 C   0  0  0  0  0  0  0  0  0  0  0  0
   11.8273  -16.1210   23.4368 O   0  0  0  0  0  0  0  0  0  0  0  0
    9.9949  -16.8318   24.5740 N   0  0  0  0  0  0  0  0  0  0  0  0
   10.3474  -16.2888   25.8289 C   0  0  1  0  0  0  0  0  0  0  0  0
    9.8115  -14.9601   26.1985 C   0  0  0  0  0  0  0  0  0  0  0  0
    8.3468  -14.8229   26.1655 C   0  0  0  0  0  0  0  0  0  0  0  0
    7.3586  -15.7507   25.9235 C   0  0  0  0  0  0  0  0  0  0  0  0
    6.1538  -15.1356   25.9959 N   0  0  0  0  0  0  0  0  0  0  0  0
    6.3194  -13.8315   26.2783 C   0  0  0  0  0  0  0  0  0  0  0  0
    5.4609  -12.7666   26.4615 C   0  0  0  0  0  0  0  0  0  0  0  0
    5.9042  -11.4880   26.7512 C   0  0  0  0  0  0  0  0  0  0  0  0
    7.2783  -11.3021   26.8554 C   0  0  0  0  0  0  0  0  0  0  0  0
    8.1231  -12.3553   26.6740 C   0  0  0  0  0  0  0  0  0  0  0  0
    7.6831  -13.6350   26.3841 C   0  0  0  0  0  0  0  0  0  0  0  0
   10.1041  -17.2083   26.9710 C   0  0  0  0  0  0  0  0  0  0  0  0
    9.4113  -18.2265   26.7901 O   0  0  0  0  0  0  0  0  0  0  0  0
   10.6320  -16.9376   28.2019 O   0  0  0  0  0  0  0  0  0  0  0  0
  2  1  1  6
  3  2  1  0
  4  3  1  0
  5  4  1  0
  6  5  1  0
  6  7  1  0
  8  9  2  0
  8  2  1  0
 10  8  1  0
 11 10  1  0
 11 12  1  6
 12 13  1  0
 13 17  1  0
 13 14  2  0
 14 15  1  0
 16 15  1  0
 17 16  2  0
 18 20  1  0
 18 11  1  0
 19 18  2  0
 21 22  1  1
 21 20  1  0
 22 23  1  0
 23 31  1  0
 24 23  2  0
 24 25  1  0
 25 26  1  0
 26 27  2  0
 27 28  1  0
 29 28  2  0
 30 29  1  0
 31 30  2  0
 31 26  1  0
 32 21  1  0
 32 34  1  0
 33 32  2  0
M  END
$$$$
