KHW.pdb
     RDKit          3D

 34 36  0  0  1  0  0  0  0  0999 V2000
    9.5027  -15.1814   18.5009 N   0  0  0  0  0  0  0  0  0  0  0  0
    8.9596  -14.3179   19.5682 C   0  0  1  0  0  0  0  0  0  0  0  0
    7.6586  -13.7312   19.1533 C   0  0  0  0  0  0  0  0  0  0  0  0
    7.2685  -13.9516   17.7587 C   0  0  0  0  0  0  0  0  0  0  0  0
    8.0389  -13.4685   16.6119 C   0  0  0  0  0  0  0  0  0  0  0  0
    7.5161  -13.6280   15.2300 C   0  0  0  0  0  0  0  0  0  0  0  0
    8.5101  -12.9252   14.3649 N   0  0  0  0  0  0  0  0  0  0  0  0
    8.7572  -15.1882   20.7947 C   0  0  0  0  0  0  0  0  0  0  0  0
    8.0086  -14.7673   21.7044 O   0  0  0  0  0  0  0  0  0  0  0  0
    9.3824  -16.4508   20.9418 N   0  0  0  0  0  0  0  0  0  0  0  0
    9.2375  -17.2715   22.1090 C   0  0  1  0  0  0  0  0  0  0  0  0
    9.5003  -18.7335   21.8393 C   0  0  0  0  0  0  0  0  0  0  0  0
   10.5523  -18.9683   20.8242 C   0  0  0  0  0  0  0  0  0  0  0  0
   10.9224  -17.9722   19.9462 C   0  0  0  0  0  0  0  0  0  0  0  0
   11.8849  -18.4747   19.1563 N   0  0  0  0  0  0  0  0  0  0  0  0
   12.1104  -19.7452   19.5279 C   0  0  0  0  0  0  0  0  0  0  0  0
   11.2868  -20.0278   20.5478 N   0  0  0  0  0  0  0  0  0  0  0  0
   10.0508  -16.7767   23.2580 C   0  0  0  0  0  0  0  0  0  0  0  0
   11.2209  -16.3490   23.1123 O   0  0  0  0  0  0  0  0  0  0  0  0
    9.5523  -16.7569   24.5975 N   0  0  0  0  0  0  0  0  0  0  0  0
   10.2178  -16.2725   25.7448 C   0  0  1  0  0  0  0  0  0  0  0  0
    9.6455  -15.1060   26.4526 C   0  0  0  0  0  0  0  0  0  0  0  0
    8.1986  -14.8962   26.2862 C   0  0  0  0  0  0  0  0  0  0  0  0
    7.1724  -15.7942   26.0952 C   0  0  0  0  0  0  0  0  0  0  0  0
    6.0074  -15.1112   25.9886 N   0  0  0  0  0  0  0  0  0  0  0  0
    6.2360  -13.7911   26.1037 C   0  0  0  0  0  0  0  0  0  0  0  0
    5.4368  -12.6666   26.0728 C   0  0  0  0  0  0  0  0  0  0  0  0
    5.9396  -11.3857   26.2205 C   0  0  0  0  0  0  0  0  0  0  0  0
    7.3121  -11.2612   26.4063 C   0  0  0  0  0  0  0  0  0  0  0  0
    8.0983  -12.3733   26.4364 C   0  0  0  0  0  0  0  0  0  0  0  0
    7.5987  -13.6554   26.2889 C   0  0  0  0  0  0  0  0  0  0  0  0
   10.5063  -17.3200   26.7589 C   0  0  0  0  0  0  0  0  0  0  0  0
    9.9685  -18.4367   26.6441 O   0  0  0  0  0  0  0  0  0  0  0  0
   11.3481  -17.0591   27.8031 O   0  0  0  0  0  0  0  0  0  0  0  0
  2  1  1  6
  3  2  1  0
  4  3  1  0
  5  4  1  0
  6  5  1  0
  6  7  1  0
  8  9  2  0
  8  2  1  0
 10  8  1  0
 11 10  1  0
 11 12  1  6
 12 13  1  0
 13 17  1  0
 13 14  2  0
 14 15  1  0
 16 15  1  0
 17 16  2  0
 18 20  1  0
 18 11  1  0
 19 18  2  0
 21 22  1  1
 21 20  1  0
 22 23  1  0
 23 31  1  0
 24 23  2  0
 24 25  1  0
 25 26  1  0
 26 27  2  0
 27 28  1  0
 29 28  2  0
 30 29  1  0
 31 30  2  0
 31 26  1  0
 32 21  1  0
 32 34  1  0
 33 32  2  0
M  END
$$$$
