KHW.pdb
     RDKit          3D

 34 36  0  0  1  0  0  0  0  0999 V2000
    8.4577  -18.9897   20.2985 N   0  0  0  0  0  0  0  0  0  0  0  0
    9.5402  -18.4349   19.4617 C   0  0  1  0  0  0  0  0  0  0  0  0
    9.0377  -18.1221   18.0983 C   0  0  0  0  0  0  0  0  0  0  0  0
    8.4920  -19.2497   17.3389 C   0  0  0  0  0  0  0  0  0  0  0  0
    7.8780  -19.1195   16.0168 C   0  0  0  0  0  0  0  0  0  0  0  0
    7.2176  -20.2848   15.3731 C   0  0  0  0  0  0  0  0  0  0  0  0
    6.6663  -19.7490   14.0927 N   0  0  0  0  0  0  0  0  0  0  0  0
   10.0215  -17.1609   20.1312 C   0  0  0  0  0  0  0  0  0  0  0  0
   10.9328  -16.5069   19.5773 O   0  0  0  0  0  0  0  0  0  0  0  0
    9.4769  -16.6920   21.3520 N   0  0  0  0  0  0  0  0  0  0  0  0
    9.8611  -15.4522   21.9623 C   0  0  1  0  0  0  0  0  0  0  0  0
    8.7715  -14.4083   21.9152 C   0  0  0  0  0  0  0  0  0  0  0  0
    8.3767  -14.0264   20.5402 C   0  0  0  0  0  0  0  0  0  0  0  0
    7.1275  -14.3414   20.0501 C   0  0  0  0  0  0  0  0  0  0  0  0
    7.0625  -13.8722   18.7937 N   0  0  0  0  0  0  0  0  0  0  0  0
    8.2339  -13.2822   18.5061 C   0  0  0  0  0  0  0  0  0  0  0  0
    9.0230  -13.3869   19.5853 N   0  0  0  0  0  0  0  0  0  0  0  0
   10.3771  -15.6361   23.3502 C   0  0  0  0  0  0  0  0  0  0  0  0
   11.5202  -15.2505   23.6937 O   0  0  0  0  0  0  0  0  0  0  0  0
    9.6056  -16.2618   24.3780 N   0  0  0  0  0  0  0  0  0  0  0  0
    9.9714  -16.4311   25.7313 C   0  0  1  0  0  0  0  0  0  0  0  0
    9.2301  -15.6722   26.7627 C   0  0  0  0  0  0  0  0  0  0  0  0
    7.8684  -15.2494   26.3991 C   0  0  0  0  0  0  0  0  0  0  0  0
    6.7879  -15.9750   25.9496 C   0  0  0  0  0  0  0  0  0  0  0  0
    5.7493  -15.1302   25.7424 N   0  0  0  0  0  0  0  0  0  0  0  0
    6.1137  -13.8711   26.0421 C   0  0  0  0  0  0  0  0  0  0  0  0
    5.4737  -12.6488   26.0166 C   0  0  0  0  0  0  0  0  0  0  0  0
    6.0962  -11.4692   26.3863 C   0  0  0  0  0  0  0  0  0  0  0  0
    7.4224  -11.5539   26.7958 C   0  0  0  0  0  0  0  0  0  0  0  0
    8.0512  -12.7621   26.8199 C   0  0  0  0  0  0  0  0  0  0  0  0
    7.4318  -13.9433   26.4508 C   0  0  0  0  0  0  0  0  0  0  0  0
   10.0250  -17.8513   26.1658 C   0  0  0  0  0  0  0  0  0  0  0  0
   10.4941  -18.1233   27.2863 O   0  0  0  0  0  0  0  0  0  0  0  0
    9.5676  -18.8437   25.3455 O   0  0  0  0  0  0  0  0  0  0  0  0
  2  1  1  1
  3  2  1  0
  4  3  1  0
  5  4  1  0
  6  5  1  0
  6  7  1  0
  8  9  2  0
  8  2  1  0
 10  8  1  0
 11 10  1  0
 11 12  1  1
 12 13  1  0
 13 17  1  0
 13 14  2  0
 14 15  1  0
 16 15  1  0
 17 16  2  0
 18 20  1  0
 18 11  1  0
 19 18  2  0
 21 22  1  1
 21 20  1  0
 22 23  1  0
 23 31  1  0
 24 23  2  0
 24 25  1  0
 25 26  1  0
 26 27  2  0
 27 28  1  0
 29 28  2  0
 30 29  1  0
 31 30  2  0
 31 26  1  0
 32 21  1  0
 32 34  1  0
 33 32  2  0
M  END
$$$$
