KHW.pdb
     RDKit          3D

 34 36  0  0  1  0  0  0  0  0999 V2000
   10.4427  -15.2056   18.0252 N   0  0  0  0  0  0  0  0  0  0  0  0
   11.3460  -15.8094   19.0248 C   0  0  1  0  0  0  0  0  0  0  0  0
   12.4553  -14.8772   19.3561 C   0  0  0  0  0  0  0  0  0  0  0  0
   13.6454  -14.9649   18.5065 C   0  0  0  0  0  0  0  0  0  0  0  0
   14.8567  -14.1713   18.7181 C   0  0  0  0  0  0  0  0  0  0  0  0
   16.0200  -14.3110   17.8040 C   0  0  0  0  0  0  0  0  0  0  0  0
   17.0137  -13.3120   18.2991 N   0  0  0  0  0  0  0  0  0  0  0  0
   10.5234  -16.0843   20.2699 C   0  0  0  0  0  0  0  0  0  0  0  0
    9.6338  -15.2638   20.5869 O   0  0  0  0  0  0  0  0  0  0  0  0
   10.7279  -17.2298   21.0778 N   0  0  0  0  0  0  0  0  0  0  0  0
    9.9097  -17.5522   22.2108 C   0  0  1  0  0  0  0  0  0  0  0  0
    9.5230  -19.0105   22.2642 C   0  0  0  0  0  0  0  0  0  0  0  0
    8.4762  -19.3815   21.2849 C   0  0  0  0  0  0  0  0  0  0  0  0
    7.8725  -18.4238   20.4986 C   0  0  0  0  0  0  0  0  0  0  0  0
    6.9775  -19.0534   19.7205 N   0  0  0  0  0  0  0  0  0  0  0  0
    7.0194  -20.3638   20.0105 C   0  0  0  0  0  0  0  0  0  0  0  0
    7.9407  -20.5439   20.9681 N   0  0  0  0  0  0  0  0  0  0  0  0
   10.5167  -17.1040   23.4981 C   0  0  0  0  0  0  0  0  0  0  0  0
   11.7514  -17.1648   23.7106 O   0  0  0  0  0  0  0  0  0  0  0  0
    9.7342  -16.5767   24.5717 N   0  0  0  0  0  0  0  0  0  0  0  0
   10.2019  -16.1462   25.8326 C   0  0  1  0  0  0  0  0  0  0  0  0
    9.6164  -14.9220   26.4220 C   0  0  0  0  0  0  0  0  0  0  0  0
    8.1758  -14.7227   26.1974 C   0  0  0  0  0  0  0  0  0  0  0  0
    7.1911  -15.6064   25.8161 C   0  0  0  0  0  0  0  0  0  0  0  0
    6.0137  -14.9414   25.7358 N   0  0  0  0  0  0  0  0  0  0  0  0
    6.1938  -13.6471   26.0528 C   0  0  0  0  0  0  0  0  0  0  0  0
    5.3632  -12.5481   26.1333 C   0  0  0  0  0  0  0  0  0  0  0  0
    5.8163  -11.2911   26.4939 C   0  0  0  0  0  0  0  0  0  0  0  0
    7.1710  -11.1642   26.7809 C   0  0  0  0  0  0  0  0  0  0  0  0
    7.9883  -12.2510   26.7006 C   0  0  0  0  0  0  0  0  0  0  0  0
    7.5385  -13.5091   26.3401 C   0  0  0  0  0  0  0  0  0  0  0  0
   10.1798  -17.2053   26.8750 C   0  0  0  0  0  0  0  0  0  0  0  0
    9.5756  -18.2687   26.6435 O   0  0  0  0  0  0  0  0  0  0  0  0
   10.8119  -17.0125   28.0710 O   0  0  0  0  0  0  0  0  0  0  0  0
  2  1  1  6
  3  2  1  0
  4  3  1  0
  5  4  1  0
  6  5  1  0
  6  7  1  0
  8  9  2  0
  8  2  1  0
 10  8  1  0
 11 10  1  0
 11 12  1  1
 12 13  1  0
 13 17  1  0
 13 14  2  0
 14 15  1  0
 16 15  1  0
 17 16  2  0
 18 20  1  0
 18 11  1  0
 19 18  2  0
 21 22  1  1
 21 20  1  0
 22 23  1  0
 23 31  1  0
 24 23  2  0
 24 25  1  0
 25 26  1  0
 26 27  2  0
 27 28  1  0
 29 28  2  0
 30 29  1  0
 31 30  2  0
 31 26  1  0
 32 21  1  0
 32 34  1  0
 33 32  2  0
M  END
$$$$
