KHW.pdb
     RDKit          3D

 34 36  0  0  1  0  0  0  0  0999 V2000
    8.0685  -17.0544   19.1425 N   0  0  0  0  0  0  0  0  0  0  0  0
    8.7417  -16.1286   20.0750 C   0  0  1  0  0  0  0  0  0  0  0  0
    7.9915  -14.8492   20.1726 C   0  0  0  0  0  0  0  0  0  0  0  0
    7.8856  -14.0691   18.9373 C   0  0  0  0  0  0  0  0  0  0  0  0
    8.4886  -12.7480   18.7548 C   0  0  0  0  0  0  0  0  0  0  0  0
    8.0997  -11.8933   17.6030 C   0  0  0  0  0  0  0  0  0  0  0  0
    8.3201  -12.7526   16.4015 N   0  0  0  0  0  0  0  0  0  0  0  0
    8.7774  -16.8024   21.4341 C   0  0  0  0  0  0  0  0  0  0  0  0
    7.6957  -16.9816   22.0366 O   0  0  0  0  0  0  0  0  0  0  0  0
    9.9850  -17.2319   22.0376 N   0  0  0  0  0  0  0  0  0  0  0  0
   10.0371  -17.9211   23.2942 C   0  0  1  0  0  0  0  0  0  0  0  0
   10.6473  -19.2979   23.1878 C   0  0  0  0  0  0  0  0  0  0  0  0
    9.8607  -20.2306   22.3490 C   0  0  0  0  0  0  0  0  0  0  0  0
    8.7908  -20.9229   22.8744 C   0  0  0  0  0  0  0  0  0  0  0  0
    8.2827  -21.6793   21.8882 N   0  0  0  0  0  0  0  0  0  0  0  0
    9.0113  -21.4674   20.7804 C   0  0  0  0  0  0  0  0  0  0  0  0
    9.9700  -20.5797   21.0823 N   0  0  0  0  0  0  0  0  0  0  0  0
   10.7005  -17.1141   24.3597 C   0  0  0  0  0  0  0  0  0  0  0  0
   11.9452  -16.9665   24.4074 O   0  0  0  0  0  0  0  0  0  0  0  0
    9.9643  -16.4572   25.3938 N   0  0  0  0  0  0  0  0  0  0  0  0
   10.4903  -15.8289   26.5437 C   0  0  1  0  0  0  0  0  0  0  0  0
    9.7538  -14.6826   27.1207 C   0  0  0  0  0  0  0  0  0  0  0  0
    8.3592  -14.5232   26.6790 C   0  0  0  0  0  0  0  0  0  0  0  0
    7.3879  -15.4588   26.4012 C   0  0  0  0  0  0  0  0  0  0  0  0
    6.2579  -14.8163   26.0198 N   0  0  0  0  0  0  0  0  0  0  0  0
    6.4562  -13.4865   26.0385 C   0  0  0  0  0  0  0  0  0  0  0  0
    5.6706  -12.3890   25.7513 C   0  0  0  0  0  0  0  0  0  0  0  0
    6.1331  -11.0887   25.8545 C   0  0  0  0  0  0  0  0  0  0  0  0
    7.4495  -10.9153   26.2678 C   0  0  0  0  0  0  0  0  0  0  0  0
    8.2224  -12.0008   26.5507 C   0  0  0  0  0  0  0  0  0  0  0  0
    7.7631  -13.3022   26.4483 C   0  0  0  0  0  0  0  0  0  0  0  0
   10.8038  -16.7688   27.6515 C   0  0  0  0  0  0  0  0  0  0  0  0
   10.3615  -17.9312   27.6012 O   0  0  0  0  0  0  0  0  0  0  0  0
   11.5649  -16.3610   28.7105 O   0  0  0  0  0  0  0  0  0  0  0  0
  2  1  1  6
  3  2  1  0
  4  3  1  0
  5  4  1  0
  6  5  1  0
  6  7  1  0
  8  9  2  0
  8  2  1  0
 10  8  1  0
 11 10  1  0
 11 12  1  6
 12 13  1  0
 13 17  1  0
 13 14  2  0
 14 15  1  0
 16 15  1  0
 17 16  2  0
 18 20  1  0
 18 11  1  0
 19 18  2  0
 21 22  1  1
 21 20  1  0
 22 23  1  0
 23 31  1  0
 24 23  2  0
 24 25  1  0
 25 26  1  0
 26 27  2  0
 27 28  1  0
 29 28  2  0
 30 29  1  0
 31 30  2  0
 31 26  1  0
 32 21  1  0
 32 34  1  0
 33 32  2  0
M  END
$$$$
