KHW.pdb
     RDKit          3D

 34 36  0  0  1  0  0  0  0  0999 V2000
   10.4487  -15.5452   19.4511 N   0  0  0  0  0  0  0  0  0  0  0  0
    9.9188  -14.8121   20.6180 C   0  0  1  0  0  0  0  0  0  0  0  0
    9.0966  -13.6548   20.1778 C   0  0  0  0  0  0  0  0  0  0  0  0
    8.9475  -13.4845   18.7305 C   0  0  0  0  0  0  0  0  0  0  0  0
    7.6830  -13.1440   18.0771 C   0  0  0  0  0  0  0  0  0  0  0  0
    7.6337  -12.8910   16.6135 C   0  0  0  0  0  0  0  0  0  0  0  0
    7.7469  -14.2437   15.9907 N   0  0  0  0  0  0  0  0  0  0  0  0
    9.0549  -15.7797   21.4056 C   0  0  0  0  0  0  0  0  0  0  0  0
    8.1052  -16.3421   20.8168 O   0  0  0  0  0  0  0  0  0  0  0  0
    9.2871  -16.0646   22.7737 N   0  0  0  0  0  0  0  0  0  0  0  0
    9.9028  -17.2755   23.2337 C   0  0  1  0  0  0  0  0  0  0  0  0
   11.0482  -17.7248   22.3588 C   0  0  0  0  0  0  0  0  0  0  0  0
   11.5250  -19.0929   22.6645 C   0  0  0  0  0  0  0  0  0  0  0  0
   10.6661  -20.1696   22.6095 C   0  0  0  0  0  0  0  0  0  0  0  0
   11.3762  -21.2625   22.9325 N   0  0  0  0  0  0  0  0  0  0  0  0
   12.6396  -20.8822   23.1819 C   0  0  0  0  0  0  0  0  0  0  0  0
   12.7102  -19.5538   23.0128 N   0  0  0  0  0  0  0  0  0  0  0  0
   10.3120  -17.1981   24.6665 C   0  0  0  0  0  0  0  0  0  0  0  0
   10.8823  -18.1507   25.2501 O   0  0  0  0  0  0  0  0  0  0  0  0
   10.0824  -16.0366   25.4673 N   0  0  0  0  0  0  0  0  0  0  0  0
   10.0750  -15.9646   26.8775 C   0  0  1  0  0  0  0  0  0  0  0  0
    8.7894  -15.7100   27.5642 C   0  0  0  0  0  0  0  0  0  0  0  0
    7.7329  -15.0915   26.7478 C   0  0  0  0  0  0  0  0  0  0  0  0
    6.6691  -15.6497   26.0749 C   0  0  0  0  0  0  0  0  0  0  0  0
    5.9767  -14.6634   25.4561 N   0  0  0  0  0  0  0  0  0  0  0  0
    6.5525  -13.4734   25.7016 C   0  0  0  0  0  0  0  0  0  0  0  0
    6.2761  -12.1726   25.3329 C   0  0  0  0  0  0  0  0  0  0  0  0
    7.0519  -11.0991   25.7342 C   0  0  0  0  0  0  0  0  0  0  0  0
    8.1488  -11.3769   26.5424 C   0  0  0  0  0  0  0  0  0  0  0  0
    8.4189  -12.6621   26.9046 C   0  0  0  0  0  0  0  0  0  0  0  0
    7.6453  -13.7377   26.5051 C   0  0  0  0  0  0  0  0  0  0  0  0
   10.7201  -17.1271   27.5417 C   0  0  0  0  0  0  0  0  0  0  0  0
   11.0601  -17.0293   28.7352 O   0  0  0  0  0  0  0  0  0  0  0  0
   10.9385  -18.2855   26.8506 O   0  0  0  0  0  0  0  0  0  0  0  0
  2  1  1  6
  3  2  1  0
  4  3  1  0
  5  4  1  0
  6  5  1  0
  6  7  1  0
  8  9  2  0
  8  2  1  0
 10  8  1  0
 11 10  1  0
 11 12  1  6
 12 13  1  0
 13 17  1  0
 13 14  2  0
 14 15  1  0
 16 15  1  0
 17 16  2  0
 18 20  1  0
 18 11  1  0
 19 18  2  0
 21 22  1  1
 21 20  1  0
 22 23  1  0
 23 31  1  0
 24 23  2  0
 24 25  1  0
 25 26  1  0
 26 27  2  0
 27 28  1  0
 29 28  2  0
 30 29  1  0
 31 30  2  0
 31 26  1  0
 32 21  1  0
 32 34  1  0
 33 32  2  0
M  END
$$$$
