WVI.pdb
     RDKit          3D

 30 31  0  0  1  0  0  0  0  0999 V2000
    5.7784  -17.2972   24.6245 N   0  0  0  0  0  0  0  0  0  0  0  0
    6.5001  -16.0600   24.3167 C   0  0  1  0  0  0  0  0  0  0  0  0
    7.3493  -15.6660   25.5092 C   0  0  0  0  0  0  0  0  0  0  0  0
    6.5809  -14.6416   26.2642 C   0  0  0  0  0  0  0  0  0  0  0  0
    5.3819  -14.7562   26.9170 C   0  0  0  0  0  0  0  0  0  0  0  0
    5.0885  -13.5579   27.4246 N   0  0  0  0  0  0  0  0  0  0  0  0
    6.0673  -12.6694   27.1218 C   0  0  0  0  0  0  0  0  0  0  0  0
    6.2418  -11.3197   27.4093 C   0  0  0  0  0  0  0  0  0  0  0  0
    7.3759  -10.6323   26.9653 C   0  0  0  0  0  0  0  0  0  0  0  0
    8.3128  -11.3252   26.2372 C   0  0  0  0  0  0  0  0  0  0  0  0
    8.1235  -12.6714   25.9557 C   0  0  0  0  0  0  0  0  0  0  0  0
    7.0130  -13.3279   26.3944 C   0  0  0  0  0  0  0  0  0  0  0  0
    7.2814  -16.3257   23.0857 C   0  0  0  0  0  0  0  0  0  0  0  0
    7.9944  -17.3085   23.0516 O   0  0  0  0  0  0  0  0  0  0  0  0
    8.3054  -13.0598   20.7414 C   0  0  0  0  0  0  0  0  0  0  0  0
    7.8879  -14.2800   19.9613 C   0  0  1  0  0  0  0  0  0  0  0  0
    8.9473  -14.4122   18.8539 C   0  0  0  0  0  0  0  0  0  0  0  0
    8.0343  -15.5649   20.7724 C   0  0  2  0  0  0  0  0  0  0  0  0
    7.2159  -15.4909   21.9598 N   0  0  0  0  0  0  0  0  0  0  0  0
    9.4380  -15.6042   21.2510 C   0  0  0  0  0  0  0  0  0  0  0  0
    9.8952  -14.6730   22.0081 O   0  0  0  0  0  0  0  0  0  0  0  0
   11.0105  -18.0882   25.0059 C   0  0  0  0  0  0  0  0  0  0  0  0
   10.9370  -17.1859   23.8325 C   0  0  0  0  0  0  0  0  0  0  0  0
   11.7306  -17.5329   22.6331 C   0  0  2  0  0  0  0  0  0  0  0  0
   13.1285  -17.9365   23.1114 C   0  0  0  0  0  0  0  0  0  0  0  0
   11.7710  -16.5674   21.5205 C   0  0  2  0  0  0  0  0  0  0  0  0
   10.3788  -16.6165   20.9481 N   0  0  0  0  0  0  0  0  0  0  0  0
   12.6631  -16.8915   20.4235 C   0  0  0  0  0  0  0  0  0  0  0  0
   12.3627  -17.7190   19.4843 O   0  0  0  0  0  0  0  0  0  0  0  0
   13.9365  -16.3312   20.2725 O   0  0  0  0  0  0  0  0  0  0  0  0
  2  1  1  1
  2 13  1  0
  2  3  1  0
  3  4  1  0
  4  5  2  0
  4 12  1  0
  5  6  1  0
  6  7  1  0
  7  8  2  0
  8  9  1  0
 10  9  2  0
 11 10  1  0
 12 11  2  0
 12  7  1  0
 13 19  1  0
 14 13  2  0
 16 15  1  1
 16 18  1  0
 17 16  1  0
 18 20  1  0
 18 19  1  1
 20 21  2  0
 20 27  1  0
 23 22  1  0
 23 24  1  0
 24 26  1  0
 24 25  1  1
 26 28  1  0
 26 27  1  6
 28 30  1  0
 29 28  2  0
M  END
$$$$
