WVI.pdb
     RDKit          3D

 30 31  0  0  1  0  0  0  0  0999 V2000
    5.8153  -17.7919   25.0652 N   0  0  0  0  0  0  0  0  0  0  0  0
    6.5721  -16.5727   24.7702 C   0  0  1  0  0  0  0  0  0  0  0  0
    7.1190  -15.9982   26.0622 C   0  0  0  0  0  0  0  0  0  0  0  0
    6.2256  -14.8732   26.4444 C   0  0  0  0  0  0  0  0  0  0  0  0
    4.9178  -14.8975   26.8517 C   0  0  0  0  0  0  0  0  0  0  0  0
    4.5417  -13.6345   27.0595 N   0  0  0  0  0  0  0  0  0  0  0  0
    5.5721  -12.7914   26.8015 C   0  0  0  0  0  0  0  0  0  0  0  0
    5.7006  -11.4077   26.8640 C   0  0  0  0  0  0  0  0  0  0  0  0
    6.9093  -10.7840   26.5387 C   0  0  0  0  0  0  0  0  0  0  0  0
    7.9662  -11.5739   26.1552 C   0  0  0  0  0  0  0  0  0  0  0  0
    7.8220  -12.9533   26.0948 C   0  0  0  0  0  0  0  0  0  0  0  0
    6.6378  -13.5471   26.4142 C   0  0  0  0  0  0  0  0  0  0  0  0
    7.6190  -16.9552   23.7935 C   0  0  0  0  0  0  0  0  0  0  0  0
    8.2380  -17.9837   23.9790 O   0  0  0  0  0  0  0  0  0  0  0  0
    7.6148  -14.9986   20.2064 C   0  0  0  0  0  0  0  0  0  0  0  0
    9.0143  -15.2085   20.7250 C   0  0  1  0  0  0  0  0  0  0  0  0
    9.3542  -13.9010   21.4607 C   0  0  0  0  0  0  0  0  0  0  0  0
    9.0750  -16.2759   21.8146 C   0  0  2  0  0  0  0  0  0  0  0  0
    7.9090  -16.1792   22.6609 N   0  0  0  0  0  0  0  0  0  0  0  0
   10.2310  -15.9318   22.6785 C   0  0  0  0  0  0  0  0  0  0  0  0
   10.7758  -14.7710   22.6069 O   0  0  0  0  0  0  0  0  0  0  0  0
   10.5524  -14.6261   27.3773 C   0  0  0  0  0  0  0  0  0  0  0  0
   10.9266  -14.9173   25.9732 C   0  0  0  0  0  0  0  0  0  0  0  0
   11.7172  -16.1374   25.6992 C   0  0  2  0  0  0  0  0  0  0  0  0
   12.9074  -16.1367   26.6633 C   0  0  0  0  0  0  0  0  0  0  0  0
   12.1177  -16.4108   24.3076 C   0  0  2  0  0  0  0  0  0  0  0  0
   10.8288  -16.7928   23.6286 N   0  0  0  0  0  0  0  0  0  0  0  0
   13.0184  -17.5303   24.1086 C   0  0  0  0  0  0  0  0  0  0  0  0
   14.2934  -17.4030   23.9844 O   0  0  0  0  0  0  0  0  0  0  0  0
   12.5922  -18.8614   24.0391 O   0  0  0  0  0  0  0  0  0  0  0  0
  2  1  1  1
  2 13  1  0
  2  3  1  0
  3  4  1  0
  4  5  2  0
  4 12  1  0
  5  6  1  0
  6  7  1  0
  7  8  2  0
  8  9  1  0
 10  9  2  0
 11 10  1  0
 12 11  2  0
 12  7  1  0
 13 19  1  0
 14 13  2  0
 16 15  1  1
 16 18  1  0
 17 16  1  0
 18 20  1  0
 18 19  1  1
 20 21  2  0
 20 27  1  0
 23 22  1  0
 23 24  1  0
 24 26  1  0
 24 25  1  1
 26 28  1  0
 26 27  1  6
 28 30  1  0
 29 28  2  0
M  END
$$$$
