WVI.pdb
     RDKit          3D

 30 31  0  0  1  0  0  0  0  0999 V2000
    5.7013  -18.2717   24.7233 N   0  0  0  0  0  0  0  0  0  0  0  0
    6.3248  -16.9555   24.5650 C   0  0  1  0  0  0  0  0  0  0  0  0
    6.7980  -16.4599   25.9174 C   0  0  0  0  0  0  0  0  0  0  0  0
    5.9780  -15.2649   26.2482 C   0  0  0  0  0  0  0  0  0  0  0  0
    4.6324  -15.1695   26.4875 C   0  0  0  0  0  0  0  0  0  0  0  0
    4.3590  -13.8842   26.7178 N   0  0  0  0  0  0  0  0  0  0  0  0
    5.4922  -13.1435   26.6381 C   0  0  0  0  0  0  0  0  0  0  0  0
    5.7473  -11.7850   26.7941 C   0  0  0  0  0  0  0  0  0  0  0  0
    7.0435  -11.2782   26.6576 C   0  0  0  0  0  0  0  0  0  0  0  0
    8.0582  -12.1572   26.3647 C   0  0  0  0  0  0  0  0  0  0  0  0
    7.7877  -13.5100   26.2091 C   0  0  0  0  0  0  0  0  0  0  0  0
    6.5194  -13.9894   26.3445 C   0  0  0  0  0  0  0  0  0  0  0  0
    7.4134  -17.1238   23.5736 C   0  0  0  0  0  0  0  0  0  0  0  0
    7.9779  -18.1973   23.5080 O   0  0  0  0  0  0  0  0  0  0  0  0
    7.4898  -14.5378   20.4976 C   0  0  0  0  0  0  0  0  0  0  0  0
    8.9005  -14.8614   20.9183 C   0  0  1  0  0  0  0  0  0  0  0  0
    9.3189  -13.6797   21.8098 C   0  0  0  0  0  0  0  0  0  0  0  0
    8.9655  -16.0707   21.8476 C   0  0  2  0  0  0  0  0  0  0  0  0
    7.8034  -16.0937   22.7041 N   0  0  0  0  0  0  0  0  0  0  0  0
   10.1255  -15.8506   22.7460 C   0  0  0  0  0  0  0  0  0  0  0  0
   11.2991  -15.6594   22.2608 O   0  0  0  0  0  0  0  0  0  0  0  0
   11.3755  -13.9267   28.4593 C   0  0  0  0  0  0  0  0  0  0  0  0
   11.8396  -14.6578   27.2567 C   0  0  0  0  0  0  0  0  0  0  0  0
   10.8540  -14.9505   26.1928 C   0  0  2  0  0  0  0  0  0  0  0  0
    9.6776  -15.6802   26.8482 C   0  0  0  0  0  0  0  0  0  0  0  0
   11.3267  -15.6247   24.9707 C   0  0  2  0  0  0  0  0  0  0  0  0
   10.0734  -15.8239   24.1595 N   0  0  0  0  0  0  0  0  0  0  0  0
   11.8988  -16.9458   25.1486 C   0  0  0  0  0  0  0  0  0  0  0  0
   11.2131  -18.0328   25.0741 O   0  0  0  0  0  0  0  0  0  0  0  0
   13.2547  -17.1711   25.4115 O   0  0  0  0  0  0  0  0  0  0  0  0
  2  1  1  1
  2 13  1  0
  2  3  1  0
  3  4  1  0
  4  5  2  0
  4 12  1  0
  5  6  1  0
  6  7  1  0
  7  8  2  0
  8  9  1  0
 10  9  2  0
 11 10  1  0
 12 11  2  0
 12  7  1  0
 13 19  1  0
 14 13  2  0
 16 15  1  1
 16 18  1  0
 17 16  1  0
 18 20  1  0
 18 19  1  1
 20 21  2  0
 20 27  1  0
 23 22  1  0
 23 24  1  0
 24 26  1  0
 24 25  1  1
 26 28  1  0
 26 27  1  6
 28 30  1  0
 29 28  2  0
M  END
$$$$
