WVI.pdb
     RDKit          3D

 30 31  0  0  1  0  0  0  0  0999 V2000
    5.3663  -17.4892   24.5229 N   0  0  0  0  0  0  0  0  0  0  0  0
    6.2839  -16.3524   24.4138 C   0  0  1  0  0  0  0  0  0  0  0  0
    6.7722  -15.9689   25.7969 C   0  0  0  0  0  0  0  0  0  0  0  0
    6.0146  -14.7547   26.1988 C   0  0  0  0  0  0  0  0  0  0  0  0
    4.6884  -14.6187   26.5145 C   0  0  0  0  0  0  0  0  0  0  0  0
    4.4741  -13.3306   26.7876 N   0  0  0  0  0  0  0  0  0  0  0  0
    5.6269  -12.6277   26.6614 C   0  0  0  0  0  0  0  0  0  0  0  0
    5.9385  -11.2828   26.8326 C   0  0  0  0  0  0  0  0  0  0  0  0
    7.2425  -10.8178   26.6354 C   0  0  0  0  0  0  0  0  0  0  0  0
    8.2076  -11.7240   26.2674 C   0  0  0  0  0  0  0  0  0  0  0  0
    7.8809  -13.0626   26.0976 C   0  0  0  0  0  0  0  0  0  0  0  0
    6.6056  -13.5012   26.2927 C   0  0  0  0  0  0  0  0  0  0  0  0
    7.3649  -16.7732   23.4915 C   0  0  0  0  0  0  0  0  0  0  0  0
    7.8135  -17.8970   23.5974 O   0  0  0  0  0  0  0  0  0  0  0  0
    7.8278  -14.8686   19.8731 C   0  0  0  0  0  0  0  0  0  0  0  0
    9.1329  -15.0716   20.5990 C   0  0  1  0  0  0  0  0  0  0  0  0
    9.3388  -13.7717   21.3953 C   0  0  0  0  0  0  0  0  0  0  0  0
    9.0380  -16.1543   21.6709 C   0  0  2  0  0  0  0  0  0  0  0  0
    7.8762  -15.9254   22.4972 N   0  0  0  0  0  0  0  0  0  0  0  0
   10.2101  -15.9701   22.5617 C   0  0  0  0  0  0  0  0  0  0  0  0
   11.3995  -15.9458   22.0777 O   0  0  0  0  0  0  0  0  0  0  0  0
    9.4053  -14.1814   27.7569 C   0  0  0  0  0  0  0  0  0  0  0  0
   10.0636  -14.2560   26.4312 C   0  0  0  0  0  0  0  0  0  0  0  0
   10.9312  -15.4199   26.1460 C   0  0  2  0  0  0  0  0  0  0  0  0
   12.0702  -15.4024   27.1698 C   0  0  0  0  0  0  0  0  0  0  0  0
   11.4143  -15.6081   24.7666 C   0  0  2  0  0  0  0  0  0  0  0  0
   10.1542  -15.8058   23.9657 N   0  0  0  0  0  0  0  0  0  0  0  0
   12.2259  -16.7863   24.5274 C   0  0  0  0  0  0  0  0  0  0  0  0
   13.4961  -16.7444   24.3223 O   0  0  0  0  0  0  0  0  0  0  0  0
   11.7104  -18.0870   24.5032 O   0  0  0  0  0  0  0  0  0  0  0  0
  2  1  1  1
  2 13  1  0
  2  3  1  0
  3  4  1  0
  4  5  2  0
  4 12  1  0
  5  6  1  0
  6  7  1  0
  7  8  2  0
  8  9  1  0
 10  9  2  0
 11 10  1  0
 12 11  2  0
 12  7  1  0
 13 19  1  0
 14 13  2  0
 16 15  1  1
 16 18  1  0
 17 16  1  0
 18 20  1  0
 18 19  1  1
 20 21  2  0
 20 27  1  0
 23 22  1  0
 23 24  1  0
 24 26  1  0
 24 25  1  1
 26 28  1  0
 26 27  1  6
 28 30  1  0
 29 28  2  0
M  END
$$$$
