WVI.pdb
     RDKit          3D

 30 31  0  0  1  0  0  0  0  0999 V2000
    5.7827  -17.8493   24.6392 N   0  0  0  0  0  0  0  0  0  0  0  0
    6.4298  -16.5387   24.5401 C   0  0  1  0  0  0  0  0  0  0  0  0
    6.9058  -16.1104   25.9143 C   0  0  0  0  0  0  0  0  0  0  0  0
    5.9583  -15.0694   26.3922 C   0  0  0  0  0  0  0  0  0  0  0  0
    4.7035  -15.2100   26.9238 C   0  0  0  0  0  0  0  0  0  0  0  0
    4.2398  -13.9855   27.1795 N   0  0  0  0  0  0  0  0  0  0  0  0
    5.1620  -13.0542   26.8316 C   0  0  0  0  0  0  0  0  0  0  0  0
    5.1737  -11.6646   26.8951 C   0  0  0  0  0  0  0  0  0  0  0  0
    6.2855  -10.9359   26.4608 C   0  0  0  0  0  0  0  0  0  0  0  0
    7.3655  -11.6286   25.9690 C   0  0  0  0  0  0  0  0  0  0  0  0
    7.3380  -13.0153   25.9091 C   0  0  0  0  0  0  0  0  0  0  0  0
    6.2474  -13.7120   26.3355 C   0  0  0  0  0  0  0  0  0  0  0  0
    7.5195  -16.6833   23.5461 C   0  0  0  0  0  0  0  0  0  0  0  0
    8.0998  -17.7478   23.4717 O   0  0  0  0  0  0  0  0  0  0  0  0
    7.5596  -13.8149   20.7136 C   0  0  0  0  0  0  0  0  0  0  0  0
    8.9527  -14.3541   20.9142 C   0  0  1  0  0  0  0  0  0  0  0  0
    9.6309  -13.3358   21.8467 C   0  0  0  0  0  0  0  0  0  0  0  0
    8.9616  -15.6548   21.7132 C   0  0  2  0  0  0  0  0  0  0  0  0
    7.8930  -15.6409   22.6841 N   0  0  0  0  0  0  0  0  0  0  0  0
   10.2206  -15.6593   22.4981 C   0  0  0  0  0  0  0  0  0  0  0  0
   11.3554  -15.5283   21.9111 O   0  0  0  0  0  0  0  0  0  0  0  0
   10.4042  -14.1774   27.8118 C   0  0  0  0  0  0  0  0  0  0  0  0
   10.8338  -14.3652   26.4060 C   0  0  0  0  0  0  0  0  0  0  0  0
   11.3499  -15.6922   26.0040 C   0  0  2  0  0  0  0  0  0  0  0  0
   12.5394  -16.0143   26.9135 C   0  0  0  0  0  0  0  0  0  0  0  0
   11.6496  -15.9215   24.5795 C   0  0  2  0  0  0  0  0  0  0  0  0
   10.3096  -15.7968   23.9032 N   0  0  0  0  0  0  0  0  0  0  0  0
   12.1477  -17.2393   24.2340 C   0  0  0  0  0  0  0  0  0  0  0  0
   11.3931  -18.2757   24.1166 O   0  0  0  0  0  0  0  0  0  0  0  0
   13.4972  -17.5142   23.9864 O   0  0  0  0  0  0  0  0  0  0  0  0
  2  1  1  1
  2 13  1  0
  2  3  1  0
  3  4  1  0
  4  5  2  0
  4 12  1  0
  5  6  1  0
  6  7  1  0
  7  8  2  0
  8  9  1  0
 10  9  2  0
 11 10  1  0
 12 11  2  0
 12  7  1  0
 13 19  1  0
 14 13  2  0
 16 15  1  1
 16 18  1  0
 17 16  1  0
 18 20  1  0
 18 19  1  1
 20 21  2  0
 20 27  1  0
 23 22  1  0
 23 24  1  0
 24 26  1  0
 24 25  1  1
 26 28  1  0
 26 27  1  6
 28 30  1  0
 29 28  2  0
M  END
$$$$
