WVI.pdb
     RDKit          3D

 30 31  0  0  1  0  0  0  0  0999 V2000
    5.9719  -16.3234   24.7534 N   0  0  0  0  0  0  0  0  0  0  0  0
    7.3176  -15.8149   24.4764 C   0  0  1  0  0  0  0  0  0  0  0  0
    7.6552  -14.7234   25.4729 C   0  0  0  0  0  0  0  0  0  0  0  0
    7.0579  -13.4658   24.9516 C   0  0  0  0  0  0  0  0  0  0  0  0
    6.8941  -13.0492   23.6568 C   0  0  0  0  0  0  0  0  0  0  0  0
    6.3302  -11.8408   23.6956 N   0  0  0  0  0  0  0  0  0  0  0  0
    6.1201  -11.4638   24.9812 C   0  0  0  0  0  0  0  0  0  0  0  0
    5.5704  -10.3217   25.5544 C   0  0  0  0  0  0  0  0  0  0  0  0
    5.4695  -10.1935   26.9432 C   0  0  0  0  0  0  0  0  0  0  0  0
    5.9281  -11.2250   27.7267 C   0  0  0  0  0  0  0  0  0  0  0  0
    6.4768  -12.3574   27.1403 C   0  0  0  0  0  0  0  0  0  0  0  0
    6.5692  -12.4680   25.7853 C   0  0  0  0  0  0  0  0  0  0  0  0
    8.2275  -16.9831   24.5354 C   0  0  0  0  0  0  0  0  0  0  0  0
    8.1429  -17.7374   25.4838 O   0  0  0  0  0  0  0  0  0  0  0  0
   10.2501  -18.5083   21.1760 C   0  0  0  0  0  0  0  0  0  0  0  0
   11.1188  -18.0630   22.3243 C   0  0  1  0  0  0  0  0  0  0  0  0
   11.4010  -16.5773   22.0423 C   0  0  0  0  0  0  0  0  0  0  0  0
   10.3653  -18.0538   23.6519 C   0  0  2  0  0  0  0  0  0  0  0  0
    9.1702  -17.2524   23.5315 N   0  0  0  0  0  0  0  0  0  0  0  0
   11.2320  -17.3433   24.6241 C   0  0  0  0  0  0  0  0  0  0  0  0
   11.9696  -16.3626   24.2450 O   0  0  0  0  0  0  0  0  0  0  0  0
    9.8719  -15.6964   29.5566 C   0  0  0  0  0  0  0  0  0  0  0  0
   10.5514  -16.6061   28.6041 C   0  0  0  0  0  0  0  0  0  0  0  0
   11.5642  -16.0323   27.6909 C   0  0  2  0  0  0  0  0  0  0  0  0
   10.8683  -14.9512   26.8585 C   0  0  0  0  0  0  0  0  0  0  0  0
   12.3609  -16.9562   26.8644 C   0  0  2  0  0  0  0  0  0  0  0  0
   11.3363  -17.6455   26.0022 N   0  0  0  0  0  0  0  0  0  0  0  0
   13.0575  -18.0121   27.5744 C   0  0  0  0  0  0  0  0  0  0  0  0
   12.6492  -19.2324   27.6117 O   0  0  0  0  0  0  0  0  0  0  0  0
   14.2470  -17.8112   28.2835 O   0  0  0  0  0  0  0  0  0  0  0  0
  2  1  1  1
  2 13  1  0
  2  3  1  0
  3  4  1  0
  4  5  2  0
  4 12  1  0
  5  6  1  0
  6  7  1  0
  7  8  2  0
  8  9  1  0
 10  9  2  0
 11 10  1  0
 12 11  2  0
 12  7  1  0
 13 19  1  0
 14 13  2  0
 16 15  1  6
 16 18  1  0
 17 16  1  0
 18 20  1  0
 18 19  1  6
 20 21  2  0
 20 27  1  0
 23 22  1  0
 23 24  1  0
 24 26  1  0
 24 25  1  6
 26 28  1  0
 26 27  1  6
 28 30  1  0
 29 28  2  0
M  END
$$$$
