WVI.pdb
     RDKit          3D

 30 31  0  0  1  0  0  0  0  0999 V2000
    6.1939  -17.2606   25.2132 N   0  0  0  0  0  0  0  0  0  0  0  0
    7.2612  -16.4372   24.6395 C   0  0  1  0  0  0  0  0  0  0  0  0
    7.7184  -15.4222   25.6686 C   0  0  0  0  0  0  0  0  0  0  0  0
    6.6044  -14.4530   25.8408 C   0  0  0  0  0  0  0  0  0  0  0  0
    5.3104  -14.6723   26.2336 C   0  0  0  0  0  0  0  0  0  0  0  0
    4.6835  -13.4948   26.2149 N   0  0  0  0  0  0  0  0  0  0  0  0
    5.5375  -12.5166   25.8242 C   0  0  0  0  0  0  0  0  0  0  0  0
    5.3874  -11.1451   25.6463 C   0  0  0  0  0  0  0  0  0  0  0  0
    6.4624  -10.3539   25.2291 C   0  0  0  0  0  0  0  0  0  0  0  0
    7.6704  -10.9668   24.9989 C   0  0  0  0  0  0  0  0  0  0  0  0
    7.8042  -12.3370   25.1780 C   0  0  0  0  0  0  0  0  0  0  0  0
    6.7476  -13.0954   25.5844 C   0  0  0  0  0  0  0  0  0  0  0  0
    8.3256  -17.3729   24.2062 C   0  0  0  0  0  0  0  0  0  0  0  0
    8.4877  -18.3992   24.8355 O   0  0  0  0  0  0  0  0  0  0  0  0
   11.4204  -15.3271   21.9735 C   0  0  0  0  0  0  0  0  0  0  0  0
   11.1066  -16.7764   21.7040 C   0  0  1  0  0  0  0  0  0  0  0  0
   12.4804  -17.4387   21.5031 C   0  0  0  0  0  0  0  0  0  0  0  0
   10.5282  -17.4818   22.9280 C   0  0  2  0  0  0  0  0  0  0  0  0
    9.1400  -17.1201   23.0918 N   0  0  0  0  0  0  0  0  0  0  0  0
   11.2330  -16.9245   24.1086 C   0  0  0  0  0  0  0  0  0  0  0  0
   11.8833  -15.8206   24.0187 O   0  0  0  0  0  0  0  0  0  0  0  0
    9.5760  -14.4647   27.9737 C   0  0  0  0  0  0  0  0  0  0  0  0
   10.4838  -15.1145   26.9991 C   0  0  0  0  0  0  0  0  0  0  0  0
   11.2104  -16.3312   27.4242 C   0  0  2  0  0  0  0  0  0  0  0  0
   11.8568  -16.0272   28.7790 C   0  0  0  0  0  0  0  0  0  0  0  0
   12.1531  -16.9480   26.4742 C   0  0  2  0  0  0  0  0  0  0  0  0
   11.2643  -17.5101   25.3960 N   0  0  0  0  0  0  0  0  0  0  0  0
   12.9264  -18.0682   26.9755 C   0  0  0  0  0  0  0  0  0  0  0  0
   12.5080  -19.2855   26.9566 O   0  0  0  0  0  0  0  0  0  0  0  0
   14.2077  -17.9385   27.5230 O   0  0  0  0  0  0  0  0  0  0  0  0
  2  1  1  1
  2 13  1  0
  2  3  1  0
  3  4  1  0
  4  5  2  0
  4 12  1  0
  5  6  1  0
  6  7  1  0
  7  8  2  0
  8  9  1  0
 10  9  2  0
 11 10  1  0
 12 11  2  0
 12  7  1  0
 13 19  1  0
 14 13  2  0
 16 15  1  1
 16 18  1  0
 17 16  1  0
 18 20  1  0
 18 19  1  1
 20 21  2  0
 20 27  1  0
 23 22  1  0
 23 24  1  0
 24 26  1  0
 24 25  1  1
 26 28  1  0
 26 27  1  6
 28 30  1  0
 29 28  2  0
M  END
$$$$
