WVI.pdb
     RDKit          3D

 30 31  0  0  1  0  0  0  0  0999 V2000
    5.7746  -16.9982   25.1484 N   0  0  0  0  0  0  0  0  0  0  0  0
    6.7357  -15.9791   24.7196 C   0  0  1  0  0  0  0  0  0  0  0  0
    7.4571  -15.4288   25.9342 C   0  0  0  0  0  0  0  0  0  0  0  0
    6.5504  -14.4280   26.5557 C   0  0  0  0  0  0  0  0  0  0  0  0
    5.5563  -14.6076   27.4811 C   0  0  0  0  0  0  0  0  0  0  0  0
    5.0074  -13.4139   27.7128 N   0  0  0  0  0  0  0  0  0  0  0  0
    5.6216  -12.4638   26.9651 C   0  0  0  0  0  0  0  0  0  0  0  0
    5.4348  -11.0910   26.8403 C   0  0  0  0  0  0  0  0  0  0  0  0
    6.2322  -10.3340   25.9762 C   0  0  0  0  0  0  0  0  0  0  0  0
    7.2047  -10.9820   25.2533 C   0  0  0  0  0  0  0  0  0  0  0  0
    7.3774  -12.3531   25.3864 C   0  0  0  0  0  0  0  0  0  0  0  0
    6.5923  -13.0779   26.2319 C   0  0  0  0  0  0  0  0  0  0  0  0
    7.6306  -16.6341   23.7365 C   0  0  0  0  0  0  0  0  0  0  0  0
    8.0793  -17.7314   24.0010 O   0  0  0  0  0  0  0  0  0  0  0  0
   10.1474  -15.8008   19.4490 C   0  0  0  0  0  0  0  0  0  0  0  0
    9.1557  -15.3702   20.4991 C   0  0  1  0  0  0  0  0  0  0  0  0
    7.7825  -15.5390   19.8265 C   0  0  0  0  0  0  0  0  0  0  0  0
    9.1112  -16.3319   21.6838 C   0  0  2  0  0  0  0  0  0  0  0  0
    7.9651  -16.0375   22.5112 N   0  0  0  0  0  0  0  0  0  0  0  0
   10.3002  -16.0293   22.5179 C   0  0  0  0  0  0  0  0  0  0  0  0
   10.7677  -14.8346   22.5779 O   0  0  0  0  0  0  0  0  0  0  0  0
   10.4961  -15.8898   27.4327 C   0  0  0  0  0  0  0  0  0  0  0  0
   10.8570  -15.7732   26.0000 C   0  0  0  0  0  0  0  0  0  0  0  0
   11.8851  -16.6906   25.4612 C   0  0  2  0  0  0  0  0  0  0  0  0
   13.0962  -16.6191   26.3962 C   0  0  0  0  0  0  0  0  0  0  0  0
   12.2591  -16.5622   24.0417 C   0  0  2  0  0  0  0  0  0  0  0  0
   11.0121  -16.9681   23.3009 N   0  0  0  0  0  0  0  0  0  0  0  0
   13.3063  -17.4496   23.5725 C   0  0  0  0  0  0  0  0  0  0  0  0
   13.1103  -18.6880   23.2806 O   0  0  0  0  0  0  0  0  0  0  0  0
   14.6328  -17.0462   23.3831 O   0  0  0  0  0  0  0  0  0  0  0  0
  2  1  1  1
  2 13  1  0
  2  3  1  0
  3  4  1  0
  4  5  2  0
  4 12  1  0
  5  6  1  0
  6  7  1  0
  7  8  2  0
  8  9  1  0
 10  9  2  0
 11 10  1  0
 12 11  2  0
 12  7  1  0
 13 19  1  0
 14 13  2  0
 16 15  1  6
 16 18  1  0
 17 16  1  0
 18 20  1  0
 18 19  1  1
 20 21  2  0
 20 27  1  0
 23 22  1  0
 23 24  1  0
 24 26  1  0
 24 25  1  1
 26 28  1  0
 26 27  1  6
 28 30  1  0
 29 28  2  0
M  END
$$$$
