WVI.pdb
     RDKit          3D

 30 31  0  0  1  0  0  0  0  0999 V2000
   -2.1368  -48.2207  -72.3350 N   0  0  0  0  0  0  0  0  0  0  0  0
   -0.7160  -48.4969  -72.5620 C   0  0  1  0  0  0  0  0  0  0  0  0
    0.1060  -47.7999  -71.4958 C   0  0  0  0  0  0  0  0  0  0  0  0
    1.2352  -47.1301  -72.1931 C   0  0  0  0  0  0  0  0  0  0  0  0
    2.3821  -47.6694  -72.7134 C   0  0  0  0  0  0  0  0  0  0  0  0
    3.1006  -46.6654  -73.2189 N   0  0  0  0  0  0  0  0  0  0  0  0
    2.4484  -45.4893  -73.0441 C   0  0  0  0  0  0  0  0  0  0  0  0
    2.7578  -44.1764  -73.3841 C   0  0  0  0  0  0  0  0  0  0  0  0
    1.8805  -43.1308  -73.0798 C   0  0  0  0  0  0  0  0  0  0  0  0
    0.7053  -43.4343  -72.4358 C   0  0  0  0  0  0  0  0  0  0  0  0
    0.4116  -44.7491  -72.1003 C   0  0  0  0  0  0  0  0  0  0  0  0
    1.2765  -45.7576  -72.4026 C   0  0  0  0  0  0  0  0  0  0  0  0
   -0.5706  -49.9718  -72.5627 C   0  0  0  0  0  0  0  0  0  0  0  0
    0.1920  -50.4801  -71.7655 O   0  0  0  0  0  0  0  0  0  0  0  0
   -0.2543  -54.3914  -73.3246 C   0  0  0  0  0  0  0  0  0  0  0  0
   -0.3435  -52.9931  -73.8800 C   0  0  1  0  0  0  0  0  0  0  0  0
   -0.7066  -53.1881  -75.3621 C   0  0  0  0  0  0  0  0  0  0  0  0
   -1.5249  -52.2154  -73.3059 C   0  0  2  0  0  0  0  0  0  0  0  0
   -1.2899  -50.7971  -73.4404 N   0  0  0  0  0  0  0  0  0  0  0  0
   -1.5397  -52.4860  -71.8473 C   0  0  0  0  0  0  0  0  0  0  0  0
   -1.9443  -51.5893  -71.0218 O   0  0  0  0  0  0  0  0  0  0  0  0
    2.2963  -57.0292  -70.6600 C   0  0  0  0  0  0  0  0  0  0  0  0
    1.6864  -55.7693  -70.1732 C   0  0  0  0  0  0  0  0  0  0  0  0
    0.3190  -55.4335  -70.6274 C   0  0  2  0  0  0  0  0  0  0  0  0
   -0.3519  -56.7401  -71.0616 C   0  0  0  0  0  0  0  0  0  0  0  0
    0.1592  -54.3586  -71.6228 C   0  0  2  0  0  0  0  0  0  0  0  0
   -1.1361  -53.6955  -71.2343 N   0  0  0  0  0  0  0  0  0  0  0  0
   -0.0084  -54.7811  -73.0003 C   0  0  0  0  0  0  0  0  0  0  0  0
   -1.1204  -54.6868  -73.6420 O   0  0  0  0  0  0  0  0  0  0  0  0
    1.0240  -55.3264  -73.7717 O   0  0  0  0  0  0  0  0  0  0  0  0
  2  1  1  1
  2 13  1  0
  2  3  1  0
  3  4  1  0
  4  5  2  0
  4 12  1  0
  5  6  1  0
  6  7  1  0
  7  8  2  0
  8  9  1  0
 10  9  2  0
 11 10  1  0
 12 11  2  0
 12  7  1  0
 13 19  1  0
 14 13  2  0
 16 15  1  1
 16 18  1  0
 17 16  1  0
 18 20  1  0
 18 19  1  1
 20 21  2  0
 20 27  1  0
 23 22  1  0
 23 24  1  0
 24 26  1  0
 24 25  1  6
 26 28  1  0
 26 27  1  1
 28 30  1  0
 29 28  2  0
M  END
$$$$
