EDH.pdb
     RDKit          3D

 28 28  0  0  1  0  0  0  0  0999 V2000
   24.3545  -11.0331  -17.9518 N   0  0  0  0  0  0  0  0  0  0  0  0
   23.8096   -9.7266  -18.3499 C   0  0  1  0  0  0  0  0  0  0  0  0
   22.8182  -10.0549  -19.4410 C   0  0  0  0  0  0  0  0  0  0  0  0
   21.9805  -11.2519  -19.1557 C   0  0  0  0  0  0  0  0  0  0  0  0
   20.9937  -11.4298  -20.2522 C   0  0  0  0  0  0  0  0  0  0  0  0
   19.7664  -11.4775  -20.0254 O   0  0  0  0  0  0  0  0  0  0  0  0
   23.0575   -9.1396  -17.2079 C   0  0  0  0  0  0  0  0  0  0  0  0
   22.4345   -9.8619  -16.4083 O   0  0  0  0  0  0  0  0  0  0  0  0
   21.4639  -11.5437  -21.5515 O   0  0  0  0  0  0  0  0  0  0  0  0
   23.0105   -7.7194  -16.9687 N   0  0  0  0  0  0  0  0  0  0  0  0
   22.4006   -7.1850  -15.7676 C   0  0  1  0  0  0  0  0  0  0  0  0
   22.9342   -5.8045  -15.4951 C   0  0  0  0  0  0  0  0  0  0  0  0
   22.4430   -5.3438  -14.1764 C   0  0  0  0  0  0  0  0  0  0  0  0
   22.1239   -4.1167  -13.9873 O   0  0  0  0  0  0  0  0  0  0  0  0
   20.9238   -7.0531  -16.0257 C   0  0  0  0  0  0  0  0  0  0  0  0
   20.4592   -6.5782  -17.0884 O   0  0  0  0  0  0  0  0  0  0  0  0
   22.2837   -6.1470  -13.0598 O   0  0  0  0  0  0  0  0  0  0  0  0
   19.9711   -7.4732  -15.0481 N   0  0  0  0  0  0  0  0  0  0  0  0
   18.5390   -7.3368  -15.2337 C   0  0  1  0  0  0  0  0  0  0  0  0
   17.7791   -8.3281  -14.3645 C   0  0  0  0  0  0  0  0  0  0  0  0
   17.8217   -9.6306  -15.0571 C   0  0  0  0  0  0  0  0  0  0  0  0
   18.9608  -10.3592  -15.3081 C   0  0  0  0  0  0  0  0  0  0  0  0
   18.5240  -11.4698  -15.9566 N   0  0  0  0  0  0  0  0  0  0  0  0
   17.1978  -11.4010  -16.0821 C   0  0  0  0  0  0  0  0  0  0  0  0
   16.7494  -10.2790  -15.5357 N   0  0  0  0  0  0  0  0  0  0  0  0
   18.1790   -5.9388  -14.8375 C   0  0  0  0  0  0  0  0  0  0  0  0
   17.0879   -5.3010  -15.4163 O   0  0  0  0  0  0  0  0  0  0  0  0
   18.8335   -5.2907  -13.9807 O   0  0  0  0  0  0  0  0  0  0  0  0
  2  1  1  1
  2  3  1  0
  4  5  1  0
  4  3  1  0
  5  6  2  0
  7  2  1  0
  8  7  2  0
  9  5  1  0
 10  7  1  0
 11 10  1  0
 11 12  1  6
 12 13  1  0
 13 17  1  0
 14 13  2  0
 15 16  2  0
 15 11  1  0
 18 15  1  0
 19 18  1  0
 19 20  1  1
 20 21  1  0
 21 22  2  0
 21 25  1  0
 22 23  1  0
 24 23  1  0
 25 24  2  0
 26 19  1  0
 27 26  1  0
 28 26  2  0
M  END
$$$$
