EDH.pdb
     RDKit          3D

 28 28  0  0  1  0  0  0  0  0999 V2000
   46.3184  -13.7303   -8.0366 N   0  0  0  0  0  0  0  0  0  0  0  0
   46.0540  -12.2877   -7.9300 C   0  0  1  0  0  0  0  0  0  0  0  0
   46.7205  -11.6971   -9.1499 C   0  0  0  0  0  0  0  0  0  0  0  0
   48.2058  -11.6518   -9.0642 C   0  0  0  0  0  0  0  0  0  0  0  0
   48.7465  -11.0145  -10.2928 C   0  0  0  0  0  0  0  0  0  0  0  0
   49.2954  -11.6874  -11.1906 O   0  0  0  0  0  0  0  0  0  0  0  0
   44.5901  -12.0469   -8.0449 C   0  0  0  0  0  0  0  0  0  0  0  0
   43.8977  -12.6722   -8.8689 O   0  0  0  0  0  0  0  0  0  0  0  0
   48.6303   -9.6397  -10.4293 O   0  0  0  0  0  0  0  0  0  0  0  0
   43.9026  -11.0879   -7.2177 N   0  0  0  0  0  0  0  0  0  0  0  0
   42.4647  -10.9275   -7.2993 C   0  0  1  0  0  0  0  0  0  0  0  0
   41.9015  -10.6683   -5.9280 C   0  0  0  0  0  0  0  0  0  0  0  0
   40.4248  -10.6001   -6.0127 C   0  0  0  0  0  0  0  0  0  0  0  0
   39.8225  -10.7831   -7.1294 O   0  0  0  0  0  0  0  0  0  0  0  0
   42.1885   -9.7077   -8.1364 C   0  0  0  0  0  0  0  0  0  0  0  0
   42.9219   -8.6915   -8.1199 O   0  0  0  0  0  0  0  0  0  0  0  0
   39.5762  -10.3432   -4.9491 O   0  0  0  0  0  0  0  0  0  0  0  0
   41.0541   -9.6579   -9.0027 N   0  0  0  0  0  0  0  0  0  0  0  0
   40.7579   -8.5175   -9.8488 C   0  0  1  0  0  0  0  0  0  0  0  0
   39.6327   -8.8375  -10.8220 C   0  0  0  0  0  0  0  0  0  0  0  0
   39.4015   -7.6237  -11.6289 C   0  0  0  0  0  0  0  0  0  0  0  0
   40.1666   -7.2249  -12.6998 C   0  0  0  0  0  0  0  0  0  0  0  0
   39.5902   -6.0709  -13.1250 N   0  0  0  0  0  0  0  0  0  0  0  0
   38.5406   -5.8023  -12.3469 C   0  0  0  0  0  0  0  0  0  0  0  0
   38.4095   -6.7447  -11.4231 N   0  0  0  0  0  0  0  0  0  0  0  0
   40.3404   -7.4001   -8.9444 C   0  0  0  0  0  0  0  0  0  0  0  0
   40.6678   -6.0846   -9.2520 O   0  0  0  0  0  0  0  0  0  0  0  0
   39.6880   -7.5960   -7.8868 O   0  0  0  0  0  0  0  0  0  0  0  0
  2  1  1  6
  2  3  1  0
  4  5  1  0
  4  3  1  0
  5  6  2  0
  7  2  1  0
  8  7  2  0
  9  5  1  0
 10  7  1  0
 11 10  1  0
 11 12  1  1
 12 13  1  0
 13 17  1  0
 14 13  2  0
 15 16  2  0
 15 11  1  0
 18 15  1  0
 19 18  1  0
 19 20  1  6
 20 21  1  0
 21 22  2  0
 21 25  1  0
 22 23  1  0
 24 23  1  0
 25 24  2  0
 26 19  1  0
 27 26  1  0
 28 26  2  0
M  END
$$$$
