EDH.pdb
     RDKit          3D

 28 28  0  0  1  0  0  0  0  0999 V2000
   27.9768  -35.4359   -6.0358 N   0  0  0  0  0  0  0  0  0  0  0  0
   27.8934  -34.6990   -4.7659 C   0  0  1  0  0  0  0  0  0  0  0  0
   26.4154  -34.6566   -4.4578 C   0  0  0  0  0  0  0  0  0  0  0  0
   25.8521  -33.2805   -4.3891 C   0  0  0  0  0  0  0  0  0  0  0  0
   25.4255  -32.9967   -2.9944 C   0  0  0  0  0  0  0  0  0  0  0  0
   24.2260  -33.0614   -2.6520 O   0  0  0  0  0  0  0  0  0  0  0  0
   28.5629  -35.4873   -3.6960 C   0  0  0  0  0  0  0  0  0  0  0  0
   28.4008  -36.7182   -3.6063 O   0  0  0  0  0  0  0  0  0  0  0  0
   26.3946  -32.6537   -2.0643 O   0  0  0  0  0  0  0  0  0  0  0  0
   29.4252  -34.8754   -2.7171 N   0  0  0  0  0  0  0  0  0  0  0  0
   30.0411  -35.6638   -1.6686 C   0  0  1  0  0  0  0  0  0  0  0  0
   31.4366  -35.1646   -1.4075 C   0  0  0  0  0  0  0  0  0  0  0  0
   32.0705  -36.0101   -0.3703 C   0  0  0  0  0  0  0  0  0  0  0  0
   32.0087  -37.2887   -0.4383 O   0  0  0  0  0  0  0  0  0  0  0  0
   29.2446  -35.4504   -0.4097 C   0  0  0  0  0  0  0  0  0  0  0  0
   28.8391  -34.3220   -0.0448 O   0  0  0  0  0  0  0  0  0  0  0  0
   32.7632  -35.5361    0.7310 O   0  0  0  0  0  0  0  0  0  0  0  0
   28.9115  -36.5497    0.4390 N   0  0  0  0  0  0  0  0  0  0  0  0
   28.1587  -36.3958    1.6694 C   0  0  1  0  0  0  0  0  0  0  0  0
   27.3371  -37.6418    1.9660 C   0  0  0  0  0  0  0  0  0  0  0  0
   26.1552  -37.5999    1.0832 C   0  0  0  0  0  0  0  0  0  0  0  0
   25.3021  -36.5296    0.9491 C   0  0  0  0  0  0  0  0  0  0  0  0
   24.3757  -36.9380    0.0438 N   0  0  0  0  0  0  0  0  0  0  0  0
   24.6659  -38.1832   -0.3367 C   0  0  0  0  0  0  0  0  0  0  0  0
   25.7550  -38.6057    0.2910 N   0  0  0  0  0  0  0  0  0  0  0  0
   29.1543  -36.1751    2.7652 C   0  0  0  0  0  0  0  0  0  0  0  0
   28.7332  -36.0364    4.0827 O   0  0  0  0  0  0  0  0  0  0  0  0
   30.3917  -36.1064    2.5488 O   0  0  0  0  0  0  0  0  0  0  0  0
  2  1  1  6
  2  3  1  0
  4  5  1  0
  4  3  1  0
  5  6  2  0
  7  2  1  0
  8  7  2  0
  9  5  1  0
 10  7  1  0
 11 10  1  0
 11 12  1  1
 12 13  1  0
 13 17  1  0
 14 13  2  0
 15 16  2  0
 15 11  1  0
 18 15  1  0
 19 18  1  0
 19 20  1  1
 20 21  1  0
 21 22  2  0
 21 25  1  0
 22 23  1  0
 24 23  1  0
 25 24  2  0
 26 19  1  0
 27 26  1  0
 28 26  2  0
M  END
$$$$
