EDH.pdb
     RDKit          3D

 28 28  0  0  1  0  0  0  0  0999 V2000
   14.5158  -14.6582  -15.2745 N   0  0  0  0  0  0  0  0  0  0  0  0
   14.1441  -13.2418  -15.1402 C   0  0  1  0  0  0  0  0  0  0  0  0
   14.1903  -12.9856  -13.6524 C   0  0  0  0  0  0  0  0  0  0  0  0
   13.0165  -13.5219  -12.9105 C   0  0  0  0  0  0  0  0  0  0  0  0
   11.9041  -12.5393  -12.9806 C   0  0  0  0  0  0  0  0  0  0  0  0
   10.9944  -12.6417  -13.8303 O   0  0  0  0  0  0  0  0  0  0  0  0
   15.1867  -12.3974  -15.7839 C   0  0  0  0  0  0  0  0  0  0  0  0
   16.3516  -12.8114  -15.9280 O   0  0  0  0  0  0  0  0  0  0  0  0
   11.8914  -11.4906  -12.0739 O   0  0  0  0  0  0  0  0  0  0  0  0
   14.9071  -11.0700  -16.2699 N   0  0  0  0  0  0  0  0  0  0  0  0
   15.9111  -10.3123  -16.9896 C   0  0  1  0  0  0  0  0  0  0  0  0
   15.2437   -9.3350  -17.9193 C   0  0  0  0  0  0  0  0  0  0  0  0
   16.2766   -8.6485  -18.7281 C   0  0  0  0  0  0  0  0  0  0  0  0
   16.3098   -7.3691  -18.8008 O   0  0  0  0  0  0  0  0  0  0  0  0
   16.6895   -9.5122  -15.9802 C   0  0  0  0  0  0  0  0  0  0  0  0
   16.1793   -9.0682  -14.9250 O   0  0  0  0  0  0  0  0  0  0  0  0
   17.2687   -9.2814  -19.4580 O   0  0  0  0  0  0  0  0  0  0  0  0
   18.0719   -9.2202  -16.1887 N   0  0  0  0  0  0  0  0  0  0  0  0
   18.8567   -8.4218  -15.2664 C   0  0  1  0  0  0  0  0  0  0  0  0
   20.3350   -8.7686  -15.3657 C   0  0  0  0  0  0  0  0  0  0  0  0
   21.0584   -7.8321  -14.4838 C   0  0  0  0  0  0  0  0  0  0  0  0
   21.3292   -8.0444  -13.1522 C   0  0  0  0  0  0  0  0  0  0  0  0
   22.0026   -6.9336  -12.7558 N   0  0  0  0  0  0  0  0  0  0  0  0
   22.1232   -6.1090  -13.7973 C   0  0  0  0  0  0  0  0  0  0  0  0
   21.5496   -6.6441  -14.8666 N   0  0  0  0  0  0  0  0  0  0  0  0
   18.6482   -6.9883  -15.6438 C   0  0  0  0  0  0  0  0  0  0  0  0
   18.5972   -6.0021  -14.6654 O   0  0  0  0  0  0  0  0  0  0  0  0
   18.5123   -6.6181  -16.8384 O   0  0  0  0  0  0  0  0  0  0  0  0
  2  1  1  1
  2  3  1  0
  4  5  1  0
  4  3  1  0
  5  6  2  0
  7  2  1  0
  8  7  2  0
  9  5  1  0
 10  7  1  0
 11 10  1  0
 11 12  1  6
 12 13  1  0
 13 17  1  0
 14 13  2  0
 15 16  2  0
 15 11  1  0
 18 15  1  0
 19 18  1  0
 19 20  1  6
 20 21  1  0
 21 22  2  0
 21 25  1  0
 22 23  1  0
 24 23  1  0
 25 24  2  0
 26 19  1  0
 27 26  1  0
 28 26  2  0
M  END
$$$$
