EDH.pdb
     RDKit          3D

 28 28  0  0  1  0  0  0  0  0999 V2000
   17.8596  -20.5678  -19.6184 N   0  0  0  0  0  0  0  0  0  0  0  0
   18.3944  -19.2492  -19.2472 C   0  0  1  0  0  0  0  0  0  0  0  0
   18.5507  -18.5279  -20.5650 C   0  0  0  0  0  0  0  0  0  0  0  0
   19.6619  -19.0461  -21.4090 C   0  0  0  0  0  0  0  0  0  0  0  0
   20.4600  -17.9023  -21.9215 C   0  0  0  0  0  0  0  0  0  0  0  0
   20.1831  -16.7233  -21.6159 O   0  0  0  0  0  0  0  0  0  0  0  0
   17.3803  -18.5174  -18.4408 C   0  0  0  0  0  0  0  0  0  0  0  0
   16.1627  -18.6571  -18.6575 O   0  0  0  0  0  0  0  0  0  0  0  0
   21.5338  -18.1683  -22.7572 O   0  0  0  0  0  0  0  0  0  0  0  0
   17.7491  -17.6177  -17.3773 N   0  0  0  0  0  0  0  0  0  0  0  0
   16.7393  -16.9203  -16.6064 C   0  0  1  0  0  0  0  0  0  0  0  0
   16.9786  -17.1380  -15.1366 C   0  0  0  0  0  0  0  0  0  0  0  0
   16.4913  -18.4838  -14.7577 C   0  0  0  0  0  0  0  0  0  0  0  0
   15.2865  -18.8408  -15.0112 O   0  0  0  0  0  0  0  0  0  0  0  0
   16.8971  -15.4478  -16.8742 C   0  0  0  0  0  0  0  0  0  0  0  0
   18.0115  -14.8745  -16.8855 O   0  0  0  0  0  0  0  0  0  0  0  0
   17.2452  -19.4543  -14.1196 O   0  0  0  0  0  0  0  0  0  0  0  0
   15.7578  -14.6261  -17.1318 N   0  0  0  0  0  0  0  0  0  0  0  0
   15.8459  -13.1888  -17.3069 C   0  0  1  0  0  0  0  0  0  0  0  0
   14.5119  -12.6110  -17.7566 C   0  0  0  0  0  0  0  0  0  0  0  0
   14.3715  -12.9165  -19.1936 C   0  0  0  0  0  0  0  0  0  0  0  0
   15.3434  -13.4857  -19.9827 C   0  0  0  0  0  0  0  0  0  0  0  0
   14.7782  -13.5770  -21.2143 N   0  0  0  0  0  0  0  0  0  0  0  0
   13.5385  -13.0880  -21.1560 C   0  0  0  0  0  0  0  0  0  0  0  0
   13.2716  -12.6779  -19.9234 N   0  0  0  0  0  0  0  0  0  0  0  0
   16.2248  -12.6101  -15.9794 C   0  0  0  0  0  0  0  0  0  0  0  0
   17.0567  -11.4988  -15.9066 O   0  0  0  0  0  0  0  0  0  0  0  0
   15.8164  -13.0925  -14.8918 O   0  0  0  0  0  0  0  0  0  0  0  0
  2  1  1  6
  2  3  1  0
  4  5  1  0
  4  3  1  0
  5  6  2  0
  7  2  1  0
  8  7  2  0
  9  5  1  0
 10  7  1  0
 11 10  1  0
 11 12  1  1
 12 13  1  0
 13 17  1  0
 14 13  2  0
 15 16  2  0
 15 11  1  0
 18 15  1  0
 19 18  1  0
 19 20  1  1
 20 21  1  0
 21 22  2  0
 21 25  1  0
 22 23  1  0
 24 23  1  0
 25 24  2  0
 26 19  1  0
 27 26  1  0
 28 26  2  0
M  END
$$$$
