EDH.pdb
     RDKit          3D

 28 28  0  0  1  0  0  0  0  0999 V2000
   15.9706  -18.7768    3.2626 N   0  0  0  0  0  0  0  0  0  0  0  0
   15.6963  -19.9568    4.0963 C   0  0  1  0  0  0  0  0  0  0  0  0
   15.8194  -21.1216    3.1427 C   0  0  0  0  0  0  0  0  0  0  0  0
   14.6531  -21.2821    2.2317 C   0  0  0  0  0  0  0  0  0  0  0  0
   13.9924  -22.5837    2.5092 C   0  0  0  0  0  0  0  0  0  0  0  0
   12.7872  -22.6493    2.8308 O   0  0  0  0  0  0  0  0  0  0  0  0
   16.7638  -20.0905    5.1244 C   0  0  0  0  0  0  0  0  0  0  0  0
   17.8835  -19.5721    4.9607 O   0  0  0  0  0  0  0  0  0  0  0  0
   14.7462  -23.7425    2.4039 O   0  0  0  0  0  0  0  0  0  0  0  0
   16.5612  -20.8190    6.3510 N   0  0  0  0  0  0  0  0  0  0  0  0
   17.6078  -20.9039    7.3497 C   0  0  1  0  0  0  0  0  0  0  0  0
   17.1419  -20.2695    8.6325 C   0  0  0  0  0  0  0  0  0  0  0  0
   18.2763  -20.1994    9.5815 C   0  0  0  0  0  0  0  0  0  0  0  0
   19.4834  -20.1242    9.1567 O   0  0  0  0  0  0  0  0  0  0  0  0
   17.8518  -22.3618    7.6322 C   0  0  0  0  0  0  0  0  0  0  0  0
   16.9361  -23.2175    7.6283 O   0  0  0  0  0  0  0  0  0  0  0  0
   18.1630  -20.2080   10.9616 O   0  0  0  0  0  0  0  0  0  0  0  0
   19.1659  -22.8396    7.9226 N   0  0  0  0  0  0  0  0  0  0  0  0
   19.4587  -24.2380    8.1735 C   0  0  1  0  0  0  0  0  0  0  0  0
   20.3593  -24.8103    7.0886 C   0  0  0  0  0  0  0  0  0  0  0  0
   19.5504  -24.8973    5.8574 C   0  0  0  0  0  0  0  0  0  0  0  0
   18.5044  -25.7669    5.6547 C   0  0  0  0  0  0  0  0  0  0  0  0
   18.0665  -25.4931    4.3986 N   0  0  0  0  0  0  0  0  0  0  0  0
   18.8138  -24.5140    3.8864 C   0  0  0  0  0  0  0  0  0  0  0  0
   19.7297  -24.1358    4.7678 N   0  0  0  0  0  0  0  0  0  0  0  0
   20.1557  -24.3072    9.4964 C   0  0  0  0  0  0  0  0  0  0  0  0
   20.5515  -25.5320   10.0214 O   0  0  0  0  0  0  0  0  0  0  0  0
   20.4099  -23.2818   10.1795 O   0  0  0  0  0  0  0  0  0  0  0  0
  2  1  1  6
  2  3  1  0
  4  5  1  0
  4  3  1  0
  5  6  2  0
  7  2  1  0
  8  7  2  0
  9  5  1  0
 10  7  1  0
 11 10  1  0
 11 12  1  1
 12 13  1  0
 13 17  1  0
 14 13  2  0
 15 16  2  0
 15 11  1  0
 18 15  1  0
 19 18  1  0
 19 20  1  6
 20 21  1  0
 21 22  2  0
 21 25  1  0
 22 23  1  0
 24 23  1  0
 25 24  2  0
 26 19  1  0
 27 26  1  0
 28 26  2  0
M  END
$$$$
