VIP.pdb
     RDKit          3D

 23 23  0  0  1  0  0  0  0  0999 V2000
    8.0501  -19.7665   24.3633 C   0  0  0  0  0  0  0  0  0  0  0  0
    7.4970  -19.4326   25.7255 C   0  0  2  0  0  0  0  0  0  0  0  0
    7.4647  -20.6903   26.5397 C   0  0  0  0  0  0  0  0  0  0  0  0
    6.1436  -18.7819   25.6201 C   0  0  2  0  0  0  0  0  0  0  0  0
    5.1724  -19.6696   25.0620 N   0  0  0  0  0  0  0  0  0  0  0  0
    6.1935  -17.4892   24.8892 C   0  0  0  0  0  0  0  0  0  0  0  0
    5.6659  -17.3940   23.7537 O   0  0  0  0  0  0  0  0  0  0  0  0
    6.5544  -12.5491   27.5479 C   0  0  0  0  0  0  0  0  0  0  0  0
    6.0467  -13.5645   26.4955 C   0  0  0  0  0  0  0  0  0  0  0  0
    7.2180  -14.0042   25.7194 C   0  0  2  0  0  0  0  0  0  0  0  0
    7.9560  -12.8478   25.0598 C   0  0  0  0  0  0  0  0  0  0  0  0
    6.9752  -15.0826   24.6743 C   0  0  2  0  0  0  0  0  0  0  0  0
    6.8213  -16.3557   25.4380 N   0  0  0  0  0  0  0  0  0  0  0  0
    8.1293  -15.3286   23.7869 C   0  0  0  0  0  0  0  0  0  0  0  0
    9.0678  -16.0967   24.1773 O   0  0  0  0  0  0  0  0  0  0  0  0
    8.2818  -14.7693   22.4930 N   0  0  0  0  0  0  0  0  0  0  0  0
    7.5100  -13.6510   21.9754 C   0  0  0  0  0  0  0  0  0  0  0  0
    7.3396  -14.0360   20.5041 C   0  0  0  0  0  0  0  0  0  0  0  0
    8.7094  -14.5443   20.1803 C   0  0  0  0  0  0  0  0  0  0  0  0
    9.1919  -15.1905   21.4392 C   0  0  1  0  0  0  0  0  0  0  0  0
   10.5709  -14.7647   21.7799 C   0  0  0  0  0  0  0  0  0  0  0  0
   10.8091  -13.9420   22.6958 O   0  0  0  0  0  0  0  0  0  0  0  0
   11.6270  -15.2944   21.0615 O   0  0  0  0  0  0  0  0  0  0  0  0
  2  1  1  6
  2  3  1  0
  4  6  1  0
  4  2  1  0
  4  5  1  6
  6  7  2  0
  9  8  1  0
 10  9  1  0
 10 12  1  0
 10 11  1  6
 12 14  1  0
 13  6  1  0
 12 13  1  1
 14 16  1  0
 14 15  2  0
 16 17  1  0
 18 17  1  0
 19 18  1  0
 20 16  1  0
 20 19  1  0
 20 21  1  1
 22 21  2  0
 23 21  1  0
M  END
$$$$
