VIP.pdb
     RDKit          3D

 23 23  0  0  1  0  0  0  0  0999 V2000
    7.8752  -19.8678   24.1537 C   0  0  0  0  0  0  0  0  0  0  0  0
    7.4512  -19.5666   25.5688 C   0  0  2  0  0  0  0  0  0  0  0  0
    7.3943  -20.8583   26.3263 C   0  0  0  0  0  0  0  0  0  0  0  0
    6.1418  -18.8247   25.5996 C   0  0  2  0  0  0  0  0  0  0  0  0
    5.0714  -19.6200   25.0849 N   0  0  0  0  0  0  0  0  0  0  0  0
    6.2237  -17.5052   24.9212 C   0  0  0  0  0  0  0  0  0  0  0  0
    5.6862  -17.3472   23.7974 O   0  0  0  0  0  0  0  0  0  0  0  0
    6.8413  -12.6280   27.6790 C   0  0  0  0  0  0  0  0  0  0  0  0
    6.2841  -13.5994   26.6102 C   0  0  0  0  0  0  0  0  0  0  0  0
    7.4345  -14.0994   25.8393 C   0  0  2  0  0  0  0  0  0  0  0  0
    8.2539  -12.9810   25.2109 C   0  0  0  0  0  0  0  0  0  0  0  0
    7.1362  -15.1401   24.7707 C   0  0  2  0  0  0  0  0  0  0  0  0
    6.8933  -16.4152   25.5075 N   0  0  0  0  0  0  0  0  0  0  0  0
    8.2827  -15.4419   23.8907 C   0  0  0  0  0  0  0  0  0  0  0  0
    9.1703  -16.2693   24.2789 O   0  0  0  0  0  0  0  0  0  0  0  0
    8.4809  -14.8753   22.6062 N   0  0  0  0  0  0  0  0  0  0  0  0
    7.7528  -13.7312   22.0818 C   0  0  0  0  0  0  0  0  0  0  0  0
    7.6064  -14.0978   20.6032 C   0  0  0  0  0  0  0  0  0  0  0  0
    8.9688  -14.6411   20.3063 C   0  0  0  0  0  0  0  0  0  0  0  0
    9.4035  -15.3121   21.5697 C   0  0  1  0  0  0  0  0  0  0  0  0
   10.7854  -14.9280   21.9465 C   0  0  0  0  0  0  0  0  0  0  0  0
   11.0258  -14.1423   22.8938 O   0  0  0  0  0  0  0  0  0  0  0  0
   11.8418  -15.4556   21.2270 O   0  0  0  0  0  0  0  0  0  0  0  0
  2  1  1  6
  2  3  1  0
  4  6  1  0
  4  2  1  0
  4  5  1  6
  6  7  2  0
  9  8  1  0
 10  9  1  0
 10 12  1  0
 10 11  1  6
 12 14  1  0
 13  6  1  0
 12 13  1  1
 14 16  1  0
 14 15  2  0
 16 17  1  0
 18 17  1  0
 19 18  1  0
 20 16  1  0
 20 19  1  0
 20 21  1  1
 22 21  2  0
 23 21  1  0
M  END
$$$$
