VIP.pdb
     RDKit          3D

 23 23  0  0  1  0  0  0  0  0999 V2000
    8.2262  -19.7009   24.9797 C   0  0  0  0  0  0  0  0  0  0  0  0
    7.5311  -19.2988   26.2558 C   0  0  2  0  0  0  0  0  0  0  0  0
    7.4748  -20.4952   27.1562 C   0  0  0  0  0  0  0  0  0  0  0  0
    6.1675  -18.7254   25.9767 C   0  0  2  0  0  0  0  0  0  0  0  0
    5.3073  -19.6846   25.3578 N   0  0  0  0  0  0  0  0  0  0  0  0
    6.2343  -17.4615   25.1982 C   0  0  0  0  0  0  0  0  0  0  0  0
    5.8522  -17.4448   24.0022 O   0  0  0  0  0  0  0  0  0  0  0  0
    6.4130  -12.4372   27.7341 C   0  0  0  0  0  0  0  0  0  0  0  0
    5.9530  -13.4560   26.6632 C   0  0  0  0  0  0  0  0  0  0  0  0
    7.1608  -13.9170   25.9587 C   0  0  2  0  0  0  0  0  0  0  0  0
    7.9156  -12.7833   25.2789 C   0  0  0  0  0  0  0  0  0  0  0  0
    6.9736  -15.0443   24.9545 C   0  0  2  0  0  0  0  0  0  0  0  0
    6.7185  -16.2694   25.7680 N   0  0  0  0  0  0  0  0  0  0  0  0
    8.1896  -15.3678   24.1822 C   0  0  0  0  0  0  0  0  0  0  0  0
    9.1240  -16.0351   24.7343 O   0  0  0  0  0  0  0  0  0  0  0  0
    8.4083  -14.9920   22.8327 N   0  0  0  0  0  0  0  0  0  0  0  0
    7.6225  -14.0071   22.1071 C   0  0  0  0  0  0  0  0  0  0  0  0
    7.5786  -14.6087   20.7006 C   0  0  0  0  0  0  0  0  0  0  0  0
    8.9915  -15.0765   20.5447 C   0  0  0  0  0  0  0  0  0  0  0  0
    9.4122  -15.5057   21.9137 C   0  0  1  0  0  0  0  0  0  0  0  0
   10.7403  -14.9548   22.2766 C   0  0  0  0  0  0  0  0  0  0  0  0
   10.8722  -14.0117   23.0923 O   0  0  0  0  0  0  0  0  0  0  0  0
   11.8688  -15.5017   21.6940 O   0  0  0  0  0  0  0  0  0  0  0  0
  2  1  1  6
  2  3  1  0
  4  6  1  0
  4  2  1  0
  4  5  1  6
  6  7  2  0
  9  8  1  0
 10  9  1  0
 10 12  1  0
 10 11  1  6
 12 14  1  0
 13  6  1  0
 12 13  1  1
 14 16  1  0
 14 15  2  0
 16 17  1  0
 18 17  1  0
 19 18  1  0
 20 16  1  0
 20 19  1  0
 20 21  1  1
 22 21  2  0
 23 21  1  0
M  END
$$$$
