VIP.pdb
     RDKit          3D

 23 23  0  0  1  0  0  0  0  0999 V2000
    8.4841  -17.6906   20.1683 C   0  0  0  0  0  0  0  0  0  0  0  0
    8.9292  -17.0245   21.4456 C   0  0  2  0  0  0  0  0  0  0  0  0
    8.6137  -17.9419   22.5876 C   0  0  0  0  0  0  0  0  0  0  0  0
    8.2927  -15.6697   21.6046 C   0  0  2  0  0  0  0  0  0  0  0  0
    8.5079  -14.8465   20.4561 N   0  0  0  0  0  0  0  0  0  0  0  0
    8.7149  -14.9903   22.8568 C   0  0  0  0  0  0  0  0  0  0  0  0
    9.8010  -14.3610   22.8892 O   0  0  0  0  0  0  0  0  0  0  0  0
    5.1873  -12.2387   25.8845 C   0  0  0  0  0  0  0  0  0  0  0  0
    6.5111  -12.6054   25.1707 C   0  0  0  0  0  0  0  0  0  0  0  0
    7.0749  -13.7678   25.8768 C   0  0  2  0  0  0  0  0  0  0  0  0
    7.3036  -13.5034   27.3584 C   0  0  0  0  0  0  0  0  0  0  0  0
    8.3433  -14.3696   25.2910 C   0  0  2  0  0  0  0  0  0  0  0  0
    7.9248  -15.0317   24.0205 N   0  0  0  0  0  0  0  0  0  0  0  0
    8.9167  -15.4640   26.0993 C   0  0  0  0  0  0  0  0  0  0  0  0
    8.5061  -16.6567   25.9208 O   0  0  0  0  0  0  0  0  0  0  0  0
    9.9230  -15.2941   27.0835 N   0  0  0  0  0  0  0  0  0  0  0  0
   10.3379  -14.0142   27.6347 C   0  0  0  0  0  0  0  0  0  0  0  0
   11.8428  -14.2208   27.8208 C   0  0  0  0  0  0  0  0  0  0  0  0
   11.8748  -15.6098   28.3770 C   0  0  0  0  0  0  0  0  0  0  0  0
   10.7392  -16.3205   27.7132 C   0  0  1  0  0  0  0  0  0  0  0  0
    9.9167  -17.0724   28.6917 C   0  0  0  0  0  0  0  0  0  0  0  0
    8.7791  -16.6829   29.0475 O   0  0  0  0  0  0  0  0  0  0  0  0
   10.4243  -18.2417   29.2276 O   0  0  0  0  0  0  0  0  0  0  0  0
  2  1  1  6
  2  3  1  0
  4  6  1  0
  4  2  1  0
  4  5  1  6
  6  7  2  0
  9  8  1  0
 10  9  1  0
 10 12  1  0
 10 11  1  1
 12 14  1  0
 13  6  1  0
 12 13  1  6
 14 16  1  0
 14 15  2  0
 16 17  1  0
 18 17  1  0
 19 18  1  0
 20 16  1  0
 20 19  1  0
 20 21  1  1
 22 21  2  0
 23 21  1  0
M  END
$$$$
