VIP.pdb
     RDKit          3D

 23 23  0  0  1  0  0  0  0  0999 V2000
   10.5007  -17.7455   21.9470 C   0  0  0  0  0  0  0  0  0  0  0  0
    9.0495  -17.3972   21.7325 C   0  0  2  0  0  0  0  0  0  0  0  0
    8.5664  -18.1287   20.5172 C   0  0  0  0  0  0  0  0  0  0  0  0
    8.8567  -15.9084   21.6211 C   0  0  2  0  0  0  0  0  0  0  0  0
    9.5641  -15.3659   20.5039 N   0  0  0  0  0  0  0  0  0  0  0  0
    9.1918  -15.1991   22.8830 C   0  0  0  0  0  0  0  0  0  0  0  0
   10.2643  -14.5517   22.9687 O   0  0  0  0  0  0  0  0  0  0  0  0
    5.4241  -12.3521   25.5610 C   0  0  0  0  0  0  0  0  0  0  0  0
    6.8050  -12.7193   24.9654 C   0  0  0  0  0  0  0  0  0  0  0  0
    7.2935  -13.8971   25.7015 C   0  0  2  0  0  0  0  0  0  0  0  0
    7.3475  -13.6713   27.2059 C   0  0  0  0  0  0  0  0  0  0  0  0
    8.6261  -14.4760   25.2507 C   0  0  2  0  0  0  0  0  0  0  0  0
    8.3331  -15.2317   23.9974 N   0  0  0  0  0  0  0  0  0  0  0  0
    9.1791  -15.4928   26.1673 C   0  0  0  0  0  0  0  0  0  0  0  0
    8.9898  -16.7284   25.9206 O   0  0  0  0  0  0  0  0  0  0  0  0
    9.9330  -15.2001   27.3318 N   0  0  0  0  0  0  0  0  0  0  0  0
    9.9350  -13.9191   28.0196 C   0  0  0  0  0  0  0  0  0  0  0  0
   11.3914  -13.8053   28.4757 C   0  0  0  0  0  0  0  0  0  0  0  0
   11.6524  -15.1997   28.9523 C   0  0  0  0  0  0  0  0  0  0  0  0
   10.8466  -16.0766   28.0484 C   0  0  1  0  0  0  0  0  0  0  0  0
   10.0681  -17.0819   28.8116 C   0  0  0  0  0  0  0  0  0  0  0  0
    8.8247  -16.9984   28.9514 O   0  0  0  0  0  0  0  0  0  0  0  0
   10.7388  -18.1453   29.3870 O   0  0  0  0  0  0  0  0  0  0  0  0
  2  1  1  6
  2  3  1  0
  4  6  1  0
  4  2  1  0
  4  5  1  6
  6  7  2  0
  9  8  1  0
 10  9  1  0
 10 12  1  0
 10 11  1  1
 12 14  1  0
 13  6  1  0
 12 13  1  6
 14 16  1  0
 14 15  2  0
 16 17  1  0
 18 17  1  0
 19 18  1  0
 20 16  1  0
 20 19  1  0
 20 21  1  1
 22 21  2  0
 23 21  1  0
M  END
$$$$
