VIP.pdb
     RDKit          3D

 23 23  0  0  1  0  0  0  0  0999 V2000
   10.1477  -17.8705   21.9605 C   0  0  0  0  0  0  0  0  0  0  0  0
    8.7320  -17.4296   21.6875 C   0  0  2  0  0  0  0  0  0  0  0  0
    8.2051  -18.2309   20.5360 C   0  0  0  0  0  0  0  0  0  0  0  0
    8.6614  -15.9472   21.4355 C   0  0  2  0  0  0  0  0  0  0  0  0
    9.4517  -15.5646   20.3077 N   0  0  0  0  0  0  0  0  0  0  0  0
    9.0027  -15.1518   22.6432 C   0  0  0  0  0  0  0  0  0  0  0  0
   10.1301  -14.6062   22.7326 O   0  0  0  0  0  0  0  0  0  0  0  0
    5.7642  -11.9544   26.5960 C   0  0  0  0  0  0  0  0  0  0  0  0
    7.2084  -12.4212   26.2914 C   0  0  0  0  0  0  0  0  0  0  0  0
    7.1078  -13.5561   25.3589 C   0  0  2  0  0  0  0  0  0  0  0  0
    6.1789  -14.6519   25.8622 C   0  0  0  0  0  0  0  0  0  0  0  0
    8.4174  -14.1948   24.9215 C   0  0  2  0  0  0  0  0  0  0  0  0
    8.0896  -14.9898   23.7016 N   0  0  0  0  0  0  0  0  0  0  0  0
    8.9461  -15.1917   25.8736 C   0  0  0  0  0  0  0  0  0  0  0  0
    8.7279  -16.4303   25.6700 O   0  0  0  0  0  0  0  0  0  0  0  0
    9.7062  -14.8762   27.0281 N   0  0  0  0  0  0  0  0  0  0  0  0
    9.7042  -13.5850   27.6965 C   0  0  0  0  0  0  0  0  0  0  0  0
   11.1630  -13.4543   28.1402 C   0  0  0  0  0  0  0  0  0  0  0  0
   11.4372  -14.8395   28.6358 C   0  0  0  0  0  0  0  0  0  0  0  0
   10.6310  -15.7355   27.7511 C   0  0  1  0  0  0  0  0  0  0  0  0
    9.8651  -16.7344   28.5350 C   0  0  0  0  0  0  0  0  0  0  0  0
   10.4205  -17.6994   29.1119 O   0  0  0  0  0  0  0  0  0  0  0  0
    8.4928  -16.5942   28.6308 O   0  0  0  0  0  0  0  0  0  0  0  0
  2  1  1  6
  2  3  1  0
  4  6  1  0
  4  2  1  0
  4  5  1  6
  6  7  2  0
  9  8  1  0
 10  9  1  0
 10 12  1  0
 10 11  1  1
 12 14  1  0
 13  6  1  0
 12 13  1  6
 14 16  1  0
 14 15  2  0
 16 17  1  0
 18 17  1  0
 19 18  1  0
 20 16  1  0
 20 19  1  0
 20 21  1  1
 22 21  2  0
 23 21  1  0
M  END
$$$$
