VIP.pdb
     RDKit          3D

 23 23  0  0  1  0  0  0  0  0999 V2000
    4.8668  -18.2075   21.0488 C   0  0  0  0  0  0  0  0  0  0  0  0
    6.0421  -17.6307   21.7965 C   0  0  2  0  0  0  0  0  0  0  0  0
    6.1123  -18.2900   23.1404 C   0  0  0  0  0  0  0  0  0  0  0  0
    5.9426  -16.1320   21.8966 C   0  0  2  0  0  0  0  0  0  0  0  0
    5.8486  -15.5213   20.6077 N   0  0  0  0  0  0  0  0  0  0  0  0
    7.0420  -15.5454   22.7059 C   0  0  0  0  0  0  0  0  0  0  0  0
    8.1509  -15.3032   22.1689 O   0  0  0  0  0  0  0  0  0  0  0  0
    5.9038  -12.0017   26.7013 C   0  0  0  0  0  0  0  0  0  0  0  0
    6.5847  -12.6548   25.4740 C   0  0  0  0  0  0  0  0  0  0  0  0
    7.3137  -13.8368   25.9629 C   0  0  2  0  0  0  0  0  0  0  0  0
    8.3401  -13.4951   27.0338 C   0  0  0  0  0  0  0  0  0  0  0  0
    7.9842  -14.7058   24.9095 C   0  0  2  0  0  0  0  0  0  0  0  0
    6.8754  -15.2498   24.0715 N   0  0  0  0  0  0  0  0  0  0  0  0
    8.6489  -15.9055   25.4560 C   0  0  0  0  0  0  0  0  0  0  0  0
    7.9738  -16.7362   26.1471 O   0  0  0  0  0  0  0  0  0  0  0  0
   10.0170  -16.2241   25.2641 N   0  0  0  0  0  0  0  0  0  0  0  0
   10.9805  -15.3729   24.5849 C   0  0  0  0  0  0  0  0  0  0  0  0
   11.8551  -16.3982   23.8597 C   0  0  0  0  0  0  0  0  0  0  0  0
   12.0119  -17.4424   24.9202 C   0  0  0  0  0  0  0  0  0  0  0  0
   10.7186  -17.4321   25.6702 C   0  0  1  0  0  0  0  0  0  0  0  0
   10.9361  -17.4060   27.1369 C   0  0  0  0  0  0  0  0  0  0  0  0
   10.8003  -16.3593   27.8139 O   0  0  0  0  0  0  0  0  0  0  0  0
   11.3007  -18.5767   27.7760 O   0  0  0  0  0  0  0  0  0  0  0  0
  2  1  1  1
  2  3  1  0
  4  6  1  0
  4  2  1  0
  4  5  1  6
  6  7  2  0
  9  8  1  0
 10  9  1  0
 10 12  1  0
 10 11  1  1
 12 14  1  0
 13  6  1  0
 12 13  1  6
 14 16  1  0
 14 15  2  0
 16 17  1  0
 18 17  1  0
 19 18  1  0
 20 16  1  0
 20 19  1  0
 20 21  1  1
 22 21  2  0
 23 21  1  0
M  END
$$$$
