VIP.pdb
     RDKit          3D

 23 23  0  0  1  0  0  0  0  0999 V2000
    4.9854  -17.9968   20.7895 C   0  0  0  0  0  0  0  0  0  0  0  0
    6.1195  -17.4286   21.6043 C   0  0  2  0  0  0  0  0  0  0  0  0
    6.1456  -18.1328   22.9268 C   0  0  0  0  0  0  0  0  0  0  0  0
    5.9913  -15.9359   21.7510 C   0  0  2  0  0  0  0  0  0  0  0  0
    5.9289  -15.2834   20.4809 N   0  0  0  0  0  0  0  0  0  0  0  0
    7.0537  -15.3596   22.6153 C   0  0  0  0  0  0  0  0  0  0  0  0
    8.1893  -15.1236   22.1343 O   0  0  0  0  0  0  0  0  0  0  0  0
    5.7638  -11.7546   26.4840 C   0  0  0  0  0  0  0  0  0  0  0  0
    6.4600  -12.4709   25.3014 C   0  0  0  0  0  0  0  0  0  0  0  0
    7.1799  -13.6272   25.8603 C   0  0  2  0  0  0  0  0  0  0  0  0
    8.1670  -13.2361   26.9510 C   0  0  0  0  0  0  0  0  0  0  0  0
    7.8916  -14.5310   24.8648 C   0  0  2  0  0  0  0  0  0  0  0  0
    6.8223  -15.0671   23.9722 N   0  0  0  0  0  0  0  0  0  0  0  0
    8.4952  -15.7339   25.4717 C   0  0  0  0  0  0  0  0  0  0  0  0
    7.7697  -16.5158   26.1685 O   0  0  0  0  0  0  0  0  0  0  0  0
    9.8560  -16.1071   25.3338 N   0  0  0  0  0  0  0  0  0  0  0  0
   10.8864  -15.2804   24.7265 C   0  0  0  0  0  0  0  0  0  0  0  0
   11.7498  -16.3222   24.0115 C   0  0  0  0  0  0  0  0  0  0  0  0
   11.8109  -17.4023   25.0456 C   0  0  0  0  0  0  0  0  0  0  0  0
   10.4849  -17.3561   25.7347 C   0  0  1  0  0  0  0  0  0  0  0  0
   10.6331  -17.3818   27.2100 C   0  0  0  0  0  0  0  0  0  0  0  0
   10.8524  -18.4429   27.8411 O   0  0  0  0  0  0  0  0  0  0  0  0
   10.5253  -16.1941   27.9098 O   0  0  0  0  0  0  0  0  0  0  0  0
  2  1  1  6
  2  3  1  0
  4  6  1  0
  4  2  1  0
  4  5  1  6
  6  7  2  0
  9  8  1  0
 10  9  1  0
 10 12  1  0
 10 11  1  1
 12 14  1  0
 13  6  1  0
 12 13  1  6
 14 16  1  0
 14 15  2  0
 16 17  1  0
 18 17  1  0
 19 18  1  0
 20 16  1  0
 20 19  1  0
 20 21  1  1
 22 21  2  0
 23 21  1  0
M  END
$$$$
