VIP.pdb
     RDKit          3D

 23 23  0  0  1  0  0  0  0  0999 V2000
    8.4851  -19.7205   25.0763 C   0  0  0  0  0  0  0  0  0  0  0  0
    8.4359  -19.1557   26.4733 C   0  0  2  0  0  0  0  0  0  0  0  0
    8.8017  -20.2467   27.4333 C   0  0  0  0  0  0  0  0  0  0  0  0
    7.0878  -18.5561   26.7720 C   0  0  2  0  0  0  0  0  0  0  0  0
    6.0551  -19.5442   26.7584 N   0  0  0  0  0  0  0  0  0  0  0  0
    6.7680  -17.4119   25.8797 C   0  0  0  0  0  0  0  0  0  0  0  0
    5.9218  -17.5537   24.9628 O   0  0  0  0  0  0  0  0  0  0  0  0
    7.0483  -12.1768   27.5587 C   0  0  0  0  0  0  0  0  0  0  0  0
    6.4747  -13.3759   26.7652 C   0  0  0  0  0  0  0  0  0  0  0  0
    7.4983  -13.7741   25.7847 C   0  0  2  0  0  0  0  0  0  0  0  0
    7.8093  -12.6755   24.7780 C   0  0  0  0  0  0  0  0  0  0  0  0
    7.2460  -15.0684   25.0262 C   0  0  2  0  0  0  0  0  0  0  0  0
    7.3920  -16.1601   26.0335 N   0  0  0  0  0  0  0  0  0  0  0  0
    8.2689  -15.3754   24.0068 C   0  0  0  0  0  0  0  0  0  0  0  0
    9.3399  -15.9722   24.3533 O   0  0  0  0  0  0  0  0  0  0  0  0
    8.1521  -15.0579   22.6299 N   0  0  0  0  0  0  0  0  0  0  0  0
    7.1300  -14.1947   22.0605 C   0  0  0  0  0  0  0  0  0  0  0  0
    6.8485  -14.8767   20.7197 C   0  0  0  0  0  0  0  0  0  0  0  0
    8.2361  -15.2166   20.2741 C   0  0  0  0  0  0  0  0  0  0  0  0
    8.9835  -15.5256   21.5316 C   0  0  1  0  0  0  0  0  0  0  0  0
   10.2933  -14.8315   21.5750 C   0  0  0  0  0  0  0  0  0  0  0  0
   10.4679  -13.7741   22.2260 O   0  0  0  0  0  0  0  0  0  0  0  0
   11.3553  -15.3711   20.8729 O   0  0  0  0  0  0  0  0  0  0  0  0
  2  1  1  6
  2  3  1  0
  4  6  1  0
  4  2  1  0
  4  5  1  6
  6  7  2  0
  9  8  1  0
 10  9  1  0
 10 12  1  0
 10 11  1  6
 12 14  1  0
 13  6  1  0
 12 13  1  1
 14 16  1  0
 14 15  2  0
 16 17  1  0
 18 17  1  0
 19 18  1  0
 20 16  1  0
 20 19  1  0
 20 21  1  6
 22 21  2  0
 23 21  1  0
M  END
$$$$
