TFY.pdb
     RDKit          3D

 31 32  0  0  1  0  0  0  0  0999 V2000
   23.1811   -7.2475  -21.4149 C   0  0  0  0  0  0  0  0  0  0  0  0
   22.6370   -8.6329  -21.6846 C   0  0  1  0  0  0  0  0  0  0  0  0
   23.1689   -9.1059  -22.8962 O   0  0  0  0  0  0  0  0  0  0  0  0
   23.0303   -9.5743  -20.5401 C   0  0  2  0  0  0  0  0  0  0  0  0
   22.4518  -10.8715  -20.8675 N   0  0  0  0  0  0  0  0  0  0  0  0
   22.3479   -9.0766  -19.3156 C   0  0  0  0  0  0  0  0  0  0  0  0
   21.1068   -9.2546  -19.1722 O   0  0  0  0  0  0  0  0  0  0  0  0
   23.0435   -8.3957  -18.2778 N   0  0  0  0  0  0  0  0  0  0  0  0
   22.4322   -7.9230  -17.0688 C   0  0  1  0  0  0  0  0  0  0  0  0
   23.1072   -8.4403  -15.8269 C   0  0  0  0  0  0  0  0  0  0  0  0
   22.4785   -8.0075  -14.5814 C   0  0  0  0  0  0  0  0  0  0  0  0
   21.5447   -8.7979  -13.9483 C   0  0  0  0  0  0  0  0  0  0  0  0
   20.9366   -8.3953  -12.7575 C   0  0  0  0  0  0  0  0  0  0  0  0
   21.2523   -7.1885  -12.1742 C   0  0  0  0  0  0  0  0  0  0  0  0
   22.1852   -6.3957  -12.8040 C   0  0  0  0  0  0  0  0  0  0  0  0
   22.7843   -6.8048  -13.9878 C   0  0  0  0  0  0  0  0  0  0  0  0
   22.2475   -6.4499  -17.0529 C   0  0  0  0  0  0  0  0  0  0  0  0
   23.2661   -5.7476  -17.2816 O   0  0  0  0  0  0  0  0  0  0  0  0
   18.9760    1.7455  -17.2830 O   0  0  0  0  0  0  0  0  0  0  0  0
   19.1968    0.3938  -17.3657 C   0  0  0  0  0  0  0  0  0  0  0  0
   20.1711   -0.0905  -18.1964 C   0  0  0  0  0  0  0  0  0  0  0  0
   20.3803   -1.4557  -18.2675 C   0  0  0  0  0  0  0  0  0  0  0  0
   19.6584   -2.3587  -17.5452 C   0  0  0  0  0  0  0  0  0  0  0  0
   19.8322   -3.8230  -17.5885 C   0  0  0  0  0  0  0  0  0  0  0  0
   20.9547   -4.3419  -16.7478 C   0  0  2  0  0  0  0  0  0  0  0  0
   21.0235   -5.8048  -16.8020 N   0  0  0  0  0  0  0  0  0  0  0  0
   20.7797   -3.9713  -15.3283 C   0  0  0  0  0  0  0  0  0  0  0  0
   21.5553   -3.1435  -14.8056 O   0  0  0  0  0  0  0  0  0  0  0  0
   18.6646   -1.8612  -16.6980 C   0  0  0  0  0  0  0  0  0  0  0  0
   18.4590   -0.5018  -16.6293 C   0  0  0  0  0  0  0  0  0  0  0  0
   19.7833   -4.5088  -14.5493 O   0  0  0  0  0  0  0  0  0  0  0  0
  2  1  1  1
  2  3  1  0
  4  2  1  0
  4  5  1  6
  6  4  1  0
  6  7  2  0
  8  6  1  0
  9  8  1  0
  9 10  1  1
 11 10  1  0
 11 12  2  0
 13 12  1  0
 14 13  2  0
 15 16  2  0
 15 14  1  0
 16 11  1  0
 17  9  1  0
 18 17  2  0
 19 20  1  0
 20 30  2  0
 20 21  1  0
 21 22  2  0
 22 23  1  0
 23 24  1  0
 25 24  1  6
 25 27  1  0
 25 26  1  0
 26 17  1  0
 27 31  1  0
 28 27  2  0
 29 23  2  0
 30 29  1  0
M  END
$$$$
