TFY.pdb
     RDKit          3D

 31 32  0  0  1  0  0  0  0  0999 V2000
   30.2268  -22.7696  -10.8420 C   0  0  0  0  0  0  0  0  0  0  0  0
   28.9970  -22.1165  -11.4329 C   0  0  1  0  0  0  0  0  0  0  0  0
   28.0060  -22.0246  -10.4410 O   0  0  0  0  0  0  0  0  0  0  0  0
   29.3519  -20.7161  -11.9463 C   0  0  2  0  0  0  0  0  0  0  0  0
   29.7573  -19.9478  -10.7758 N   0  0  0  0  0  0  0  0  0  0  0  0
   28.0946  -20.1125  -12.4637 C   0  0  0  0  0  0  0  0  0  0  0  0
   27.5079  -19.2160  -11.7970 O   0  0  0  0  0  0  0  0  0  0  0  0
   27.5113  -20.5072  -13.7000 N   0  0  0  0  0  0  0  0  0  0  0  0
   26.3260  -19.9225  -14.2586 C   0  0  1  0  0  0  0  0  0  0  0  0
   26.3837  -19.7932  -15.7571 C   0  0  0  0  0  0  0  0  0  0  0  0
   27.1856  -18.6669  -16.2287 C   0  0  0  0  0  0  0  0  0  0  0  0
   26.8630  -17.3738  -15.8803 C   0  0  0  0  0  0  0  0  0  0  0  0
   27.6215  -16.2888  -16.3246 C   0  0  0  0  0  0  0  0  0  0  0  0
   28.7226  -16.4773  -17.1299 C   0  0  0  0  0  0  0  0  0  0  0  0
   29.0481  -17.7684  -17.4803 C   0  0  0  0  0  0  0  0  0  0  0  0
   28.2877  -18.8406  -17.0333 C   0  0  0  0  0  0  0  0  0  0  0  0
   25.0807  -20.5771  -13.7845 C   0  0  0  0  0  0  0  0  0  0  0  0
   25.0713  -21.8352  -13.7689 O   0  0  0  0  0  0  0  0  0  0  0  0
   17.1993  -22.1984  -10.0941 O   0  0  0  0  0  0  0  0  0  0  0  0
   18.3276  -21.5913  -10.5852 C   0  0  0  0  0  0  0  0  0  0  0  0
   18.3539  -21.1395  -11.8771 C   0  0  0  0  0  0  0  0  0  0  0  0
   19.4992  -20.5300  -12.3558 C   0  0  0  0  0  0  0  0  0  0  0  0
   20.6199  -20.3522  -11.6004 C   0  0  0  0  0  0  0  0  0  0  0  0
   21.8699  -19.7183  -12.0611 C   0  0  0  0  0  0  0  0  0  0  0  0
   22.7789  -20.6217  -12.8315 C   0  0  2  0  0  0  0  0  0  0  0  0
   23.9318  -19.8868  -13.3594 N   0  0  0  0  0  0  0  0  0  0  0  0
   22.0851  -21.2235  -13.9889 C   0  0  0  0  0  0  0  0  0  0  0  0
   21.9664  -20.5698  -15.0464 O   0  0  0  0  0  0  0  0  0  0  0  0
   20.5899  -20.8142  -10.2819 C   0  0  0  0  0  0  0  0  0  0  0  0
   19.4483  -21.4204   -9.8084 C   0  0  0  0  0  0  0  0  0  0  0  0
   21.5579  -22.4919  -13.9473 O   0  0  0  0  0  0  0  0  0  0  0  0
  2  1  1  1
  2  3  1  0
  4  2  1  0
  4  5  1  1
  6  4  1  0
  6  7  2  0
  8  6  1  0
  9  8  1  0
  9 10  1  6
 11 10  1  0
 11 12  2  0
 13 12  1  0
 14 13  2  0
 15 16  2  0
 15 14  1  0
 16 11  1  0
 17  9  1  0
 18 17  2  0
 19 20  1  0
 20 30  2  0
 20 21  1  0
 21 22  2  0
 22 23  1  0
 23 24  1  0
 25 24  1  6
 25 27  1  0
 25 26  1  0
 26 17  1  0
 27 31  1  0
 28 27  2  0
 29 23  2  0
 30 29  1  0
M  END
$$$$
