TFY.pdb
     RDKit          3D

 31 32  0  0  1  0  0  0  0  0999 V2000
   29.4586  -21.8891  -19.4503 C   0  0  0  0  0  0  0  0  0  0  0  0
   28.6620  -21.3110  -18.3017 C   0  0  1  0  0  0  0  0  0  0  0  0
   29.1810  -20.0466  -17.9752 O   0  0  0  0  0  0  0  0  0  0  0  0
   27.1894  -21.1808  -18.7081 C   0  0  2  0  0  0  0  0  0  0  0  0
   27.1361  -20.1088  -19.6944 N   0  0  0  0  0  0  0  0  0  0  0  0
   26.4469  -20.7186  -17.5049 C   0  0  0  0  0  0  0  0  0  0  0  0
   26.4248  -19.4908  -17.2140 O   0  0  0  0  0  0  0  0  0  0  0  0
   25.7464  -21.6145  -16.6498 N   0  0  0  0  0  0  0  0  0  0  0  0
   24.9820  -21.2093  -15.5050 C   0  0  1  0  0  0  0  0  0  0  0  0
   23.5658  -21.7184  -15.5330 C   0  0  0  0  0  0  0  0  0  0  0  0
   22.7400  -21.2469  -14.4241 C   0  0  0  0  0  0  0  0  0  0  0  0
   22.2889  -19.9461  -14.3811 C   0  0  0  0  0  0  0  0  0  0  0  0
   21.4991  -19.4833  -13.3266 C   0  0  0  0  0  0  0  0  0  0  0  0
   21.1436  -20.3170  -12.2897 C   0  0  0  0  0  0  0  0  0  0  0  0
   21.5926  -21.6179  -12.3291 C   0  0  0  0  0  0  0  0  0  0  0  0
   22.3775  -22.0685  -13.3820 C   0  0  0  0  0  0  0  0  0  0  0  0
   25.6709  -21.4932  -14.2209 C   0  0  0  0  0  0  0  0  0  0  0  0
   26.0549  -22.6765  -14.0321 O   0  0  0  0  0  0  0  0  0  0  0  0
   28.3742  -20.7055   -5.8005 O   0  0  0  0  0  0  0  0  0  0  0  0
   28.1130  -20.5245   -7.1354 C   0  0  0  0  0  0  0  0  0  0  0  0
   28.9309  -21.0913   -8.0753 C   0  0  0  0  0  0  0  0  0  0  0  0
   28.6531  -20.8987   -9.4163 C   0  0  0  0  0  0  0  0  0  0  0  0
   27.5937  -20.1642   -9.8596 C   0  0  0  0  0  0  0  0  0  0  0  0
   27.2557  -19.9189  -11.2746 C   0  0  0  0  0  0  0  0  0  0  0  0
   26.3670  -20.9518  -11.8905 C   0  0  2  0  0  0  0  0  0  0  0  0
   25.9153  -20.5352  -13.2210 N   0  0  0  0  0  0  0  0  0  0  0  0
   25.1556  -21.1750  -11.0747 C   0  0  0  0  0  0  0  0  0  0  0  0
   25.0715  -22.1957  -10.3599 O   0  0  0  0  0  0  0  0  0  0  0  0
   26.7604  -19.5870   -8.8977 C   0  0  0  0  0  0  0  0  0  0  0  0
   27.0397  -19.7808   -7.5637 C   0  0  0  0  0  0  0  0  0  0  0  0
   24.1029  -20.2916  -11.0712 O   0  0  0  0  0  0  0  0  0  0  0  0
  2  1  1  6
  2  3  1  0
  4  2  1  0
  4  5  1  6
  6  4  1  0
  6  7  2  0
  8  6  1  0
  9  8  1  0
  9 10  1  1
 11 10  1  0
 11 12  2  0
 13 12  1  0
 14 13  2  0
 15 16  2  0
 15 14  1  0
 16 11  1  0
 17  9  1  0
 18 17  2  0
 19 20  1  0
 20 30  2  0
 20 21  1  0
 21 22  2  0
 22 23  1  0
 23 24  1  0
 25 24  1  1
 25 27  1  0
 25 26  1  0
 26 17  1  0
 27 31  1  0
 28 27  2  0
 29 23  2  0
 30 29  1  0
M  END
$$$$
