TFY.pdb
     RDKit          3D

 31 32  0  0  1  0  0  0  0  0999 V2000
   27.3334  -18.9983  -16.1752 C   0  0  0  0  0  0  0  0  0  0  0  0
   27.4186  -20.2640  -16.9989 C   0  0  1  0  0  0  0  0  0  0  0  0
   28.1092  -19.9886  -18.1913 O   0  0  0  0  0  0  0  0  0  0  0  0
   28.1591  -21.3475  -16.2062 C   0  0  2  0  0  0  0  0  0  0  0  0
   28.0902  -22.5579  -17.0154 N   0  0  0  0  0  0  0  0  0  0  0  0
   27.3724  -21.5924  -14.9677 C   0  0  0  0  0  0  0  0  0  0  0  0
   26.4068  -22.4046  -14.9876 O   0  0  0  0  0  0  0  0  0  0  0  0
   27.6641  -20.9403  -13.7371 N   0  0  0  0  0  0  0  0  0  0  0  0
   26.9139  -21.1217  -12.5275 C   0  0  1  0  0  0  0  0  0  0  0  0
   27.7480  -20.9499  -11.2865 C   0  0  0  0  0  0  0  0  0  0  0  0
   26.9704  -20.8475  -10.0541 C   0  0  0  0  0  0  0  0  0  0  0  0
   25.6000  -20.9859  -10.0688 C   0  0  0  0  0  0  0  0  0  0  0  0
   24.8455  -20.8900   -8.8976 C   0  0  0  0  0  0  0  0  0  0  0  0
   25.4503  -20.6527   -7.6834 C   0  0  0  0  0  0  0  0  0  0  0  0
   26.8199  -20.5137   -7.6647 C   0  0  0  0  0  0  0  0  0  0  0  0
   27.5613  -20.6107   -8.8346 C   0  0  0  0  0  0  0  0  0  0  0  0
   25.6645  -20.3202  -12.4974 C   0  0  0  0  0  0  0  0  0  0  0  0
   25.7828  -19.0781  -12.6595 O   0  0  0  0  0  0  0  0  0  0  0  0
   18.9341  -17.8374  -17.0434 O   0  0  0  0  0  0  0  0  0  0  0  0
   19.9984  -18.4226  -16.4049 C   0  0  0  0  0  0  0  0  0  0  0  0
   20.0072  -19.7742  -16.1886 C   0  0  0  0  0  0  0  0  0  0  0  0
   21.0877  -20.3476  -15.5435 C   0  0  0  0  0  0  0  0  0  0  0  0
   22.1602  -19.6296  -15.1045 C   0  0  0  0  0  0  0  0  0  0  0  0
   23.3331  -20.1865  -14.4042 C   0  0  0  0  0  0  0  0  0  0  0  0
   23.2100  -20.2217  -12.9143 C   0  0  2  0  0  0  0  0  0  0  0  0
   24.3798  -20.8575  -12.3020 N   0  0  0  0  0  0  0  0  0  0  0  0
   22.0265  -20.9981  -12.4904 C   0  0  0  0  0  0  0  0  0  0  0  0
   22.0868  -22.2450  -12.4523 O   0  0  0  0  0  0  0  0  0  0  0  0
   22.1483  -18.2501  -15.3269 C   0  0  0  0  0  0  0  0  0  0  0  0
   21.0713  -17.6824  -15.9695 C   0  0  0  0  0  0  0  0  0  0  0  0
   20.8455  -20.3941  -12.1314 O   0  0  0  0  0  0  0  0  0  0  0  0
  2  1  1  1
  2  3  1  0
  4  2  1  0
  4  5  1  6
  6  4  1  0
  6  7  2  0
  8  6  1  0
  9  8  1  0
  9 10  1  1
 11 10  1  0
 11 12  2  0
 13 12  1  0
 14 13  2  0
 15 16  2  0
 15 14  1  0
 16 11  1  0
 17  9  1  0
 18 17  2  0
 19 20  1  0
 20 30  2  0
 20 21  1  0
 21 22  2  0
 22 23  1  0
 23 24  1  0
 25 24  1  6
 25 27  1  0
 25 26  1  0
 26 17  1  0
 27 31  1  0
 28 27  2  0
 29 23  2  0
 30 29  1  0
M  END
$$$$
