TFY.pdb
     RDKit          3D

 31 32  0  0  1  0  0  0  0  0999 V2000
   28.1201  -19.7738  -18.2555 C   0  0  0  0  0  0  0  0  0  0  0  0
   27.5617  -20.1095  -16.8904 C   0  0  1  0  0  0  0  0  0  0  0  0
   26.2391  -20.5617  -17.0352 O   0  0  0  0  0  0  0  0  0  0  0  0
   28.4170  -21.2010  -16.2364 C   0  0  2  0  0  0  0  0  0  0  0  0
   28.1791  -22.4157  -17.0063 N   0  0  0  0  0  0  0  0  0  0  0  0
   27.8683  -21.4222  -14.8716 C   0  0  0  0  0  0  0  0  0  0  0  0
   26.9861  -22.3050  -14.6851 O   0  0  0  0  0  0  0  0  0  0  0  0
   28.3006  -20.6694  -13.7442 N   0  0  0  0  0  0  0  0  0  0  0  0
   27.7178  -20.7637  -12.4364 C   0  0  1  0  0  0  0  0  0  0  0  0
   28.5584  -20.1150  -11.3695 C   0  0  0  0  0  0  0  0  0  0  0  0
   27.9735  -20.1717  -10.0322 C   0  0  0  0  0  0  0  0  0  0  0  0
   28.2168  -21.2408   -9.1984 C   0  0  0  0  0  0  0  0  0  0  0  0
   27.6635  -21.3068   -7.9179 C   0  0  0  0  0  0  0  0  0  0  0  0
   26.8522  -20.2997   -7.4446 C   0  0  0  0  0  0  0  0  0  0  0  0
   26.6067  -19.2294   -8.2752 C   0  0  0  0  0  0  0  0  0  0  0  0
   27.1615  -19.1730   -9.5467 C   0  0  0  0  0  0  0  0  0  0  0  0
   26.3012  -20.3208  -12.4024 C   0  0  0  0  0  0  0  0  0  0  0  0
   26.0477  -19.1908  -12.8945 O   0  0  0  0  0  0  0  0  0  0  0  0
   17.7444  -19.6006  -13.5386 O   0  0  0  0  0  0  0  0  0  0  0  0
   19.0341  -20.0420  -13.3817 C   0  0  0  0  0  0  0  0  0  0  0  0
   19.3132  -21.0315  -12.4781 C   0  0  0  0  0  0  0  0  0  0  0  0
   20.6186  -21.4644  -12.3327 C   0  0  0  0  0  0  0  0  0  0  0  0
   21.6578  -20.9517  -13.0505 C   0  0  0  0  0  0  0  0  0  0  0  0
   23.0679  -21.3683  -12.9303 C   0  0  0  0  0  0  0  0  0  0  0  0
   23.8669  -20.5828  -11.9399 C   0  0  2  0  0  0  0  0  0  0  0  0
   25.2449  -21.0757  -11.8624 N   0  0  0  0  0  0  0  0  0  0  0  0
   23.2946  -20.6886  -10.5819 C   0  0  0  0  0  0  0  0  0  0  0  0
   23.7252  -21.5587   -9.7960 O   0  0  0  0  0  0  0  0  0  0  0  0
   21.3697  -19.9417  -13.9724 C   0  0  0  0  0  0  0  0  0  0  0  0
   20.0693  -19.5132  -14.1148 C   0  0  0  0  0  0  0  0  0  0  0  0
   22.2934  -19.8559  -10.1430 O   0  0  0  0  0  0  0  0  0  0  0  0
  2  1  1  6
  2  3  1  0
  4  2  1  0
  4  5  1  6
  6  4  1  0
  6  7  2  0
  8  6  1  0
  9  8  1  0
  9 10  1  1
 11 10  1  0
 11 12  2  0
 13 12  1  0
 14 13  2  0
 15 16  2  0
 15 14  1  0
 16 11  1  0
 17  9  1  0
 18 17  2  0
 19 20  1  0
 20 30  2  0
 20 21  1  0
 21 22  2  0
 22 23  1  0
 23 24  1  0
 25 24  1  6
 25 27  1  0
 25 26  1  0
 26 17  1  0
 27 31  1  0
 28 27  2  0
 29 23  2  0
 30 29  1  0
M  END
$$$$
