TFY.pdb
     RDKit          3D

 31 32  0  0  1  0  0  0  0  0999 V2000
   26.4615   -6.7406  -18.7535 C   0  0  0  0  0  0  0  0  0  0  0  0
   26.4648   -7.9413  -19.6736 C   0  0  1  0  0  0  0  0  0  0  0  0
   27.4481   -7.7589  -20.6608 O   0  0  0  0  0  0  0  0  0  0  0  0
   26.7657   -9.2098  -18.8665 C   0  0  2  0  0  0  0  0  0  0  0  0
   26.7427  -10.3107  -19.8216 N   0  0  0  0  0  0  0  0  0  0  0  0
   25.6277   -9.4072  -17.9292 C   0  0  0  0  0  0  0  0  0  0  0  0
   24.5548   -9.9259  -18.3446 O   0  0  0  0  0  0  0  0  0  0  0  0
   25.6940   -9.0310  -16.5586 N   0  0  0  0  0  0  0  0  0  0  0  0
   24.6220   -9.2007  -15.6200 C   0  0  1  0  0  0  0  0  0  0  0  0
   25.0702   -9.8100  -14.3188 C   0  0  0  0  0  0  0  0  0  0  0  0
   25.5879  -11.1702  -14.4436 C   0  0  0  0  0  0  0  0  0  0  0  0
   26.9393  -11.4037  -14.5730 C   0  0  0  0  0  0  0  0  0  0  0  0
   27.4467  -12.6992  -14.6933 C   0  0  0  0  0  0  0  0  0  0  0  0
   26.6078  -13.7913  -14.6864 C   0  0  0  0  0  0  0  0  0  0  0  0
   25.2564  -13.5619  -14.5572 C   0  0  0  0  0  0  0  0  0  0  0  0
   24.7617  -12.2701  -14.4383 C   0  0  0  0  0  0  0  0  0  0  0  0
   23.8187   -7.9664  -15.4317 C   0  0  0  0  0  0  0  0  0  0  0  0
   24.3734   -7.0156  -14.8222 O   0  0  0  0  0  0  0  0  0  0  0  0
   18.4861   -1.1081  -16.3392 O   0  0  0  0  0  0  0  0  0  0  0  0
   19.1904   -2.2753  -16.4961 C   0  0  0  0  0  0  0  0  0  0  0  0
   18.5553   -3.4025  -16.9431 C   0  0  0  0  0  0  0  0  0  0  0  0
   19.2803   -4.5703  -17.0954 C   0  0  0  0  0  0  0  0  0  0  0  0
   20.6123   -4.6615  -16.8203 C   0  0  0  0  0  0  0  0  0  0  0  0
   21.4318   -5.8808  -16.9557 C   0  0  0  0  0  0  0  0  0  0  0  0
   21.7913   -6.5363  -15.6606 C   0  0  2  0  0  0  0  0  0  0  0  0
   22.4985   -7.7999  -15.8860 N   0  0  0  0  0  0  0  0  0  0  0  0
   20.5871   -6.8526  -14.8651 C   0  0  0  0  0  0  0  0  0  0  0  0
   19.9374   -5.9279  -14.3334 O   0  0  0  0  0  0  0  0  0  0  0  0
   21.2579   -3.5091  -16.3643 C   0  0  0  0  0  0  0  0  0  0  0  0
   20.5334   -2.3482  -16.2139 C   0  0  0  0  0  0  0  0  0  0  0  0
   20.1473   -8.1420  -14.6846 O   0  0  0  0  0  0  0  0  0  0  0  0
  2  1  1  1
  2  3  1  0
  4  2  1  0
  4  5  1  6
  6  4  1  0
  6  7  2  0
  8  6  1  0
  9  8  1  0
  9 10  1  1
 11 10  1  0
 11 12  2  0
 13 12  1  0
 14 13  2  0
 15 16  2  0
 15 14  1  0
 16 11  1  0
 17  9  1  0
 18 17  2  0
 19 20  1  0
 20 30  2  0
 20 21  1  0
 21 22  2  0
 22 23  1  0
 23 24  1  0
 25 24  1  6
 25 27  1  0
 25 26  1  0
 26 17  1  0
 27 31  1  0
 28 27  2  0
 29 23  2  0
 30 29  1  0
M  END
$$$$
