TFY.pdb
     RDKit          3D

 31 32  0  0  1  0  0  0  0  0999 V2000
   28.0023  -22.2568  -19.5719 C   0  0  0  0  0  0  0  0  0  0  0  0
   27.1974  -22.2829  -18.2914 C   0  0  1  0  0  0  0  0  0  0  0  0
   25.9775  -22.9379  -18.5307 O   0  0  0  0  0  0  0  0  0  0  0  0
   27.9823  -23.0243  -17.2028 C   0  0  2  0  0  0  0  0  0  0  0  0
   27.9197  -24.4381  -17.5521 N   0  0  0  0  0  0  0  0  0  0  0  0
   27.2334  -22.8447  -15.9301 C   0  0  0  0  0  0  0  0  0  0  0  0
   26.4343  -23.7401  -15.5402 O   0  0  0  0  0  0  0  0  0  0  0  0
   27.3793  -21.6870  -15.1159 N   0  0  0  0  0  0  0  0  0  0  0  0
   26.7287  -21.5003  -13.8507 C   0  0  1  0  0  0  0  0  0  0  0  0
   27.5117  -20.6240  -12.9101 C   0  0  0  0  0  0  0  0  0  0  0  0
   26.9107  -20.4829  -11.5862 C   0  0  0  0  0  0  0  0  0  0  0  0
   27.1124  -21.4361  -10.6124 C   0  0  0  0  0  0  0  0  0  0  0  0
   26.5433  -21.3127   -9.3431 C   0  0  0  0  0  0  0  0  0  0  0  0
   25.7578  -20.2282   -9.0220 C   0  0  0  0  0  0  0  0  0  0  0  0
   25.5539  -19.2733   -9.9927 C   0  0  0  0  0  0  0  0  0  0  0  0
   26.1240  -19.4051  -11.2518 C   0  0  0  0  0  0  0  0  0  0  0  0
   25.3120  -21.0778  -13.9868 C   0  0  0  0  0  0  0  0  0  0  0  0
   25.0632  -20.1948  -14.8479 O   0  0  0  0  0  0  0  0  0  0  0  0
   17.9858  -16.9357  -13.9334 O   0  0  0  0  0  0  0  0  0  0  0  0
   19.1882  -17.5717  -13.7529 C   0  0  0  0  0  0  0  0  0  0  0  0
   19.4964  -18.1197  -12.5371 C   0  0  0  0  0  0  0  0  0  0  0  0
   20.7126  -18.7571  -12.3726 C   0  0  0  0  0  0  0  0  0  0  0  0
   21.6350  -18.8707  -13.3699 C   0  0  0  0  0  0  0  0  0  0  0  0
   22.9490  -19.5304  -13.2481 C   0  0  0  0  0  0  0  0  0  0  0  0
   22.9072  -21.0225  -13.3371 C   0  0  2  0  0  0  0  0  0  0  0  0
   24.2508  -21.5967  -13.2241 N   0  0  0  0  0  0  0  0  0  0  0  0
   22.3556  -21.4690  -14.6331 C   0  0  0  0  0  0  0  0  0  0  0  0
   23.0059  -21.2741  -15.6814 O   0  0  0  0  0  0  0  0  0  0  0  0
   21.3175  -18.3104  -14.6100 C   0  0  0  0  0  0  0  0  0  0  0  0
   20.1059  -17.6768  -14.7705 C   0  0  0  0  0  0  0  0  0  0  0  0
   21.1383  -22.0990  -14.7320 O   0  0  0  0  0  0  0  0  0  0  0  0
  2  1  1  6
  2  3  1  0
  4  2  1  0
  4  5  1  6
  6  4  1  0
  6  7  2  0
  8  6  1  0
  9  8  1  0
  9 10  1  1
 11 10  1  0
 11 12  2  0
 13 12  1  0
 14 13  2  0
 15 16  2  0
 15 14  1  0
 16 11  1  0
 17  9  1  0
 18 17  2  0
 19 20  1  0
 20 30  2  0
 20 21  1  0
 21 22  2  0
 22 23  1  0
 23 24  1  0
 25 24  1  6
 25 27  1  0
 25 26  1  0
 26 17  1  0
 27 31  1  0
 28 27  2  0
 29 23  2  0
 30 29  1  0
M  END
$$$$
