TFY.pdb
     RDKit          3D

 31 32  0  0  1  0  0  0  0  0999 V2000
   29.0140  -18.2726  -14.8301 C   0  0  0  0  0  0  0  0  0  0  0  0
   27.8468  -19.0437  -14.2547 C   0  0  1  0  0  0  0  0  0  0  0  0
   26.8189  -19.0998  -15.2112 O   0  0  0  0  0  0  0  0  0  0  0  0
   28.2956  -20.4632  -13.8882 C   0  0  2  0  0  0  0  0  0  0  0  0
   28.5546  -21.1433  -15.1511 N   0  0  0  0  0  0  0  0  0  0  0  0
   27.1320  -21.1344  -13.2493 C   0  0  0  0  0  0  0  0  0  0  0  0
   26.3507  -21.8367  -13.9485 O   0  0  0  0  0  0  0  0  0  0  0  0
   26.8535  -21.0188  -11.8588 N   0  0  0  0  0  0  0  0  0  0  0  0
   25.6864  -21.5561  -11.2199 C   0  0  1  0  0  0  0  0  0  0  0  0
   25.9202  -21.9216   -9.7786 C   0  0  0  0  0  0  0  0  0  0  0  0
   26.7128  -20.9446   -9.0361 C   0  0  0  0  0  0  0  0  0  0  0  0
   26.1204  -19.8387   -8.4673 C   0  0  0  0  0  0  0  0  0  0  0  0
   26.8671  -18.8976   -7.7552 C   0  0  0  0  0  0  0  0  0  0  0  0
   28.2271  -19.0455   -7.5977 C   0  0  0  0  0  0  0  0  0  0  0  0
   28.8227  -20.1496   -8.1648 C   0  0  0  0  0  0  0  0  0  0  0  0
   28.0717  -21.0798   -8.8710 C   0  0  0  0  0  0  0  0  0  0  0  0
   24.4820  -20.7095  -11.4114 C   0  0  0  0  0  0  0  0  0  0  0  0
   24.6067  -19.4815  -11.1671 O   0  0  0  0  0  0  0  0  0  0  0  0
   22.1752  -22.9613  -17.8464 O   0  0  0  0  0  0  0  0  0  0  0  0
   22.2068  -22.1274  -16.7571 C   0  0  0  0  0  0  0  0  0  0  0  0
   23.3940  -21.5847  -16.3455 C   0  0  0  0  0  0  0  0  0  0  0  0
   23.4078  -20.7464  -15.2457 C   0  0  0  0  0  0  0  0  0  0  0  0
   22.2870  -20.4266  -14.5387 C   0  0  0  0  0  0  0  0  0  0  0  0
   22.2447  -19.5470  -13.3551 C   0  0  0  0  0  0  0  0  0  0  0  0
   22.1149  -20.2652  -12.0499 C   0  0  2  0  0  0  0  0  0  0  0  0
   23.2326  -21.1900  -11.8418 N   0  0  0  0  0  0  0  0  0  0  0  0
   20.8759  -21.0685  -11.9987 C   0  0  0  0  0  0  0  0  0  0  0  0
   20.9491  -22.3117  -11.9040 O   0  0  0  0  0  0  0  0  0  0  0  0
   21.0764  -20.9821  -14.9614 C   0  0  0  0  0  0  0  0  0  0  0  0
   21.0662  -21.8161  -16.0566 C   0  0  0  0  0  0  0  0  0  0  0  0
   19.6287  -20.4939  -12.0519 O   0  0  0  0  0  0  0  0  0  0  0  0
  2  1  1  6
  2  3  1  0
  4  2  1  0
  4  5  1  6
  6  4  1  0
  6  7  2  0
  8  6  1  0
  9  8  1  0
  9 10  1  1
 11 10  1  0
 11 12  2  0
 13 12  1  0
 14 13  2  0
 15 16  2  0
 15 14  1  0
 16 11  1  0
 17  9  1  0
 18 17  2  0
 19 20  1  0
 20 30  2  0
 20 21  1  0
 21 22  2  0
 22 23  1  0
 23 24  1  0
 25 24  1  6
 25 27  1  0
 25 26  1  0
 26 17  1  0
 27 31  1  0
 28 27  2  0
 29 23  2  0
 30 29  1  0
M  END
$$$$
