TFY.pdb
     RDKit          3D

 31 32  0  0  1  0  0  0  0  0999 V2000
   25.6997  -21.3072  -18.3477 C   0  0  0  0  0  0  0  0  0  0  0  0
   26.6469  -22.4629  -18.5829 C   0  0  1  0  0  0  0  0  0  0  0  0
   27.2331  -22.3233  -19.8523 O   0  0  0  0  0  0  0  0  0  0  0  0
   27.7358  -22.4663  -17.5035 C   0  0  2  0  0  0  0  0  0  0  0  0
   28.4957  -23.6945  -17.7006 N   0  0  0  0  0  0  0  0  0  0  0  0
   27.0445  -22.5741  -16.1908 C   0  0  0  0  0  0  0  0  0  0  0  0
   26.5183  -23.6682  -15.8463 O   0  0  0  0  0  0  0  0  0  0  0  0
   26.9472  -21.4790  -15.2876 N   0  0  0  0  0  0  0  0  0  0  0  0
   26.2033  -21.5055  -14.0609 C   0  0  1  0  0  0  0  0  0  0  0  0
   26.7634  -20.5814  -13.0130 C   0  0  0  0  0  0  0  0  0  0  0  0
   26.0480  -20.6191  -11.7400 C   0  0  0  0  0  0  0  0  0  0  0  0
   24.9267  -19.8455  -11.5355 C   0  0  0  0  0  0  0  0  0  0  0  0
   24.2341  -19.8725  -10.3232 C   0  0  0  0  0  0  0  0  0  0  0  0
   24.6520  -20.6777   -9.2871 C   0  0  0  0  0  0  0  0  0  0  0  0
   25.7724  -21.4523   -9.4877 C   0  0  0  0  0  0  0  0  0  0  0  0
   26.4541  -21.4184  -10.6967 C   0  0  0  0  0  0  0  0  0  0  0  0
   24.7440  -21.3260  -14.2666 C   0  0  0  0  0  0  0  0  0  0  0  0
   24.3836  -20.3163  -14.9253 O   0  0  0  0  0  0  0  0  0  0  0  0
   15.9194  -22.2062  -14.1509 O   0  0  0  0  0  0  0  0  0  0  0  0
   17.2740  -22.4147  -14.0830 C   0  0  0  0  0  0  0  0  0  0  0  0
   18.0475  -22.2549  -15.2009 C   0  0  0  0  0  0  0  0  0  0  0  0
   19.4110  -22.4692  -15.1147 C   0  0  0  0  0  0  0  0  0  0  0  0
   20.0359  -22.8365  -13.9602 C   0  0  0  0  0  0  0  0  0  0  0  0
   21.4823  -23.0866  -13.8132 C   0  0  0  0  0  0  0  0  0  0  0  0
   22.3382  -21.8638  -13.9051 C   0  0  2  0  0  0  0  0  0  0  0  0
   23.7585  -22.2018  -13.7778 N   0  0  0  0  0  0  0  0  0  0  0  0
   22.0250  -20.9054  -12.8251 C   0  0  0  0  0  0  0  0  0  0  0  0
   22.4682  -21.1045  -11.6746 O   0  0  0  0  0  0  0  0  0  0  0  0
   19.2436  -22.9987  -12.8206 C   0  0  0  0  0  0  0  0  0  0  0  0
   17.8867  -22.7845  -12.9098 C   0  0  0  0  0  0  0  0  0  0  0  0
   21.2545  -19.7878  -13.0395 O   0  0  0  0  0  0  0  0  0  0  0  0
  2  1  1  1
  2  3  1  0
  4  2  1  0
  4  5  1  6
  6  4  1  0
  6  7  2  0
  8  6  1  0
  9  8  1  0
  9 10  1  1
 11 10  1  0
 11 12  2  0
 13 12  1  0
 14 13  2  0
 15 16  2  0
 15 14  1  0
 16 11  1  0
 17  9  1  0
 18 17  2  0
 19 20  1  0
 20 30  2  0
 20 21  1  0
 21 22  2  0
 22 23  1  0
 23 24  1  0
 25 24  1  1
 25 27  1  0
 25 26  1  0
 26 17  1  0
 27 31  1  0
 28 27  2  0
 29 23  2  0
 30 29  1  0
M  END
$$$$
