TFY.pdb
     RDKit          3D

 31 32  0  0  1  0  0  0  0  0999 V2000
   27.4528  -21.3176  -17.6574 C   0  0  0  0  0  0  0  0  0  0  0  0
   26.7513  -21.2301  -16.3201 C   0  0  1  0  0  0  0  0  0  0  0  0
   25.3680  -21.1100  -16.5358 O   0  0  0  0  0  0  0  0  0  0  0  0
   27.0433  -22.4922  -15.4999 C   0  0  2  0  0  0  0  0  0  0  0  0
   26.2884  -23.5674  -16.1313 N   0  0  0  0  0  0  0  0  0  0  0  0
   26.4640  -22.2737  -14.1474 C   0  0  0  0  0  0  0  0  0  0  0  0
   25.3460  -22.7802  -13.8539 O   0  0  0  0  0  0  0  0  0  0  0  0
   27.1252  -21.5048  -13.1493 N   0  0  0  0  0  0  0  0  0  0  0  0
   26.6075  -21.2730  -11.8313 C   0  0  1  0  0  0  0  0  0  0  0  0
   27.6777  -20.9257  -10.8315 C   0  0  0  0  0  0  0  0  0  0  0  0
   27.1714  -20.6306   -9.4934 C   0  0  0  0  0  0  0  0  0  0  0  0
   27.3480  -21.5215   -8.4577 C   0  0  0  0  0  0  0  0  0  0  0  0
   26.8686  -21.2510   -7.1743 C   0  0  0  0  0  0  0  0  0  0  0  0
   26.2001  -20.0785   -6.9010 C   0  0  0  0  0  0  0  0  0  0  0  0
   26.0217  -19.1856   -7.9336 C   0  0  0  0  0  0  0  0  0  0  0  0
   26.5020  -19.4636   -9.2062 C   0  0  0  0  0  0  0  0  0  0  0  0
   25.4730  -20.3156  -11.8167 C   0  0  0  0  0  0  0  0  0  0  0  0
   25.7124  -19.1457  -12.2132 O   0  0  0  0  0  0  0  0  0  0  0  0
   18.7968  -17.6205  -16.2893 O   0  0  0  0  0  0  0  0  0  0  0  0
   19.8253  -18.2043  -15.5935 C   0  0  0  0  0  0  0  0  0  0  0  0
   19.8247  -18.1817  -14.2249 C   0  0  0  0  0  0  0  0  0  0  0  0
   20.8691  -18.7749  -13.5394 C   0  0  0  0  0  0  0  0  0  0  0  0
   21.9147  -19.3896  -14.1615 C   0  0  0  0  0  0  0  0  0  0  0  0
   23.0575  -20.0293  -13.4823 C   0  0  0  0  0  0  0  0  0  0  0  0
   23.0130  -19.9591  -11.9892 C   0  0  2  0  0  0  0  0  0  0  0  0
   24.1701  -20.6330  -11.3936 N   0  0  0  0  0  0  0  0  0  0  0  0
   21.8060  -20.6230  -11.4550 C   0  0  0  0  0  0  0  0  0  0  0  0
   20.9797  -19.9619  -10.7915 O   0  0  0  0  0  0  0  0  0  0  0  0
   21.9125  -19.4113  -15.5588 C   0  0  0  0  0  0  0  0  0  0  0  0
   20.8713  -18.8200  -16.2381 C   0  0  0  0  0  0  0  0  0  0  0  0
   21.5527  -21.9577  -11.6623 O   0  0  0  0  0  0  0  0  0  0  0  0
  2  1  1  6
  2  3  1  0
  4  2  1  0
  4  5  1  6
  6  4  1  0
  6  7  2  0
  8  6  1  0
  9  8  1  0
  9 10  1  1
 11 10  1  0
 11 12  2  0
 13 12  1  0
 14 13  2  0
 15 16  2  0
 15 14  1  0
 16 11  1  0
 17  9  1  0
 18 17  2  0
 19 20  1  0
 20 30  2  0
 20 21  1  0
 21 22  2  0
 22 23  1  0
 23 24  1  0
 25 24  1  6
 25 27  1  0
 25 26  1  0
 26 17  1  0
 27 31  1  0
 28 27  2  0
 29 23  2  0
 30 29  1  0
M  END
$$$$
