TFY.pdb
     RDKit          3D

 31 32  0  0  1  0  0  0  0  0999 V2000
   28.3083  -19.2767  -20.0796 C   0  0  0  0  0  0  0  0  0  0  0  0
   27.5993  -19.7930  -18.8472 C   0  0  1  0  0  0  0  0  0  0  0  0
   26.4862  -20.5532  -19.2441 O   0  0  0  0  0  0  0  0  0  0  0  0
   28.5583  -20.6627  -18.0258 C   0  0  2  0  0  0  0  0  0  0  0  0
   28.7898  -21.8654  -18.8161 N   0  0  0  0  0  0  0  0  0  0  0  0
   27.8282  -21.0699  -16.7954 C   0  0  0  0  0  0  0  0  0  0  0  0
   27.1884  -22.1575  -16.7760 O   0  0  0  0  0  0  0  0  0  0  0  0
   27.8175  -20.2741  -15.6160 N   0  0  0  0  0  0  0  0  0  0  0  0
   27.0592  -20.5836  -14.4378 C   0  0  1  0  0  0  0  0  0  0  0  0
   27.6428  -19.9820  -13.1876 C   0  0  0  0  0  0  0  0  0  0  0  0
   26.8726  -20.2569  -11.9772 C   0  0  0  0  0  0  0  0  0  0  0  0
   27.0543  -21.4270  -11.2735 C   0  0  0  0  0  0  0  0  0  0  0  0
   26.3242  -21.7015  -10.1152 C   0  0  0  0  0  0  0  0  0  0  0  0
   25.3938  -20.8064   -9.6362 C   0  0  0  0  0  0  0  0  0  0  0  0
   25.2093  -19.6357  -10.3369 C   0  0  0  0  0  0  0  0  0  0  0  0
   25.9401  -19.3719  -11.4875 C   0  0  0  0  0  0  0  0  0  0  0  0
   25.6104  -20.2985  -14.5923 C   0  0  0  0  0  0  0  0  0  0  0  0
   25.2969  -19.1394  -14.9684 O   0  0  0  0  0  0  0  0  0  0  0  0
   16.9308  -20.6639  -15.9214 O   0  0  0  0  0  0  0  0  0  0  0  0
   18.2717  -20.9256  -15.7943 C   0  0  0  0  0  0  0  0  0  0  0  0
   19.1650  -20.3562  -16.6611 C   0  0  0  0  0  0  0  0  0  0  0  0
   20.5128  -20.6308  -16.5187 C   0  0  0  0  0  0  0  0  0  0  0  0
   21.0077  -21.4500  -15.5479 C   0  0  0  0  0  0  0  0  0  0  0  0
   22.4315  -21.7845  -15.3554 C   0  0  0  0  0  0  0  0  0  0  0  0
   23.1803  -20.8362  -14.4744 C   0  0  2  0  0  0  0  0  0  0  0  0
   24.5862  -21.2303  -14.3476 N   0  0  0  0  0  0  0  0  0  0  0  0
   22.6156  -20.8099  -13.1093 C   0  0  0  0  0  0  0  0  0  0  0  0
   21.9671  -19.8130  -12.7280 O   0  0  0  0  0  0  0  0  0  0  0  0
   20.0934  -22.0297  -14.6643 C   0  0  0  0  0  0  0  0  0  0  0  0
   18.7523  -21.7542  -14.8088 C   0  0  0  0  0  0  0  0  0  0  0  0
   22.7778  -21.8537  -12.2303 O   0  0  0  0  0  0  0  0  0  0  0  0
  2  1  1  6
  2  3  1  0
  4  2  1  0
  4  5  1  6
  6  4  1  0
  6  7  2  0
  8  6  1  0
  9  8  1  0
  9 10  1  1
 11 10  1  0
 11 12  2  0
 13 12  1  0
 14 13  2  0
 15 16  2  0
 15 14  1  0
 16 11  1  0
 17  9  1  0
 18 17  2  0
 19 20  1  0
 20 30  2  0
 20 21  1  0
 21 22  2  0
 22 23  1  0
 23 24  1  0
 25 24  1  6
 25 27  1  0
 25 26  1  0
 26 17  1  0
 27 31  1  0
 28 27  2  0
 29 23  2  0
 30 29  1  0
M  END
$$$$
