FRR.pdb
     RDKit          3D

 34 34  0  0  1  0  0  0  0  0999 V2000
   28.3667  -20.4045   -9.0807 N   0  0  0  0  0  0  0  0  0  0  0  0
   26.9763  -20.8015   -9.0074 C   0  0  1  0  0  0  0  0  0  0  0  0
   26.4009  -20.2649   -7.7222 C   0  0  0  0  0  0  0  0  0  0  0  0
   27.5064  -20.1440   -6.7501 C   0  0  0  0  0  0  0  0  0  0  0  0
   28.1811  -21.2907   -6.3337 C   0  0  0  0  0  0  0  0  0  0  0  0
   29.2103  -21.1436   -5.4251 C   0  0  0  0  0  0  0  0  0  0  0  0
   29.5696  -19.9145   -4.9378 C   0  0  0  0  0  0  0  0  0  0  0  0
   28.9129  -18.7776   -5.3403 C   0  0  0  0  0  0  0  0  0  0  0  0
   27.8884  -18.9318   -6.2460 C   0  0  0  0  0  0  0  0  0  0  0  0
   26.1911  -20.2867  -10.1711 C   0  0  0  0  0  0  0  0  0  0  0  0
   26.1103  -19.0602  -10.4178 O   0  0  0  0  0  0  0  0  0  0  0  0
   29.1229  -22.7209  -15.1978 N   0  0  0  0  0  0  0  0  0  0  0  0
   27.7507  -23.0166  -15.4178 C   0  0  0  0  0  0  0  0  0  0  0  0
   27.3648  -24.2557  -15.5960 N   0  0  0  0  0  0  0  0  0  0  0  0
   26.7443  -22.0169  -15.4578 N   0  0  0  0  0  0  0  0  0  0  0  0
   27.0252  -20.6296  -15.0925 C   0  0  0  0  0  0  0  0  0  0  0  0
   26.5311  -20.3307  -13.7090 C   0  0  0  0  0  0  0  0  0  0  0  0
   25.2303  -21.0516  -13.4471 C   0  0  0  0  0  0  0  0  0  0  0  0
   24.6192  -20.6965  -12.1135 C   0  0  2  0  0  0  0  0  0  0  0  0
   25.5058  -21.1703  -11.0434 N   0  0  0  0  0  0  0  0  0  0  0  0
   23.3647  -21.5068  -11.9809 C   0  0  0  0  0  0  0  0  0  0  0  0
   23.5021  -22.7212  -11.6934 O   0  0  0  0  0  0  0  0  0  0  0  0
   26.3266  -24.4610  -15.6177 N   0  0  0  0  0  0  0  0  0  0  0  0
   15.9559  -23.1616  -10.1786 C   0  0  0  0  0  0  0  0  0  0  0  0
   15.4955  -21.9902  -10.8732 N   0  0  0  0  0  0  0  0  0  0  0  0
   14.4038  -21.3936  -10.5304 N   0  0  0  0  0  0  0  0  0  0  0  0
   16.2528  -21.4801  -11.9543 C   0  0  0  0  0  0  0  0  0  0  0  0
   17.4852  -22.1145  -12.3278 C   0  0  0  0  0  0  0  0  0  0  0  0
   18.5082  -21.8557  -11.2680 C   0  0  0  0  0  0  0  0  0  0  0  0
   19.6730  -21.0550  -11.7189 C   0  0  2  0  0  0  0  0  0  0  0  0
   20.9234  -21.8449  -11.9888 N   0  0  0  0  0  0  0  0  0  0  0  0
   22.0696  -20.9924  -12.1580 C   0  0  0  0  0  0  0  0  0  0  0  0
   20.8218  -22.7180  -13.1650 O   0  0  0  0  0  0  0  0  0  0  0  0
   21.3963  -22.3324  -14.3546 O   0  0  0  0  0  0  0  0  0  0  0  0
  2  1  1  6
  2 10  1  0
  2  3  1  0
  4  3  1  0
  5  4  2  0
  6  5  1  0
  7  8  1  0
  7  6  2  0
  8  9  2  0
  9  4  1  0
 10 20  1  0
 11 10  2  0
 13 15  1  0
 13 12  1  0
 14 13  2  0
 16 17  1  0
 16 15  1  0
 18 17  1  0
 19 18  1  6
 20 19  1  0
 21 31  1  0
 21 19  1  0
 22 21  2  0
 23 24  1  0
 24 25  2  0
 26 24  1  0
 26 27  1  0
 27 28  1  0
 28 29  1  0
 30 29  1  1
 30 32  1  0
 30 31  1  0
 32 33  1  0
 34 32  2  0
M  END
$$$$
