FRR.pdb
     RDKit          3D

 34 34  0  0  1  0  0  0  0  0999 V2000
   20.7466  -20.9634  -12.7344 N   0  0  0  0  0  0  0  0  0  0  0  0
   21.6300  -21.4530  -13.7718 C   0  0  1  0  0  0  0  0  0  0  0  0
   21.0095  -21.1337  -15.1075 C   0  0  0  0  0  0  0  0  0  0  0  0
   19.7970  -21.9652  -15.2507 C   0  0  0  0  0  0  0  0  0  0  0  0
   19.9271  -23.3430  -15.4185 C   0  0  0  0  0  0  0  0  0  0  0  0
   18.7745  -24.0920  -15.5484 C   0  0  0  0  0  0  0  0  0  0  0  0
   17.5329  -23.5134  -15.5158 C   0  0  0  0  0  0  0  0  0  0  0  0
   17.3917  -22.1574  -15.3509 C   0  0  0  0  0  0  0  0  0  0  0  0
   18.5447  -21.4174  -15.2220 C   0  0  0  0  0  0  0  0  0  0  0  0
   22.9883  -20.8347  -13.6803 C   0  0  0  0  0  0  0  0  0  0  0  0
   23.1400  -19.5937  -13.5878 O   0  0  0  0  0  0  0  0  0  0  0  0
   24.9464  -19.4226   -9.1062 N   0  0  0  0  0  0  0  0  0  0  0  0
   25.1525  -20.6723   -8.4623 C   0  0  0  0  0  0  0  0  0  0  0  0
   24.3566  -21.0529   -7.4939 N   0  0  0  0  0  0  0  0  0  0  0  0
   26.2029  -21.5578   -8.8178 N   0  0  0  0  0  0  0  0  0  0  0  0
   26.7643  -21.5806  -10.1673 C   0  0  0  0  0  0  0  0  0  0  0  0
   25.7009  -21.8700  -11.1837 C   0  0  0  0  0  0  0  0  0  0  0  0
   26.2922  -21.8920  -12.5730 C   0  0  0  0  0  0  0  0  0  0  0  0
   25.5073  -21.0623  -13.5596 C   0  0  2  0  0  0  0  0  0  0  0  0
   24.1609  -21.6322  -13.6943 N   0  0  0  0  0  0  0  0  0  0  0  0
   26.1562  -21.2499  -14.8982 C   0  0  0  0  0  0  0  0  0  0  0  0
   26.5278  -22.4131  -15.1900 O   0  0  0  0  0  0  0  0  0  0  0  0
   24.4821  -22.0241   -7.0922 N   0  0  0  0  0  0  0  0  0  0  0  0
   23.3105  -15.8572  -19.5825 C   0  0  0  0  0  0  0  0  0  0  0  0
   23.4651  -17.1857  -20.1097 N   0  0  0  0  0  0  0  0  0  0  0  0
   22.6704  -17.6429  -21.0178 N   0  0  0  0  0  0  0  0  0  0  0  0
   24.5083  -18.0095  -19.6243 C   0  0  0  0  0  0  0  0  0  0  0  0
   25.3207  -17.5648  -18.5275 C   0  0  0  0  0  0  0  0  0  0  0  0
   26.5427  -18.4230  -18.4458 C   0  0  0  0  0  0  0  0  0  0  0  0
   26.2692  -19.8659  -18.2353 C   0  0  1  0  0  0  0  0  0  0  0  0
   27.0057  -20.4930  -17.0844 N   0  0  0  0  0  0  0  0  0  0  0  0
   26.3678  -20.2160  -15.8253 C   0  0  0  0  0  0  0  0  0  0  0  0
   28.4101  -20.0747  -16.9905 O   0  0  0  0  0  0  0  0  0  0  0  0
   28.8138  -19.2616  -15.9561 O   0  0  0  0  0  0  0  0  0  0  0  0
  2  1  1  1
  2 10  1  0
  2  3  1  0
  4  3  1  0
  5  4  2  0
  6  5  1  0
  7  8  1  0
  7  6  2  0
  8  9  2  0
  9  4  1  0
 10 20  1  0
 11 10  2  0
 13 15  1  0
 13 12  1  0
 14 13  2  0
 16 17  1  0
 16 15  1  0
 18 17  1  0
 19 18  1  1
 20 19  1  0
 21 31  1  0
 21 19  1  0
 22 21  2  0
 23 24  1  0
 24 25  2  0
 26 24  1  0
 26 27  1  0
 27 28  1  0
 28 29  1  0
 30 29  1  6
 30 32  1  0
 30 31  1  0
 32 33  1  0
 34 32  2  0
M  END
$$$$
