FRR.pdb
     RDKit          3D

 34 34  0  0  1  0  0  0  0  0999 V2000
   26.4199  -22.6954  -13.4263 N   0  0  0  0  0  0  0  0  0  0  0  0
   25.8094  -21.5399  -12.8030 C   0  0  1  0  0  0  0  0  0  0  0  0
   26.6297  -20.3263  -13.1566 C   0  0  0  0  0  0  0  0  0  0  0  0
   27.9494  -20.4707  -12.5090 C   0  0  0  0  0  0  0  0  0  0  0  0
   28.8868  -19.4458  -12.6281 C   0  0  0  0  0  0  0  0  0  0  0  0
   30.1105  -19.6112  -12.0103 C   0  0  0  0  0  0  0  0  0  0  0  0
   30.4097  -20.7428  -11.2980 C   0  0  0  0  0  0  0  0  0  0  0  0
   29.4947  -21.7592  -11.1732 C   0  0  0  0  0  0  0  0  0  0  0  0
   28.2775  -21.5874  -11.7916 C   0  0  0  0  0  0  0  0  0  0  0  0
   24.3967  -21.3489  -13.2538 C   0  0  0  0  0  0  0  0  0  0  0  0
   23.9718  -21.8596  -14.3170 O   0  0  0  0  0  0  0  0  0  0  0  0
   20.2841  -23.6248   -8.5510 N   0  0  0  0  0  0  0  0  0  0  0  0
   18.9546  -23.3693   -8.9822 C   0  0  0  0  0  0  0  0  0  0  0  0
   18.0098  -24.2490   -8.7596 N   0  0  0  0  0  0  0  0  0  0  0  0
   18.5804  -22.1808   -9.6615 N   0  0  0  0  0  0  0  0  0  0  0  0
   19.5484  -21.1242   -9.9501 C   0  0  0  0  0  0  0  0  0  0  0  0
   20.2825  -21.4060  -11.2266 C   0  0  0  0  0  0  0  0  0  0  0  0
   21.2811  -20.3101  -11.5128 C   0  0  0  0  0  0  0  0  0  0  0  0
   22.0446  -20.5304  -12.7960 C   0  0  2  0  0  0  0  0  0  0  0  0
   23.4802  -20.5800  -12.4921 N   0  0  0  0  0  0  0  0  0  0  0  0
   21.8554  -19.2994  -13.6309 C   0  0  0  0  0  0  0  0  0  0  0  0
   22.3130  -18.2254  -13.1690 O   0  0  0  0  0  0  0  0  0  0  0  0
   17.0404  -24.0520   -9.1359 N   0  0  0  0  0  0  0  0  0  0  0  0
   23.1555  -17.3254  -21.7593 C   0  0  0  0  0  0  0  0  0  0  0  0
   23.8980  -17.0689  -20.5554 N   0  0  0  0  0  0  0  0  0  0  0  0
   25.1779  -16.9060  -20.5793 N   0  0  0  0  0  0  0  0  0  0  0  0
   23.2137  -16.9934  -19.3190 C   0  0  0  0  0  0  0  0  0  0  0  0
   21.7841  -17.1179  -19.2829 C   0  0  0  0  0  0  0  0  0  0  0  0
   21.3171  -16.9753  -17.8693 C   0  0  0  0  0  0  0  0  0  0  0  0
   21.4977  -18.1891  -17.0356 C   0  0  1  0  0  0  0  0  0  0  0  0
   21.0671  -18.0477  -15.6021 N   0  0  0  0  0  0  0  0  0  0  0  0
   21.2064  -19.2819  -14.8766 C   0  0  0  0  0  0  0  0  0  0  0  0
   19.6842  -17.5782  -15.4499 O   0  0  0  0  0  0  0  0  0  0  0  0
   19.3659  -16.2759  -15.7612 O   0  0  0  0  0  0  0  0  0  0  0  0
  2  1  1  6
  2 10  1  0
  2  3  1  0
  4  3  1  0
  5  4  2  0
  6  5  1  0
  7  8  1  0
  7  6  2  0
  8  9  2  0
  9  4  1  0
 10 20  1  0
 11 10  2  0
 13 15  1  0
 13 12  1  0
 14 13  2  0
 16 17  1  0
 16 15  1  0
 18 17  1  0
 19 18  1  1
 20 19  1  0
 21 31  1  0
 21 19  1  0
 22 21  2  0
 23 24  1  0
 24 25  2  0
 26 24  1  0
 26 27  1  0
 27 28  1  0
 28 29  1  0
 30 29  1  1
 30 32  1  0
 30 31  1  0
 32 33  1  0
 34 32  2  0
M  END
$$$$
