FRR.pdb
     RDKit          3D

 34 34  0  0  1  0  0  0  0  0999 V2000
   26.1856  -25.1562  -16.9771 N   0  0  0  0  0  0  0  0  0  0  0  0
   25.6985  -23.8205  -16.7033 C   0  0  1  0  0  0  0  0  0  0  0  0
   24.7649  -23.4227  -17.8173 C   0  0  0  0  0  0  0  0  0  0  0  0
   25.5852  -23.1399  -19.0126 C   0  0  0  0  0  0  0  0  0  0  0  0
   25.4971  -23.9832  -20.1192 C   0  0  0  0  0  0  0  0  0  0  0  0
   26.2762  -23.6908  -21.2210 C   0  0  0  0  0  0  0  0  0  0  0  0
   27.1158  -22.6082  -21.2417 C   0  0  0  0  0  0  0  0  0  0  0  0
   27.2113  -21.7700  -20.1580 C   0  0  0  0  0  0  0  0  0  0  0  0
   26.4319  -22.0676  -19.0637 C   0  0  0  0  0  0  0  0  0  0  0  0
   24.9854  -23.7490  -15.3911 C   0  0  0  0  0  0  0  0  0  0  0  0
   24.3529  -24.7297  -14.9331 O   0  0  0  0  0  0  0  0  0  0  0  0
   28.6556  -21.3716  -10.3187 N   0  0  0  0  0  0  0  0  0  0  0  0
   28.2568  -20.4338  -11.3089 C   0  0  0  0  0  0  0  0  0  0  0  0
   29.0887  -20.0864  -12.2593 N   0  0  0  0  0  0  0  0  0  0  0  0
   26.9712  -19.8333  -11.3273 N   0  0  0  0  0  0  0  0  0  0  0  0
   25.8661  -20.3602  -10.5287 C   0  0  0  0  0  0  0  0  0  0  0  0
   25.2674  -21.5717  -11.1780 C   0  0  0  0  0  0  0  0  0  0  0  0
   24.8227  -21.2497  -12.5847 C   0  0  0  0  0  0  0  0  0  0  0  0
   24.2977  -22.4550  -13.3260 C   0  0  2  0  0  0  0  0  0  0  0  0
   24.9983  -22.5643  -14.6117 N   0  0  0  0  0  0  0  0  0  0  0  0
   22.8687  -22.1631  -13.6734 C   0  0  0  0  0  0  0  0  0  0  0  0
   22.6675  -21.3561  -14.6139 O   0  0  0  0  0  0  0  0  0  0  0  0
   28.7338  -19.4575  -13.0332 N   0  0  0  0  0  0  0  0  0  0  0  0
   15.5634  -26.3762  -11.8064 C   0  0  0  0  0  0  0  0  0  0  0  0
   17.0009  -26.3838  -11.8095 N   0  0  0  0  0  0  0  0  0  0  0  0
   17.6664  -27.4230  -11.4318 N   0  0  0  0  0  0  0  0  0  0  0  0
   17.7017  -25.2301  -12.2343 C   0  0  0  0  0  0  0  0  0  0  0  0
   17.0858  -24.3165  -13.1545 C   0  0  0  0  0  0  0  0  0  0  0  0
   18.0393  -23.2024  -13.4481 C   0  0  0  0  0  0  0  0  0  0  0  0
   19.4587  -23.5107  -13.1455 C   0  0  1  0  0  0  0  0  0  0  0  0
   20.4274  -22.3965  -13.4291 N   0  0  0  0  0  0  0  0  0  0  0  0
   21.7643  -22.7309  -13.0168 C   0  0  0  0  0  0  0  0  0  0  0  0
   20.0564  -21.1235  -12.7984 O   0  0  0  0  0  0  0  0  0  0  0  0
   20.7016  -20.7136  -11.6540 O   0  0  0  0  0  0  0  0  0  0  0  0
  2  1  1  6
  2 10  1  0
  2  3  1  0
  4  3  1  0
  5  4  2  0
  6  5  1  0
  7  8  1  0
  7  6  2  0
  8  9  2  0
  9  4  1  0
 10 20  1  0
 11 10  2  0
 13 15  1  0
 13 12  1  0
 14 13  2  0
 16 17  1  0
 16 15  1  0
 18 17  1  0
 19 18  1  1
 20 19  1  0
 21 31  1  0
 21 19  1  0
 22 21  2  0
 23 24  1  0
 24 25  2  0
 26 24  1  0
 26 27  1  0
 27 28  1  0
 28 29  1  0
 30 29  1  6
 30 32  1  0
 30 31  1  0
 32 33  1  0
 34 32  2  0
M  END
$$$$
