FRR.pdb
     RDKit          3D

 34 34  0  0  1  0  0  0  0  0999 V2000
   24.5949  -20.8272   -8.3616 N   0  0  0  0  0  0  0  0  0  0  0  0
   25.4476  -20.0755   -9.2583 C   0  0  1  0  0  0  0  0  0  0  0  0
   26.8743  -20.4935   -9.0116 C   0  0  0  0  0  0  0  0  0  0  0  0
   27.2539  -20.0247   -7.6633 C   0  0  0  0  0  0  0  0  0  0  0  0
   27.3350  -18.6559   -7.4116 C   0  0  0  0  0  0  0  0  0  0  0  0
   27.6915  -18.2503   -6.1409 C   0  0  0  0  0  0  0  0  0  0  0  0
   27.9607  -19.1535   -5.1463 C   0  0  0  0  0  0  0  0  0  0  0  0
   27.8841  -20.5043   -5.3818 C   0  0  0  0  0  0  0  0  0  0  0  0
   27.5282  -20.9011   -6.6505 C   0  0  0  0  0  0  0  0  0  0  0  0
   25.0886  -20.3098  -10.6907 C   0  0  0  0  0  0  0  0  0  0  0  0
   24.0438  -20.9225  -11.0141 O   0  0  0  0  0  0  0  0  0  0  0  0
   29.8112  -16.9315  -17.2135 N   0  0  0  0  0  0  0  0  0  0  0  0
   29.4021  -18.2609  -16.9233 C   0  0  0  0  0  0  0  0  0  0  0  0
   30.1371  -19.2746  -17.3082 N   0  0  0  0  0  0  0  0  0  0  0  0
   28.2068  -18.5626  -16.2205 N   0  0  0  0  0  0  0  0  0  0  0  0
   27.2674  -17.5171  -15.8189 C   0  0  0  0  0  0  0  0  0  0  0  0
   26.0892  -18.1040  -15.1013 C   0  0  0  0  0  0  0  0  0  0  0  0
   26.5360  -18.8053  -13.8408 C   0  0  0  0  0  0  0  0  0  0  0  0
   25.3871  -19.1756  -12.9349 C   0  0  2  0  0  0  0  0  0  0  0  0
   25.9197  -19.8452  -11.7417 N   0  0  0  0  0  0  0  0  0  0  0  0
   24.5854  -20.2187  -13.6540 C   0  0  0  0  0  0  0  0  0  0  0  0
   24.9719  -21.4079  -13.5415 O   0  0  0  0  0  0  0  0  0  0  0  0
   29.7535  -20.2524  -17.1772 N   0  0  0  0  0  0  0  0  0  0  0  0
   19.7620  -23.3724   -8.6681 C   0  0  0  0  0  0  0  0  0  0  0  0
   19.1247  -23.5082   -9.9495 N   0  0  0  0  0  0  0  0  0  0  0  0
   18.4232  -24.5510  -10.2419 N   0  0  0  0  0  0  0  0  0  0  0  0
   19.2686  -22.4792  -10.9103 C   0  0  0  0  0  0  0  0  0  0  0  0
   20.5538  -22.2196  -11.4947 C   0  0  0  0  0  0  0  0  0  0  0  0
   20.4291  -21.0896  -12.4663 C   0  0  0  0  0  0  0  0  0  0  0  0
   21.7087  -20.4124  -12.7909 C   0  0  1  0  0  0  0  0  0  0  0  0
   22.2172  -20.6458  -14.1863 N   0  0  0  0  0  0  0  0  0  0  0  0
   23.4486  -19.9440  -14.4321 C   0  0  0  0  0  0  0  0  0  0  0  0
   21.2563  -20.2683  -15.2304 O   0  0  0  0  0  0  0  0  0  0  0  0
   21.0829  -18.9417  -15.5530 O   0  0  0  0  0  0  0  0  0  0  0  0
  2  1  1  1
  2 10  1  0
  2  3  1  0
  4  3  1  0
  5  4  2  0
  6  5  1  0
  7  8  1  0
  7  6  2  0
  8  9  2  0
  9  4  1  0
 10 20  1  0
 11 10  2  0
 13 15  1  0
 13 12  1  0
 14 13  2  0
 16 17  1  0
 16 15  1  0
 18 17  1  0
 19 18  1  6
 20 19  1  0
 21 31  1  0
 21 19  1  0
 22 21  2  0
 23 24  1  0
 24 25  2  0
 26 24  1  0
 26 27  1  0
 27 28  1  0
 28 29  1  0
 30 29  1  1
 30 32  1  0
 30 31  1  0
 32 33  1  0
 34 32  2  0
M  END
$$$$
