FRR.pdb
     RDKit          3D

 34 34  0  0  1  0  0  0  0  0999 V2000
   26.7455  -17.4854  -17.5587 N   0  0  0  0  0  0  0  0  0  0  0  0
   26.6620  -17.3262  -16.1220 C   0  0  1  0  0  0  0  0  0  0  0  0
   25.3314  -16.6992  -15.7948 C   0  0  0  0  0  0  0  0  0  0  0  0
   25.4324  -15.2536  -16.0811 C   0  0  0  0  0  0  0  0  0  0  0  0
   24.6085  -14.6886  -17.0534 C   0  0  0  0  0  0  0  0  0  0  0  0
   24.7269  -13.3346  -17.2966 C   0  0  0  0  0  0  0  0  0  0  0  0
   25.6224  -12.5562  -16.6115 C   0  0  0  0  0  0  0  0  0  0  0  0
   26.4393  -13.1010  -15.6514 C   0  0  0  0  0  0  0  0  0  0  0  0
   26.3158  -14.4508  -15.4144 C   0  0  0  0  0  0  0  0  0  0  0  0
   26.7973  -18.6344  -15.4108 C   0  0  0  0  0  0  0  0  0  0  0  0
   26.2685  -19.6809  -15.8545 O   0  0  0  0  0  0  0  0  0  0  0  0
   32.4657  -23.1554   -9.8954 N   0  0  0  0  0  0  0  0  0  0  0  0
   31.8745  -22.8163  -11.1421 C   0  0  0  0  0  0  0  0  0  0  0  0
   31.7400  -23.7252  -12.0758 N   0  0  0  0  0  0  0  0  0  0  0  0
   31.4084  -21.5102  -11.4433 N   0  0  0  0  0  0  0  0  0  0  0  0
   30.2401  -20.9389  -10.7758 C   0  0  0  0  0  0  0  0  0  0  0  0
   29.0149  -21.0809  -11.6282 C   0  0  0  0  0  0  0  0  0  0  0  0
   28.8899  -19.9074  -12.5703 C   0  0  0  0  0  0  0  0  0  0  0  0
   27.6924  -20.0109  -13.4831 C   0  0  2  0  0  0  0  0  0  0  0  0
   27.5325  -18.7412  -14.2027 N   0  0  0  0  0  0  0  0  0  0  0  0
   26.4840  -20.1263  -12.6031 C   0  0  0  0  0  0  0  0  0  0  0  0
   26.3699  -19.2797  -11.6830 O   0  0  0  0  0  0  0  0  0  0  0  0
   31.3784  -23.4230  -13.0235 N   0  0  0  0  0  0  0  0  0  0  0  0
   18.2781  -21.9760  -11.6261 C   0  0  0  0  0  0  0  0  0  0  0  0
   19.0357  -21.6050  -12.7901 N   0  0  0  0  0  0  0  0  0  0  0  0
   18.5222  -20.8690  -13.7174 N   0  0  0  0  0  0  0  0  0  0  0  0
   20.3708  -22.0548  -12.9235 C   0  0  0  0  0  0  0  0  0  0  0  0
   20.9555  -22.8755  -11.9011 C   0  0  0  0  0  0  0  0  0  0  0  0
   22.1505  -22.1753  -11.3369 C   0  0  0  0  0  0  0  0  0  0  0  0
   23.2826  -22.0286  -12.2844 C   0  0  2  0  0  0  0  0  0  0  0  0
   24.4510  -21.2385  -11.7640 N   0  0  0  0  0  0  0  0  0  0  0  0
   25.4923  -21.1105  -12.7481 C   0  0  0  0  0  0  0  0  0  0  0  0
   25.0397  -21.8003  -10.5417 O   0  0  0  0  0  0  0  0  0  0  0  0
   24.7465  -21.2379   -9.3204 O   0  0  0  0  0  0  0  0  0  0  0  0
  2  1  1  6
  2 10  1  0
  2  3  1  0
  4  3  1  0
  5  4  2  0
  6  5  1  0
  7  8  1  0
  7  6  2  0
  8  9  2  0
  9  4  1  0
 10 20  1  0
 11 10  2  0
 13 15  1  0
 13 12  1  0
 14 13  2  0
 16 17  1  0
 16 15  1  0
 18 17  1  0
 19 18  1  1
 20 19  1  0
 21 31  1  0
 21 19  1  0
 22 21  2  0
 23 24  1  0
 24 25  2  0
 26 24  1  0
 26 27  1  0
 27 28  1  0
 28 29  1  0
 30 29  1  6
 30 32  1  0
 30 31  1  0
 32 33  1  0
 34 32  2  0
M  END
$$$$
