FRR.pdb
     RDKit          3D

 34 34  0  0  1  0  0  0  0  0999 V2000
   28.8075  -20.8218   -9.1490 N   0  0  0  0  0  0  0  0  0  0  0  0
   27.3651  -20.8399   -9.0239 C   0  0  1  0  0  0  0  0  0  0  0  0
   26.9626  -19.7507   -8.0634 C   0  0  0  0  0  0  0  0  0  0  0  0
   27.6688  -19.9913   -6.7886 C   0  0  0  0  0  0  0  0  0  0  0  0
   28.8946  -19.3694   -6.5565 C   0  0  0  0  0  0  0  0  0  0  0  0
   29.5287  -19.6141   -5.3546 C   0  0  0  0  0  0  0  0  0  0  0  0
   28.9826  -20.4410   -4.4083 C   0  0  0  0  0  0  0  0  0  0  0  0
   27.7757  -21.0593   -4.6251 C   0  0  0  0  0  0  0  0  0  0  0  0
   27.1496  -20.8106   -5.8250 C   0  0  0  0  0  0  0  0  0  0  0  0
   26.6920  -20.6306  -10.3425 C   0  0  0  0  0  0  0  0  0  0  0  0
   26.9983  -19.6730  -11.0915 O   0  0  0  0  0  0  0  0  0  0  0  0
   25.7995  -23.6206  -16.8406 N   0  0  0  0  0  0  0  0  0  0  0  0
   25.6784  -24.7927  -16.0466 C   0  0  0  0  0  0  0  0  0  0  0  0
   26.3067  -25.8892  -16.3916 N   0  0  0  0  0  0  0  0  0  0  0  0
   24.8918  -24.8456  -14.8667 N   0  0  0  0  0  0  0  0  0  0  0  0
   23.8022  -23.9010  -14.6273 C   0  0  0  0  0  0  0  0  0  0  0  0
   24.3341  -22.5764  -14.1688 C   0  0  0  0  0  0  0  0  0  0  0  0
   24.8452  -22.6762  -12.7514 C   0  0  0  0  0  0  0  0  0  0  0  0
   24.9911  -21.3310  -12.0827 C   0  0  2  0  0  0  0  0  0  0  0  0
   25.6779  -21.5114  -10.7976 N   0  0  0  0  0  0  0  0  0  0  0  0
   23.6087  -20.8664  -11.7350 C   0  0  0  0  0  0  0  0  0  0  0  0
   23.5006  -20.0969  -10.7488 O   0  0  0  0  0  0  0  0  0  0  0  0
   26.1421  -26.7643  -15.8195 N   0  0  0  0  0  0  0  0  0  0  0  0
   19.3015  -17.1312  -16.4200 C   0  0  0  0  0  0  0  0  0  0  0  0
   19.1278  -16.0596  -15.4776 N   0  0  0  0  0  0  0  0  0  0  0  0
   18.1765  -15.1979  -15.6105 N   0  0  0  0  0  0  0  0  0  0  0  0
   20.0166  -15.9458  -14.3823 C   0  0  0  0  0  0  0  0  0  0  0  0
   21.1339  -16.8402  -14.2708 C   0  0  0  0  0  0  0  0  0  0  0  0
   20.7068  -18.0646  -13.5258 C   0  0  0  0  0  0  0  0  0  0  0  0
   21.7774  -19.0735  -13.3337 C   0  0  1  0  0  0  0  0  0  0  0  0
   21.3627  -20.3078  -12.5821 N   0  0  0  0  0  0  0  0  0  0  0  0
   22.4504  -21.2379  -12.4376 C   0  0  0  0  0  0  0  0  0  0  0  0
   20.2314  -21.0145  -13.1959 O   0  0  0  0  0  0  0  0  0  0  0  0
   20.4659  -22.0352  -14.0888 O   0  0  0  0  0  0  0  0  0  0  0  0
  2  1  1  6
  2 10  1  0
  2  3  1  0
  4  3  1  0
  5  4  2  0
  6  5  1  0
  7  8  1  0
  7  6  2  0
  8  9  2  0
  9  4  1  0
 10 20  1  0
 11 10  2  0
 13 15  1  0
 13 12  1  0
 14 13  2  0
 16 17  1  0
 16 15  1  0
 18 17  1  0
 19 18  1  1
 20 19  1  0
 21 31  1  0
 21 19  1  0
 22 21  2  0
 23 24  1  0
 24 25  2  0
 26 24  1  0
 26 27  1  0
 27 28  1  0
 28 29  1  0
 30 29  1  1
 30 32  1  0
 30 31  1  0
 32 33  1  0
 34 32  2  0
M  END
$$$$
