FRR.pdb
     RDKit          3D

 34 34  0  0  1  0  0  0  0  0999 V2000
   26.9172  -18.6962   -9.8435 N   0  0  0  0  0  0  0  0  0  0  0  0
   26.6309  -20.1135   -9.9174 C   0  0  1  0  0  0  0  0  0  0  0  0
   26.1205  -20.5611   -8.5719 C   0  0  0  0  0  0  0  0  0  0  0  0
   27.1857  -20.3093   -7.5801 C   0  0  0  0  0  0  0  0  0  0  0  0
   26.9509  -19.4184   -6.5339 C   0  0  0  0  0  0  0  0  0  0  0  0
   27.9665  -19.2057   -5.6229 C   0  0  0  0  0  0  0  0  0  0  0  0
   29.1745  -19.8433   -5.7304 C   0  0  0  0  0  0  0  0  0  0  0  0
   29.4179  -20.7232   -6.7563 C   0  0  0  0  0  0  0  0  0  0  0  0
   28.4012  -20.9301   -7.6602 C   0  0  0  0  0  0  0  0  0  0  0  0
   25.6182  -20.4198  -10.9739 C   0  0  0  0  0  0  0  0  0  0  0  0
   24.6375  -19.6669  -11.1816 O   0  0  0  0  0  0  0  0  0  0  0  0
   23.4233  -24.9178  -17.1730 N   0  0  0  0  0  0  0  0  0  0  0  0
   24.3974  -25.7013  -16.4978 C   0  0  0  0  0  0  0  0  0  0  0  0
   24.1909  -26.9793  -16.2977 N   0  0  0  0  0  0  0  0  0  0  0  0
   25.6172  -25.1626  -16.0122 N   0  0  0  0  0  0  0  0  0  0  0  0
   25.9459  -23.7465  -16.1648 C   0  0  0  0  0  0  0  0  0  0  0  0
   25.0863  -22.8994  -15.2753 C   0  0  0  0  0  0  0  0  0  0  0  0
   25.7854  -22.6359  -13.9630 C   0  0  0  0  0  0  0  0  0  0  0  0
   24.9945  -21.7354  -13.0457 C   0  0  2  0  0  0  0  0  0  0  0  0
   25.7298  -21.5781  -11.7846 N   0  0  0  0  0  0  0  0  0  0  0  0
   23.7400  -22.4741  -12.6872 C   0  0  0  0  0  0  0  0  0  0  0  0
   23.8201  -23.3058  -11.7501 O   0  0  0  0  0  0  0  0  0  0  0  0
   24.9344  -27.5355  -15.7897 N   0  0  0  0  0  0  0  0  0  0  0  0
   15.7365  -21.2838  -14.2859 C   0  0  0  0  0  0  0  0  0  0  0  0
   16.8482  -21.6874  -15.1032 N   0  0  0  0  0  0  0  0  0  0  0  0
   16.6701  -22.1596  -16.2909 N   0  0  0  0  0  0  0  0  0  0  0  0
   18.1640  -21.5654  -14.5970 C   0  0  0  0  0  0  0  0  0  0  0  0
   18.3794  -21.0220  -13.2859 C   0  0  0  0  0  0  0  0  0  0  0  0
   19.8495  -20.9624  -13.0176 C   0  0  0  0  0  0  0  0  0  0  0  0
   20.3678  -22.0704  -12.1781 C   0  0  1  0  0  0  0  0  0  0  0  0
   21.3370  -22.9914  -12.8656 N   0  0  0  0  0  0  0  0  0  0  0  0
   22.5044  -22.2909  -13.3298 C   0  0  0  0  0  0  0  0  0  0  0  0
   20.7520  -23.7143  -14.0020 O   0  0  0  0  0  0  0  0  0  0  0  0
   19.8459  -24.7253  -13.7762 O   0  0  0  0  0  0  0  0  0  0  0  0
  2  1  1  1
  2 10  1  0
  2  3  1  0
  4  3  1  0
  5  4  2  0
  6  5  1  0
  7  8  1  0
  7  6  2  0
  8  9  2  0
  9  4  1  0
 10 20  1  0
 11 10  2  0
 13 15  1  0
 13 12  1  0
 14 13  2  0
 16 17  1  0
 16 15  1  0
 18 17  1  0
 19 18  1  6
 20 19  1  0
 21 31  1  0
 21 19  1  0
 22 21  2  0
 23 24  1  0
 24 25  2  0
 26 24  1  0
 26 27  1  0
 27 28  1  0
 28 29  1  0
 30 29  1  1
 30 32  1  0
 30 31  1  0
 32 33  1  0
 34 32  2  0
M  END
$$$$
