TPN.pdb
     RDKit          3D

 23 23  0  0  1  0  0  0  0  0999 V2000
    6.0802  -12.5129   26.7498 C   0  0  0  0  0  0  0  0  0  0  0  0
    7.1480  -13.3608   26.0926 C   0  0  1  0  0  0  0  0  0  0  0  0
    8.0748  -13.7261   27.0553 O   0  0  0  0  0  0  0  0  0  0  0  0
    6.4519  -14.5595   25.4756 C   0  0  2  0  0  0  0  0  0  0  0  0
    5.9307  -15.3561   26.5289 N   0  0  0  0  0  0  0  0  0  0  0  0
    7.3396  -15.3203   24.5952 C   0  0  0  0  0  0  0  0  0  0  0  0
    7.8012  -16.4477   25.0207 O   0  0  0  0  0  0  0  0  0  0  0  0
    7.6962  -14.8525   23.3091 N   0  0  0  0  0  0  0  0  0  0  0  0
    7.2154  -13.6651   22.6638 C   0  0  0  0  0  0  0  0  0  0  0  0
    7.8630  -13.6033   21.2891 C   0  0  0  0  0  0  0  0  0  0  0  0
    8.4255  -14.9765   21.1118 C   0  0  0  0  0  0  0  0  0  0  0  0
    8.6385  -15.5620   22.4620 C   0  0  1  0  0  0  0  0  0  0  0  0
   10.0107  -15.4974   22.9741 C   0  0  0  0  0  0  0  0  0  0  0  0
   10.2325  -14.8235   24.0381 O   0  0  0  0  0  0  0  0  0  0  0  0
   13.8636  -17.7549   25.3146 N   0  0  0  0  0  0  0  0  0  0  0  0
   12.7443  -18.4837   24.8160 C   0  0  0  0  0  0  0  0  0  0  0  0
   12.7273  -19.7092   25.0309 O   0  0  0  0  0  0  0  0  0  0  0  0
   11.7091  -17.7546   24.0979 C   0  0  0  0  0  0  0  0  0  0  0  0
   12.2399  -16.6932   23.1744 C   0  0  2  0  0  0  0  0  0  0  0  0
   11.1271  -16.1189   22.3939 N   0  0  0  0  0  0  0  0  0  0  0  0
   13.1686  -17.2139   22.1535 C   0  0  0  0  0  0  0  0  0  0  0  0
   12.7499  -18.1362   21.2308 O   0  0  0  0  0  0  0  0  0  0  0  0
   14.3524  -16.8246   22.1118 O   0  0  0  0  0  0  0  0  0  0  0  0
  2  1  1  1
  2  3  1  0
  4  2  1  0
  4  5  1  1
  6  8  1  0
  6  4  1  0
  7  6  2  0
  8 12  1  0
  9 10  1  0
  9  8  1  0
 10 11  1  0
 11 12  1  0
 12 13  1  1
 13 20  1  0
 14 13  2  0
 16 17  2  0
 16 15  1  0
 18 16  1  0
 19 20  1  0
 19 21  1  0
 19 18  1  1
 21 23  2  0
 21 22  1  0
M  END
$$$$
