TPN.pdb
     RDKit          3D

 23 23  0  0  1  0  0  0  0  0999 V2000
    6.0737  -15.5604   21.0187 C   0  0  0  0  0  0  0  0  0  0  0  0
    7.2258  -14.9620   20.2404 C   0  0  1  0  0  0  0  0  0  0  0  0
    6.8031  -14.7216   18.9432 O   0  0  0  0  0  0  0  0  0  0  0  0
    7.6400  -13.6914   20.9587 C   0  0  2  0  0  0  0  0  0  0  0  0
    8.4425  -12.9263   20.0720 N   0  0  0  0  0  0  0  0  0  0  0  0
    8.3244  -13.9697   22.2220 C   0  0  0  0  0  0  0  0  0  0  0  0
    9.5320  -14.4221   22.1749 O   0  0  0  0  0  0  0  0  0  0  0  0
    7.6993  -13.7569   23.4727 N   0  0  0  0  0  0  0  0  0  0  0  0
    6.3497  -13.3250   23.6953 C   0  0  0  0  0  0  0  0  0  0  0  0
    6.1518  -13.2159   25.1993 C   0  0  0  0  0  0  0  0  0  0  0  0
    7.5459  -13.2720   25.7347 C   0  0  0  0  0  0  0  0  0  0  0  0
    8.3947  -13.9662   24.7302 C   0  0  1  0  0  0  0  0  0  0  0  0
    8.6614  -15.3835   24.9936 C   0  0  0  0  0  0  0  0  0  0  0  0
    7.7484  -16.2361   24.7201 O   0  0  0  0  0  0  0  0  0  0  0  0
   11.3034  -18.1832   22.8739 N   0  0  0  0  0  0  0  0  0  0  0  0
   11.7598  -17.3241   23.9161 C   0  0  0  0  0  0  0  0  0  0  0  0
   12.3781  -16.2999   23.5737 O   0  0  0  0  0  0  0  0  0  0  0  0
   11.4755  -17.6977   25.2940 C   0  0  0  0  0  0  0  0  0  0  0  0
   10.0864  -17.3433   25.7476 C   0  0  2  0  0  0  0  0  0  0  0  0
    9.8500  -15.9032   25.5288 N   0  0  0  0  0  0  0  0  0  0  0  0
    9.8757  -17.5299   27.1956 C   0  0  0  0  0  0  0  0  0  0  0  0
    9.7865  -18.7866   27.7342 O   0  0  0  0  0  0  0  0  0  0  0  0
    9.7744  -16.5472   27.9562 O   0  0  0  0  0  0  0  0  0  0  0  0
  2  1  1  1
  2  3  1  0
  4  2  1  0
  4  5  1  6
  6  8  1  0
  6  4  1  0
  7  6  2  0
  8 12  1  0
  9 10  1  0
  9  8  1  0
 10 11  1  0
 11 12  1  0
 12 13  1  1
 13 20  1  0
 14 13  2  0
 16 17  2  0
 16 15  1  0
 18 16  1  0
 19 20  1  0
 19 21  1  0
 19 18  1  1
 21 23  2  0
 21 22  1  0
M  END
$$$$
