TPN.pdb
     RDKit          3D

 23 23  0  0  1  0  0  0  0  0999 V2000
    6.1578  -18.7391   21.4092 C   0  0  0  0  0  0  0  0  0  0  0  0
    6.8846  -18.8668   20.0876 C   0  0  1  0  0  0  0  0  0  0  0  0
    5.9755  -19.2670   19.1219 O   0  0  0  0  0  0  0  0  0  0  0  0
    7.4968  -17.5130   19.7799 C   0  0  2  0  0  0  0  0  0  0  0  0
    7.8949  -17.5095   18.4172 N   0  0  0  0  0  0  0  0  0  0  0  0
    8.6051  -17.1912   20.6799 C   0  0  0  0  0  0  0  0  0  0  0  0
    9.7220  -17.8174   20.5204 O   0  0  0  0  0  0  0  0  0  0  0  0
    8.4787  -16.2242   21.7041 N   0  0  0  0  0  0  0  0  0  0  0  0
    7.3461  -15.3798   21.9524 C   0  0  0  0  0  0  0  0  0  0  0  0
    7.6939  -14.4934   23.1384 C   0  0  0  0  0  0  0  0  0  0  0  0
    9.1718  -14.6673   23.2761 C   0  0  0  0  0  0  0  0  0  0  0  0
    9.5383  -15.9724   22.6647 C   0  0  1  0  0  0  0  0  0  0  0  0
    9.7209  -17.0849   23.6018 C   0  0  0  0  0  0  0  0  0  0  0  0
    8.6813  -17.6733   24.0585 O   0  0  0  0  0  0  0  0  0  0  0  0
   13.2023  -19.7532   22.3412 N   0  0  0  0  0  0  0  0  0  0  0  0
   12.1796  -20.0903   23.2756 C   0  0  0  0  0  0  0  0  0  0  0  0
   11.2703  -20.8379   22.8722 O   0  0  0  0  0  0  0  0  0  0  0  0
   12.2662  -19.5441   24.6221 C   0  0  0  0  0  0  0  0  0  0  0  0
   11.0908  -18.6905   25.0106 C   0  0  2  0  0  0  0  0  0  0  0  0
   10.9555  -17.5751   24.0541 N   0  0  0  0  0  0  0  0  0  0  0  0
   11.2522  -18.0292   26.3192 C   0  0  0  0  0  0  0  0  0  0  0  0
   10.7444  -18.5967   27.4582 O   0  0  0  0  0  0  0  0  0  0  0  0
   11.8533  -16.9408   26.4128 O   0  0  0  0  0  0  0  0  0  0  0  0
  2  1  1  1
  2  3  1  0
  4  2  1  0
  4  5  1  6
  6  8  1  0
  6  4  1  0
  7  6  2  0
  8 12  1  0
  9 10  1  0
  9  8  1  0
 10 11  1  0
 11 12  1  0
 12 13  1  1
 13 20  1  0
 14 13  2  0
 16 17  2  0
 16 15  1  0
 18 16  1  0
 19 20  1  0
 19 21  1  0
 19 18  1  6
 21 23  2  0
 21 22  1  0
M  END
$$$$
