TPN.pdb
     RDKit          3D

 23 23  0  0  1  0  0  0  0  0999 V2000
    7.6356  -14.2821   16.8641 C   0  0  0  0  0  0  0  0  0  0  0  0
    8.2787  -14.7633   18.1470 C   0  0  1  0  0  0  0  0  0  0  0  0
    9.4008  -15.5089   17.8244 O   0  0  0  0  0  0  0  0  0  0  0  0
    8.6181  -13.5328   18.9674 C   0  0  2  0  0  0  0  0  0  0  0  0
    9.4388  -12.6881   18.1748 N   0  0  0  0  0  0  0  0  0  0  0  0
    9.2483  -13.8766   20.2427 C   0  0  0  0  0  0  0  0  0  0  0  0
   10.5369  -13.9179   20.2949 O   0  0  0  0  0  0  0  0  0  0  0  0
    8.4861  -14.1599   21.3999 N   0  0  0  0  0  0  0  0  0  0  0  0
    7.0622  -14.0547   21.5370 C   0  0  0  0  0  0  0  0  0  0  0  0
    6.7158  -14.4376   22.9675 C   0  0  0  0  0  0  0  0  0  0  0  0
    8.0392  -14.4099   23.6611 C   0  0  0  0  0  0  0  0  0  0  0  0
    9.0976  -14.6133   22.6366 C   0  0  1  0  0  0  0  0  0  0  0  0
    9.6284  -15.9759   22.5323 C   0  0  0  0  0  0  0  0  0  0  0  0
    9.0367  -16.8023   21.7561 O   0  0  0  0  0  0  0  0  0  0  0  0
   13.7703  -19.4620   21.1117 N   0  0  0  0  0  0  0  0  0  0  0  0
   13.3994  -18.9966   22.4072 C   0  0  0  0  0  0  0  0  0  0  0  0
   13.6908  -19.7245   23.3735 O   0  0  0  0  0  0  0  0  0  0  0  0
   12.7133  -17.7171   22.5117 C   0  0  0  0  0  0  0  0  0  0  0  0
   11.3007  -17.8222   23.0163 C   0  0  2  0  0  0  0  0  0  0  0  0
   10.7487  -16.4688   23.2188 N   0  0  0  0  0  0  0  0  0  0  0  0
   11.1966  -18.4589   24.3428 C   0  0  0  0  0  0  0  0  0  0  0  0
   11.0340  -17.7011   25.4727 O   0  0  0  0  0  0  0  0  0  0  0  0
   11.2555  -19.6987   24.4605 O   0  0  0  0  0  0  0  0  0  0  0  0
  2  1  1  6
  2  3  1  0
  4  2  1  0
  4  5  1  6
  6  8  1  0
  6  4  1  0
  7  6  2  0
  8 12  1  0
  9 10  1  0
  9  8  1  0
 10 11  1  0
 11 12  1  0
 12 13  1  6
 13 20  1  0
 14 13  2  0
 16 17  2  0
 16 15  1  0
 18 16  1  0
 19 20  1  0
 19 21  1  0
 19 18  1  1
 21 23  2  0
 21 22  1  0
M  END
$$$$
