TPN.pdb
     RDKit          3D

 23 23  0  0  1  0  0  0  0  0999 V2000
    6.6817  -18.7370   19.5378 C   0  0  0  0  0  0  0  0  0  0  0  0
    7.7367  -18.6098   18.4599 C   0  0  1  0  0  0  0  0  0  0  0  0
    7.2361  -19.1519   17.2874 O   0  0  0  0  0  0  0  0  0  0  0  0
    8.0615  -17.1341   18.3223 C   0  0  2  0  0  0  0  0  0  0  0  0
    8.7402  -16.9459   17.0897 N   0  0  0  0  0  0  0  0  0  0  0  0
    8.8326  -16.6305   19.4597 C   0  0  0  0  0  0  0  0  0  0  0  0
   10.0781  -16.9566   19.5449 O   0  0  0  0  0  0  0  0  0  0  0  0
    8.2497  -15.8074   20.4513 N   0  0  0  0  0  0  0  0  0  0  0  0
    6.8711  -15.4226   20.5458 C   0  0  0  0  0  0  0  0  0  0  0  0
    6.7368  -14.5151   21.7589 C   0  0  0  0  0  0  0  0  0  0  0  0
    8.1527  -14.1659   22.0856 C   0  0  0  0  0  0  0  0  0  0  0  0
    9.0268  -15.2365   21.5371 C   0  0  1  0  0  0  0  0  0  0  0  0
    9.4729  -16.2487   22.4992 C   0  0  0  0  0  0  0  0  0  0  0  0
    8.8028  -17.3336   22.5965 O   0  0  0  0  0  0  0  0  0  0  0  0
   12.9866  -19.2862   24.7853 N   0  0  0  0  0  0  0  0  0  0  0  0
   13.5753  -18.3438   23.8920 C   0  0  0  0  0  0  0  0  0  0  0  0
   14.7812  -18.4956   23.6253 O   0  0  0  0  0  0  0  0  0  0  0  0
   12.7368  -17.2802   23.3584 C   0  0  0  0  0  0  0  0  0  0  0  0
   11.3266  -17.2958   23.8802 C   0  0  2  0  0  0  0  0  0  0  0  0
   10.5899  -16.1363   23.3412 N   0  0  0  0  0  0  0  0  0  0  0  0
   11.2399  -17.1325   25.3436 C   0  0  0  0  0  0  0  0  0  0  0  0
   10.7837  -18.1527   26.1364 O   0  0  0  0  0  0  0  0  0  0  0  0
   11.5797  -16.0626   25.8863 O   0  0  0  0  0  0  0  0  0  0  0  0
  2  1  1  1
  2  3  1  0
  4  2  1  0
  4  5  1  6
  6  8  1  0
  6  4  1  0
  7  6  2  0
  8 12  1  0
  9 10  1  0
  9  8  1  0
 10 11  1  0
 11 12  1  0
 12 13  1  1
 13 20  1  0
 14 13  2  0
 16 17  2  0
 16 15  1  0
 18 16  1  0
 19 20  1  0
 19 21  1  0
 19 18  1  6
 21 23  2  0
 21 22  1  0
M  END
$$$$
