TPN.pdb
     RDKit          3D

 23 23  0  0  1  0  0  0  0  0999 V2000
    8.4670  -14.1950   16.5742 C   0  0  0  0  0  0  0  0  0  0  0  0
    8.9283  -14.6265   17.9498 C   0  0  1  0  0  0  0  0  0  0  0  0
   10.1563  -15.2556   17.8252 O   0  0  0  0  0  0  0  0  0  0  0  0
    9.0023  -13.3787   18.8098 C   0  0  2  0  0  0  0  0  0  0  0  0
    9.7961  -12.4200   18.1269 N   0  0  0  0  0  0  0  0  0  0  0  0
    9.5124  -13.6629   20.1518 C   0  0  0  0  0  0  0  0  0  0  0  0
   10.7791  -13.5363   20.3625 O   0  0  0  0  0  0  0  0  0  0  0  0
    8.6592  -14.0671   21.2048 N   0  0  0  0  0  0  0  0  0  0  0  0
    7.2296  -14.1751   21.1580 C   0  0  0  0  0  0  0  0  0  0  0  0
    6.7640  -14.6189   22.5362 C   0  0  0  0  0  0  0  0  0  0  0  0
    7.9694  -14.4024   23.3927 C   0  0  0  0  0  0  0  0  0  0  0  0
    9.1682  -14.4371   22.5136 C   0  0  1  0  0  0  0  0  0  0  0  0
    9.9036  -15.7051   22.4907 C   0  0  0  0  0  0  0  0  0  0  0  0
   10.1548  -16.2430   21.3580 O   0  0  0  0  0  0  0  0  0  0  0  0
   15.1118  -16.0360   22.7896 N   0  0  0  0  0  0  0  0  0  0  0  0
   13.7386  -16.2303   22.4592 C   0  0  0  0  0  0  0  0  0  0  0  0
   13.4901  -16.7159   21.3407 O   0  0  0  0  0  0  0  0  0  0  0  0
   12.7315  -15.8523   23.4399 C   0  0  0  0  0  0  0  0  0  0  0  0
   11.7357  -16.9381   23.7408 C   0  0  2  0  0  0  0  0  0  0  0  0
   10.3677  -16.3984   23.6190 N   0  0  0  0  0  0  0  0  0  0  0  0
   11.8083  -17.4336   25.1282 C   0  0  0  0  0  0  0  0  0  0  0  0
   12.1741  -18.7275   25.3917 O   0  0  0  0  0  0  0  0  0  0  0  0
   11.5374  -16.6842   26.0871 O   0  0  0  0  0  0  0  0  0  0  0  0
  2  1  1  6
  2  3  1  0
  4  2  1  0
  4  5  1  6
  6  8  1  0
  6  4  1  0
  7  6  2  0
  8 12  1  0
  9 10  1  0
  9  8  1  0
 10 11  1  0
 11 12  1  0
 12 13  1  6
 13 20  1  0
 14 13  2  0
 16 17  2  0
 16 15  1  0
 18 16  1  0
 19 20  1  0
 19 21  1  0
 19 18  1  1
 21 23  2  0
 21 22  1  0
M  END
$$$$
