TPN.pdb
     RDKit          3D

 23 23  0  0  1  0  0  0  0  0999 V2000
    7.7208  -16.6879   14.6132 C   0  0  0  0  0  0  0  0  0  0  0  0
    8.2004  -16.4409   16.0275 C   0  0  1  0  0  0  0  0  0  0  0  0
    8.9506  -17.5319   16.4349 O   0  0  0  0  0  0  0  0  0  0  0  0
    9.0091  -15.1573   16.0088 C   0  0  2  0  0  0  0  0  0  0  0  0
   10.0146  -15.2850   15.0147 N   0  0  0  0  0  0  0  0  0  0  0  0
    9.5691  -14.8388   17.3229 C   0  0  0  0  0  0  0  0  0  0  0  0
   10.7903  -15.1787   17.5644 O   0  0  0  0  0  0  0  0  0  0  0  0
    8.8114  -14.1773   18.3172 N   0  0  0  0  0  0  0  0  0  0  0  0
    7.4837  -13.6526   18.1773 C   0  0  0  0  0  0  0  0  0  0  0  0
    7.1083  -13.0119   19.5046 C   0  0  0  0  0  0  0  0  0  0  0  0
    8.4153  -12.9182   20.2232 C   0  0  0  0  0  0  0  0  0  0  0  0
    9.3246  -13.9494   19.6564 C   0  0  1  0  0  0  0  0  0  0  0  0
    9.4412  -15.1891   20.4301 C   0  0  0  0  0  0  0  0  0  0  0  0
    8.7549  -16.2035   20.0621 O   0  0  0  0  0  0  0  0  0  0  0  0
   12.0317  -19.7027   20.6256 N   0  0  0  0  0  0  0  0  0  0  0  0
   12.2356  -18.5548   21.4462 C   0  0  0  0  0  0  0  0  0  0  0  0
   12.9120  -18.7118   22.4788 O   0  0  0  0  0  0  0  0  0  0  0  0
   11.6464  -17.2916   21.0265 C   0  0  0  0  0  0  0  0  0  0  0  0
   10.7073  -16.6917   22.0360 C   0  0  2  0  0  0  0  0  0  0  0  0
   10.2525  -15.3708   21.5606 N   0  0  0  0  0  0  0  0  0  0  0  0
   11.3444  -16.4099   23.3362 C   0  0  0  0  0  0  0  0  0  0  0  0
   11.0894  -17.1991   24.4268 O   0  0  0  0  0  0  0  0  0  0  0  0
   12.1266  -15.4478   23.4669 O   0  0  0  0  0  0  0  0  0  0  0  0
  2  1  1  6
  2  3  1  0
  4  2  1  0
  4  5  1  6
  6  8  1  0
  6  4  1  0
  7  6  2  0
  8 12  1  0
  9 10  1  0
  9  8  1  0
 10 11  1  0
 11 12  1  0
 12 13  1  1
 13 20  1  0
 14 13  2  0
 16 17  2  0
 16 15  1  0
 18 16  1  0
 19 20  1  0
 19 21  1  0
 19 18  1  6
 21 23  2  0
 21 22  1  0
M  END
$$$$
