TPN.pdb
     RDKit          3D

 23 23  0  0  1  0  0  0  0  0999 V2000
   10.5870  -18.9171   17.5767 C   0  0  0  0  0  0  0  0  0  0  0  0
    9.5397  -17.9124   17.1468 C   0  0  1  0  0  0  0  0  0  0  0  0
    8.9756  -18.3456   15.9580 O   0  0  0  0  0  0  0  0  0  0  0  0
    8.5226  -17.8171   18.2687 C   0  0  2  0  0  0  0  0  0  0  0  0
    7.3568  -17.1915   17.7539 N   0  0  0  0  0  0  0  0  0  0  0  0
    9.0549  -17.1162   19.4380 C   0  0  0  0  0  0  0  0  0  0  0  0
   10.2302  -17.4400   19.8607 O   0  0  0  0  0  0  0  0  0  0  0  0
    8.3191  -16.1080   20.1032 N   0  0  0  0  0  0  0  0  0  0  0  0
    7.0496  -15.5696   19.7082 C   0  0  0  0  0  0  0  0  0  0  0  0
    6.6792  -14.4956   20.7194 C   0  0  0  0  0  0  0  0  0  0  0  0
    7.9595  -14.2573   21.4526 C   0  0  0  0  0  0  0  0  0  0  0  0
    8.7962  -15.4797   21.3224 C   0  0  1  0  0  0  0  0  0  0  0  0
    8.7719  -16.3923   22.4695 C   0  0  0  0  0  0  0  0  0  0  0  0
    8.0311  -17.4327   22.4043 O   0  0  0  0  0  0  0  0  0  0  0  0
   12.8820  -18.4905   24.7423 N   0  0  0  0  0  0  0  0  0  0  0  0
   12.8143  -17.9731   23.4155 C   0  0  0  0  0  0  0  0  0  0  0  0
   13.7605  -18.2451   22.6544 O   0  0  0  0  0  0  0  0  0  0  0  0
   11.6575  -17.1713   23.0445 C   0  0  0  0  0  0  0  0  0  0  0  0
   10.5763  -17.1410   24.0891 C   0  0  2  0  0  0  0  0  0  0  0  0
    9.5007  -16.2277   23.6573 N   0  0  0  0  0  0  0  0  0  0  0  0
   11.0238  -16.5894   25.3818 C   0  0  0  0  0  0  0  0  0  0  0  0
   11.0133  -17.3611   26.5140 O   0  0  0  0  0  0  0  0  0  0  0  0
   11.4194  -15.4102   25.4684 O   0  0  0  0  0  0  0  0  0  0  0  0
  2  1  1  1
  2  3  1  0
  4  2  1  0
  4  5  1  6
  6  8  1  0
  6  4  1  0
  7  6  2  0
  8 12  1  0
  9 10  1  0
  9  8  1  0
 10 11  1  0
 11 12  1  0
 12 13  1  1
 13 20  1  0
 14 13  2  0
 16 17  2  0
 16 15  1  0
 18 16  1  0
 19 20  1  0
 19 21  1  0
 19 18  1  6
 21 23  2  0
 21 22  1  0
M  END
$$$$
