TPN.pdb
     RDKit          3D

 23 23  0  0  1  0  0  0  0  0999 V2000
    7.5853  -17.3231   17.0386 C   0  0  0  0  0  0  0  0  0  0  0  0
    8.4696  -16.5523   16.0820 C   0  0  1  0  0  0  0  0  0  0  0  0
    7.9967  -16.7435   14.7939 O   0  0  0  0  0  0  0  0  0  0  0  0
    8.4243  -15.0957   16.5044 C   0  0  2  0  0  0  0  0  0  0  0  0
    8.9667  -14.3147   15.4502 N   0  0  0  0  0  0  0  0  0  0  0  0
    9.1166  -14.8674   17.7734 C   0  0  0  0  0  0  0  0  0  0  0  0
   10.3828  -15.1094   17.8298 O   0  0  0  0  0  0  0  0  0  0  0  0
    8.4371  -14.3951   18.9204 N   0  0  0  0  0  0  0  0  0  0  0  0
    7.0245  -14.1863   19.0561 C   0  0  0  0  0  0  0  0  0  0  0  0
    6.7793  -13.6470   20.4568 C   0  0  0  0  0  0  0  0  0  0  0  0
    8.1460  -13.2580   20.9197 C   0  0  0  0  0  0  0  0  0  0  0  0
    9.1354  -14.0555   20.1476 C   0  0  1  0  0  0  0  0  0  0  0  0
    9.6733  -15.2357   20.8310 C   0  0  0  0  0  0  0  0  0  0  0  0
    9.0694  -16.3532   20.6828 O   0  0  0  0  0  0  0  0  0  0  0  0
   12.6055  -18.5698   23.5357 N   0  0  0  0  0  0  0  0  0  0  0  0
   13.4288  -17.4557   23.1983 C   0  0  0  0  0  0  0  0  0  0  0  0
   14.6255  -17.5158   23.5338 O   0  0  0  0  0  0  0  0  0  0  0  0
   12.8219  -16.3365   22.4926 C   0  0  0  0  0  0  0  0  0  0  0  0
   11.3384  -16.4754   22.2905 C   0  0  2  0  0  0  0  0  0  0  0  0
   10.8128  -15.2545   21.6497 N   0  0  0  0  0  0  0  0  0  0  0  0
   10.5808  -16.5781   23.5520 C   0  0  0  0  0  0  0  0  0  0  0  0
   10.3587  -17.7963   24.1385 O   0  0  0  0  0  0  0  0  0  0  0  0
   10.1278  -15.5580   24.1077 O   0  0  0  0  0  0  0  0  0  0  0  0
  2  1  1  1
  2  3  1  0
  4  2  1  0
  4  5  1  6
  6  8  1  0
  6  4  1  0
  7  6  2  0
  8 12  1  0
  9 10  1  0
  9  8  1  0
 10 11  1  0
 11 12  1  0
 12 13  1  1
 13 20  1  0
 14 13  2  0
 16 17  2  0
 16 15  1  0
 18 16  1  0
 19 20  1  0
 19 21  1  0
 19 18  1  1
 21 23  2  0
 21 22  1  0
M  END
$$$$
