TPN.pdb
     RDKit          3D

 23 23  0  0  1  0  0  0  0  0999 V2000
    6.9804  -17.4250   17.8261 C   0  0  0  0  0  0  0  0  0  0  0  0
    8.2897  -17.5719   17.0809 C   0  0  1  0  0  0  0  0  0  0  0  0
    8.0323  -18.1480   15.8476 O   0  0  0  0  0  0  0  0  0  0  0  0
    8.8930  -16.1852   16.9568 C   0  0  2  0  0  0  0  0  0  0  0  0
    9.9478  -16.2473   16.0087 N   0  0  0  0  0  0  0  0  0  0  0  0
    9.3410  -15.6609   18.2477 C   0  0  0  0  0  0  0  0  0  0  0  0
   10.3867  -16.1871   18.7902 O   0  0  0  0  0  0  0  0  0  0  0  0
    8.6619  -14.6067   18.9018 N   0  0  0  0  0  0  0  0  0  0  0  0
    7.5377  -13.8692   18.4021 C   0  0  0  0  0  0  0  0  0  0  0  0
    7.1802  -12.8251   19.4486 C   0  0  0  0  0  0  0  0  0  0  0  0
    8.3718  -12.8200   20.3505 C   0  0  0  0  0  0  0  0  0  0  0  0
    9.0510  -14.1364   20.2194 C   0  0  1  0  0  0  0  0  0  0  0  0
    8.7552  -15.1124   21.2726 C   0  0  0  0  0  0  0  0  0  0  0  0
    7.7813  -15.9223   21.0961 O   0  0  0  0  0  0  0  0  0  0  0  0
   10.8530  -19.6469   22.1220 N   0  0  0  0  0  0  0  0  0  0  0  0
   11.4785  -18.4040   22.4327 C   0  0  0  0  0  0  0  0  0  0  0  0
   12.5390  -18.4522   23.0821 O   0  0  0  0  0  0  0  0  0  0  0  0
   10.8429  -17.1769   21.9754 C   0  0  0  0  0  0  0  0  0  0  0  0
    9.9526  -16.5323   23.0015 C   0  0  2  0  0  0  0  0  0  0  0  0
    9.4553  -15.2440   22.4816 N   0  0  0  0  0  0  0  0  0  0  0  0
   10.6562  -16.1737   24.2474 C   0  0  0  0  0  0  0  0  0  0  0  0
   11.5654  -15.1488   24.2683 O   0  0  0  0  0  0  0  0  0  0  0  0
   10.4371  -16.7972   25.3046 O   0  0  0  0  0  0  0  0  0  0  0  0
  2  1  1  1
  2  3  1  0
  4  2  1  0
  4  5  1  6
  6  8  1  0
  6  4  1  0
  7  6  2  0
  8 12  1  0
  9 10  1  0
  9  8  1  0
 10 11  1  0
 11 12  1  0
 12 13  1  1
 13 20  1  0
 14 13  2  0
 16 17  2  0
 16 15  1  0
 18 16  1  0
 19 20  1  0
 19 21  1  0
 19 18  1  6
 21 23  2  0
 21 22  1  0
M  END
$$$$
