GQG.pdb
     RDKit          3D

 18 17  0  0  1  0  0  0  0  0999 V2000
    5.0786  -20.5566   22.6639 N   0  0  0  0  0  0  0  0  0  0  0  0
    4.8221  -19.1350   22.6975 C   0  0  0  0  0  0  0  0  0  0  0  0
    6.0520  -18.3331   22.6933 C   0  0  0  0  0  0  0  0  0  0  0  0
    7.2145  -18.8407   22.8099 O   0  0  0  0  0  0  0  0  0  0  0  0
    6.9519  -13.0685   19.4818 N   0  0  0  0  0  0  0  0  0  0  0  0
    8.0870  -13.1259   20.3183 C   0  0  0  0  0  0  0  0  0  0  0  0
    9.1018  -12.3953   20.0644 O   0  0  0  0  0  0  0  0  0  0  0  0
    8.1204  -14.0107   21.4858 C   0  0  0  0  0  0  0  0  0  0  0  0
    6.9598  -14.9046   21.6822 C   0  0  0  0  0  0  0  0  0  0  0  0
    7.0861  -16.0074   22.6581 C   0  0  2  0  0  0  0  0  0  0  0  0
    5.9444  -16.9295   22.5532 N   0  0  0  0  0  0  0  0  0  0  0  0
    7.3505  -15.7404   24.0499 C   0  0  0  0  0  0  0  0  0  0  0  0
    6.4795  -15.4458   24.9301 O   0  0  0  0  0  0  0  0  0  0  0  0
    8.7101  -15.8008   24.5345 N   0  0  0  0  0  0  0  0  0  0  0  0
    8.9973  -15.4920   25.9360 C   0  0  0  0  0  0  0  0  0  0  0  0
    9.5534  -16.6926   26.5833 C   0  0  0  0  0  0  0  0  0  0  0  0
    9.6620  -17.7607   25.9196 O   0  0  0  0  0  0  0  0  0  0  0  0
    9.9705  -16.7190   27.8973 O   0  0  0  0  0  0  0  0  0  0  0  0
  1  2  1  0
  3  2  1  0
  3  4  2  0
  5  6  1  0
  6  8  1  0
  7  6  2  0
  9  8  1  0
 10  9  1  6
 10 11  1  0
 11  3  1  0
 12 10  1  0
 12 13  2  0
 14 12  1  0
 15 14  1  0
 15 16  1  0
 16 17  2  0
 16 18  1  0
M  END
$$$$
