GQG.pdb
     RDKit          3D

 18 17  0  0  1  0  0  0  0  0999 V2000
    3.2715  -21.2563   17.9174 N   0  0  0  0  0  0  0  0  0  0  0  0
    3.5588  -21.3722   19.3287 C   0  0  0  0  0  0  0  0  0  0  0  0
    3.2000  -20.1660   20.0850 C   0  0  0  0  0  0  0  0  0  0  0  0
    3.2480  -18.9935   19.5893 O   0  0  0  0  0  0  0  0  0  0  0  0
   -1.1118  -21.3578   23.2057 N   0  0  0  0  0  0  0  0  0  0  0  0
   -1.2621  -20.2910   22.2941 C   0  0  0  0  0  0  0  0  0  0  0  0
   -2.3492  -20.1630   21.6384 O   0  0  0  0  0  0  0  0  0  0  0  0
   -0.1876  -19.3160   22.0894 C   0  0  0  0  0  0  0  0  0  0  0  0
    1.0357  -19.4870   22.9012 C   0  0  0  0  0  0  0  0  0  0  0  0
    2.3385  -19.1869   22.2711 C   0  0  2  0  0  0  0  0  0  0  0  0
    2.7806  -20.3091   21.4284 N   0  0  0  0  0  0  0  0  0  0  0  0
    3.4530  -18.7193   23.0568 C   0  0  0  0  0  0  0  0  0  0  0  0
    3.4404  -17.7214   23.8470 O   0  0  0  0  0  0  0  0  0  0  0  0
    4.7171  -19.4135   22.9723 N   0  0  0  0  0  0  0  0  0  0  0  0
    5.8645  -18.9320   23.7428 C   0  0  0  0  0  0  0  0  0  0  0  0
    7.0099  -19.8254   23.4987 C   0  0  0  0  0  0  0  0  0  0  0  0
    6.9610  -20.6494   22.5438 O   0  0  0  0  0  0  0  0  0  0  0  0
    8.1550  -19.8144   24.2669 O   0  0  0  0  0  0  0  0  0  0  0  0
  1  2  1  0
  3  2  1  0
  3  4  2  0
  5  6  1  0
  6  8  1  0
  7  6  2  0
  9  8  1  0
 10  9  1  1
 10 11  1  0
 11  3  1  0
 12 10  1  0
 12 13  2  0
 14 12  1  0
 15 14  1  0
 15 16  1  0
 16 17  2  0
 16 18  1  0
M  END
$$$$
