GQG.pdb
     RDKit          3D

 18 17  0  0  1  0  0  0  0  0999 V2000
    7.9977  -13.1183   19.2229 N   0  0  0  0  0  0  0  0  0  0  0  0
    7.2621  -13.7217   20.3103 C   0  0  0  0  0  0  0  0  0  0  0  0
    8.0069  -13.7156   21.5756 C   0  0  0  0  0  0  0  0  0  0  0  0
    9.1946  -13.2674   21.6823 O   0  0  0  0  0  0  0  0  0  0  0  0
    5.5017  -12.9760   27.2885 N   0  0  0  0  0  0  0  0  0  0  0  0
    6.3363  -12.0475   26.6305 C   0  0  0  0  0  0  0  0  0  0  0  0
    6.3629  -10.8314   27.0160 O   0  0  0  0  0  0  0  0  0  0  0  0
    7.1845  -12.4579   25.5084 C   0  0  0  0  0  0  0  0  0  0  0  0
    7.1427  -13.8844   25.1238 C   0  0  0  0  0  0  0  0  0  0  0  0
    8.0408  -14.3418   24.0427 C   0  0  2  0  0  0  0  0  0  0  0  0
    7.3786  -14.2313   22.7334 N   0  0  0  0  0  0  0  0  0  0  0  0
    8.7138  -15.6140   24.1252 C   0  0  0  0  0  0  0  0  0  0  0  0
    8.1531  -16.7428   24.3037 O   0  0  0  0  0  0  0  0  0  0  0  0
   10.1522  -15.6613   23.9998 N   0  0  0  0  0  0  0  0  0  0  0  0
   10.8831  -16.8465   24.4502 C   0  0  0  0  0  0  0  0  0  0  0  0
   11.7915  -17.2820   23.3755 C   0  0  0  0  0  0  0  0  0  0  0  0
   11.7038  -16.7479   22.2353 O   0  0  0  0  0  0  0  0  0  0  0  0
   12.7508  -18.2579   23.5450 O   0  0  0  0  0  0  0  0  0  0  0  0
  1  2  1  0
  3  2  1  0
  3  4  2  0
  5  6  1  0
  6  8  1  0
  7  6  2  0
  9  8  1  0
 10  9  1  1
 10 11  1  0
 11  3  1  0
 12 10  1  0
 12 13  2  0
 14 12  1  0
 15 14  1  0
 15 16  1  0
 16 17  2  0
 16 18  1  0
M  END
$$$$
