GQG.pdb
     RDKit          3D

 18 17  0  0  1  0  0  0  0  0999 V2000
    5.7959  -25.6648   29.3620 N   0  0  0  0  0  0  0  0  0  0  0  0
    5.8696  -24.2530   29.0636 C   0  0  0  0  0  0  0  0  0  0  0  0
    6.6718  -23.9634   27.8685 C   0  0  0  0  0  0  0  0  0  0  0  0
    7.3381  -24.8523   27.2451 O   0  0  0  0  0  0  0  0  0  0  0  0
    3.4658  -22.7575   23.0807 N   0  0  0  0  0  0  0  0  0  0  0  0
    4.4964  -21.9799   23.6506 C   0  0  0  0  0  0  0  0  0  0  0  0
    4.6921  -20.7865   23.2434 O   0  0  0  0  0  0  0  0  0  0  0  0
    5.3485  -22.5187   24.7139 C   0  0  0  0  0  0  0  0  0  0  0  0
    6.4682  -21.6687   25.1704 C   0  0  0  0  0  0  0  0  0  0  0  0
    7.4140  -22.2317   26.1568 C   0  0  2  0  0  0  0  0  0  0  0  0
    6.7089  -22.6350   27.3836 N   0  0  0  0  0  0  0  0  0  0  0  0
    8.6194  -21.5270   26.5155 C   0  0  0  0  0  0  0  0  0  0  0  0
    9.5215  -21.1354   25.7072 O   0  0  0  0  0  0  0  0  0  0  0  0
    8.8687  -21.2158   27.9040 N   0  0  0  0  0  0  0  0  0  0  0  0
   10.0717  -20.4709   28.2780 C   0  0  0  0  0  0  0  0  0  0  0  0
   11.1316  -21.4287   28.6372 C   0  0  0  0  0  0  0  0  0  0  0  0
   10.9379  -22.6632   28.4594 O   0  0  0  0  0  0  0  0  0  0  0  0
   12.3467  -21.0487   29.1668 O   0  0  0  0  0  0  0  0  0  0  0  0
  1  2  1  0
  3  2  1  0
  3  4  2  0
  5  6  1  0
  6  8  1  0
  7  6  2  0
  9  8  1  0
 10  9  1  6
 10 11  1  0
 11  3  1  0
 12 10  1  0
 12 13  2  0
 14 12  1  0
 15 14  1  0
 15 16  1  0
 16 17  2  0
 16 18  1  0
M  END
$$$$
