GQG.pdb
     RDKit          3D

 18 17  0  0  1  0  0  0  0  0999 V2000
    5.0557  -22.3539   18.6597 N   0  0  0  0  0  0  0  0  0  0  0  0
    5.0709  -22.2984   20.1034 C   0  0  0  0  0  0  0  0  0  0  0  0
    5.0322  -20.9254   20.6221 C   0  0  0  0  0  0  0  0  0  0  0  0
    5.6618  -19.9589   20.0813 O   0  0  0  0  0  0  0  0  0  0  0  0
    0.9942  -20.8782   21.3380 N   0  0  0  0  0  0  0  0  0  0  0  0
    1.1748  -19.6702   20.6312 C   0  0  0  0  0  0  0  0  0  0  0  0
    0.5574  -19.4784   19.5311 O   0  0  0  0  0  0  0  0  0  0  0  0
    2.0598  -18.6209   21.1438 C   0  0  0  0  0  0  0  0  0  0  0  0
    2.7378  -18.8857   22.4302 C   0  0  0  0  0  0  0  0  0  0  0  0
    4.1471  -19.3300   22.3972 C   0  0  2  0  0  0  0  0  0  0  0  0
    4.2600  -20.6595   21.7772 N   0  0  0  0  0  0  0  0  0  0  0  0
    4.9655  -19.2916   23.5834 C   0  0  0  0  0  0  0  0  0  0  0  0
    4.8267  -20.0337   24.6082 O   0  0  0  0  0  0  0  0  0  0  0  0
    6.0519  -18.3425   23.6612 N   0  0  0  0  0  0  0  0  0  0  0  0
    6.8745  -18.2759   24.8698 C   0  0  0  0  0  0  0  0  0  0  0  0
    8.0856  -19.0892   24.6661 C   0  0  0  0  0  0  0  0  0  0  0  0
    7.9906  -20.2101   24.0936 O   0  0  0  0  0  0  0  0  0  0  0  0
    9.3417  -18.6906   25.0720 O   0  0  0  0  0  0  0  0  0  0  0  0
  1  2  1  0
  3  2  1  0
  3  4  2  0
  5  6  1  0
  6  8  1  0
  7  6  2  0
  9  8  1  0
 10  9  1  1
 10 11  1  0
 11  3  1  0
 12 10  1  0
 12 13  2  0
 14 12  1  0
 15 14  1  0
 15 16  1  0
 16 17  2  0
 16 18  1  0
M  END
$$$$
