GQG.pdb
     RDKit          3D

 18 17  0  0  1  0  0  0  0  0999 V2000
    6.5921  -18.9219   19.1540 N   0  0  0  0  0  0  0  0  0  0  0  0
    6.2797  -17.8094   20.0215 C   0  0  0  0  0  0  0  0  0  0  0  0
    7.3697  -16.8295   20.1078 C   0  0  0  0  0  0  0  0  0  0  0  0
    8.5266  -17.0299   19.6138 O   0  0  0  0  0  0  0  0  0  0  0  0
    9.7649  -13.0185   18.7171 N   0  0  0  0  0  0  0  0  0  0  0  0
    8.4098  -12.9963   18.3237 C   0  0  0  0  0  0  0  0  0  0  0  0
    8.1071  -13.0013   17.0841 O   0  0  0  0  0  0  0  0  0  0  0  0
    7.3350  -12.9738   19.3194 C   0  0  0  0  0  0  0  0  0  0  0  0
    7.7146  -13.2493   20.7211 C   0  0  0  0  0  0  0  0  0  0  0  0
    8.1733  -14.6117   21.0645 C   0  0  2  0  0  0  0  0  0  0  0  0
    7.1269  -15.6035   20.7704 N   0  0  0  0  0  0  0  0  0  0  0  0
    8.7456  -14.8988   22.3562 C   0  0  0  0  0  0  0  0  0  0  0  0
    8.1386  -14.8249   23.4726 O   0  0  0  0  0  0  0  0  0  0  0  0
   10.1278  -15.3103   22.4402 N   0  0  0  0  0  0  0  0  0  0  0  0
   10.6812  -15.7431   23.7242 C   0  0  0  0  0  0  0  0  0  0  0  0
   12.1113  -16.0482   23.5470 C   0  0  0  0  0  0  0  0  0  0  0  0
   12.6225  -15.9763   22.3952 O   0  0  0  0  0  0  0  0  0  0  0  0
   12.9408  -16.4150   24.5856 O   0  0  0  0  0  0  0  0  0  0  0  0
  1  2  1  0
  3  2  1  0
  3  4  2  0
  5  6  1  0
  6  8  1  0
  7  6  2  0
  9  8  1  0
 10  9  1  1
 10 11  1  0
 11  3  1  0
 12 10  1  0
 12 13  2  0
 14 12  1  0
 15 14  1  0
 15 16  1  0
 16 17  2  0
 16 18  1  0
M  END
$$$$
