GQG.pdb
     RDKit          3D

 18 17  0  0  1  0  0  0  0  0999 V2000
    5.1059  -18.6012   21.0428 N   0  0  0  0  0  0  0  0  0  0  0  0
    5.2345  -17.2896   21.6353 C   0  0  0  0  0  0  0  0  0  0  0  0
    6.5587  -16.6933   21.4191 C   0  0  0  0  0  0  0  0  0  0  0  0
    7.5269  -17.3235   20.8823 O   0  0  0  0  0  0  0  0  0  0  0  0
    9.7203  -13.1713   18.9266 N   0  0  0  0  0  0  0  0  0  0  0  0
    8.3389  -13.2160   18.6416 C   0  0  0  0  0  0  0  0  0  0  0  0
    7.9405  -13.2648   17.4304 O   0  0  0  0  0  0  0  0  0  0  0  0
    7.3456  -13.2140   19.7189 C   0  0  0  0  0  0  0  0  0  0  0  0
    7.8575  -13.3080   21.1022 C   0  0  0  0  0  0  0  0  0  0  0  0
    8.0579  -14.6529   21.6817 C   0  0  2  0  0  0  0  0  0  0  0  0
    6.7730  -15.3553   21.8253 N   0  0  0  0  0  0  0  0  0  0  0  0
    8.8321  -14.8353   22.8841 C   0  0  0  0  0  0  0  0  0  0  0  0
    8.4583  -14.5346   24.0632 O   0  0  0  0  0  0  0  0  0  0  0  0
   10.1557  -15.4065   22.7916 N   0  0  0  0  0  0  0  0  0  0  0  0
   10.9141  -15.6865   24.0117 C   0  0  0  0  0  0  0  0  0  0  0  0
   12.2501  -16.1818   23.6380 C   0  0  0  0  0  0  0  0  0  0  0  0
   12.4437  -16.6235   22.4716 O   0  0  0  0  0  0  0  0  0  0  0  0
   13.3228  -16.1917   24.5044 O   0  0  0  0  0  0  0  0  0  0  0  0
  1  2  1  0
  3  2  1  0
  3  4  2  0
  5  6  1  0
  6  8  1  0
  7  6  2  0
  9  8  1  0
 10  9  1  1
 10 11  1  0
 11  3  1  0
 12 10  1  0
 12 13  2  0
 14 12  1  0
 15 14  1  0
 15 16  1  0
 16 17  2  0
 16 18  1  0
M  END
$$$$
