CVD.pdb
     RDKit          3D

 22 21  0  0  1  0  0  0  0  0999 V2000
   20.0298  -20.0730  -11.6899 N   0  0  0  0  0  0  0  0  0  0  0  0
   20.9253  -21.0973  -12.1743 C   0  0  1  0  0  0  0  0  0  0  0  0
   20.3111  -21.6285  -13.4592 C   0  0  0  0  0  0  0  0  0  0  0  0
   18.9091  -22.6947  -13.1211 S   0  0  0  0  0  0  0  0  0  0  0  0
   22.2579  -20.4872  -12.4993 C   0  0  0  0  0  0  0  0  0  0  0  0
   22.2877  -19.3297  -12.9593 O   0  0  0  0  0  0  0  0  0  0  0  0
   25.9111  -22.6090  -11.5660 C   0  0  0  0  0  0  0  0  0  0  0  0
   25.7275  -21.1223  -11.5744 C   0  0  1  0  0  0  0  0  0  0  0  0
   27.0644  -20.4238  -11.8369 C   0  0  0  0  0  0  0  0  0  0  0  0
   24.7367  -20.6392  -12.5710 C   0  0  2  0  0  0  0  0  0  0  0  0
   23.4435  -21.2282  -12.2801 N   0  0  0  0  0  0  0  0  0  0  0  0
   25.1657  -20.9766  -13.9560 C   0  0  0  0  0  0  0  0  0  0  0  0
   25.2307  -22.1506  -14.3898 O   0  0  0  0  0  0  0  0  0  0  0  0
   25.5368  -19.9376  -14.8902 N   0  0  0  0  0  0  0  0  0  0  0  0
   26.0699  -20.3096  -16.2102 C   0  0  1  0  0  0  0  0  0  0  0  0
   26.6638  -19.1321  -16.9185 C   0  0  0  0  0  0  0  0  0  0  0  0
   26.7791  -19.3002  -18.3665 C   0  0  0  0  0  0  0  0  0  0  0  0
   26.4202  -20.3781  -18.8968 O   0  0  0  0  0  0  0  0  0  0  0  0
   26.9995  -21.4579  -16.0834 C   0  0  0  0  0  0  0  0  0  0  0  0
   26.8641  -22.5820  -16.5890 O   0  0  0  0  0  0  0  0  0  0  0  0
   27.2760  -18.2953  -19.1666 O   0  0  0  0  0  0  0  0  0  0  0  0
   28.1776  -21.2783  -15.3095 O   0  0  0  0  0  0  0  0  0  0  0  0
  2  1  1  6
  3  2  1  0
  4  3  1  0
  5  2  1  0
  5  6  2  0
  8  7  1  6
  8 10  1  0
  9  8  1  0
 10 11  1  1
 10 12  1  0
 11  5  1  0
 12 14  1  0
 12 13  2  0
 14 15  1  0
 15 16  1  1
 17 16  1  0
 17 21  1  0
 18 17  2  0
 19 15  1  0
 20 19  2  0
 22 19  1  0
M  END
$$$$
