CVD.pdb
     RDKit          3D

 22 21  0  0  1  0  0  0  0  0999 V2000
   17.8249  -13.2927  -15.9429 N   0  0  0  0  0  0  0  0  0  0  0  0
   18.3411  -12.1226  -16.6139 C   0  0  1  0  0  0  0  0  0  0  0  0
   17.1321  -11.2985  -17.0255 C   0  0  0  0  0  0  0  0  0  0  0  0
   16.1611  -12.1419  -18.2755 S   0  0  0  0  0  0  0  0  0  0  0  0
   19.1645  -11.3147  -15.6534 C   0  0  0  0  0  0  0  0  0  0  0  0
   18.7178  -11.1130  -14.5078 O   0  0  0  0  0  0  0  0  0  0  0  0
   23.2287  -10.5021  -16.5721 C   0  0  0  0  0  0  0  0  0  0  0  0
   22.6348  -10.5325  -15.1972 C   0  0  1  0  0  0  0  0  0  0  0  0
   23.4879   -9.7047  -14.2321 C   0  0  0  0  0  0  0  0  0  0  0  0
   21.2335  -10.0423  -15.1308 C   0  0  2  0  0  0  0  0  0  0  0  0
   20.4194  -10.8021  -16.0602 N   0  0  0  0  0  0  0  0  0  0  0  0
   21.1622   -8.5880  -15.4406 C   0  0  0  0  0  0  0  0  0  0  0  0
   21.4403   -8.1092  -16.5650 O   0  0  0  0  0  0  0  0  0  0  0  0
   20.7574   -7.6349  -14.4319 N   0  0  0  0  0  0  0  0  0  0  0  0
   20.7579   -6.1989  -14.7530 C   0  0  1  0  0  0  0  0  0  0  0  0
   19.4243   -5.5727  -14.4882 C   0  0  0  0  0  0  0  0  0  0  0  0
   19.3562   -4.1489  -14.8145 C   0  0  0  0  0  0  0  0  0  0  0  0
   20.1862   -3.6548  -15.6138 O   0  0  0  0  0  0  0  0  0  0  0  0
   21.8812   -5.5192  -14.0638 C   0  0  0  0  0  0  0  0  0  0  0  0
   22.5072   -4.5271  -14.4654 O   0  0  0  0  0  0  0  0  0  0  0  0
   18.3950   -3.3326  -14.2605 O   0  0  0  0  0  0  0  0  0  0  0  0
   22.3031   -6.0362  -12.8093 O   0  0  0  0  0  0  0  0  0  0  0  0
  2  1  1  1
  3  2  1  0
  4  3  1  0
  5  2  1  0
  5  6  2  0
  8  7  1  6
  8 10  1  0
  9  8  1  0
 10 11  1  6
 10 12  1  0
 11  5  1  0
 12 14  1  0
 12 13  2  0
 14 15  1  0
 15 16  1  1
 17 16  1  0
 17 21  1  0
 18 17  2  0
 19 15  1  0
 20 19  2  0
 22 19  1  0
M  END
$$$$
