CVD.pdb
     RDKit          3D

 22 21  0  0  1  0  0  0  0  0999 V2000
   19.0744  -23.7422   -7.1385 N   0  0  0  0  0  0  0  0  0  0  0  0
   19.4290  -24.0124   -8.5123 C   0  0  1  0  0  0  0  0  0  0  0  0
   18.2009  -24.6356   -9.1555 C   0  0  0  0  0  0  0  0  0  0  0  0
   17.9502  -26.3191   -8.5898 S   0  0  0  0  0  0  0  0  0  0  0  0
   19.7329  -22.7218   -9.2160 C   0  0  0  0  0  0  0  0  0  0  0  0
   19.0113  -21.7324   -8.9857 O   0  0  0  0  0  0  0  0  0  0  0  0
   23.1269  -20.0174  -11.4739 C   0  0  0  0  0  0  0  0  0  0  0  0
   22.6368  -21.2105  -10.7121 C   0  0  1  0  0  0  0  0  0  0  0  0
   23.0778  -21.1235   -9.2485 C   0  0  0  0  0  0  0  0  0  0  0  0
   21.1625  -21.3925  -10.7529 C   0  0  2  0  0  0  0  0  0  0  0  0
   20.8211  -22.6512  -10.1182 N   0  0  0  0  0  0  0  0  0  0  0  0
   20.6599  -21.3595  -12.1537 C   0  0  0  0  0  0  0  0  0  0  0  0
   20.3432  -22.3881  -12.7959 O   0  0  0  0  0  0  0  0  0  0  0  0
   20.5090  -20.1055  -12.8570 N   0  0  0  0  0  0  0  0  0  0  0  0
   19.7257  -20.0650  -14.1019 C   0  0  1  0  0  0  0  0  0  0  0  0
   18.3014  -20.4643  -13.8722 C   0  0  0  0  0  0  0  0  0  0  0  0
   17.4555  -20.3755  -15.0616 C   0  0  0  0  0  0  0  0  0  0  0  0
   17.6592  -21.1484  -16.0274 O   0  0  0  0  0  0  0  0  0  0  0  0
   19.8741  -18.7441  -14.7591 C   0  0  0  0  0  0  0  0  0  0  0  0
   19.5106  -18.4400  -15.9050 O   0  0  0  0  0  0  0  0  0  0  0  0
   16.4332  -19.4563  -15.1461 O   0  0  0  0  0  0  0  0  0  0  0  0
   20.4916  -17.6988  -14.0207 O   0  0  0  0  0  0  0  0  0  0  0  0
  2  1  1  1
  3  2  1  0
  4  3  1  0
  5  2  1  0
  5  6  2  0
  8  7  1  6
  8 10  1  0
  9  8  1  0
 10 11  1  6
 10 12  1  0
 11  5  1  0
 12 14  1  0
 12 13  2  0
 14 15  1  0
 15 16  1  1
 17 16  1  0
 17 21  1  0
 18 17  2  0
 19 15  1  0
 20 19  2  0
 22 19  1  0
M  END
$$$$
