MQD.pdb
     RDKit          3D

 26 25  0  0  1  0  0  0  0  0999 V2000
   24.7063  -21.1002   -7.4337 C   0  0  0  0  0  0  0  0  0  0  0  0
   24.5940  -20.7806   -9.1986 S   0  0  0  0  0  0  0  0  0  0  0  0
   26.1870  -20.7925  -10.0224 C   0  0  0  0  0  0  0  0  0  0  0  0
   26.1165  -20.2748  -11.4493 C   0  0  0  0  0  0  0  0  0  0  0  0
   24.8757  -20.8431  -12.1475 C   0  0  2  0  0  0  0  0  0  0  0  0
   25.1205  -22.2554  -12.3754 N   0  0  0  0  0  0  0  0  0  0  0  0
   24.7269  -20.1768  -13.4448 C   0  0  0  0  0  0  0  0  0  0  0  0
   24.6924  -18.9077  -13.4433 O   0  0  0  0  0  0  0  0  0  0  0  0
   26.9627  -22.9226  -16.3618 N   0  0  0  0  0  0  0  0  0  0  0  0
   27.6601  -21.6984  -16.2211 C   0  0  0  0  0  0  0  0  0  0  0  0
   28.8480  -21.7206  -15.8333 O   0  0  0  0  0  0  0  0  0  0  0  0
   26.9515  -20.4401  -16.5397 C   0  0  0  0  0  0  0  0  0  0  0  0
   25.5234  -20.6135  -16.8778 C   0  0  0  0  0  0  0  0  0  0  0  0
   24.5090  -20.0304  -15.9560 C   0  0  2  0  0  0  0  0  0  0  0  0
   24.6181  -20.8232  -14.6980 N   0  0  0  0  0  0  0  0  0  0  0  0
   23.1141  -20.0874  -16.4367 C   0  0  0  0  0  0  0  0  0  0  0  0
   22.3929  -21.0846  -16.1054 O   0  0  0  0  0  0  0  0  0  0  0  0
   22.4647  -19.1303  -17.2468 N   0  0  0  0  0  0  0  0  0  0  0  0
   21.0396  -18.8893  -17.1506 C   0  0  1  0  0  0  0  0  0  0  0  0
   20.5381  -18.8682  -15.7341 C   0  0  0  0  0  0  0  0  0  0  0  0
   19.0854  -18.6642  -15.6333 C   0  0  0  0  0  0  0  0  0  0  0  0
   18.2368  -19.2982  -16.3222 O   0  0  0  0  0  0  0  0  0  0  0  0
   20.7292  -17.5804  -17.7552 C   0  0  0  0  0  0  0  0  0  0  0  0
   21.6410  -16.8194  -18.1258 O   0  0  0  0  0  0  0  0  0  0  0  0
   18.5969  -17.7254  -14.7357 O   0  0  0  0  0  0  0  0  0  0  0  0
   19.4161  -17.1984  -17.9103 O   0  0  0  0  0  0  0  0  0  0  0  0
  2  1  1  0
  3  2  1  0
  4  3  1  0
  4  5  1  0
  5  6  1  6
  5  7  1  0
  7  8  2  0
  9 10  1  0
 10 11  2  0
 10 12  1  0
 12 13  1  0
 14 13  1  6
 15  7  1  0
 15 14  1  0
 16 14  1  0
 16 17  2  0
 18 16  1  0
 19 18  1  0
 20 21  1  0
 19 20  1  1
 21 25  1  0
 22 21  2  0
 23 19  1  0
 23 26  1  0
 24 23  2  0
M  END
$$$$
