MQD.pdb
     RDKit          3D

 26 25  0  0  1  0  0  0  0  0999 V2000
   11.7430  -11.9118  -13.1446 C   0  0  0  0  0  0  0  0  0  0  0  0
   12.2374  -12.1616  -14.8541 S   0  0  0  0  0  0  0  0  0  0  0  0
   14.0069  -12.3735  -15.0551 C   0  0  0  0  0  0  0  0  0  0  0  0
   14.8111  -11.6736  -13.9723 C   0  0  0  0  0  0  0  0  0  0  0  0
   16.2376  -11.4144  -14.4702 C   0  0  2  0  0  0  0  0  0  0  0  0
   16.8787  -12.7069  -14.6278 N   0  0  0  0  0  0  0  0  0  0  0  0
   16.9572  -10.6553  -13.4430 C   0  0  0  0  0  0  0  0  0  0  0  0
   17.2172  -11.2558  -12.3551 O   0  0  0  0  0  0  0  0  0  0  0  0
   20.9075   -6.2491  -14.4222 N   0  0  0  0  0  0  0  0  0  0  0  0
   21.1671   -7.6408  -14.3925 C   0  0  0  0  0  0  0  0  0  0  0  0
   22.1856   -8.0782  -14.9699 O   0  0  0  0  0  0  0  0  0  0  0  0
   20.2189   -8.5219  -13.6773 C   0  0  0  0  0  0  0  0  0  0  0  0
   19.1258   -7.8074  -12.9856 C   0  0  0  0  0  0  0  0  0  0  0  0
   18.0198   -8.6158  -12.4008 C   0  0  2  0  0  0  0  0  0  0  0  0
   17.3873   -9.3128  -13.5570 N   0  0  0  0  0  0  0  0  0  0  0  0
   16.9851   -7.8432  -11.6848 C   0  0  0  0  0  0  0  0  0  0  0  0
   15.8797   -7.6079  -12.2742 O   0  0  0  0  0  0  0  0  0  0  0  0
   17.0818   -7.3194  -10.3771 N   0  0  0  0  0  0  0  0  0  0  0  0
   16.0102   -6.5471   -9.7826 C   0  0  1  0  0  0  0  0  0  0  0  0
   14.8134   -7.3797   -9.4183 C   0  0  0  0  0  0  0  0  0  0  0  0
   13.7495   -6.6116   -8.7546 C   0  0  0  0  0  0  0  0  0  0  0  0
   13.7136   -5.3492   -8.7153 O   0  0  0  0  0  0  0  0  0  0  0  0
   16.5030   -5.9071   -8.5487 C   0  0  0  0  0  0  0  0  0  0  0  0
   17.5555   -6.2934   -8.0093 O   0  0  0  0  0  0  0  0  0  0  0  0
   12.7155   -7.2934   -8.1289 O   0  0  0  0  0  0  0  0  0  0  0  0
   15.7896   -4.8715   -7.9894 O   0  0  0  0  0  0  0  0  0  0  0  0
  2  1  1  0
  3  2  1  0
  4  3  1  0
  4  5  1  0
  5  6  1  1
  5  7  1  0
  7  8  2  0
  9 10  1  0
 10 11  2  0
 10 12  1  0
 12 13  1  0
 14 13  1  6
 15  7  1  0
 15 14  1  0
 16 14  1  0
 16 17  2  0
 18 16  1  0
 19 18  1  0
 20 21  1  0
 19 20  1  1
 21 25  1  0
 22 21  2  0
 23 19  1  0
 23 26  1  0
 24 23  2  0
M  END
$$$$
