MQD.pdb
     RDKit          3D

 26 25  0  0  1  0  0  0  0  0999 V2000
   27.9113  -18.3495   -4.4520 C   0  0  0  0  0  0  0  0  0  0  0  0
   28.8940  -19.8384   -4.6688 S   0  0  0  0  0  0  0  0  0  0  0  0
   28.3756  -20.8303   -6.0701 C   0  0  0  0  0  0  0  0  0  0  0  0
   27.5639  -20.0405   -7.0833 C   0  0  0  0  0  0  0  0  0  0  0  0
   27.0463  -20.9789   -8.1793 C   0  0  2  0  0  0  0  0  0  0  0  0
   28.2056  -21.5813   -8.8115 N   0  0  0  0  0  0  0  0  0  0  0  0
   26.3307  -20.1776   -9.1768 C   0  0  0  0  0  0  0  0  0  0  0  0
   26.7694  -19.0079   -9.4029 O   0  0  0  0  0  0  0  0  0  0  0  0
   28.7776  -20.3805  -12.9187 N   0  0  0  0  0  0  0  0  0  0  0  0
   27.8277  -20.8359  -13.8648 C   0  0  0  0  0  0  0  0  0  0  0  0
   28.1518  -20.8861  -15.0709 O   0  0  0  0  0  0  0  0  0  0  0  0
   26.4868  -21.2345  -13.3851 C   0  0  0  0  0  0  0  0  0  0  0  0
   26.3159  -21.1573  -11.9193 C   0  0  0  0  0  0  0  0  0  0  0  0
   25.1373  -20.4166  -11.3890 C   0  0  2  0  0  0  0  0  0  0  0  0
   25.1945  -20.5927   -9.9096 N   0  0  0  0  0  0  0  0  0  0  0  0
   23.8256  -20.8883  -11.8756 C   0  0  0  0  0  0  0  0  0  0  0  0
   23.4434  -22.0633  -11.5631 O   0  0  0  0  0  0  0  0  0  0  0  0
   22.9140  -20.1617  -12.6724 N   0  0  0  0  0  0  0  0  0  0  0  0
   21.6067  -20.6870  -13.0092 C   0  0  1  0  0  0  0  0  0  0  0  0
   20.6775  -19.6463  -13.5675 C   0  0  0  0  0  0  0  0  0  0  0  0
   19.6228  -19.2416  -12.6261 C   0  0  0  0  0  0  0  0  0  0  0  0
   18.8688  -18.2430  -12.8018 O   0  0  0  0  0  0  0  0  0  0  0  0
   21.7583  -21.7441  -14.0263 C   0  0  0  0  0  0  0  0  0  0  0  0
   22.7837  -21.8083  -14.7281 O   0  0  0  0  0  0  0  0  0  0  0  0
   19.4277  -19.9859  -11.4713 O   0  0  0  0  0  0  0  0  0  0  0  0
   20.7536  -22.6687  -14.1996 O   0  0  0  0  0  0  0  0  0  0  0  0
  2  1  1  0
  3  2  1  0
  4  3  1  0
  4  5  1  0
  5  6  1  6
  5  7  1  0
  7  8  2  0
  9 10  1  0
 10 11  2  0
 10 12  1  0
 12 13  1  0
 14 13  1  6
 15  7  1  0
 15 14  1  0
 16 14  1  0
 16 17  2  0
 18 16  1  0
 19 18  1  0
 20 21  1  0
 19 20  1  6
 21 25  1  0
 22 21  2  0
 23 19  1  0
 23 26  1  0
 24 23  2  0
M  END
$$$$
