MQD.pdb
     RDKit          3D

 26 25  0  0  1  0  0  0  0  0999 V2000
   17.0413  -14.2178  -21.0435 C   0  0  0  0  0  0  0  0  0  0  0  0
   16.9004  -13.2811  -19.5163 S   0  0  0  0  0  0  0  0  0  0  0  0
   18.4839  -12.9428  -18.7452 C   0  0  0  0  0  0  0  0  0  0  0  0
   18.3783  -11.9657  -17.5862 C   0  0  0  0  0  0  0  0  0  0  0  0
   19.7507  -11.7928  -16.9258 C   0  0  2  0  0  0  0  0  0  0  0  0
   20.0757  -13.0492  -16.2758 N   0  0  0  0  0  0  0  0  0  0  0  0
   19.6454  -10.7482  -15.9026 C   0  0  0  0  0  0  0  0  0  0  0  0
   19.2266  -11.1000  -14.7570 O   0  0  0  0  0  0  0  0  0  0  0  0
   23.3063   -6.1055  -14.8052 N   0  0  0  0  0  0  0  0  0  0  0  0
   22.1979   -5.5806  -14.0976 C   0  0  0  0  0  0  0  0  0  0  0  0
   22.3172   -4.4802  -13.5173 O   0  0  0  0  0  0  0  0  0  0  0  0
   20.9407   -6.3591  -14.0743 C   0  0  0  0  0  0  0  0  0  0  0  0
   20.9640   -7.5799  -14.9068 C   0  0  0  0  0  0  0  0  0  0  0  0
   19.7201   -8.3949  -14.9908 C   0  0  2  0  0  0  0  0  0  0  0  0
   19.9693   -9.3828  -16.0793 N   0  0  0  0  0  0  0  0  0  0  0  0
   18.4913   -7.6387  -15.3044 C   0  0  0  0  0  0  0  0  0  0  0  0
   18.3211   -7.2139  -16.4939 O   0  0  0  0  0  0  0  0  0  0  0  0
   17.4467   -7.3236  -14.4081 N   0  0  0  0  0  0  0  0  0  0  0  0
   16.3361   -6.4786  -14.7966 C   0  0  1  0  0  0  0  0  0  0  0  0
   15.0180   -6.9443  -14.2451 C   0  0  0  0  0  0  0  0  0  0  0  0
   13.8954   -6.0615  -14.5951 C   0  0  0  0  0  0  0  0  0  0  0  0
   13.9992   -5.0622  -15.3613 O   0  0  0  0  0  0  0  0  0  0  0  0
   16.5722   -5.1110  -14.2977 C   0  0  0  0  0  0  0  0  0  0  0  0
   16.9591   -4.9181  -13.1311 O   0  0  0  0  0  0  0  0  0  0  0  0
   12.6406   -6.3232  -14.0636 O   0  0  0  0  0  0  0  0  0  0  0  0
   16.3618   -4.0377  -15.1332 O   0  0  0  0  0  0  0  0  0  0  0  0
  2  1  1  0
  3  2  1  0
  4  3  1  0
  4  5  1  0
  5  6  1  1
  5  7  1  0
  7  8  2  0
  9 10  1  0
 10 11  2  0
 10 12  1  0
 12 13  1  0
 14 13  1  6
 15  7  1  0
 15 14  1  0
 16 14  1  0
 16 17  2  0
 18 16  1  0
 19 18  1  0
 20 21  1  0
 19 20  1  1
 21 25  1  0
 22 21  2  0
 23 19  1  0
 23 26  1  0
 24 23  2  0
M  END
$$$$
