IAF.pdb
     RDKit          3D

 25 25  0  0  1  0  0  0  0  0999 V2000
   23.9408  -16.9151  -17.3140 C   0  0  0  0  0  0  0  0  0  0  0  0
   25.4292  -17.0032  -17.1756 C   0  0  0  0  0  0  0  0  0  0  0  0
   25.7302  -18.2002  -16.2725 C   0  0  2  0  0  0  0  0  0  0  0  0
   25.0583  -17.9907  -14.9589 C   0  0  0  0  0  0  0  0  0  0  0  0
   27.2300  -18.3232  -16.0626 C   0  0  2  0  0  0  0  0  0  0  0  0
   27.8596  -18.5886  -17.3774 N   0  0  0  0  0  0  0  0  0  0  0  0
   27.4823  -19.5238  -15.2462 C   0  0  0  0  0  0  0  0  0  0  0  0
   27.1559  -20.6573  -15.6996 O   0  0  0  0  0  0  0  0  0  0  0  0
   29.4296  -20.3342  -12.1943 C   0  0  0  0  0  0  0  0  0  0  0  0
   28.3195  -20.6903  -13.1799 C   0  0  2  0  0  0  0  0  0  0  0  0
   28.0760  -19.4952  -13.9715 N   0  0  0  0  0  0  0  0  0  0  0  0
   27.1406  -21.0757  -12.3836 C   0  0  0  0  0  0  0  0  0  0  0  0
   27.1284  -22.1495  -11.6889 O   0  0  0  0  0  0  0  0  0  0  0  0
   25.9496  -20.3078  -12.3218 N   0  0  0  0  0  0  0  0  0  0  0  0
   24.7831  -20.6970  -11.5537 C   0  0  1  0  0  0  0  0  0  0  0  0
   24.5776  -19.6441  -10.4856 C   0  0  0  0  0  0  0  0  0  0  0  0
   25.3333  -19.9221   -9.2502 C   0  0  0  0  0  0  0  0  0  0  0  0
   26.2405  -19.0044   -8.7674 C   0  0  0  0  0  0  0  0  0  0  0  0
   26.9687  -19.2339   -7.6077 C   0  0  0  0  0  0  0  0  0  0  0  0
   26.7897  -20.4020   -6.9142 C   0  0  0  0  0  0  0  0  0  0  0  0
   25.8778  -21.3526   -7.3772 C   0  0  0  0  0  0  0  0  0  0  0  0
   25.1683  -21.0904   -8.5379 C   0  0  0  0  0  0  0  0  0  0  0  0
   23.5959  -20.9066  -12.3821 C   0  0  0  0  0  0  0  0  0  0  0  0
   22.3798  -21.3679  -11.8959 O   0  0  0  0  0  0  0  0  0  0  0  0
   23.6610  -20.6590  -13.6137 O   0  0  0  0  0  0  0  0  0  0  0  0
  1  2  1  0
  2  3  1  0
  3  4  1  1
  3  5  1  0
  5  6  1  6
  5  7  1  0
  7  8  2  0
 10  9  1  1
 11  7  1  0
 11 10  1  0
 12 10  1  0
 12 13  2  0
 14 12  1  0
 15 14  1  0
 15 16  1  1
 17 18  2  0
 17 16  1  0
 19 18  1  0
 20 19  2  0
 21 20  1  0
 21 22  2  0
 22 17  1  0
 23 15  1  0
 24 23  1  0
 25 23  2  0
M  END
$$$$
