IAF.pdb
     RDKit          3D

 25 25  0  0  1  0  0  0  0  0999 V2000
   26.1991  -12.7107  -19.9673 C   0  0  0  0  0  0  0  0  0  0  0  0
   24.9536  -12.5695  -19.1481 C   0  0  0  0  0  0  0  0  0  0  0  0
   25.3746  -12.5802  -17.6779 C   0  0  2  0  0  0  0  0  0  0  0  0
   26.0968  -13.8527  -17.3953 C   0  0  0  0  0  0  0  0  0  0  0  0
   24.1458  -12.4848  -16.7893 C   0  0  2  0  0  0  0  0  0  0  0  0
   23.1062  -13.3848  -17.3414 N   0  0  0  0  0  0  0  0  0  0  0  0
   23.6000  -11.1209  -16.9055 C   0  0  0  0  0  0  0  0  0  0  0  0
   24.2749  -10.1473  -16.4655 O   0  0  0  0  0  0  0  0  0  0  0  0
   20.5787   -9.5548  -18.4543 C   0  0  0  0  0  0  0  0  0  0  0  0
   21.8182   -9.4721  -17.5671 C   0  0  2  0  0  0  0  0  0  0  0  0
   22.3550  -10.8210  -17.4868 N   0  0  0  0  0  0  0  0  0  0  0  0
   21.3771   -8.9734  -16.2521 C   0  0  0  0  0  0  0  0  0  0  0  0
   20.8585   -9.7555  -15.3831 O   0  0  0  0  0  0  0  0  0  0  0  0
   21.4876   -7.6180  -15.8491 N   0  0  0  0  0  0  0  0  0  0  0  0
   21.0233   -7.1214  -14.5684 C   0  0  1  0  0  0  0  0  0  0  0  0
   22.2430   -6.6712  -13.7929 C   0  0  0  0  0  0  0  0  0  0  0  0
   22.9321   -5.5268  -14.4173 C   0  0  0  0  0  0  0  0  0  0  0  0
   23.9814   -5.7352  -15.2857 C   0  0  0  0  0  0  0  0  0  0  0  0
   24.6522   -4.6809  -15.8910 C   0  0  0  0  0  0  0  0  0  0  0  0
   24.2701   -3.3921  -15.6260 C   0  0  0  0  0  0  0  0  0  0  0  0
   23.2104   -3.1473  -14.7504 C   0  0  0  0  0  0  0  0  0  0  0  0
   22.5636   -4.2232  -14.1643 C   0  0  0  0  0  0  0  0  0  0  0  0
   20.0101   -6.0739  -14.6937 C   0  0  0  0  0  0  0  0  0  0  0  0
   19.2644   -5.5820  -13.6306 O   0  0  0  0  0  0  0  0  0  0  0  0
   19.7860   -5.5755  -15.8267 O   0  0  0  0  0  0  0  0  0  0  0  0
  1  2  1  0
  2  3  1  0
  3  4  1  1
  3  5  1  0
  5  6  1  6
  5  7  1  0
  7  8  2  0
 10  9  1  6
 11  7  1  0
 11 10  1  0
 12 10  1  0
 12 13  2  0
 14 12  1  0
 15 14  1  0
 15 16  1  6
 17 18  2  0
 17 16  1  0
 19 18  1  0
 20 19  2  0
 21 20  1  0
 21 22  2  0
 22 17  1  0
 23 15  1  0
 24 23  1  0
 25 23  2  0
M  END
$$$$
