IAF.pdb
     RDKit          3D

 25 25  0  0  1  0  0  0  0  0999 V2000
   27.3667  -16.5608  -19.1152 C   0  0  0  0  0  0  0  0  0  0  0  0
   27.2843  -17.9822  -18.6513 C   0  0  0  0  0  0  0  0  0  0  0  0
   26.3048  -18.0195  -17.4773 C   0  0  2  0  0  0  0  0  0  0  0  0
   27.0204  -18.5248  -16.2717 C   0  0  0  0  0  0  0  0  0  0  0  0
   25.1438  -18.9436  -17.8041 C   0  0  2  0  0  0  0  0  0  0  0  0
   24.3431  -18.3153  -18.8811 N   0  0  0  0  0  0  0  0  0  0  0  0
   24.2589  -19.0026  -16.6272 C   0  0  0  0  0  0  0  0  0  0  0  0
   23.6764  -17.9499  -16.2405 O   0  0  0  0  0  0  0  0  0  0  0  0
   22.0065  -21.1109  -14.9947 C   0  0  0  0  0  0  0  0  0  0  0  0
   23.1932  -20.2007  -14.6882 C   0  0  2  0  0  0  0  0  0  0  0  0
   24.0104  -20.1746  -15.8905 N   0  0  0  0  0  0  0  0  0  0  0  0
   23.9101  -20.7939  -13.5451 C   0  0  0  0  0  0  0  0  0  0  0  0
   24.4218  -21.9639  -13.6146 O   0  0  0  0  0  0  0  0  0  0  0  0
   24.0888  -20.1339  -12.3024 N   0  0  0  0  0  0  0  0  0  0  0  0
   24.6781  -20.7638  -11.1370 C   0  0  1  0  0  0  0  0  0  0  0  0
   25.8687  -19.9235  -10.7268 C   0  0  0  0  0  0  0  0  0  0  0  0
   26.8511  -19.7483  -11.8124 C   0  0  0  0  0  0  0  0  0  0  0  0
   26.8488  -18.6009  -12.5752 C   0  0  0  0  0  0  0  0  0  0  0  0
   27.7593  -18.4034  -13.6047 C   0  0  0  0  0  0  0  0  0  0  0  0
   28.6916  -19.3688  -13.8804 C   0  0  0  0  0  0  0  0  0  0  0  0
   28.7204  -20.5431  -13.1258 C   0  0  0  0  0  0  0  0  0  0  0  0
   27.7969  -20.7068  -12.1060 C   0  0  0  0  0  0  0  0  0  0  0  0
   23.7211  -20.9642  -10.0491 C   0  0  0  0  0  0  0  0  0  0  0  0
   22.3933  -20.5608  -10.0971 O   0  0  0  0  0  0  0  0  0  0  0  0
   24.1061  -21.5356   -8.9966 O   0  0  0  0  0  0  0  0  0  0  0  0
  1  2  1  0
  2  3  1  0
  3  4  1  1
  3  5  1  0
  5  6  1  6
  5  7  1  0
  7  8  2  0
 10  9  1  6
 11  7  1  0
 11 10  1  0
 12 10  1  0
 12 13  2  0
 14 12  1  0
 15 14  1  0
 15 16  1  1
 17 18  2  0
 17 16  1  0
 19 18  1  0
 20 19  2  0
 21 20  1  0
 21 22  2  0
 22 17  1  0
 23 15  1  0
 24 23  1  0
 25 23  2  0
M  END
$$$$
