IAF.pdb
     RDKit          3D

 25 25  0  0  1  0  0  0  0  0999 V2000
   26.7859  -18.0537  -17.7430 C   0  0  0  0  0  0  0  0  0  0  0  0
   27.7887  -17.7400  -16.6760 C   0  0  0  0  0  0  0  0  0  0  0  0
   27.0387  -17.7124  -15.3434 C   0  0  2  0  0  0  0  0  0  0  0  0
   27.4095  -16.4692  -14.6102 C   0  0  0  0  0  0  0  0  0  0  0  0
   27.4199  -18.9259  -14.5123 C   0  0  2  0  0  0  0  0  0  0  0  0
   27.0255  -20.1413  -15.2626 N   0  0  0  0  0  0  0  0  0  0  0  0
   26.5961  -18.9226  -13.2905 C   0  0  0  0  0  0  0  0  0  0  0  0
   26.6116  -17.9065  -12.5393 O   0  0  0  0  0  0  0  0  0  0  0  0
   23.7809  -20.9176  -11.9646 C   0  0  0  0  0  0  0  0  0  0  0  0
   24.9409  -19.9599  -11.7044 C   0  0  2  0  0  0  0  0  0  0  0  0
   25.7746  -19.9936  -12.8952 N   0  0  0  0  0  0  0  0  0  0  0  0
   25.6552  -20.4579  -10.5152 C   0  0  0  0  0  0  0  0  0  0  0  0
   26.1561  -21.6342  -10.4833 O   0  0  0  0  0  0  0  0  0  0  0  0
   25.8429  -19.6939   -9.3349 N   0  0  0  0  0  0  0  0  0  0  0  0
   26.4924  -20.2046   -8.1435 C   0  0  1  0  0  0  0  0  0  0  0  0
   26.9256  -19.0095   -7.3215 C   0  0  0  0  0  0  0  0  0  0  0  0
   27.6390  -19.3876   -6.0876 C   0  0  0  0  0  0  0  0  0  0  0  0
   27.1197  -20.3508   -5.2503 C   0  0  0  0  0  0  0  0  0  0  0  0
   27.7649  -20.7308   -4.0811 C   0  0  0  0  0  0  0  0  0  0  0  0
   28.9523  -20.1391   -3.7384 C   0  0  0  0  0  0  0  0  0  0  0  0
   29.5051  -19.1595   -4.5656 C   0  0  0  0  0  0  0  0  0  0  0  0
   28.8340  -18.8049   -5.7247 C   0  0  0  0  0  0  0  0  0  0  0  0
   25.6557  -21.1394   -7.3914 C   0  0  0  0  0  0  0  0  0  0  0  0
   26.1416  -22.2609   -6.7323 O   0  0  0  0  0  0  0  0  0  0  0  0
   24.4168  -20.9315   -7.3262 O   0  0  0  0  0  0  0  0  0  0  0  0
  1  2  1  0
  2  3  1  0
  3  4  1  1
  3  5  1  0
  5  6  1  6
  5  7  1  0
  7  8  2  0
 10  9  1  6
 11  7  1  0
 11 10  1  0
 12 10  1  0
 12 13  2  0
 14 12  1  0
 15 14  1  0
 15 16  1  1
 17 18  2  0
 17 16  1  0
 19 18  1  0
 20 19  2  0
 21 20  1  0
 21 22  2  0
 22 17  1  0
 23 15  1  0
 24 23  1  0
 25 23  2  0
M  END
$$$$
