IAF.pdb
     RDKit          3D

 25 25  0  0  1  0  0  0  0  0999 V2000
   10.9131  -23.1593   -9.5190 C   0  0  0  0  0  0  0  0  0  0  0  0
   11.6024  -22.6590   -8.2874 C   0  0  0  0  0  0  0  0  0  0  0  0
   12.6992  -23.6671   -7.9409 C   0  0  2  0  0  0  0  0  0  0  0  0
   12.0598  -24.9292   -7.4729 C   0  0  0  0  0  0  0  0  0  0  0  0
   13.5848  -23.1072   -6.8405 C   0  0  2  0  0  0  0  0  0  0  0  0
   14.3960  -22.0086   -7.4154 N   0  0  0  0  0  0  0  0  0  0  0  0
   14.5453  -24.1534   -6.4475 C   0  0  0  0  0  0  0  0  0  0  0  0
   14.1213  -25.1937   -5.8689 O   0  0  0  0  0  0  0  0  0  0  0  0
   18.2546  -24.6141   -6.6720 C   0  0  0  0  0  0  0  0  0  0  0  0
   16.8726  -25.0836   -6.2248 C   0  0  2  0  0  0  0  0  0  0  0  0
   15.9303  -24.0736   -6.6788 N   0  0  0  0  0  0  0  0  0  0  0  0
   16.9054  -25.1884   -4.7550 C   0  0  0  0  0  0  0  0  0  0  0  0
   16.7044  -24.1683   -4.0101 O   0  0  0  0  0  0  0  0  0  0  0  0
   17.1563  -26.3988   -4.0595 N   0  0  0  0  0  0  0  0  0  0  0  0
   17.2148  -26.4963   -2.6141 C   0  0  1  0  0  0  0  0  0  0  0  0
   15.8025  -26.3286   -2.0956 C   0  0  0  0  0  0  0  0  0  0  0  0
   15.6918  -26.5559   -0.6428 C   0  0  0  0  0  0  0  0  0  0  0  0
   14.9807  -27.6321   -0.1585 C   0  0  0  0  0  0  0  0  0  0  0  0
   14.8564  -27.8757    1.2027 C   0  0  0  0  0  0  0  0  0  0  0  0
   15.4527  -27.0298    2.1006 C   0  0  0  0  0  0  0  0  0  0  0  0
   16.1805  -25.9301    1.6420 C   0  0  0  0  0  0  0  0  0  0  0  0
   16.2839  -25.7174    0.2768 C   0  0  0  0  0  0  0  0  0  0  0  0
   17.8492  -27.7294   -2.1487 C   0  0  0  0  0  0  0  0  0  0  0  0
   17.6370  -28.9770   -2.7202 O   0  0  0  0  0  0  0  0  0  0  0  0
   18.6393  -27.6766   -1.1712 O   0  0  0  0  0  0  0  0  0  0  0  0
  1  2  1  0
  2  3  1  0
  3  4  1  1
  3  5  1  0
  5  6  1  6
  5  7  1  0
  7  8  2  0
 10  9  1  1
 11  7  1  0
 11 10  1  0
 12 10  1  0
 12 13  2  0
 14 12  1  0
 15 14  1  0
 15 16  1  1
 17 18  2  0
 17 16  1  0
 19 18  1  0
 20 19  2  0
 21 20  1  0
 21 22  2  0
 22 17  1  0
 23 15  1  0
 24 23  1  0
 25 23  2  0
M  END
$$$$
