IAF.pdb
     RDKit          3D

 25 25  0  0  1  0  0  0  0  0999 V2000
   20.6997  -16.4028  -18.7028 C   0  0  0  0  0  0  0  0  0  0  0  0
   19.8605  -15.4021  -17.9700 C   0  0  0  0  0  0  0  0  0  0  0  0
   20.5795  -14.0553  -18.0600 C   0  0  2  0  0  0  0  0  0  0  0  0
   21.9091  -14.1764  -17.3979 C   0  0  0  0  0  0  0  0  0  0  0  0
   19.7586  -12.9852  -17.3602 C   0  0  2  0  0  0  0  0  0  0  0  0
   18.5014  -12.7967  -18.1216 N   0  0  0  0  0  0  0  0  0  0  0  0
   20.4864  -11.7080  -17.4630 C   0  0  0  0  0  0  0  0  0  0  0  0
   21.5661  -11.5605  -16.8232 O   0  0  0  0  0  0  0  0  0  0  0  0
   20.0326   -8.4997  -19.3376 C   0  0  0  0  0  0  0  0  0  0  0  0
   20.7775   -9.3604  -18.3205 C   0  0  2  0  0  0  0  0  0  0  0  0
   20.0548  -10.6196  -18.2423 N   0  0  0  0  0  0  0  0  0  0  0  0
   20.7585   -8.6314  -17.0396 C   0  0  0  0  0  0  0  0  0  0  0  0
   19.7453   -8.6802  -16.2607 O   0  0  0  0  0  0  0  0  0  0  0  0
   21.8351   -7.8340  -16.5740 N   0  0  0  0  0  0  0  0  0  0  0  0
   21.7785   -7.0371  -15.3641 C   0  0  1  0  0  0  0  0  0  0  0  0
   22.5050   -7.8096  -14.2837 C   0  0  0  0  0  0  0  0  0  0  0  0
   23.6244   -8.6152  -14.8058 C   0  0  0  0  0  0  0  0  0  0  0  0
   23.7288   -9.9515  -14.4867 C   0  0  0  0  0  0  0  0  0  0  0  0
   24.7695  -10.7390  -14.9608 C   0  0  0  0  0  0  0  0  0  0  0  0
   25.7262  -10.1841  -15.7696 C   0  0  0  0  0  0  0  0  0  0  0  0
   25.6489   -8.8326  -16.1114 C   0  0  0  0  0  0  0  0  0  0  0  0
   24.5968   -8.0766  -15.6204 C   0  0  0  0  0  0  0  0  0  0  0  0
   22.3018   -5.6832  -15.5453 C   0  0  0  0  0  0  0  0  0  0  0  0
   22.2564   -4.6950  -14.5709 O   0  0  0  0  0  0  0  0  0  0  0  0
   22.8295   -5.3761  -16.6452 O   0  0  0  0  0  0  0  0  0  0  0  0
  1  2  1  0
  2  3  1  0
  3  4  1  1
  3  5  1  0
  5  6  1  6
  5  7  1  0
  7  8  2  0
 10  9  1  6
 11  7  1  0
 11 10  1  0
 12 10  1  0
 12 13  2  0
 14 12  1  0
 15 14  1  0
 15 16  1  1
 17 18  2  0
 17 16  1  0
 19 18  1  0
 20 19  2  0
 21 20  1  0
 21 22  2  0
 22 17  1  0
 23 15  1  0
 24 23  1  0
 25 23  2  0
M  END
$$$$
