IAF.pdb
     RDKit          3D

 25 25  0  0  1  0  0  0  0  0999 V2000
   20.4826  -17.6346  -13.1504 C   0  0  0  0  0  0  0  0  0  0  0  0
   19.8879  -18.9142  -12.6490 C   0  0  0  0  0  0  0  0  0  0  0  0
   20.9563  -19.6101  -11.8045 C   0  0  2  0  0  0  0  0  0  0  0  0
   21.3688  -18.6943  -10.7036 C   0  0  0  0  0  0  0  0  0  0  0  0
   22.1613  -19.9415  -12.6687 C   0  0  2  0  0  0  0  0  0  0  0  0
   21.7253  -20.8829  -13.7266 N   0  0  0  0  0  0  0  0  0  0  0  0
   23.1284  -20.6851  -11.8421 C   0  0  0  0  0  0  0  0  0  0  0  0
   22.7367  -21.2204  -10.7664 O   0  0  0  0  0  0  0  0  0  0  0  0
   26.6913  -21.7551  -12.1460 C   0  0  0  0  0  0  0  0  0  0  0  0
   25.4494  -21.4904  -11.2987 C   0  0  2  0  0  0  0  0  0  0  0  0
   24.4852  -20.8459  -12.1756 N   0  0  0  0  0  0  0  0  0  0  0  0
   25.8613  -20.6120  -10.1891 C   0  0  0  0  0  0  0  0  0  0  0  0
   25.6902  -19.3457  -10.2435 O   0  0  0  0  0  0  0  0  0  0  0  0
   26.4671  -21.0847   -8.9968 N   0  0  0  0  0  0  0  0  0  0  0  0
   27.3349  -20.2763   -8.1629 C   0  0  1  0  0  0  0  0  0  0  0  0
   26.6308  -20.0838   -6.8367 C   0  0  0  0  0  0  0  0  0  0  0  0
   27.5322  -19.6114   -5.7696 C   0  0  0  0  0  0  0  0  0  0  0  0
   28.1436  -20.5120   -4.9250 C   0  0  0  0  0  0  0  0  0  0  0  0
   28.9977  -20.1017   -3.9101 C   0  0  0  0  0  0  0  0  0  0  0  0
   29.2482  -18.7664   -3.7326 C   0  0  0  0  0  0  0  0  0  0  0  0
   28.6442  -17.8282   -4.5718 C   0  0  0  0  0  0  0  0  0  0  0  0
   27.7974  -18.2731   -5.5741 C   0  0  0  0  0  0  0  0  0  0  0  0
   28.6770  -20.8397   -8.0181 C   0  0  0  0  0  0  0  0  0  0  0  0
   29.8157  -20.0835   -7.7737 O   0  0  0  0  0  0  0  0  0  0  0  0
   28.8293  -22.0843   -8.1180 O   0  0  0  0  0  0  0  0  0  0  0  0
  1  2  1  0
  2  3  1  0
  3  4  1  1
  3  5  1  0
  5  6  1  6
  5  7  1  0
  7  8  2  0
 10  9  1  6
 11  7  1  0
 11 10  1  0
 12 10  1  0
 12 13  2  0
 14 12  1  0
 15 14  1  0
 15 16  1  1
 17 18  2  0
 17 16  1  0
 19 18  1  0
 20 19  2  0
 21 20  1  0
 21 22  2  0
 22 17  1  0
 23 15  1  0
 24 23  1  0
 25 23  2  0
M  END
$$$$
