IAF.pdb
     RDKit          3D

 25 25  0  0  1  0  0  0  0  0999 V2000
   17.7258  -11.5728  -20.1959 C   0  0  0  0  0  0  0  0  0  0  0  0
   18.9989  -12.2014  -19.7202 C   0  0  0  0  0  0  0  0  0  0  0  0
   19.5379  -11.3299  -18.5848 C   0  0  2  0  0  0  0  0  0  0  0  0
   20.5630  -10.4009  -19.1387 C   0  0  0  0  0  0  0  0  0  0  0  0
   20.1703  -12.2071  -17.5175 C   0  0  2  0  0  0  0  0  0  0  0  0
   19.0990  -13.0175  -16.8921 N   0  0  0  0  0  0  0  0  0  0  0  0
   20.6871  -11.3316  -16.4507 C   0  0  0  0  0  0  0  0  0  0  0  0
   19.8832  -10.5882  -15.8199 O   0  0  0  0  0  0  0  0  0  0  0  0
   24.0177  -10.6972  -14.8665 C   0  0  0  0  0  0  0  0  0  0  0  0
   22.5447  -10.3496  -15.0666 C   0  0  2  0  0  0  0  0  0  0  0  0
   22.0413  -11.2664  -16.0765 N   0  0  0  0  0  0  0  0  0  0  0  0
   22.4879   -8.9469  -15.5156 C   0  0  0  0  0  0  0  0  0  0  0  0
   22.7508   -8.6236  -16.7248 O   0  0  0  0  0  0  0  0  0  0  0  0
   22.1456   -7.8638  -14.6661 N   0  0  0  0  0  0  0  0  0  0  0  0
   22.1023   -6.4827  -15.1050 C   0  0  1  0  0  0  0  0  0  0  0  0
   20.7511   -6.2591  -15.7499 C   0  0  0  0  0  0  0  0  0  0  0  0
   20.5528   -4.8702  -16.2042 C   0  0  0  0  0  0  0  0  0  0  0  0
   19.4045   -4.1857  -15.8708 C   0  0  0  0  0  0  0  0  0  0  0  0
   19.1856   -2.8776  -16.2816 C   0  0  0  0  0  0  0  0  0  0  0  0
   20.1301   -2.2377  -17.0405 C   0  0  0  0  0  0  0  0  0  0  0  0
   21.3048   -2.9038  -17.3952 C   0  0  0  0  0  0  0  0  0  0  0  0
   21.4901   -4.2087  -16.9679 C   0  0  0  0  0  0  0  0  0  0  0  0
   22.3843   -5.5313  -14.0303 C   0  0  0  0  0  0  0  0  0  0  0  0
   23.0300   -4.3162  -14.2168 O   0  0  0  0  0  0  0  0  0  0  0  0
   22.0275   -5.8137  -12.8575 O   0  0  0  0  0  0  0  0  0  0  0  0
  1  2  1  0
  2  3  1  0
  3  4  1  6
  3  5  1  0
  5  6  1  1
  5  7  1  0
  7  8  2  0
 10  9  1  6
 11  7  1  0
 11 10  1  0
 12 10  1  0
 12 13  2  0
 14 12  1  0
 15 14  1  0
 15 16  1  1
 17 18  2  0
 17 16  1  0
 19 18  1  0
 20 19  2  0
 21 20  1  0
 21 22  2  0
 22 17  1  0
 23 15  1  0
 24 23  1  0
 25 23  2  0
M  END
$$$$
