IAF.pdb
     RDKit          3D

 25 25  0  0  1  0  0  0  0  0999 V2000
   42.9206  -11.9316  -11.7352 C   0  0  0  0  0  0  0  0  0  0  0  0
   42.3264  -12.4698  -10.4705 C   0  0  0  0  0  0  0  0  0  0  0  0
   42.0649  -11.2773   -9.5494 C   0  0  2  0  0  0  0  0  0  0  0  0
   41.3128  -10.2398  -10.3101 C   0  0  0  0  0  0  0  0  0  0  0  0
   43.3848  -10.6983   -9.0685 C   0  0  2  0  0  0  0  0  0  0  0  0
   44.0308  -11.6957   -8.1834 N   0  0  0  0  0  0  0  0  0  0  0  0
   43.0913   -9.5335   -8.2150 C   0  0  0  0  0  0  0  0  0  0  0  0
   42.2017   -9.6314   -7.3229 O   0  0  0  0  0  0  0  0  0  0  0  0
   44.3473   -6.0180   -7.9353 C   0  0  0  0  0  0  0  0  0  0  0  0
   43.3198   -7.1006   -7.6149 C   0  0  2  0  0  0  0  0  0  0  0  0
   43.7482   -8.2948   -8.3252 N   0  0  0  0  0  0  0  0  0  0  0  0
   42.0133   -6.6124   -8.0917 C   0  0  0  0  0  0  0  0  0  0  0  0
   41.6949   -6.6630   -9.3293 O   0  0  0  0  0  0  0  0  0  0  0  0
   41.0234   -6.0592   -7.2398 N   0  0  0  0  0  0  0  0  0  0  0  0
   39.7860   -5.4763   -7.7205 C   0  0  1  0  0  0  0  0  0  0  0  0
   38.7479   -5.6694   -6.6357 C   0  0  0  0  0  0  0  0  0  0  0  0
   37.4508   -5.0490   -6.9632 C   0  0  0  0  0  0  0  0  0  0  0  0
   37.1459   -3.7873   -6.5010 C   0  0  0  0  0  0  0  0  0  0  0  0
   35.9345   -3.1737   -6.7904 C   0  0  0  0  0  0  0  0  0  0  0  0
   35.0071   -3.8304   -7.5560 C   0  0  0  0  0  0  0  0  0  0  0  0
   35.2856   -5.1102   -8.0397 C   0  0  0  0  0  0  0  0  0  0  0  0
   36.5046   -5.6922   -7.7315 C   0  0  0  0  0  0  0  0  0  0  0  0
   39.9314   -4.0786   -8.1268 C   0  0  0  0  0  0  0  0  0  0  0  0
   39.2535   -3.5043   -9.1939 O   0  0  0  0  0  0  0  0  0  0  0  0
   40.7144   -3.3350   -7.4816 O   0  0  0  0  0  0  0  0  0  0  0  0
  1  2  1  0
  2  3  1  0
  3  4  1  6
  3  5  1  0
  5  6  1  1
  5  7  1  0
  7  8  2  0
 10  9  1  6
 11  7  1  0
 11 10  1  0
 12 10  1  0
 12 13  2  0
 14 12  1  0
 15 14  1  0
 15 16  1  1
 17 18  2  0
 17 16  1  0
 19 18  1  0
 20 19  2  0
 21 20  1  0
 21 22  2  0
 22 17  1  0
 23 15  1  0
 24 23  1  0
 25 23  2  0
M  END
$$$$
