CIG.pdb
     RDKit          3D

 19 18  0  0  1  0  0  0  0  0999 V2000
   28.5372  -21.2074  -15.2961 N   0  0  0  0  0  0  0  0  0  0  0  0
   27.8054  -20.1980  -14.6023 C   0  0  1  0  0  0  0  0  0  0  0  0
   27.2885  -19.0927  -15.4650 C   0  0  0  0  0  0  0  0  0  0  0  0
   28.7044  -18.1601  -16.1129 S   0  0  0  0  0  0  0  0  0  0  0  0
   26.6352  -20.7851  -13.8491 C   0  0  0  0  0  0  0  0  0  0  0  0
   26.0421  -21.7128  -14.4163 O   0  0  0  0  0  0  0  0  0  0  0  0
   26.5837  -20.4542   -8.5597 C   0  0  0  0  0  0  0  0  0  0  0  0
   26.2758  -21.0980   -9.9176 C   0  0  0  0  0  0  0  0  0  0  0  0
   24.9931  -20.5444  -10.4896 C   0  0  2  0  0  0  0  0  0  0  0  0
   23.8053  -21.1970   -9.8250 C   0  0  0  0  0  0  0  0  0  0  0  0
   25.0095  -20.7508  -11.9813 C   0  0  2  0  0  0  0  0  0  0  0  0
   26.2276  -20.3341  -12.5998 N   0  0  0  0  0  0  0  0  0  0  0  0
   23.7948  -20.3485  -12.6728 C   0  0  0  0  0  0  0  0  0  0  0  0
   23.4647  -19.1255  -12.8033 O   0  0  0  0  0  0  0  0  0  0  0  0
   22.8863  -21.2783  -13.2535 N   0  0  0  0  0  0  0  0  0  0  0  0
   21.6623  -20.8456  -13.8908 C   0  0  0  0  0  0  0  0  0  0  0  0
   20.4898  -21.2456  -13.0596 C   0  0  0  0  0  0  0  0  0  0  0  0
   19.3137  -20.5141  -13.0888 O   0  0  0  0  0  0  0  0  0  0  0  0
   20.5206  -22.2503  -12.3081 O   0  0  0  0  0  0  0  0  0  0  0  0
  2  1  1  6
  3  2  1  0
  4  3  1  0
  5  6  2  0
  5  2  1  0
  8  7  1  0
  8  9  1  0
  9 11  1  0
  9 10  1  1
 11 13  1  0
 11 12  1  6
 12  5  1  0
 13 15  1  0
 14 13  2  0
 15 16  1  0
 16 17  1  0
 17 19  2  0
 17 18  1  0
M  END
$$$$
