CIG.pdb
     RDKit          3D

 19 18  0  0  1  0  0  0  0  0999 V2000
   28.5734  -21.1060  -15.3251 N   0  0  0  0  0  0  0  0  0  0  0  0
   27.8764  -20.1173  -14.5685 C   0  0  1  0  0  0  0  0  0  0  0  0
   27.3642  -18.9621  -15.3663 C   0  0  0  0  0  0  0  0  0  0  0  0
   28.7820  -17.9739  -15.9208 S   0  0  0  0  0  0  0  0  0  0  0  0
   26.7103  -20.7174  -13.8192 C   0  0  0  0  0  0  0  0  0  0  0  0
   26.1723  -21.6951  -14.3564 O   0  0  0  0  0  0  0  0  0  0  0  0
   26.6072  -20.4091   -8.5207 C   0  0  0  0  0  0  0  0  0  0  0  0
   26.3774  -20.9726   -9.9288 C   0  0  0  0  0  0  0  0  0  0  0  0
   25.0528  -20.5026  -10.4797 C   0  0  2  0  0  0  0  0  0  0  0  0
   23.9204  -21.2335   -9.8004 C   0  0  0  0  0  0  0  0  0  0  0  0
   25.0605  -20.7031  -11.9724 C   0  0  2  0  0  0  0  0  0  0  0  0
   26.2491  -20.2257  -12.6043 N   0  0  0  0  0  0  0  0  0  0  0  0
   23.8191  -20.3579  -12.6472 C   0  0  0  0  0  0  0  0  0  0  0  0
   23.4253  -19.1525  -12.7632 O   0  0  0  0  0  0  0  0  0  0  0  0
   22.9531  -21.3283  -13.2263 N   0  0  0  0  0  0  0  0  0  0  0  0
   21.7053  -20.9528  -13.8537 C   0  0  0  0  0  0  0  0  0  0  0  0
   20.5696  -21.2265  -12.9258 C   0  0  0  0  0  0  0  0  0  0  0  0
   19.8151  -22.3822  -13.0453 O   0  0  0  0  0  0  0  0  0  0  0  0
   20.2546  -20.4294  -12.0089 O   0  0  0  0  0  0  0  0  0  0  0  0
  2  1  1  6
  3  2  1  0
  4  3  1  0
  5  6  2  0
  5  2  1  0
  8  7  1  0
  8  9  1  0
  9 11  1  0
  9 10  1  1
 11 13  1  0
 11 12  1  6
 12  5  1  0
 13 15  1  0
 14 13  2  0
 15 16  1  0
 16 17  1  0
 17 19  2  0
 17 18  1  0
M  END
$$$$
