CIG.pdb
     RDKit          3D

 19 18  0  0  1  0  0  0  0  0999 V2000
   19.3393  -12.7026  -17.9722 N   0  0  0  0  0  0  0  0  0  0  0  0
   19.5512  -11.3391  -18.3354 C   0  0  1  0  0  0  0  0  0  0  0  0
   18.4529  -10.7267  -19.1428 C   0  0  0  0  0  0  0  0  0  0  0  0
   18.3196  -11.6316  -20.7104 S   0  0  0  0  0  0  0  0  0  0  0  0
   19.7714  -10.4724  -17.1182 C   0  0  0  0  0  0  0  0  0  0  0  0
   18.8848  -10.5233  -16.2549 O   0  0  0  0  0  0  0  0  0  0  0  0
   24.1179  -10.9613  -14.5500 C   0  0  0  0  0  0  0  0  0  0  0  0
   22.7172  -10.6512  -15.0930 C   0  0  0  0  0  0  0  0  0  0  0  0
   22.4930   -9.1600  -15.1646 C   0  0  2  0  0  0  0  0  0  0  0  0
   22.6499   -8.5462  -13.7947 C   0  0  0  0  0  0  0  0  0  0  0  0
   21.1319   -8.9117  -15.7595 C   0  0  2  0  0  0  0  0  0  0  0  0
   20.8865   -9.6607  -16.9506 N   0  0  0  0  0  0  0  0  0  0  0  0
   20.7272   -7.5156  -15.8116 C   0  0  0  0  0  0  0  0  0  0  0  0
   21.5612   -6.5776  -16.0270 O   0  0  0  0  0  0  0  0  0  0  0  0
   19.3814   -7.0888  -15.6282 N   0  0  0  0  0  0  0  0  0  0  0  0
   19.0073   -5.6955  -15.7294 C   0  0  0  0  0  0  0  0  0  0  0  0
   17.5254   -5.5600  -15.6222 C   0  0  0  0  0  0  0  0  0  0  0  0
   16.9370   -4.3240  -15.4095 O   0  0  0  0  0  0  0  0  0  0  0  0
   16.7595   -6.5495  -15.7194 O   0  0  0  0  0  0  0  0  0  0  0  0
  2  1  1  1
  3  2  1  0
  4  3  1  0
  5  6  2  0
  5  2  1  0
  8  7  1  0
  8  9  1  0
  9 11  1  0
  9 10  1  1
 11 13  1  0
 11 12  1  6
 12  5  1  0
 13 15  1  0
 14 13  2  0
 15 16  1  0
 16 17  1  0
 17 19  2  0
 17 18  1  0
M  END
$$$$
