CIG.pdb
     RDKit          3D

 19 18  0  0  1  0  0  0  0  0999 V2000
   16.4430  -10.3610  -15.2845 N   0  0  0  0  0  0  0  0  0  0  0  0
   17.2679   -9.2985  -15.7603 C   0  0  1  0  0  0  0  0  0  0  0  0
   16.5665   -7.9912  -15.9393 C   0  0  0  0  0  0  0  0  0  0  0  0
   15.1512   -8.2460  -17.0467 S   0  0  0  0  0  0  0  0  0  0  0  0
   18.4513   -9.0696  -14.8501 C   0  0  0  0  0  0  0  0  0  0  0  0
   18.2146   -9.1289  -13.6358 O   0  0  0  0  0  0  0  0  0  0  0  0
   22.7514  -11.9179  -15.1261 C   0  0  0  0  0  0  0  0  0  0  0  0
   21.6243  -10.9831  -14.6691 C   0  0  0  0  0  0  0  0  0  0  0  0
   22.0279   -9.5389  -14.8438 C   0  0  2  0  0  0  0  0  0  0  0  0
   23.2691   -9.2465  -14.0363 C   0  0  0  0  0  0  0  0  0  0  0  0
   20.8625   -8.6688  -14.4525 C   0  0  2  0  0  0  0  0  0  0  0  0
   19.7336   -8.8076  -15.3163 N   0  0  0  0  0  0  0  0  0  0  0  0
   21.2063   -7.3006  -14.0980 C   0  0  0  0  0  0  0  0  0  0  0  0
   21.9439   -7.0268  -13.0967 O   0  0  0  0  0  0  0  0  0  0  0  0
   20.7515   -6.1693  -14.8330 N   0  0  0  0  0  0  0  0  0  0  0  0
   21.1852   -4.8287  -14.5067 C   0  0  0  0  0  0  0  0  0  0  0  0
   22.1829   -4.3604  -15.5121 C   0  0  0  0  0  0  0  0  0  0  0  0
   22.5925   -3.0375  -15.5459 O   0  0  0  0  0  0  0  0  0  0  0  0
   22.6865   -5.1374  -16.3594 O   0  0  0  0  0  0  0  0  0  0  0  0
  2  1  1  1
  3  2  1  0
  4  3  1  0
  5  6  2  0
  5  2  1  0
  8  7  1  0
  8  9  1  0
  9 11  1  0
  9 10  1  1
 11 13  1  0
 11 12  1  6
 12  5  1  0
 13 15  1  0
 14 13  2  0
 15 16  1  0
 16 17  1  0
 17 19  2  0
 17 18  1  0
M  END
$$$$
