CIG.pdb
     RDKit          3D

 19 18  0  0  1  0  0  0  0  0999 V2000
   27.4226  -11.3709  -18.6913 N   0  0  0  0  0  0  0  0  0  0  0  0
   27.2432  -10.8642  -17.3696 C   0  0  1  0  0  0  0  0  0  0  0  0
   28.2252   -9.8144  -16.9612 C   0  0  0  0  0  0  0  0  0  0  0  0
   29.8710  -10.5736  -16.8663 S   0  0  0  0  0  0  0  0  0  0  0  0
   25.8549  -10.3006  -17.1791 C   0  0  0  0  0  0  0  0  0  0  0  0
   25.3998   -9.6586  -18.1356 O   0  0  0  0  0  0  0  0  0  0  0  0
   23.6497  -13.3358  -14.8124 C   0  0  0  0  0  0  0  0  0  0  0  0
   23.0599  -12.3447  -15.8239 C   0  0  0  0  0  0  0  0  0  0  0  0
   22.8620  -10.9902  -15.1874 C   0  0  2  0  0  0  0  0  0  0  0  0
   21.4087  -10.5897  -15.2628 C   0  0  0  0  0  0  0  0  0  0  0  0
   23.7719  -10.0051  -15.8729 C   0  0  2  0  0  0  0  0  0  0  0  0
   25.1129  -10.4748  -16.0175 N   0  0  0  0  0  0  0  0  0  0  0  0
   23.6434   -8.6288  -15.4202 C   0  0  0  0  0  0  0  0  0  0  0  0
   24.0046   -8.2639  -14.2549 O   0  0  0  0  0  0  0  0  0  0  0  0
   23.1095   -7.5894  -16.2336 N   0  0  0  0  0  0  0  0  0  0  0  0
   23.0654   -6.2173  -15.7786 C   0  0  0  0  0  0  0  0  0  0  0  0
   21.7903   -5.9676  -15.0455 C   0  0  0  0  0  0  0  0  0  0  0  0
   20.8176   -6.9497  -14.9540 O   0  0  0  0  0  0  0  0  0  0  0  0
   21.5494   -4.8693  -14.4877 O   0  0  0  0  0  0  0  0  0  0  0  0
  2  1  1  6
  3  2  1  0
  4  3  1  0
  5  6  2  0
  5  2  1  0
  8  7  1  0
  8  9  1  0
  9 11  1  0
  9 10  1  6
 11 13  1  0
 11 12  1  1
 12  5  1  0
 13 15  1  0
 14 13  2  0
 15 16  1  0
 16 17  1  0
 17 19  2  0
 17 18  1  0
M  END
$$$$
