CIG.pdb
     RDKit          3D

 19 18  0  0  1  0  0  0  0  0999 V2000
   19.5412  -29.9648   -9.2190 N   0  0  0  0  0  0  0  0  0  0  0  0
   19.6142  -28.6944   -9.8645 C   0  0  1  0  0  0  0  0  0  0  0  0
   19.5299  -28.7424  -11.3557 C   0  0  0  0  0  0  0  0  0  0  0  0
   21.2162  -28.7286  -12.0268 S   0  0  0  0  0  0  0  0  0  0  0  0
   18.5353  -27.7613   -9.3682 C   0  0  0  0  0  0  0  0  0  0  0  0
   17.3974  -28.2453   -9.2965 O   0  0  0  0  0  0  0  0  0  0  0  0
   16.5695  -25.3784   -4.9742 C   0  0  0  0  0  0  0  0  0  0  0  0
   16.9817  -24.6468   -6.2580 C   0  0  0  0  0  0  0  0  0  0  0  0
   18.1594  -25.3336   -6.9064 C   0  0  2  0  0  0  0  0  0  0  0  0
   19.3952  -24.4770   -6.7754 C   0  0  0  0  0  0  0  0  0  0  0  0
   17.8071  -25.6290   -8.3406 C   0  0  2  0  0  0  0  0  0  0  0  0
   18.7742  -26.4408   -9.0082 N   0  0  0  0  0  0  0  0  0  0  0  0
   17.3225  -24.4895   -9.1036 C   0  0  0  0  0  0  0  0  0  0  0  0
   16.6939  -23.5270   -8.5556 O   0  0  0  0  0  0  0  0  0  0  0  0
   17.5090  -24.3587  -10.5090 N   0  0  0  0  0  0  0  0  0  0  0  0
   17.1357  -23.1527  -11.2145 C   0  0  0  0  0  0  0  0  0  0  0  0
   15.6655  -23.1487  -11.4678 C   0  0  0  0  0  0  0  0  0  0  0  0
   15.0858  -22.1893  -12.2819 O   0  0  0  0  0  0  0  0  0  0  0  0
   14.9019  -24.0052  -10.9593 O   0  0  0  0  0  0  0  0  0  0  0  0
  2  1  1  1
  3  2  1  0
  4  3  1  0
  5  6  2  0
  5  2  1  0
  8  7  1  0
  8  9  1  0
  9 11  1  0
  9 10  1  6
 11 13  1  0
 11 12  1  6
 12  5  1  0
 13 15  1  0
 14 13  2  0
 15 16  1  0
 16 17  1  0
 17 19  2  0
 17 18  1  0
M  END
$$$$
