HFY.pdb
     RDKit          3D

 34 36  0  0  1  0  0  0  0  0999 V2000
   29.9955  -36.3824   -8.9101 N   0  0  0  0  0  0  0  0  0  0  0  0
   29.9730  -35.5339   -7.7370 C   0  0  1  0  0  0  0  0  0  0  0  0
   28.5985  -35.5508   -7.1546 C   0  0  0  0  0  0  0  0  0  0  0  0
   27.7636  -34.6191   -7.9715 C   0  0  0  0  0  0  0  0  0  0  0  0
   27.1006  -34.9422   -9.1426 C   0  0  0  0  0  0  0  0  0  0  0  0
   26.4463  -33.8368   -9.5966 N   0  0  0  0  0  0  0  0  0  0  0  0
   26.6961  -32.8408   -8.7247 C   0  0  0  0  0  0  0  0  0  0  0  0
   27.4842  -33.3239   -7.7598 N   0  0  0  0  0  0  0  0  0  0  0  0
   31.0375  -35.9288   -6.7829 C   0  0  0  0  0  0  0  0  0  0  0  0
   31.3927  -37.1260   -6.7495 O   0  0  0  0  0  0  0  0  0  0  0  0
   31.6673  -35.0111   -5.9104 N   0  0  0  0  0  0  0  0  0  0  0  0
   32.7579  -35.4658   -5.0838 C   0  0  1  0  0  0  0  0  0  0  0  0
   33.9056  -34.4736   -5.1893 C   0  0  0  0  0  0  0  0  0  0  0  0
   34.6976  -34.6306   -6.4174 C   0  0  0  0  0  0  0  0  0  0  0  0
   34.5314  -33.8041   -7.5037 C   0  0  0  0  0  0  0  0  0  0  0  0
   35.3012  -33.9995   -8.6240 C   0  0  0  0  0  0  0  0  0  0  0  0
   36.2419  -34.9959   -8.7095 C   0  0  0  0  0  0  0  0  0  0  0  0
   36.3991  -35.8204   -7.6098 C   0  0  0  0  0  0  0  0  0  0  0  0
   35.6342  -35.6304   -6.4899 C   0  0  0  0  0  0  0  0  0  0  0  0
   32.2865  -35.3928   -3.6692 C   0  0  0  0  0  0  0  0  0  0  0  0
   31.6126  -34.3892   -3.3175 O   0  0  0  0  0  0  0  0  0  0  0  0
   25.9016  -35.9854   -3.1623 O   0  0  0  0  0  0  0  0  0  0  0  0
   27.1691  -36.3015   -2.6397 C   0  0  0  0  0  0  0  0  0  0  0  0
   28.0455  -37.0981   -3.3453 C   0  0  0  0  0  0  0  0  0  0  0  0
   29.2898  -37.4056   -2.8271 C   0  0  0  0  0  0  0  0  0  0  0  0
   29.7260  -36.9452   -1.5961 C   0  0  0  0  0  0  0  0  0  0  0  0
   31.0460  -37.2709   -1.0222 C   0  0  0  0  0  0  0  0  0  0  0  0
   32.0663  -36.2415   -1.3615 C   0  0  2  0  0  0  0  0  0  0  0  0
   32.5612  -36.3924   -2.7156 N   0  0  0  0  0  0  0  0  0  0  0  0
   33.2221  -36.3502   -0.4565 C   0  0  0  0  0  0  0  0  0  0  0  0
   34.3817  -36.5644   -0.9078 O   0  0  0  0  0  0  0  0  0  0  0  0
   28.8152  -36.1377   -0.9008 C   0  0  0  0  0  0  0  0  0  0  0  0
   27.5772  -35.8304   -1.4144 C   0  0  0  0  0  0  0  0  0  0  0  0
   33.1187  -36.2246    0.9172 O   0  0  0  0  0  0  0  0  0  0  0  0
  2  9  1  0
  2  1  1  6
  3  2  1  0
  4  8  1  0
  4  3  1  0
  5  4  2  0
  6  5  1  0
  6  7  1  0
  7  8  2  0
  9 10  2  0
 11  9  1  0
 11 12  1  0
 12 13  1  1
 13 14  1  0
 14 19  1  0
 15 14  2  0
 15 16  1  0
 16 17  2  0
 17 18  1  0
 19 18  2  0
 20 21  2  0
 20 12  1  0
 22 23  1  0
 23 24  2  0
 24 25  1  0
 26 25  2  0
 26 27  1  0
 28 27  1  1
 28 29  1  0
 29 20  1  0
 30 28  1  0
 31 30  2  0
 32 26  1  0
 33 23  1  0
 33 32  2  0
 34 30  1  0
M  END
$$$$
