HFY.pdb
     RDKit          3D

 34 36  0  0  1  0  0  0  0  0999 V2000
   28.4378  -19.6682  -19.1284 N   0  0  0  0  0  0  0  0  0  0  0  0
   27.5268  -18.8308  -18.3764 C   0  0  1  0  0  0  0  0  0  0  0  0
   26.4656  -18.3238  -19.2959 C   0  0  0  0  0  0  0  0  0  0  0  0
   26.8462  -16.9312  -19.6809 C   0  0  0  0  0  0  0  0  0  0  0  0
   26.1293  -15.7850  -19.3845 C   0  0  0  0  0  0  0  0  0  0  0  0
   26.7885  -14.7091  -19.8983 N   0  0  0  0  0  0  0  0  0  0  0  0
   27.8974  -15.1747  -20.5050 C   0  0  0  0  0  0  0  0  0  0  0  0
   27.9176  -16.5036  -20.3664 N   0  0  0  0  0  0  0  0  0  0  0  0
   27.0039  -19.5550  -17.1925 C   0  0  0  0  0  0  0  0  0  0  0  0
   26.4438  -20.6576  -17.3689 O   0  0  0  0  0  0  0  0  0  0  0  0
   27.1111  -19.0531  -15.8747 N   0  0  0  0  0  0  0  0  0  0  0  0
   26.5717  -19.8271  -14.7842 C   0  0  1  0  0  0  0  0  0  0  0  0
   27.0888  -19.2596  -13.4715 C   0  0  0  0  0  0  0  0  0  0  0  0
   26.4868  -19.8911  -12.2888 C   0  0  0  0  0  0  0  0  0  0  0  0
   25.5455  -19.2497  -11.5184 C   0  0  0  0  0  0  0  0  0  0  0  0
   25.0181  -19.8912  -10.4247 C   0  0  0  0  0  0  0  0  0  0  0  0
   25.3931  -21.1608  -10.0608 C   0  0  0  0  0  0  0  0  0  0  0  0
   26.3408  -21.7949  -10.8442 C   0  0  0  0  0  0  0  0  0  0  0  0
   26.8702  -21.1602  -11.9360 C   0  0  0  0  0  0  0  0  0  0  0  0
   25.0976  -19.5917  -14.7759 C   0  0  0  0  0  0  0  0  0  0  0  0
   24.6839  -18.4052  -14.8539 O   0  0  0  0  0  0  0  0  0  0  0  0
   16.4110  -19.4236  -14.8786 O   0  0  0  0  0  0  0  0  0  0  0  0
   17.7703  -19.7240  -15.0824 C   0  0  0  0  0  0  0  0  0  0  0  0
   18.2688  -20.9757  -14.7903 C   0  0  0  0  0  0  0  0  0  0  0  0
   19.6053  -21.2655  -14.9925 C   0  0  0  0  0  0  0  0  0  0  0  0
   20.5083  -20.3404  -15.4890 C   0  0  0  0  0  0  0  0  0  0  0  0
   21.9400  -20.6280  -15.7019 C   0  0  0  0  0  0  0  0  0  0  0  0
   22.7532  -20.3125  -14.4956 C   0  0  2  0  0  0  0  0  0  0  0  0
   24.1540  -20.6335  -14.6852 N   0  0  0  0  0  0  0  0  0  0  0  0
   22.2764  -21.0903  -13.3404 C   0  0  0  0  0  0  0  0  0  0  0  0
   22.6902  -22.2652  -13.1340 O   0  0  0  0  0  0  0  0  0  0  0  0
   19.9745  -19.0767  -15.7774 C   0  0  0  0  0  0  0  0  0  0  0  0
   18.6454  -18.7863  -15.5771 C   0  0  0  0  0  0  0  0  0  0  0  0
   21.3666  -20.5967  -12.4226 O   0  0  0  0  0  0  0  0  0  0  0  0
  2  9  1  0
  2  1  1  6
  3  2  1  0
  4  8  1  0
  4  3  1  0
  5  4  2  0
  6  5  1  0
  6  7  1  0
  7  8  2  0
  9 10  2  0
 11  9  1  0
 11 12  1  0
 12 13  1  1
 13 14  1  0
 14 19  1  0
 15 14  2  0
 15 16  1  0
 16 17  2  0
 17 18  1  0
 19 18  2  0
 20 21  2  0
 20 12  1  0
 22 23  1  0
 23 24  2  0
 24 25  1  0
 26 25  2  0
 26 27  1  0
 28 27  1  6
 28 29  1  0
 29 20  1  0
 30 28  1  0
 31 30  2  0
 32 26  1  0
 33 23  1  0
 33 32  2  0
 34 30  1  0
M  END
$$$$
