HFY.pdb
     RDKit          3D

 34 36  0  0  1  0  0  0  0  0999 V2000
   35.9007  -35.3831  -12.3187 N   0  0  0  0  0  0  0  0  0  0  0  0
   35.2920  -34.4584  -11.3853 C   0  0  1  0  0  0  0  0  0  0  0  0
   34.3939  -33.5332  -12.1378 C   0  0  0  0  0  0  0  0  0  0  0  0
   35.2640  -32.6919  -13.0138 C   0  0  0  0  0  0  0  0  0  0  0  0
   35.2868  -32.7189  -14.3974 C   0  0  0  0  0  0  0  0  0  0  0  0
   36.2040  -31.8137  -14.8397 N   0  0  0  0  0  0  0  0  0  0  0  0
   36.7446  -31.2315  -13.7519 C   0  0  0  0  0  0  0  0  0  0  0  0
   36.1728  -31.7667  -12.6692 N   0  0  0  0  0  0  0  0  0  0  0  0
   34.6191  -35.1901  -10.2847 C   0  0  0  0  0  0  0  0  0  0  0  0
   34.0102  -36.2463  -10.5572 O   0  0  0  0  0  0  0  0  0  0  0  0
   34.6365  -34.7456   -8.9423 N   0  0  0  0  0  0  0  0  0  0  0  0
   33.9322  -35.5093   -7.9423 C   0  0  1  0  0  0  0  0  0  0  0  0
   34.9454  -36.1971   -7.0407 C   0  0  0  0  0  0  0  0  0  0  0  0
   35.6004  -37.3490   -7.6765 C   0  0  0  0  0  0  0  0  0  0  0  0
   35.1070  -38.6269   -7.5568 C   0  0  0  0  0  0  0  0  0  0  0  0
   35.7625  -39.6637   -8.1742 C   0  0  0  0  0  0  0  0  0  0  0  0
   36.9034  -39.4795   -8.9155 C   0  0  0  0  0  0  0  0  0  0  0  0
   37.3892  -38.1891   -9.0280 C   0  0  0  0  0  0  0  0  0  0  0  0
   36.7398  -37.1513   -8.4146 C   0  0  0  0  0  0  0  0  0  0  0  0
   33.2167  -34.5275   -7.0745 C   0  0  0  0  0  0  0  0  0  0  0  0
   33.8835  -33.5925   -6.5587 O   0  0  0  0  0  0  0  0  0  0  0  0
   25.6562  -33.0839   -9.1525 O   0  0  0  0  0  0  0  0  0  0  0  0
   26.9283  -32.9082   -8.5778 C   0  0  0  0  0  0  0  0  0  0  0  0
   27.9779  -32.4139   -9.3225 C   0  0  0  0  0  0  0  0  0  0  0  0
   29.2259  -32.2432   -8.7528 C   0  0  0  0  0  0  0  0  0  0  0  0
   29.4965  -32.5503   -7.4298 C   0  0  0  0  0  0  0  0  0  0  0  0
   30.8241  -32.3846   -6.8070 C   0  0  0  0  0  0  0  0  0  0  0  0
   31.2091  -33.5745   -5.9996 C   0  0  2  0  0  0  0  0  0  0  0  0
   31.8354  -34.6011   -6.8090 N   0  0  0  0  0  0  0  0  0  0  0  0
   30.0192  -34.1735   -5.3734 C   0  0  0  0  0  0  0  0  0  0  0  0
   29.3282  -33.5239   -4.5400 O   0  0  0  0  0  0  0  0  0  0  0  0
   28.4117  -33.0506   -6.6964 C   0  0  0  0  0  0  0  0  0  0  0  0
   27.1695  -33.2210   -7.2610 C   0  0  0  0  0  0  0  0  0  0  0  0
   29.5862  -35.4575   -5.6519 O   0  0  0  0  0  0  0  0  0  0  0  0
  2  9  1  0
  2  1  1  6
  3  2  1  0
  4  8  1  0
  4  3  1  0
  5  4  2  0
  6  5  1  0
  6  7  1  0
  7  8  2  0
  9 10  2  0
 11  9  1  0
 11 12  1  0
 12 13  1  1
 13 14  1  0
 14 19  1  0
 15 14  2  0
 15 16  1  0
 16 17  2  0
 17 18  1  0
 19 18  2  0
 20 21  2  0
 20 12  1  0
 22 23  1  0
 23 24  2  0
 24 25  1  0
 26 25  2  0
 26 27  1  0
 28 27  1  6
 28 29  1  0
 29 20  1  0
 30 28  1  0
 31 30  2  0
 32 26  1  0
 33 23  1  0
 33 32  2  0
 34 30  1  0
M  END
$$$$
