HFY.pdb
     RDKit          3D

 34 36  0  0  1  0  0  0  0  0999 V2000
   27.3147  -22.4794  -17.9275 N   0  0  0  0  0  0  0  0  0  0  0  0
   27.0507  -21.2365  -17.2332 C   0  0  1  0  0  0  0  0  0  0  0  0
   26.2155  -20.3619  -18.1086 C   0  0  0  0  0  0  0  0  0  0  0  0
   27.1348  -19.7266  -19.1004 C   0  0  0  0  0  0  0  0  0  0  0  0
   27.6027  -18.4250  -19.0522 C   0  0  0  0  0  0  0  0  0  0  0  0
   28.4158  -18.2101  -20.1241 N   0  0  0  0  0  0  0  0  0  0  0  0
   28.4552  -19.3571  -20.8295 C   0  0  0  0  0  0  0  0  0  0  0  0
   27.6851  -20.2531  -20.2053 N   0  0  0  0  0  0  0  0  0  0  0  0
   26.4585  -21.4961  -15.8986 C   0  0  0  0  0  0  0  0  0  0  0  0
   25.5791  -22.3778  -15.7990 O   0  0  0  0  0  0  0  0  0  0  0  0
   26.8447  -20.7906  -14.7353 N   0  0  0  0  0  0  0  0  0  0  0  0
   26.1953  -21.0938  -13.4841 C   0  0  1  0  0  0  0  0  0  0  0  0
   26.9060  -20.3490  -12.3647 C   0  0  0  0  0  0  0  0  0  0  0  0
   26.2171  -20.4515  -11.0705 C   0  0  0  0  0  0  0  0  0  0  0  0
   25.5766  -19.3781  -10.4976 C   0  0  0  0  0  0  0  0  0  0  0  0
   24.9494  -19.5348   -9.2860 C   0  0  0  0  0  0  0  0  0  0  0  0
   24.9328  -20.7308   -8.6119 C   0  0  0  0  0  0  0  0  0  0  0  0
   25.5808  -21.8027   -9.1991 C   0  0  0  0  0  0  0  0  0  0  0  0
   26.2079  -21.6524  -10.4071 C   0  0  0  0  0  0  0  0  0  0  0  0
   24.8246  -20.5068  -13.5562 C   0  0  0  0  0  0  0  0  0  0  0  0
   24.6422  -19.5111  -14.3046 O   0  0  0  0  0  0  0  0  0  0  0  0
   16.6144  -18.4836  -14.9659 O   0  0  0  0  0  0  0  0  0  0  0  0
   17.9093  -19.0126  -14.8141 C   0  0  0  0  0  0  0  0  0  0  0  0
   19.0203  -18.2041  -14.9257 C   0  0  0  0  0  0  0  0  0  0  0  0
   20.2903  -18.7290  -14.7757 C   0  0  0  0  0  0  0  0  0  0  0  0
   20.5237  -20.0680  -14.5104 C   0  0  0  0  0  0  0  0  0  0  0  0
   21.8719  -20.6484  -14.3572 C   0  0  0  0  0  0  0  0  0  0  0  0
   22.4225  -20.4166  -12.9938 C   0  0  2  0  0  0  0  0  0  0  0  0
   23.7319  -21.0158  -12.8273 N   0  0  0  0  0  0  0  0  0  0  0  0
   21.5364  -21.0076  -11.9778 C   0  0  0  0  0  0  0  0  0  0  0  0
   20.4764  -20.4216  -11.6214 O   0  0  0  0  0  0  0  0  0  0  0  0
   19.3767  -20.8666  -14.4020 C   0  0  0  0  0  0  0  0  0  0  0  0
   18.1124  -20.3465  -14.5507 C   0  0  0  0  0  0  0  0  0  0  0  0
   21.7976  -22.2184  -11.3617 O   0  0  0  0  0  0  0  0  0  0  0  0
  2  9  1  0
  2  1  1  6
  3  2  1  0
  4  8  1  0
  4  3  1  0
  5  4  2  0
  6  5  1  0
  6  7  1  0
  7  8  2  0
  9 10  2  0
 11  9  1  0
 11 12  1  0
 12 13  1  1
 13 14  1  0
 14 19  1  0
 15 14  2  0
 15 16  1  0
 16 17  2  0
 17 18  1  0
 19 18  2  0
 20 21  2  0
 20 12  1  0
 22 23  1  0
 23 24  2  0
 24 25  1  0
 26 25  2  0
 26 27  1  0
 28 27  1  6
 28 29  1  0
 29 20  1  0
 30 28  1  0
 31 30  2  0
 32 26  1  0
 33 23  1  0
 33 32  2  0
 34 30  1  0
M  END
$$$$
