HFY.pdb
     RDKit          3D

 34 36  0  0  1  0  0  0  0  0999 V2000
   24.7596   -7.6076  -20.0623 N   0  0  0  0  0  0  0  0  0  0  0  0
   23.4179   -7.2966  -19.6152 C   0  0  1  0  0  0  0  0  0  0  0  0
   22.4974   -7.3286  -20.7901 C   0  0  0  0  0  0  0  0  0  0  0  0
   22.8551   -6.1679  -21.6604 C   0  0  0  0  0  0  0  0  0  0  0  0
   23.2519   -6.2411  -22.9843 C   0  0  0  0  0  0  0  0  0  0  0  0
   23.4912   -4.9803  -23.4418 N   0  0  0  0  0  0  0  0  0  0  0  0
   23.2482   -4.1344  -22.4219 C   0  0  0  0  0  0  0  0  0  0  0  0
   22.8693   -4.8590  -21.3651 N   0  0  0  0  0  0  0  0  0  0  0  0
   23.0126   -8.1943  -18.5065 C   0  0  0  0  0  0  0  0  0  0  0  0
   23.0893   -9.4287  -18.6819 O   0  0  0  0  0  0  0  0  0  0  0  0
   22.5437   -7.7152  -17.2613 N   0  0  0  0  0  0  0  0  0  0  0  0
   22.2569   -8.6598  -16.2102 C   0  0  1  0  0  0  0  0  0  0  0  0
   23.1477   -8.3561  -15.0156 C   0  0  0  0  0  0  0  0  0  0  0  0
   24.4207   -9.0903  -15.0393 C   0  0  0  0  0  0  0  0  0  0  0  0
   25.5113   -8.6376  -15.7439 C   0  0  0  0  0  0  0  0  0  0  0  0
   26.6747   -9.3670  -15.7281 C   0  0  0  0  0  0  0  0  0  0  0  0
   26.7999  -10.5434  -15.0314 C   0  0  0  0  0  0  0  0  0  0  0  0
   25.6954  -10.9877  -14.3268 C   0  0  0  0  0  0  0  0  0  0  0  0
   24.5325  -10.2646  -14.3388 C   0  0  0  0  0  0  0  0  0  0  0  0
   20.8611   -8.3884  -15.7555 C   0  0  0  0  0  0  0  0  0  0  0  0
   20.4548   -7.1968  -15.7597 O   0  0  0  0  0  0  0  0  0  0  0  0
   12.3891  -10.0756  -16.3292 O   0  0  0  0  0  0  0  0  0  0  0  0
   13.7423   -9.6918  -16.2947 C   0  0  0  0  0  0  0  0  0  0  0  0
   14.1519   -8.6138  -15.5393 C   0  0  0  0  0  0  0  0  0  0  0  0
   15.4828   -8.2410  -15.5091 C   0  0  0  0  0  0  0  0  0  0  0  0
   16.4669   -8.9093  -16.2181 C   0  0  0  0  0  0  0  0  0  0  0  0
   17.8904   -8.5201  -16.2063 C   0  0  0  0  0  0  0  0  0  0  0  0
   18.6048   -9.0705  -15.0220 C   0  0  2  0  0  0  0  0  0  0  0  0
   19.9832   -9.4020  -15.3243 N   0  0  0  0  0  0  0  0  0  0  0  0
   17.9482  -10.3030  -14.5567 C   0  0  0  0  0  0  0  0  0  0  0  0
   18.2909  -11.4311  -15.0085 O   0  0  0  0  0  0  0  0  0  0  0  0
   16.0225  -10.0009  -16.9770 C   0  0  0  0  0  0  0  0  0  0  0  0
   14.6993  -10.3736  -17.0085 C   0  0  0  0  0  0  0  0  0  0  0  0
   16.9371  -10.3086  -13.6125 O   0  0  0  0  0  0  0  0  0  0  0  0
  2  9  1  0
  2  1  1  6
  3  2  1  0
  4  8  1  0
  4  3  1  0
  5  4  2  0
  6  5  1  0
  6  7  1  0
  7  8  2  0
  9 10  2  0
 11  9  1  0
 11 12  1  0
 12 13  1  1
 13 14  1  0
 14 19  1  0
 15 14  2  0
 15 16  1  0
 16 17  2  0
 17 18  1  0
 19 18  2  0
 20 21  2  0
 20 12  1  0
 22 23  1  0
 23 24  2  0
 24 25  1  0
 26 25  2  0
 26 27  1  0
 28 27  1  6
 28 29  1  0
 29 20  1  0
 30 28  1  0
 31 30  2  0
 32 26  1  0
 33 23  1  0
 33 32  2  0
 34 30  1  0
M  END
$$$$
