HFY.pdb
     RDKit          3D

 34 36  0  0  1  0  0  0  0  0999 V2000
   26.7731  -25.2974  -16.5351 N   0  0  0  0  0  0  0  0  0  0  0  0
   26.2725  -23.9434  -16.6470 C   0  0  1  0  0  0  0  0  0  0  0  0
   25.6150  -23.7796  -17.9773 C   0  0  0  0  0  0  0  0  0  0  0  0
   26.6826  -23.4006  -18.9515 C   0  0  0  0  0  0  0  0  0  0  0  0
   27.8344  -22.6928  -18.6551 C   0  0  0  0  0  0  0  0  0  0  0  0
   28.5629  -22.5408  -19.7964 N   0  0  0  0  0  0  0  0  0  0  0  0
   27.8783  -23.1428  -20.7881 C   0  0  0  0  0  0  0  0  0  0  0  0
   26.7577  -23.6515  -20.2676 N   0  0  0  0  0  0  0  0  0  0  0  0
   25.3979  -23.6101  -15.4966 C   0  0  0  0  0  0  0  0  0  0  0  0
   24.6115  -24.4840  -15.0741 O   0  0  0  0  0  0  0  0  0  0  0  0
   25.4149  -22.3486  -14.8577 N   0  0  0  0  0  0  0  0  0  0  0  0
   24.5975  -22.1449  -13.6873 C   0  0  1  0  0  0  0  0  0  0  0  0
   25.1365  -20.9551  -12.9085 C   0  0  0  0  0  0  0  0  0  0  0  0
   24.3380  -20.6308  -11.7179 C   0  0  0  0  0  0  0  0  0  0  0  0
   23.2264  -19.8239  -11.7823 C   0  0  0  0  0  0  0  0  0  0  0  0
   22.5197  -19.5565  -10.6356 C   0  0  0  0  0  0  0  0  0  0  0  0
   22.8776  -20.0651   -9.4116 C   0  0  0  0  0  0  0  0  0  0  0  0
   23.9977  -20.8754   -9.3607 C   0  0  0  0  0  0  0  0  0  0  0  0
   24.7064  -21.1455  -10.5008 C   0  0  0  0  0  0  0  0  0  0  0  0
   23.2460  -21.7352  -14.1711 C   0  0  0  0  0  0  0  0  0  0  0  0
   23.1782  -20.9092  -15.1187 O   0  0  0  0  0  0  0  0  0  0  0  0
   19.2304  -27.5494  -11.6996 O   0  0  0  0  0  0  0  0  0  0  0  0
   19.4649  -26.4247  -12.5119 C   0  0  0  0  0  0  0  0  0  0  0  0
   20.6018  -26.3376  -13.2868 C   0  0  0  0  0  0  0  0  0  0  0  0
   20.8272  -25.2303  -14.0831 C   0  0  0  0  0  0  0  0  0  0  0  0
   19.9479  -24.1627  -14.1524 C   0  0  0  0  0  0  0  0  0  0  0  0
   20.1762  -22.9682  -14.9884 C   0  0  0  0  0  0  0  0  0  0  0  0
   20.7804  -21.8538  -14.2079 C   0  0  2  0  0  0  0  0  0  0  0  0
   22.0493  -22.2298  -13.6166 N   0  0  0  0  0  0  0  0  0  0  0  0
   19.8848  -21.4548  -13.1100 C   0  0  0  0  0  0  0  0  0  0  0  0
   20.2233  -21.6182  -11.9047 O   0  0  0  0  0  0  0  0  0  0  0  0
   18.8009  -24.2779  -13.3548 C   0  0  0  0  0  0  0  0  0  0  0  0
   18.5745  -25.3785  -12.5621 C   0  0  0  0  0  0  0  0  0  0  0  0
   18.6422  -20.8843  -13.3200 O   0  0  0  0  0  0  0  0  0  0  0  0
  2  9  1  0
  2  1  1  1
  3  2  1  0
  4  8  1  0
  4  3  1  0
  5  4  2  0
  6  5  1  0
  6  7  1  0
  7  8  2  0
  9 10  2  0
 11  9  1  0
 11 12  1  0
 12 13  1  1
 13 14  1  0
 14 19  1  0
 15 14  2  0
 15 16  1  0
 16 17  2  0
 17 18  1  0
 19 18  2  0
 20 21  2  0
 20 12  1  0
 22 23  1  0
 23 24  2  0
 24 25  1  0
 26 25  2  0
 26 27  1  0
 28 27  1  1
 28 29  1  0
 29 20  1  0
 30 28  1  0
 31 30  2  0
 32 26  1  0
 33 23  1  0
 33 32  2  0
 34 30  1  0
M  END
$$$$
