HFY.pdb
     RDKit          3D

 34 36  0  0  1  0  0  0  0  0999 V2000
   18.7364   -9.9844  -17.8353 N   0  0  0  0  0  0  0  0  0  0  0  0
   18.0943   -9.2179  -16.7880 C   0  0  1  0  0  0  0  0  0  0  0  0
   18.5964   -9.6925  -15.4646 C   0  0  0  0  0  0  0  0  0  0  0  0
   17.9883  -11.0350  -15.2196 C   0  0  0  0  0  0  0  0  0  0  0  0
   18.6424  -12.2506  -15.3213 C   0  0  0  0  0  0  0  0  0  0  0  0
   17.7640  -13.2486  -15.0237 N   0  0  0  0  0  0  0  0  0  0  0  0
   16.5822  -12.6671  -14.7411 C   0  0  0  0  0  0  0  0  0  0  0  0
   16.7325  -11.3449  -14.8625 N   0  0  0  0  0  0  0  0  0  0  0  0
   18.2749   -7.7636  -17.0158 C   0  0  0  0  0  0  0  0  0  0  0  0
   19.3949   -7.3541  -17.3880 O   0  0  0  0  0  0  0  0  0  0  0  0
   17.2368   -6.8213  -16.8304 N   0  0  0  0  0  0  0  0  0  0  0  0
   17.4892   -5.4332  -17.1279 C   0  0  1  0  0  0  0  0  0  0  0  0
   16.3570   -4.8983  -17.9908 C   0  0  0  0  0  0  0  0  0  0  0  0
   16.4679   -5.2911  -19.4028 C   0  0  0  0  0  0  0  0  0  0  0  0
   17.2980   -4.6337  -20.2801 C   0  0  0  0  0  0  0  0  0  0  0  0
   17.3598   -5.0468  -21.5883 C   0  0  0  0  0  0  0  0  0  0  0  0
   16.6205   -6.1004  -22.0662 C   0  0  0  0  0  0  0  0  0  0  0  0
   15.7895   -6.7530  -21.1733 C   0  0  0  0  0  0  0  0  0  0  0  0
   15.7237   -6.3456  -19.8676 C   0  0  0  0  0  0  0  0  0  0  0  0
   17.3999   -4.6918  -15.8352 C   0  0  0  0  0  0  0  0  0  0  0  0
   16.4597   -4.9784  -15.0485 O   0  0  0  0  0  0  0  0  0  0  0  0
   24.3358   -4.3392  -15.4812 O   0  0  0  0  0  0  0  0  0  0  0  0
   23.0625   -4.1389  -14.9172 C   0  0  0  0  0  0  0  0  0  0  0  0
   22.6037   -2.8685  -14.6416 C   0  0  0  0  0  0  0  0  0  0  0  0
   21.3517   -2.6774  -14.0874 C   0  0  0  0  0  0  0  0  0  0  0  0
   20.4980   -3.7237  -13.7803 C   0  0  0  0  0  0  0  0  0  0  0  0
   19.1628   -3.5401  -13.1793 C   0  0  0  0  0  0  0  0  0  0  0  0
   18.1730   -3.0394  -14.1721 C   0  0  2  0  0  0  0  0  0  0  0  0
   18.3168   -3.6909  -15.4590 N   0  0  0  0  0  0  0  0  0  0  0  0
   18.3529   -1.5945  -14.3884 C   0  0  0  0  0  0  0  0  0  0  0  0
   18.1951   -0.7724  -13.4433 O   0  0  0  0  0  0  0  0  0  0  0  0
   20.9897   -5.0039  -14.0711 C   0  0  0  0  0  0  0  0  0  0  0  0
   22.2347   -5.1962  -14.6224 C   0  0  0  0  0  0  0  0  0  0  0  0
   18.7020   -1.0530  -15.6126 O   0  0  0  0  0  0  0  0  0  0  0  0
  2  9  1  0
  2  1  1  6
  3  2  1  0
  4  8  1  0
  4  3  1  0
  5  4  2  0
  6  5  1  0
  6  7  1  0
  7  8  2  0
  9 10  2  0
 11  9  1  0
 11 12  1  0
 12 13  1  6
 13 14  1  0
 14 19  1  0
 15 14  2  0
 15 16  1  0
 16 17  2  0
 17 18  1  0
 19 18  2  0
 20 21  2  0
 20 12  1  0
 22 23  1  0
 23 24  2  0
 24 25  1  0
 26 25  2  0
 26 27  1  0
 28 27  1  1
 28 29  1  0
 29 20  1  0
 30 28  1  0
 31 30  2  0
 32 26  1  0
 33 23  1  0
 33 32  2  0
 34 30  1  0
M  END
$$$$
