HFY.pdb
     RDKit          3D

 34 36  0  0  1  0  0  0  0  0999 V2000
   26.6033  -22.0215  -17.7854 N   0  0  0  0  0  0  0  0  0  0  0  0
   26.3488  -20.8086  -17.0365 C   0  0  1  0  0  0  0  0  0  0  0  0
   25.2637  -20.0403  -17.7153 C   0  0  0  0  0  0  0  0  0  0  0  0
   25.8544  -19.4439  -18.9513 C   0  0  0  0  0  0  0  0  0  0  0  0
   26.4248  -18.1867  -19.0504 C   0  0  0  0  0  0  0  0  0  0  0  0
   26.8521  -17.9976  -20.3302 N   0  0  0  0  0  0  0  0  0  0  0  0
   26.5542  -19.1166  -21.0184 C   0  0  0  0  0  0  0  0  0  0  0  0
   25.9587  -19.9708  -20.1810 N   0  0  0  0  0  0  0  0  0  0  0  0
   26.0691  -21.1191  -15.6136 C   0  0  0  0  0  0  0  0  0  0  0  0
   25.2907  -22.0604  -15.3517 O   0  0  0  0  0  0  0  0  0  0  0  0
   26.6438  -20.3975  -14.5416 N   0  0  0  0  0  0  0  0  0  0  0  0
   26.2950  -20.7560  -13.1891 C   0  0  1  0  0  0  0  0  0  0  0  0
   27.2996  -20.1272  -12.2361 C   0  0  0  0  0  0  0  0  0  0  0  0
   26.9545  -20.3180  -10.8202 C   0  0  0  0  0  0  0  0  0  0  0  0
   26.2168  -19.3942  -10.1180 C   0  0  0  0  0  0  0  0  0  0  0  0
   25.9250  -19.6277   -8.7965 C   0  0  0  0  0  0  0  0  0  0  0  0
   26.3421  -20.7567   -8.1361 C   0  0  0  0  0  0  0  0  0  0  0  0
   27.0835  -21.6780   -8.8540 C   0  0  0  0  0  0  0  0  0  0  0  0
   27.3775  -21.4507  -10.1720 C   0  0  0  0  0  0  0  0  0  0  0  0
   24.9876  -20.0994  -12.8924 C   0  0  0  0  0  0  0  0  0  0  0  0
   24.8259  -18.9045  -13.2544 O   0  0  0  0  0  0  0  0  0  0  0  0
   19.7121  -23.9485  -15.9108 O   0  0  0  0  0  0  0  0  0  0  0  0
   20.2724  -22.8652  -15.2092 C   0  0  0  0  0  0  0  0  0  0  0  0
   21.6104  -22.5579  -15.3356 C   0  0  0  0  0  0  0  0  0  0  0  0
   22.1559  -21.4925  -14.6439 C   0  0  0  0  0  0  0  0  0  0  0  0
   21.4125  -20.6845  -13.7999 C   0  0  0  0  0  0  0  0  0  0  0  0
   21.9790  -19.5496  -13.0457 C   0  0  0  0  0  0  0  0  0  0  0  0
   22.7491  -20.0049  -11.8559 C   0  0  2  0  0  0  0  0  0  0  0  0
   23.9322  -20.7549  -12.2286 N   0  0  0  0  0  0  0  0  0  0  0  0
   21.9187  -20.8830  -11.0155 C   0  0  0  0  0  0  0  0  0  0  0  0
   20.8132  -20.4838  -10.5543 O   0  0  0  0  0  0  0  0  0  0  0  0
   20.0557  -21.0195  -13.6905 C   0  0  0  0  0  0  0  0  0  0  0  0
   19.5110  -22.0787  -14.3776 C   0  0  0  0  0  0  0  0  0  0  0  0
   22.2836  -22.1758  -10.6849 O   0  0  0  0  0  0  0  0  0  0  0  0
  2  9  1  0
  2  1  1  6
  3  2  1  0
  4  8  1  0
  4  3  1  0
  5  4  2  0
  6  5  1  0
  6  7  1  0
  7  8  2  0
  9 10  2  0
 11  9  1  0
 11 12  1  0
 12 13  1  1
 13 14  1  0
 14 19  1  0
 15 14  2  0
 15 16  1  0
 16 17  2  0
 17 18  1  0
 19 18  2  0
 20 21  2  0
 20 12  1  0
 22 23  1  0
 23 24  2  0
 24 25  1  0
 26 25  2  0
 26 27  1  0
 28 27  1  6
 28 29  1  0
 29 20  1  0
 30 28  1  0
 31 30  2  0
 32 26  1  0
 33 23  1  0
 33 32  2  0
 34 30  1  0
M  END
$$$$
