HFY.pdb
     RDKit          3D

 34 36  0  0  1  0  0  0  0  0999 V2000
   28.2857  -21.2172  -15.0291 N   0  0  0  0  0  0  0  0  0  0  0  0
   27.4095  -20.2474  -14.4057 C   0  0  1  0  0  0  0  0  0  0  0  0
   26.6513  -19.5264  -15.4706 C   0  0  0  0  0  0  0  0  0  0  0  0
   27.5799  -18.5181  -16.0651 C   0  0  0  0  0  0  0  0  0  0  0  0
   28.3152  -17.5806  -15.3609 C   0  0  0  0  0  0  0  0  0  0  0  0
   29.0434  -16.8403  -16.2428 N   0  0  0  0  0  0  0  0  0  0  0  0
   28.7681  -17.3069  -17.4761 C   0  0  0  0  0  0  0  0  0  0  0  0
   27.8924  -18.3087  -17.3532 N   0  0  0  0  0  0  0  0  0  0  0  0
   26.5494  -20.8959  -13.3864 C   0  0  0  0  0  0  0  0  0  0  0  0
   25.9800  -21.9676  -13.6826 O   0  0  0  0  0  0  0  0  0  0  0  0
   26.3455  -20.3552  -12.0956 N   0  0  0  0  0  0  0  0  0  0  0  0
   25.3551  -20.9523  -11.2343 C   0  0  1  0  0  0  0  0  0  0  0  0
   25.4373  -20.3031   -9.8615 C   0  0  0  0  0  0  0  0  0  0  0  0
   26.7289  -20.5185   -9.1940 C   0  0  0  0  0  0  0  0  0  0  0  0
   27.7127  -21.3058   -9.7446 C   0  0  0  0  0  0  0  0  0  0  0  0
   28.8998  -21.4696   -9.0740 C   0  0  0  0  0  0  0  0  0  0  0  0
   29.1522  -20.8750   -7.8625 C   0  0  0  0  0  0  0  0  0  0  0  0
   28.1542  -20.0856   -7.3196 C   0  0  0  0  0  0  0  0  0  0  0  0
   26.9684  -19.9185   -7.9837 C   0  0  0  0  0  0  0  0  0  0  0  0
   24.0201  -20.5725  -11.7840 C   0  0  0  0  0  0  0  0  0  0  0  0
   23.9483  -19.5562  -12.5236 O   0  0  0  0  0  0  0  0  0  0  0  0
   17.0983  -20.7295  -16.8318 O   0  0  0  0  0  0  0  0  0  0  0  0
   18.2517  -20.9468  -16.0560 C   0  0  0  0  0  0  0  0  0  0  0  0
   19.2875  -20.0370  -16.0598 C   0  0  0  0  0  0  0  0  0  0  0  0
   20.4186  -20.2555  -15.2955 C   0  0  0  0  0  0  0  0  0  0  0  0
   20.5811  -21.3748  -14.4964 C   0  0  0  0  0  0  0  0  0  0  0  0
   21.7849  -21.6302  -13.6819 C   0  0  0  0  0  0  0  0  0  0  0  0
   21.6584  -21.0591  -12.3130 C   0  0  2  0  0  0  0  0  0  0  0  0
   22.8434  -21.2977  -11.5129 N   0  0  0  0  0  0  0  0  0  0  0  0
   20.5210  -21.6714  -11.6073 C   0  0  0  0  0  0  0  0  0  0  0  0
   19.4625  -21.0175  -11.3928 O   0  0  0  0  0  0  0  0  0  0  0  0
   19.5130  -22.2825  -14.5115 C   0  0  0  0  0  0  0  0  0  0  0  0
   18.3869  -22.0672  -15.2708 C   0  0  0  0  0  0  0  0  0  0  0  0
   20.5336  -22.9753  -11.1453 O   0  0  0  0  0  0  0  0  0  0  0  0
  2  9  1  0
  2  1  1  6
  3  2  1  0
  4  8  1  0
  4  3  1  0
  5  4  2  0
  6  5  1  0
  6  7  1  0
  7  8  2  0
  9 10  2  0
 11  9  1  0
 11 12  1  0
 12 13  1  1
 13 14  1  0
 14 19  1  0
 15 14  2  0
 15 16  1  0
 16 17  2  0
 17 18  1  0
 19 18  2  0
 20 21  2  0
 20 12  1  0
 22 23  1  0
 23 24  2  0
 24 25  1  0
 26 25  2  0
 26 27  1  0
 28 27  1  6
 28 29  1  0
 29 20  1  0
 30 28  1  0
 31 30  2  0
 32 26  1  0
 33 23  1  0
 33 32  2  0
 34 30  1  0
M  END
$$$$
