FMF.pdb
     RDKit          3D

 31 32  0  0  1  0  0  0  0  0999 V2000
    5.7978  -18.6913   24.6517 N   0  0  0  0  0  0  0  0  0  0  0  0
    6.5802  -19.4239   23.6537 C   0  0  1  0  0  0  0  0  0  0  0  0
    5.6744  -19.8692   22.5238 C   0  0  0  0  0  0  0  0  0  0  0  0
    5.1968  -18.6579   21.8216 C   0  0  0  0  0  0  0  0  0  0  0  0
    4.2820  -18.7010   20.7927 C   0  0  0  0  0  0  0  0  0  0  0  0
    3.8600  -17.5430   20.1602 C   0  0  0  0  0  0  0  0  0  0  0  0
    4.3667  -16.3153   20.5687 C   0  0  0  0  0  0  0  0  0  0  0  0
    5.2772  -16.2565   21.5905 C   0  0  0  0  0  0  0  0  0  0  0  0
    5.6825  -17.4087   22.2034 C   0  0  0  0  0  0  0  0  0  0  0  0
    7.6758  -18.5544   23.1750 C   0  0  0  0  0  0  0  0  0  0  0  0
    8.8404  -19.0089   23.1465 O   0  0  0  0  0  0  0  0  0  0  0  0
    7.0583  -13.4906   19.0852 C   0  0  0  0  0  0  0  0  0  0  0  0
    7.9270  -12.7613   20.5125 S   0  0  0  0  0  0  0  0  0  0  0  0
    8.8982  -14.0736   21.3305 C   0  0  0  0  0  0  0  0  0  0  0  0
    7.9573  -15.1436   21.7749 C   0  0  0  0  0  0  0  0  0  0  0  0
    8.5987  -16.3598   22.3806 C   0  0  2  0  0  0  0  0  0  0  0  0
    7.4550  -17.2271   22.7478 N   0  0  0  0  0  0  0  0  0  0  0  0
    9.3456  -16.1232   23.6187 C   0  0  0  0  0  0  0  0  0  0  0  0
   10.5053  -15.5686   23.5896 O   0  0  0  0  0  0  0  0  0  0  0  0
    8.9165  -16.4512   24.9354 N   0  0  0  0  0  0  0  0  0  0  0  0
    9.6571  -16.0429   26.1307 C   0  0  1  0  0  0  0  0  0  0  0  0
    8.7451  -15.6397   27.2292 C   0  0  0  0  0  0  0  0  0  0  0  0
    8.0179  -14.4083   26.8858 C   0  0  0  0  0  0  0  0  0  0  0  0
    6.6968  -14.4178   26.4990 C   0  0  0  0  0  0  0  0  0  0  0  0
    6.0118  -13.2573   26.1831 C   0  0  0  0  0  0  0  0  0  0  0  0
    6.6419  -12.0213   26.2454 C   0  0  0  0  0  0  0  0  0  0  0  0
    7.9556  -12.0017   26.6287 C   0  0  0  0  0  0  0  0  0  0  0  0
    8.6297  -13.1517   26.9405 C   0  0  0  0  0  0  0  0  0  0  0  0
   10.4924  -17.1760   26.5251 C   0  0  0  0  0  0  0  0  0  0  0  0
   10.4551  -18.3449   25.7994 O   0  0  0  0  0  0  0  0  0  0  0  0
   11.2477  -17.1118   27.5195 O   0  0  0  0  0  0  0  0  0  0  0  0
  2  1  1  1
  3  4  1  0
  3  2  1  0
  4  5  2  0
  5  6  1  0
  7  6  2  0
  8  7  1  0
  9  8  2  0
  9  4  1  0
 10  2  1  0
 10 11  2  0
 12 13  1  0
 13 14  1  0
 16 15  1  1
 15 14  1  0
 16 17  1  0
 17 10  1  0
 18 16  1  0
 19 18  2  0
 20 18  1  0
 21 22  1  1
 21 20  1  0
 22 23  1  0
 23 28  1  0
 24 23  2  0
 24 25  1  0
 25 26  2  0
 26 27  1  0
 28 27  2  0
 29 30  1  0
 29 21  1  0
 31 29  2  0
M  END
$$$$
