FMF.pdb
     RDKit          3D

 31 32  0  0  1  0  0  0  0  0999 V2000
    6.0642  -18.4720   24.2288 N   0  0  0  0  0  0  0  0  0  0  0  0
    6.5134  -17.0786   24.2640 C   0  0  1  0  0  0  0  0  0  0  0  0
    6.7119  -16.6440   25.7018 C   0  0  0  0  0  0  0  0  0  0  0  0
    6.6802  -15.1655   25.7369 C   0  0  0  0  0  0  0  0  0  0  0  0
    7.7007  -14.4073   26.2672 C   0  0  0  0  0  0  0  0  0  0  0  0
    7.6326  -13.0237   26.2813 C   0  0  0  0  0  0  0  0  0  0  0  0
    6.5165  -12.3871   25.7520 C   0  0  0  0  0  0  0  0  0  0  0  0
    5.4937  -13.1277   25.2212 C   0  0  0  0  0  0  0  0  0  0  0  0
    5.5774  -14.4916   25.2154 C   0  0  0  0  0  0  0  0  0  0  0  0
    7.7564  -16.9585   23.4728 C   0  0  0  0  0  0  0  0  0  0  0  0
    8.5444  -17.9286   23.4330 O   0  0  0  0  0  0  0  0  0  0  0  0
    7.9381  -11.6518   20.1388 C   0  0  0  0  0  0  0  0  0  0  0  0
    7.3976  -13.1464   19.2457 S   0  0  0  0  0  0  0  0  0  0  0  0
    7.5289  -14.5747   20.3760 C   0  0  0  0  0  0  0  0  0  0  0  0
    8.9311  -14.6425   20.8830 C   0  0  0  0  0  0  0  0  0  0  0  0
    9.2288  -15.7830   21.8146 C   0  0  2  0  0  0  0  0  0  0  0  0
    8.0872  -15.7862   22.7590 N   0  0  0  0  0  0  0  0  0  0  0  0
   10.4344  -15.6256   22.6321 C   0  0  0  0  0  0  0  0  0  0  0  0
   11.1283  -14.5445   22.5767 O   0  0  0  0  0  0  0  0  0  0  0  0
   10.9654  -16.5838   23.5406 N   0  0  0  0  0  0  0  0  0  0  0  0
   11.2961  -16.2556   24.9287 C   0  0  1  0  0  0  0  0  0  0  0  0
   10.1338  -15.6775   25.6469 C   0  0  0  0  0  0  0  0  0  0  0  0
   10.4792  -15.3612   27.0410 C   0  0  0  0  0  0  0  0  0  0  0  0
   10.2498  -16.2420   28.0738 C   0  0  0  0  0  0  0  0  0  0  0  0
   10.5822  -15.9457   29.3843 C   0  0  0  0  0  0  0  0  0  0  0  0
   11.1681  -14.7297   29.7108 C   0  0  0  0  0  0  0  0  0  0  0  0
   11.3999  -13.8472   28.6908 C   0  0  0  0  0  0  0  0  0  0  0  0
   11.0700  -14.1440   27.3958 C   0  0  0  0  0  0  0  0  0  0  0  0
   11.7503  -17.4912   25.5646 C   0  0  0  0  0  0  0  0  0  0  0  0
   11.2164  -18.7002   25.1806 O   0  0  0  0  0  0  0  0  0  0  0  0
   12.6205  -17.4783   26.4625 O   0  0  0  0  0  0  0  0  0  0  0  0
  2  1  1  1
  3  4  1  0
  3  2  1  0
  4  5  2  0
  5  6  1  0
  7  6  2  0
  8  7  1  0
  9  8  2  0
  9  4  1  0
 10  2  1  0
 10 11  2  0
 12 13  1  0
 13 14  1  0
 16 15  1  6
 15 14  1  0
 16 17  1  0
 17 10  1  0
 18 16  1  0
 19 18  2  0
 20 18  1  0
 21 22  1  1
 21 20  1  0
 22 23  1  0
 23 28  1  0
 24 23  2  0
 24 25  1  0
 25 26  2  0
 26 27  1  0
 28 27  2  0
 29 30  1  0
 29 21  1  0
 31 29  2  0
M  END
$$$$
