FMF.pdb
     RDKit          3D

 31 32  0  0  1  0  0  0  0  0999 V2000
    8.1794  -16.4344   20.1217 N   0  0  0  0  0  0  0  0  0  0  0  0
    9.5774  -16.1088   20.4119 C   0  0  1  0  0  0  0  0  0  0  0  0
   10.0443  -15.0021   19.4885 C   0  0  0  0  0  0  0  0  0  0  0  0
    8.8545  -14.2297   19.0689 C   0  0  0  0  0  0  0  0  0  0  0  0
    7.9825  -14.6677   18.0966 C   0  0  0  0  0  0  0  0  0  0  0  0
    6.8789  -13.9140   17.7318 C   0  0  0  0  0  0  0  0  0  0  0  0
    6.6450  -12.6946   18.3559 C   0  0  0  0  0  0  0  0  0  0  0  0
    7.5033  -12.2459   19.3246 C   0  0  0  0  0  0  0  0  0  0  0  0
    8.5871  -13.0022   19.6722 C   0  0  0  0  0  0  0  0  0  0  0  0
    9.6923  -15.7272   21.8355 C   0  0  0  0  0  0  0  0  0  0  0  0
   10.8036  -15.3601   22.2757 O   0  0  0  0  0  0  0  0  0  0  0  0
    6.1749  -11.7316   25.5369 C   0  0  0  0  0  0  0  0  0  0  0  0
    7.6160  -12.7293   26.0383 S   0  0  0  0  0  0  0  0  0  0  0  0
    7.1599  -14.4948   25.9390 C   0  0  0  0  0  0  0  0  0  0  0  0
    7.3248  -14.9414   24.5244 C   0  0  0  0  0  0  0  0  0  0  0  0
    8.7309  -15.2683   24.1079 C   0  0  2  0  0  0  0  0  0  0  0  0
    8.5910  -15.7620   22.7181 N   0  0  0  0  0  0  0  0  0  0  0  0
    9.3725  -16.3482   24.8622 C   0  0  0  0  0  0  0  0  0  0  0  0
    8.7404  -17.4397   25.1118 O   0  0  0  0  0  0  0  0  0  0  0  0
   10.6962  -16.3376   25.3848 N   0  0  0  0  0  0  0  0  0  0  0  0
   11.1653  -17.3201   26.3639 C   0  0  1  0  0  0  0  0  0  0  0  0
   10.2349  -17.4350   27.5137 C   0  0  0  0  0  0  0  0  0  0  0  0
   10.1655  -16.1723   28.2645 C   0  0  0  0  0  0  0  0  0  0  0  0
   11.2293  -15.6903   28.9931 C   0  0  0  0  0  0  0  0  0  0  0  0
   11.1649  -14.4981   29.6933 C   0  0  0  0  0  0  0  0  0  0  0  0
   10.0063  -13.7324   29.6867 C   0  0  0  0  0  0  0  0  0  0  0  0
    8.9430  -14.2036   28.9653 C   0  0  0  0  0  0  0  0  0  0  0  0
    9.0107  -15.3832   28.2739 C   0  0  0  0  0  0  0  0  0  0  0  0
   11.2989  -18.5951   25.6612 C   0  0  0  0  0  0  0  0  0  0  0  0
   11.8506  -19.6806   26.3027 O   0  0  0  0  0  0  0  0  0  0  0  0
   10.9231  -18.7265   24.4759 O   0  0  0  0  0  0  0  0  0  0  0  0
  2  1  1  6
  3  4  1  0
  3  2  1  0
  4  5  2  0
  5  6  1  0
  7  6  2  0
  8  7  1  0
  9  8  2  0
  9  4  1  0
 10  2  1  0
 10 11  2  0
 12 13  1  0
 13 14  1  0
 16 15  1  1
 15 14  1  0
 16 17  1  0
 17 10  1  0
 18 16  1  0
 19 18  2  0
 20 18  1  0
 21 22  1  1
 21 20  1  0
 22 23  1  0
 23 28  1  0
 24 23  2  0
 24 25  1  0
 25 26  2  0
 26 27  1  0
 28 27  2  0
 29 30  1  0
 29 21  1  0
 31 29  2  0
M  END
$$$$
