FMF.pdb
     RDKit          3D

 31 32  0  0  1  0  0  0  0  0999 V2000
    5.7777  -18.6038   24.9697 N   0  0  0  0  0  0  0  0  0  0  0  0
    6.1849  -17.2005   24.8713 C   0  0  1  0  0  0  0  0  0  0  0  0
    6.5736  -16.6861   26.2423 C   0  0  0  0  0  0  0  0  0  0  0  0
    6.6643  -15.2116   26.1642 C   0  0  0  0  0  0  0  0  0  0  0  0
    7.8578  -14.5426   26.0044 C   0  0  0  0  0  0  0  0  0  0  0  0
    7.9004  -13.1597   25.9360 C   0  0  0  0  0  0  0  0  0  0  0  0
    6.7202  -12.4321   26.0299 C   0  0  0  0  0  0  0  0  0  0  0  0
    5.5257  -13.0834   26.1889 C   0  0  0  0  0  0  0  0  0  0  0  0
    5.5019  -14.4481   26.2545 C   0  0  0  0  0  0  0  0  0  0  0  0
    7.2980  -17.0940   23.9042 C   0  0  0  0  0  0  0  0  0  0  0  0
    8.0836  -18.0584   23.7774 O   0  0  0  0  0  0  0  0  0  0  0  0
    9.0200  -11.5806   20.2111 C   0  0  0  0  0  0  0  0  0  0  0  0
    8.3169  -12.9212   19.1951 S   0  0  0  0  0  0  0  0  0  0  0  0
    8.8294  -14.5203   19.9128 C   0  0  0  0  0  0  0  0  0  0  0  0
    8.0438  -14.7456   21.1617 C   0  0  0  0  0  0  0  0  0  0  0  0
    8.3736  -16.0019   21.9169 C   0  0  2  0  0  0  0  0  0  0  0  0
    7.5067  -15.9409   23.1168 N   0  0  0  0  0  0  0  0  0  0  0  0
    9.7497  -16.0924   22.4115 C   0  0  0  0  0  0  0  0  0  0  0  0
   10.7455  -15.9218   21.6162 O   0  0  0  0  0  0  0  0  0  0  0  0
   10.1455  -16.3615   23.7519 N   0  0  0  0  0  0  0  0  0  0  0  0
   11.5019  -16.1048   24.2401 C   0  0  1  0  0  0  0  0  0  0  0  0
   11.6209  -14.7542   24.8425 C   0  0  0  0  0  0  0  0  0  0  0  0
   11.1998  -14.7661   26.2515 C   0  0  0  0  0  0  0  0  0  0  0  0
   11.1611  -13.6229   27.0174 C   0  0  0  0  0  0  0  0  0  0  0  0
   10.7576  -13.6346   28.3413 C   0  0  0  0  0  0  0  0  0  0  0  0
   10.3711  -14.8187   28.9556 C   0  0  0  0  0  0  0  0  0  0  0  0
   10.4065  -15.9607   28.2023 C   0  0  0  0  0  0  0  0  0  0  0  0
   10.8060  -15.9451   26.8930 C   0  0  0  0  0  0  0  0  0  0  0  0
   11.8109  -17.1488   25.2157 C   0  0  0  0  0  0  0  0  0  0  0  0
   13.0799  -17.2488   25.7390 O   0  0  0  0  0  0  0  0  0  0  0  0
   10.9420  -17.9664   25.5900 O   0  0  0  0  0  0  0  0  0  0  0  0
  2  1  1  1
  3  4  1  0
  3  2  1  0
  4  5  2  0
  5  6  1  0
  7  6  2  0
  8  7  1  0
  9  8  2  0
  9  4  1  0
 10  2  1  0
 10 11  2  0
 12 13  1  0
 13 14  1  0
 16 15  1  6
 15 14  1  0
 16 17  1  0
 17 10  1  0
 18 16  1  0
 19 18  2  0
 20 18  1  0
 21 22  1  1
 21 20  1  0
 22 23  1  0
 23 28  1  0
 24 23  2  0
 24 25  1  0
 25 26  2  0
 26 27  1  0
 28 27  2  0
 29 30  1  0
 29 21  1  0
 31 29  2  0
M  END
$$$$
