FMF.pdb
     RDKit          3D

 31 32  0  0  1  0  0  0  0  0999 V2000
    6.5597  -19.4366   21.1120 N   0  0  0  0  0  0  0  0  0  0  0  0
    6.6349  -18.2526   21.9707 C   0  0  1  0  0  0  0  0  0  0  0  0
    6.1250  -18.5952   23.3556 C   0  0  0  0  0  0  0  0  0  0  0  0
    6.1978  -17.3699   24.1813 C   0  0  0  0  0  0  0  0  0  0  0  0
    5.8925  -16.1187   23.6926 C   0  0  0  0  0  0  0  0  0  0  0  0
    5.9735  -14.9951   24.4989 C   0  0  0  0  0  0  0  0  0  0  0  0
    6.3695  -15.1297   25.8241 C   0  0  0  0  0  0  0  0  0  0  0  0
    6.6763  -16.3674   26.3243 C   0  0  0  0  0  0  0  0  0  0  0  0
    6.5910  -17.4651   25.5150 C   0  0  0  0  0  0  0  0  0  0  0  0
    8.0328  -17.7723   21.9987 C   0  0  0  0  0  0  0  0  0  0  0  0
    8.9606  -18.6046   21.8988 O   0  0  0  0  0  0  0  0  0  0  0  0
    8.8328  -11.6728   21.1380 C   0  0  0  0  0  0  0  0  0  0  0  0
    9.0156  -12.6661   19.6202 S   0  0  0  0  0  0  0  0  0  0  0  0
    9.0336  -14.4324   20.0837 C   0  0  0  0  0  0  0  0  0  0  0  0
    9.6362  -14.5527   21.4438 C   0  0  0  0  0  0  0  0  0  0  0  0
    9.7609  -15.9523   21.9757 C   0  0  2  0  0  0  0  0  0  0  0  0
    8.3593  -16.4054   22.1341 N   0  0  0  0  0  0  0  0  0  0  0  0
   10.3790  -16.0667   23.2992 C   0  0  0  0  0  0  0  0  0  0  0  0
   11.6294  -15.8159   23.4633 O   0  0  0  0  0  0  0  0  0  0  0  0
    9.7224  -16.4439   24.5042 N   0  0  0  0  0  0  0  0  0  0  0  0
   10.4367  -16.6165   25.7706 C   0  0  1  0  0  0  0  0  0  0  0  0
    9.5519  -16.3733   26.9364 C   0  0  0  0  0  0  0  0  0  0  0  0
    8.9976  -15.0115   26.9028 C   0  0  0  0  0  0  0  0  0  0  0  0
    7.6968  -14.7556   26.5320 C   0  0  0  0  0  0  0  0  0  0  0  0
    7.1745  -13.4741   26.5079 C   0  0  0  0  0  0  0  0  0  0  0  0
    7.9558  -12.3820   26.8622 C   0  0  0  0  0  0  0  0  0  0  0  0
    9.2506  -12.6263   27.2322 C   0  0  0  0  0  0  0  0  0  0  0  0
    9.7635  -13.8954   27.2549 C   0  0  0  0  0  0  0  0  0  0  0  0
   10.9651  -17.9796   25.7822 C   0  0  0  0  0  0  0  0  0  0  0  0
   11.7577  -18.4023   26.8250 O   0  0  0  0  0  0  0  0  0  0  0  0
   10.7155  -18.7814   24.8558 O   0  0  0  0  0  0  0  0  0  0  0  0
  2  1  1  6
  3  4  1  0
  3  2  1  0
  4  5  2  0
  5  6  1  0
  7  6  2  0
  8  7  1  0
  9  8  2  0
  9  4  1  0
 10  2  1  0
 10 11  2  0
 12 13  1  0
 13 14  1  0
 16 15  1  1
 15 14  1  0
 16 17  1  0
 17 10  1  0
 18 16  1  0
 19 18  2  0
 20 18  1  0
 21 22  1  1
 21 20  1  0
 22 23  1  0
 23 28  1  0
 24 23  2  0
 24 25  1  0
 25 26  2  0
 26 27  1  0
 28 27  2  0
 29 30  1  0
 29 21  1  0
 31 29  2  0
M  END
$$$$
