FHY.pdb
     RDKit          3D

 34 36  0  0  1  0  0  0  0  0999 V2000
    5.8588  -17.4866   24.1788 N   0  0  0  0  0  0  0  0  0  0  0  0
    6.7588  -16.3606   24.2209 C   0  0  1  0  0  0  0  0  0  0  0  0
    7.2738  -16.2566   25.6601 C   0  0  0  0  0  0  0  0  0  0  0  0
    7.2794  -14.8751   26.1503 C   0  0  0  0  0  0  0  0  0  0  0  0
    8.3948  -14.0764   25.9567 C   0  0  0  0  0  0  0  0  0  0  0  0
    8.3593  -12.7888   26.4311 C   0  0  0  0  0  0  0  0  0  0  0  0
    7.2615  -12.2787   27.0838 C   0  0  0  0  0  0  0  0  0  0  0  0
    6.1648  -13.0912   27.2645 C   0  0  0  0  0  0  0  0  0  0  0  0
    6.1729  -14.3765   26.8026 C   0  0  0  0  0  0  0  0  0  0  0  0
    7.9538  -16.5559   23.3686 C   0  0  0  0  0  0  0  0  0  0  0  0
    8.3415  -17.7284   23.1554 O   0  0  0  0  0  0  0  0  0  0  0  0
    8.7039  -15.4989   22.7661 N   0  0  0  0  0  0  0  0  0  0  0  0
    9.8576  -15.7429   21.9386 C   0  0  1  0  0  0  0  0  0  0  0  0
   10.0740  -14.5957   21.0200 C   0  0  0  0  0  0  0  0  0  0  0  0
    8.9332  -14.2146   20.1795 C   0  0  0  0  0  0  0  0  0  0  0  0
    7.6807  -14.7304   20.0217 C   0  0  0  0  0  0  0  0  0  0  0  0
    7.0360  -13.9324   19.1143 N   0  0  0  0  0  0  0  0  0  0  0  0
    7.8359  -12.9592   18.7158 C   0  0  0  0  0  0  0  0  0  0  0  0
    8.9917  -13.1151   19.3526 N   0  0  0  0  0  0  0  0  0  0  0  0
   11.0911  -16.0156   22.7087 C   0  0  0  0  0  0  0  0  0  0  0  0
   12.1877  -16.3776   22.2170 O   0  0  0  0  0  0  0  0  0  0  0  0
    9.1961  -16.1319   30.4648 O   0  0  0  0  0  0  0  0  0  0  0  0
    9.9459  -15.7930   29.3493 C   0  0  0  0  0  0  0  0  0  0  0  0
    9.3082  -15.1529   28.3070 C   0  0  0  0  0  0  0  0  0  0  0  0
   10.0299  -14.7932   27.1615 C   0  0  0  0  0  0  0  0  0  0  0  0
   11.3733  -15.0870   27.0944 C   0  0  0  0  0  0  0  0  0  0  0  0
   12.1719  -14.7464   25.9249 C   0  0  0  0  0  0  0  0  0  0  0  0
   12.2917  -15.8411   24.8912 C   0  0  2  0  0  0  0  0  0  0  0  0
   11.0370  -15.8559   24.1190 N   0  0  0  0  0  0  0  0  0  0  0  0
   12.4168  -17.1337   25.5917 C   0  0  0  0  0  0  0  0  0  0  0  0
   11.4732  -17.9600   25.5104 O   0  0  0  0  0  0  0  0  0  0  0  0
   11.9992  -15.7314   28.1523 C   0  0  0  0  0  0  0  0  0  0  0  0
   11.2900  -16.0941   29.2981 C   0  0  0  0  0  0  0  0  0  0  0  0
   13.5372  -17.4800   26.3395 O   0  0  0  0  0  0  0  0  0  0  0  0
  2  1  1  1
  3  2  1  0
  4  5  2  0
  4  3  1  0
  6  5  1  0
  7  6  2  0
  8  7  1  0
  8  9  2  0
  9  4  1  0
 10 11  2  0
 10  2  1  0
 12 10  1  0
 13 14  1  1
 13 12  1  0
 14 15  1  0
 15 16  2  0
 15 19  1  0
 16 17  1  0
 17 18  1  0
 19 18  2  0
 20 13  1  0
 21 20  2  0
 23 22  1  0
 23 24  2  0
 25 24  1  0
 26 25  2  0
 27 26  1  0
 28 27  1  1
 28 29  1  0
 29 20  1  0
 30 28  1  0
 30 34  1  0
 31 30  2  0
 32 33  2  0
 32 26  1  0
 33 23  1  0
M  END
$$$$
