FHY.pdb
     RDKit          3D

 34 36  0  0  1  0  0  0  0  0999 V2000
    5.8261  -17.5654   24.2390 N   0  0  0  0  0  0  0  0  0  0  0  0
    6.6397  -16.3767   24.1721 C   0  0  1  0  0  0  0  0  0  0  0  0
    6.7973  -15.8643   25.6074 C   0  0  0  0  0  0  0  0  0  0  0  0
    6.7659  -14.4006   25.6820 C   0  0  0  0  0  0  0  0  0  0  0  0
    7.5437  -13.6467   24.8184 C   0  0  0  0  0  0  0  0  0  0  0  0
    7.4855  -12.2791   24.9212 C   0  0  0  0  0  0  0  0  0  0  0  0
    6.6867  -11.6475   25.8456 C   0  0  0  0  0  0  0  0  0  0  0  0
    5.9227  -12.4177   26.6932 C   0  0  0  0  0  0  0  0  0  0  0  0
    5.9613  -13.7806   26.6128 C   0  0  0  0  0  0  0  0  0  0  0  0
    8.0089  -16.6519   23.6800 C   0  0  0  0  0  0  0  0  0  0  0  0
    8.5801  -17.6946   24.0763 O   0  0  0  0  0  0  0  0  0  0  0  0
    8.7334  -15.8108   22.7797 N   0  0  0  0  0  0  0  0  0  0  0  0
   10.0342  -16.1619   22.2699 C   0  0  1  0  0  0  0  0  0  0  0  0
   10.2063  -15.6141   20.9000 C   0  0  0  0  0  0  0  0  0  0  0  0
    9.1690  -15.9698   19.9249 C   0  0  0  0  0  0  0  0  0  0  0  0
    8.2120  -16.9409   19.8974 C   0  0  0  0  0  0  0  0  0  0  0  0
    7.5047  -16.7662   18.7377 N   0  0  0  0  0  0  0  0  0  0  0  0
    7.9858  -15.7374   18.0626 C   0  0  0  0  0  0  0  0  0  0  0  0
    8.9965  -15.2420   18.7688 N   0  0  0  0  0  0  0  0  0  0  0  0
   11.1486  -15.7194   23.1368 C   0  0  0  0  0  0  0  0  0  0  0  0
   11.6774  -14.5815   23.1134 O   0  0  0  0  0  0  0  0  0  0  0  0
    9.2426  -16.5870   30.2370 O   0  0  0  0  0  0  0  0  0  0  0  0
    9.9993  -16.2194   29.1354 C   0  0  0  0  0  0  0  0  0  0  0  0
   11.2217  -16.8316   28.9525 C   0  0  0  0  0  0  0  0  0  0  0  0
   12.0173  -16.4885   27.8516 C   0  0  0  0  0  0  0  0  0  0  0  0
   11.5628  -15.5389   26.9644 C   0  0  0  0  0  0  0  0  0  0  0  0
   12.3509  -15.1350   25.8081 C   0  0  0  0  0  0  0  0  0  0  0  0
   12.8093  -16.2670   24.9194 C   0  0  2  0  0  0  0  0  0  0  0  0
   11.6659  -16.6529   24.0739 N   0  0  0  0  0  0  0  0  0  0  0  0
   13.1607  -17.4182   25.7726 C   0  0  0  0  0  0  0  0  0  0  0  0
   12.4537  -18.4556   25.7107 O   0  0  0  0  0  0  0  0  0  0  0  0
   10.3302  -14.9330   27.1634 C   0  0  0  0  0  0  0  0  0  0  0  0
    9.5295  -15.2672   28.2564 C   0  0  0  0  0  0  0  0  0  0  0  0
   14.2443  -17.4069   26.6444 O   0  0  0  0  0  0  0  0  0  0  0  0
  2  1  1  1
  3  2  1  0
  4  5  2  0
  4  3  1  0
  6  5  1  0
  7  6  2  0
  8  7  1  0
  8  9  2  0
  9  4  1  0
 10 11  2  0
 10  2  1  0
 12 10  1  0
 13 14  1  6
 13 12  1  0
 14 15  1  0
 15 16  2  0
 15 19  1  0
 16 17  1  0
 17 18  1  0
 19 18  2  0
 20 13  1  0
 21 20  2  0
 23 22  1  0
 23 24  2  0
 25 24  1  0
 26 25  2  0
 27 26  1  0
 28 27  1  1
 28 29  1  0
 29 20  1  0
 30 28  1  0
 30 34  1  0
 31 30  2  0
 32 33  2  0
 32 26  1  0
 33 23  1  0
M  END
$$$$
