FHY.pdb
     RDKit          3D

 34 36  0  0  1  0  0  0  0  0999 V2000
    9.1242  -16.6961   20.8615 N   0  0  0  0  0  0  0  0  0  0  0  0
    8.8919  -15.8364   21.9957 C   0  0  1  0  0  0  0  0  0  0  0  0
    7.4745  -15.2746   21.8450 C   0  0  0  0  0  0  0  0  0  0  0  0
    7.4273  -14.1185   20.9448 C   0  0  0  0  0  0  0  0  0  0  0  0
    6.4974  -14.0777   19.9187 C   0  0  0  0  0  0  0  0  0  0  0  0
    6.4865  -12.9772   19.0982 C   0  0  0  0  0  0  0  0  0  0  0  0
    7.3618  -11.9298   19.2661 C   0  0  0  0  0  0  0  0  0  0  0  0
    8.2770  -11.9928   20.2928 C   0  0  0  0  0  0  0  0  0  0  0  0
    8.3100  -13.0759   21.1242 C   0  0  0  0  0  0  0  0  0  0  0  0
    8.9090  -16.5728   23.2802 C   0  0  0  0  0  0  0  0  0  0  0  0
    7.9179  -16.4596   24.0388 O   0  0  0  0  0  0  0  0  0  0  0  0
    9.9798  -17.4096   23.7231 N   0  0  0  0  0  0  0  0  0  0  0  0
   10.0258  -17.9706   25.0493 C   0  0  1  0  0  0  0  0  0  0  0  0
   10.6881  -19.2997   25.0144 C   0  0  0  0  0  0  0  0  0  0  0  0
   10.0390  -20.3256   24.1901 C   0  0  0  0  0  0  0  0  0  0  0  0
    8.9084  -20.3280   23.4274 C   0  0  0  0  0  0  0  0  0  0  0  0
    8.8187  -21.5701   22.8574 N   0  0  0  0  0  0  0  0  0  0  0  0
    9.8389  -22.3190   23.2369 C   0  0  0  0  0  0  0  0  0  0  0  0
   10.5898  -21.5793   24.0460 N   0  0  0  0  0  0  0  0  0  0  0  0
   10.6944  -17.0967   26.0385 C   0  0  0  0  0  0  0  0  0  0  0  0
   11.6857  -16.3633   25.8049 O   0  0  0  0  0  0  0  0  0  0  0  0
    6.7686  -12.4859   25.0753 O   0  0  0  0  0  0  0  0  0  0  0  0
    7.4813  -13.1961   26.0287 C   0  0  0  0  0  0  0  0  0  0  0  0
    8.6653  -12.6590   26.4893 C   0  0  0  0  0  0  0  0  0  0  0  0
    9.4159  -13.3451   27.4528 C   0  0  0  0  0  0  0  0  0  0  0  0
    8.9561  -14.5530   27.9273 C   0  0  0  0  0  0  0  0  0  0  0  0
    9.6987  -15.3156   28.9214 C   0  0  0  0  0  0  0  0  0  0  0  0
   10.7926  -16.1965   28.3655 C   0  0  2  0  0  0  0  0  0  0  0  0
   10.1769  -17.0812   27.3610 N   0  0  0  0  0  0  0  0  0  0  0  0
   11.3175  -17.0363   29.4592 C   0  0  0  0  0  0  0  0  0  0  0  0
   11.0671  -18.2679   29.4502 O   0  0  0  0  0  0  0  0  0  0  0  0
    7.7625  -15.0789   27.4531 C   0  0  0  0  0  0  0  0  0  0  0  0
    7.0068  -14.4039   26.4935 C   0  0  0  0  0  0  0  0  0  0  0  0
   12.0810  -16.5237   30.5027 O   0  0  0  0  0  0  0  0  0  0  0  0
  2  1  1  6
  3  2  1  0
  4  5  2  0
  4  3  1  0
  6  5  1  0
  7  6  2  0
  8  7  1  0
  8  9  2  0
  9  4  1  0
 10 11  2  0
 10  2  1  0
 12 10  1  0
 13 14  1  6
 13 12  1  0
 14 15  1  0
 15 16  2  0
 15 19  1  0
 16 17  1  0
 17 18  1  0
 19 18  2  0
 20 13  1  0
 21 20  2  0
 23 22  1  0
 23 24  2  0
 25 24  1  0
 26 25  2  0
 27 26  1  0
 28 27  1  1
 28 29  1  0
 29 20  1  0
 30 28  1  0
 30 34  1  0
 31 30  2  0
 32 33  2  0
 32 26  1  0
 33 23  1  0
M  END
$$$$
