FHY.pdb
     RDKit          3D

 34 36  0  0  1  0  0  0  0  0999 V2000
    6.0062  -18.2150   19.3438 N   0  0  0  0  0  0  0  0  0  0  0  0
    6.7696  -17.0300   19.6483 C   0  0  1  0  0  0  0  0  0  0  0  0
    5.8962  -16.1600   20.5579 C   0  0  0  0  0  0  0  0  0  0  0  0
    6.5865  -14.9419   20.9923 C   0  0  0  0  0  0  0  0  0  0  0  0
    6.9430  -13.9791   20.0621 C   0  0  0  0  0  0  0  0  0  0  0  0
    7.5880  -12.8533   20.5102 C   0  0  0  0  0  0  0  0  0  0  0  0
    7.8850  -12.6593   21.8390 C   0  0  0  0  0  0  0  0  0  0  0  0
    7.5208  -13.6300   22.7450 C   0  0  0  0  0  0  0  0  0  0  0  0
    6.8781  -14.7601   22.3266 C   0  0  0  0  0  0  0  0  0  0  0  0
    7.9985  -17.3279   20.4187 C   0  0  0  0  0  0  0  0  0  0  0  0
    7.9077  -18.1050   21.3977 O   0  0  0  0  0  0  0  0  0  0  0  0
    9.2908  -16.7913   20.1271 N   0  0  0  0  0  0  0  0  0  0  0  0
   10.4689  -17.1648   20.8673 C   0  0  1  0  0  0  0  0  0  0  0  0
   11.6677  -17.0643   19.9959 C   0  0  0  0  0  0  0  0  0  0  0  0
   11.8520  -18.1450   19.0205 C   0  0  0  0  0  0  0  0  0  0  0  0
   11.0396  -19.1466   18.5773 C   0  0  0  0  0  0  0  0  0  0  0  0
   11.7467  -19.8396   17.6310 N   0  0  0  0  0  0  0  0  0  0  0  0
   12.9462  -19.3068   17.4793 C   0  0  0  0  0  0  0  0  0  0  0  0
   13.0272  -18.2769   18.3150 N   0  0  0  0  0  0  0  0  0  0  0  0
   10.6697  -16.3710   22.0997 C   0  0  0  0  0  0  0  0  0  0  0  0
   10.5748  -15.1222   22.1811 O   0  0  0  0  0  0  0  0  0  0  0  0
    9.9197  -14.0285   30.3726 O   0  0  0  0  0  0  0  0  0  0  0  0
    9.9057  -14.5720   29.0976 C   0  0  0  0  0  0  0  0  0  0  0  0
    9.6840  -13.7249   28.0319 C   0  0  0  0  0  0  0  0  0  0  0  0
    9.6621  -14.2343   26.7270 C   0  0  0  0  0  0  0  0  0  0  0  0
    9.8634  -15.5817   26.5286 C   0  0  0  0  0  0  0  0  0  0  0  0
    9.8415  -16.1690   25.1960 C   0  0  0  0  0  0  0  0  0  0  0  0
   11.1940  -16.3185   24.5405 C   0  0  2  0  0  0  0  0  0  0  0  0
   10.9958  -17.0730   23.2905 N   0  0  0  0  0  0  0  0  0  0  0  0
   12.0583  -17.1185   25.4293 C   0  0  0  0  0  0  0  0  0  0  0  0
   11.8976  -18.3644   25.4689 O   0  0  0  0  0  0  0  0  0  0  0  0
   10.0853  -16.4199   27.6123 C   0  0  0  0  0  0  0  0  0  0  0  0
   10.1094  -15.9232   28.9162 C   0  0  0  0  0  0  0  0  0  0  0  0
   13.0475  -16.5530   26.2270 O   0  0  0  0  0  0  0  0  0  0  0  0
  2  1  1  1
  3  2  1  0
  4  5  2  0
  4  3  1  0
  6  5  1  0
  7  6  2  0
  8  7  1  0
  8  9  2  0
  9  4  1  0
 10 11  2  0
 10  2  1  0
 12 10  1  0
 13 14  1  6
 13 12  1  0
 14 15  1  0
 15 16  2  0
 15 19  1  0
 16 17  1  0
 17 18  1  0
 19 18  2  0
 20 13  1  0
 21 20  2  0
 23 22  1  0
 23 24  2  0
 25 24  1  0
 26 25  2  0
 27 26  1  0
 28 27  1  1
 28 29  1  0
 29 20  1  0
 30 28  1  0
 30 34  1  0
 31 30  2  0
 32 33  2  0
 32 26  1  0
 33 23  1  0
M  END
$$$$
