FHY.pdb
     RDKit          3D

 34 36  0  0  1  0  0  0  0  0999 V2000
    6.1007  -18.4173   25.0149 N   0  0  0  0  0  0  0  0  0  0  0  0
    6.2548  -17.0083   24.7494 C   0  0  1  0  0  0  0  0  0  0  0  0
    6.9032  -16.3900   25.9922 C   0  0  0  0  0  0  0  0  0  0  0  0
    6.8599  -14.9249   25.9715 C   0  0  0  0  0  0  0  0  0  0  0  0
    5.8613  -14.2521   26.6567 C   0  0  0  0  0  0  0  0  0  0  0  0
    5.8566  -12.8801   26.6118 C   0  0  0  0  0  0  0  0  0  0  0  0
    6.8035  -12.1669   25.9146 C   0  0  0  0  0  0  0  0  0  0  0  0
    7.7862  -12.8573   25.2414 C   0  0  0  0  0  0  0  0  0  0  0  0
    7.8148  -14.2225   25.2691 C   0  0  0  0  0  0  0  0  0  0  0  0
    7.1797  -16.7395   23.6248 C   0  0  0  0  0  0  0  0  0  0  0  0
    8.1101  -17.5533   23.4184 O   0  0  0  0  0  0  0  0  0  0  0  0
    7.0901  -15.6125   22.7503 N   0  0  0  0  0  0  0  0  0  0  0  0
    7.9412  -15.4573   21.5984 C   0  0  1  0  0  0  0  0  0  0  0  0
    7.4543  -14.3345   20.7564 C   0  0  0  0  0  0  0  0  0  0  0  0
    8.3234  -13.9350   19.6436 C   0  0  0  0  0  0  0  0  0  0  0  0
    9.5775  -14.3105   19.2616 C   0  0  0  0  0  0  0  0  0  0  0  0
    9.8656  -13.6181   18.1155 N   0  0  0  0  0  0  0  0  0  0  0  0
    8.8480  -12.8428   17.7850 C   0  0  0  0  0  0  0  0  0  0  0  0
    7.9030  -13.0227   18.7017 N   0  0  0  0  0  0  0  0  0  0  0  0
    9.3667  -15.2548   21.9389 C   0  0  0  0  0  0  0  0  0  0  0  0
   10.2780  -14.9910   21.1172 O   0  0  0  0  0  0  0  0  0  0  0  0
    9.5353  -16.7283   29.6463 O   0  0  0  0  0  0  0  0  0  0  0  0
    9.9559  -16.1305   28.4685 C   0  0  0  0  0  0  0  0  0  0  0  0
    9.3010  -14.9921   28.0470 C   0  0  0  0  0  0  0  0  0  0  0  0
    9.6951  -14.3573   26.8620 C   0  0  0  0  0  0  0  0  0  0  0  0
   10.7369  -14.8843   26.1323 C   0  0  0  0  0  0  0  0  0  0  0  0
   11.1834  -14.2735   24.8878 C   0  0  0  0  0  0  0  0  0  0  0  0
   11.1532  -15.1827   23.6820 C   0  0  2  0  0  0  0  0  0  0  0  0
    9.7408  -15.3657   23.3046 N   0  0  0  0  0  0  0  0  0  0  0  0
   11.6993  -16.4963   24.0735 C   0  0  0  0  0  0  0  0  0  0  0  0
   10.9191  -17.4790   24.1456 O   0  0  0  0  0  0  0  0  0  0  0  0
   11.3850  -16.0305   26.5710 C   0  0  0  0  0  0  0  0  0  0  0  0
   11.0008  -16.6708   27.7499 C   0  0  0  0  0  0  0  0  0  0  0  0
   13.0443  -16.6962   24.3657 O   0  0  0  0  0  0  0  0  0  0  0  0
  2  1  1  1
  3  2  1  0
  4  5  2  0
  4  3  1  0
  6  5  1  0
  7  6  2  0
  8  7  1  0
  8  9  2  0
  9  4  1  0
 10 11  2  0
 10  2  1  0
 12 10  1  0
 13 14  1  1
 13 12  1  0
 14 15  1  0
 15 16  2  0
 15 19  1  0
 16 17  1  0
 17 18  1  0
 19 18  2  0
 20 13  1  0
 21 20  2  0
 23 22  1  0
 23 24  2  0
 25 24  1  0
 26 25  2  0
 27 26  1  0
 28 27  1  1
 28 29  1  0
 29 20  1  0
 30 28  1  0
 30 34  1  0
 31 30  2  0
 32 33  2  0
 32 26  1  0
 33 23  1  0
M  END
$$$$
