FHY.pdb
     RDKit          3D

 34 36  0  0  1  0  0  0  0  0999 V2000
    6.3285  -17.1189   24.7070 N   0  0  0  0  0  0  0  0  0  0  0  0
    6.3561  -16.4719   23.4185 C   0  0  1  0  0  0  0  0  0  0  0  0
    6.0419  -14.9915   23.6575 C   0  0  0  0  0  0  0  0  0  0  0  0
    6.7871  -14.4413   24.7937 C   0  0  0  0  0  0  0  0  0  0  0  0
    6.4006  -14.7470   26.0884 C   0  0  0  0  0  0  0  0  0  0  0  0
    7.1251  -14.2113   27.1240 C   0  0  0  0  0  0  0  0  0  0  0  0
    8.2085  -13.3910   26.9125 C   0  0  0  0  0  0  0  0  0  0  0  0
    8.5738  -13.1013   25.6171 C   0  0  0  0  0  0  0  0  0  0  0  0
    7.8707  -13.6208   24.5677 C   0  0  0  0  0  0  0  0  0  0  0  0
    7.6964  -16.5128   22.7904 C   0  0  0  0  0  0  0  0  0  0  0  0
    8.3677  -17.5653   22.9000 O   0  0  0  0  0  0  0  0  0  0  0  0
    8.2863  -15.4332   22.0629 N   0  0  0  0  0  0  0  0  0  0  0  0
    9.5999  -15.5207   21.4778 C   0  0  1  0  0  0  0  0  0  0  0  0
    9.8471  -14.3415   20.6091 C   0  0  0  0  0  0  0  0  0  0  0  0
    8.9218  -14.1595   19.4849 C   0  0  0  0  0  0  0  0  0  0  0  0
    8.0756  -13.1505   19.1306 C   0  0  0  0  0  0  0  0  0  0  0  0
    7.4822  -13.5266   17.9549 N   0  0  0  0  0  0  0  0  0  0  0  0
    7.9277  -14.7126   17.5801 C   0  0  0  0  0  0  0  0  0  0  0  0
    8.8025  -15.1116   18.4973 N   0  0  0  0  0  0  0  0  0  0  0  0
   10.6845  -15.6519   22.4756 C   0  0  0  0  0  0  0  0  0  0  0  0
   11.6678  -14.8794   22.5833 O   0  0  0  0  0  0  0  0  0  0  0  0
   11.3941  -14.7203   30.8483 O   0  0  0  0  0  0  0  0  0  0  0  0
   11.1342  -14.9162   29.5009 C   0  0  0  0  0  0  0  0  0  0  0  0
   10.3536  -13.9858   28.8471 C   0  0  0  0  0  0  0  0  0  0  0  0
   10.0673  -14.1469   27.4853 C   0  0  0  0  0  0  0  0  0  0  0  0
   10.5731  -15.2394   26.8174 C   0  0  0  0  0  0  0  0  0  0  0  0
   10.3003  -15.4642   25.4044 C   0  0  0  0  0  0  0  0  0  0  0  0
   11.1185  -16.5589   24.7613 C   0  0  2  0  0  0  0  0  0  0  0  0
   10.6128  -16.7372   23.3889 N   0  0  0  0  0  0  0  0  0  0  0  0
   10.8876  -17.8127   25.5039 C   0  0  0  0  0  0  0  0  0  0  0  0
   11.4021  -17.9451   26.6430 O   0  0  0  0  0  0  0  0  0  0  0  0
   11.3570  -16.1660   27.4906 C   0  0  0  0  0  0  0  0  0  0  0  0
   11.6486  -16.0152   28.8469 C   0  0  0  0  0  0  0  0  0  0  0  0
   10.1218  -18.8578   24.9981 O   0  0  0  0  0  0  0  0  0  0  0  0
  2  1  1  1
  3  2  1  0
  4  5  2  0
  4  3  1  0
  6  5  1  0
  7  6  2  0
  8  7  1  0
  8  9  2  0
  9  4  1  0
 10 11  2  0
 10  2  1  0
 12 10  1  0
 13 14  1  1
 13 12  1  0
 14 15  1  0
 15 16  2  0
 15 19  1  0
 16 17  1  0
 17 18  1  0
 19 18  2  0
 20 13  1  0
 21 20  2  0
 23 22  1  0
 23 24  2  0
 25 24  1  0
 26 25  2  0
 27 26  1  0
 28 27  1  1
 28 29  1  0
 29 20  1  0
 30 28  1  0
 30 34  1  0
 31 30  2  0
 32 33  2  0
 32 26  1  0
 33 23  1  0
M  END
$$$$
