FHY.pdb
     RDKit          3D

 34 36  0  0  1  0  0  0  0  0999 V2000
    5.7228  -18.0859   23.1458 N   0  0  0  0  0  0  0  0  0  0  0  0
    6.3001  -16.7810   23.3549 C   0  0  1  0  0  0  0  0  0  0  0  0
    6.3502  -16.5546   24.8694 C   0  0  0  0  0  0  0  0  0  0  0  0
    6.6806  -15.1686   25.2138 C   0  0  0  0  0  0  0  0  0  0  0  0
    6.5227  -14.1648   24.2722 C   0  0  0  0  0  0  0  0  0  0  0  0
    6.8435  -12.8803   24.6350 C   0  0  0  0  0  0  0  0  0  0  0  0
    7.3106  -12.5689   25.8905 C   0  0  0  0  0  0  0  0  0  0  0  0
    7.4593  -13.5832   26.8095 C   0  0  0  0  0  0  0  0  0  0  0  0
    7.1476  -14.8703   26.4753 C   0  0  0  0  0  0  0  0  0  0  0  0
    7.6995  -16.6955   22.8787 C   0  0  0  0  0  0  0  0  0  0  0  0
    8.4311  -17.7042   23.0122 O   0  0  0  0  0  0  0  0  0  0  0  0
    8.2829  -15.5396   22.2735 N   0  0  0  0  0  0  0  0  0  0  0  0
    9.5333  -15.5876   21.5596 C   0  0  1  0  0  0  0  0  0  0  0  0
    9.6359  -14.4264   20.6388 C   0  0  0  0  0  0  0  0  0  0  0  0
    8.7000  -14.4111   19.5087 C   0  0  0  0  0  0  0  0  0  0  0  0
    7.7364  -15.2790   19.0871 C   0  0  0  0  0  0  0  0  0  0  0  0
    7.1559  -14.7182   17.9806 N   0  0  0  0  0  0  0  0  0  0  0  0
    7.7201  -13.5540   17.7122 C   0  0  0  0  0  0  0  0  0  0  0  0
    8.6595  -13.3517   18.6300 N   0  0  0  0  0  0  0  0  0  0  0  0
   10.7181  -15.6395   22.4443 C   0  0  0  0  0  0  0  0  0  0  0  0
   11.9093  -15.7173   22.0568 O   0  0  0  0  0  0  0  0  0  0  0  0
   10.4277  -16.5546   30.9619 O   0  0  0  0  0  0  0  0  0  0  0  0
   10.7171  -16.1023   29.6839 C   0  0  0  0  0  0  0  0  0  0  0  0
   10.1407  -14.9209   29.2661 C   0  0  0  0  0  0  0  0  0  0  0  0
   10.4074  -14.4291   27.9818 C   0  0  0  0  0  0  0  0  0  0  0  0
   11.2461  -15.1384   27.1518 C   0  0  0  0  0  0  0  0  0  0  0  0
   11.5515  -14.6812   25.8031 C   0  0  0  0  0  0  0  0  0  0  0  0
   11.6377  -15.7722   24.7620 C   0  0  2  0  0  0  0  0  0  0  0  0
   10.4965  -15.5975   23.8465 N   0  0  0  0  0  0  0  0  0  0  0  0
   11.4908  -17.0756   25.4377 C   0  0  0  0  0  0  0  0  0  0  0  0
   10.3766  -17.6559   25.3978 O   0  0  0  0  0  0  0  0  0  0  0  0
   11.8178  -16.3253   27.5883 C   0  0  0  0  0  0  0  0  0  0  0  0
   11.5592  -16.8243   28.8657 C   0  0  0  0  0  0  0  0  0  0  0  0
   12.5348  -17.6934   26.1180 O   0  0  0  0  0  0  0  0  0  0  0  0
  2  1  1  1
  3  2  1  0
  4  5  2  0
  4  3  1  0
  6  5  1  0
  7  6  2  0
  8  7  1  0
  8  9  2  0
  9  4  1  0
 10 11  2  0
 10  2  1  0
 12 10  1  0
 13 14  1  1
 13 12  1  0
 14 15  1  0
 15 16  2  0
 15 19  1  0
 16 17  1  0
 17 18  1  0
 19 18  2  0
 20 13  1  0
 21 20  2  0
 23 22  1  0
 23 24  2  0
 25 24  1  0
 26 25  2  0
 27 26  1  0
 28 27  1  1
 28 29  1  0
 29 20  1  0
 30 28  1  0
 30 34  1  0
 31 30  2  0
 32 33  2  0
 32 26  1  0
 33 23  1  0
M  END
$$$$
