FHY.pdb
     RDKit          3D

 34 36  0  0  1  0  0  0  0  0999 V2000
    6.5375  -19.1426   26.5106 N   0  0  0  0  0  0  0  0  0  0  0  0
    6.6743  -17.9305   25.7415 C   0  0  1  0  0  0  0  0  0  0  0  0
    7.6679  -17.0377   26.4918 C   0  0  0  0  0  0  0  0  0  0  0  0
    7.6927  -15.6694   25.9663 C   0  0  0  0  0  0  0  0  0  0  0  0
    8.8699  -15.1438   25.4591 C   0  0  0  0  0  0  0  0  0  0  0  0
    8.8504  -13.8587   24.9769 C   0  0  0  0  0  0  0  0  0  0  0  0
    7.7094  -13.0910   24.9842 C   0  0  0  0  0  0  0  0  0  0  0  0
    6.5515  -13.6347   25.4933 C   0  0  0  0  0  0  0  0  0  0  0  0
    6.5424  -14.9110   25.9796 C   0  0  0  0  0  0  0  0  0  0  0  0
    7.2630  -18.1693   24.4040 C   0  0  0  0  0  0  0  0  0  0  0  0
    8.1982  -18.9982   24.3102 O   0  0  0  0  0  0  0  0  0  0  0  0
    6.8411  -17.5200   23.2026 N   0  0  0  0  0  0  0  0  0  0  0  0
    7.4026  -17.8359   21.9141 C   0  0  1  0  0  0  0  0  0  0  0  0
    6.4973  -17.3604   20.8366 C   0  0  0  0  0  0  0  0  0  0  0  0
    6.9948  -17.5011   19.4633 C   0  0  0  0  0  0  0  0  0  0  0  0
    7.4762  -16.6077   18.5523 C   0  0  0  0  0  0  0  0  0  0  0  0
    7.8219  -17.3262   17.4387 N   0  0  0  0  0  0  0  0  0  0  0  0
    7.5742  -18.6097   17.6309 C   0  0  0  0  0  0  0  0  0  0  0  0
    7.0719  -18.7339   18.8549 N   0  0  0  0  0  0  0  0  0  0  0  0
    8.7627  -17.2900   21.7113 C   0  0  0  0  0  0  0  0  0  0  0  0
    9.5613  -17.6486   20.8119 O   0  0  0  0  0  0  0  0  0  0  0  0
    7.0157  -12.6680   17.8700 O   0  0  0  0  0  0  0  0  0  0  0  0
    7.8211  -13.0331   18.9374 C   0  0  0  0  0  0  0  0  0  0  0  0
    7.2363  -13.1585   20.1804 C   0  0  0  0  0  0  0  0  0  0  0  0
    8.0152  -13.5257   21.2853 C   0  0  0  0  0  0  0  0  0  0  0  0
    9.3613  -13.7567   21.1112 C   0  0  0  0  0  0  0  0  0  0  0  0
   10.2222  -14.1310   22.2247 C   0  0  0  0  0  0  0  0  0  0  0  0
   10.4965  -15.6109   22.3518 C   0  0  2  0  0  0  0  0  0  0  0  0
    9.2065  -16.2772   22.6028 N   0  0  0  0  0  0  0  0  0  0  0  0
   11.3626  -15.8265   23.5266 C   0  0  0  0  0  0  0  0  0  0  0  0
   12.5337  -15.3703   23.5072 O   0  0  0  0  0  0  0  0  0  0  0  0
    9.9335  -13.6262   19.8535 C   0  0  0  0  0  0  0  0  0  0  0  0
    9.1670  -13.2612   18.7459 C   0  0  0  0  0  0  0  0  0  0  0  0
   10.9387  -16.5135   24.6593 O   0  0  0  0  0  0  0  0  0  0  0  0
  2  1  1  1
  3  2  1  0
  4  5  2  0
  4  3  1  0
  6  5  1  0
  7  6  2  0
  8  7  1  0
  8  9  2  0
  9  4  1  0
 10 11  2  0
 10  2  1  0
 12 10  1  0
 13 14  1  6
 13 12  1  0
 14 15  1  0
 15 16  2  0
 15 19  1  0
 16 17  1  0
 17 18  1  0
 19 18  2  0
 20 13  1  0
 21 20  2  0
 23 22  1  0
 23 24  2  0
 25 24  1  0
 26 25  2  0
 27 26  1  0
 28 27  1  1
 28 29  1  0
 29 20  1  0
 30 28  1  0
 30 34  1  0
 31 30  2  0
 32 33  2  0
 32 26  1  0
 33 23  1  0
M  END
$$$$
