FHY.pdb
     RDKit          3D

 34 36  0  0  1  0  0  0  0  0999 V2000
    5.2961  -18.9765   23.3411 N   0  0  0  0  0  0  0  0  0  0  0  0
    5.9895  -17.7216   23.1863 C   0  0  1  0  0  0  0  0  0  0  0  0
    5.9675  -17.0299   24.5532 C   0  0  0  0  0  0  0  0  0  0  0  0
    6.4757  -15.6563   24.4896 C   0  0  0  0  0  0  0  0  0  0  0  0
    6.8067  -15.0966   23.2663 C   0  0  0  0  0  0  0  0  0  0  0  0
    7.2791  -13.8078   23.2506 C   0  0  0  0  0  0  0  0  0  0  0  0
    7.4300  -13.0690   24.4007 C   0  0  0  0  0  0  0  0  0  0  0  0
    7.0946  -13.6464   25.6046 C   0  0  0  0  0  0  0  0  0  0  0  0
    6.6222  -14.9271   25.6495 C   0  0  0  0  0  0  0  0  0  0  0  0
    7.4175  -17.9004   22.8377 C   0  0  0  0  0  0  0  0  0  0  0  0
    8.0859  -18.7321   23.4951 O   0  0  0  0  0  0  0  0  0  0  0  0
    8.0958  -17.1900   21.7994 N   0  0  0  0  0  0  0  0  0  0  0  0
    9.4854  -17.4112   21.4906 C   0  0  1  0  0  0  0  0  0  0  0  0
    9.7535  -17.0499   20.0749 C   0  0  0  0  0  0  0  0  0  0  0  0
   11.1450  -17.1758   19.6265 C   0  0  0  0  0  0  0  0  0  0  0  0
   12.2820  -17.6194   20.2351 C   0  0  0  0  0  0  0  0  0  0  0  0
   13.2859  -17.5341   19.3074 N   0  0  0  0  0  0  0  0  0  0  0  0
   12.8129  -17.0617   18.1678 C   0  0  0  0  0  0  0  0  0  0  0  0
   11.5147  -16.8388   18.3436 N   0  0  0  0  0  0  0  0  0  0  0  0
   10.4133  -16.6834   22.3842 C   0  0  0  0  0  0  0  0  0  0  0  0
   11.6658  -16.7425   22.3321 O   0  0  0  0  0  0  0  0  0  0  0  0
   11.4862  -15.2674   30.9265 O   0  0  0  0  0  0  0  0  0  0  0  0
   11.0306  -15.1901   29.6197 C   0  0  0  0  0  0  0  0  0  0  0  0
   11.3701  -16.2065   28.7513 C   0  0  0  0  0  0  0  0  0  0  0  0
   10.9297  -16.1663   27.4220 C   0  0  0  0  0  0  0  0  0  0  0  0
   10.1601  -15.1050   27.0013 C   0  0  0  0  0  0  0  0  0  0  0  0
    9.6825  -15.0047   25.6290 C   0  0  0  0  0  0  0  0  0  0  0  0
   10.6411  -15.5151   24.5793 C   0  0  2  0  0  0  0  0  0  0  0  0
    9.8471  -15.8479   23.3835 N   0  0  0  0  0  0  0  0  0  0  0  0
   11.2639  -16.7558   25.0787 C   0  0  0  0  0  0  0  0  0  0  0  0
   12.4720  -16.7300   25.4247 O   0  0  0  0  0  0  0  0  0  0  0  0
    9.8276  -14.0908   27.8884 C   0  0  0  0  0  0  0  0  0  0  0  0
   10.2607  -14.1208   29.2147 C   0  0  0  0  0  0  0  0  0  0  0  0
   10.5705  -17.9568   25.1854 O   0  0  0  0  0  0  0  0  0  0  0  0
  2  1  1  1
  3  2  1  0
  4  5  2  0
  4  3  1  0
  6  5  1  0
  7  6  2  0
  8  7  1  0
  8  9  2  0
  9  4  1  0
 10 11  2  0
 10  2  1  0
 12 10  1  0
 13 14  1  6
 13 12  1  0
 14 15  1  0
 15 16  2  0
 15 19  1  0
 16 17  1  0
 17 18  1  0
 19 18  2  0
 20 13  1  0
 21 20  2  0
 23 22  1  0
 23 24  2  0
 25 24  1  0
 26 25  2  0
 27 26  1  0
 28 27  1  1
 28 29  1  0
 29 20  1  0
 30 28  1  0
 30 34  1  0
 31 30  2  0
 32 33  2  0
 32 26  1  0
 33 23  1  0
M  END
$$$$
