FHY.pdb
     RDKit          3D

 34 36  0  0  1  0  0  0  0  0999 V2000
    7.3051  -16.9279   17.9870 N   0  0  0  0  0  0  0  0  0  0  0  0
    7.9042  -16.0258   18.9393 C   0  0  1  0  0  0  0  0  0  0  0  0
    6.8378  -14.9861   19.2985 C   0  0  0  0  0  0  0  0  0  0  0  0
    7.3016  -14.0445   20.3219 C   0  0  0  0  0  0  0  0  0  0  0  0
    8.0491  -12.9370   19.9558 C   0  0  0  0  0  0  0  0  0  0  0  0
    8.4639  -12.0801   20.9447 C   0  0  0  0  0  0  0  0  0  0  0  0
    8.1609  -12.2894   22.2698 C   0  0  0  0  0  0  0  0  0  0  0  0
    7.4168  -13.3968   22.6095 C   0  0  0  0  0  0  0  0  0  0  0  0
    6.9910  -14.2660   21.6458 C   0  0  0  0  0  0  0  0  0  0  0  0
    8.2686  -16.6977   20.2074 C   0  0  0  0  0  0  0  0  0  0  0  0
    7.4248  -17.4590   20.7358 O   0  0  0  0  0  0  0  0  0  0  0  0
    9.5204  -16.5419   20.8793 N   0  0  0  0  0  0  0  0  0  0  0  0
    9.9183  -17.3828   21.9793 C   0  0  1  0  0  0  0  0  0  0  0  0
   11.1368  -18.1505   21.6152 C   0  0  0  0  0  0  0  0  0  0  0  0
   11.6071  -19.1268   22.6045 C   0  0  0  0  0  0  0  0  0  0  0  0
   11.9892  -19.0189   23.9092 C   0  0  0  0  0  0  0  0  0  0  0  0
   12.3013  -20.2825   24.3355 N   0  0  0  0  0  0  0  0  0  0  0  0
   12.1264  -21.1495   23.3540 C   0  0  0  0  0  0  0  0  0  0  0  0
   11.7050  -20.4652   22.2957 N   0  0  0  0  0  0  0  0  0  0  0  0
   10.1438  -16.6412   23.2396 C   0  0  0  0  0  0  0  0  0  0  0  0
   11.0310  -15.7722   23.4206 O   0  0  0  0  0  0  0  0  0  0  0  0
    5.9078  -11.0171   26.0417 O   0  0  0  0  0  0  0  0  0  0  0  0
    6.4611  -12.2862   26.1108 C   0  0  0  0  0  0  0  0  0  0  0  0
    7.8122  -12.3936   26.3664 C   0  0  0  0  0  0  0  0  0  0  0  0
    8.4104  -13.6580   26.4443 C   0  0  0  0  0  0  0  0  0  0  0  0
    7.6341  -14.7805   26.2627 C   0  0  0  0  0  0  0  0  0  0  0  0
    8.2028  -16.1200   26.3223 C   0  0  0  0  0  0  0  0  0  0  0  0
    9.5384  -16.2790   25.6349 C   0  0  2  0  0  0  0  0  0  0  0  0
    9.2901  -16.9309   24.3371 N   0  0  0  0  0  0  0  0  0  0  0  0
   10.3788  -17.1781   26.4487 C   0  0  0  0  0  0  0  0  0  0  0  0
   10.8311  -16.7578   27.5434 O   0  0  0  0  0  0  0  0  0  0  0  0
    6.2760  -14.6543   26.0066 C   0  0  0  0  0  0  0  0  0  0  0  0
    5.6697  -13.3998   25.9270 C   0  0  0  0  0  0  0  0  0  0  0  0
   10.6925  -18.4754   26.0574 O   0  0  0  0  0  0  0  0  0  0  0  0
  2  1  1  6
  3  2  1  0
  4  5  2  0
  4  3  1  0
  6  5  1  0
  7  6  2  0
  8  7  1  0
  8  9  2  0
  9  4  1  0
 10 11  2  0
 10  2  1  0
 12 10  1  0
 13 14  1  6
 13 12  1  0
 14 15  1  0
 15 16  2  0
 15 19  1  0
 16 17  1  0
 17 18  1  0
 19 18  2  0
 20 13  1  0
 21 20  2  0
 23 22  1  0
 23 24  2  0
 25 24  1  0
 26 25  2  0
 27 26  1  0
 28 27  1  1
 28 29  1  0
 29 20  1  0
 30 28  1  0
 30 34  1  0
 31 30  2  0
 32 33  2  0
 32 26  1  0
 33 23  1  0
M  END
$$$$
