FHY.pdb
     RDKit          3D

 34 36  0  0  1  0  0  0  0  0999 V2000
    5.6009  -17.4735   20.9117 N   0  0  0  0  0  0  0  0  0  0  0  0
    6.7338  -16.6559   21.2690 C   0  0  1  0  0  0  0  0  0  0  0  0
    6.1759  -15.3469   21.8368 C   0  0  0  0  0  0  0  0  0  0  0  0
    7.0054  -14.1902   21.4860 C   0  0  0  0  0  0  0  0  0  0  0  0
    7.8868  -13.6630   22.4158 C   0  0  0  0  0  0  0  0  0  0  0  0
    8.6452  -12.5798   22.0473 C   0  0  0  0  0  0  0  0  0  0  0  0
    8.5540  -12.0129   20.7976 C   0  0  0  0  0  0  0  0  0  0  0  0
    7.6711  -12.5541   19.8904 C   0  0  0  0  0  0  0  0  0  0  0  0
    6.9042  -13.6319   20.2304 C   0  0  0  0  0  0  0  0  0  0  0  0
    7.5516  -17.2574   22.3469 C   0  0  0  0  0  0  0  0  0  0  0  0
    6.9575  -17.8490   23.2784 O   0  0  0  0  0  0  0  0  0  0  0  0
    8.9791  -17.2136   22.4048 N   0  0  0  0  0  0  0  0  0  0  0  0
    9.7309  -17.8507   23.4557 C   0  0  1  0  0  0  0  0  0  0  0  0
   10.9431  -18.4972   22.8909 C   0  0  0  0  0  0  0  0  0  0  0  0
   11.7579  -19.2776   23.8292 C   0  0  0  0  0  0  0  0  0  0  0  0
   11.6132  -19.5919   25.1483 C   0  0  0  0  0  0  0  0  0  0  0  0
   12.6802  -20.3813   25.4860 N   0  0  0  0  0  0  0  0  0  0  0  0
   13.4629  -20.5608   24.4368 C   0  0  0  0  0  0  0  0  0  0  0  0
   12.9180  -19.8978   23.4222 N   0  0  0  0  0  0  0  0  0  0  0  0
   10.1099  -16.9326   24.5523 C   0  0  0  0  0  0  0  0  0  0  0  0
   10.7997  -15.8923   24.4210 O   0  0  0  0  0  0  0  0  0  0  0  0
    6.3000  -11.6397   25.2036 O   0  0  0  0  0  0  0  0  0  0  0  0
    6.9302  -12.7086   25.8215 C   0  0  0  0  0  0  0  0  0  0  0  0
    8.0618  -12.4535   26.5677 C   0  0  0  0  0  0  0  0  0  0  0  0
    8.7285  -13.5059   27.2084 C   0  0  0  0  0  0  0  0  0  0  0  0
    8.2397  -14.7867   27.0814 C   0  0  0  0  0  0  0  0  0  0  0  0
    8.8965  -15.9211   27.7162 C   0  0  0  0  0  0  0  0  0  0  0  0
   10.1230  -16.4336   26.9989 C   0  0  2  0  0  0  0  0  0  0  0  0
    9.6593  -17.2477   25.8618 N   0  0  0  0  0  0  0  0  0  0  0  0
   10.8702  -17.3116   27.9196 C   0  0  0  0  0  0  0  0  0  0  0  0
   11.3693  -16.8131   28.9599 O   0  0  0  0  0  0  0  0  0  0  0  0
    7.0996  -15.0257   26.3268 C   0  0  0  0  0  0  0  0  0  0  0  0
    6.4276  -13.9848   25.6846 C   0  0  0  0  0  0  0  0  0  0  0  0
   11.0461  -18.6716   27.6873 O   0  0  0  0  0  0  0  0  0  0  0  0
  2  1  1  1
  3  2  1  0
  4  5  2  0
  4  3  1  0
  6  5  1  0
  7  6  2  0
  8  7  1  0
  8  9  2  0
  9  4  1  0
 10 11  2  0
 10  2  1  0
 12 10  1  0
 13 14  1  6
 13 12  1  0
 14 15  1  0
 15 16  2  0
 15 19  1  0
 16 17  1  0
 17 18  1  0
 19 18  2  0
 20 13  1  0
 21 20  2  0
 23 22  1  0
 23 24  2  0
 25 24  1  0
 26 25  2  0
 27 26  1  0
 28 27  1  1
 28 29  1  0
 29 20  1  0
 30 28  1  0
 30 34  1  0
 31 30  2  0
 32 33  2  0
 32 26  1  0
 33 23  1  0
M  END
$$$$
