FHY.pdb
     RDKit          3D

 34 36  0  0  1  0  0  0  0  0999 V2000
    5.7534  -17.4321   23.6585 N   0  0  0  0  0  0  0  0  0  0  0  0
    6.5075  -16.2048   23.7259 C   0  0  1  0  0  0  0  0  0  0  0  0
    6.8387  -15.9669   25.2027 C   0  0  0  0  0  0  0  0  0  0  0  0
    6.8766  -14.5412   25.5415 C   0  0  0  0  0  0  0  0  0  0  0  0
    5.9420  -14.0126   26.4171 C   0  0  0  0  0  0  0  0  0  0  0  0
    6.0124  -12.6729   26.7080 C   0  0  0  0  0  0  0  0  0  0  0  0
    6.9724  -11.8541   26.1608 C   0  0  0  0  0  0  0  0  0  0  0  0
    7.8904  -12.4019   25.2933 C   0  0  0  0  0  0  0  0  0  0  0  0
    7.8437  -13.7319   24.9863 C   0  0  0  0  0  0  0  0  0  0  0  0
    7.8067  -16.2963   23.0215 C   0  0  0  0  0  0  0  0  0  0  0  0
    8.3207  -17.4300   22.8762 O   0  0  0  0  0  0  0  0  0  0  0  0
    8.5240  -15.1798   22.4908 N   0  0  0  0  0  0  0  0  0  0  0  0
    9.7860  -15.3231   21.8109 C   0  0  1  0  0  0  0  0  0  0  0  0
    9.9139  -14.2850   20.7562 C   0  0  0  0  0  0  0  0  0  0  0  0
    8.9607  -14.3706   19.6438 C   0  0  0  0  0  0  0  0  0  0  0  0
    8.0127  -15.2886   19.2997 C   0  0  0  0  0  0  0  0  0  0  0  0
    7.4015  -14.8201   18.1672 N   0  0  0  0  0  0  0  0  0  0  0  0
    7.9320  -13.6642   17.8094 C   0  0  0  0  0  0  0  0  0  0  0  0
    8.8801  -13.3762   18.6948 N   0  0  0  0  0  0  0  0  0  0  0  0
   10.9550  -15.2727   22.7165 C   0  0  0  0  0  0  0  0  0  0  0  0
   11.6703  -14.2620   22.9214 O   0  0  0  0  0  0  0  0  0  0  0  0
   10.8334  -15.0370   31.0544 O   0  0  0  0  0  0  0  0  0  0  0  0
   10.7149  -15.2188   29.6853 C   0  0  0  0  0  0  0  0  0  0  0  0
   10.3302  -16.4609   29.2251 C   0  0  0  0  0  0  0  0  0  0  0  0
   10.1987  -16.6862   27.8487 C   0  0  0  0  0  0  0  0  0  0  0  0
   10.4576  -15.6568   26.9719 C   0  0  0  0  0  0  0  0  0  0  0  0
   10.3473  -15.8354   25.5307 C   0  0  0  0  0  0  0  0  0  0  0  0
   11.5801  -16.3927   24.8590 C   0  0  2  0  0  0  0  0  0  0  0  0
   11.3006  -16.4607   23.4139 N   0  0  0  0  0  0  0  0  0  0  0  0
   11.7998  -17.7662   25.3509 C   0  0  0  0  0  0  0  0  0  0  0  0
   10.9657  -18.6573   25.0509 O   0  0  0  0  0  0  0  0  0  0  0  0
   10.8435  -14.4132   27.4521 C   0  0  0  0  0  0  0  0  0  0  0  0
   10.9776  -14.1776   28.8211 C   0  0  0  0  0  0  0  0  0  0  0  0
   12.8938  -18.1201   26.1335 O   0  0  0  0  0  0  0  0  0  0  0  0
  2  1  1  1
  3  2  1  0
  4  5  2  0
  4  3  1  0
  6  5  1  0
  7  6  2  0
  8  7  1  0
  8  9  2  0
  9  4  1  0
 10 11  2  0
 10  2  1  0
 12 10  1  0
 13 14  1  6
 13 12  1  0
 14 15  1  0
 15 16  2  0
 15 19  1  0
 16 17  1  0
 17 18  1  0
 19 18  2  0
 20 13  1  0
 21 20  2  0
 23 22  1  0
 23 24  2  0
 25 24  1  0
 26 25  2  0
 27 26  1  0
 28 27  1  1
 28 29  1  0
 29 20  1  0
 30 28  1  0
 30 34  1  0
 31 30  2  0
 32 33  2  0
 32 26  1  0
 33 23  1  0
M  END
$$$$
