DLH.pdb
     RDKit          3D

 27 27  0  0  1  0  0  0  0  0999 V2000
   21.1635  -12.8426  -18.1680 N   0  0  0  0  0  0  0  0  0  0  0  0
   21.8607  -11.7017  -18.6985 C   0  0  1  0  0  0  0  0  0  0  0  0
   20.9933  -11.0828  -19.7789 C   0  0  0  0  0  0  0  0  0  0  0  0
   20.7054  -12.0767  -20.8492 C   0  0  0  0  0  0  0  0  0  0  0  0
   21.0500  -13.2921  -20.7522 O   0  0  0  0  0  0  0  0  0  0  0  0
   22.1673  -10.7026  -17.6231 C   0  0  0  0  0  0  0  0  0  0  0  0
   21.3676  -10.5046  -16.6797 O   0  0  0  0  0  0  0  0  0  0  0  0
   20.0357  -11.7215  -22.0288 O   0  0  0  0  0  0  0  0  0  0  0  0
   27.4826  -10.3581  -16.2605 C   0  0  0  0  0  0  0  0  0  0  0  0
   25.9840  -10.3523  -16.2983 C   0  0  1  0  0  0  0  0  0  0  0  0
   25.5351  -10.7613  -14.8874 C   0  0  0  0  0  0  0  0  0  0  0  0
   25.3380   -9.0544  -16.5915 C   0  0  0  0  0  0  0  0  0  0  0  0
   23.8765   -9.0090  -16.7738 C   0  0  2  0  0  0  0  0  0  0  0  0
   23.3635   -9.9756  -17.6680 N   0  0  0  0  0  0  0  0  0  0  0  0
   23.3392   -7.6389  -16.8607 C   0  0  0  0  0  0  0  0  0  0  0  0
   23.5419   -6.9968  -17.9310 O   0  0  0  0  0  0  0  0  0  0  0  0
   22.6194   -6.9608  -15.8562 N   0  0  0  0  0  0  0  0  0  0  0  0
   22.0878   -5.5902  -16.0487 C   0  0  1  0  0  0  0  0  0  0  0  0
   20.6238   -5.5694  -15.7830 C   0  0  0  0  0  0  0  0  0  0  0  0
   20.0917   -4.1935  -15.9149 C   0  0  0  0  0  0  0  0  0  0  0  0
   20.1387   -3.2505  -14.8758 C   0  0  0  0  0  0  0  0  0  0  0  0
   19.5763   -2.1236  -15.3333 N   0  0  0  0  0  0  0  0  0  0  0  0
   19.1682   -2.2946  -16.6188 C   0  0  0  0  0  0  0  0  0  0  0  0
   19.4992   -3.5542  -16.9278 N   0  0  0  0  0  0  0  0  0  0  0  0
   22.9074   -4.7122  -15.1904 C   0  0  0  0  0  0  0  0  0  0  0  0
   23.2204   -3.5262  -15.4277 O   0  0  0  0  0  0  0  0  0  0  0  0
   23.3968   -5.2420  -13.9799 O   0  0  0  0  0  0  0  0  0  0  0  0
  2  1  1  1
  3  4  1  0
  3  2  1  0
  4  5  2  0
  6  2  1  0
  6  7  2  0
  8  4  1  0
 10  9  1  1
 10 12  1  0
 11 10  1  0
 13 12  1  6
 13 14  1  0
 14  6  1  0
 15 13  1  0
 16 15  2  0
 17 15  1  0
 18 25  1  0
 18 17  1  0
 19 20  1  0
 18 19  1  1
 20 24  1  0
 20 21  2  0
 21 22  1  0
 23 22  1  0
 24 23  2  0
 25 27  1  0
 26 25  2  0
M  END
$$$$
