DLH.pdb
     RDKit          3D

 27 27  0  0  1  0  0  0  0  0999 V2000
   23.6877   -9.3359  -21.3008 N   0  0  0  0  0  0  0  0  0  0  0  0
   24.1493   -8.4635  -20.2542 C   0  0  1  0  0  0  0  0  0  0  0  0
   24.0121   -7.0330  -20.7414 C   0  0  0  0  0  0  0  0  0  0  0  0
   24.9806   -6.7608  -21.8387 C   0  0  0  0  0  0  0  0  0  0  0  0
   26.2008   -7.0933  -21.7600 O   0  0  0  0  0  0  0  0  0  0  0  0
   23.3724   -8.6730  -18.9888 C   0  0  0  0  0  0  0  0  0  0  0  0
   22.1547   -8.9643  -19.0203 O   0  0  0  0  0  0  0  0  0  0  0  0
   24.5955   -6.1182  -23.0239 O   0  0  0  0  0  0  0  0  0  0  0  0
   26.3312  -10.5359  -14.6194 C   0  0  0  0  0  0  0  0  0  0  0  0
   25.2063  -10.2901  -15.5793 C   0  0  1  0  0  0  0  0  0  0  0  0
   24.2035  -11.4283  -15.3383 C   0  0  0  0  0  0  0  0  0  0  0  0
   24.4618   -9.0232  -15.4103 C   0  0  0  0  0  0  0  0  0  0  0  0
   23.4857   -8.6256  -16.4401 C   0  0  2  0  0  0  0  0  0  0  0  0
   24.0110   -8.5415  -17.7493 N   0  0  0  0  0  0  0  0  0  0  0  0
   22.5691   -7.5590  -15.9978 C   0  0  0  0  0  0  0  0  0  0  0  0
   23.0299   -6.3838  -15.9237 O   0  0  0  0  0  0  0  0  0  0  0  0
   21.2158   -7.7195  -15.6376 N   0  0  0  0  0  0  0  0  0  0  0  0
   20.2691   -6.5800  -15.5810 C   0  0  1  0  0  0  0  0  0  0  0  0
   20.1249   -5.9697  -16.9305 C   0  0  0  0  0  0  0  0  0  0  0  0
   19.1145   -4.8871  -16.9055 C   0  0  0  0  0  0  0  0  0  0  0  0
   17.8075   -5.0470  -17.3930 C   0  0  0  0  0  0  0  0  0  0  0  0
   17.1699   -3.8818  -17.2158 N   0  0  0  0  0  0  0  0  0  0  0  0
   18.0035   -2.9772  -16.6373 C   0  0  0  0  0  0  0  0  0  0  0  0
   19.1623   -3.6255  -16.4678 N   0  0  0  0  0  0  0  0  0  0  0  0
   19.0288   -7.1114  -14.9823 C   0  0  0  0  0  0  0  0  0  0  0  0
   18.6675   -8.3073  -14.9646 O   0  0  0  0  0  0  0  0  0  0  0  0
   18.1497   -6.1992  -14.3653 O   0  0  0  0  0  0  0  0  0  0  0  0
  2  1  1  6
  3  4  1  0
  3  2  1  0
  4  5  2  0
  6  2  1  0
  6  7  2  0
  8  4  1  0
 10  9  1  1
 10 12  1  0
 11 10  1  0
 13 12  1  1
 13 14  1  0
 14  6  1  0
 15 13  1  0
 16 15  2  0
 17 15  1  0
 18 25  1  0
 18 17  1  0
 19 20  1  0
 18 19  1  6
 20 24  1  0
 20 21  2  0
 21 22  1  0
 23 22  1  0
 24 23  2  0
 25 27  1  0
 26 25  2  0
M  END
$$$$
