DLH.pdb
     RDKit          3D

 27 27  0  0  1  0  0  0  0  0999 V2000
   23.8700  -11.5906  -18.6450 N   0  0  0  0  0  0  0  0  0  0  0  0
   22.8405  -10.7811  -19.2400 C   0  0  1  0  0  0  0  0  0  0  0  0
   21.8529  -11.7073  -19.9251 C   0  0  0  0  0  0  0  0  0  0  0  0
   22.5355  -12.5130  -20.9744 C   0  0  0  0  0  0  0  0  0  0  0  0
   21.8927  -13.2060  -21.8182 O   0  0  0  0  0  0  0  0  0  0  0  0
   22.1522   -9.9335  -18.2121 C   0  0  0  0  0  0  0  0  0  0  0  0
   21.1703   -9.2186  -18.5182 O   0  0  0  0  0  0  0  0  0  0  0  0
   23.9327  -12.5509  -21.0871 O   0  0  0  0  0  0  0  0  0  0  0  0
   20.6597   -9.2036  -12.9009 C   0  0  0  0  0  0  0  0  0  0  0  0
   22.1206   -9.1023  -13.2218 C   0  0  1  0  0  0  0  0  0  0  0  0
   22.8464   -9.7973  -12.0600 C   0  0  0  0  0  0  0  0  0  0  0  0
   22.5694   -9.7681  -14.4640 C   0  0  0  0  0  0  0  0  0  0  0  0
   22.1449   -9.2172  -15.7631 C   0  0  2  0  0  0  0  0  0  0  0  0
   22.6089   -9.9354  -16.8882 N   0  0  0  0  0  0  0  0  0  0  0  0
   22.1947   -7.7448  -15.8195 C   0  0  0  0  0  0  0  0  0  0  0  0
   23.3342   -7.1966  -15.8177 O   0  0  0  0  0  0  0  0  0  0  0  0
   21.0868   -6.8748  -15.8685 N   0  0  0  0  0  0  0  0  0  0  0  0
   21.2369   -5.4047  -15.9881 C   0  0  1  0  0  0  0  0  0  0  0  0
   21.0627   -4.9883  -17.4061 C   0  0  0  0  0  0  0  0  0  0  0  0
   21.2416   -3.5244  -17.5431 C   0  0  0  0  0  0  0  0  0  0  0  0
   22.2902   -2.8197  -16.9307 C   0  0  0  0  0  0  0  0  0  0  0  0
   22.1508   -1.5288  -17.2619 N   0  0  0  0  0  0  0  0  0  0  0  0
   21.0615   -1.3668  -18.0590 C   0  0  0  0  0  0  0  0  0  0  0  0
   20.5457   -2.5936  -18.2025 N   0  0  0  0  0  0  0  0  0  0  0  0
   20.2821   -4.8191  -15.0264 C   0  0  0  0  0  0  0  0  0  0  0  0
   19.9779   -3.6115  -14.9260 O   0  0  0  0  0  0  0  0  0  0  0  0
   19.6391   -5.6877  -14.1221 O   0  0  0  0  0  0  0  0  0  0  0  0
  2  1  1  1
  3  4  1  0
  3  2  1  0
  4  5  2  0
  6  2  1  0
  6  7  2  0
  8  4  1  0
 10  9  1  1
 10 12  1  0
 11 10  1  0
 13 12  1  1
 13 14  1  0
 14  6  1  0
 15 13  1  0
 16 15  2  0
 17 15  1  0
 18 25  1  0
 18 17  1  0
 19 20  1  0
 18 19  1  6
 20 24  1  0
 20 21  2  0
 21 22  1  0
 23 22  1  0
 24 23  2  0
 25 27  1  0
 26 25  2  0
M  END
$$$$
