DLH.pdb
     RDKit          3D

 27 27  0  0  1  0  0  0  0  0999 V2000
   19.0482  -16.0554  -15.2182 N   0  0  0  0  0  0  0  0  0  0  0  0
   19.2738  -15.1398  -16.3045 C   0  0  1  0  0  0  0  0  0  0  0  0
   17.9263  -14.7810  -16.9030 C   0  0  0  0  0  0  0  0  0  0  0  0
   17.2524  -15.9966  -17.4362 C   0  0  0  0  0  0  0  0  0  0  0  0
   17.7784  -17.1471  -17.3629 O   0  0  0  0  0  0  0  0  0  0  0  0
   19.9953  -13.9102  -15.8393 C   0  0  0  0  0  0  0  0  0  0  0  0
   19.5578  -13.2284  -14.8840 O   0  0  0  0  0  0  0  0  0  0  0  0
   15.9943  -15.9358  -18.0522 O   0  0  0  0  0  0  0  0  0  0  0  0
   25.5663  -13.8810  -16.3694 C   0  0  0  0  0  0  0  0  0  0  0  0
   24.1409  -13.6875  -15.9474 C   0  0  1  0  0  0  0  0  0  0  0  0
   24.1946  -13.3847  -14.4425 C   0  0  0  0  0  0  0  0  0  0  0  0
   23.4129  -12.5670  -16.5819 C   0  0  0  0  0  0  0  0  0  0  0  0
   21.9863  -12.3731  -16.2677 C   0  0  2  0  0  0  0  0  0  0  0  0
   21.1761  -13.5116  -16.4781 N   0  0  0  0  0  0  0  0  0  0  0  0
   21.4624  -11.0664  -16.7055 C   0  0  0  0  0  0  0  0  0  0  0  0
   21.4181  -10.8397  -17.9487 O   0  0  0  0  0  0  0  0  0  0  0  0
   21.0068  -10.0283  -15.8680 N   0  0  0  0  0  0  0  0  0  0  0  0
   20.5454   -8.7238  -16.4004 C   0  0  1  0  0  0  0  0  0  0  0  0
   19.0926   -8.5482  -16.1305 C   0  0  0  0  0  0  0  0  0  0  0  0
   18.6442   -7.2024  -16.5565 C   0  0  0  0  0  0  0  0  0  0  0  0
   19.0937   -6.5814  -17.7328 C   0  0  0  0  0  0  0  0  0  0  0  0
   18.4920   -5.3865  -17.8086 N   0  0  0  0  0  0  0  0  0  0  0  0
   17.6754   -5.2067  -16.7366 C   0  0  0  0  0  0  0  0  0  0  0  0
   17.7977   -6.3245  -16.0104 N   0  0  0  0  0  0  0  0  0  0  0  0
   21.4349   -7.7054  -15.8078 C   0  0  0  0  0  0  0  0  0  0  0  0
   22.0978   -7.8224  -14.7553 O   0  0  0  0  0  0  0  0  0  0  0  0
   21.5642   -6.4719  -16.4766 O   0  0  0  0  0  0  0  0  0  0  0  0
  2  1  1  1
  3  4  1  0
  3  2  1  0
  4  5  2  0
  6  2  1  0
  6  7  2  0
  8  4  1  0
 10  9  1  6
 10 12  1  0
 11 10  1  0
 13 12  1  6
 13 14  1  0
 14  6  1  0
 15 13  1  0
 16 15  2  0
 17 15  1  0
 18 25  1  0
 18 17  1  0
 19 20  1  0
 18 19  1  1
 20 24  1  0
 20 21  2  0
 21 22  1  0
 23 22  1  0
 24 23  2  0
 25 27  1  0
 26 25  2  0
M  END
$$$$
