DLH.pdb
     RDKit          3D

 27 27  0  0  1  0  0  0  0  0999 V2000
   16.4181  -18.4615    3.3359 N   0  0  0  0  0  0  0  0  0  0  0  0
   16.1393  -17.5747    4.4337 C   0  0  1  0  0  0  0  0  0  0  0  0
   15.8087  -18.4217    5.6485 C   0  0  0  0  0  0  0  0  0  0  0  0
   14.6088  -19.2630    5.3866 C   0  0  0  0  0  0  0  0  0  0  0  0
   13.8959  -19.1177    4.3492 O   0  0  0  0  0  0  0  0  0  0  0  0
   17.3037  -16.6720    4.7136 C   0  0  0  0  0  0  0  0  0  0  0  0
   18.1034  -16.3504    3.8049 O   0  0  0  0  0  0  0  0  0  0  0  0
   14.1986  -20.2656    6.2769 O   0  0  0  0  0  0  0  0  0  0  0  0
   20.5370  -12.9140    6.1660 C   0  0  0  0  0  0  0  0  0  0  0  0
   19.0529  -12.7172    6.0876 C   0  0  1  0  0  0  0  0  0  0  0  0
   18.8373  -11.6332    5.0209 C   0  0  0  0  0  0  0  0  0  0  0  0
   18.2544  -13.8903    5.6705 C   0  0  0  0  0  0  0  0  0  0  0  0
   18.3377  -15.1295    6.4635 C   0  0  2  0  0  0  0  0  0  0  0  0
   17.5069  -16.1780    6.0082 N   0  0  0  0  0  0  0  0  0  0  0  0
   18.4097  -14.8914    7.9166 C   0  0  0  0  0  0  0  0  0  0  0  0
   17.3744  -14.4447    8.4891 O   0  0  0  0  0  0  0  0  0  0  0  0
   19.5318  -15.1071    8.7419 N   0  0  0  0  0  0  0  0  0  0  0  0
   19.4133  -15.6484   10.1170 C   0  0  1  0  0  0  0  0  0  0  0  0
   18.5701  -16.8745   10.1112 C   0  0  0  0  0  0  0  0  0  0  0  0
   18.4456  -17.4256   11.4803 C   0  0  0  0  0  0  0  0  0  0  0  0
   18.2017  -16.6269   12.6089 C   0  0  0  0  0  0  0  0  0  0  0  0
   18.1481  -17.4420   13.6711 N   0  0  0  0  0  0  0  0  0  0  0  0
   18.3463  -18.7294   13.2815 C   0  0  0  0  0  0  0  0  0  0  0  0
   18.5201  -18.6723   11.9555 N   0  0  0  0  0  0  0  0  0  0  0  0
   20.7954  -15.8235   10.6054 C   0  0  0  0  0  0  0  0  0  0  0  0
   21.2312  -15.4964   11.7297 O   0  0  0  0  0  0  0  0  0  0  0  0
   21.7333  -16.4145    9.7356 O   0  0  0  0  0  0  0  0  0  0  0  0
  2  1  1  6
  3  4  1  0
  3  2  1  0
  4  5  2  0
  6  2  1  0
  6  7  2  0
  8  4  1  0
 10  9  1  6
 10 12  1  0
 11 10  1  0
 13 12  1  6
 13 14  1  0
 14  6  1  0
 15 13  1  0
 16 15  2  0
 17 15  1  0
 18 25  1  0
 18 17  1  0
 19 20  1  0
 18 19  1  6
 20 24  1  0
 20 21  2  0
 21 22  1  0
 23 22  1  0
 24 23  2  0
 25 27  1  0
 26 25  2  0
M  END
$$$$
