DLH.pdb
     RDKit          3D

 27 27  0  0  1  0  0  0  0  0999 V2000
   26.9940  -21.2147  -15.8718 N   0  0  0  0  0  0  0  0  0  0  0  0
   25.9855  -20.3546  -15.3129 C   0  0  1  0  0  0  0  0  0  0  0  0
   25.0936  -19.8802  -16.4452 C   0  0  0  0  0  0  0  0  0  0  0  0
   24.6796  -18.4672  -16.2257 C   0  0  0  0  0  0  0  0  0  0  0  0
   23.6421  -18.1626  -15.5652 O   0  0  0  0  0  0  0  0  0  0  0  0
   25.1834  -21.0661  -14.2643 C   0  0  0  0  0  0  0  0  0  0  0  0
   24.7101  -22.2059  -14.4774 O   0  0  0  0  0  0  0  0  0  0  0  0
   25.4167  -17.3911  -16.7404 O   0  0  0  0  0  0  0  0  0  0  0  0
   26.8081  -20.3356   -9.0517 C   0  0  0  0  0  0  0  0  0  0  0  0
   26.2661  -20.7522  -10.3858 C   0  0  1  0  0  0  0  0  0  0  0  0
   26.5152  -22.2651  -10.4772 C   0  0  0  0  0  0  0  0  0  0  0  0
   24.8175  -20.5449  -10.6016 C   0  0  0  0  0  0  0  0  0  0  0  0
   24.2299  -20.9096  -11.9028 C   0  0  2  0  0  0  0  0  0  0  0  0
   24.9551  -20.4526  -13.0262 N   0  0  0  0  0  0  0  0  0  0  0  0
   22.7610  -20.7875  -11.9370 C   0  0  0  0  0  0  0  0  0  0  0  0
   22.1762  -20.4485  -10.8684 O   0  0  0  0  0  0  0  0  0  0  0  0
   21.9313  -21.0202  -13.0525 N   0  0  0  0  0  0  0  0  0  0  0  0
   20.7660  -20.1596  -13.3680 C   0  0  1  0  0  0  0  0  0  0  0  0
   21.2109  -18.7544  -13.5731 C   0  0  0  0  0  0  0  0  0  0  0  0
   20.0599  -17.8917  -13.9260 C   0  0  0  0  0  0  0  0  0  0  0  0
   18.7280  -18.3334  -13.8792 C   0  0  0  0  0  0  0  0  0  0  0  0
   17.9534  -17.3072  -14.2568 N   0  0  0  0  0  0  0  0  0  0  0  0
   18.7224  -16.2239  -14.5454 C   0  0  0  0  0  0  0  0  0  0  0  0
   19.9828  -16.6208  -14.3316 N   0  0  0  0  0  0  0  0  0  0  0  0
   20.0928  -20.7930  -14.5190 C   0  0  0  0  0  0  0  0  0  0  0  0
   20.5715  -21.6735  -15.2651 O   0  0  0  0  0  0  0  0  0  0  0  0
   18.7813  -20.3795  -14.8265 O   0  0  0  0  0  0  0  0  0  0  0  0
  2  1  1  6
  3  4  1  0
  3  2  1  0
  4  5  2  0
  6  2  1  0
  6  7  2  0
  8  4  1  0
 10  9  1  1
 10 12  1  0
 11 10  1  0
 13 12  1  1
 13 14  1  0
 14  6  1  0
 15 13  1  0
 16 15  2  0
 17 15  1  0
 18 25  1  0
 18 17  1  0
 19 20  1  0
 18 19  1  6
 20 24  1  0
 20 21  2  0
 21 22  1  0
 23 22  1  0
 24 23  2  0
 25 27  1  0
 26 25  2  0
M  END
$$$$
