DLH.pdb
     RDKit          3D

 27 27  0  0  1  0  0  0  0  0999 V2000
   43.4191  -10.6817   -7.3328 N   0  0  0  0  0  0  0  0  0  0  0  0
   42.2250  -10.3072   -6.6234 C   0  0  1  0  0  0  0  0  0  0  0  0
   42.5564   -9.1165   -5.7432 C   0  0  0  0  0  0  0  0  0  0  0  0
   43.4805   -9.5192   -4.6477 C   0  0  0  0  0  0  0  0  0  0  0  0
   43.3507  -10.6142   -4.0235 O   0  0  0  0  0  0  0  0  0  0  0  0
   41.1102   -9.9766   -7.5705 C   0  0  0  0  0  0  0  0  0  0  0  0
   41.3306   -9.3503   -8.6325 O   0  0  0  0  0  0  0  0  0  0  0  0
   44.5488   -8.7059   -4.2435 O   0  0  0  0  0  0  0  0  0  0  0  0
   36.3985  -12.9394   -6.7221 C   0  0  0  0  0  0  0  0  0  0  0  0
   37.5469  -12.1860   -7.3229 C   0  0  1  0  0  0  0  0  0  0  0  0
   37.6674  -12.7008   -8.7651 C   0  0  0  0  0  0  0  0  0  0  0  0
   37.3988  -10.7166   -7.4058 C   0  0  0  0  0  0  0  0  0  0  0  0
   38.5682   -9.9008   -7.7777 C   0  0  2  0  0  0  0  0  0  0  0  0
   39.8003  -10.3700   -7.2692 N   0  0  0  0  0  0  0  0  0  0  0  0
   38.3110   -8.4501   -7.7253 C   0  0  0  0  0  0  0  0  0  0  0  0
   37.3431   -8.0018   -8.4044 O   0  0  0  0  0  0  0  0  0  0  0  0
   39.0482   -7.4990   -6.9913 N   0  0  0  0  0  0  0  0  0  0  0  0
   38.7214   -6.0530   -7.0127 C   0  0  1  0  0  0  0  0  0  0  0  0
   38.7847   -5.4957   -5.6344 C   0  0  0  0  0  0  0  0  0  0  0  0
   38.4882   -4.0447   -5.6469 C   0  0  0  0  0  0  0  0  0  0  0  0
   38.0804   -3.3555   -6.8001 C   0  0  0  0  0  0  0  0  0  0  0  0
   37.9002   -2.0730   -6.4562 N   0  0  0  0  0  0  0  0  0  0  0  0
   38.1727   -1.9016   -5.1354 C   0  0  0  0  0  0  0  0  0  0  0  0
   38.5216   -3.1141   -4.6885 N   0  0  0  0  0  0  0  0  0  0  0  0
   39.6409   -5.4430   -7.9934 C   0  0  0  0  0  0  0  0  0  0  0  0
   40.8734   -5.6324   -8.0713 O   0  0  0  0  0  0  0  0  0  0  0  0
   39.0984   -4.5559   -8.9443 O   0  0  0  0  0  0  0  0  0  0  0  0
  2  1  1  6
  3  4  1  0
  3  2  1  0
  4  5  2  0
  6  2  1  0
  6  7  2  0
  8  4  1  0
 10  9  1  6
 10 12  1  0
 11 10  1  0
 13 12  1  1
 13 14  1  0
 14  6  1  0
 15 13  1  0
 16 15  2  0
 17 15  1  0
 18 25  1  0
 18 17  1  0
 19 20  1  0
 18 19  1  1
 20 24  1  0
 20 21  2  0
 21 22  1  0
 23 22  1  0
 24 23  2  0
 25 27  1  0
 26 25  2  0
M  END
$$$$
