DLH.pdb
     RDKit          3D

 27 27  0  0  1  0  0  0  0  0999 V2000
   25.9397  -22.1299  -13.7385 N   0  0  0  0  0  0  0  0  0  0  0  0
   26.0264  -20.9697  -12.8925 C   0  0  1  0  0  0  0  0  0  0  0  0
   24.9957  -19.9634  -13.3695 C   0  0  0  0  0  0  0  0  0  0  0  0
   23.9059  -20.6482  -14.1175 C   0  0  0  0  0  0  0  0  0  0  0  0
   23.1709  -21.5307  -13.5822 O   0  0  0  0  0  0  0  0  0  0  0  0
   25.7977  -21.3265  -11.4540 C   0  0  0  0  0  0  0  0  0  0  0  0
   25.3156  -22.4373  -11.1339 O   0  0  0  0  0  0  0  0  0  0  0  0
   23.6318  -20.3546  -15.4609 O   0  0  0  0  0  0  0  0  0  0  0  0
   27.7706  -20.8019   -6.3455 C   0  0  0  0  0  0  0  0  0  0  0  0
   26.8803  -19.6899   -6.8126 C   0  0  1  0  0  0  0  0  0  0  0  0
   27.5124  -18.4002   -6.2681 C   0  0  0  0  0  0  0  0  0  0  0  0
   26.7547  -19.5180   -8.2764 C   0  0  0  0  0  0  0  0  0  0  0  0
   25.9708  -20.4999   -9.0462 C   0  0  2  0  0  0  0  0  0  0  0  0
   26.1248  -20.4088  -10.4480 N   0  0  0  0  0  0  0  0  0  0  0  0
   24.6110  -20.7088   -8.5165 C   0  0  0  0  0  0  0  0  0  0  0  0
   24.3843  -20.3484   -7.3258 O   0  0  0  0  0  0  0  0  0  0  0  0
   23.5260  -21.2832   -9.2090 N   0  0  0  0  0  0  0  0  0  0  0  0
   22.1798  -21.4189   -8.6027 C   0  0  1  0  0  0  0  0  0  0  0  0
   21.1664  -21.6709   -9.6628 C   0  0  0  0  0  0  0  0  0  0  0  0
   20.9083  -20.4358  -10.4385 C   0  0  0  0  0  0  0  0  0  0  0  0
   21.3382  -19.1655  -10.0227 C   0  0  0  0  0  0  0  0  0  0  0  0
   20.9398  -18.2853  -10.9512 N   0  0  0  0  0  0  0  0  0  0  0  0
   20.2728  -18.9274  -11.9467 C   0  0  0  0  0  0  0  0  0  0  0  0
   20.2787  -20.2194  -11.5971 N   0  0  0  0  0  0  0  0  0  0  0  0
   22.3025  -22.4679   -7.5713 C   0  0  0  0  0  0  0  0  0  0  0  0
   23.1979  -23.3364   -7.5002 O   0  0  0  0  0  0  0  0  0  0  0  0
   21.3250  -22.5148   -6.5574 O   0  0  0  0  0  0  0  0  0  0  0  0
  2  1  1  6
  3  4  1  0
  3  2  1  0
  4  5  2  0
  6  2  1  0
  6  7  2  0
  8  4  1  0
 10  9  1  6
 10 12  1  0
 11 10  1  0
 13 12  1  1
 13 14  1  0
 14  6  1  0
 15 13  1  0
 16 15  2  0
 17 15  1  0
 18 25  1  0
 18 17  1  0
 19 20  1  0
 18 19  1  6
 20 24  1  0
 20 21  2  0
 21 22  1  0
 23 22  1  0
 24 23  2  0
 25 27  1  0
 26 25  2  0
M  END
$$$$
