DLH.pdb
     RDKit          3D

 27 27  0  0  1  0  0  0  0  0999 V2000
   17.3236  -13.0913  -15.6625 N   0  0  0  0  0  0  0  0  0  0  0  0
   17.3925  -11.6559  -15.7275 C   0  0  1  0  0  0  0  0  0  0  0  0
   16.1120  -11.0976  -15.1352 C   0  0  0  0  0  0  0  0  0  0  0  0
   14.9349  -11.5278  -15.9387 C   0  0  0  0  0  0  0  0  0  0  0  0
   14.9337  -11.4946  -17.2054 O   0  0  0  0  0  0  0  0  0  0  0  0
   18.5917  -11.1347  -14.9931 C   0  0  0  0  0  0  0  0  0  0  0  0
   18.8447  -11.5077  -13.8246 O   0  0  0  0  0  0  0  0  0  0  0  0
   13.7577  -11.9943  -15.3365 O   0  0  0  0  0  0  0  0  0  0  0  0
   23.7391   -9.8043  -14.3282 C   0  0  0  0  0  0  0  0  0  0  0  0
   23.0529   -9.0680  -15.4392 C   0  0  1  0  0  0  0  0  0  0  0  0
   24.0399   -9.0860  -16.6161 C   0  0  0  0  0  0  0  0  0  0  0  0
   21.7883   -9.6539  -15.9346 C   0  0  0  0  0  0  0  0  0  0  0  0
   20.5731   -9.5314  -15.1101 C   0  0  2  0  0  0  0  0  0  0  0  0
   19.4455  -10.2161  -15.6165 N   0  0  0  0  0  0  0  0  0  0  0  0
   20.3677   -8.1761  -14.5674 C   0  0  0  0  0  0  0  0  0  0  0  0
   19.8438   -7.3132  -15.3290 O   0  0  0  0  0  0  0  0  0  0  0  0
   20.7067   -7.7371  -13.2716 N   0  0  0  0  0  0  0  0  0  0  0  0
   20.3547   -6.3855  -12.7742 C   0  0  1  0  0  0  0  0  0  0  0  0
   20.1502   -6.4219  -11.3007 C   0  0  0  0  0  0  0  0  0  0  0  0
   18.8009   -6.9393  -10.9764 C   0  0  0  0  0  0  0  0  0  0  0  0
   17.8482   -7.2630  -11.9556 C   0  0  0  0  0  0  0  0  0  0  0  0
   16.7521   -7.6969  -11.3185 N   0  0  0  0  0  0  0  0  0  0  0  0
   16.9521   -7.6685   -9.9741 C   0  0  0  0  0  0  0  0  0  0  0  0
   18.1984   -7.2070   -9.8141 N   0  0  0  0  0  0  0  0  0  0  0  0
   21.4239   -5.4859  -13.2507 C   0  0  0  0  0  0  0  0  0  0  0  0
   22.4908   -5.8299  -13.8023 O   0  0  0  0  0  0  0  0  0  0  0  0
   21.2465   -4.0989  -13.0763 O   0  0  0  0  0  0  0  0  0  0  0  0
  2  1  1  1
  3  4  1  0
  3  2  1  0
  4  5  2  0
  6  2  1  0
  6  7  2  0
  8  4  1  0
 10  9  1  1
 10 12  1  0
 11 10  1  0
 13 12  1  6
 13 14  1  0
 14  6  1  0
 15 13  1  0
 16 15  2  0
 17 15  1  0
 18 25  1  0
 18 17  1  0
 19 20  1  0
 18 19  1  1
 20 24  1  0
 20 21  2  0
 21 22  1  0
 23 22  1  0
 24 23  2  0
 25 27  1  0
 26 25  2  0
M  END
$$$$
