DLH.pdb
     RDKit          3D

 27 27  0  0  1  0  0  0  0  0999 V2000
   18.8042  -12.9684  -17.5337 N   0  0  0  0  0  0  0  0  0  0  0  0
   19.4572  -11.7824  -18.0199 C   0  0  1  0  0  0  0  0  0  0  0  0
   18.4239  -10.9433  -18.7483 C   0  0  0  0  0  0  0  0  0  0  0  0
   17.9746  -11.6314  -19.9896 C   0  0  0  0  0  0  0  0  0  0  0  0
   18.7553  -12.3472  -20.6850 O   0  0  0  0  0  0  0  0  0  0  0  0
   20.0810  -11.0059  -16.8988 C   0  0  0  0  0  0  0  0  0  0  0  0
   19.3906  -10.5900  -15.9401 O   0  0  0  0  0  0  0  0  0  0  0  0
   16.6582  -11.5243  -20.4606 O   0  0  0  0  0  0  0  0  0  0  0  0
   25.2284  -12.3706  -15.3448 C   0  0  0  0  0  0  0  0  0  0  0  0
   23.8120  -11.8848  -15.4157 C   0  0  1  0  0  0  0  0  0  0  0  0
   23.2670  -11.9945  -13.9838 C   0  0  0  0  0  0  0  0  0  0  0  0
   23.6180  -10.4809  -15.8391 C   0  0  0  0  0  0  0  0  0  0  0  0
   22.2470   -9.9751  -16.0291 C   0  0  2  0  0  0  0  0  0  0  0  0
   21.4553  -10.7370  -16.9177 N   0  0  0  0  0  0  0  0  0  0  0  0
   22.1733   -8.5062  -16.1301 C   0  0  0  0  0  0  0  0  0  0  0  0
   22.6857   -7.9626  -17.1503 O   0  0  0  0  0  0  0  0  0  0  0  0
   21.5883   -7.6345  -15.1895 N   0  0  0  0  0  0  0  0  0  0  0  0
   21.6006   -6.1616  -15.3576 C   0  0  1  0  0  0  0  0  0  0  0  0
   20.2238   -5.6685  -15.6328 C   0  0  0  0  0  0  0  0  0  0  0  0
   20.2127   -4.1912  -15.7383 C   0  0  0  0  0  0  0  0  0  0  0  0
   20.7219   -3.3474  -14.7383 C   0  0  0  0  0  0  0  0  0  0  0  0
   20.5537   -2.0856  -15.1567 N   0  0  0  0  0  0  0  0  0  0  0  0
   19.9596   -2.0749  -16.3794 C   0  0  0  0  0  0  0  0  0  0  0  0
   19.7736   -3.3633  -16.6909 N   0  0  0  0  0  0  0  0  0  0  0  0
   22.2449   -5.6195  -14.1450 C   0  0  0  0  0  0  0  0  0  0  0  0
   22.8773   -4.5454  -14.0589 O   0  0  0  0  0  0  0  0  0  0  0  0
   22.1517   -6.3698  -12.9560 O   0  0  0  0  0  0  0  0  0  0  0  0
  2  1  1  1
  3  4  1  0
  3  2  1  0
  4  5  2  0
  6  2  1  0
  6  7  2  0
  8  4  1  0
 10  9  1  1
 10 12  1  0
 11 10  1  0
 13 12  1  6
 13 14  1  0
 14  6  1  0
 15 13  1  0
 16 15  2  0
 17 15  1  0
 18 25  1  0
 18 17  1  0
 19 20  1  0
 18 19  1  1
 20 24  1  0
 20 21  2  0
 21 22  1  0
 23 22  1  0
 24 23  2  0
 25 27  1  0
 26 25  2  0
M  END
$$$$
