DLH.pdb
     RDKit          3D

 27 27  0  0  1  0  0  0  0  0999 V2000
   27.8790  -22.2681  -16.9229 N   0  0  0  0  0  0  0  0  0  0  0  0
   27.5654  -21.1102  -16.1292 C   0  0  1  0  0  0  0  0  0  0  0  0
   27.1255  -20.0027  -17.0686 C   0  0  0  0  0  0  0  0  0  0  0  0
   28.2472  -19.5996  -17.9606 C   0  0  0  0  0  0  0  0  0  0  0  0
   28.1380  -19.5963  -19.2230 O   0  0  0  0  0  0  0  0  0  0  0  0
   26.4950  -21.4132  -15.1235 C   0  0  0  0  0  0  0  0  0  0  0  0
   25.4889  -22.0902  -15.4367 O   0  0  0  0  0  0  0  0  0  0  0  0
   29.4914  -19.2008  -17.4517 O   0  0  0  0  0  0  0  0  0  0  0  0
   24.7843  -21.8648   -9.7594 C   0  0  0  0  0  0  0  0  0  0  0  0
   25.3397  -20.5660  -10.2614 C   0  0  1  0  0  0  0  0  0  0  0  0
   26.1647  -19.9942   -9.0988 C   0  0  0  0  0  0  0  0  0  0  0  0
   26.2453  -20.6446  -11.4284 C   0  0  0  0  0  0  0  0  0  0  0  0
   25.6740  -20.9199  -12.7585 C   0  0  2  0  0  0  0  0  0  0  0  0
   26.6148  -20.9346  -13.8128 N   0  0  0  0  0  0  0  0  0  0  0  0
   24.3871  -20.2408  -12.9953 C   0  0  0  0  0  0  0  0  0  0  0  0
   24.4193  -19.0137  -13.2990 O   0  0  0  0  0  0  0  0  0  0  0  0
   23.1077  -20.8262  -12.9096 N   0  0  0  0  0  0  0  0  0  0  0  0
   21.9436  -20.3036  -13.6645 C   0  0  1  0  0  0  0  0  0  0  0  0
   22.1262  -20.5535  -15.1200 C   0  0  0  0  0  0  0  0  0  0  0  0
   20.9743  -20.0245  -15.8862 C   0  0  0  0  0  0  0  0  0  0  0  0
   19.8883  -19.3699  -15.2833 C   0  0  0  0  0  0  0  0  0  0  0  0
   19.0371  -19.0264  -16.2596 N   0  0  0  0  0  0  0  0  0  0  0  0
   19.5222  -19.4287  -17.4642 C   0  0  0  0  0  0  0  0  0  0  0  0
   20.6898  -20.0237  -17.1918 N   0  0  0  0  0  0  0  0  0  0  0  0
   20.7513  -20.9226  -13.0526 C   0  0  0  0  0  0  0  0  0  0  0  0
   20.7204  -21.9910  -12.4055 O   0  0  0  0  0  0  0  0  0  0  0  0
   19.5151  -20.2627  -13.2005 O   0  0  0  0  0  0  0  0  0  0  0  0
  2  1  1  6
  3  4  1  0
  3  2  1  0
  4  5  2  0
  6  2  1  0
  6  7  2  0
  8  4  1  0
 10  9  1  1
 10 12  1  0
 11 10  1  0
 13 12  1  1
 13 14  1  0
 14  6  1  0
 15 13  1  0
 16 15  2  0
 17 15  1  0
 18 25  1  0
 18 17  1  0
 19 20  1  0
 18 19  1  6
 20 24  1  0
 20 21  2  0
 21 22  1  0
 23 22  1  0
 24 23  2  0
 25 27  1  0
 26 25  2  0
M  END
$$$$
