MPE.pdb
     RDKit          3D

 25 25  0  0  1  0  0  0  0  0999 V2000
    6.3087  -18.5208   24.7424 C   0  0  0  0  0  0  0  0  0  0  0  0
    5.7597  -18.1386   23.0489 S   0  0  0  0  0  0  0  0  0  0  0  0
    6.7435  -16.7822   22.3917 C   0  0  0  0  0  0  0  0  0  0  0  0
    6.2434  -15.4240   22.7833 C   0  0  0  0  0  0  0  0  0  0  0  0
    7.2342  -14.3076   22.4552 C   0  0  2  0  0  0  0  0  0  0  0  0
    7.8292  -14.5417   21.1948 N   0  0  0  0  0  0  0  0  0  0  0  0
    8.1418  -14.1336   23.6009 C   0  0  0  0  0  0  0  0  0  0  0  0
    9.3601  -14.3405   23.3659 O   0  0  0  0  0  0  0  0  0  0  0  0
    7.7374  -13.7661   24.8836 N   0  0  0  0  0  0  0  0  0  0  0  0
    6.3312  -13.4933   25.2427 C   0  0  0  0  0  0  0  0  0  0  0  0
    6.3690  -12.5771   26.4232 C   0  0  0  0  0  0  0  0  0  0  0  0
    7.7894  -12.5048   26.8798 C   0  0  0  0  0  0  0  0  0  0  0  0
    8.5264  -13.5749   26.0499 C   0  0  1  0  0  0  0  0  0  0  0  0
    8.7141  -14.8067   26.8610 C   0  0  0  0  0  0  0  0  0  0  0  0
    7.7559  -15.5695   27.1551 O   0  0  0  0  0  0  0  0  0  0  0  0
    9.9999  -15.1586   27.3319 N   0  0  0  0  0  0  0  0  0  0  0  0
   10.3645  -16.4417   27.8509 C   0  0  1  0  0  0  0  0  0  0  0  0
   11.6501  -16.9661   27.2254 C   0  0  0  0  0  0  0  0  0  0  0  0
   11.5192  -17.1426   25.7454 C   0  0  0  0  0  0  0  0  0  0  0  0
   12.8219  -17.5925   25.1700 C   0  0  0  0  0  0  0  0  0  0  0  0
   13.8265  -17.7119   25.9266 O   0  0  0  0  0  0  0  0  0  0  0  0
   10.6147  -16.3175   29.3009 C   0  0  0  0  0  0  0  0  0  0  0  0
   10.8536  -17.4519   30.0446 O   0  0  0  0  0  0  0  0  0  0  0  0
   12.9715  -17.8868   23.8235 O   0  0  0  0  0  0  0  0  0  0  0  0
   10.6181  -15.2106   29.8851 O   0  0  0  0  0  0  0  0  0  0  0  0
  2  1  1  0
  3  2  1  0
  4  3  1  0
  5  4  1  0
  5  6  1  6
  7  8  2  0
  7  5  1  0
  9  7  1  0
 10  9  1  0
 11 10  1  0
 12 11  1  0
 12 13  1  0
 13  9  1  0
 13 14  1  1
 15 14  2  0
 16 14  1  0
 17 16  1  0
 17 18  1  6
 19 18  1  0
 20 19  1  0
 20 21  2  0
 22 17  1  0
 23 22  1  0
 24 20  1  0
 25 22  2  0
M  END
$$$$
