MPE.pdb
     RDKit          3D

 25 25  0  0  1  0  0  0  0  0999 V2000
    5.7973  -11.0045   26.7138 C   0  0  0  0  0  0  0  0  0  0  0  0
    6.6959  -12.4879   27.2684 S   0  0  0  0  0  0  0  0  0  0  0  0
    6.0323  -13.9377   26.4334 C   0  0  0  0  0  0  0  0  0  0  0  0
    6.9487  -14.5136   25.3958 C   0  0  0  0  0  0  0  0  0  0  0  0
    6.3863  -15.7734   24.7382 C   0  0  2  0  0  0  0  0  0  0  0  0
    6.0570  -16.7301   25.7249 N   0  0  0  0  0  0  0  0  0  0  0  0
    7.3103  -16.2003   23.6749 C   0  0  0  0  0  0  0  0  0  0  0  0
    7.6978  -17.3953   23.7389 O   0  0  0  0  0  0  0  0  0  0  0  0
    7.7614  -15.3812   22.6409 N   0  0  0  0  0  0  0  0  0  0  0  0
    7.3781  -13.9615   22.5060 C   0  0  0  0  0  0  0  0  0  0  0  0
    7.5128  -13.6257   21.0556 C   0  0  0  0  0  0  0  0  0  0  0  0
    8.1871  -14.7838   20.3958 C   0  0  0  0  0  0  0  0  0  0  0  0
    8.6212  -15.7019   21.5559 C   0  0  1  0  0  0  0  0  0  0  0  0
   10.0649  -15.5016   21.8494 C   0  0  0  0  0  0  0  0  0  0  0  0
   10.6722  -14.4421   21.5407 O   0  0  0  0  0  0  0  0  0  0  0  0
   10.8065  -16.5172   22.4955 N   0  0  0  0  0  0  0  0  0  0  0  0
   12.0554  -16.3245   23.1676 C   0  0  1  0  0  0  0  0  0  0  0  0
   11.9700  -16.6844   24.6448 C   0  0  0  0  0  0  0  0  0  0  0  0
   11.1866  -17.9393   24.8691 C   0  0  0  0  0  0  0  0  0  0  0  0
   11.3606  -18.4020   26.2784 C   0  0  0  0  0  0  0  0  0  0  0  0
   12.2214  -17.8418   27.0139 O   0  0  0  0  0  0  0  0  0  0  0  0
   13.0645  -17.2202   22.5675 C   0  0  0  0  0  0  0  0  0  0  0  0
   12.6759  -18.1278   21.6071 O   0  0  0  0  0  0  0  0  0  0  0  0
   10.6054  -19.4335   26.8151 O   0  0  0  0  0  0  0  0  0  0  0  0
   14.2702  -17.1857   22.9013 O   0  0  0  0  0  0  0  0  0  0  0  0
  2  1  1  0
  3  2  1  0
  4  3  1  0
  5  4  1  0
  5  6  1  1
  7  8  2  0
  7  5  1  0
  9  7  1  0
 10  9  1  0
 11 10  1  0
 12 11  1  0
 12 13  1  0
 13  9  1  0
 13 14  1  1
 15 14  2  0
 16 14  1  0
 17 16  1  0
 17 18  1  1
 19 18  1  0
 20 19  1  0
 20 21  2  0
 22 17  1  0
 23 22  1  0
 24 20  1  0
 25 22  2  0
M  END
$$$$
