MPE.pdb
     RDKit          3D

 25 25  0  0  1  0  0  0  0  0999 V2000
    6.4886  -10.9539   25.6862 C   0  0  0  0  0  0  0  0  0  0  0  0
    6.4800  -12.1483   27.0606 S   0  0  0  0  0  0  0  0  0  0  0  0
    5.9167  -13.7489   26.4601 C   0  0  0  0  0  0  0  0  0  0  0  0
    6.9607  -14.5161   25.7054 C   0  0  0  0  0  0  0  0  0  0  0  0
    6.4185  -15.8000   25.0781 C   0  0  2  0  0  0  0  0  0  0  0  0
    5.9479  -16.6715   26.0862 N   0  0  0  0  0  0  0  0  0  0  0  0
    7.4304  -16.3336   24.1519 C   0  0  0  0  0  0  0  0  0  0  0  0
    7.7641  -17.5314   24.3424 O   0  0  0  0  0  0  0  0  0  0  0  0
    8.0162  -15.6089   23.1149 N   0  0  0  0  0  0  0  0  0  0  0  0
    7.6317  -14.2238   22.7764 C   0  0  0  0  0  0  0  0  0  0  0  0
    7.9756  -14.0326   21.3343 C   0  0  0  0  0  0  0  0  0  0  0  0
    8.7618  -15.2285   20.9063 C   0  0  0  0  0  0  0  0  0  0  0  0
    9.0341  -16.0090   22.2077 C   0  0  1  0  0  0  0  0  0  0  0  0
   10.4138  -15.7317   22.6871 C   0  0  0  0  0  0  0  0  0  0  0  0
   10.7353  -14.6305   23.2074 O   0  0  0  0  0  0  0  0  0  0  0  0
   11.4195  -16.7183   22.5678 N   0  0  0  0  0  0  0  0  0  0  0  0
   12.6761  -16.7007   23.2530 C   0  0  1  0  0  0  0  0  0  0  0  0
   12.9015  -17.9696   24.0643 C   0  0  0  0  0  0  0  0  0  0  0  0
   11.8889  -18.1216   25.1554 C   0  0  0  0  0  0  0  0  0  0  0  0
   12.1050  -19.4136   25.8727 C   0  0  0  0  0  0  0  0  0  0  0  0
   11.1181  -20.1671   26.1052 O   0  0  0  0  0  0  0  0  0  0  0  0
   13.7633  -16.6326   22.2560 C   0  0  0  0  0  0  0  0  0  0  0  0
   15.0465  -16.3574   22.6739 O   0  0  0  0  0  0  0  0  0  0  0  0
   13.3604  -19.8210   26.2973 O   0  0  0  0  0  0  0  0  0  0  0  0
   13.5613  -16.8170   21.0347 O   0  0  0  0  0  0  0  0  0  0  0  0
  2  1  1  0
  3  2  1  0
  4  3  1  0
  5  4  1  0
  5  6  1  1
  7  8  2  0
  7  5  1  0
  9  7  1  0
 10  9  1  0
 11 10  1  0
 12 11  1  0
 12 13  1  0
 13  9  1  0
 13 14  1  1
 15 14  2  0
 16 14  1  0
 17 16  1  0
 17 18  1  6
 19 18  1  0
 20 19  1  0
 20 21  2  0
 22 17  1  0
 23 22  1  0
 24 20  1  0
 25 22  2  0
M  END
$$$$
