MPE.pdb
     RDKit          3D

 25 25  0  0  1  0  0  0  0  0999 V2000
    5.4607  -10.4213   26.9646 C   0  0  0  0  0  0  0  0  0  0  0  0
    6.7975  -11.5479   26.4553 S   0  0  0  0  0  0  0  0  0  0  0  0
    6.0990  -13.1488   26.0207 C   0  0  0  0  0  0  0  0  0  0  0  0
    7.0495  -14.0471   25.2873 C   0  0  0  0  0  0  0  0  0  0  0  0
    6.4346  -15.4001   24.9309 C   0  0  2  0  0  0  0  0  0  0  0  0
    6.0466  -16.0816   26.1066 N   0  0  0  0  0  0  0  0  0  0  0  0
    7.3499  -16.1064   24.0199 C   0  0  0  0  0  0  0  0  0  0  0  0
    7.6226  -17.2931   24.3355 O   0  0  0  0  0  0  0  0  0  0  0  0
    7.9092  -15.5504   22.8702 N   0  0  0  0  0  0  0  0  0  0  0  0
    7.7587  -14.1281   22.5024 C   0  0  0  0  0  0  0  0  0  0  0  0
    7.9199  -14.0584   21.0180 C   0  0  0  0  0  0  0  0  0  0  0  0
    8.3856  -15.4024   20.5616 C   0  0  0  0  0  0  0  0  0  0  0  0
    8.6860  -16.1784   21.8596 C   0  0  1  0  0  0  0  0  0  0  0  0
   10.1480  -16.1710   22.1292 C   0  0  0  0  0  0  0  0  0  0  0  0
   10.7978  -15.1024   22.2792 O   0  0  0  0  0  0  0  0  0  0  0  0
   10.8593  -17.3891   22.2254 N   0  0  0  0  0  0  0  0  0  0  0  0
   12.1888  -17.5286   22.7369 C   0  0  1  0  0  0  0  0  0  0  0  0
   12.3321  -18.7559   23.6269 C   0  0  0  0  0  0  0  0  0  0  0  0
   11.4024  -18.7076   24.7982 C   0  0  0  0  0  0  0  0  0  0  0  0
   11.5234  -19.9647   25.5953 C   0  0  0  0  0  0  0  0  0  0  0  0
   11.4916  -21.0804   25.0037 O   0  0  0  0  0  0  0  0  0  0  0  0
   13.1197  -17.7107   21.6052 C   0  0  0  0  0  0  0  0  0  0  0  0
   14.4773  -17.6777   21.8354 O   0  0  0  0  0  0  0  0  0  0  0  0
   11.6708  -19.9531   26.9739 O   0  0  0  0  0  0  0  0  0  0  0  0
   12.7186  -17.8954   20.4341 O   0  0  0  0  0  0  0  0  0  0  0  0
  2  1  1  0
  3  2  1  0
  4  3  1  0
  5  4  1  0
  5  6  1  1
  7  8  2  0
  7  5  1  0
  9  7  1  0
 10  9  1  0
 11 10  1  0
 12 11  1  0
 12 13  1  0
 13  9  1  0
 13 14  1  1
 15 14  2  0
 16 14  1  0
 17 16  1  0
 17 18  1  1
 19 18  1  0
 20 19  1  0
 20 21  2  0
 22 17  1  0
 23 22  1  0
 24 20  1  0
 25 22  2  0
M  END
$$$$
