MPE.pdb
     RDKit          3D

 25 25  0  0  1  0  0  0  0  0999 V2000
    5.3528  -18.1932   25.3273 C   0  0  0  0  0  0  0  0  0  0  0  0
    6.9661  -18.1919   24.4828 S   0  0  0  0  0  0  0  0  0  0  0  0
    6.8307  -17.2859   22.9335 C   0  0  0  0  0  0  0  0  0  0  0  0
    6.0646  -16.0018   23.0458 C   0  0  0  0  0  0  0  0  0  0  0  0
    6.8432  -14.7964   22.5201 C   0  0  2  0  0  0  0  0  0  0  0  0
    7.3414  -15.0674   21.2256 N   0  0  0  0  0  0  0  0  0  0  0  0
    7.8216  -14.3879   23.5411 C   0  0  0  0  0  0  0  0  0  0  0  0
    9.0305  -14.5182   23.2187 O   0  0  0  0  0  0  0  0  0  0  0  0
    7.4915  -13.8841   24.7984 N   0  0  0  0  0  0  0  0  0  0  0  0
    6.1001  -13.7075   25.2607 C   0  0  0  0  0  0  0  0  0  0  0  0
    6.1354  -12.6329   26.2992 C   0  0  0  0  0  0  0  0  0  0  0  0
    7.5726  -12.3517   26.5940 C   0  0  0  0  0  0  0  0  0  0  0  0
    8.3523  -13.4488   25.8419 C   0  0  1  0  0  0  0  0  0  0  0  0
    8.7509  -14.5264   26.7854 C   0  0  0  0  0  0  0  0  0  0  0  0
    7.9140  -15.3228   27.2875 O   0  0  0  0  0  0  0  0  0  0  0  0
   10.1075  -14.6862   27.1498 N   0  0  0  0  0  0  0  0  0  0  0  0
   10.6895  -15.8948   27.6493 C   0  0  1  0  0  0  0  0  0  0  0  0
   12.1166  -16.0881   27.1543 C   0  0  0  0  0  0  0  0  0  0  0  0
   12.2003  -16.0431   25.6610 C   0  0  0  0  0  0  0  0  0  0  0  0
   13.6247  -16.1619   25.2280 C   0  0  0  0  0  0  0  0  0  0  0  0
   14.5392  -16.1757   26.0993 O   0  0  0  0  0  0  0  0  0  0  0  0
   10.7549  -15.8206   29.1227 C   0  0  0  0  0  0  0  0  0  0  0  0
   11.2148  -16.9068   29.8337 O   0  0  0  0  0  0  0  0  0  0  0  0
   13.9844  -16.2585   23.8926 O   0  0  0  0  0  0  0  0  0  0  0  0
   10.4053  -14.7990   29.7556 O   0  0  0  0  0  0  0  0  0  0  0  0
  2  1  1  0
  3  2  1  0
  4  3  1  0
  5  4  1  0
  5  6  1  6
  7  8  2  0
  7  5  1  0
  9  7  1  0
 10  9  1  0
 11 10  1  0
 12 11  1  0
 12 13  1  0
 13  9  1  0
 13 14  1  1
 15 14  2  0
 16 14  1  0
 17 16  1  0
 17 18  1  6
 19 18  1  0
 20 19  1  0
 20 21  2  0
 22 17  1  0
 23 22  1  0
 24 20  1  0
 25 22  2  0
M  END
$$$$
