MPE.pdb
     RDKit          3D

 25 25  0  0  1  0  0  0  0  0999 V2000
    6.7837  -11.1417   26.9843 C   0  0  0  0  0  0  0  0  0  0  0  0
    6.7707  -12.8476   27.6212 S   0  0  0  0  0  0  0  0  0  0  0  0
    5.9712  -13.9281   26.4242 C   0  0  0  0  0  0  0  0  0  0  0  0
    6.9053  -14.4913   25.3955 C   0  0  0  0  0  0  0  0  0  0  0  0
    6.5696  -15.9321   25.0120 C   0  0  2  0  0  0  0  0  0  0  0  0
    6.5232  -16.7438   26.1680 N   0  0  0  0  0  0  0  0  0  0  0  0
    7.4785  -16.3550   23.9342 C   0  0  0  0  0  0  0  0  0  0  0  0
    7.8769  -17.5466   23.9951 O   0  0  0  0  0  0  0  0  0  0  0  0
    7.9049  -15.5356   22.8899 N   0  0  0  0  0  0  0  0  0  0  0  0
    7.3698  -14.1796   22.6538 C   0  0  0  0  0  0  0  0  0  0  0  0
    7.5690  -13.8964   21.1997 C   0  0  0  0  0  0  0  0  0  0  0  0
    8.4193  -14.9943   20.6492 C   0  0  0  0  0  0  0  0  0  0  0  0
    8.8722  -15.8000   21.8832 C   0  0  1  0  0  0  0  0  0  0  0  0
   10.2578  -15.4152   22.2607 C   0  0  0  0  0  0  0  0  0  0  0  0
   10.5669  -14.2327   22.5654 O   0  0  0  0  0  0  0  0  0  0  0  0
   11.2835  -16.3879   22.2871 N   0  0  0  0  0  0  0  0  0  0  0  0
   12.4724  -16.3101   23.0802 C   0  0  1  0  0  0  0  0  0  0  0  0
   12.2187  -16.7039   24.5292 C   0  0  0  0  0  0  0  0  0  0  0  0
   11.5371  -18.0316   24.6355 C   0  0  0  0  0  0  0  0  0  0  0  0
   11.4001  -18.4190   26.0714 C   0  0  0  0  0  0  0  0  0  0  0  0
   11.8796  -17.6667   26.9657 O   0  0  0  0  0  0  0  0  0  0  0  0
   13.4664  -17.2629   22.5465 C   0  0  0  0  0  0  0  0  0  0  0  0
   14.7778  -17.1716   22.9573 O   0  0  0  0  0  0  0  0  0  0  0  0
   10.7601  -19.5847   26.4633 O   0  0  0  0  0  0  0  0  0  0  0  0
   13.1597  -18.1584   21.7276 O   0  0  0  0  0  0  0  0  0  0  0  0
  2  1  1  0
  3  2  1  0
  4  3  1  0
  5  4  1  0
  5  6  1  1
  7  8  2  0
  7  5  1  0
  9  7  1  0
 10  9  1  0
 11 10  1  0
 12 11  1  0
 12 13  1  0
 13  9  1  0
 13 14  1  1
 15 14  2  0
 16 14  1  0
 17 16  1  0
 17 18  1  1
 19 18  1  0
 20 19  1  0
 20 21  2  0
 22 17  1  0
 23 22  1  0
 24 20  1  0
 25 22  2  0
M  END
$$$$
