MPE.pdb
     RDKit          3D

 25 25  0  0  1  0  0  0  0  0999 V2000
    6.5344  -11.5161   26.6626 C   0  0  0  0  0  0  0  0  0  0  0  0
    7.6269  -12.6748   27.5455 S   0  0  0  0  0  0  0  0  0  0  0  0
    7.2091  -14.3633   27.0827 C   0  0  0  0  0  0  0  0  0  0  0  0
    7.1810  -14.5978   25.6020 C   0  0  0  0  0  0  0  0  0  0  0  0
    6.7473  -16.0159   25.2322 C   0  0  2  0  0  0  0  0  0  0  0  0
    7.1806  -16.9291   26.2200 N   0  0  0  0  0  0  0  0  0  0  0  0
    7.1593  -16.2861   23.8452 C   0  0  0  0  0  0  0  0  0  0  0  0
    6.9885  -17.4671   23.4475 O   0  0  0  0  0  0  0  0  0  0  0  0
    7.7083  -15.3383   22.9826 N   0  0  0  0  0  0  0  0  0  0  0  0
    8.0302  -13.9574   23.3952 C   0  0  0  0  0  0  0  0  0  0  0  0
    7.9881  -13.1268   22.1531 C   0  0  0  0  0  0  0  0  0  0  0  0
    7.8650  -14.0665   20.9984 C   0  0  0  0  0  0  0  0  0  0  0  0
    8.0498  -15.4699   21.6095 C   0  0  1  0  0  0  0  0  0  0  0  0
    9.4382  -15.9472   21.3753 C   0  0  0  0  0  0  0  0  0  0  0  0
    9.8856  -16.1699   20.2191 O   0  0  0  0  0  0  0  0  0  0  0  0
   10.3080  -16.1675   22.4679 N   0  0  0  0  0  0  0  0  0  0  0  0
   11.6348  -16.6955   22.3712 C   0  0  1  0  0  0  0  0  0  0  0  0
   12.5136  -16.2469   23.5312 C   0  0  0  0  0  0  0  0  0  0  0  0
   13.4769  -15.1781   23.1207 C   0  0  0  0  0  0  0  0  0  0  0  0
   14.7867  -15.3830   23.8083 C   0  0  0  0  0  0  0  0  0  0  0  0
   14.9299  -14.9910   25.0006 O   0  0  0  0  0  0  0  0  0  0  0  0
   11.5683  -18.1695   22.4310 C   0  0  0  0  0  0  0  0  0  0  0  0
   12.5794  -18.9146   21.8656 O   0  0  0  0  0  0  0  0  0  0  0  0
   15.8620  -15.9933   23.1809 O   0  0  0  0  0  0  0  0  0  0  0  0
   10.6197  -18.7730   22.9809 O   0  0  0  0  0  0  0  0  0  0  0  0
  2  1  1  0
  3  2  1  0
  4  3  1  0
  5  4  1  0
  5  6  1  1
  7  8  2  0
  7  5  1  0
  9  7  1  0
 10  9  1  0
 11 10  1  0
 12 11  1  0
 12 13  1  0
 13  9  1  0
 13 14  1  1
 15 14  2  0
 16 14  1  0
 17 16  1  0
 17 18  1  1
 19 18  1  0
 20 19  1  0
 20 21  2  0
 22 17  1  0
 23 22  1  0
 24 20  1  0
 25 22  2  0
M  END
$$$$
