LDS.pdb
     RDKit          3D

 23 22  0  0  1  0  0  0  0  0999 V2000
    8.0865  -12.8933   18.0388 C   0  0  0  0  0  0  0  0  0  0  0  0
    7.5982  -13.3861   19.3778 C   0  0  2  0  0  0  0  0  0  0  0  0
    7.3586  -12.2352   20.3349 C   0  0  0  0  0  0  0  0  0  0  0  0
    8.3650  -14.4983   19.9698 C   0  0  0  0  0  0  0  0  0  0  0  0
    8.5780  -15.7247   19.1705 C   0  0  2  0  0  0  0  0  0  0  0  0
    7.4073  -16.4854   18.8498 N   0  0  0  0  0  0  0  0  0  0  0  0
    9.4871  -16.6321   19.9671 C   0  0  0  0  0  0  0  0  0  0  0  0
    9.0347  -17.5026   20.7537 O   0  0  0  0  0  0  0  0  0  0  0  0
   10.9066  -16.5514   19.8711 N   0  0  0  0  0  0  0  0  0  0  0  0
   11.8048  -17.3429   20.6549 C   0  0  1  0  0  0  0  0  0  0  0  0
   13.1512  -17.4196   19.9769 C   0  0  0  0  0  0  0  0  0  0  0  0
   14.0813  -18.3807   20.5640 C   0  0  0  0  0  0  0  0  0  0  0  0
   13.7586  -19.1180   21.5219 O   0  0  0  0  0  0  0  0  0  0  0  0
   11.9350  -16.8690   22.0533 C   0  0  0  0  0  0  0  0  0  0  0  0
   12.8334  -16.0352   22.3366 O   0  0  0  0  0  0  0  0  0  0  0  0
   15.3651  -18.4967   20.0612 O   0  0  0  0  0  0  0  0  0  0  0  0
    8.9477  -16.1001   24.2341 O   0  0  0  0  0  0  0  0  0  0  0  0
    9.8761  -16.5976   25.1294 C   0  0  0  0  0  0  0  0  0  0  0  0
   11.2044  -16.8920   24.4726 C   0  0  2  0  0  0  0  0  0  0  0  0
   11.0958  -17.3024   23.1165 N   0  0  0  0  0  0  0  0  0  0  0  0
   11.9365  -17.8261   25.3346 C   0  0  0  0  0  0  0  0  0  0  0  0
   12.3741  -18.8904   24.8322 O   0  0  0  0  0  0  0  0  0  0  0  0
   12.1790  -17.6087   26.6799 O   0  0  0  0  0  0  0  0  0  0  0  0
  2  1  1  6
  2  3  1  0
  4  2  1  0
  4  5  1  0
  5  6  1  1
  5  7  1  0
  7  9  1  0
  8  7  2  0
  9 10  1  0
 10 14  1  0
 10 11  1  6
 12 13  2  0
 12 11  1  0
 14 15  2  0
 16 12  1  0
 17 18  1  0
 19 18  1  1
 19 21  1  0
 20 19  1  0
 20 14  1  0
 21 23  1  0
 22 21  2  0
M  END
$$$$
