LDS.pdb
     RDKit          3D

 23 22  0  0  1  0  0  0  0  0999 V2000
    8.2107  -13.2499   21.5719 C   0  0  0  0  0  0  0  0  0  0  0  0
    8.2612  -13.2956   20.0655 C   0  0  2  0  0  0  0  0  0  0  0  0
    7.9994  -11.9292   19.4634 C   0  0  0  0  0  0  0  0  0  0  0  0
    7.4882  -14.3799   19.4311 C   0  0  0  0  0  0  0  0  0  0  0  0
    7.6729  -15.7660   19.9136 C   0  0  2  0  0  0  0  0  0  0  0  0
    8.0274  -15.9166   21.2933 N   0  0  0  0  0  0  0  0  0  0  0  0
    8.7898  -16.3825   19.1030 C   0  0  0  0  0  0  0  0  0  0  0  0
    8.5989  -16.8383   17.9467 O   0  0  0  0  0  0  0  0  0  0  0  0
   10.1201  -16.4813   19.6039 N   0  0  0  0  0  0  0  0  0  0  0  0
   11.2042  -17.0676   18.8768 C   0  0  1  0  0  0  0  0  0  0  0  0
   11.3339  -16.4103   17.5243 C   0  0  0  0  0  0  0  0  0  0  0  0
   11.7449  -17.3031   16.4438 C   0  0  0  0  0  0  0  0  0  0  0  0
   11.3744  -17.1301   15.2613 O   0  0  0  0  0  0  0  0  0  0  0  0
   12.4895  -17.0349   19.6143 C   0  0  0  0  0  0  0  0  0  0  0  0
   13.0069  -15.9231   19.8948 O   0  0  0  0  0  0  0  0  0  0  0  0
   12.5700  -18.3807   16.7129 O   0  0  0  0  0  0  0  0  0  0  0  0
   12.3581  -19.0884   23.4942 O   0  0  0  0  0  0  0  0  0  0  0  0
   12.1272  -18.6578   22.2010 C   0  0  0  0  0  0  0  0  0  0  0  0
   13.3958  -18.5964   21.3829 C   0  0  2  0  0  0  0  0  0  0  0  0
   13.1903  -18.1990   20.0342 N   0  0  0  0  0  0  0  0  0  0  0  0
   14.0964  -19.8754   21.5407 C   0  0  0  0  0  0  0  0  0  0  0  0
   14.8413  -20.0334   22.5392 O   0  0  0  0  0  0  0  0  0  0  0  0
   13.9891  -20.9307   20.6515 O   0  0  0  0  0  0  0  0  0  0  0  0
  2  1  1  1
  2  3  1  0
  4  2  1  0
  4  5  1  0
  5  6  1  1
  5  7  1  0
  7  9  1  0
  8  7  2  0
  9 10  1  0
 10 14  1  0
 10 11  1  6
 12 13  2  0
 12 11  1  0
 14 15  2  0
 16 12  1  0
 17 18  1  0
 19 18  1  6
 19 21  1  0
 20 19  1  0
 20 14  1  0
 21 23  1  0
 22 21  2  0
M  END
$$$$
