LDS.pdb
     RDKit          3D

 23 22  0  0  1  0  0  0  0  0999 V2000
    9.0584  -11.8328   19.1011 C   0  0  0  0  0  0  0  0  0  0  0  0
    8.2463  -13.1022   19.0461 C   0  0  2  0  0  0  0  0  0  0  0  0
    6.7803  -12.8311   19.3211 C   0  0  0  0  0  0  0  0  0  0  0  0
    8.7897  -14.2439   19.8055 C   0  0  0  0  0  0  0  0  0  0  0  0
   10.2478  -14.4917   19.7777 C   0  0  2  0  0  0  0  0  0  0  0  0
   10.8122  -14.8207   18.5029 N   0  0  0  0  0  0  0  0  0  0  0  0
   10.5261  -15.6593   20.6962 C   0  0  0  0  0  0  0  0  0  0  0  0
    9.9433  -15.7885   21.8029 O   0  0  0  0  0  0  0  0  0  0  0  0
   11.4640  -16.6779   20.3592 N   0  0  0  0  0  0  0  0  0  0  0  0
   11.6667  -17.8631   21.1349 C   0  0  1  0  0  0  0  0  0  0  0  0
   12.5065  -18.8497   20.3604 C   0  0  0  0  0  0  0  0  0  0  0  0
   11.9115  -19.3153   19.1103 C   0  0  0  0  0  0  0  0  0  0  0  0
   12.2841  -18.8851   17.9961 O   0  0  0  0  0  0  0  0  0  0  0  0
   12.2497  -17.5957   22.4712 C   0  0  0  0  0  0  0  0  0  0  0  0
   13.3262  -16.9498   22.5521 O   0  0  0  0  0  0  0  0  0  0  0  0
   10.9024  -20.2616   19.1348 O   0  0  0  0  0  0  0  0  0  0  0  0
   10.0940  -18.4660   25.9355 O   0  0  0  0  0  0  0  0  0  0  0  0
   11.1674  -17.6040   26.0603 C   0  0  0  0  0  0  0  0  0  0  0  0
   12.2079  -17.8261   24.9877 C   0  0  2  0  0  0  0  0  0  0  0  0
   11.6619  -18.0290   23.6916 N   0  0  0  0  0  0  0  0  0  0  0  0
   13.1054  -18.8927   25.4441 C   0  0  0  0  0  0  0  0  0  0  0  0
   13.1888  -19.9420   24.7592 O   0  0  0  0  0  0  0  0  0  0  0  0
   13.8745  -18.8175   26.5924 O   0  0  0  0  0  0  0  0  0  0  0  0
  2  1  1  1
  2  3  1  0
  4  2  1  0
  4  5  1  0
  5  6  1  6
  5  7  1  0
  7  9  1  0
  8  7  2  0
  9 10  1  0
 10 14  1  0
 10 11  1  6
 12 13  2  0
 12 11  1  0
 14 15  2  0
 16 12  1  0
 17 18  1  0
 19 18  1  1
 19 21  1  0
 20 19  1  0
 20 14  1  0
 21 23  1  0
 22 21  2  0
M  END
$$$$
