LDS.pdb
     RDKit          3D

 23 22  0  0  1  0  0  0  0  0999 V2000
    8.9562  -12.0773   18.9452 C   0  0  0  0  0  0  0  0  0  0  0  0
    8.0100  -13.1936   19.3093 C   0  0  2  0  0  0  0  0  0  0  0  0
    6.7271  -12.6547   19.9109 C   0  0  0  0  0  0  0  0  0  0  0  0
    8.5990  -14.3093   20.0733 C   0  0  0  0  0  0  0  0  0  0  0  0
    9.9256  -14.8276   19.6734 C   0  0  2  0  0  0  0  0  0  0  0  0
   10.0129  -15.4100   18.3676 N   0  0  0  0  0  0  0  0  0  0  0  0
   10.3073  -15.9054   20.6619 C   0  0  0  0  0  0  0  0  0  0  0  0
    9.5899  -16.1786   21.6578 O   0  0  0  0  0  0  0  0  0  0  0  0
   11.5005  -16.6713   20.5201 N   0  0  0  0  0  0  0  0  0  0  0  0
   11.8913  -17.7123   21.4207 C   0  0  1  0  0  0  0  0  0  0  0  0
   13.0839  -18.4534   20.8669 C   0  0  0  0  0  0  0  0  0  0  0  0
   12.8347  -19.1767   19.6226 C   0  0  0  0  0  0  0  0  0  0  0  0
   11.8769  -19.9717   19.4963 O   0  0  0  0  0  0  0  0  0  0  0  0
   12.1528  -17.2283   22.7972 C   0  0  0  0  0  0  0  0  0  0  0  0
   13.0515  -16.3680   22.9838 O   0  0  0  0  0  0  0  0  0  0  0  0
   13.6712  -18.9925   18.5360 O   0  0  0  0  0  0  0  0  0  0  0  0
    9.2991  -16.9122   25.6833 O   0  0  0  0  0  0  0  0  0  0  0  0
   10.5465  -16.3255   25.7866 C   0  0  0  0  0  0  0  0  0  0  0  0
   11.6465  -17.2249   25.2733 C   0  0  2  0  0  0  0  0  0  0  0  0
   11.4417  -17.6802   23.9429 N   0  0  0  0  0  0  0  0  0  0  0  0
   11.8519  -18.2929   26.2574 C   0  0  0  0  0  0  0  0  0  0  0  0
   12.1304  -17.9751   27.4399 O   0  0  0  0  0  0  0  0  0  0  0  0
   11.7577  -19.6425   25.9649 O   0  0  0  0  0  0  0  0  0  0  0  0
  2  1  1  1
  2  3  1  0
  4  2  1  0
  4  5  1  0
  5  6  1  6
  5  7  1  0
  7  9  1  0
  8  7  2  0
  9 10  1  0
 10 14  1  0
 10 11  1  6
 12 13  2  0
 12 11  1  0
 14 15  2  0
 16 12  1  0
 17 18  1  0
 19 18  1  1
 19 21  1  0
 20 19  1  0
 20 14  1  0
 21 23  1  0
 22 21  2  0
M  END
$$$$
