LDS.pdb
     RDKit          3D

 23 22  0  0  1  0  0  0  0  0999 V2000
    8.4213  -12.4582   25.1990 C   0  0  0  0  0  0  0  0  0  0  0  0
    6.9215  -12.4861   25.0445 C   0  0  2  0  0  0  0  0  0  0  0  0
    6.2266  -12.3559   26.3855 C   0  0  0  0  0  0  0  0  0  0  0  0
    6.3842  -13.5713   24.2024 C   0  0  0  0  0  0  0  0  0  0  0  0
    7.1298  -13.9698   22.9885 C   0  0  2  0  0  0  0  0  0  0  0  0
    6.3413  -14.3201   21.8450 N   0  0  0  0  0  0  0  0  0  0  0  0
    7.9547  -15.1857   23.3428 C   0  0  0  0  0  0  0  0  0  0  0  0
    7.4351  -16.3207   23.4945 O   0  0  0  0  0  0  0  0  0  0  0  0
    9.3662  -15.1133   23.5244 N   0  0  0  0  0  0  0  0  0  0  0  0
   10.1873  -16.2401   23.8466 C   0  0  1  0  0  0  0  0  0  0  0  0
   11.5971  -16.0075   23.3601 C   0  0  0  0  0  0  0  0  0  0  0  0
   12.4834  -17.1634   23.4687 C   0  0  0  0  0  0  0  0  0  0  0  0
   12.9948  -17.5090   24.5570 O   0  0  0  0  0  0  0  0  0  0  0  0
   10.1678  -16.5857   25.2880 C   0  0  0  0  0  0  0  0  0  0  0  0
   10.5790  -15.7424   26.1259 O   0  0  0  0  0  0  0  0  0  0  0  0
   12.7811  -17.9148   22.3457 O   0  0  0  0  0  0  0  0  0  0  0  0
    7.3569  -18.8527   26.8217 O   0  0  0  0  0  0  0  0  0  0  0  0
    8.5249  -19.1529   27.4974 C   0  0  0  0  0  0  0  0  0  0  0  0
    9.6399  -18.1874   27.1703 C   0  0  2  0  0  0  0  0  0  0  0  0
    9.7061  -17.8311   25.7964 N   0  0  0  0  0  0  0  0  0  0  0  0
   10.8856  -18.7349   27.7180 C   0  0  0  0  0  0  0  0  0  0  0  0
   11.8832  -18.8319   26.9615 O   0  0  0  0  0  0  0  0  0  0  0  0
   11.0350  -19.1561   29.0281 O   0  0  0  0  0  0  0  0  0  0  0  0
  2  1  1  1
  2  3  1  0
  4  2  1  0
  4  5  1  0
  5  6  1  6
  5  7  1  0
  7  9  1  0
  8  7  2  0
  9 10  1  0
 10 14  1  0
 10 11  1  1
 12 13  2  0
 12 11  1  0
 14 15  2  0
 16 12  1  0
 17 18  1  0
 19 18  1  6
 19 21  1  0
 20 19  1  0
 20 14  1  0
 21 23  1  0
 22 21  2  0
M  END
$$$$
