LDS.pdb
     RDKit          3D

 23 22  0  0  1  0  0  0  0  0999 V2000
    8.3926  -12.7681   18.8651 C   0  0  0  0  0  0  0  0  0  0  0  0
    7.7411  -13.4880   20.0189 C   0  0  2  0  0  0  0  0  0  0  0  0
    7.0885  -12.5132   20.9792 C   0  0  0  0  0  0  0  0  0  0  0  0
    8.5686  -14.5109   20.6854 C   0  0  0  0  0  0  0  0  0  0  0  0
    9.2810  -15.5063   19.8547 C   0  0  2  0  0  0  0  0  0  0  0  0
    8.4628  -16.3740   19.0613 N   0  0  0  0  0  0  0  0  0  0  0  0
   10.0791  -16.3871   20.7884 C   0  0  0  0  0  0  0  0  0  0  0  0
    9.6003  -17.4406   21.2804 O   0  0  0  0  0  0  0  0  0  0  0  0
   11.4176  -16.0726   21.1628 N   0  0  0  0  0  0  0  0  0  0  0  0
   12.1819  -16.8333   22.1034 C   0  0  1  0  0  0  0  0  0  0  0  0
   13.6447  -16.4806   21.9854 C   0  0  0  0  0  0  0  0  0  0  0  0
   14.2592  -16.8262   20.7062 C   0  0  0  0  0  0  0  0  0  0  0  0
   13.9678  -17.8758   20.0908 O   0  0  0  0  0  0  0  0  0  0  0  0
   11.7060  -16.6867   23.4995 C   0  0  0  0  0  0  0  0  0  0  0  0
   11.7850  -15.5628   24.0590 O   0  0  0  0  0  0  0  0  0  0  0  0
   15.1958  -15.9810   20.1379 O   0  0  0  0  0  0  0  0  0  0  0  0
    8.5679  -18.2590   24.7860 O   0  0  0  0  0  0  0  0  0  0  0  0
    9.3981  -18.3006   25.8906 C   0  0  0  0  0  0  0  0  0  0  0  0
   10.7427  -17.6671   25.6205 C   0  0  2  0  0  0  0  0  0  0  0  0
   11.1553  -17.7525   24.2634 N   0  0  0  0  0  0  0  0  0  0  0  0
   11.7021  -18.2172   26.5841 C   0  0  0  0  0  0  0  0  0  0  0  0
   12.7100  -18.8259   26.1480 O   0  0  0  0  0  0  0  0  0  0  0  0
   11.5675  -18.1079   27.9574 O   0  0  0  0  0  0  0  0  0  0  0  0
  2  1  1  6
  2  3  1  0
  4  2  1  0
  4  5  1  0
  5  6  1  1
  5  7  1  0
  7  9  1  0
  8  7  2  0
  9 10  1  0
 10 14  1  0
 10 11  1  1
 12 13  2  0
 12 11  1  0
 14 15  2  0
 16 12  1  0
 17 18  1  0
 19 18  1  6
 19 21  1  0
 20 19  1  0
 20 14  1  0
 21 23  1  0
 22 21  2  0
M  END
$$$$
