LDS.pdb
     RDKit          3D

 23 22  0  0  1  0  0  0  0  0999 V2000
    6.9708  -11.5997   24.4990 C   0  0  0  0  0  0  0  0  0  0  0  0
    6.3893  -12.3953   25.6405 C   0  0  2  0  0  0  0  0  0  0  0  0
    6.3407  -11.5760   26.9150 C   0  0  0  0  0  0  0  0  0  0  0  0
    6.9459  -13.7483   25.8274 C   0  0  0  0  0  0  0  0  0  0  0  0
    6.5477  -14.8208   24.8896 C   0  0  2  0  0  0  0  0  0  0  0  0
    5.2953  -15.4638   25.1545 N   0  0  0  0  0  0  0  0  0  0  0  0
    7.6126  -15.8918   24.9481 C   0  0  0  0  0  0  0  0  0  0  0  0
    7.4788  -16.9249   25.6523 O   0  0  0  0  0  0  0  0  0  0  0  0
    8.8267  -15.7901   24.2090 N   0  0  0  0  0  0  0  0  0  0  0  0
    9.8509  -16.7894   24.2170 C   0  0  1  0  0  0  0  0  0  0  0  0
   10.8788  -16.4836   23.1548 C   0  0  0  0  0  0  0  0  0  0  0  0
   11.9798  -17.4398   23.0714 C   0  0  0  0  0  0  0  0  0  0  0  0
   11.8158  -18.6623   23.2813 O   0  0  0  0  0  0  0  0  0  0  0  0
   10.4873  -16.9650   25.5441 C   0  0  0  0  0  0  0  0  0  0  0  0
   11.2156  -16.0465   26.0007 O   0  0  0  0  0  0  0  0  0  0  0  0
   13.2530  -17.0026   22.7517 O   0  0  0  0  0  0  0  0  0  0  0  0
    9.4573  -20.1700   28.0930 O   0  0  0  0  0  0  0  0  0  0  0  0
   10.0552  -19.0385   28.6156 C   0  0  0  0  0  0  0  0  0  0  0  0
   10.9455  -18.3454   27.6110 C   0  0  2  0  0  0  0  0  0  0  0  0
   10.3262  -18.1248   26.3512 N   0  0  0  0  0  0  0  0  0  0  0  0
   12.2117  -19.0830   27.5461 C   0  0  0  0  0  0  0  0  0  0  0  0
   12.6055  -19.5039   26.4304 O   0  0  0  0  0  0  0  0  0  0  0  0
   13.0093  -19.3483   28.6458 O   0  0  0  0  0  0  0  0  0  0  0  0
  2  1  1  6
  2  3  1  0
  4  2  1  0
  4  5  1  0
  5  6  1  1
  5  7  1  0
  7  9  1  0
  8  7  2  0
  9 10  1  0
 10 14  1  0
 10 11  1  6
 12 13  2  0
 12 11  1  0
 14 15  2  0
 16 12  1  0
 17 18  1  0
 19 18  1  1
 19 21  1  0
 20 19  1  0
 20 14  1  0
 21 23  1  0
 22 21  2  0
M  END
$$$$
