LDS.pdb
     RDKit          3D

 23 22  0  0  1  0  0  0  0  0999 V2000
    8.5196  -11.6322   19.2042 C   0  0  0  0  0  0  0  0  0  0  0  0
    8.2996  -13.0449   18.7247 C   0  0  2  0  0  0  0  0  0  0  0  0
    6.8256  -13.3991   18.7108 C   0  0  0  0  0  0  0  0  0  0  0  0
    9.1497  -14.0742   19.3519 C   0  0  0  0  0  0  0  0  0  0  0  0
   10.5259  -13.7142   19.7579 C   0  0  2  0  0  0  0  0  0  0  0  0
   11.4283  -13.3625   18.7024 N   0  0  0  0  0  0  0  0  0  0  0  0
   11.1186  -14.9135   20.4615 C   0  0  0  0  0  0  0  0  0  0  0  0
   10.4482  -15.6124   21.2635 O   0  0  0  0  0  0  0  0  0  0  0  0
   12.4692  -15.3183   20.2551 N   0  0  0  0  0  0  0  0  0  0  0  0
   13.0538  -16.4790   20.8538 C   0  0  1  0  0  0  0  0  0  0  0  0
   14.4431  -16.6983   20.3060 C   0  0  0  0  0  0  0  0  0  0  0  0
   14.4986  -17.0250   18.8834 C   0  0  0  0  0  0  0  0  0  0  0  0
   15.0512  -16.2732   18.0499 O   0  0  0  0  0  0  0  0  0  0  0  0
   13.0630  -16.4321   22.3354 C   0  0  0  0  0  0  0  0  0  0  0  0
   13.8309  -15.6240   22.9181 O   0  0  0  0  0  0  0  0  0  0  0  0
   13.9286  -18.1976   18.4202 O   0  0  0  0  0  0  0  0  0  0  0  0
    9.8410  -17.5631   24.6700 O   0  0  0  0  0  0  0  0  0  0  0  0
   10.8922  -16.8105   25.1593 C   0  0  0  0  0  0  0  0  0  0  0  0
   12.2203  -17.2361   24.5783 C   0  0  2  0  0  0  0  0  0  0  0  0
   12.2456  -17.2557   23.1577 N   0  0  0  0  0  0  0  0  0  0  0  0
   12.6045  -18.5022   25.2115 C   0  0  0  0  0  0  0  0  0  0  0  0
   12.6781  -18.5497   26.4642 O   0  0  0  0  0  0  0  0  0  0  0  0
   12.8942  -19.6604   24.5111 O   0  0  0  0  0  0  0  0  0  0  0  0
  2  1  1  1
  2  3  1  0
  4  2  1  0
  4  5  1  0
  5  6  1  6
  5  7  1  0
  7  9  1  0
  8  7  2  0
  9 10  1  0
 10 14  1  0
 10 11  1  6
 12 13  2  0
 12 11  1  0
 14 15  2  0
 16 12  1  0
 17 18  1  0
 19 18  1  6
 19 21  1  0
 20 19  1  0
 20 14  1  0
 21 23  1  0
 22 21  2  0
M  END
$$$$
