LDS.pdb
     RDKit          3D

 23 22  0  0  1  0  0  0  0  0999 V2000
    8.5533  -12.6646   18.5646 C   0  0  0  0  0  0  0  0  0  0  0  0
    7.8089  -13.4362   19.6251 C   0  0  2  0  0  0  0  0  0  0  0  0
    7.1813  -12.5066   20.6449 C   0  0  0  0  0  0  0  0  0  0  0  0
    8.5400  -14.5674   20.2264 C   0  0  0  0  0  0  0  0  0  0  0  0
    9.1682  -15.5670   19.3351 C   0  0  2  0  0  0  0  0  0  0  0  0
    8.2759  -16.4180   18.6060 N   0  0  0  0  0  0  0  0  0  0  0  0
   10.0267  -16.4650   20.1960 C   0  0  0  0  0  0  0  0  0  0  0  0
    9.5721  -17.5108   20.7259 O   0  0  0  0  0  0  0  0  0  0  0  0
   11.3979  -16.1764   20.4548 N   0  0  0  0  0  0  0  0  0  0  0  0
   12.2467  -16.9976   21.2627 C   0  0  1  0  0  0  0  0  0  0  0  0
   13.6731  -16.8988   20.7791 C   0  0  0  0  0  0  0  0  0  0  0  0
   14.6076  -17.8136   21.4297 C   0  0  0  0  0  0  0  0  0  0  0  0
   14.2274  -18.6847   22.2433 O   0  0  0  0  0  0  0  0  0  0  0  0
   12.1493  -16.6943   22.7104 C   0  0  0  0  0  0  0  0  0  0  0  0
   12.7517  -15.6892   23.1678 O   0  0  0  0  0  0  0  0  0  0  0  0
   15.9608  -17.7327   21.1528 O   0  0  0  0  0  0  0  0  0  0  0  0
    9.0746  -18.1824   25.1163 O   0  0  0  0  0  0  0  0  0  0  0  0
    9.8371  -17.0899   25.4850 C   0  0  0  0  0  0  0  0  0  0  0  0
   11.2706  -17.2101   25.0233 C   0  0  2  0  0  0  0  0  0  0  0  0
   11.4058  -17.4790   23.6345 N   0  0  0  0  0  0  0  0  0  0  0  0
   11.9470  -18.1734   25.8985 C   0  0  0  0  0  0  0  0  0  0  0  0
   12.4702  -19.1910   25.3813 O   0  0  0  0  0  0  0  0  0  0  0  0
   12.0472  -18.0325   27.2719 O   0  0  0  0  0  0  0  0  0  0  0  0
  2  1  1  1
  2  3  1  0
  4  2  1  0
  4  5  1  0
  5  6  1  1
  5  7  1  0
  7  9  1  0
  8  7  2  0
  9 10  1  0
 10 14  1  0
 10 11  1  6
 12 13  2  0
 12 11  1  0
 14 15  2  0
 16 12  1  0
 17 18  1  0
 19 18  1  1
 19 21  1  0
 20 19  1  0
 20 14  1  0
 21 23  1  0
 22 21  2  0
M  END
$$$$
