LDS.pdb
     RDKit          3D

 23 22  0  0  1  0  0  0  0  0999 V2000
    5.7415  -12.4672   25.4270 C   0  0  0  0  0  0  0  0  0  0  0  0
    6.6892  -13.1310   26.3941 C   0  0  2  0  0  0  0  0  0  0  0  0
    7.4429  -12.1062   27.2186 C   0  0  0  0  0  0  0  0  0  0  0  0
    7.5519  -14.1835   25.8254 C   0  0  0  0  0  0  0  0  0  0  0  0
    6.9335  -15.2510   25.0091 C   0  0  2  0  0  0  0  0  0  0  0  0
    6.0225  -16.1232   25.6884 N   0  0  0  0  0  0  0  0  0  0  0  0
    8.0512  -16.1150   24.4718 C   0  0  0  0  0  0  0  0  0  0  0  0
    8.3916  -17.1872   25.0335 O   0  0  0  0  0  0  0  0  0  0  0  0
    8.7806  -15.7626   23.2995 N   0  0  0  0  0  0  0  0  0  0  0  0
    9.8526  -16.5439   22.7627 C   0  0  1  0  0  0  0  0  0  0  0  0
   10.2014  -16.0585   21.3766 C   0  0  0  0  0  0  0  0  0  0  0  0
    9.1781  -16.3041   20.3636 C   0  0  0  0  0  0  0  0  0  0  0  0
    8.4217  -17.2996   20.4106 O   0  0  0  0  0  0  0  0  0  0  0  0
   11.0493  -16.5750   23.6368 C   0  0  0  0  0  0  0  0  0  0  0  0
   11.6509  -15.4998   23.8905 O   0  0  0  0  0  0  0  0  0  0  0  0
    9.0222  -15.4213   19.3097 O   0  0  0  0  0  0  0  0  0  0  0  0
   11.7064  -19.6732   26.2618 O   0  0  0  0  0  0  0  0  0  0  0  0
   12.4142  -18.4948   26.4079 C   0  0  0  0  0  0  0  0  0  0  0  0
   12.6999  -17.8303   25.0815 C   0  0  2  0  0  0  0  0  0  0  0  0
   11.5727  -17.7623   24.2189 N   0  0  0  0  0  0  0  0  0  0  0  0
   13.8766  -18.4810   24.4954 C   0  0  0  0  0  0  0  0  0  0  0  0
   14.9269  -18.5527   25.1799 O   0  0  0  0  0  0  0  0  0  0  0  0
   13.9053  -19.0268   23.2238 O   0  0  0  0  0  0  0  0  0  0  0  0
  2  1  1  6
  2  3  1  0
  4  2  1  0
  4  5  1  0
  5  6  1  1
  5  7  1  0
  7  9  1  0
  8  7  2  0
  9 10  1  0
 10 14  1  0
 10 11  1  6
 12 13  2  0
 12 11  1  0
 14 15  2  0
 16 12  1  0
 17 18  1  0
 19 18  1  1
 19 21  1  0
 20 19  1  0
 20 14  1  0
 21 23  1  0
 22 21  2  0
M  END
$$$$
