LDS.pdb
     RDKit          3D

 23 22  0  0  1  0  0  0  0  0999 V2000
    7.1739  -11.7560   24.7705 C   0  0  0  0  0  0  0  0  0  0  0  0
    6.4651  -12.8374   25.5465 C   0  0  2  0  0  0  0  0  0  0  0  0
    6.0156  -12.3368   26.9050 C   0  0  0  0  0  0  0  0  0  0  0  0
    7.1472  -14.1443   25.5934 C   0  0  0  0  0  0  0  0  0  0  0  0
    7.4301  -14.8488   24.3238 C   0  0  2  0  0  0  0  0  0  0  0  0
    6.2983  -15.3863   23.6295 N   0  0  0  0  0  0  0  0  0  0  0  0
    8.3417  -16.0110   24.6443 C   0  0  0  0  0  0  0  0  0  0  0  0
    7.8941  -17.1188   25.0361 O   0  0  0  0  0  0  0  0  0  0  0  0
    9.7581  -15.9158   24.5203 N   0  0  0  0  0  0  0  0  0  0  0  0
   10.6653  -16.9416   24.9353 C   0  0  1  0  0  0  0  0  0  0  0  0
   12.0630  -16.6144   24.4686 C   0  0  0  0  0  0  0  0  0  0  0  0
   12.2351  -16.5821   23.0185 C   0  0  0  0  0  0  0  0  0  0  0  0
   11.5214  -17.2634   22.2491 O   0  0  0  0  0  0  0  0  0  0  0  0
   10.6335  -17.1959   26.3953 C   0  0  0  0  0  0  0  0  0  0  0  0
   10.9164  -16.2599   27.1867 O   0  0  0  0  0  0  0  0  0  0  0  0
   13.2119  -15.7801   22.4555 O   0  0  0  0  0  0  0  0  0  0  0  0
    8.9030  -20.6922   28.0172 O   0  0  0  0  0  0  0  0  0  0  0  0
    9.0533  -19.5512   28.7828 C   0  0  0  0  0  0  0  0  0  0  0  0
   10.2533  -18.7345   28.3640 C   0  0  2  0  0  0  0  0  0  0  0  0
   10.2978  -18.4518   26.9721 N   0  0  0  0  0  0  0  0  0  0  0  0
   11.4533  -19.3940   28.8898 C   0  0  0  0  0  0  0  0  0  0  0  0
   12.3588  -19.7248   28.0851 O   0  0  0  0  0  0  0  0  0  0  0  0
   11.6551  -19.6786   30.2293 O   0  0  0  0  0  0  0  0  0  0  0  0
  2  1  1  1
  2  3  1  0
  4  2  1  0
  4  5  1  0
  5  6  1  1
  5  7  1  0
  7  9  1  0
  8  7  2  0
  9 10  1  0
 10 14  1  0
 10 11  1  1
 12 13  2  0
 12 11  1  0
 14 15  2  0
 16 12  1  0
 17 18  1  0
 19 18  1  6
 19 21  1  0
 20 19  1  0
 20 14  1  0
 21 23  1  0
 22 21  2  0
M  END
$$$$
