SDP.pdb
     RDKit          3D

 22 22  0  0  1  0  0  0  0  0999 V2000
    9.2490  -16.7719   19.5729 O   0  0  0  0  0  0  0  0  0  0  0  0
    8.1085  -16.3197   20.2099 C   0  0  0  0  0  0  0  0  0  0  0  0
    7.4066  -17.4683   20.9036 C   0  0  2  0  0  0  0  0  0  0  0  0
    6.2196  -17.8505   20.1640 N   0  0  0  0  0  0  0  0  0  0  0  0
    7.0533  -17.0566   22.3042 C   0  0  0  0  0  0  0  0  0  0  0  0
    5.9336  -16.5189   22.4372 O   0  0  0  0  0  0  0  0  0  0  0  0
    7.9738  -17.2932   23.3470 N   0  0  0  0  0  0  0  0  0  0  0  0
    7.6757  -16.8774   24.7196 C   0  0  1  0  0  0  0  0  0  0  0  0
    8.1560  -18.0117   25.6004 C   0  0  0  0  0  0  0  0  0  0  0  0
    7.2501  -19.1829   25.4602 C   0  0  0  0  0  0  0  0  0  0  0  0
    6.0308  -19.0165   25.6656 O   0  0  0  0  0  0  0  0  0  0  0  0
    8.2634  -15.5752   24.9794 C   0  0  0  0  0  0  0  0  0  0  0  0
    9.4122  -15.3416   24.4401 O   0  0  0  0  0  0  0  0  0  0  0  0
    7.7125  -20.4339   25.1137 O   0  0  0  0  0  0  0  0  0  0  0  0
    7.7323  -14.5097   25.7551 N   0  0  0  0  0  0  0  0  0  0  0  0
    6.3322  -14.5227   26.2121 C   0  0  0  0  0  0  0  0  0  0  0  0
    5.9538  -13.0613   26.3291 C   0  0  0  0  0  0  0  0  0  0  0  0
    7.2241  -12.3581   26.6996 C   0  0  0  0  0  0  0  0  0  0  0  0
    8.3122  -13.3085   26.2551 C   0  0  1  0  0  0  0  0  0  0  0  0
    9.3064  -13.5348   27.3211 C   0  0  0  0  0  0  0  0  0  0  0  0
    9.3167  -14.6053   27.9486 O   0  0  0  0  0  0  0  0  0  0  0  0
   10.2236  -12.5595   27.6215 O   0  0  0  0  0  0  0  0  0  0  0  0
  1  2  1  0
  3  5  1  0
  3  2  1  0
  3  4  1  6
  5  7  1  0
  6  5  2  0
  7  8  1  0
  8 12  1  0
  9 10  1  0
  8  9  1  1
 10 14  1  0
 11 10  2  0
 12 13  2  0
 12 15  1  0
 15 19  1  0
 16 15  1  0
 16 17  1  0
 17 18  1  0
 19 18  1  0
 19 20  1  1
 20 22  1  0
 21 20  2  0
M  END
$$$$
