SDP.pdb
     RDKit          3D

 22 22  0  0  1  0  0  0  0  0999 V2000
    9.8942  -14.7005   19.8444 O   0  0  0  0  0  0  0  0  0  0  0  0
   10.3781  -15.8288   20.4800 C   0  0  0  0  0  0  0  0  0  0  0  0
    9.2876  -16.8735   20.5929 C   0  0  2  0  0  0  0  0  0  0  0  0
    8.7198  -17.1487   19.2876 N   0  0  0  0  0  0  0  0  0  0  0  0
    8.2316  -16.3831   21.5418 C   0  0  0  0  0  0  0  0  0  0  0  0
    7.0533  -16.5358   21.1560 O   0  0  0  0  0  0  0  0  0  0  0  0
    8.6197  -15.8009   22.7669 N   0  0  0  0  0  0  0  0  0  0  0  0
    7.8062  -15.9765   23.9724 C   0  0  1  0  0  0  0  0  0  0  0  0
    7.7057  -17.4731   24.1795 C   0  0  0  0  0  0  0  0  0  0  0  0
    6.9845  -17.7636   25.4473 C   0  0  0  0  0  0  0  0  0  0  0  0
    7.3034  -18.7846   26.0896 O   0  0  0  0  0  0  0  0  0  0  0  0
    8.3797  -15.2176   25.0696 C   0  0  0  0  0  0  0  0  0  0  0  0
    9.6136  -15.4612   25.3580 O   0  0  0  0  0  0  0  0  0  0  0  0
    5.9844  -16.9472   25.9292 O   0  0  0  0  0  0  0  0  0  0  0  0
    7.7552  -14.2274   25.8749 N   0  0  0  0  0  0  0  0  0  0  0  0
    6.3142  -13.9461   25.7580 C   0  0  0  0  0  0  0  0  0  0  0  0
    6.1740  -12.4924   26.1574 C   0  0  0  0  0  0  0  0  0  0  0  0
    7.2616  -12.2572   27.1611 C   0  0  0  0  0  0  0  0  0  0  0  0
    8.2581  -13.3601   26.8869 C   0  0  1  0  0  0  0  0  0  0  0  0
    8.6463  -14.0631   28.1243 C   0  0  0  0  0  0  0  0  0  0  0  0
    9.2980  -13.4727   28.9998 O   0  0  0  0  0  0  0  0  0  0  0  0
    8.2864  -15.3742   28.3098 O   0  0  0  0  0  0  0  0  0  0  0  0
  1  2  1  0
  3  5  1  0
  3  2  1  0
  3  4  1  6
  5  7  1  0
  6  5  2  0
  7  8  1  0
  8 12  1  0
  9 10  1  0
  8  9  1  1
 10 14  1  0
 11 10  2  0
 12 13  2  0
 12 15  1  0
 15 19  1  0
 16 15  1  0
 16 17  1  0
 17 18  1  0
 19 18  1  0
 19 20  1  1
 20 22  1  0
 21 20  2  0
M  END
$$$$
