SDP.pdb
     RDKit          3D

 22 22  0  0  1  0  0  0  0  0999 V2000
    9.3766  -12.3786   18.9667 O   0  0  0  0  0  0  0  0  0  0  0  0
    8.5229  -12.6405   20.0220 C   0  0  0  0  0  0  0  0  0  0  0  0
    8.0800  -14.0882   19.9894 C   0  0  2  0  0  0  0  0  0  0  0  0
    7.1618  -14.3070   18.8889 N   0  0  0  0  0  0  0  0  0  0  0  0
    7.4344  -14.4358   21.3003 C   0  0  0  0  0  0  0  0  0  0  0  0
    6.2239  -14.1422   21.3949 O   0  0  0  0  0  0  0  0  0  0  0  0
    8.2059  -15.0505   22.3091 N   0  0  0  0  0  0  0  0  0  0  0  0
    7.6061  -15.4161   23.5946 C   0  0  1  0  0  0  0  0  0  0  0  0
    7.6014  -16.9300   23.6240 C   0  0  0  0  0  0  0  0  0  0  0  0
    7.1774  -17.4111   24.9659 C   0  0  0  0  0  0  0  0  0  0  0  0
    5.9599  -17.4092   25.2384 O   0  0  0  0  0  0  0  0  0  0  0  0
    8.3185  -14.7592   24.6761 C   0  0  0  0  0  0  0  0  0  0  0  0
    9.6020  -14.8918   24.6873 O   0  0  0  0  0  0  0  0  0  0  0  0
    8.0800  -17.8546   25.9081 O   0  0  0  0  0  0  0  0  0  0  0  0
    7.7828  -13.9768   25.7343 N   0  0  0  0  0  0  0  0  0  0  0  0
    6.3552  -13.6159   25.7695 C   0  0  0  0  0  0  0  0  0  0  0  0
    6.3102  -12.3037   26.5235 C   0  0  0  0  0  0  0  0  0  0  0  0
    7.4505  -12.3720   27.4934 C   0  0  0  0  0  0  0  0  0  0  0  0
    8.3740  -13.4116   26.9006 C   0  0  1  0  0  0  0  0  0  0  0  0
    8.7761  -14.4171   27.9023 C   0  0  0  0  0  0  0  0  0  0  0  0
    8.3080  -15.5654   27.8575 O   0  0  0  0  0  0  0  0  0  0  0  0
    9.6707  -14.0835   28.8878 O   0  0  0  0  0  0  0  0  0  0  0  0
  1  2  1  0
  3  5  1  0
  3  2  1  0
  3  4  1  6
  5  7  1  0
  6  5  2  0
  7  8  1  0
  8 12  1  0
  9 10  1  0
  8  9  1  1
 10 14  1  0
 11 10  2  0
 12 13  2  0
 12 15  1  0
 15 19  1  0
 16 15  1  0
 16 17  1  0
 17 18  1  0
 19 18  1  0
 19 20  1  1
 20 22  1  0
 21 20  2  0
M  END
$$$$
