SDP.pdb
     RDKit          3D

 22 22  0  0  1  0  0  0  0  0999 V2000
   10.3440  -12.6749   20.6549 O   0  0  0  0  0  0  0  0  0  0  0  0
   10.0031  -13.8652   20.0400 C   0  0  0  0  0  0  0  0  0  0  0  0
    8.5032  -13.9427   19.8459 C   0  0  2  0  0  0  0  0  0  0  0  0
    8.0272  -12.7671   19.1435 N   0  0  0  0  0  0  0  0  0  0  0  0
    7.8385  -14.0689   21.1869 C   0  0  0  0  0  0  0  0  0  0  0  0
    7.1904  -13.0679   21.5589 O   0  0  0  0  0  0  0  0  0  0  0  0
    7.9811  -15.2666   21.9190 N   0  0  0  0  0  0  0  0  0  0  0  0
    7.2718  -15.4607   23.1858 C   0  0  1  0  0  0  0  0  0  0  0  0
    7.0210  -16.9507   23.2862 C   0  0  0  0  0  0  0  0  0  0  0  0
    6.5349  -17.2938   24.6493 C   0  0  0  0  0  0  0  0  0  0  0  0
    5.3065  -17.2638   24.8650 O   0  0  0  0  0  0  0  0  0  0  0  0
    8.0306  -14.8669   24.2722 C   0  0  0  0  0  0  0  0  0  0  0  0
    9.3107  -15.0266   24.2379 O   0  0  0  0  0  0  0  0  0  0  0  0
    7.3922  -17.6404   25.6710 O   0  0  0  0  0  0  0  0  0  0  0  0
    7.5444  -14.1208   25.3794 N   0  0  0  0  0  0  0  0  0  0  0  0
    6.1016  -13.8985   25.5753 C   0  0  0  0  0  0  0  0  0  0  0  0
    6.0143  -12.5834   26.3205 C   0  0  0  0  0  0  0  0  0  0  0  0
    7.2583  -12.5241   27.1539 C   0  0  0  0  0  0  0  0  0  0  0  0
    8.2058  -13.4805   26.4664 C   0  0  1  0  0  0  0  0  0  0  0  0
    8.8152  -14.4243   27.4224 C   0  0  0  0  0  0  0  0  0  0  0  0
    8.4041  -15.5930   27.4944 O   0  0  0  0  0  0  0  0  0  0  0  0
    9.8400  -14.0106   28.2357 O   0  0  0  0  0  0  0  0  0  0  0  0
  1  2  1  0
  3  5  1  0
  3  2  1  0
  3  4  1  1
  5  7  1  0
  6  5  2  0
  7  8  1  0
  8 12  1  0
  9 10  1  0
  8  9  1  1
 10 14  1  0
 11 10  2  0
 12 13  2  0
 12 15  1  0
 15 19  1  0
 16 15  1  0
 16 17  1  0
 17 18  1  0
 19 18  1  0
 19 20  1  1
 20 22  1  0
 21 20  2  0
M  END
$$$$
