SDP.pdb
     RDKit          3D

 22 22  0  0  1  0  0  0  0  0999 V2000
   10.0353  -13.1047   20.2757 O   0  0  0  0  0  0  0  0  0  0  0  0
    9.4150  -14.2927   19.9363 C   0  0  0  0  0  0  0  0  0  0  0  0
    7.9143  -14.1621   20.0919 C   0  0  2  0  0  0  0  0  0  0  0  0
    7.4597  -12.9046   19.5317 N   0  0  0  0  0  0  0  0  0  0  0  0
    7.5598  -14.2569   21.5484 C   0  0  0  0  0  0  0  0  0  0  0  0
    7.2183  -13.1826   22.0867 O   0  0  0  0  0  0  0  0  0  0  0  0
    7.6311  -15.5078   22.1972 N   0  0  0  0  0  0  0  0  0  0  0  0
    7.0990  -15.6826   23.5507 C   0  0  1  0  0  0  0  0  0  0  0  0
    6.9194  -17.1758   23.7262 C   0  0  0  0  0  0  0  0  0  0  0  0
    6.6075  -17.4869   25.1468 C   0  0  0  0  0  0  0  0  0  0  0  0
    5.6676  -16.8758   25.6943 O   0  0  0  0  0  0  0  0  0  0  0  0
    7.9687  -15.0273   24.5113 C   0  0  0  0  0  0  0  0  0  0  0  0
    9.2329  -15.2608   24.3996 O   0  0  0  0  0  0  0  0  0  0  0  0
    7.3184  -18.4206   25.8692 O   0  0  0  0  0  0  0  0  0  0  0  0
    7.6076  -14.1492   25.5684 N   0  0  0  0  0  0  0  0  0  0  0  0
    6.2006  -13.7908   25.8158 C   0  0  0  0  0  0  0  0  0  0  0  0
    6.2604  -12.4128   26.4404 C   0  0  0  0  0  0  0  0  0  0  0  0
    7.5513  -12.3850   27.2007 C   0  0  0  0  0  0  0  0  0  0  0  0
    8.3793  -13.4737   26.5570 C   0  0  1  0  0  0  0  0  0  0  0  0
    8.9668  -14.3778   27.5637 C   0  0  0  0  0  0  0  0  0  0  0  0
    8.5630  -15.5468   27.6647 O   0  0  0  0  0  0  0  0  0  0  0  0
    9.9633  -13.9267   28.3921 O   0  0  0  0  0  0  0  0  0  0  0  0
  1  2  1  0
  3  5  1  0
  3  2  1  0
  3  4  1  1
  5  7  1  0
  6  5  2  0
  7  8  1  0
  8 12  1  0
  9 10  1  0
  8  9  1  1
 10 14  1  0
 11 10  2  0
 12 13  2  0
 12 15  1  0
 15 19  1  0
 16 15  1  0
 16 17  1  0
 17 18  1  0
 19 18  1  0
 19 20  1  1
 20 22  1  0
 21 20  2  0
M  END
$$$$
