KRP.pdb
     RDKit          3D

 28 28  0  0  1  0  0  0  0  0999 V2000
    7.5345  -13.0974   18.9642 N   0  0  0  0  0  0  0  0  0  0  0  0
    8.3784  -13.8217   19.8645 C   0  0  1  0  0  0  0  0  0  0  0  0
    9.7745  -13.2847   19.9996 C   0  0  0  0  0  0  0  0  0  0  0  0
   10.8489  -14.1716   19.5035 C   0  0  0  0  0  0  0  0  0  0  0  0
   12.2508  -13.7206   19.7013 C   0  0  0  0  0  0  0  0  0  0  0  0
   13.2699  -14.6694   19.1087 C   0  0  0  0  0  0  0  0  0  0  0  0
   14.6203  -14.1320   19.1838 N   0  0  0  0  0  0  0  0  0  0  0  0
    7.7561  -14.0922   21.1826 C   0  0  0  0  0  0  0  0  0  0  0  0
    6.7770  -13.3716   21.5462 O   0  0  0  0  0  0  0  0  0  0  0  0
    6.2557  -22.3037   25.3858 N   0  0  0  0  0  0  0  0  0  0  0  0
    6.9053  -21.1167   25.8337 C   0  0  0  0  0  0  0  0  0  0  0  0
    7.9356  -21.1556   26.6178 N   0  0  0  0  0  0  0  0  0  0  0  0
    6.4439  -19.8341   25.4357 N   0  0  0  0  0  0  0  0  0  0  0  0
    7.2159  -19.0554   24.4337 C   0  0  0  0  0  0  0  0  0  0  0  0
    6.5710  -17.7424   24.1874 C   0  0  0  0  0  0  0  0  0  0  0  0
    7.2052  -16.9041   23.1864 C   0  0  0  0  0  0  0  0  0  0  0  0
    7.2925  -15.4190   23.3024 C   0  0  2  0  0  0  0  0  0  0  0  0
    8.1680  -15.0870   22.0650 N   0  0  0  0  0  0  0  0  0  0  0  0
    8.1193  -14.9391   24.3862 C   0  0  0  0  0  0  0  0  0  0  0  0
    9.3059  -15.5382   24.3643 O   0  0  0  0  0  0  0  0  0  0  0  0
    8.4675  -20.2727   26.7473 N   0  0  0  0  0  0  0  0  0  0  0  0
    7.9096  -13.9924   25.4008 C   0  0  0  0  0  0  0  0  0  0  0  0
    7.1187  -12.7524   25.0702 C   0  0  0  0  0  0  0  0  0  0  0  0
    6.0626  -12.8837   26.1601 C   0  0  0  0  0  0  0  0  0  0  0  0
    6.6930  -13.7162   27.2684 C   0  0  2  0  0  0  0  0  0  0  0  0
    8.1457  -13.7226   26.7574 C   0  0  0  0  0  0  0  0  0  0  0  0
    9.0292  -14.4642   27.5897 O   0  0  0  0  0  0  0  0  0  0  0  0
    9.6854  -13.8553   28.5177 O   0  0  0  0  0  0  0  0  0  0  0  0
  2  1  1  1
  3  2  1  0
  4  3  1  0
  5  4  1  0
  5  6  1  0
  7  6  1  0
  8  2  1  0
  9  8  2  0
 10 11  1  0
 11 12  2  0
 13 11  1  0
 13 14  1  0
 14 15  1  0
 16 15  1  0
 17 16  1  1
 17 18  1  0
 18  8  1  0
 19 21  1  0
 19 17  1  0
 20 19  2  0
 21 22  1  0
 23 22  1  0
 24 23  1  0
 25 26  1  1
 25 21  1  0
 25 24  1  0
 26 28  1  0
 27 26  2  0
M  END
$$$$
