KRP.pdb
     RDKit          3D

 28 28  0  0  1  0  0  0  0  0999 V2000
    7.1704  -15.9238   19.2710 N   0  0  0  0  0  0  0  0  0  0  0  0
    7.7843  -15.0717   20.2428 C   0  0  1  0  0  0  0  0  0  0  0  0
    8.0281  -13.6609   19.7891 C   0  0  0  0  0  0  0  0  0  0  0  0
    7.9080  -13.4302   18.3333 C   0  0  0  0  0  0  0  0  0  0  0  0
    9.0433  -13.8641   17.4785 C   0  0  0  0  0  0  0  0  0  0  0  0
    8.8440  -13.5374   16.0144 C   0  0  0  0  0  0  0  0  0  0  0  0
    9.8376  -14.1874   15.1728 N   0  0  0  0  0  0  0  0  0  0  0  0
    7.1409  -15.1239   21.5773 C   0  0  0  0  0  0  0  0  0  0  0  0
    5.9111  -15.4296   21.6421 O   0  0  0  0  0  0  0  0  0  0  0  0
    9.0257  -19.4375   26.8636 N   0  0  0  0  0  0  0  0  0  0  0  0
    7.7360  -19.9727   27.1498 C   0  0  0  0  0  0  0  0  0  0  0  0
    7.5293  -20.7535   28.1624 N   0  0  0  0  0  0  0  0  0  0  0  0
    6.6181  -19.6693   26.3285 N   0  0  0  0  0  0  0  0  0  0  0  0
    6.8244  -18.9499   25.0454 C   0  0  0  0  0  0  0  0  0  0  0  0
    6.8639  -17.4845   25.2723 C   0  0  0  0  0  0  0  0  0  0  0  0
    7.0858  -16.6677   24.0931 C   0  0  0  0  0  0  0  0  0  0  0  0
    7.0697  -15.1758   24.1193 C   0  0  2  0  0  0  0  0  0  0  0  0
    7.7884  -14.8590   22.7809 N   0  0  0  0  0  0  0  0  0  0  0  0
    7.9616  -14.5726   25.0831 C   0  0  0  0  0  0  0  0  0  0  0  0
    9.1570  -15.1525   25.0347 O   0  0  0  0  0  0  0  0  0  0  0  0
    6.5418  -20.9679   28.4030 N   0  0  0  0  0  0  0  0  0  0  0  0
    7.8044  -13.5285   26.0077 C   0  0  0  0  0  0  0  0  0  0  0  0
    7.0306  -12.3067   25.5824 C   0  0  0  0  0  0  0  0  0  0  0  0
    6.0066  -12.3073   26.7102 C   0  0  0  0  0  0  0  0  0  0  0  0
    6.6532  -13.0453   27.8746 C   0  0  2  0  0  0  0  0  0  0  0  0
    8.0886  -13.1363   27.3245 C   0  0  0  0  0  0  0  0  0  0  0  0
    8.9815  -13.8164   28.1983 O   0  0  0  0  0  0  0  0  0  0  0  0
    9.0755  -15.1007   28.1333 O   0  0  0  0  0  0  0  0  0  0  0  0
  2  1  1  6
  3  2  1  0
  4  3  1  0
  5  4  1  0
  5  6  1  0
  7  6  1  0
  8  2  1  0
  9  8  2  0
 10 11  1  0
 11 12  2  0
 13 11  1  0
 13 14  1  0
 14 15  1  0
 16 15  1  0
 17 16  1  1
 17 18  1  0
 18  8  1  0
 19 21  1  0
 19 17  1  0
 20 19  2  0
 21 22  1  0
 23 22  1  0
 24 23  1  0
 25 26  1  1
 25 21  1  0
 25 24  1  0
 26 28  1  0
 27 26  2  0
M  END
$$$$
