KRP.pdb
     RDKit          3D

 28 28  0  0  1  0  0  0  0  0999 V2000
    7.2234  -17.0555   19.6220 N   0  0  0  0  0  0  0  0  0  0  0  0
    7.6847  -15.9250   20.3680 C   0  0  1  0  0  0  0  0  0  0  0  0
    7.6324  -14.6147   19.6359 C   0  0  0  0  0  0  0  0  0  0  0  0
    8.1979  -14.6256   18.2695 C   0  0  0  0  0  0  0  0  0  0  0  0
    8.2230  -13.3360   17.5318 C   0  0  0  0  0  0  0  0  0  0  0  0
    8.8077  -13.4575   16.1414 C   0  0  0  0  0  0  0  0  0  0  0  0
    8.9189  -12.1638   15.4841 N   0  0  0  0  0  0  0  0  0  0  0  0
    7.1026  -15.8264   21.7279 C   0  0  0  0  0  0  0  0  0  0  0  0
    5.9275  -16.2675   21.9141 O   0  0  0  0  0  0  0  0  0  0  0  0
    8.9922  -21.0235   27.2540 N   0  0  0  0  0  0  0  0  0  0  0  0
    7.7273  -20.5907   27.7483 C   0  0  0  0  0  0  0  0  0  0  0  0
    7.1121  -21.2218   28.6975 N   0  0  0  0  0  0  0  0  0  0  0  0
    7.0860  -19.4418   27.2144 N   0  0  0  0  0  0  0  0  0  0  0  0
    7.6711  -18.7580   26.0327 C   0  0  0  0  0  0  0  0  0  0  0  0
    6.8012  -17.6381   25.5972 C   0  0  0  0  0  0  0  0  0  0  0  0
    7.2240  -16.9383   24.3979 C   0  0  0  0  0  0  0  0  0  0  0  0
    7.1360  -15.4566   24.2441 C   0  0  2  0  0  0  0  0  0  0  0  0
    7.7521  -15.2792   22.8309 N   0  0  0  0  0  0  0  0  0  0  0  0
    8.0563  -14.7022   25.0640 C   0  0  0  0  0  0  0  0  0  0  0  0
    9.2506  -15.2864   25.0779 O   0  0  0  0  0  0  0  0  0  0  0  0
    6.2227  -20.8107   29.0426 N   0  0  0  0  0  0  0  0  0  0  0  0
    7.9261  -13.5160   25.8026 C   0  0  0  0  0  0  0  0  0  0  0  0
    7.2111  -12.3516   25.1661 C   0  0  0  0  0  0  0  0  0  0  0  0
    6.1681  -12.1292   26.2539 C   0  0  0  0  0  0  0  0  0  0  0  0
    6.7631  -12.6913   27.5380 C   0  0  2  0  0  0  0  0  0  0  0  0
    8.2030  -12.9251   27.0448 C   0  0  0  0  0  0  0  0  0  0  0  0
    9.0514  -13.4869   28.0387 O   0  0  0  0  0  0  0  0  0  0  0  0
    9.0995  -14.7676   28.1800 O   0  0  0  0  0  0  0  0  0  0  0  0
  2  1  1  6
  3  2  1  0
  4  3  1  0
  5  4  1  0
  5  6  1  0
  7  6  1  0
  8  2  1  0
  9  8  2  0
 10 11  1  0
 11 12  2  0
 13 11  1  0
 13 14  1  0
 14 15  1  0
 16 15  1  0
 17 16  1  1
 17 18  1  0
 18  8  1  0
 19 21  1  0
 19 17  1  0
 20 19  2  0
 21 22  1  0
 23 22  1  0
 24 23  1  0
 25 26  1  1
 25 21  1  0
 25 24  1  0
 26 28  1  0
 27 26  2  0
M  END
$$$$
