KRP.pdb
     RDKit          3D

 28 28  0  0  1  0  0  0  0  0999 V2000
    5.9090  -17.1985   20.0333 N   0  0  0  0  0  0  0  0  0  0  0  0
    7.0642  -16.9545   20.8418 C   0  0  1  0  0  0  0  0  0  0  0  0
    8.0662  -16.0050   20.2503 C   0  0  0  0  0  0  0  0  0  0  0  0
    7.5476  -14.6627   19.9091 C   0  0  0  0  0  0  0  0  0  0  0  0
    8.4848  -13.7174   19.2490 C   0  0  0  0  0  0  0  0  0  0  0  0
    7.8705  -12.3606   18.9811 C   0  0  0  0  0  0  0  0  0  0  0  0
    8.8167  -11.4504   18.3533 N   0  0  0  0  0  0  0  0  0  0  0  0
    6.7494  -16.6241   22.2523 C   0  0  0  0  0  0  0  0  0  0  0  0
    5.5539  -16.3178   22.5474 O   0  0  0  0  0  0  0  0  0  0  0  0
    8.9604  -20.1199   30.6134 N   0  0  0  0  0  0  0  0  0  0  0  0
    8.9097  -19.2561   29.4807 C   0  0  0  0  0  0  0  0  0  0  0  0
    9.9253  -18.5353   29.1247 N   0  0  0  0  0  0  0  0  0  0  0  0
    7.7336  -19.1502   28.6920 N   0  0  0  0  0  0  0  0  0  0  0  0
    7.8200  -19.3244   27.2194 C   0  0  0  0  0  0  0  0  0  0  0  0
    8.1077  -18.0277   26.5591 C   0  0  0  0  0  0  0  0  0  0  0  0
    7.4138  -17.7878   25.3069 C   0  0  0  0  0  0  0  0  0  0  0  0
    7.1836  -16.4226   24.7503 C   0  0  2  0  0  0  0  0  0  0  0  0
    7.6751  -16.6223   23.2920 N   0  0  0  0  0  0  0  0  0  0  0  0
    8.0916  -15.4064   25.2312 C   0  0  0  0  0  0  0  0  0  0  0  0
    9.3521  -15.7806   25.0348 O   0  0  0  0  0  0  0  0  0  0  0  0
    9.8858  -18.0888   28.1876 N   0  0  0  0  0  0  0  0  0  0  0  0
    7.8921  -14.1521   25.8283 C   0  0  0  0  0  0  0  0  0  0  0  0
    6.8232  -13.2521   25.2626 C   0  0  0  0  0  0  0  0  0  0  0  0
    6.0374  -13.0302   26.5485 C   0  0  0  0  0  0  0  0  0  0  0  0
    7.0167  -13.2561   27.6925 C   0  0  2  0  0  0  0  0  0  0  0  0
    8.3197  -13.3205   26.8744 C   0  0  0  0  0  0  0  0  0  0  0  0
    9.4728  -13.5521   27.6746 O   0  0  0  0  0  0  0  0  0  0  0  0
    9.8234  -14.7631   27.9445 O   0  0  0  0  0  0  0  0  0  0  0  0
  2  1  1  6
  3  2  1  0
  4  3  1  0
  5  4  1  0
  5  6  1  0
  7  6  1  0
  8  2  1  0
  9  8  2  0
 10 11  1  0
 11 12  2  0
 13 11  1  0
 13 14  1  0
 14 15  1  0
 16 15  1  0
 17 16  1  1
 17 18  1  0
 18  8  1  0
 19 21  1  0
 19 17  1  0
 20 19  2  0
 21 22  1  0
 23 22  1  0
 24 23  1  0
 25 26  1  1
 25 21  1  0
 25 24  1  0
 26 28  1  0
 27 26  2  0
M  END
$$$$
