KRP.pdb
     RDKit          3D

 28 28  0  0  1  0  0  0  0  0999 V2000
    7.1679  -17.8663   20.4678 N   0  0  0  0  0  0  0  0  0  0  0  0
    7.4530  -16.5279   20.8859 C   0  0  1  0  0  0  0  0  0  0  0  0
    7.0718  -15.4588   19.9024 C   0  0  0  0  0  0  0  0  0  0  0  0
    7.3867  -14.0736   20.3134 C   0  0  0  0  0  0  0  0  0  0  0  0
    8.6349  -13.4708   19.7783 C   0  0  0  0  0  0  0  0  0  0  0  0
    8.3909  -12.5266   18.6212 C   0  0  0  0  0  0  0  0  0  0  0  0
    9.6299  -11.9518   18.1187 N   0  0  0  0  0  0  0  0  0  0  0  0
    6.9837  -16.2156   22.2571 C   0  0  0  0  0  0  0  0  0  0  0  0
    5.7424  -16.3057   22.5046 O   0  0  0  0  0  0  0  0  0  0  0  0
    7.4547  -22.5244   24.5041 N   0  0  0  0  0  0  0  0  0  0  0  0
    6.1611  -21.9704   24.2768 C   0  0  0  0  0  0  0  0  0  0  0  0
    5.2554  -22.6037   23.6013 N   0  0  0  0  0  0  0  0  0  0  0  0
    5.8121  -20.6914   24.7854 N   0  0  0  0  0  0  0  0  0  0  0  0
    6.8839  -19.7345   25.1620 C   0  0  0  0  0  0  0  0  0  0  0  0
    6.5165  -18.3564   24.7541 C   0  0  0  0  0  0  0  0  0  0  0  0
    7.4815  -17.3220   25.0795 C   0  0  0  0  0  0  0  0  0  0  0  0
    7.2693  -15.8795   24.7620 C   0  0  2  0  0  0  0  0  0  0  0  0
    7.8088  -15.8249   23.3080 N   0  0  0  0  0  0  0  0  0  0  0  0
    8.1606  -14.9674   25.4419 C   0  0  0  0  0  0  0  0  0  0  0  0
    9.4248  -15.3428   25.2733 O   0  0  0  0  0  0  0  0  0  0  0  0
    4.3824  -22.0873   23.3770 N   0  0  0  0  0  0  0  0  0  0  0  0
    7.9433  -13.8072   26.2010 C   0  0  0  0  0  0  0  0  0  0  0  0
    7.0924  -12.7131   25.6082 C   0  0  0  0  0  0  0  0  0  0  0  0
    6.0763  -12.6058   26.7381 C   0  0  0  0  0  0  0  0  0  0  0  0
    6.7740  -13.1187   27.9907 C   0  0  2  0  0  0  0  0  0  0  0  0
    8.2094  -13.2040   27.4395 C   0  0  0  0  0  0  0  0  0  0  0  0
    9.1476  -13.6886   28.3925 O   0  0  0  0  0  0  0  0  0  0  0  0
    9.8421  -12.8484   29.0812 O   0  0  0  0  0  0  0  0  0  0  0  0
  2  1  1  6
  3  2  1  0
  4  3  1  0
  5  4  1  0
  5  6  1  0
  7  6  1  0
  8  2  1  0
  9  8  2  0
 10 11  1  0
 11 12  2  0
 13 11  1  0
 13 14  1  0
 14 15  1  0
 16 15  1  0
 17 16  1  1
 17 18  1  0
 18  8  1  0
 19 21  1  0
 19 17  1  0
 20 19  2  0
 21 22  1  0
 23 22  1  0
 24 23  1  0
 25 26  1  1
 25 21  1  0
 25 24  1  0
 26 28  1  0
 27 26  2  0
M  END
$$$$
