KRP.pdb
     RDKit          3D

 28 28  0  0  1  0  0  0  0  0999 V2000
   12.3260  -17.4318   20.8409 N   0  0  0  0  0  0  0  0  0  0  0  0
   11.2086  -17.6481   21.7081 C   0  0  1  0  0  0  0  0  0  0  0  0
   11.3206  -18.8487   22.6035 C   0  0  0  0  0  0  0  0  0  0  0  0
   11.0546  -20.1521   21.9575 C   0  0  0  0  0  0  0  0  0  0  0  0
   11.0251  -21.3529   22.8321 C   0  0  0  0  0  0  0  0  0  0  0  0
   10.7891  -22.6385   22.0695 C   0  0  0  0  0  0  0  0  0  0  0  0
   11.6997  -22.7764   20.9426 N   0  0  0  0  0  0  0  0  0  0  0  0
   10.7833  -16.4376   22.4508 C   0  0  0  0  0  0  0  0  0  0  0  0
   11.6676  -15.5872   22.7745 O   0  0  0  0  0  0  0  0  0  0  0  0
    8.2992  -15.0757   19.0956 N   0  0  0  0  0  0  0  0  0  0  0  0
    7.9630  -13.7019   18.9184 C   0  0  0  0  0  0  0  0  0  0  0  0
    8.3409  -13.0349   17.8743 N   0  0  0  0  0  0  0  0  0  0  0  0
    7.1952  -13.0045   19.8881 N   0  0  0  0  0  0  0  0  0  0  0  0
    7.6064  -13.0427   21.3149 C   0  0  0  0  0  0  0  0  0  0  0  0
    7.4393  -14.4093   21.8670 C   0  0  0  0  0  0  0  0  0  0  0  0
    7.8007  -14.5761   23.2630 C   0  0  0  0  0  0  0  0  0  0  0  0
    9.1819  -14.9172   23.7129 C   0  0  2  0  0  0  0  0  0  0  0  0
    9.4725  -16.1576   22.8270 N   0  0  0  0  0  0  0  0  0  0  0  0
    9.2699  -15.4769   25.0424 C   0  0  0  0  0  0  0  0  0  0  0  0
    8.6957  -16.6754   25.0796 O   0  0  0  0  0  0  0  0  0  0  0  0
    8.1450  -12.0148   17.8658 N   0  0  0  0  0  0  0  0  0  0  0  0
    9.8349  -15.0110   26.2396 C   0  0  0  0  0  0  0  0  0  0  0  0
   10.5318  -13.6743   26.2294 C   0  0  0  0  0  0  0  0  0  0  0  0
    9.7392  -13.0190   27.3532 C   0  0  0  0  0  0  0  0  0  0  0  0
    9.2047  -14.1532   28.2173 C   0  0  2  0  0  0  0  0  0  0  0  0
   10.0051  -15.3143   27.5989 C   0  0  0  0  0  0  0  0  0  0  0  0
    9.7131  -16.5742   28.1913 O   0  0  0  0  0  0  0  0  0  0  0  0
    9.1973  -17.5092   27.4687 O   0  0  0  0  0  0  0  0  0  0  0  0
  2  1  1  1
  3  2  1  0
  4  3  1  0
  5  4  1  0
  5  6  1  0
  7  6  1  0
  8  2  1  0
  9  8  2  0
 10 11  1  0
 11 12  2  0
 13 11  1  0
 13 14  1  0
 14 15  1  0
 16 15  1  0
 17 16  1  6
 17 18  1  0
 18  8  1  0
 19 21  1  0
 19 17  1  0
 20 19  2  0
 21 22  1  0
 23 22  1  0
 24 23  1  0
 25 26  1  1
 25 21  1  0
 25 24  1  0
 26 28  1  0
 27 26  2  0
M  END
$$$$
