KRP.pdb
     RDKit          3D

 28 28  0  0  1  0  0  0  0  0999 V2000
   11.7112  -17.5003   20.7463 N   0  0  0  0  0  0  0  0  0  0  0  0
   10.8768  -17.9753   21.8073 C   0  0  1  0  0  0  0  0  0  0  0  0
   11.2009  -19.3554   22.3031 C   0  0  0  0  0  0  0  0  0  0  0  0
   11.9653  -20.2059   21.3653 C   0  0  0  0  0  0  0  0  0  0  0  0
   11.8151  -21.6777   21.5027 C   0  0  0  0  0  0  0  0  0  0  0  0
   12.9713  -22.3282   22.2306 C   0  0  0  0  0  0  0  0  0  0  0  0
   12.8204  -23.7736   22.3078 N   0  0  0  0  0  0  0  0  0  0  0  0
   10.7129  -17.0086   22.9193 C   0  0  0  0  0  0  0  0  0  0  0  0
   11.6903  -16.2538   23.2108 O   0  0  0  0  0  0  0  0  0  0  0  0
    4.1649  -11.5272   25.4227 N   0  0  0  0  0  0  0  0  0  0  0  0
    5.4829  -11.3693   25.9417 C   0  0  0  0  0  0  0  0  0  0  0  0
    5.9929  -10.2003   26.1682 N   0  0  0  0  0  0  0  0  0  0  0  0
    6.2960  -12.4966   26.2322 N   0  0  0  0  0  0  0  0  0  0  0  0
    6.4288  -13.5832   25.2282 C   0  0  0  0  0  0  0  0  0  0  0  0
    7.3473  -14.6379   25.7229 C   0  0  0  0  0  0  0  0  0  0  0  0
    8.0183  -15.4219   24.7021 C   0  0  0  0  0  0  0  0  0  0  0  0
    9.4773  -15.7326   24.7398 C   0  0  2  0  0  0  0  0  0  0  0  0
    9.5559  -16.8631   23.6797 N   0  0  0  0  0  0  0  0  0  0  0  0
    9.9254  -16.4148   25.9324 C   0  0  0  0  0  0  0  0  0  0  0  0
    9.5395  -17.6869   25.9113 O   0  0  0  0  0  0  0  0  0  0  0  0
    6.9392  -10.1696   26.5956 N   0  0  0  0  0  0  0  0  0  0  0  0
   10.6680  -15.9996   27.0485 C   0  0  0  0  0  0  0  0  0  0  0  0
   11.3313  -14.6467   27.0037 C   0  0  0  0  0  0  0  0  0  0  0  0
   10.7194  -14.0738   28.2757 C   0  0  0  0  0  0  0  0  0  0  0  0
   10.3507  -15.2666   29.1476 C   0  0  2  0  0  0  0  0  0  0  0  0
   11.0605  -16.3714   28.3433 C   0  0  0  0  0  0  0  0  0  0  0  0
   10.8894  -17.6686   28.9014 O   0  0  0  0  0  0  0  0  0  0  0  0
   11.8766  -18.2308   29.5111 O   0  0  0  0  0  0  0  0  0  0  0  0
  2  1  1  6
  3  2  1  0
  4  3  1  0
  5  4  1  0
  5  6  1  0
  7  6  1  0
  8  2  1  0
  9  8  2  0
 10 11  1  0
 11 12  2  0
 13 11  1  0
 13 14  1  0
 14 15  1  0
 16 15  1  0
 17 16  1  1
 17 18  1  0
 18  8  1  0
 19 21  1  0
 19 17  1  0
 20 19  2  0
 21 22  1  0
 23 22  1  0
 24 23  1  0
 25 26  1  1
 25 21  1  0
 25 24  1  0
 26 28  1  0
 27 26  2  0
M  END
$$$$
