KRP.pdb
     RDKit          3D

 28 28  0  0  1  0  0  0  0  0999 V2000
    7.8388  -15.8373   18.8643 N   0  0  0  0  0  0  0  0  0  0  0  0
    8.5395  -15.3331   20.0055 C   0  0  1  0  0  0  0  0  0  0  0  0
    9.4244  -14.1495   19.7376 C   0  0  0  0  0  0  0  0  0  0  0  0
   10.8136  -14.4690   19.3439 C   0  0  0  0  0  0  0  0  0  0  0  0
   11.8994  -14.0294   20.2581 C   0  0  0  0  0  0  0  0  0  0  0  0
   13.2838  -14.2824   19.7020 C   0  0  0  0  0  0  0  0  0  0  0  0
   14.3161  -13.6393   20.5014 N   0  0  0  0  0  0  0  0  0  0  0  0
    7.6783  -15.1265   21.1943 C   0  0  0  0  0  0  0  0  0  0  0  0
    6.4528  -14.8534   21.0108 O   0  0  0  0  0  0  0  0  0  0  0  0
    9.8508  -18.0749   27.0903 N   0  0  0  0  0  0  0  0  0  0  0  0
    9.6348  -19.1935   26.2337 C   0  0  0  0  0  0  0  0  0  0  0  0
   10.4642  -20.1871   26.1846 N   0  0  0  0  0  0  0  0  0  0  0  0
    8.4929  -19.2624   25.3924 N   0  0  0  0  0  0  0  0  0  0  0  0
    7.5426  -18.1216   25.3510 C   0  0  0  0  0  0  0  0  0  0  0  0
    7.4584  -17.5654   23.9784 C   0  0  0  0  0  0  0  0  0  0  0  0
    6.5862  -16.4169   23.8136 C   0  0  0  0  0  0  0  0  0  0  0  0
    7.0939  -15.0213   23.6675 C   0  0  2  0  0  0  0  0  0  0  0  0
    8.1146  -15.2083   22.5137 N   0  0  0  0  0  0  0  0  0  0  0  0
    7.9446  -14.5656   24.7431 C   0  0  0  0  0  0  0  0  0  0  0  0
    8.9471  -15.4177   24.9340 O   0  0  0  0  0  0  0  0  0  0  0  0
   10.2445  -20.9570   25.5227 N   0  0  0  0  0  0  0  0  0  0  0  0
    7.9113  -13.4351   25.5741 C   0  0  0  0  0  0  0  0  0  0  0  0
    7.5893  -12.0998   24.9530 C   0  0  0  0  0  0  0  0  0  0  0  0
    6.4160  -11.7308   25.8517 C   0  0  0  0  0  0  0  0  0  0  0  0
    6.6146  -12.4994   27.1512 C   0  0  2  0  0  0  0  0  0  0  0  0
    8.0466  -13.0090   26.9040 C   0  0  0  0  0  0  0  0  0  0  0  0
    8.5465  -13.8126   27.9660 O   0  0  0  0  0  0  0  0  0  0  0  0
    8.3145  -15.0809   27.9636 O   0  0  0  0  0  0  0  0  0  0  0  0
  2  1  1  6
  3  2  1  0
  4  3  1  0
  5  4  1  0
  5  6  1  0
  7  6  1  0
  8  2  1  0
  9  8  2  0
 10 11  1  0
 11 12  2  0
 13 11  1  0
 13 14  1  0
 14 15  1  0
 16 15  1  0
 17 16  1  1
 17 18  1  0
 18  8  1  0
 19 21  1  0
 19 17  1  0
 20 19  2  0
 21 22  1  0
 23 22  1  0
 24 23  1  0
 25 26  1  6
 25 21  1  0
 25 24  1  0
 26 28  1  0
 27 26  2  0
M  END
$$$$
