KRP.pdb
     RDKit          3D

 28 28  0  0  1  0  0  0  0  0999 V2000
    6.0815  -19.6779   25.6415 N   0  0  0  0  0  0  0  0  0  0  0  0
    6.4992  -18.3109   25.7065 C   0  0  1  0  0  0  0  0  0  0  0  0
    7.2567  -17.9350   26.9477 C   0  0  0  0  0  0  0  0  0  0  0  0
    8.5510  -18.6248   27.1374 C   0  0  0  0  0  0  0  0  0  0  0  0
    9.3014  -18.3345   28.3866 C   0  0  0  0  0  0  0  0  0  0  0  0
   10.5482  -19.1782   28.5411 C   0  0  0  0  0  0  0  0  0  0  0  0
   11.3076  -18.8129   29.7276 N   0  0  0  0  0  0  0  0  0  0  0  0
    7.1732  -17.8311   24.4764 C   0  0  0  0  0  0  0  0  0  0  0  0
    7.5580  -18.6903   23.6256 O   0  0  0  0  0  0  0  0  0  0  0  0
    6.5104  -13.9490   17.5151 N   0  0  0  0  0  0  0  0  0  0  0  0
    7.7625  -13.3815   17.8918 C   0  0  0  0  0  0  0  0  0  0  0  0
    8.6269  -12.9873   17.0114 N   0  0  0  0  0  0  0  0  0  0  0  0
    8.1149  -13.2259   19.2585 N   0  0  0  0  0  0  0  0  0  0  0  0
    7.5226  -14.1313   20.2763 C   0  0  0  0  0  0  0  0  0  0  0  0
    8.0522  -13.8136   21.6250 C   0  0  0  0  0  0  0  0  0  0  0  0
    7.6175  -14.6896   22.6977 C   0  0  0  0  0  0  0  0  0  0  0  0
    8.0285  -16.1205   22.7997 C   0  0  2  0  0  0  0  0  0  0  0  0
    7.4217  -16.4942   24.1781 N   0  0  0  0  0  0  0  0  0  0  0  0
    9.4388  -16.3355   23.0301 C   0  0  0  0  0  0  0  0  0  0  0  0
    9.8082  -15.7901   24.1850 O   0  0  0  0  0  0  0  0  0  0  0  0
    9.5200  -12.5930   17.3660 N   0  0  0  0  0  0  0  0  0  0  0  0
   10.4374  -16.9939   22.2959 C   0  0  0  0  0  0  0  0  0  0  0  0
   10.0148  -17.9945   21.2506 C   0  0  0  0  0  0  0  0  0  0  0  0
   10.7532  -17.3822   20.0673 C   0  0  0  0  0  0  0  0  0  0  0  0
   11.9124  -16.5864   20.6520 C   0  0  2  0  0  0  0  0  0  0  0  0
   11.8249  -17.0823   22.1072 C   0  0  0  0  0  0  0  0  0  0  0  0
   12.7984  -16.4919   22.9599 O   0  0  0  0  0  0  0  0  0  0  0  0
   12.8578  -15.2077   23.0591 O   0  0  0  0  0  0  0  0  0  0  0  0
  2  1  1  6
  3  2  1  0
  4  3  1  0
  5  4  1  0
  5  6  1  0
  7  6  1  0
  8  2  1  0
  9  8  2  0
 10 11  1  0
 11 12  2  0
 13 11  1  0
 13 14  1  0
 14 15  1  0
 16 15  1  0
 17 16  1  1
 17 18  1  0
 18  8  1  0
 19 21  1  0
 19 17  1  0
 20 19  2  0
 21 22  1  0
 23 22  1  0
 24 23  1  0
 25 26  1  6
 25 21  1  0
 25 24  1  0
 26 28  1  0
 27 26  2  0
M  END
$$$$
