GIL.pdb
     RDKit          3D

 21 20  0  0  1  0  0  0  0  0999 V2000
   17.4229  -14.7827  -16.2489 N   0  0  0  0  0  0  0  0  0  0  0  0
   16.4365  -13.8371  -16.6620 C   0  0  0  0  0  0  0  0  0  0  0  0
   17.0015  -12.4837  -16.9096 C   0  0  0  0  0  0  0  0  0  0  0  0
   17.9333  -12.3270  -17.7446 O   0  0  0  0  0  0  0  0  0  0  0  0
   13.4595   -9.3372  -16.5905 C   0  0  0  0  0  0  0  0  0  0  0  0
   14.7814   -9.1374  -17.2540 C   0  0  0  0  0  0  0  0  0  0  0  0
   15.9119   -8.9575  -16.2649 C   0  0  2  0  0  0  0  0  0  0  0  0
   16.4470   -7.5570  -16.2557 C   0  0  0  0  0  0  0  0  0  0  0  0
   16.9944   -9.9923  -16.5506 C   0  0  2  0  0  0  0  0  0  0  0  0
   16.5234  -11.3318  -16.2275 N   0  0  0  0  0  0  0  0  0  0  0  0
   18.1291   -9.7024  -15.6250 C   0  0  0  0  0  0  0  0  0  0  0  0
   17.8963   -9.8960  -14.3931 O   0  0  0  0  0  0  0  0  0  0  0  0
   22.6236  -10.0420  -13.0717 C   0  0  0  0  0  0  0  0  0  0  0  0
   22.7855   -9.4450  -14.4586 C   0  0  1  0  0  0  0  0  0  0  0  0
   24.1173   -9.9428  -15.0296 C   0  0  0  0  0  0  0  0  0  0  0  0
   21.6485   -9.8092  -15.3625 C   0  0  0  0  0  0  0  0  0  0  0  0
   20.4212   -9.0343  -15.0238 C   0  0  2  0  0  0  0  0  0  0  0  0
   19.3817   -9.2468  -16.0403 N   0  0  0  0  0  0  0  0  0  0  0  0
   20.5836   -7.5809  -14.9043 C   0  0  0  0  0  0  0  0  0  0  0  0
   20.4488   -6.8422  -15.9012 O   0  0  0  0  0  0  0  0  0  0  0  0
   20.8883   -7.0138  -13.6826 O   0  0  0  0  0  0  0  0  0  0  0  0
  1  2  1  0
  2  3  1  0
  3  4  2  0
  3 10  1  0
  6  5  1  0
  7  6  1  0
  7  8  1  6
  9  7  1  0
  9 10  1  1
 11  9  1  0
 11 18  1  0
 12 11  2  0
 14 15  1  6
 14 16  1  0
 14 13  1  0
 17 16  1  6
 17 18  1  0
 19 17  1  0
 20 19  2  0
 21 19  1  0
M  END
$$$$
