GIL.pdb
     RDKit          3D

 21 20  0  0  1  0  0  0  0  0999 V2000
   29.3182  -22.6323  -18.1757 N   0  0  0  0  0  0  0  0  0  0  0  0
   28.8339  -22.9458  -16.8700 C   0  0  0  0  0  0  0  0  0  0  0  0
   28.1379  -21.8021  -16.2222 C   0  0  0  0  0  0  0  0  0  0  0  0
   28.7515  -20.7205  -16.0133 O   0  0  0  0  0  0  0  0  0  0  0  0
   23.5348  -20.0387  -17.8915 C   0  0  0  0  0  0  0  0  0  0  0  0
   24.8531  -20.2266  -17.2174 C   0  0  0  0  0  0  0  0  0  0  0  0
   24.7174  -20.5507  -15.7458 C   0  0  2  0  0  0  0  0  0  0  0  0
   23.9361  -19.5108  -15.0003 C   0  0  0  0  0  0  0  0  0  0  0  0
   26.1047  -20.7722  -15.1538 C   0  0  2  0  0  0  0  0  0  0  0  0
   26.7769  -21.8794  -15.8188 N   0  0  0  0  0  0  0  0  0  0  0  0
   25.9107  -21.1812  -13.7312 C   0  0  0  0  0  0  0  0  0  0  0  0
   25.2808  -22.2677  -13.5530 O   0  0  0  0  0  0  0  0  0  0  0  0
   29.7921  -20.2604  -10.2917 C   0  0  0  0  0  0  0  0  0  0  0  0
   28.6387  -20.8676  -11.0710 C   0  0  1  0  0  0  0  0  0  0  0  0
   28.9095  -22.3688  -11.2138 C   0  0  0  0  0  0  0  0  0  0  0  0
   27.3207  -20.6248  -10.4030 C   0  0  0  0  0  0  0  0  0  0  0  0
   26.1873  -21.0103  -11.2908 C   0  0  2  0  0  0  0  0  0  0  0  0
   26.3736  -20.4494  -12.6360 N   0  0  0  0  0  0  0  0  0  0  0  0
   24.8502  -20.5907  -10.8556 C   0  0  0  0  0  0  0  0  0  0  0  0
   24.2827  -19.6181  -11.3939 O   0  0  0  0  0  0  0  0  0  0  0  0
   24.2039  -21.2707   -9.8422 O   0  0  0  0  0  0  0  0  0  0  0  0
  1  2  1  0
  2  3  1  0
  3  4  2  0
  3 10  1  0
  6  5  1  0
  7  6  1  0
  7  8  1  1
  9  7  1  0
  9 10  1  6
 11  9  1  0
 11 18  1  0
 12 11  2  0
 14 15  1  1
 14 16  1  0
 14 13  1  0
 17 16  1  1
 17 18  1  0
 19 17  1  0
 20 19  2  0
 21 19  1  0
M  END
$$$$
