GIL.pdb
     RDKit          3D

 21 20  0  0  1  0  0  0  0  0999 V2000
   29.4799  -22.3541  -17.6065 N   0  0  0  0  0  0  0  0  0  0  0  0
   28.0600  -22.4616  -17.5060 C   0  0  0  0  0  0  0  0  0  0  0  0
   27.4588  -21.3979  -16.6578 C   0  0  0  0  0  0  0  0  0  0  0  0
   28.1897  -20.5142  -16.1335 O   0  0  0  0  0  0  0  0  0  0  0  0
   24.6613  -19.9085  -18.7481 C   0  0  0  0  0  0  0  0  0  0  0  0
   24.4581  -19.0250  -17.5624 C   0  0  0  0  0  0  0  0  0  0  0  0
   24.1511  -19.8005  -16.3001 C   0  0  2  0  0  0  0  0  0  0  0  0
   23.2777  -19.0320  -15.3543 C   0  0  0  0  0  0  0  0  0  0  0  0
   25.4600  -20.2422  -15.6552 C   0  0  2  0  0  0  0  0  0  0  0  0
   26.0609  -21.3346  -16.4075 N   0  0  0  0  0  0  0  0  0  0  0  0
   25.1194  -20.7868  -14.3076 C   0  0  0  0  0  0  0  0  0  0  0  0
   24.5102  -21.8994  -14.3027 O   0  0  0  0  0  0  0  0  0  0  0  0
   26.4236  -20.4460   -8.2825 C   0  0  0  0  0  0  0  0  0  0  0  0
   25.5686  -20.9544   -9.4300 C   0  0  1  0  0  0  0  0  0  0  0  0
   24.1028  -20.6810   -9.0781 C   0  0  0  0  0  0  0  0  0  0  0  0
   25.9340  -20.3087  -10.7308 C   0  0  0  0  0  0  0  0  0  0  0  0
   25.0944  -20.8306  -11.8461 C   0  0  2  0  0  0  0  0  0  0  0  0
   25.4297  -20.1501  -13.1045 N   0  0  0  0  0  0  0  0  0  0  0  0
   23.6423  -20.6951  -11.6838 C   0  0  0  0  0  0  0  0  0  0  0  0
   23.0892  -19.5838  -11.8133 O   0  0  0  0  0  0  0  0  0  0  0  0
   22.8703  -21.8004  -11.3850 O   0  0  0  0  0  0  0  0  0  0  0  0
  1  2  1  0
  2  3  1  0
  3  4  2  0
  3 10  1  0
  6  5  1  0
  7  6  1  0
  7  8  1  1
  9  7  1  0
  9 10  1  6
 11  9  1  0
 11 18  1  0
 12 11  2  0
 14 15  1  1
 14 16  1  0
 14 13  1  0
 17 16  1  1
 17 18  1  0
 19 17  1  0
 20 19  2  0
 21 19  1  0
M  END
$$$$
