GIL.pdb
     RDKit          3D

 21 20  0  0  1  0  0  0  0  0999 V2000
   37.0335  -30.9316  -19.1508 N   0  0  0  0  0  0  0  0  0  0  0  0
   35.6677  -30.5313  -19.0405 C   0  0  0  0  0  0  0  0  0  0  0  0
   35.4897  -29.0569  -19.1215 C   0  0  0  0  0  0  0  0  0  0  0  0
   36.4908  -28.3023  -19.2573 O   0  0  0  0  0  0  0  0  0  0  0  0
   31.0882  -27.1395  -21.6637 C   0  0  0  0  0  0  0  0  0  0  0  0
   31.9328  -27.4329  -20.4686 C   0  0  0  0  0  0  0  0  0  0  0  0
   33.2615  -26.7101  -20.4988 C   0  0  2  0  0  0  0  0  0  0  0  0
   34.0598  -27.0307  -21.7267 C   0  0  0  0  0  0  0  0  0  0  0  0
   34.0235  -27.0129  -19.2135 C   0  0  2  0  0  0  0  0  0  0  0  0
   34.2070  -28.4482  -19.0506 N   0  0  0  0  0  0  0  0  0  0  0  0
   33.1636  -26.5597  -18.0805 C   0  0  0  0  0  0  0  0  0  0  0  0
   32.3194  -27.4072  -17.6584 O   0  0  0  0  0  0  0  0  0  0  0  0
   35.1677  -24.6571  -13.7293 C   0  0  0  0  0  0  0  0  0  0  0  0
   34.2580  -25.3186  -14.7496 C   0  0  1  0  0  0  0  0  0  0  0  0
   33.6425  -26.5586  -14.0931 C   0  0  0  0  0  0  0  0  0  0  0  0
   33.1907  -24.3879  -15.2364 C   0  0  0  0  0  0  0  0  0  0  0  0
   32.3920  -25.0089  -16.3309 C   0  0  2  0  0  0  0  0  0  0  0  0
   33.2460  -25.2966  -17.4914 N   0  0  0  0  0  0  0  0  0  0  0  0
   31.2646  -24.2197  -16.8399 C   0  0  0  0  0  0  0  0  0  0  0  0
   30.2858  -23.9646  -16.1088 O   0  0  0  0  0  0  0  0  0  0  0  0
   31.2756  -23.7493  -18.1383 O   0  0  0  0  0  0  0  0  0  0  0  0
  1  2  1  0
  2  3  1  0
  3  4  2  0
  3 10  1  0
  6  5  1  0
  7  6  1  0
  7  8  1  6
  9  7  1  0
  9 10  1  1
 11  9  1  0
 11 18  1  0
 12 11  2  0
 14 15  1  1
 14 16  1  0
 14 13  1  0
 17 16  1  1
 17 18  1  0
 19 17  1  0
 20 19  2  0
 21 19  1  0
M  END
$$$$
