GIL.pdb
     RDKit          3D

 21 20  0  0  1  0  0  0  0  0999 V2000
   16.8728  -13.6795  -16.6661 N   0  0  0  0  0  0  0  0  0  0  0  0
   16.2297  -12.5212  -17.1975 C   0  0  0  0  0  0  0  0  0  0  0  0
   17.1922  -11.4703  -17.6234 C   0  0  0  0  0  0  0  0  0  0  0  0
   17.8493  -11.6054  -18.6911 O   0  0  0  0  0  0  0  0  0  0  0  0
   18.2797   -6.3389  -19.1211 C   0  0  0  0  0  0  0  0  0  0  0  0
   18.5388   -6.8014  -17.7259 C   0  0  0  0  0  0  0  0  0  0  0  0
   17.5788   -7.8821  -17.2794 C   0  0  2  0  0  0  0  0  0  0  0  0
   16.9693   -7.5891  -15.9413 C   0  0  0  0  0  0  0  0  0  0  0  0
   18.2933   -9.2284  -17.3114 C   0  0  2  0  0  0  0  0  0  0  0  0
   17.4074  -10.2916  -16.8585 N   0  0  0  0  0  0  0  0  0  0  0  0
   19.4104   -9.1520  -16.3240 C   0  0  0  0  0  0  0  0  0  0  0  0
   19.0631   -9.0325  -15.1098 O   0  0  0  0  0  0  0  0  0  0  0  0
   23.6995  -10.6664  -13.7003 C   0  0  0  0  0  0  0  0  0  0  0  0
   24.0408   -9.8483  -14.9335 C   0  0  1  0  0  0  0  0  0  0  0  0
   25.3840  -10.3517  -15.4718 C   0  0  0  0  0  0  0  0  0  0  0  0
   22.9764   -9.9441  -15.9824 C   0  0  0  0  0  0  0  0  0  0  0  0
   21.7591   -9.1805  -15.5864 C   0  0  2  0  0  0  0  0  0  0  0  0
   20.7629   -9.2044  -16.6662 N   0  0  0  0  0  0  0  0  0  0  0  0
   21.9610   -7.7668  -15.2490 C   0  0  0  0  0  0  0  0  0  0  0  0
   22.0877   -6.9106  -16.1482 O   0  0  0  0  0  0  0  0  0  0  0  0
   22.0128   -7.3682  -13.9279 O   0  0  0  0  0  0  0  0  0  0  0  0
  1  2  1  0
  2  3  1  0
  3  4  2  0
  3 10  1  0
  6  5  1  0
  7  6  1  0
  7  8  1  1
  9  7  1  0
  9 10  1  1
 11  9  1  0
 11 18  1  0
 12 11  2  0
 14 15  1  6
 14 16  1  0
 14 13  1  0
 17 16  1  6
 17 18  1  0
 19 17  1  0
 20 19  2  0
 21 19  1  0
M  END
$$$$
