GIL.pdb
     RDKit          3D

 21 20  0  0  1  0  0  0  0  0999 V2000
   19.0175  -18.5346  -15.6067 N   0  0  0  0  0  0  0  0  0  0  0  0
   19.3381  -17.4041  -16.4172 C   0  0  0  0  0  0  0  0  0  0  0  0
   19.7635  -16.2232  -15.6192 C   0  0  0  0  0  0  0  0  0  0  0  0
   19.2248  -15.9816  -14.5050 O   0  0  0  0  0  0  0  0  0  0  0  0
   24.8652  -14.8854  -15.2407 C   0  0  0  0  0  0  0  0  0  0  0  0
   23.3988  -15.0258  -15.0001 C   0  0  0  0  0  0  0  0  0  0  0  0
   22.6106  -13.8225  -15.4685 C   0  0  2  0  0  0  0  0  0  0  0  0
   23.0048  -12.5657  -14.7523 C   0  0  0  0  0  0  0  0  0  0  0  0
   21.1211  -14.1217  -15.3422 C   0  0  2  0  0  0  0  0  0  0  0  0
   20.7765  -15.3342  -16.0712 N   0  0  0  0  0  0  0  0  0  0  0  0
   20.3937  -13.0006  -16.0075 C   0  0  0  0  0  0  0  0  0  0  0  0
   20.6030  -12.8720  -17.2520 O   0  0  0  0  0  0  0  0  0  0  0  0
   16.8843  -10.2620  -18.4956 C   0  0  0  0  0  0  0  0  0  0  0  0
   16.7541  -10.1854  -16.9845 C   0  0  1  0  0  0  0  0  0  0  0  0
   15.2604  -10.1667  -16.6440 C   0  0  0  0  0  0  0  0  0  0  0  0
   17.4419  -11.3279  -16.3034 C   0  0  0  0  0  0  0  0  0  0  0  0
   18.8949  -11.0507  -16.1206 C   0  0  2  0  0  0  0  0  0  0  0  0
   19.5302  -12.1255  -15.3459 N   0  0  0  0  0  0  0  0  0  0  0  0
   19.2356   -9.7984  -15.4359 C   0  0  0  0  0  0  0  0  0  0  0  0
   19.2394   -8.7155  -16.0564 O   0  0  0  0  0  0  0  0  0  0  0  0
   19.5565   -9.8057  -14.0928 O   0  0  0  0  0  0  0  0  0  0  0  0
  1  2  1  0
  2  3  1  0
  3  4  2  0
  3 10  1  0
  6  5  1  0
  7  6  1  0
  7  8  1  1
  9  7  1  0
  9 10  1  6
 11  9  1  0
 11 18  1  0
 12 11  2  0
 14 15  1  6
 14 16  1  0
 14 13  1  0
 17 16  1  1
 17 18  1  0
 19 17  1  0
 20 19  2  0
 21 19  1  0
M  END
$$$$
