GIL.pdb
     RDKit          3D

 21 20  0  0  1  0  0  0  0  0999 V2000
   22.0852  -21.6662  -13.8822 N   0  0  0  0  0  0  0  0  0  0  0  0
   23.0166  -20.6718  -13.4564 C   0  0  0  0  0  0  0  0  0  0  0  0
   24.2568  -21.2527  -12.8763 C   0  0  0  0  0  0  0  0  0  0  0  0
   24.3709  -22.5011  -12.7409 O   0  0  0  0  0  0  0  0  0  0  0  0
   27.5641  -18.9444  -14.5183 C   0  0  0  0  0  0  0  0  0  0  0  0
   27.7749  -20.2974  -13.9244 C   0  0  0  0  0  0  0  0  0  0  0  0
   27.7915  -20.2770  -12.4118 C   0  0  2  0  0  0  0  0  0  0  0  0
   29.0660  -20.8273  -11.8458 C   0  0  0  0  0  0  0  0  0  0  0  0
   26.5594  -21.0073  -11.8894 C   0  0  2  0  0  0  0  0  0  0  0  0
   25.3452  -20.4394  -12.4582 N   0  0  0  0  0  0  0  0  0  0  0  0
   26.4988  -20.7616  -10.4182 C   0  0  0  0  0  0  0  0  0  0  0  0
   25.9578  -19.6698  -10.0654 O   0  0  0  0  0  0  0  0  0  0  0  0
   29.3190  -20.4594   -5.2937 C   0  0  0  0  0  0  0  0  0  0  0  0
   27.9877  -20.4612   -6.0242 C   0  0  1  0  0  0  0  0  0  0  0  0
   27.3859  -19.0575   -5.9034 C   0  0  0  0  0  0  0  0  0  0  0  0
   28.1367  -20.8555   -7.4612 C   0  0  0  0  0  0  0  0  0  0  0  0
   26.8340  -21.2935   -8.0378 C   0  0  2  0  0  0  0  0  0  0  0  0
   26.9913  -21.6451   -9.4558 N   0  0  0  0  0  0  0  0  0  0  0  0
   25.7377  -20.3200   -7.9782 C   0  0  0  0  0  0  0  0  0  0  0  0
   25.8782  -19.1747   -8.4539 O   0  0  0  0  0  0  0  0  0  0  0  0
   24.5348  -20.6629   -7.3930 O   0  0  0  0  0  0  0  0  0  0  0  0
  1  2  1  0
  2  3  1  0
  3  4  2  0
  3 10  1  0
  6  5  1  0
  7  6  1  0
  7  8  1  1
  9  7  1  0
  9 10  1  6
 11  9  1  0
 11 18  1  0
 12 11  2  0
 14 15  1  6
 14 16  1  0
 14 13  1  0
 17 16  1  6
 17 18  1  0
 19 17  1  0
 20 19  2  0
 21 19  1  0
M  END
$$$$
