AAN.pdb
     RDKit          3D

 19 18  0  0  1  0  0  0  0  0999 V2000
    8.6222  -16.6838   16.1653 C   0  0  0  0  0  0  0  0  0  0  0  0
    8.2297  -16.9637   17.5851 C   0  0  2  0  0  0  0  0  0  0  0  0
    6.7619  -16.9489   17.6579 N   0  0  0  0  0  0  0  0  0  0  0  0
    8.7712  -15.9232   18.4694 C   0  0  0  0  0  0  0  0  0  0  0  0
    9.9991  -15.8968   18.7256 O   0  0  0  0  0  0  0  0  0  0  0  0
    7.4056  -12.7714   20.0617 C   0  0  0  0  0  0  0  0  0  0  0  0
    8.4044  -13.9118   19.9295 C   0  0  2  0  0  0  0  0  0  0  0  0
    7.9083  -14.9353   19.0437 N   0  0  0  0  0  0  0  0  0  0  0  0
    8.5627  -14.5039   21.2830 C   0  0  0  0  0  0  0  0  0  0  0  0
    7.5560  -14.7836   22.0027 O   0  0  0  0  0  0  0  0  0  0  0  0
    9.6788  -18.5148   24.2483 N   0  0  0  0  0  0  0  0  0  0  0  0
    9.9222  -18.4125   22.8518 C   0  0  0  0  0  0  0  0  0  0  0  0
   10.3912  -19.4244   22.2715 O   0  0  0  0  0  0  0  0  0  0  0  0
    9.6462  -17.1929   22.1049 C   0  0  0  0  0  0  0  0  0  0  0  0
   10.0618  -15.9125   22.7459 C   0  0  2  0  0  0  0  0  0  0  0  0
    9.8483  -14.7879   21.8420 N   0  0  0  0  0  0  0  0  0  0  0  0
   11.4688  -15.9885   23.1900 C   0  0  0  0  0  0  0  0  0  0  0  0
   12.5295  -15.6057   22.3626 O   0  0  0  0  0  0  0  0  0  0  0  0
   11.7114  -16.4083   24.3404 O   0  0  0  0  0  0  0  0  0  0  0  0
  2  3  1  0
  2  1  1  6
  4  2  1  0
  5  4  2  0
  7  6  1  1
  7  8  1  0
  7  9  1  0
  8  4  1  0
  9 16  1  0
 10  9  2  0
 11 12  1  0
 12 14  1  0
 13 12  2  0
 15 14  1  6
 15 17  1  0
 16 15  1  0
 17 19  2  0
 17 18  1  0
M  END
$$$$
