AAN.pdb
     RDKit          3D

 19 18  0  0  1  0  0  0  0  0999 V2000
    8.1838  -16.1496   15.5235 C   0  0  0  0  0  0  0  0  0  0  0  0
    8.6022  -16.5211   16.9146 C   0  0  2  0  0  0  0  0  0  0  0  0
    7.4648  -17.1877   17.5640 N   0  0  0  0  0  0  0  0  0  0  0  0
    8.9549  -15.3126   17.6715 C   0  0  0  0  0  0  0  0  0  0  0  0
   10.1068  -14.8255   17.5713 O   0  0  0  0  0  0  0  0  0  0  0  0
    7.0844  -12.8382   19.8456 C   0  0  0  0  0  0  0  0  0  0  0  0
    8.3344  -13.5544   19.3556 C   0  0  2  0  0  0  0  0  0  0  0  0
    7.9936  -14.6829   18.5257 N   0  0  0  0  0  0  0  0  0  0  0  0
    9.0413  -14.0593   20.5609 C   0  0  0  0  0  0  0  0  0  0  0  0
    9.4809  -13.2664   21.4484 O   0  0  0  0  0  0  0  0  0  0  0  0
   10.5725  -19.2586   23.4786 N   0  0  0  0  0  0  0  0  0  0  0  0
   10.1120  -17.9143   23.5045 C   0  0  0  0  0  0  0  0  0  0  0  0
   10.2801  -17.2666   24.5688 O   0  0  0  0  0  0  0  0  0  0  0  0
    9.4687  -17.2938   22.3545 C   0  0  0  0  0  0  0  0  0  0  0  0
    9.9656  -15.9435   21.9635 C   0  0  2  0  0  0  0  0  0  0  0  0
    9.2619  -15.4549   20.7829 N   0  0  0  0  0  0  0  0  0  0  0  0
   11.4268  -15.9719   21.7478 C   0  0  0  0  0  0  0  0  0  0  0  0
   11.9889  -16.3526   20.5248 O   0  0  0  0  0  0  0  0  0  0  0  0
   12.1773  -15.6447   22.6902 O   0  0  0  0  0  0  0  0  0  0  0  0
  2  3  1  0
  2  1  1  6
  4  2  1  0
  5  4  2  0
  7  6  1  1
  7  8  1  0
  7  9  1  0
  8  4  1  0
  9 16  1  0
 10  9  2  0
 11 12  1  0
 12 14  1  0
 13 12  2  0
 15 14  1  6
 15 17  1  0
 16 15  1  0
 17 19  2  0
 17 18  1  0
M  END
$$$$
