AAN.pdb
     RDKit          3D

 19 18  0  0  1  0  0  0  0  0999 V2000
    7.9995  -16.4470   15.5065 C   0  0  0  0  0  0  0  0  0  0  0  0
    8.5357  -16.5680   16.9015 C   0  0  2  0  0  0  0  0  0  0  0  0
    7.4134  -16.9075   17.7875 N   0  0  0  0  0  0  0  0  0  0  0  0
    9.1214  -15.2894   17.3261 C   0  0  0  0  0  0  0  0  0  0  0  0
   10.2280  -14.9234   16.8620 O   0  0  0  0  0  0  0  0  0  0  0  0
    7.9051  -12.3170   19.3259 C   0  0  0  0  0  0  0  0  0  0  0  0
    8.9824  -13.1905   18.6999 C   0  0  2  0  0  0  0  0  0  0  0  0
    8.4391  -14.4540   18.2678 N   0  0  0  0  0  0  0  0  0  0  0  0
    9.9908  -13.4549   19.7586 C   0  0  0  0  0  0  0  0  0  0  0  0
   10.6391  -12.5099   20.3029 O   0  0  0  0  0  0  0  0  0  0  0  0
   10.6965  -16.9794   24.6189 N   0  0  0  0  0  0  0  0  0  0  0  0
   11.1704  -16.0606   23.6437 C   0  0  0  0  0  0  0  0  0  0  0  0
   12.2767  -15.5049   23.8631 O   0  0  0  0  0  0  0  0  0  0  0  0
   10.4195  -15.7612   22.4322 C   0  0  0  0  0  0  0  0  0  0  0  0
   11.1497  -15.0210   21.3635 C   0  0  2  0  0  0  0  0  0  0  0  0
   10.2819  -14.7782   20.2166 N   0  0  0  0  0  0  0  0  0  0  0  0
   12.3722  -15.7514   20.9704 C   0  0  0  0  0  0  0  0  0  0  0  0
   13.6216  -15.4605   21.5279 O   0  0  0  0  0  0  0  0  0  0  0  0
   12.2801  -16.6549   20.1138 O   0  0  0  0  0  0  0  0  0  0  0  0
  2  3  1  0
  2  1  1  6
  4  2  1  0
  5  4  2  0
  7  6  1  1
  7  8  1  0
  7  9  1  0
  8  4  1  0
  9 16  1  0
 10  9  2  0
 11 12  1  0
 12 14  1  0
 13 12  2  0
 15 14  1  1
 15 17  1  0
 16 15  1  0
 17 19  2  0
 17 18  1  0
M  END
$$$$
