AAN.pdb
     RDKit          3D

 19 18  0  0  1  0  0  0  0  0999 V2000
    7.4360  -17.4306   17.1286 C   0  0  0  0  0  0  0  0  0  0  0  0
    8.1543  -17.4783   18.4439 C   0  0  2  0  0  0  0  0  0  0  0  0
    7.2162  -17.9938   19.4509 N   0  0  0  0  0  0  0  0  0  0  0  0
    8.5871  -16.1281   18.8280 C   0  0  0  0  0  0  0  0  0  0  0  0
    9.7005  -15.6952   18.4445 O   0  0  0  0  0  0  0  0  0  0  0  0
    6.9898  -13.0918   20.3655 C   0  0  0  0  0  0  0  0  0  0  0  0
    8.1791  -14.0058   20.1093 C   0  0  2  0  0  0  0  0  0  0  0  0
    7.7476  -15.2983   19.6386 N   0  0  0  0  0  0  0  0  0  0  0  0
    8.8680  -14.1910   21.4126 C   0  0  0  0  0  0  0  0  0  0  0  0
    9.3680  -13.2082   22.0400 O   0  0  0  0  0  0  0  0  0  0  0  0
    6.3765  -16.9497   23.8873 N   0  0  0  0  0  0  0  0  0  0  0  0
    7.4808  -16.2745   24.4744 C   0  0  0  0  0  0  0  0  0  0  0  0
    7.2267  -15.3504   25.2881 O   0  0  0  0  0  0  0  0  0  0  0  0
    8.8590  -16.6242   24.1590 C   0  0  0  0  0  0  0  0  0  0  0  0
    9.6216  -15.6435   23.3346 C   0  0  2  0  0  0  0  0  0  0  0  0
    9.0028  -15.4768   22.0244 N   0  0  0  0  0  0  0  0  0  0  0  0
   11.0353  -16.0555   23.2155 C   0  0  0  0  0  0  0  0  0  0  0  0
   11.8759  -16.1532   24.3292 O   0  0  0  0  0  0  0  0  0  0  0  0
   11.4872  -16.3233   22.0830 O   0  0  0  0  0  0  0  0  0  0  0  0
  2  3  1  0
  2  1  1  6
  4  2  1  0
  5  4  2  0
  7  6  1  1
  7  8  1  0
  7  9  1  0
  8  4  1  0
  9 16  1  0
 10  9  2  0
 11 12  1  0
 12 14  1  0
 13 12  2  0
 15 14  1  1
 15 17  1  0
 16 15  1  0
 17 19  2  0
 17 18  1  0
M  END
$$$$
