AAN.pdb
     RDKit          3D

 19 18  0  0  1  0  0  0  0  0999 V2000
    9.0111  -12.2875   19.8366 C   0  0  0  0  0  0  0  0  0  0  0  0
    8.5311  -13.5080   19.1099 C   0  0  2  0  0  0  0  0  0  0  0  0
    7.1649  -13.2427   18.6375 N   0  0  0  0  0  0  0  0  0  0  0  0
    8.5159  -14.6603   20.0209 C   0  0  0  0  0  0  0  0  0  0  0  0
    7.4219  -15.1467   20.3962 O   0  0  0  0  0  0  0  0  0  0  0  0
    9.7346  -17.4254   19.4017 C   0  0  0  0  0  0  0  0  0  0  0  0
    9.8838  -16.6536   20.7046 C   0  0  2  0  0  0  0  0  0  0  0  0
    9.7416  -15.2357   20.4864 N   0  0  0  0  0  0  0  0  0  0  0  0
   11.2594  -16.9125   21.2028 C   0  0  0  0  0  0  0  0  0  0  0  0
   11.6419  -18.0836   21.5056 O   0  0  0  0  0  0  0  0  0  0  0  0
   13.9852  -14.0263   19.0417 N   0  0  0  0  0  0  0  0  0  0  0  0
   14.4206  -15.2116   19.6939 C   0  0  0  0  0  0  0  0  0  0  0  0
   14.6807  -16.2066   18.9708 O   0  0  0  0  0  0  0  0  0  0  0  0
   14.5662  -15.2904   21.1410 C   0  0  0  0  0  0  0  0  0  0  0  0
   13.5636  -16.1229   21.8654 C   0  0  2  0  0  0  0  0  0  0  0  0
   12.2179  -15.8635   21.3662 N   0  0  0  0  0  0  0  0  0  0  0  0
   13.6531  -15.8910   23.3216 C   0  0  0  0  0  0  0  0  0  0  0  0
   12.5486  -15.4846   24.0775 O   0  0  0  0  0  0  0  0  0  0  0  0
   14.7515  -16.0650   23.8889 O   0  0  0  0  0  0  0  0  0  0  0  0
  2  3  1  0
  2  1  1  1
  4  2  1  0
  5  4  2  0
  7  6  1  6
  7  8  1  0
  7  9  1  0
  8  4  1  0
  9 16  1  0
 10  9  2  0
 11 12  1  0
 12 14  1  0
 13 12  2  0
 15 14  1  6
 15 17  1  0
 16 15  1  0
 17 19  2  0
 17 18  1  0
M  END
$$$$
