AAN.pdb
     RDKit          3D

 19 18  0  0  1  0  0  0  0  0999 V2000
    8.5561  -12.0960   19.5218 C   0  0  0  0  0  0  0  0  0  0  0  0
    8.1330  -13.3105   18.7511 C   0  0  2  0  0  0  0  0  0  0  0  0
    6.7772  -13.0686   18.2380 N   0  0  0  0  0  0  0  0  0  0  0  0
    8.1169  -14.4842   19.6343 C   0  0  0  0  0  0  0  0  0  0  0  0
    7.0227  -14.9646   20.0166 O   0  0  0  0  0  0  0  0  0  0  0  0
    9.1812  -17.2822   19.0023 C   0  0  0  0  0  0  0  0  0  0  0  0
    9.4572  -16.5078   20.2828 C   0  0  2  0  0  0  0  0  0  0  0  0
    9.3421  -15.0875   20.0647 N   0  0  0  0  0  0  0  0  0  0  0  0
   10.8594  -16.8070   20.6727 C   0  0  0  0  0  0  0  0  0  0  0  0
   11.2496  -17.9980   20.8698 O   0  0  0  0  0  0  0  0  0  0  0  0
   14.1298  -15.8212   18.1485 N   0  0  0  0  0  0  0  0  0  0  0  0
   13.9121  -14.8615   19.1740 C   0  0  0  0  0  0  0  0  0  0  0  0
   13.4846  -13.7314   18.8263 O   0  0  0  0  0  0  0  0  0  0  0  0
   14.1678  -15.1560   20.5773 C   0  0  0  0  0  0  0  0  0  0  0  0
   13.2052  -16.0748   21.2497 C   0  0  2  0  0  0  0  0  0  0  0  0
   11.8360  -15.7763   20.8450 N   0  0  0  0  0  0  0  0  0  0  0  0
   13.3618  -16.0054   22.7170 C   0  0  0  0  0  0  0  0  0  0  0  0
   12.3098  -15.6285   23.5583 O   0  0  0  0  0  0  0  0  0  0  0  0
   14.4698  -16.2934   23.2149 O   0  0  0  0  0  0  0  0  0  0  0  0
  2  3  1  0
  2  1  1  1
  4  2  1  0
  5  4  2  0
  7  6  1  6
  7  8  1  0
  7  9  1  0
  8  4  1  0
  9 16  1  0
 10  9  2  0
 11 12  1  0
 12 14  1  0
 13 12  2  0
 15 14  1  6
 15 17  1  0
 16 15  1  0
 17 19  2  0
 17 18  1  0
M  END
$$$$
