VHM.pdb
     RDKit          3D

 26 26  0  0  1  0  0  0  0  0999 V2000
    8.3162  -12.9860   19.8650 C   0  0  0  0  0  0  0  0  0  0  0  0
    8.0707  -13.6595   18.5490 C   0  0  1  0  0  0  0  0  0  0  0  0
    8.2736  -12.7050   17.3828 C   0  0  0  0  0  0  0  0  0  0  0  0
    8.9303  -14.8750   18.4012 C   0  0  2  0  0  0  0  0  0  0  0  0
    8.4898  -15.6454   17.2128 N   0  0  0  0  0  0  0  0  0  0  0  0
    8.8581  -15.8047   19.5504 C   0  0  0  0  0  0  0  0  0  0  0  0
    8.4085  -16.9922   19.3446 O   0  0  0  0  0  0  0  0  0  0  0  0
    9.2393  -15.5248   20.8717 N   0  0  0  0  0  0  0  0  0  0  0  0
    9.2909  -16.6152   21.8852 C   0  0  1  0  0  0  0  0  0  0  0  0
   10.3143  -17.5563   21.3493 C   0  0  0  0  0  0  0  0  0  0  0  0
    9.8426  -18.7084   20.5957 C   0  0  0  0  0  0  0  0  0  0  0  0
    9.7831  -18.9123   19.2389 C   0  0  0  0  0  0  0  0  0  0  0  0
    9.2473  -20.1174   18.9568 N   0  0  0  0  0  0  0  0  0  0  0  0
    8.9640  -20.6836   20.1437 C   0  0  0  0  0  0  0  0  0  0  0  0
    9.3145  -19.8531   21.1227 N   0  0  0  0  0  0  0  0  0  0  0  0
    9.5804  -15.9751   23.1647 C   0  0  0  0  0  0  0  0  0  0  0  0
   10.6702  -15.3824   23.3528 O   0  0  0  0  0  0  0  0  0  0  0  0
    6.0605  -11.2339   28.1817 C   0  0  0  0  0  0  0  0  0  0  0  0
    6.0274  -12.4549   26.8843 S   0  0  0  0  0  0  0  0  0  0  0  0
    7.5560  -13.3332   26.6620 C   0  0  0  0  0  0  0  0  0  0  0  0
    7.6199  -14.2947   25.5325 C   0  0  0  0  0  0  0  0  0  0  0  0
    8.8510  -15.1300   25.4110 C   0  0  2  0  0  0  0  0  0  0  0  0
    8.6695  -15.9796   24.2381 N   0  0  0  0  0  0  0  0  0  0  0  0
    9.1336  -15.8518   26.6483 C   0  0  0  0  0  0  0  0  0  0  0  0
    9.7407  -15.2875   27.7403 O   0  0  0  0  0  0  0  0  0  0  0  0
    8.8111  -17.0617   26.7481 O   0  0  0  0  0  0  0  0  0  0  0  0
  2  4  1  0
  2  1  1  1
  3  2  1  0
  4  6  1  0
  4  5  1  6
  6  7  2  0
  8  9  1  0
  8  6  1  0
  9 16  1  0
 10 11  1  0
  9 10  1  6
 11 15  1  0
 12 11  2  0
 12 13  1  0
 13 14  1  0
 15 14  2  0
 16 17  2  0
 18 19  1  0
 19 20  1  0
 20 21  1  0
 22 21  1  1
 22 24  1  0
 23 22  1  0
 23 16  1  0
 24 26  2  0
 24 25  1  0
M  END
$$$$
