VHM.pdb
     RDKit          3D

 26 26  0  0  1  0  0  0  0  0999 V2000
    8.5751  -12.6032   21.0250 C   0  0  0  0  0  0  0  0  0  0  0  0
    7.8345  -13.4089   20.0012 C   0  0  1  0  0  0  0  0  0  0  0  0
    7.7715  -12.6931   18.6611 C   0  0  0  0  0  0  0  0  0  0  0  0
    8.4372  -14.7700   19.8529 C   0  0  2  0  0  0  0  0  0  0  0  0
    7.5932  -15.5835   18.9441 N   0  0  0  0  0  0  0  0  0  0  0  0
    8.5318  -15.5262   21.1215 C   0  0  0  0  0  0  0  0  0  0  0  0
    7.4422  -15.9413   21.6647 O   0  0  0  0  0  0  0  0  0  0  0  0
    9.7107  -15.8497   21.8109 N   0  0  0  0  0  0  0  0  0  0  0  0
    9.6555  -16.6912   23.0388 C   0  0  1  0  0  0  0  0  0  0  0  0
   10.5630  -17.8329   22.7335 C   0  0  0  0  0  0  0  0  0  0  0  0
   10.0830  -18.8472   21.8069 C   0  0  0  0  0  0  0  0  0  0  0  0
    8.8295  -19.3891   21.6620 C   0  0  0  0  0  0  0  0  0  0  0  0
    8.8208  -20.3293   20.6952 N   0  0  0  0  0  0  0  0  0  0  0  0
   10.0788  -20.3854   20.2221 C   0  0  0  0  0  0  0  0  0  0  0  0
   10.8352  -19.5080   20.8772 N   0  0  0  0  0  0  0  0  0  0  0  0
   10.0294  -15.8226   24.1506 C   0  0  0  0  0  0  0  0  0  0  0  0
   11.0874  -15.1492   24.1103 O   0  0  0  0  0  0  0  0  0  0  0  0
    5.4166  -12.6197   26.5969 C   0  0  0  0  0  0  0  0  0  0  0  0
    7.0613  -12.0335   26.9522 S   0  0  0  0  0  0  0  0  0  0  0  0
    8.3623  -13.0612   26.3127 C   0  0  0  0  0  0  0  0  0  0  0  0
    8.7405  -14.2470   27.1219 C   0  0  0  0  0  0  0  0  0  0  0  0
    9.7765  -15.1614   26.5570 C   0  0  2  0  0  0  0  0  0  0  0  0
    9.2375  -15.6872   25.3067 N   0  0  0  0  0  0  0  0  0  0  0  0
   10.1775  -16.1796   27.5236 C   0  0  0  0  0  0  0  0  0  0  0  0
   10.9385  -15.9209   28.6342 O   0  0  0  0  0  0  0  0  0  0  0  0
    9.8172  -17.3710   27.3550 O   0  0  0  0  0  0  0  0  0  0  0  0
  2  4  1  0
  2  1  1  1
  3  2  1  0
  4  6  1  0
  4  5  1  6
  6  7  2  0
  8  9  1  0
  8  6  1  0
  9 16  1  0
 10 11  1  0
  9 10  1  6
 11 15  1  0
 12 11  2  0
 12 13  1  0
 13 14  1  0
 15 14  2  0
 16 17  2  0
 18 19  1  0
 19 20  1  0
 20 21  1  0
 22 21  1  1
 22 24  1  0
 23 22  1  0
 23 16  1  0
 24 26  2  0
 24 25  1  0
M  END
$$$$
