VHM.pdb
     RDKit          3D

 26 26  0  0  1  0  0  0  0  0999 V2000
    7.7367  -12.2230   19.4193 C   0  0  0  0  0  0  0  0  0  0  0  0
    8.1672  -13.2050   20.4663 C   0  0  1  0  0  0  0  0  0  0  0  0
    7.1087  -13.3770   21.5444 C   0  0  0  0  0  0  0  0  0  0  0  0
    8.5232  -14.5214   19.8513 C   0  0  2  0  0  0  0  0  0  0  0  0
    7.3494  -15.0526   19.1164 N   0  0  0  0  0  0  0  0  0  0  0  0
    8.9037  -15.5600   20.8346 C   0  0  0  0  0  0  0  0  0  0  0  0
    8.0040  -16.3978   21.2132 O   0  0  0  0  0  0  0  0  0  0  0  0
   10.1717  -15.7358   21.4098 N   0  0  0  0  0  0  0  0  0  0  0  0
   10.3815  -16.7672   22.4639 C   0  0  1  0  0  0  0  0  0  0  0  0
   11.7195  -17.3402   22.1453 C   0  0  0  0  0  0  0  0  0  0  0  0
   11.7855  -18.3701   21.1194 C   0  0  0  0  0  0  0  0  0  0  0  0
   10.7752  -19.0308   20.4646 C   0  0  0  0  0  0  0  0  0  0  0  0
   11.2747  -19.9385   19.6012 N   0  0  0  0  0  0  0  0  0  0  0  0
   12.6129  -19.8541   19.7083 C   0  0  0  0  0  0  0  0  0  0  0  0
   12.9249  -18.9246   20.6082 N   0  0  0  0  0  0  0  0  0  0  0  0
   10.2386  -16.0821   23.7449 C   0  0  0  0  0  0  0  0  0  0  0  0
   10.4685  -14.8526   23.8434 O   0  0  0  0  0  0  0  0  0  0  0  0
    6.6215  -11.3274   26.1323 C   0  0  0  0  0  0  0  0  0  0  0  0
    6.6116  -13.1022   26.2903 S   0  0  0  0  0  0  0  0  0  0  0  0
    8.1477  -13.8870   25.8633 C   0  0  0  0  0  0  0  0  0  0  0  0
    8.1790  -15.3706   25.9081 C   0  0  0  0  0  0  0  0  0  0  0  0
    9.5014  -16.0225   26.1417 C   0  0  2  0  0  0  0  0  0  0  0  0
    9.8361  -16.7462   24.9192 N   0  0  0  0  0  0  0  0  0  0  0  0
    9.4895  -16.8413   27.3505 C   0  0  0  0  0  0  0  0  0  0  0  0
    9.2519  -18.1915   27.3563 O   0  0  0  0  0  0  0  0  0  0  0  0
    9.7086  -16.3051   28.4650 O   0  0  0  0  0  0  0  0  0  0  0  0
  2  4  1  0
  2  1  1  6
  3  2  1  0
  4  6  1  0
  4  5  1  1
  6  7  2  0
  8  9  1  0
  8  6  1  0
  9 16  1  0
 10 11  1  0
  9 10  1  1
 11 15  1  0
 12 11  2  0
 12 13  1  0
 13 14  1  0
 15 14  2  0
 16 17  2  0
 18 19  1  0
 19 20  1  0
 20 21  1  0
 22 21  1  6
 22 24  1  0
 23 22  1  0
 23 16  1  0
 24 26  2  0
 24 25  1  0
M  END
$$$$
