VHM.pdb
     RDKit          3D

 26 26  0  0  1  0  0  0  0  0999 V2000
    8.3989  -12.1733   18.7444 C   0  0  0  0  0  0  0  0  0  0  0  0
    8.3928  -13.1569   19.8749 C   0  0  1  0  0  0  0  0  0  0  0  0
    7.0102  -13.2940   20.4929 C   0  0  0  0  0  0  0  0  0  0  0  0
    8.9142  -14.4867   19.4302 C   0  0  2  0  0  0  0  0  0  0  0  0
    8.0558  -15.0099   18.3395 N   0  0  0  0  0  0  0  0  0  0  0  0
    8.9129  -15.5177   20.4919 C   0  0  0  0  0  0  0  0  0  0  0  0
    8.4037  -16.6678   20.2222 O   0  0  0  0  0  0  0  0  0  0  0  0
    9.4226  -15.3736   21.7915 N   0  0  0  0  0  0  0  0  0  0  0  0
    9.5084  -16.5516   22.6992 C   0  0  1  0  0  0  0  0  0  0  0  0
   10.4831  -17.4547   22.0252 C   0  0  0  0  0  0  0  0  0  0  0  0
    9.9494  -18.5510   21.2308 C   0  0  0  0  0  0  0  0  0  0  0  0
    8.6696  -18.7799   20.7882 C   0  0  0  0  0  0  0  0  0  0  0  0
    8.5984  -19.9383   20.1012 N   0  0  0  0  0  0  0  0  0  0  0  0
    9.8426  -20.4495   20.1075 C   0  0  0  0  0  0  0  0  0  0  0  0
   10.6515  -19.6316   20.7765 N   0  0  0  0  0  0  0  0  0  0  0  0
    9.8790  -16.0335   24.0125 C   0  0  0  0  0  0  0  0  0  0  0  0
   10.9394  -15.3811   24.1683 O   0  0  0  0  0  0  0  0  0  0  0  0
    6.6918  -11.0047   25.9933 C   0  0  0  0  0  0  0  0  0  0  0  0
    6.8627  -12.5528   26.8588 S   0  0  0  0  0  0  0  0  0  0  0  0
    8.1976  -13.5741   26.2822 C   0  0  0  0  0  0  0  0  0  0  0  0
    8.3997  -14.8705   26.9769 C   0  0  0  0  0  0  0  0  0  0  0  0
    9.4925  -15.7551   26.4752 C   0  0  2  0  0  0  0  0  0  0  0  0
    9.0812  -16.2259   25.1564 N   0  0  0  0  0  0  0  0  0  0  0  0
    9.8058  -16.8144   27.4300 C   0  0  0  0  0  0  0  0  0  0  0  0
   10.4936  -16.6108   28.5983 O   0  0  0  0  0  0  0  0  0  0  0  0
    9.4345  -17.9910   27.1948 O   0  0  0  0  0  0  0  0  0  0  0  0
  2  4  1  0
  2  1  1  6
  3  2  1  0
  4  6  1  0
  4  5  1  6
  6  7  2  0
  8  9  1  0
  8  6  1  0
  9 16  1  0
 10 11  1  0
  9 10  1  6
 11 15  1  0
 12 11  2  0
 12 13  1  0
 13 14  1  0
 15 14  2  0
 16 17  2  0
 18 19  1  0
 19 20  1  0
 20 21  1  0
 22 21  1  1
 22 24  1  0
 23 22  1  0
 23 16  1  0
 24 26  2  0
 24 25  1  0
M  END
$$$$
