VHM.pdb
     RDKit          3D

 26 26  0  0  1  0  0  0  0  0999 V2000
    8.1737  -12.6631   20.2306 C   0  0  0  0  0  0  0  0  0  0  0  0
    7.9036  -13.3542   18.9286 C   0  0  1  0  0  0  0  0  0  0  0  0
    8.0517  -12.4069   17.7484 C   0  0  0  0  0  0  0  0  0  0  0  0
    8.7840  -14.5528   18.7663 C   0  0  2  0  0  0  0  0  0  0  0  0
    8.3543  -15.3182   17.5706 N   0  0  0  0  0  0  0  0  0  0  0  0
    8.7306  -15.4957   19.9057 C   0  0  0  0  0  0  0  0  0  0  0  0
    8.3128  -16.6923   19.6857 O   0  0  0  0  0  0  0  0  0  0  0  0
    9.0983  -15.2195   21.2316 N   0  0  0  0  0  0  0  0  0  0  0  0
    9.2260  -16.3255   22.2212 C   0  0  1  0  0  0  0  0  0  0  0  0
   10.1987  -17.2617   21.5909 C   0  0  0  0  0  0  0  0  0  0  0  0
   10.5029  -18.4962   22.2989 C   0  0  0  0  0  0  0  0  0  0  0  0
   10.0107  -18.9773   23.4873 C   0  0  0  0  0  0  0  0  0  0  0  0
   10.5836  -20.1567   23.8029 N   0  0  0  0  0  0  0  0  0  0  0  0
   11.4467  -20.4271   22.8072 C   0  0  0  0  0  0  0  0  0  0  0  0
   11.4051  -19.4456   21.9095 N   0  0  0  0  0  0  0  0  0  0  0  0
    9.6200  -15.7060   23.4828 C   0  0  0  0  0  0  0  0  0  0  0  0
   10.6758  -15.0330   23.5641 O   0  0  0  0  0  0  0  0  0  0  0  0
    6.0679  -11.6741   26.4147 C   0  0  0  0  0  0  0  0  0  0  0  0
    6.9843  -12.2377   27.8351 S   0  0  0  0  0  0  0  0  0  0  0  0
    8.2908  -13.3824   27.4605 C   0  0  0  0  0  0  0  0  0  0  0  0
    8.1284  -14.2104   26.2389 C   0  0  0  0  0  0  0  0  0  0  0  0
    9.2320  -15.1564   25.8992 C   0  0  2  0  0  0  0  0  0  0  0  0
    8.8506  -15.8196   24.6562 N   0  0  0  0  0  0  0  0  0  0  0  0
    9.5234  -16.0608   27.0078 C   0  0  0  0  0  0  0  0  0  0  0  0
    9.3263  -17.4166   26.9597 O   0  0  0  0  0  0  0  0  0  0  0  0
    9.9846  -15.5983   28.0807 O   0  0  0  0  0  0  0  0  0  0  0  0
  2  4  1  0
  2  1  1  1
  3  2  1  0
  4  6  1  0
  4  5  1  6
  6  7  2  0
  8  9  1  0
  8  6  1  0
  9 16  1  0
 10 11  1  0
  9 10  1  6
 11 15  1  0
 12 11  2  0
 12 13  1  0
 13 14  1  0
 15 14  2  0
 16 17  2  0
 18 19  1  0
 19 20  1  0
 20 21  1  0
 22 21  1  1
 22 24  1  0
 23 22  1  0
 23 16  1  0
 24 26  2  0
 24 25  1  0
M  END
$$$$
