VHM.pdb
     RDKit          3D

 26 26  0  0  1  0  0  0  0  0999 V2000
    6.8447  -13.2225   19.9492 C   0  0  0  0  0  0  0  0  0  0  0  0
    8.1811  -12.8946   19.3556 C   0  0  1  0  0  0  0  0  0  0  0  0
    9.0765  -12.1740   20.3511 C   0  0  0  0  0  0  0  0  0  0  0  0
    8.8490  -14.1252   18.8285 C   0  0  2  0  0  0  0  0  0  0  0  0
    7.9613  -14.7774   17.8352 N   0  0  0  0  0  0  0  0  0  0  0  0
    9.1345  -15.1435   19.8637 C   0  0  0  0  0  0  0  0  0  0  0  0
    8.2008  -15.9712   20.1764 O   0  0  0  0  0  0  0  0  0  0  0  0
   10.3442  -15.3095   20.5555 N   0  0  0  0  0  0  0  0  0  0  0  0
   10.4362  -16.2751   21.6861 C   0  0  1  0  0  0  0  0  0  0  0  0
   11.7868  -16.8846   21.5296 C   0  0  0  0  0  0  0  0  0  0  0  0
   11.9222  -17.9953   20.5992 C   0  0  0  0  0  0  0  0  0  0  0  0
   10.9756  -18.8687   20.1224 C   0  0  0  0  0  0  0  0  0  0  0  0
   11.5321  -19.7757   19.2939 N   0  0  0  0  0  0  0  0  0  0  0  0
   12.8426  -19.4764   19.2440 C   0  0  0  0  0  0  0  0  0  0  0  0
   13.0829  -18.4199   20.0166 N   0  0  0  0  0  0  0  0  0  0  0  0
   10.1886  -15.5088   22.9035 C   0  0  0  0  0  0  0  0  0  0  0  0
   10.3131  -14.2603   22.9114 O   0  0  0  0  0  0  0  0  0  0  0  0
    6.1885  -12.0698   27.3304 C   0  0  0  0  0  0  0  0  0  0  0  0
    7.4116  -12.8823   26.3209 S   0  0  0  0  0  0  0  0  0  0  0  0
    6.7879  -14.2416   25.3614 C   0  0  0  0  0  0  0  0  0  0  0  0
    7.7630  -14.9617   24.5041 C   0  0  0  0  0  0  0  0  0  0  0  0
    9.0477  -15.3871   25.1340 C   0  0  2  0  0  0  0  0  0  0  0  0
    9.7972  -16.1129   24.1133 N   0  0  0  0  0  0  0  0  0  0  0  0
    8.8186  -16.1335   26.3678 C   0  0  0  0  0  0  0  0  0  0  0  0
    9.1355  -15.6624   27.6156 O   0  0  0  0  0  0  0  0  0  0  0  0
    8.3004  -17.2764   26.3141 O   0  0  0  0  0  0  0  0  0  0  0  0
  2  4  1  0
  2  1  1  1
  3  2  1  0
  4  6  1  0
  4  5  1  6
  6  7  2  0
  8  9  1  0
  8  6  1  0
  9 16  1  0
 10 11  1  0
  9 10  1  1
 11 15  1  0
 12 11  2  0
 12 13  1  0
 13 14  1  0
 15 14  2  0
 16 17  2  0
 18 19  1  0
 19 20  1  0
 20 21  1  0
 22 21  1  6
 22 24  1  0
 23 22  1  0
 23 16  1  0
 24 26  2  0
 24 25  1  0
M  END
$$$$
