VHM.pdb
     RDKit          3D

 26 26  0  0  1  0  0  0  0  0999 V2000
    8.7436  -12.5577   21.0344 C   0  0  0  0  0  0  0  0  0  0  0  0
    7.6905  -13.1348   20.1378 C   0  0  1  0  0  0  0  0  0  0  0  0
    7.3799  -12.2122   18.9696 C   0  0  0  0  0  0  0  0  0  0  0  0
    8.0850  -14.4948   19.6553 C   0  0  2  0  0  0  0  0  0  0  0  0
    6.9949  -15.0534   18.8188 N   0  0  0  0  0  0  0  0  0  0  0  0
    8.3194  -15.4725   20.7412 C   0  0  0  0  0  0  0  0  0  0  0  0
    7.2982  -15.9489   21.3615 O   0  0  0  0  0  0  0  0  0  0  0  0
    9.5656  -15.9499   21.1757 N   0  0  0  0  0  0  0  0  0  0  0  0
    9.6468  -16.9150   22.3074 C   0  0  1  0  0  0  0  0  0  0  0  0
   10.8005  -17.7887   21.9530 C   0  0  0  0  0  0  0  0  0  0  0  0
   11.1427  -18.8616   22.8748 C   0  0  0  0  0  0  0  0  0  0  0  0
   10.5470  -19.2366   24.0540 C   0  0  0  0  0  0  0  0  0  0  0  0
   11.2022  -20.2731   24.6153 N   0  0  0  0  0  0  0  0  0  0  0  0
   12.2223  -20.5589   23.7864 C   0  0  0  0  0  0  0  0  0  0  0  0
   12.1943  -19.7249   22.7497 N   0  0  0  0  0  0  0  0  0  0  0  0
    9.7658  -16.1156   23.5228 C   0  0  0  0  0  0  0  0  0  0  0  0
   10.6704  -15.2536   23.6370 O   0  0  0  0  0  0  0  0  0  0  0  0
    6.3775  -10.9022   25.3195 C   0  0  0  0  0  0  0  0  0  0  0  0
    6.4103  -12.5298   26.0438 S   0  0  0  0  0  0  0  0  0  0  0  0
    7.8585  -13.4811   25.6494 C   0  0  0  0  0  0  0  0  0  0  0  0
    7.9645  -14.8286   26.2635 C   0  0  0  0  0  0  0  0  0  0  0  0
    9.1597  -15.6510   25.9121 C   0  0  2  0  0  0  0  0  0  0  0  0
    8.8865  -16.2575   24.6130 N   0  0  0  0  0  0  0  0  0  0  0  0
    9.4872  -16.6010   26.9713 C   0  0  0  0  0  0  0  0  0  0  0  0
    9.4497  -17.9624   26.8148 O   0  0  0  0  0  0  0  0  0  0  0  0
    9.8288  -16.1752   28.1025 O   0  0  0  0  0  0  0  0  0  0  0  0
  2  4  1  0
  2  1  1  6
  3  2  1  0
  4  6  1  0
  4  5  1  6
  6  7  2  0
  8  9  1  0
  8  6  1  0
  9 16  1  0
 10 11  1  0
  9 10  1  6
 11 15  1  0
 12 11  2  0
 12 13  1  0
 13 14  1  0
 15 14  2  0
 16 17  2  0
 18 19  1  0
 19 20  1  0
 20 21  1  0
 22 21  1  1
 22 24  1  0
 23 22  1  0
 23 16  1  0
 24 26  2  0
 24 25  1  0
M  END
$$$$
