VHM.pdb
     RDKit          3D

 26 26  0  0  1  0  0  0  0  0999 V2000
    8.6656  -12.6148   20.8003 C   0  0  0  0  0  0  0  0  0  0  0  0
    7.8202  -13.2224   19.7224 C   0  0  1  0  0  0  0  0  0  0  0  0
    7.6727  -12.2892   18.5309 C   0  0  0  0  0  0  0  0  0  0  0  0
    8.3659  -14.5492   19.2983 C   0  0  2  0  0  0  0  0  0  0  0  0
    7.4446  -15.1659   18.3130 N   0  0  0  0  0  0  0  0  0  0  0  0
    8.5046  -15.5226   20.4045 C   0  0  0  0  0  0  0  0  0  0  0  0
    7.4335  -16.0149   20.9192 O   0  0  0  0  0  0  0  0  0  0  0  0
    9.7078  -15.9798   20.9639 N   0  0  0  0  0  0  0  0  0  0  0  0
    9.6905  -16.8577   22.1671 C   0  0  1  0  0  0  0  0  0  0  0  0
   10.8211  -17.8013   21.9402 C   0  0  0  0  0  0  0  0  0  0  0  0
   11.0909  -18.7917   22.9717 C   0  0  0  0  0  0  0  0  0  0  0  0
   10.4914  -18.9813   24.1927 C   0  0  0  0  0  0  0  0  0  0  0  0
   11.0681  -20.0027   24.8582 N   0  0  0  0  0  0  0  0  0  0  0  0
   12.0419  -20.4657   24.0538 C   0  0  0  0  0  0  0  0  0  0  0  0
   12.0622  -19.7517   22.9310 N   0  0  0  0  0  0  0  0  0  0  0  0
    9.7839  -15.9728   23.3241 C   0  0  0  0  0  0  0  0  0  0  0  0
   10.5955  -15.0160   23.3354 O   0  0  0  0  0  0  0  0  0  0  0  0
    6.2518  -11.6457   25.6265 C   0  0  0  0  0  0  0  0  0  0  0  0
    6.6968  -12.4089   27.1739 S   0  0  0  0  0  0  0  0  0  0  0  0
    8.0189  -13.5906   27.0576 C   0  0  0  0  0  0  0  0  0  0  0  0
    8.0937  -14.3940   25.8114 C   0  0  0  0  0  0  0  0  0  0  0  0
    9.2143  -15.3730   25.6922 C   0  0  2  0  0  0  0  0  0  0  0  0
    8.9804  -16.1339   24.4688 N   0  0  0  0  0  0  0  0  0  0  0  0
    9.3479  -16.1847   26.8985 C   0  0  0  0  0  0  0  0  0  0  0  0
   10.0387  -15.7873   28.0140 O   0  0  0  0  0  0  0  0  0  0  0  0
    8.8071  -17.3173   26.9469 O   0  0  0  0  0  0  0  0  0  0  0  0
  2  4  1  0
  2  1  1  1
  3  2  1  0
  4  6  1  0
  4  5  1  6
  6  7  2  0
  8  9  1  0
  8  6  1  0
  9 16  1  0
 10 11  1  0
  9 10  1  6
 11 15  1  0
 12 11  2  0
 12 13  1  0
 13 14  1  0
 15 14  2  0
 16 17  2  0
 18 19  1  0
 19 20  1  0
 20 21  1  0
 22 21  1  1
 22 24  1  0
 23 22  1  0
 23 16  1  0
 24 26  2  0
 24 25  1  0
M  END
$$$$
