VHM.pdb
     RDKit          3D

 26 26  0  0  1  0  0  0  0  0999 V2000
    8.6787  -12.7237   20.7443 C   0  0  0  0  0  0  0  0  0  0  0  0
    7.9513  -13.3708   19.6050 C   0  0  1  0  0  0  0  0  0  0  0  0
    7.9374  -12.4830   18.3706 C   0  0  0  0  0  0  0  0  0  0  0  0
    8.5329  -14.7131   19.2920 C   0  0  2  0  0  0  0  0  0  0  0  0
    7.7322  -15.3570   18.2223 N   0  0  0  0  0  0  0  0  0  0  0  0
    8.5288  -15.6509   20.4369 C   0  0  0  0  0  0  0  0  0  0  0  0
    7.3997  -16.1251   20.8305 O   0  0  0  0  0  0  0  0  0  0  0  0
    9.6513  -16.0918   21.1548 N   0  0  0  0  0  0  0  0  0  0  0  0
    9.4808  -16.9294   22.3747 C   0  0  1  0  0  0  0  0  0  0  0  0
   10.4955  -18.0086   22.2148 C   0  0  0  0  0  0  0  0  0  0  0  0
   10.1351  -19.1581   21.3984 C   0  0  0  0  0  0  0  0  0  0  0  0
    8.9754  -19.4263   20.7134 C   0  0  0  0  0  0  0  0  0  0  0  0
    9.0444  -20.6267   20.1026 N   0  0  0  0  0  0  0  0  0  0  0  0
   10.2573  -21.1253   20.4019 C   0  0  0  0  0  0  0  0  0  0  0  0
   10.9119  -20.2591   21.1715 N   0  0  0  0  0  0  0  0  0  0  0  0
    9.6372  -16.0324   23.5155 C   0  0  0  0  0  0  0  0  0  0  0  0
   10.6389  -15.2826   23.6088 O   0  0  0  0  0  0  0  0  0  0  0  0
    6.2048  -10.8395   26.0798 C   0  0  0  0  0  0  0  0  0  0  0  0
    6.1481  -12.2908   27.1121 S   0  0  0  0  0  0  0  0  0  0  0  0
    7.5872  -13.3274   27.0029 C   0  0  0  0  0  0  0  0  0  0  0  0
    7.6762  -14.2313   25.8284 C   0  0  0  0  0  0  0  0  0  0  0  0
    8.8872  -15.0971   25.7189 C   0  0  2  0  0  0  0  0  0  0  0  0
    8.6891  -15.9528   24.5532 N   0  0  0  0  0  0  0  0  0  0  0  0
    9.1482  -15.8141   26.9638 C   0  0  0  0  0  0  0  0  0  0  0  0
    9.7437  -15.2477   28.0610 O   0  0  0  0  0  0  0  0  0  0  0  0
    8.8167  -17.0214   27.0654 O   0  0  0  0  0  0  0  0  0  0  0  0
  2  4  1  0
  2  1  1  1
  3  2  1  0
  4  6  1  0
  4  5  1  6
  6  7  2  0
  8  9  1  0
  8  6  1  0
  9 16  1  0
 10 11  1  0
  9 10  1  1
 11 15  1  0
 12 11  2  0
 12 13  1  0
 13 14  1  0
 15 14  2  0
 16 17  2  0
 18 19  1  0
 19 20  1  0
 20 21  1  0
 22 21  1  1
 22 24  1  0
 23 22  1  0
 23 16  1  0
 24 26  2  0
 24 25  1  0
M  END
$$$$
