VHM.pdb
     RDKit          3D

 26 26  0  0  1  0  0  0  0  0999 V2000
    8.5744  -12.6398   20.7035 C   0  0  0  0  0  0  0  0  0  0  0  0
    8.0286  -13.2920   19.4695 C   0  0  1  0  0  0  0  0  0  0  0  0
    8.1462  -12.3843   18.2553 C   0  0  0  0  0  0  0  0  0  0  0  0
    8.6952  -14.6079   19.2202 C   0  0  2  0  0  0  0  0  0  0  0  0
    8.0696  -15.2592   18.0436 N   0  0  0  0  0  0  0  0  0  0  0  0
    8.5708  -15.5659   20.3414 C   0  0  0  0  0  0  0  0  0  0  0  0
    7.4727  -16.2256   20.4586 O   0  0  0  0  0  0  0  0  0  0  0  0
    9.5463  -15.8411   21.3121 N   0  0  0  0  0  0  0  0  0  0  0  0
    9.2991  -16.8789   22.3517 C   0  0  1  0  0  0  0  0  0  0  0  0
   10.5723  -17.6515   22.3987 C   0  0  0  0  0  0  0  0  0  0  0  0
   10.7749  -18.6803   21.3896 C   0  0  0  0  0  0  0  0  0  0  0  0
    9.9816  -19.0471   20.3303 C   0  0  0  0  0  0  0  0  0  0  0  0
   10.5301  -20.0758   19.6523 N   0  0  0  0  0  0  0  0  0  0  0  0
   11.6809  -20.3650   20.2858 C   0  0  0  0  0  0  0  0  0  0  0  0
   11.8340  -19.5407   21.3192 N   0  0  0  0  0  0  0  0  0  0  0  0
    8.9092  -16.1639   23.5630 C   0  0  0  0  0  0  0  0  0  0  0  0
    7.7185  -15.8123   23.7446 O   0  0  0  0  0  0  0  0  0  0  0  0
    6.4851  -10.7916   26.9360 C   0  0  0  0  0  0  0  0  0  0  0  0
    6.5970  -12.5627   26.7759 S   0  0  0  0  0  0  0  0  0  0  0  0
    7.9392  -13.1256   25.7566 C   0  0  0  0  0  0  0  0  0  0  0  0
    8.0699  -14.5924   25.5680 C   0  0  0  0  0  0  0  0  0  0  0  0
    9.4086  -15.2009   25.8246 C   0  0  2  0  0  0  0  0  0  0  0  0
    9.8264  -15.8397   24.5806 N   0  0  0  0  0  0  0  0  0  0  0  0
    9.3815  -16.0864   26.9852 C   0  0  0  0  0  0  0  0  0  0  0  0
    9.7813  -15.7114   28.2417 O   0  0  0  0  0  0  0  0  0  0  0  0
    8.9707  -17.2663   26.8555 O   0  0  0  0  0  0  0  0  0  0  0  0
  2  4  1  0
  2  1  1  1
  3  2  1  0
  4  6  1  0
  4  5  1  6
  6  7  2  0
  8  9  1  0
  8  6  1  0
  9 16  1  0
 10 11  1  0
  9 10  1  1
 11 15  1  0
 12 11  2  0
 12 13  1  0
 13 14  1  0
 15 14  2  0
 16 17  2  0
 18 19  1  0
 19 20  1  0
 20 21  1  0
 22 21  1  6
 22 24  1  0
 23 22  1  0
 23 16  1  0
 24 26  2  0
 24 25  1  0
M  END
$$$$
