VHM.pdb
     RDKit          3D

 26 26  0  0  1  0  0  0  0  0999 V2000
    7.4336  -12.5832   19.4359 C   0  0  0  0  0  0  0  0  0  0  0  0
    7.9482  -13.7475   18.6451 C   0  0  1  0  0  0  0  0  0  0  0  0
    8.5499  -13.3050   17.3205 C   0  0  0  0  0  0  0  0  0  0  0  0
    8.9343  -14.5418   19.4418 C   0  0  2  0  0  0  0  0  0  0  0  0
    9.4727  -15.6393   18.6019 N   0  0  0  0  0  0  0  0  0  0  0  0
    8.3571  -15.1826   20.6445 C   0  0  0  0  0  0  0  0  0  0  0  0
    7.7591  -14.4353   21.5040 O   0  0  0  0  0  0  0  0  0  0  0  0
    8.3898  -16.5510   20.9543 N   0  0  0  0  0  0  0  0  0  0  0  0
    7.6788  -17.0654   22.1580 C   0  0  1  0  0  0  0  0  0  0  0  0
    7.8634  -18.5419   22.0811 C   0  0  0  0  0  0  0  0  0  0  0  0
    7.3646  -19.3429   23.1890 C   0  0  0  0  0  0  0  0  0  0  0  0
    6.6769  -18.9620   24.3151 C   0  0  0  0  0  0  0  0  0  0  0  0
    6.4279  -20.0237   25.1086 N   0  0  0  0  0  0  0  0  0  0  0  0
    6.9617  -21.0875   24.4819 C   0  0  0  0  0  0  0  0  0  0  0  0
    7.5202  -20.6918   23.3406 N   0  0  0  0  0  0  0  0  0  0  0  0
    8.2640  -16.3803   23.3063 C   0  0  0  0  0  0  0  0  0  0  0  0
    9.4991  -16.1671   23.3644 O   0  0  0  0  0  0  0  0  0  0  0  0
    6.8499  -10.2586   26.8580 C   0  0  0  0  0  0  0  0  0  0  0  0
    6.2723  -11.8794   27.3212 S   0  0  0  0  0  0  0  0  0  0  0  0
    7.4146  -13.1948   26.9716 C   0  0  0  0  0  0  0  0  0  0  0  0
    7.1015  -14.0653   25.8104 C   0  0  0  0  0  0  0  0  0  0  0  0
    8.0734  -15.1502   25.4840 C   0  0  2  0  0  0  0  0  0  0  0  0
    7.4916  -15.9220   24.3904 N   0  0  0  0  0  0  0  0  0  0  0  0
    8.4191  -15.9340   26.6664 C   0  0  0  0  0  0  0  0  0  0  0  0
    8.0651  -17.2466   26.8430 O   0  0  0  0  0  0  0  0  0  0  0  0
    9.0809  -15.4016   27.5917 O   0  0  0  0  0  0  0  0  0  0  0  0
  2  4  1  0
  2  1  1  1
  3  2  1  0
  4  6  1  0
  4  5  1  6
  6  7  2  0
  8  9  1  0
  8  6  1  0
  9 16  1  0
 10 11  1  0
  9 10  1  1
 11 15  1  0
 12 11  2  0
 12 13  1  0
 13 14  1  0
 15 14  2  0
 16 17  2  0
 18 19  1  0
 19 20  1  0
 20 21  1  0
 22 21  1  1
 22 24  1  0
 23 22  1  0
 23 16  1  0
 24 26  2  0
 24 25  1  0
M  END
$$$$
