VDL.pdb
     RDKit          3D

 24 23  0  0  1  0  0  0  0  0999 V2000
    7.8659  -12.2843   18.5907 C   0  0  0  0  0  0  0  0  0  0  0  0
    7.8582  -13.1680   19.8188 C   0  0  2  0  0  0  0  0  0  0  0  0
    8.5970  -12.4565   20.9041 C   0  0  0  0  0  0  0  0  0  0  0  0
    8.4835  -14.4913   19.4584 C   0  0  2  0  0  0  0  0  0  0  0  0
    7.8426  -15.0840   18.3232 N   0  0  0  0  0  0  0  0  0  0  0  0
    8.5225  -15.4171   20.6285 C   0  0  0  0  0  0  0  0  0  0  0  0
    7.5056  -16.0975   20.9171 O   0  0  0  0  0  0  0  0  0  0  0  0
    9.6826  -15.5667   21.4482 N   0  0  0  0  0  0  0  0  0  0  0  0
    9.7483  -16.4926   22.5567 C   0  0  1  0  0  0  0  0  0  0  0  0
   10.8358  -17.5102   22.3985 C   0  0  0  0  0  0  0  0  0  0  0  0
   10.9166  -18.4802   23.4825 C   0  0  0  0  0  0  0  0  0  0  0  0
    9.9405  -19.2113   23.7568 O   0  0  0  0  0  0  0  0  0  0  0  0
    9.8233  -15.7704   23.8470 C   0  0  0  0  0  0  0  0  0  0  0  0
   10.8752  -15.1692   24.1622 O   0  0  0  0  0  0  0  0  0  0  0  0
   12.0712  -18.6111   24.2270 O   0  0  0  0  0  0  0  0  0  0  0  0
    8.0866  -12.2773   25.8490 C   0  0  0  0  0  0  0  0  0  0  0  0
    7.0740  -13.4035   25.6526 C   0  0  2  0  0  0  0  0  0  0  0  0
    5.7354  -12.8933   26.1017 C   0  0  0  0  0  0  0  0  0  0  0  0
    7.5319  -14.5678   26.4583 C   0  0  0  0  0  0  0  0  0  0  0  0
    8.8791  -15.1100   26.0665 C   0  0  2  0  0  0  0  0  0  0  0  0
    8.7339  -15.7354   24.7478 N   0  0  0  0  0  0  0  0  0  0  0  0
    9.2903  -16.1814   26.9880 C   0  0  0  0  0  0  0  0  0  0  0  0
    9.0344  -17.3799   26.7387 O   0  0  0  0  0  0  0  0  0  0  0  0
    9.9849  -15.9359   28.1873 O   0  0  0  0  0  0  0  0  0  0  0  0
  2  1  1  6
  2  4  1  0
  3  2  1  0
  4  5  1  6
  6  7  2  0
  6  4  1  0
  8  6  1  0
  9  8  1  0
  9 10  1  6
 10 11  1  0
 11 15  1  0
 12 11  2  0
 13  9  1  0
 14 13  2  0
 17 16  1  1
 17 19  1  0
 18 17  1  0
 20 19  1  1
 20 22  1  0
 20 21  1  0
 21 13  1  0
 22 24  1  0
 23 22  2  0
M  END
$$$$
