VDL.pdb
     RDKit          3D

 24 23  0  0  1  0  0  0  0  0999 V2000
    7.4020  -12.4934   19.0830 C   0  0  0  0  0  0  0  0  0  0  0  0
    7.6394  -13.2780   20.3547 C   0  0  2  0  0  0  0  0  0  0  0  0
    8.7097  -12.5848   21.1318 C   0  0  0  0  0  0  0  0  0  0  0  0
    8.0114  -14.6903   19.9817 C   0  0  2  0  0  0  0  0  0  0  0  0
    7.0514  -15.2690   19.0905 N   0  0  0  0  0  0  0  0  0  0  0  0
    8.2373  -15.5362   21.1905 C   0  0  0  0  0  0  0  0  0  0  0  0
    7.2516  -16.0026   21.8160 O   0  0  0  0  0  0  0  0  0  0  0  0
    9.5448  -15.8442   21.6760 N   0  0  0  0  0  0  0  0  0  0  0  0
    9.7763  -16.6179   22.8752 C   0  0  1  0  0  0  0  0  0  0  0  0
   10.9876  -17.4932   22.7757 C   0  0  0  0  0  0  0  0  0  0  0  0
   10.9081  -18.5183   21.7435 C   0  0  0  0  0  0  0  0  0  0  0  0
   11.7238  -18.5329   20.7965 O   0  0  0  0  0  0  0  0  0  0  0  0
    9.7961  -15.7471   24.0725 C   0  0  0  0  0  0  0  0  0  0  0  0
   10.7216  -14.9174   24.2220 O   0  0  0  0  0  0  0  0  0  0  0  0
    9.9317  -19.4924   21.7908 O   0  0  0  0  0  0  0  0  0  0  0  0
    8.1591  -12.1372   25.9822 C   0  0  0  0  0  0  0  0  0  0  0  0
    7.1906  -13.2771   25.6743 C   0  0  2  0  0  0  0  0  0  0  0  0
    5.8000  -12.7725   25.9305 C   0  0  0  0  0  0  0  0  0  0  0  0
    7.5456  -14.4216   26.5565 C   0  0  0  0  0  0  0  0  0  0  0  0
    8.8994  -15.0210   26.2912 C   0  0  2  0  0  0  0  0  0  0  0  0
    8.7928  -15.8207   25.0663 N   0  0  0  0  0  0  0  0  0  0  0  0
    9.2665  -15.9584   27.3649 C   0  0  0  0  0  0  0  0  0  0  0  0
    9.6098  -15.5436   28.4936 O   0  0  0  0  0  0  0  0  0  0  0  0
    9.2567  -17.3560   27.1983 O   0  0  0  0  0  0  0  0  0  0  0  0
  2  1  1  6
  2  4  1  0
  3  2  1  0
  4  5  1  1
  6  7  2  0
  6  4  1  0
  8  6  1  0
  9  8  1  0
  9 10  1  6
 10 11  1  0
 11 15  1  0
 12 11  2  0
 13  9  1  0
 14 13  2  0
 17 16  1  1
 17 19  1  0
 18 17  1  0
 20 19  1  1
 20 22  1  0
 20 21  1  0
 21 13  1  0
 22 24  1  0
 23 22  2  0
M  END
$$$$
