VDL.pdb
     RDKit          3D

 24 23  0  0  1  0  0  0  0  0999 V2000
    7.2103  -12.9604   21.4614 C   0  0  0  0  0  0  0  0  0  0  0  0
    8.2975  -13.2818   20.4596 C   0  0  2  0  0  0  0  0  0  0  0  0
    8.0401  -12.4803   19.2261 C   0  0  0  0  0  0  0  0  0  0  0  0
    8.2860  -14.7670   20.2028 C   0  0  2  0  0  0  0  0  0  0  0  0
    7.0925  -15.1742   19.5244 N   0  0  0  0  0  0  0  0  0  0  0  0
    8.5116  -15.5430   21.4577 C   0  0  0  0  0  0  0  0  0  0  0  0
    7.5264  -15.9899   22.0980 O   0  0  0  0  0  0  0  0  0  0  0  0
    9.8183  -15.8048   21.9717 N   0  0  0  0  0  0  0  0  0  0  0  0
   10.0529  -16.6011   23.1553 C   0  0  1  0  0  0  0  0  0  0  0  0
   11.2869  -17.4436   23.0522 C   0  0  0  0  0  0  0  0  0  0  0  0
   11.2449  -18.4486   21.9984 C   0  0  0  0  0  0  0  0  0  0  0  0
   10.2329  -19.1656   21.8422 O   0  0  0  0  0  0  0  0  0  0  0  0
   10.0347  -15.7591   24.3731 C   0  0  0  0  0  0  0  0  0  0  0  0
   11.0356  -15.0655   24.6638 O   0  0  0  0  0  0  0  0  0  0  0  0
   12.3204  -18.6288   21.1526 O   0  0  0  0  0  0  0  0  0  0  0  0
    8.0005  -12.2108   26.0614 C   0  0  0  0  0  0  0  0  0  0  0  0
    7.1087  -13.4389   25.8920 C   0  0  2  0  0  0  0  0  0  0  0  0
    5.7002  -13.0232   26.2034 C   0  0  0  0  0  0  0  0  0  0  0  0
    7.6046  -14.4888   26.8226 C   0  0  0  0  0  0  0  0  0  0  0  0
    8.9846  -15.0004   26.5121 C   0  0  2  0  0  0  0  0  0  0  0  0
    8.9114  -15.7102   25.2306 N   0  0  0  0  0  0  0  0  0  0  0  0
    9.4010  -15.9969   27.5121 C   0  0  0  0  0  0  0  0  0  0  0  0
    9.7790  -15.6477   28.6519 O   0  0  0  0  0  0  0  0  0  0  0  0
    9.4022  -17.3815   27.2595 O   0  0  0  0  0  0  0  0  0  0  0  0
  2  1  1  1
  2  4  1  0
  3  2  1  0
  4  5  1  1
  6  7  2  0
  6  4  1  0
  8  6  1  0
  9  8  1  0
  9 10  1  6
 10 11  1  0
 11 15  1  0
 12 11  2  0
 13  9  1  0
 14 13  2  0
 17 16  1  1
 17 19  1  0
 18 17  1  0
 20 19  1  1
 20 22  1  0
 20 21  1  0
 21 13  1  0
 22 24  1  0
 23 22  2  0
M  END
$$$$
