VDL.pdb
     RDKit          3D

 24 23  0  0  1  0  0  0  0  0999 V2000
    7.1761  -18.0736   19.9177 C   0  0  0  0  0  0  0  0  0  0  0  0
    6.3528  -18.5217   21.1054 C   0  0  2  0  0  0  0  0  0  0  0  0
    4.9313  -18.6405   20.6632 C   0  0  0  0  0  0  0  0  0  0  0  0
    6.5357  -17.5211   22.2177 C   0  0  2  0  0  0  0  0  0  0  0  0
    6.0634  -16.2230   21.8402 N   0  0  0  0  0  0  0  0  0  0  0  0
    7.9482  -17.4870   22.6989 C   0  0  0  0  0  0  0  0  0  0  0  0
    8.4162  -18.4727   23.3233 O   0  0  0  0  0  0  0  0  0  0  0  0
    8.8056  -16.3663   22.4780 N   0  0  0  0  0  0  0  0  0  0  0  0
   10.1584  -16.2993   22.9837 C   0  0  1  0  0  0  0  0  0  0  0  0
   11.0703  -15.5083   22.0972 C   0  0  0  0  0  0  0  0  0  0  0  0
   12.2237  -16.2488   21.6035 C   0  0  0  0  0  0  0  0  0  0  0  0
   12.6078  -17.2885   22.1816 O   0  0  0  0  0  0  0  0  0  0  0  0
   10.1768  -15.8305   24.3880 C   0  0  0  0  0  0  0  0  0  0  0  0
   11.2707  -15.6751   24.9768 O   0  0  0  0  0  0  0  0  0  0  0  0
   12.9143  -15.8177   20.4892 O   0  0  0  0  0  0  0  0  0  0  0  0
    8.5124  -12.1536   26.1602 C   0  0  0  0  0  0  0  0  0  0  0  0
    7.5041  -13.2626   25.8676 C   0  0  2  0  0  0  0  0  0  0  0  0
    6.1301  -12.6882   26.0576 C   0  0  0  0  0  0  0  0  0  0  0  0
    7.7806  -14.3833   26.8066 C   0  0  0  0  0  0  0  0  0  0  0  0
    9.0371  -15.1548   26.5090 C   0  0  2  0  0  0  0  0  0  0  0  0
    8.9863  -15.5485   25.0970 N   0  0  0  0  0  0  0  0  0  0  0  0
    9.0691  -16.4052   27.2847 C   0  0  0  0  0  0  0  0  0  0  0  0
    9.2406  -16.3914   28.5234 O   0  0  0  0  0  0  0  0  0  0  0  0
    8.9123  -17.6750   26.6981 O   0  0  0  0  0  0  0  0  0  0  0  0
  2  1  1  6
  2  4  1  0
  3  2  1  0
  4  5  1  6
  6  7  2  0
  6  4  1  0
  8  6  1  0
  9  8  1  0
  9 10  1  6
 10 11  1  0
 11 15  1  0
 12 11  2  0
 13  9  1  0
 14 13  2  0
 17 16  1  1
 17 19  1  0
 18 17  1  0
 20 19  1  1
 20 22  1  0
 20 21  1  0
 21 13  1  0
 22 24  1  0
 23 22  2  0
M  END
$$$$
