TNS.pdb
     RDKit          3D

 22 21  0  0  1  0  0  0  0  0999 V2000
  -43.5417  -84.6067  -19.7956 C   0  0  0  0  0  0  0  0  0  0  0  0
  -43.8928  -85.7159  -20.7570 C   0  0  1  0  0  0  0  0  0  0  0  0
  -42.7433  -86.4223  -21.1044 O   0  0  0  0  0  0  0  0  0  0  0  0
  -44.9612  -86.6283  -20.2041 C   0  0  2  0  0  0  0  0  0  0  0  0
  -45.6085  -87.3183  -21.2700 N   0  0  0  0  0  0  0  0  0  0  0  0
  -45.9513  -85.8588  -19.3798 C   0  0  0  0  0  0  0  0  0  0  0  0
  -45.6169  -85.3961  -18.2619 O   0  0  0  0  0  0  0  0  0  0  0  0
  -49.8070  -82.4956  -21.9640 N   0  0  0  0  0  0  0  0  0  0  0  0
  -49.0273  -83.6307  -22.2833 C   0  0  0  0  0  0  0  0  0  0  0  0
  -48.3659  -83.5923  -23.3758 O   0  0  0  0  0  0  0  0  0  0  0  0
  -49.0065  -84.7935  -21.3633 C   0  0  0  0  0  0  0  0  0  0  0  0
  -47.5670  -85.2905  -21.2719 C   0  0  2  0  0  0  0  0  0  0  0  0
  -47.2294  -85.6880  -19.9059 N   0  0  0  0  0  0  0  0  0  0  0  0
  -46.6087  -84.2961  -21.7488 C   0  0  0  0  0  0  0  0  0  0  0  0
  -46.0164  -84.4822  -22.8660 O   0  0  0  0  0  0  0  0  0  0  0  0
  -45.5280  -79.9561  -21.6509 O   0  0  0  0  0  0  0  0  0  0  0  0
  -45.6174  -81.1418  -22.3560 C   0  0  0  0  0  0  0  0  0  0  0  0
  -45.1574  -82.2942  -21.4803 C   0  0  2  0  0  0  0  0  0  0  0  0
  -46.2720  -83.1090  -21.0560 N   0  0  0  0  0  0  0  0  0  0  0  0
  -44.4123  -81.7603  -20.3121 C   0  0  0  0  0  0  0  0  0  0  0  0
  -43.2449  -81.0430  -20.5288 O   0  0  0  0  0  0  0  0  0  0  0  0
  -44.7910  -81.9278  -19.1254 O   0  0  0  0  0  0  0  0  0  0  0  0
  2  4  1  0
  2  1  1  1
  3  2  1  0
  4  6  1  0
  4  5  1  6
  6 13  1  0
  6  7  2  0
  9  8  1  0
  9 11  1  0
 10  9  2  0
 12 11  1  1
 12 14  1  0
 13 12  1  0
 14 19  1  0
 14 15  2  0
 16 17  1  0
 18 17  1  1
 18 20  1  0
 19 18  1  0
 20 21  1  0
 22 20  2  0
M  END
$$$$
