TNS.pdb
     RDKit          3D

 22 21  0  0  1  0  0  0  0  0999 V2000
    8.9329  -12.4602   19.6971 C   0  0  0  0  0  0  0  0  0  0  0  0
    8.0479  -13.1649   18.6980 C   0  0  1  0  0  0  0  0  0  0  0  0
    7.6274  -12.2650   17.7212 O   0  0  0  0  0  0  0  0  0  0  0  0
    8.7258  -14.3695   18.0907 C   0  0  2  0  0  0  0  0  0  0  0  0
    7.8672  -14.9746   17.1274 N   0  0  0  0  0  0  0  0  0  0  0  0
    9.1246  -15.3534   19.1513 C   0  0  0  0  0  0  0  0  0  0  0  0
    8.2631  -16.1033   19.6720 O   0  0  0  0  0  0  0  0  0  0  0  0
   12.1595  -18.1459   22.0613 N   0  0  0  0  0  0  0  0  0  0  0  0
   13.0723  -17.4346   21.2493 C   0  0  0  0  0  0  0  0  0  0  0  0
   14.3097  -17.7288   21.3715 O   0  0  0  0  0  0  0  0  0  0  0  0
   12.5736  -16.4006   20.3108 C   0  0  0  0  0  0  0  0  0  0  0  0
   11.0719  -16.2525   20.5346 C   0  0  2  0  0  0  0  0  0  0  0  0
   10.4672  -15.3912   19.5195 N   0  0  0  0  0  0  0  0  0  0  0  0
   10.7605  -15.7404   21.8670 C   0  0  0  0  0  0  0  0  0  0  0  0
   11.1239  -14.5568   22.1840 O   0  0  0  0  0  0  0  0  0  0  0  0
    7.4884  -16.4026   23.9728 O   0  0  0  0  0  0  0  0  0  0  0  0
    8.3677  -15.3696   24.2386 C   0  0  0  0  0  0  0  0  0  0  0  0
    9.7960  -15.8787   24.1555 C   0  0  2  0  0  0  0  0  0  0  0  0
   10.0695  -16.4677   22.8652 N   0  0  0  0  0  0  0  0  0  0  0  0
   10.0374  -16.8544   25.2485 C   0  0  0  0  0  0  0  0  0  0  0  0
   10.5188  -18.1159   24.9307 O   0  0  0  0  0  0  0  0  0  0  0  0
    9.8252  -16.5908   26.4590 O   0  0  0  0  0  0  0  0  0  0  0  0
  2  4  1  0
  2  1  1  1
  3  2  1  0
  4  6  1  0
  4  5  1  6
  6 13  1  0
  6  7  2  0
  9  8  1  0
  9 11  1  0
 10  9  2  0
 12 11  1  6
 12 14  1  0
 13 12  1  0
 14 19  1  0
 14 15  2  0
 16 17  1  0
 18 17  1  6
 18 20  1  0
 19 18  1  0
 20 21  1  0
 22 20  2  0
M  END
$$$$
