TNS.pdb
     RDKit          3D

 22 21  0  0  1  0  0  0  0  0999 V2000
   11.3712  -18.7327   18.3175 C   0  0  0  0  0  0  0  0  0  0  0  0
   11.9351  -17.7759   17.2954 C   0  0  1  0  0  0  0  0  0  0  0  0
   12.3506  -18.4799   16.1672 O   0  0  0  0  0  0  0  0  0  0  0  0
   10.9554  -16.6833   16.9405 C   0  0  2  0  0  0  0  0  0  0  0  0
   11.3563  -16.0473   15.7297 N   0  0  0  0  0  0  0  0  0  0  0  0
   10.8322  -15.6884   18.0572 C   0  0  0  0  0  0  0  0  0  0  0  0
   11.7888  -14.9219   18.3273 O   0  0  0  0  0  0  0  0  0  0  0  0
    7.5197  -12.2956   18.3538 N   0  0  0  0  0  0  0  0  0  0  0  0
    7.5970  -13.7034   18.4569 C   0  0  0  0  0  0  0  0  0  0  0  0
    7.4692  -14.3727   17.3760 O   0  0  0  0  0  0  0  0  0  0  0  0
    7.8175  -14.3348   19.7803 C   0  0  0  0  0  0  0  0  0  0  0  0
    9.2814  -14.7574   19.8577 C   0  0  2  0  0  0  0  0  0  0  0  0
    9.6312  -15.6597   18.7616 N   0  0  0  0  0  0  0  0  0  0  0  0
    9.6080  -15.3831   21.1369 C   0  0  0  0  0  0  0  0  0  0  0  0
    9.3440  -14.7634   22.2230 O   0  0  0  0  0  0  0  0  0  0  0  0
   10.2411  -19.3093   21.6013 O   0  0  0  0  0  0  0  0  0  0  0  0
   10.0536  -18.5907   22.7673 C   0  0  0  0  0  0  0  0  0  0  0  0
   10.5594  -17.1711   22.5807 C   0  0  2  0  0  0  0  0  0  0  0  0
   10.2103  -16.6561   21.2771 N   0  0  0  0  0  0  0  0  0  0  0  0
   12.0290  -17.1383   22.7906 C   0  0  0  0  0  0  0  0  0  0  0  0
   12.5457  -17.5712   24.0030 O   0  0  0  0  0  0  0  0  0  0  0  0
   12.8355  -16.7340   21.9154 O   0  0  0  0  0  0  0  0  0  0  0  0
  2  4  1  0
  2  1  1  1
  3  2  1  0
  4  6  1  0
  4  5  1  6
  6 13  1  0
  6  7  2  0
  9  8  1  0
  9 11  1  0
 10  9  2  0
 12 11  1  1
 12 14  1  0
 13 12  1  0
 14 19  1  0
 14 15  2  0
 16 17  1  0
 18 17  1  6
 18 20  1  0
 19 18  1  0
 20 21  1  0
 22 20  2  0
M  END
$$$$
