TNS.pdb
     RDKit          3D

 22 21  0  0  1  0  0  0  0  0999 V2000
    0.0086  -18.6063   17.1985 C   0  0  0  0  0  0  0  0  0  0  0  0
   -0.0350  -19.6870   18.2513 C   0  0  1  0  0  0  0  0  0  0  0  0
   -1.3270  -20.1984   18.3509 O   0  0  0  0  0  0  0  0  0  0  0  0
    0.9764  -20.7766   17.9875 C   0  0  2  0  0  0  0  0  0  0  0  0
    0.6834  -21.4207   16.7504 N   0  0  0  0  0  0  0  0  0  0  0  0
    1.0081  -21.7651   19.1161 C   0  0  0  0  0  0  0  0  0  0  0  0
    0.3711  -22.8431   19.0283 O   0  0  0  0  0  0  0  0  0  0  0  0
    2.6167  -23.9310   23.3917 N   0  0  0  0  0  0  0  0  0  0  0  0
    3.4312  -22.7798   23.2930 C   0  0  0  0  0  0  0  0  0  0  0  0
    4.3956  -22.6776   24.1249 O   0  0  0  0  0  0  0  0  0  0  0  0
    3.1440  -21.7602   22.2554 C   0  0  0  0  0  0  0  0  0  0  0  0
    1.9537  -22.2500   21.4365 C   0  0  2  0  0  0  0  0  0  0  0  0
    1.7624  -21.4334   20.2388 N   0  0  0  0  0  0  0  0  0  0  0  0
    0.7199  -22.2774   22.2186 C   0  0  0  0  0  0  0  0  0  0  0  0
    0.3267  -21.2126   22.8061 O   0  0  0  0  0  0  0  0  0  0  0  0
   -2.4779  -25.0398   21.8661 O   0  0  0  0  0  0  0  0  0  0  0  0
   -2.5218  -23.6901   22.1618 C   0  0  0  0  0  0  0  0  0  0  0  0
   -1.3647  -23.3284   23.0765 C   0  0  2  0  0  0  0  0  0  0  0  0
   -0.1000  -23.4189   22.3846 N   0  0  0  0  0  0  0  0  0  0  0  0
   -1.3835  -24.2115   24.2701 C   0  0  0  0  0  0  0  0  0  0  0  0
   -0.2856  -25.0194   24.5271 O   0  0  0  0  0  0  0  0  0  0  0  0
   -2.3544  -24.2633   25.0667 O   0  0  0  0  0  0  0  0  0  0  0  0
  2  4  1  0
  2  1  1  6
  3  2  1  0
  4  6  1  0
  4  5  1  6
  6 13  1  0
  6  7  2  0
  9  8  1  0
  9 11  1  0
 10  9  2  0
 12 11  1  1
 12 14  1  0
 13 12  1  0
 14 19  1  0
 14 15  2  0
 16 17  1  0
 18 17  1  6
 18 20  1  0
 19 18  1  0
 20 21  1  0
 22 20  2  0
M  END
$$$$
