TNS.pdb
     RDKit          3D

 22 21  0  0  1  0  0  0  0  0999 V2000
    8.8134  -12.7839   19.6019 C   0  0  0  0  0  0  0  0  0  0  0  0
    7.9953  -13.3870   18.4861 C   0  0  1  0  0  0  0  0  0  0  0  0
    7.3182  -12.3816   17.7993 O   0  0  0  0  0  0  0  0  0  0  0  0
    8.8371  -14.2270   17.5560 C   0  0  2  0  0  0  0  0  0  0  0  0
    8.0469  -14.6735   16.4572 N   0  0  0  0  0  0  0  0  0  0  0  0
    9.4504  -15.3862   18.2856 C   0  0  0  0  0  0  0  0  0  0  0  0
    8.8007  -16.4490   18.4403 O   0  0  0  0  0  0  0  0  0  0  0  0
   13.5383  -13.9497   20.4543 N   0  0  0  0  0  0  0  0  0  0  0  0
   13.3624  -14.6498   19.2388 C   0  0  0  0  0  0  0  0  0  0  0  0
   13.5258  -13.9878   18.1583 O   0  0  0  0  0  0  0  0  0  0  0  0
   13.0038  -16.0885   19.2618 C   0  0  0  0  0  0  0  0  0  0  0  0
   11.5108  -16.1927   19.5575 C   0  0  2  0  0  0  0  0  0  0  0  0
   10.7461  -15.2264   18.7705 N   0  0  0  0  0  0  0  0  0  0  0  0
   11.2162  -16.0176   20.9777 C   0  0  0  0  0  0  0  0  0  0  0  0
   11.0267  -14.8403   21.4378 O   0  0  0  0  0  0  0  0  0  0  0  0
    8.5021  -17.4364   22.8370 O   0  0  0  0  0  0  0  0  0  0  0  0
    9.5565  -17.6608   23.7024 C   0  0  0  0  0  0  0  0  0  0  0  0
   10.7490  -16.8178   23.2859 C   0  0  2  0  0  0  0  0  0  0  0  0
   11.1203  -17.0746   21.9138 N   0  0  0  0  0  0  0  0  0  0  0  0
   11.8858  -17.0819   24.2040 C   0  0  0  0  0  0  0  0  0  0  0  0
   11.7427  -16.7929   25.5532 O   0  0  0  0  0  0  0  0  0  0  0  0
   12.9815  -17.5593   23.8152 O   0  0  0  0  0  0  0  0  0  0  0  0
  2  4  1  0
  2  1  1  1
  3  2  1  0
  4  6  1  0
  4  5  1  6
  6 13  1  0
  6  7  2  0
  9  8  1  0
  9 11  1  0
 10  9  2  0
 12 11  1  1
 12 14  1  0
 13 12  1  0
 14 19  1  0
 14 15  2  0
 16 17  1  0
 18 17  1  1
 18 20  1  0
 19 18  1  0
 20 21  1  0
 22 20  2  0
M  END
$$$$
