TNS.pdb
     RDKit          3D

 22 21  0  0  1  0  0  0  0  0999 V2000
    8.8988  -12.7763   19.5737 C   0  0  0  0  0  0  0  0  0  0  0  0
    7.9980  -13.3127   18.4879 C   0  0  1  0  0  0  0  0  0  0  0  0
    7.5798  -12.2710   17.6627 O   0  0  0  0  0  0  0  0  0  0  0  0
    8.6576  -14.4180   17.6987 C   0  0  2  0  0  0  0  0  0  0  0  0
    7.7829  -14.8646   16.6659 N   0  0  0  0  0  0  0  0  0  0  0  0
    9.0580  -15.5531   18.5948 C   0  0  0  0  0  0  0  0  0  0  0  0
    8.2173  -16.4267   18.9200 O   0  0  0  0  0  0  0  0  0  0  0  0
   11.7084  -18.8940   20.9829 N   0  0  0  0  0  0  0  0  0  0  0  0
   12.6811  -18.2532   20.1820 C   0  0  0  0  0  0  0  0  0  0  0  0
   13.8059  -18.8447   20.0495 O   0  0  0  0  0  0  0  0  0  0  0  0
   12.3689  -16.9524   19.5422 C   0  0  0  0  0  0  0  0  0  0  0  0
   10.9629  -16.5461   19.9728 C   0  0  2  0  0  0  0  0  0  0  0  0
   10.3783  -15.5872   19.0366 N   0  0  0  0  0  0  0  0  0  0  0  0
   10.9380  -15.9946   21.3256 C   0  0  0  0  0  0  0  0  0  0  0  0
   11.7190  -15.0274   21.6224 O   0  0  0  0  0  0  0  0  0  0  0  0
    7.9123  -16.6492   23.9673 O   0  0  0  0  0  0  0  0  0  0  0  0
    8.7193  -15.5455   24.1716 C   0  0  0  0  0  0  0  0  0  0  0  0
   10.1226  -15.8375   23.6701 C   0  0  2  0  0  0  0  0  0  0  0  0
   10.0960  -16.4562   22.3651 N   0  0  0  0  0  0  0  0  0  0  0  0
   10.8299  -16.6969   24.6530 C   0  0  0  0  0  0  0  0  0  0  0  0
   11.0623  -16.2081   25.9302 O   0  0  0  0  0  0  0  0  0  0  0  0
   11.2319  -17.8566   24.3822 O   0  0  0  0  0  0  0  0  0  0  0  0
  2  4  1  0
  2  1  1  1
  3  2  1  0
  4  6  1  0
  4  5  1  6
  6 13  1  0
  6  7  2  0
  9  8  1  0
  9 11  1  0
 10  9  2  0
 12 11  1  6
 12 14  1  0
 13 12  1  0
 14 19  1  0
 14 15  2  0
 16 17  1  0
 18 17  1  1
 18 20  1  0
 19 18  1  0
 20 21  1  0
 22 20  2  0
M  END
$$$$
