TNS.pdb
     RDKit          3D

 22 21  0  0  1  0  0  0  0  0999 V2000
    8.3228  -16.2716   18.1089 C   0  0  0  0  0  0  0  0  0  0  0  0
    8.4995  -14.8256   17.7140 C   0  0  1  0  0  0  0  0  0  0  0  0
    7.8605  -14.5855   16.4995 O   0  0  0  0  0  0  0  0  0  0  0  0
    8.0217  -13.8814   18.7910 C   0  0  2  0  0  0  0  0  0  0  0  0
    8.0277  -12.5434   18.3000 N   0  0  0  0  0  0  0  0  0  0  0  0
    8.8633  -14.0062   20.0272 C   0  0  0  0  0  0  0  0  0  0  0  0
   10.0012  -13.4781   20.0714 O   0  0  0  0  0  0  0  0  0  0  0  0
    8.4303  -16.8121   25.4515 N   0  0  0  0  0  0  0  0  0  0  0  0
    8.6726  -15.6342   24.7084 C   0  0  0  0  0  0  0  0  0  0  0  0
    9.5254  -14.8113   25.1861 O   0  0  0  0  0  0  0  0  0  0  0  0
    7.9472  -15.4028   23.4360 C   0  0  0  0  0  0  0  0  0  0  0  0
    8.9679  -14.9656   22.3898 C   0  0  2  0  0  0  0  0  0  0  0  0
    8.3300  -14.7204   21.0972 N   0  0  0  0  0  0  0  0  0  0  0  0
   10.0473  -15.9376   22.2323 C   0  0  0  0  0  0  0  0  0  0  0  0
    9.7796  -17.1038   21.7832 O   0  0  0  0  0  0  0  0  0  0  0  0
   14.1042  -15.0584   22.0778 O   0  0  0  0  0  0  0  0  0  0  0  0
   13.5545  -16.1797   21.4849 C   0  0  0  0  0  0  0  0  0  0  0  0
   12.4118  -16.7019   22.3379 C   0  0  2  0  0  0  0  0  0  0  0  0
   11.4046  -15.6874   22.5449 N   0  0  0  0  0  0  0  0  0  0  0  0
   12.9465  -17.1940   23.6328 C   0  0  0  0  0  0  0  0  0  0  0  0
   13.9101  -18.1918   23.6277 O   0  0  0  0  0  0  0  0  0  0  0  0
   12.5655  -16.7465   24.7439 O   0  0  0  0  0  0  0  0  0  0  0  0
  2  4  1  0
  2  1  1  1
  3  2  1  0
  4  6  1  0
  4  5  1  6
  6 13  1  0
  6  7  2  0
  9  8  1  0
  9 11  1  0
 10  9  2  0
 12 11  1  1
 12 14  1  0
 13 12  1  0
 14 19  1  0
 14 15  2  0
 16 17  1  0
 18 17  1  6
 18 20  1  0
 19 18  1  0
 20 21  1  0
 22 20  2  0
M  END
$$$$
