TNS.pdb
     RDKit          3D

 22 21  0  0  1  0  0  0  0  0999 V2000
   -4.5671  -26.4262   32.5104 C   0  0  0  0  0  0  0  0  0  0  0  0
   -3.0726  -26.3128   32.3322 C   0  0  1  0  0  0  0  0  0  0  0  0
   -2.4255  -27.2026   33.1868 O   0  0  0  0  0  0  0  0  0  0  0  0
   -2.6559  -26.5175   30.8955 C   0  0  2  0  0  0  0  0  0  0  0  0
   -1.2365  -26.4472   30.7879 N   0  0  0  0  0  0  0  0  0  0  0  0
   -3.3154  -25.5133   29.9963 C   0  0  0  0  0  0  0  0  0  0  0  0
   -3.0051  -24.2993   30.0719 O   0  0  0  0  0  0  0  0  0  0  0  0
   -4.0775  -27.0158   25.2031 N   0  0  0  0  0  0  0  0  0  0  0  0
   -4.3137  -25.9246   26.0703 C   0  0  0  0  0  0  0  0  0  0  0  0
   -3.4704  -24.9653   26.0397 O   0  0  0  0  0  0  0  0  0  0  0  0
   -5.4998  -25.9334   26.9602 C   0  0  0  0  0  0  0  0  0  0  0  0
   -5.1323  -25.1805   28.2351 C   0  0  2  0  0  0  0  0  0  0  0  0
   -4.2663  -25.9857   29.0952 N   0  0  0  0  0  0  0  0  0  0  0  0
   -6.3123  -24.7528   28.9829 C   0  0  0  0  0  0  0  0  0  0  0  0
   -6.9511  -25.6067   29.6874 O   0  0  0  0  0  0  0  0  0  0  0  0
   -6.7901  -21.1454   30.6773 O   0  0  0  0  0  0  0  0  0  0  0  0
   -7.9663  -21.5661   30.0851 C   0  0  0  0  0  0  0  0  0  0  0  0
   -7.9175  -23.0670   29.8594 C   0  0  2  0  0  0  0  0  0  0  0  0
   -6.8218  -23.4325   28.9920 N   0  0  0  0  0  0  0  0  0  0  0  0
   -9.2148  -23.5254   29.3011 C   0  0  0  0  0  0  0  0  0  0  0  0
  -10.3529  -23.4462   30.0902 O   0  0  0  0  0  0  0  0  0  0  0  0
   -9.3337  -23.9856   28.1375 O   0  0  0  0  0  0  0  0  0  0  0  0
  2  4  1  0
  2  1  1  6
  3  2  1  0
  4  6  1  0
  4  5  1  1
  6 13  1  0
  6  7  2  0
  9  8  1  0
  9 11  1  0
 10  9  2  0
 12 11  1  6
 12 14  1  0
 13 12  1  0
 14 19  1  0
 14 15  2  0
 16 17  1  0
 18 17  1  6
 18 20  1  0
 19 18  1  0
 20 21  1  0
 22 20  2  0
M  END
$$$$
