TNS.pdb
     RDKit          3D

 22 21  0  0  1  0  0  0  0  0999 V2000
    7.9616  -12.0868   18.9597 C   0  0  0  0  0  0  0  0  0  0  0  0
    8.9832  -13.1052   19.4040 C   0  0  1  0  0  0  0  0  0  0  0  0
    8.3933  -14.0174   20.2762 O   0  0  0  0  0  0  0  0  0  0  0  0
    9.6394  -13.7978   18.2339 C   0  0  2  0  0  0  0  0  0  0  0  0
    8.6501  -14.4398   17.4337 N   0  0  0  0  0  0  0  0  0  0  0  0
   10.6747  -14.7784   18.7014 C   0  0  0  0  0  0  0  0  0  0  0  0
   10.4008  -16.0016   18.7665 O   0  0  0  0  0  0  0  0  0  0  0  0
   14.0748  -15.7337   17.2103 N   0  0  0  0  0  0  0  0  0  0  0  0
   14.8135  -14.7539   17.9123 C   0  0  0  0  0  0  0  0  0  0  0  0
   15.8408  -14.2706   17.3261 O   0  0  0  0  0  0  0  0  0  0  0  0
   14.3808  -14.3344   19.2671 C   0  0  0  0  0  0  0  0  0  0  0  0
   13.0599  -15.0339   19.5726 C   0  0  2  0  0  0  0  0  0  0  0  0
   11.9249  -14.2740   19.0509 N   0  0  0  0  0  0  0  0  0  0  0  0
   12.8800  -15.2726   21.0027 C   0  0  0  0  0  0  0  0  0  0  0  0
   13.6687  -14.7096   21.8360 O   0  0  0  0  0  0  0  0  0  0  0  0
    9.5659  -17.1361   22.5732 O   0  0  0  0  0  0  0  0  0  0  0  0
   10.2402  -16.2332   23.3739 C   0  0  0  0  0  0  0  0  0  0  0  0
   11.7089  -16.2048   22.9891 C   0  0  2  0  0  0  0  0  0  0  0  0
   11.8752  -16.1000   21.5581 N   0  0  0  0  0  0  0  0  0  0  0  0
   12.3815  -17.4192   23.5162 C   0  0  0  0  0  0  0  0  0  0  0  0
   13.0070  -18.2815   22.6278 O   0  0  0  0  0  0  0  0  0  0  0  0
   12.4125  -17.7068   24.7394 O   0  0  0  0  0  0  0  0  0  0  0  0
  2  4  1  0
  2  1  1  6
  3  2  1  0
  4  6  1  0
  4  5  1  1
  6 13  1  0
  6  7  2  0
  9  8  1  0
  9 11  1  0
 10  9  2  0
 12 11  1  1
 12 14  1  0
 13 12  1  0
 14 19  1  0
 14 15  2  0
 16 17  1  0
 18 17  1  6
 18 20  1  0
 19 18  1  0
 20 21  1  0
 22 20  2  0
M  END
$$$$
