YQL.pdb
     RDKit          3D

 30 30  0  0  1  0  0  0  0  0999 V2000
   10.2278  -13.6939    1.0490 O   0  0  0  0  0  0  0  0  0  0  0  0
   10.3394  -15.0724    0.9864 C   0  0  0  0  0  0  0  0  0  0  0  0
   11.0790  -15.7546    1.9263 C   0  0  0  0  0  0  0  0  0  0  0  0
   11.1908  -17.1291    1.8645 C   0  0  0  0  0  0  0  0  0  0  0  0
   10.5697  -17.8649    0.8655 C   0  0  0  0  0  0  0  0  0  0  0  0
   10.7207  -19.3382    0.8436 C   0  0  0  0  0  0  0  0  0  0  0  0
   11.5072  -19.6847   -0.4159 C   0  0  2  0  0  0  0  0  0  0  0  0
   10.7647  -19.3835   -1.6056 N   0  0  0  0  0  0  0  0  0  0  0  0
   11.8115  -21.1353   -0.4030 C   0  0  0  0  0  0  0  0  0  0  0  0
   11.0960  -21.9378   -1.0845 O   0  0  0  0  0  0  0  0  0  0  0  0
    9.8216  -17.1846   -0.0870 C   0  0  0  0  0  0  0  0  0  0  0  0
    9.7293  -15.8195    0.0011 C   0  0  0  0  0  0  0  0  0  0  0  0
   14.6621  -24.5336   -3.2078 N   0  0  0  0  0  0  0  0  0  0  0  0
   14.5428  -23.1289   -3.0844 C   0  0  0  0  0  0  0  0  0  0  0  0
   14.9022  -22.4089   -4.0394 O   0  0  0  0  0  0  0  0  0  0  0  0
   14.0048  -22.5194   -1.8539 C   0  0  0  0  0  0  0  0  0  0  0  0
   13.6865  -23.5959   -0.8744 C   0  0  0  0  0  0  0  0  0  0  0  0
   13.1907  -23.0380    0.4574 C   0  0  2  0  0  0  0  0  0  0  0  0
   12.8968  -21.6341    0.3655 N   0  0  0  0  0  0  0  0  0  0  0  0
   14.2707  -23.3201    1.4436 C   0  0  0  0  0  0  0  0  0  0  0  0
   15.1467  -22.4316    1.6049 O   0  0  0  0  0  0  0  0  0  0  0  0
   13.4701  -25.8371    6.1003 C   0  0  0  0  0  0  0  0  0  0  0  0
   14.6882  -25.1543    5.4570 C   0  0  2  0  0  0  0  0  0  0  0  0
   14.3918  -23.6906    5.3603 C   0  0  0  0  0  0  0  0  0  0  0  0
   15.0200  -25.7991    4.1433 C   0  0  0  0  0  0  0  0  0  0  0  0
   15.4616  -24.7756    3.1534 C   0  0  2  0  0  0  0  0  0  0  0  0
   14.3680  -24.4964    2.1902 N   0  0  0  0  0  0  0  0  0  0  0  0
   16.5762  -25.2723    2.3505 C   0  0  0  0  0  0  0  0  0  0  0  0
   16.4221  -25.5201    1.0025 O   0  0  0  0  0  0  0  0  0  0  0  0
   17.6939  -25.4876    2.8505 O   0  0  0  0  0  0  0  0  0  0  0  0
  2  3  2  0
  2  1  1  0
  4  3  1  0
  5  4  2  0
  6  5  1  0
  7  9  1  0
  7  6  1  0
  7  8  1  6
  9 10  2  0
 11  5  1  0
 11 12  2  0
 12  2  1  0
 14 15  2  0
 14 13  1  0
 16 14  1  0
 17 16  1  0
 18 17  1  6
 19 18  1  0
 19  9  1  0
 20 21  2  0
 20 18  1  0
 23 25  1  0
 23 22  1  6
 24 23  1  0
 26 25  1  1
 26 27  1  0
 27 20  1  0
 28 26  1  0
 28 29  1  0
 30 28  2  0
M  END
$$$$
