YQL.pdb
     RDKit          3D

 30 30  0  0  1  0  0  0  0  0999 V2000
   22.8602  -10.8153  -20.8571 O   0  0  0  0  0  0  0  0  0  0  0  0
   22.7595  -11.9812  -20.1174 C   0  0  0  0  0  0  0  0  0  0  0  0
   21.5274  -12.5417  -19.8652 C   0  0  0  0  0  0  0  0  0  0  0  0
   21.4261  -13.7042  -19.1278 C   0  0  0  0  0  0  0  0  0  0  0  0
   22.5481  -14.3429  -18.6197 C   0  0  0  0  0  0  0  0  0  0  0  0
   22.3856  -15.5883  -17.8345 C   0  0  0  0  0  0  0  0  0  0  0  0
   22.9359  -16.7257  -18.6882 C   0  0  2  0  0  0  0  0  0  0  0  0
   22.1471  -16.9342  -19.8678 N   0  0  0  0  0  0  0  0  0  0  0  0
   22.9246  -17.9717  -17.8855 C   0  0  0  0  0  0  0  0  0  0  0  0
   21.8578  -18.6612  -17.8029 O   0  0  0  0  0  0  0  0  0  0  0  0
   23.7953  -13.7844  -18.8694 C   0  0  0  0  0  0  0  0  0  0  0  0
   23.8634  -12.6293  -19.6049 C   0  0  0  0  0  0  0  0  0  0  0  0
   25.7380  -22.2842  -17.2988 N   0  0  0  0  0  0  0  0  0  0  0  0
   25.6970  -22.3554  -15.8860 C   0  0  0  0  0  0  0  0  0  0  0  0
   25.7660  -23.4756  -15.3382 O   0  0  0  0  0  0  0  0  0  0  0  0
   25.5752  -21.1336  -15.0690 C   0  0  0  0  0  0  0  0  0  0  0  0
   25.5398  -19.9462  -15.9682 C   0  0  0  0  0  0  0  0  0  0  0  0
   24.1166  -19.5677  -16.3707 C   0  0  2  0  0  0  0  0  0  0  0  0
   24.0974  -18.3999  -17.2084 N   0  0  0  0  0  0  0  0  0  0  0  0
   23.3769  -19.3539  -15.0957 C   0  0  0  0  0  0  0  0  0  0  0  0
   23.4826  -18.2234  -14.5537 O   0  0  0  0  0  0  0  0  0  0  0  0
   18.8792  -20.0686  -12.3583 C   0  0  0  0  0  0  0  0  0  0  0  0
   19.6971  -18.7887  -12.5969 C   0  0  2  0  0  0  0  0  0  0  0  0
   18.7328  -17.6711  -12.8435 C   0  0  0  0  0  0  0  0  0  0  0  0
   20.6883  -18.9965  -13.7041 C   0  0  0  0  0  0  0  0  0  0  0  0
   21.6851  -20.0389  -13.3269 C   0  0  2  0  0  0  0  0  0  0  0  0
   22.5834  -20.3205  -14.4738 N   0  0  0  0  0  0  0  0  0  0  0  0
   21.0257  -21.3063  -13.0227 C   0  0  0  0  0  0  0  0  0  0  0  0
   20.6320  -21.6082  -11.7358 O   0  0  0  0  0  0  0  0  0  0  0  0
   20.7982  -22.1506  -13.9065 O   0  0  0  0  0  0  0  0  0  0  0  0
  2  3  2  0
  2  1  1  0
  4  3  1  0
  5  4  2  0
  6  5  1  0
  7  9  1  0
  7  6  1  0
  7  8  1  6
  9 10  2  0
 11  5  1  0
 11 12  2  0
 12  2  1  0
 14 15  2  0
 14 13  1  0
 16 14  1  0
 17 16  1  0
 18 17  1  1
 19 18  1  0
 19  9  1  0
 20 21  2  0
 20 18  1  0
 23 25  1  0
 23 22  1  6
 24 23  1  0
 26 25  1  6
 26 27  1  0
 27 20  1  0
 28 26  1  0
 28 29  1  0
 30 28  2  0
M  END
$$$$
