YQL.pdb
     RDKit          3D

 30 30  0  0  1  0  0  0  0  0999 V2000
   19.1322  -16.3761  -22.4760 O   0  0  0  0  0  0  0  0  0  0  0  0
   18.8489  -15.3116  -21.6373 C   0  0  0  0  0  0  0  0  0  0  0  0
   17.5862  -15.1569  -21.1105 C   0  0  0  0  0  0  0  0  0  0  0  0
   17.3031  -14.0958  -20.2743 C   0  0  0  0  0  0  0  0  0  0  0  0
   18.2683  -13.1575  -19.9379 C   0  0  0  0  0  0  0  0  0  0  0  0
   17.9135  -12.0371  -19.0364 C   0  0  0  0  0  0  0  0  0  0  0  0
   18.5914  -12.3128  -17.6985 C   0  0  2  0  0  0  0  0  0  0  0  0
   18.0225  -13.4527  -17.0396 N   0  0  0  0  0  0  0  0  0  0  0  0
   18.4201  -11.1276  -16.8251 C   0  0  0  0  0  0  0  0  0  0  0  0
   17.3489  -10.9875  -16.1518 O   0  0  0  0  0  0  0  0  0  0  0  0
   19.5449  -13.3059  -20.4649 C   0  0  0  0  0  0  0  0  0  0  0  0
   19.7954  -14.3700  -21.2924 C   0  0  0  0  0  0  0  0  0  0  0  0
   22.1218   -8.5260  -12.8650 N   0  0  0  0  0  0  0  0  0  0  0  0
   22.6032   -8.9465  -14.1277 C   0  0  0  0  0  0  0  0  0  0  0  0
   23.8333   -9.0974  -14.2822 O   0  0  0  0  0  0  0  0  0  0  0  0
   21.6756   -9.2036  -15.2450 C   0  0  0  0  0  0  0  0  0  0  0  0
   20.2864   -8.8871  -14.8092 C   0  0  0  0  0  0  0  0  0  0  0  0
   19.2905   -8.9447  -15.9648 C   0  0  2  0  0  0  0  0  0  0  0  0
   19.4446  -10.1479  -16.7357 N   0  0  0  0  0  0  0  0  0  0  0  0
   19.5414   -7.7227  -16.7789 C   0  0  0  0  0  0  0  0  0  0  0  0
   20.0347   -7.8879  -17.9244 O   0  0  0  0  0  0  0  0  0  0  0  0
   17.7876   -4.1345  -20.4595 C   0  0  0  0  0  0  0  0  0  0  0  0
   18.8200   -4.1398  -19.3202 C   0  0  2  0  0  0  0  0  0  0  0  0
   20.1805   -4.0540  -19.9377 C   0  0  0  0  0  0  0  0  0  0  0  0
   18.6236   -5.3374  -18.4377 C   0  0  0  0  0  0  0  0  0  0  0  0
   19.4471   -5.2181  -17.2008 C   0  0  2  0  0  0  0  0  0  0  0  0
   19.2654   -6.4218  -16.3523 N   0  0  0  0  0  0  0  0  0  0  0  0
   19.0036   -4.0906  -16.3848 C   0  0  0  0  0  0  0  0  0  0  0  0
   19.2888   -2.7932  -16.7558 O   0  0  0  0  0  0  0  0  0  0  0  0
   18.3587   -4.2599  -15.3355 O   0  0  0  0  0  0  0  0  0  0  0  0
  2  3  2  0
  2  1  1  0
  4  3  1  0
  5  4  2  0
  6  5  1  0
  7  9  1  0
  7  6  1  0
  7  8  1  1
  9 10  2  0
 11  5  1  0
 11 12  2  0
 12  2  1  0
 14 15  2  0
 14 13  1  0
 16 14  1  0
 17 16  1  0
 18 17  1  1
 19 18  1  0
 19  9  1  0
 20 21  2  0
 20 18  1  0
 23 25  1  0
 23 22  1  6
 24 23  1  0
 26 25  1  6
 26 27  1  0
 27 20  1  0
 28 26  1  0
 28 29  1  0
 30 28  2  0
M  END
$$$$
