YQL.pdb
     RDKit          3D

 30 30  0  0  1  0  0  0  0  0999 V2000
   27.8014  -12.7789  -19.9417 O   0  0  0  0  0  0  0  0  0  0  0  0
   27.3395  -13.7189  -19.0363 C   0  0  0  0  0  0  0  0  0  0  0  0
   26.1908  -13.4847  -18.3142 C   0  0  0  0  0  0  0  0  0  0  0  0
   25.7296  -14.4214  -17.4113 C   0  0  0  0  0  0  0  0  0  0  0  0
   26.3982  -15.6189  -17.2006 C   0  0  0  0  0  0  0  0  0  0  0  0
   25.8618  -16.5911  -16.2203 C   0  0  0  0  0  0  0  0  0  0  0  0
   25.2328  -17.7265  -17.0206 C   0  0  2  0  0  0  0  0  0  0  0  0
   24.0369  -17.3049  -17.6910 N   0  0  0  0  0  0  0  0  0  0  0  0
   24.8905  -18.8302  -16.0924 C   0  0  0  0  0  0  0  0  0  0  0  0
   23.7671  -18.8277  -15.4937 O   0  0  0  0  0  0  0  0  0  0  0  0
   27.5580  -15.8634  -17.9249 C   0  0  0  0  0  0  0  0  0  0  0  0
   27.9908  -14.9138  -18.8141 C   0  0  0  0  0  0  0  0  0  0  0  0
   23.5117  -24.4435  -13.9825 N   0  0  0  0  0  0  0  0  0  0  0  0
   24.3216  -23.9061  -15.0110 C   0  0  0  0  0  0  0  0  0  0  0  0
   23.8390  -23.7890  -16.1569 O   0  0  0  0  0  0  0  0  0  0  0  0
   25.7106  -23.4898  -14.7422 C   0  0  0  0  0  0  0  0  0  0  0  0
   26.0425  -22.3152  -15.5966 C   0  0  0  0  0  0  0  0  0  0  0  0
   25.4965  -21.0100  -15.0229 C   0  0  2  0  0  0  0  0  0  0  0  0
   25.8089  -19.8900  -15.8678 N   0  0  0  0  0  0  0  0  0  0  0  0
   26.1030  -20.8759  -13.6691 C   0  0  0  0  0  0  0  0  0  0  0  0
   27.3407  -20.6569  -13.6141 O   0  0  0  0  0  0  0  0  0  0  0  0
   27.3902  -20.6385   -8.9347 C   0  0  0  0  0  0  0  0  0  0  0  0
   26.6502  -19.3461   -9.3168 C   0  0  2  0  0  0  0  0  0  0  0  0
   25.6274  -19.0765   -8.2580 C   0  0  0  0  0  0  0  0  0  0  0  0
   26.0826  -19.4545  -10.7017 C   0  0  0  0  0  0  0  0  0  0  0  0
   26.0115  -20.8809  -11.1291 C   0  0  2  0  0  0  0  0  0  0  0  0
   25.3895  -20.9773  -12.4728 N   0  0  0  0  0  0  0  0  0  0  0  0
   25.1463  -21.6504  -10.2386 C   0  0  0  0  0  0  0  0  0  0  0  0
   23.7757  -21.6303  -10.3921 O   0  0  0  0  0  0  0  0  0  0  0  0
   25.6116  -22.3447   -9.3183 O   0  0  0  0  0  0  0  0  0  0  0  0
  2  3  2  0
  2  1  1  0
  4  3  1  0
  5  4  2  0
  6  5  1  0
  7  9  1  0
  7  6  1  0
  7  8  1  1
  9 10  2  0
 11  5  1  0
 11 12  2  0
 12  2  1  0
 14 15  2  0
 14 13  1  0
 16 14  1  0
 17 16  1  0
 18 17  1  6
 19 18  1  0
 19  9  1  0
 20 21  2  0
 20 18  1  0
 23 25  1  0
 23 22  1  1
 24 23  1  0
 26 25  1  1
 26 27  1  0
 27 20  1  0
 28 26  1  0
 28 29  1  0
 30 28  2  0
M  END
$$$$
