YQL.pdb
     RDKit          3D

 30 30  0  0  1  0  0  0  0  0999 V2000
   39.6033   -2.1379   -8.1885 O   0  0  0  0  0  0  0  0  0  0  0  0
   39.0975   -2.9010   -9.2270 C   0  0  0  0  0  0  0  0  0  0  0  0
   39.0162   -4.2705   -9.1095 C   0  0  0  0  0  0  0  0  0  0  0  0
   38.5119   -5.0320  -10.1445 C   0  0  0  0  0  0  0  0  0  0  0  0
   38.0738   -4.4529  -11.3268 C   0  0  0  0  0  0  0  0  0  0  0  0
   37.5410   -5.3145  -12.4073 C   0  0  0  0  0  0  0  0  0  0  0  0
   38.7425   -5.8806  -13.1563 C   0  0  2  0  0  0  0  0  0  0  0  0
   39.5109   -4.8465  -13.7869 N   0  0  0  0  0  0  0  0  0  0  0  0
   38.2561   -6.8123  -14.2015 C   0  0  0  0  0  0  0  0  0  0  0  0
   38.0821   -6.3934  -15.3909 O   0  0  0  0  0  0  0  0  0  0  0  0
   38.1523   -3.0719  -11.4539 C   0  0  0  0  0  0  0  0  0  0  0  0
   38.6577   -2.3427  -10.4086 C   0  0  0  0  0  0  0  0  0  0  0  0
   39.5922  -11.1091  -16.3954 N   0  0  0  0  0  0  0  0  0  0  0  0
   38.3432  -11.7723  -16.4487 C   0  0  0  0  0  0  0  0  0  0  0  0
   38.1136  -12.5460  -17.4017 O   0  0  0  0  0  0  0  0  0  0  0  0
   37.3266  -11.5586  -15.4018 C   0  0  0  0  0  0  0  0  0  0  0  0
   37.8350  -10.5553  -14.4247 C   0  0  0  0  0  0  0  0  0  0  0  0
   37.5664   -9.1216  -14.8751 C   0  0  2  0  0  0  0  0  0  0  0  0
   37.9833   -8.1692  -13.8828 N   0  0  0  0  0  0  0  0  0  0  0  0
   36.1029   -9.0469  -15.1422 C   0  0  0  0  0  0  0  0  0  0  0  0
   35.3326   -9.1713  -14.1554 O   0  0  0  0  0  0  0  0  0  0  0  0
   31.9546   -6.5033  -18.8338 C   0  0  0  0  0  0  0  0  0  0  0  0
   32.2720   -7.6065  -17.8109 C   0  0  2  0  0  0  0  0  0  0  0  0
   31.3958   -7.3873  -16.6176 C   0  0  0  0  0  0  0  0  0  0  0  0
   33.7392   -7.6264  -17.4968 C   0  0  0  0  0  0  0  0  0  0  0  0
   34.0815   -8.8155  -16.6654 C   0  0  2  0  0  0  0  0  0  0  0  0
   35.5420   -8.8498  -16.4060 N   0  0  0  0  0  0  0  0  0  0  0  0
   33.7788  -10.0548  -17.3771 C   0  0  0  0  0  0  0  0  0  0  0  0
   34.6488  -10.5593  -18.3210 O   0  0  0  0  0  0  0  0  0  0  0  0
   32.7346  -10.6930  -17.1585 O   0  0  0  0  0  0  0  0  0  0  0  0
  2  3  2  0
  2  1  1  0
  4  3  1  0
  5  4  2  0
  6  5  1  0
  7  9  1  0
  7  6  1  0
  7  8  1  6
  9 10  2  0
 11  5  1  0
 11 12  2  0
 12  2  1  0
 14 15  2  0
 14 13  1  0
 16 14  1  0
 17 16  1  0
 18 17  1  1
 19 18  1  0
 19  9  1  0
 20 21  2  0
 20 18  1  0
 23 25  1  0
 23 22  1  6
 24 23  1  0
 26 25  1  6
 26 27  1  0
 27 20  1  0
 28 26  1  0
 28 29  1  0
 30 28  2  0
M  END
$$$$
