YQL.pdb
     RDKit          3D

 30 30  0  0  1  0  0  0  0  0999 V2000
   30.7025  -13.6281  -16.9221 O   0  0  0  0  0  0  0  0  0  0  0  0
   29.6169  -12.7692  -16.9390 C   0  0  0  0  0  0  0  0  0  0  0  0
   29.4679  -11.8550  -17.9578 C   0  0  0  0  0  0  0  0  0  0  0  0
   28.3858  -10.9982  -17.9753 C   0  0  0  0  0  0  0  0  0  0  0  0
   27.4201  -11.0261  -16.9793 C   0  0  0  0  0  0  0  0  0  0  0  0
   26.2778  -10.0855  -17.0443 C   0  0  0  0  0  0  0  0  0  0  0  0
   25.0570  -10.8986  -17.4611 C   0  0  2  0  0  0  0  0  0  0  0  0
   25.2328  -11.4967  -18.7529 N   0  0  0  0  0  0  0  0  0  0  0  0
   23.8807   -9.9983  -17.5131 C   0  0  0  0  0  0  0  0  0  0  0  0
   23.4674   -9.5618  -18.6352 O   0  0  0  0  0  0  0  0  0  0  0  0
   27.5625  -11.9453  -15.9476 C   0  0  0  0  0  0  0  0  0  0  0  0
   28.6480  -12.7829  -15.9580 C   0  0  0  0  0  0  0  0  0  0  0  0
   18.6348  -10.9207  -14.9556 N   0  0  0  0  0  0  0  0  0  0  0  0
   18.4730   -9.5390  -15.2150 C   0  0  0  0  0  0  0  0  0  0  0  0
   17.3484   -9.0232  -15.0454 O   0  0  0  0  0  0  0  0  0  0  0  0
   19.6069   -8.7170  -15.6772 C   0  0  0  0  0  0  0  0  0  0  0  0
   20.8279   -9.5674  -15.7529 C   0  0  0  0  0  0  0  0  0  0  0  0
   22.0244   -8.8120  -16.3258 C   0  0  2  0  0  0  0  0  0  0  0  0
   23.2127   -9.6204  -16.3180 N   0  0  0  0  0  0  0  0  0  0  0  0
   22.1734   -7.5903  -15.4869 C   0  0  0  0  0  0  0  0  0  0  0  0
   22.6655   -7.7393  -14.3387 O   0  0  0  0  0  0  0  0  0  0  0  0
   20.6448   -1.5585  -15.4998 C   0  0  0  0  0  0  0  0  0  0  0  0
   21.5098   -2.6808  -14.9029 C   0  0  2  0  0  0  0  0  0  0  0  0
   22.8804   -2.1260  -14.6723 C   0  0  0  0  0  0  0  0  0  0  0  0
   21.4816   -3.8933  -15.7865 C   0  0  0  0  0  0  0  0  0  0  0  0
   21.9067   -5.1045  -15.0285 C   0  0  2  0  0  0  0  0  0  0  0  0
   21.8042   -6.3060  -15.8931 N   0  0  0  0  0  0  0  0  0  0  0  0
   21.0137   -5.3544  -13.8998 C   0  0  0  0  0  0  0  0  0  0  0  0
   21.3868   -5.0200  -12.6147 O   0  0  0  0  0  0  0  0  0  0  0  0
   19.8950   -5.8733  -14.0569 O   0  0  0  0  0  0  0  0  0  0  0  0
  2  3  2  0
  2  1  1  0
  4  3  1  0
  5  4  2  0
  6  5  1  0
  7  9  1  0
  7  6  1  0
  7  8  1  6
  9 10  2  0
 11  5  1  0
 11 12  2  0
 12  2  1  0
 14 15  2  0
 14 13  1  0
 16 14  1  0
 17 16  1  0
 18 17  1  1
 19 18  1  0
 19  9  1  0
 20 21  2  0
 20 18  1  0
 23 25  1  0
 23 22  1  6
 24 23  1  0
 26 25  1  6
 26 27  1  0
 27 20  1  0
 28 26  1  0
 28 29  1  0
 30 28  2  0
M  END
$$$$
