MCH.pdb
     RDKit          3D

 25 25  0  0  1  0  0  0  0  0999 V2000
   13.6932  -13.8750   18.5521 C   0  0  0  0  0  0  0  0  0  0  0  0
   13.5167  -14.3017   16.7899 S   0  0  0  0  0  0  0  0  0  0  0  0
   11.7026  -14.3869   16.4896 C   0  0  0  0  0  0  0  0  0  0  0  0
   11.0321  -14.7669   17.8021 C   0  0  0  0  0  0  0  0  0  0  0  0
    9.5202  -14.8765   17.6098 C   0  0  2  0  0  0  0  0  0  0  0  0
    8.9694  -13.5161   17.5471 N   0  0  0  0  0  0  0  0  0  0  0  0
    8.9998  -15.4475   18.8856 C   0  0  0  0  0  0  0  0  0  0  0  0
    8.7700  -14.7257   19.8374 O   0  0  0  0  0  0  0  0  0  0  0  0
    8.7703  -16.8521   18.9736 N   0  0  0  0  0  0  0  0  0  0  0  0
    8.3488  -17.5196   20.1582 C   0  0  1  0  0  0  0  0  0  0  0  0
    7.2880  -18.5809   19.8991 C   0  0  0  0  0  0  0  0  0  0  0  0
    7.4437  -19.1751   18.2097 S   0  0  0  0  0  0  0  0  0  0  0  0
    9.4240  -18.1602   20.9158 C   0  0  0  0  0  0  0  0  0  0  0  0
   10.4415  -18.6099   20.3680 O   0  0  0  0  0  0  0  0  0  0  0  0
    9.3353  -18.2858   22.3382 N   0  0  0  0  0  0  0  0  0  0  0  0
   10.5705  -18.2712   23.1392 C   0  0  1  0  0  0  0  0  0  0  0  0
   11.0158  -16.8041   23.1049 C   0  0  0  0  0  0  0  0  0  0  0  0
   12.0783  -16.5625   22.1321 C   0  0  0  0  0  0  0  0  0  0  0  0
   12.7104  -17.5196   21.3392 C   0  0  0  0  0  0  0  0  0  0  0  0
   13.6462  -16.8772   20.5967 N   0  0  0  0  0  0  0  0  0  0  0  0
   13.5938  -15.5847   20.9162 C   0  0  0  0  0  0  0  0  0  0  0  0
   12.6434  -15.3983   21.8465 N   0  0  0  0  0  0  0  0  0  0  0  0
   10.3077  -18.7380   24.4988 C   0  0  0  0  0  0  0  0  0  0  0  0
   11.2915  -19.2611   25.3036 O   0  0  0  0  0  0  0  0  0  0  0  0
    9.1235  -18.6554   24.9488 O   0  0  0  0  0  0  0  0  0  0  0  0
  1  2  1  0
  2  3  1  0
  3  4  1  0
  4  5  1  0
  5  7  1  0
  5  6  1  1
  7  9  1  0
  7  8  2  0
  9 10  1  0
 10 11  1  6
 11 12  1  0
 13 10  1  0
 13 14  2  0
 15 13  1  0
 16 15  1  0
 16 17  1  1
 18 17  1  0
 18 19  2  0
 20 19  1  0
 21 20  1  0
 22 21  2  0
 22 18  1  0
 23 16  1  0
 24 23  1  0
 25 23  2  0
M  END
$$$$
