MCH.pdb
     RDKit          3D

 25 25  0  0  1  0  0  0  0  0999 V2000
    8.7113  -11.4417   19.8344 C   0  0  0  0  0  0  0  0  0  0  0  0
    7.4082  -12.6349   19.3906 S   0  0  0  0  0  0  0  0  0  0  0  0
    8.2637  -14.2585   19.2481 C   0  0  0  0  0  0  0  0  0  0  0  0
    8.9284  -14.5520   20.5855 C   0  0  0  0  0  0  0  0  0  0  0  0
    8.1568  -15.6404   21.3306 C   0  0  2  0  0  0  0  0  0  0  0  0
    6.7360  -15.2673   21.3379 N   0  0  0  0  0  0  0  0  0  0  0  0
    8.5939  -15.5319   22.7525 C   0  0  0  0  0  0  0  0  0  0  0  0
    9.7711  -15.6223   23.0458 O   0  0  0  0  0  0  0  0  0  0  0  0
    7.6130  -15.3160   23.7646 N   0  0  0  0  0  0  0  0  0  0  0  0
    7.9073  -15.2185   25.1540 C   0  0  1  0  0  0  0  0  0  0  0  0
    6.7612  -14.6311   25.9663 C   0  0  0  0  0  0  0  0  0  0  0  0
    6.4194  -12.9631   25.3899 S   0  0  0  0  0  0  0  0  0  0  0  0
    8.2845  -16.4809   25.7902 C   0  0  0  0  0  0  0  0  0  0  0  0
    7.4571  -17.3723   26.0319 O   0  0  0  0  0  0  0  0  0  0  0  0
    9.6447  -16.7321   26.1556 N   0  0  0  0  0  0  0  0  0  0  0  0
   10.0128  -18.0538   26.6897 C   0  0  1  0  0  0  0  0  0  0  0  0
   11.2306  -18.4644   25.8529 C   0  0  0  0  0  0  0  0  0  0  0  0
   11.8101  -19.7321   26.2894 C   0  0  0  0  0  0  0  0  0  0  0  0
   11.3608  -20.5316   27.3396 C   0  0  0  0  0  0  0  0  0  0  0  0
   12.1907  -21.6016   27.4186 N   0  0  0  0  0  0  0  0  0  0  0  0
   13.1085  -21.4686   26.4619 C   0  0  0  0  0  0  0  0  0  0  0  0
   12.8748  -20.3352   25.7805 N   0  0  0  0  0  0  0  0  0  0  0  0
   10.3251  -17.9642   28.1144 C   0  0  0  0  0  0  0  0  0  0  0  0
   10.5861  -16.7685   28.7400 O   0  0  0  0  0  0  0  0  0  0  0  0
   10.3556  -19.0349   28.7958 O   0  0  0  0  0  0  0  0  0  0  0  0
  1  2  1  0
  2  3  1  0
  3  4  1  0
  4  5  1  0
  5  7  1  0
  5  6  1  1
  7  9  1  0
  7  8  2  0
  9 10  1  0
 10 11  1  1
 11 12  1  0
 13 10  1  0
 13 14  2  0
 15 13  1  0
 16 15  1  0
 16 17  1  6
 18 17  1  0
 18 19  2  0
 20 19  1  0
 21 20  1  0
 22 21  2  0
 22 18  1  0
 23 16  1  0
 24 23  1  0
 25 23  2  0
M  END
$$$$
