MCH.pdb
     RDKit          3D

 25 25  0  0  1  0  0  0  0  0999 V2000
    8.4646  -11.5436   18.2205 C   0  0  0  0  0  0  0  0  0  0  0  0
    8.1809  -12.4472   19.7767 S   0  0  0  0  0  0  0  0  0  0  0  0
    9.1669  -13.9944   19.6272 C   0  0  0  0  0  0  0  0  0  0  0  0
    8.5508  -14.8320   18.5158 C   0  0  0  0  0  0  0  0  0  0  0  0
    9.3090  -16.1503   18.3665 C   0  0  2  0  0  0  0  0  0  0  0  0
    8.5724  -16.9939   17.4159 N   0  0  0  0  0  0  0  0  0  0  0  0
    9.1706  -16.8372   19.6831 C   0  0  0  0  0  0  0  0  0  0  0  0
    8.1383  -17.4102   19.9758 O   0  0  0  0  0  0  0  0  0  0  0  0
   10.2677  -16.8174   20.5939 N   0  0  0  0  0  0  0  0  0  0  0  0
   10.2125  -17.3279   21.9217 C   0  0  1  0  0  0  0  0  0  0  0  0
   11.4255  -18.1731   22.2862 C   0  0  0  0  0  0  0  0  0  0  0  0
   11.2503  -18.7650   23.9745 S   0  0  0  0  0  0  0  0  0  0  0  0
   10.0663  -16.3110   22.9633 C   0  0  0  0  0  0  0  0  0  0  0  0
   10.8855  -15.3916   23.1091 O   0  0  0  0  0  0  0  0  0  0  0  0
    8.9512  -16.3438   23.8590 N   0  0  0  0  0  0  0  0  0  0  0  0
    8.7637  -15.2387   24.8136 C   0  0  1  0  0  0  0  0  0  0  0  0
    7.2628  -14.9335   24.7352 C   0  0  0  0  0  0  0  0  0  0  0  0
    6.8642  -13.8444   25.6232 C   0  0  0  0  0  0  0  0  0  0  0  0
    7.4429  -12.5778   25.6940 C   0  0  0  0  0  0  0  0  0  0  0  0
    6.7884  -11.8863   26.6600 N   0  0  0  0  0  0  0  0  0  0  0  0
    5.8499  -12.6884   27.1613 C   0  0  0  0  0  0  0  0  0  0  0  0
    5.8993  -13.8732   26.5311 N   0  0  0  0  0  0  0  0  0  0  0  0
    9.1768  -15.6425   26.1559 C   0  0  0  0  0  0  0  0  0  0  0  0
    9.6258  -14.7426   27.0928 O   0  0  0  0  0  0  0  0  0  0  0  0
    9.1170  -16.8728   26.4631 O   0  0  0  0  0  0  0  0  0  0  0  0
  1  2  1  0
  2  3  1  0
  3  4  1  0
  4  5  1  0
  5  7  1  0
  5  6  1  6
  7  9  1  0
  7  8  2  0
  9 10  1  0
 10 11  1  1
 11 12  1  0
 13 10  1  0
 13 14  2  0
 15 13  1  0
 16 15  1  0
 16 17  1  1
 18 17  1  0
 18 19  2  0
 20 19  1  0
 21 20  1  0
 22 21  2  0
 22 18  1  0
 23 16  1  0
 24 23  1  0
 25 23  2  0
M  END
$$$$
