MCH.pdb
     RDKit          3D

 25 25  0  0  1  0  0  0  0  0999 V2000
    7.4356  -12.3607   25.3674 C   0  0  0  0  0  0  0  0  0  0  0  0
    6.6422  -13.9881   25.5685 S   0  0  0  0  0  0  0  0  0  0  0  0
    6.6292  -14.7340   23.8858 C   0  0  0  0  0  0  0  0  0  0  0  0
    7.8912  -14.2794   23.1666 C   0  0  0  0  0  0  0  0  0  0  0  0
    8.2660  -15.2806   22.0748 C   0  0  2  0  0  0  0  0  0  0  0  0
    7.0278  -15.8897   21.5711 N   0  0  0  0  0  0  0  0  0  0  0  0
    8.9826  -16.3832   22.7785 C   0  0  0  0  0  0  0  0  0  0  0  0
    8.4034  -17.4147   23.0620 O   0  0  0  0  0  0  0  0  0  0  0  0
   10.3589  -16.2140   23.1110 N   0  0  0  0  0  0  0  0  0  0  0  0
   11.1768  -17.2364   23.6700 C   0  0  1  0  0  0  0  0  0  0  0  0
   12.6655  -16.9376   23.5562 C   0  0  0  0  0  0  0  0  0  0  0  0
   12.9525  -15.2025   23.9282 S   0  0  0  0  0  0  0  0  0  0  0  0
   10.9036  -17.5394   25.0751 C   0  0  0  0  0  0  0  0  0  0  0  0
   10.4460  -16.6928   25.8570 O   0  0  0  0  0  0  0  0  0  0  0  0
   11.1565  -18.8466   25.5986 N   0  0  0  0  0  0  0  0  0  0  0  0
   10.9038  -19.1107   27.0248 C   0  0  1  0  0  0  0  0  0  0  0  0
    9.9748  -20.3308   27.0157 C   0  0  0  0  0  0  0  0  0  0  0  0
    8.6043  -19.9903   26.6424 C   0  0  0  0  0  0  0  0  0  0  0  0
    8.1159  -18.7171   26.3513 C   0  0  0  0  0  0  0  0  0  0  0  0
    6.7937  -18.8431   26.0763 N   0  0  0  0  0  0  0  0  0  0  0  0
    6.4812  -20.1332   26.1919 C   0  0  0  0  0  0  0  0  0  0  0  0
    7.5801  -20.8244   26.5352 N   0  0  0  0  0  0  0  0  0  0  0  0
   12.1567  -19.3744   27.7291 C   0  0  0  0  0  0  0  0  0  0  0  0
   12.2261  -19.4843   29.0975 O   0  0  0  0  0  0  0  0  0  0  0  0
   13.2188  -19.5058   27.0463 O   0  0  0  0  0  0  0  0  0  0  0  0
  1  2  1  0
  2  3  1  0
  3  4  1  0
  4  5  1  0
  5  7  1  0
  5  6  1  1
  7  9  1  0
  7  8  2  0
  9 10  1  0
 10 11  1  1
 11 12  1  0
 13 10  1  0
 13 14  2  0
 15 13  1  0
 16 15  1  0
 16 17  1  6
 18 17  1  0
 18 19  2  0
 20 19  1  0
 21 20  1  0
 22 21  2  0
 22 18  1  0
 23 16  1  0
 24 23  1  0
 25 23  2  0
M  END
$$$$
