MCH.pdb
     RDKit          3D

 25 25  0  0  1  0  0  0  0  0999 V2000
    8.5243  -11.9311   20.5628 C   0  0  0  0  0  0  0  0  0  0  0  0
    7.8055  -12.6341   19.0437 S   0  0  0  0  0  0  0  0  0  0  0  0
    7.5316  -14.4161   19.4148 C   0  0  0  0  0  0  0  0  0  0  0  0
    8.8958  -15.0760   19.5558 C   0  0  0  0  0  0  0  0  0  0  0  0
    8.7330  -16.5595   19.8840 C   0  0  2  0  0  0  0  0  0  0  0  0
    7.7841  -17.1370   18.9227 N   0  0  0  0  0  0  0  0  0  0  0  0
    8.0272  -16.5987   21.1973 C   0  0  0  0  0  0  0  0  0  0  0  0
    7.1870  -15.7631   21.4726 O   0  0  0  0  0  0  0  0  0  0  0  0
    8.3472  -17.6327   22.1255 N   0  0  0  0  0  0  0  0  0  0  0  0
    7.7935  -17.7312   23.4334 C   0  0  1  0  0  0  0  0  0  0  0  0
    7.4351  -19.1589   23.8230 C   0  0  0  0  0  0  0  0  0  0  0  0
    6.3824  -19.1297   25.2799 S   0  0  0  0  0  0  0  0  0  0  0  0
    8.6394  -17.1925   24.4987 C   0  0  0  0  0  0  0  0  0  0  0  0
    9.8741  -17.3061   24.4835 O   0  0  0  0  0  0  0  0  0  0  0  0
    8.0581  -16.5018   25.6085 N   0  0  0  0  0  0  0  0  0  0  0  0
    8.9326  -16.0064   26.6844 C   0  0  1  0  0  0  0  0  0  0  0  0
    7.9978  -15.1660   27.5629 C   0  0  0  0  0  0  0  0  0  0  0  0
    7.3968  -14.0505   26.8362 C   0  0  0  0  0  0  0  0  0  0  0  0
    7.6942  -13.6528   25.5333 C   0  0  0  0  0  0  0  0  0  0  0  0
    6.9295  -12.5674   25.2560 N   0  0  0  0  0  0  0  0  0  0  0  0
    6.1946  -12.3080   26.3367 C   0  0  0  0  0  0  0  0  0  0  0  0
    6.4806  -13.2080   27.2914 N   0  0  0  0  0  0  0  0  0  0  0  0
    9.5276  -17.1213   27.4183 C   0  0  0  0  0  0  0  0  0  0  0  0
    9.2753  -18.4343   27.0995 O   0  0  0  0  0  0  0  0  0  0  0  0
   10.3063  -16.8616   28.3867 O   0  0  0  0  0  0  0  0  0  0  0  0
  1  2  1  0
  2  3  1  0
  3  4  1  0
  4  5  1  0
  5  7  1  0
  5  6  1  6
  7  9  1  0
  7  8  2  0
  9 10  1  0
 10 11  1  1
 11 12  1  0
 13 10  1  0
 13 14  2  0
 15 13  1  0
 16 15  1  0
 16 17  1  1
 18 17  1  0
 18 19  2  0
 20 19  1  0
 21 20  1  0
 22 21  2  0
 22 18  1  0
 23 16  1  0
 24 23  1  0
 25 23  2  0
M  END
$$$$
