MCH.pdb
     RDKit          3D

 25 25  0  0  1  0  0  0  0  0999 V2000
    5.8648  -19.4042   21.3678 C   0  0  0  0  0  0  0  0  0  0  0  0
    4.5270  -18.3260   21.9732 S   0  0  0  0  0  0  0  0  0  0  0  0
    5.3057  -16.6763   22.2190 C   0  0  0  0  0  0  0  0  0  0  0  0
    6.1428  -16.3696   20.9855 C   0  0  0  0  0  0  0  0  0  0  0  0
    6.7906  -14.9919   21.1166 C   0  0  2  0  0  0  0  0  0  0  0  0
    7.5911  -14.7485   19.9092 N   0  0  0  0  0  0  0  0  0  0  0  0
    7.7844  -15.1257   22.2207 C   0  0  0  0  0  0  0  0  0  0  0  0
    8.9167  -15.5059   21.9903 O   0  0  0  0  0  0  0  0  0  0  0  0
    7.3905  -14.7972   23.5512 N   0  0  0  0  0  0  0  0  0  0  0  0
    8.2671  -14.8225   24.6727 C   0  0  1  0  0  0  0  0  0  0  0  0
    7.8603  -13.8476   25.7694 C   0  0  0  0  0  0  0  0  0  0  0  0
    6.1646  -14.1836   26.2626 S   0  0  0  0  0  0  0  0  0  0  0  0
    8.4229  -16.1357   25.2987 C   0  0  0  0  0  0  0  0  0  0  0  0
    7.4599  -16.8905   25.4999 O   0  0  0  0  0  0  0  0  0  0  0  0
    9.7150  -16.5997   25.7012 N   0  0  0  0  0  0  0  0  0  0  0  0
    9.8402  -17.9303   26.3189 C   0  0  1  0  0  0  0  0  0  0  0  0
   10.8661  -18.6521   25.4367 C   0  0  0  0  0  0  0  0  0  0  0  0
   10.3622  -18.9172   24.0916 C   0  0  0  0  0  0  0  0  0  0  0  0
    9.1734  -19.5685   23.7645 C   0  0  0  0  0  0  0  0  0  0  0  0
    9.0994  -19.6219   22.4112 N   0  0  0  0  0  0  0  0  0  0  0  0
   10.1907  -19.0311   21.9263 C   0  0  0  0  0  0  0  0  0  0  0  0
   10.9530  -18.6061   22.9469 N   0  0  0  0  0  0  0  0  0  0  0  0
   10.2872  -17.8139   27.7053 C   0  0  0  0  0  0  0  0  0  0  0  0
   10.4712  -18.9080   28.5167 O   0  0  0  0  0  0  0  0  0  0  0  0
   10.5125  -16.6555   28.1734 O   0  0  0  0  0  0  0  0  0  0  0  0
  1  2  1  0
  2  3  1  0
  3  4  1  0
  4  5  1  0
  5  7  1  0
  5  6  1  6
  7  9  1  0
  7  8  2  0
  9 10  1  0
 10 11  1  1
 11 12  1  0
 13 10  1  0
 13 14  2  0
 15 13  1  0
 16 15  1  0
 16 17  1  6
 18 17  1  0
 18 19  2  0
 20 19  1  0
 21 20  1  0
 22 21  2  0
 22 18  1  0
 23 16  1  0
 24 23  1  0
 25 23  2  0
M  END
$$$$
