MCH.pdb
     RDKit          3D

 25 25  0  0  1  0  0  0  0  0999 V2000
    9.0154  -22.3639   19.6680 C   0  0  0  0  0  0  0  0  0  0  0  0
    7.5798  -21.2664   19.4370 S   0  0  0  0  0  0  0  0  0  0  0  0
    7.8098  -20.5083   17.7755 C   0  0  0  0  0  0  0  0  0  0  0  0
    9.0605  -19.6426   17.8293 C   0  0  0  0  0  0  0  0  0  0  0  0
    8.6790  -18.1630   17.8178 C   0  0  2  0  0  0  0  0  0  0  0  0
    9.1875  -17.5713   16.5731 N   0  0  0  0  0  0  0  0  0  0  0  0
    9.4879  -17.5377   18.9037 C   0  0  0  0  0  0  0  0  0  0  0  0
   10.6400  -17.2033   18.7017 O   0  0  0  0  0  0  0  0  0  0  0  0
    8.8909  -17.3324   20.1822 N   0  0  0  0  0  0  0  0  0  0  0  0
    9.5985  -16.8750   21.3298 C   0  0  1  0  0  0  0  0  0  0  0  0
    8.7288  -16.0673   22.2836 C   0  0  0  0  0  0  0  0  0  0  0  0
    9.7566  -15.3887   23.5930 S   0  0  0  0  0  0  0  0  0  0  0  0
   10.2368  -17.9305   22.1166 C   0  0  0  0  0  0  0  0  0  0  0  0
    9.6084  -18.9136   22.5366 O   0  0  0  0  0  0  0  0  0  0  0  0
   11.6315  -17.8620   22.4275 N   0  0  0  0  0  0  0  0  0  0  0  0
   12.2728  -18.9997   23.1072 C   0  0  1  0  0  0  0  0  0  0  0  0
   13.6741  -19.0587   22.4869 C   0  0  0  0  0  0  0  0  0  0  0  0
   13.6507  -19.4688   21.0852 C   0  0  0  0  0  0  0  0  0  0  0  0
   12.6619  -20.2265   20.4589 C   0  0  0  0  0  0  0  0  0  0  0  0
   13.0386  -20.3968   19.1671 N   0  0  0  0  0  0  0  0  0  0  0  0
   14.2048  -19.7733   19.0040 C   0  0  0  0  0  0  0  0  0  0  0  0
   14.5722  -19.2129   20.1677 N   0  0  0  0  0  0  0  0  0  0  0  0
   12.3158  -18.7788   24.5511 C   0  0  0  0  0  0  0  0  0  0  0  0
   11.8712  -17.6162   25.1343 O   0  0  0  0  0  0  0  0  0  0  0  0
   12.7828  -19.6990   25.2906 O   0  0  0  0  0  0  0  0  0  0  0  0
  1  2  1  0
  2  3  1  0
  3  4  1  0
  4  5  1  0
  5  7  1  0
  5  6  1  6
  7  9  1  0
  7  8  2  0
  9 10  1  0
 10 11  1  1
 11 12  1  0
 13 10  1  0
 13 14  2  0
 15 13  1  0
 16 15  1  0
 16 17  1  6
 18 17  1  0
 18 19  2  0
 20 19  1  0
 21 20  1  0
 22 21  2  0
 22 18  1  0
 23 16  1  0
 24 23  1  0
 25 23  2  0
M  END
$$$$
