MCH.pdb
     RDKit          3D

 25 25  0  0  1  0  0  0  0  0999 V2000
    9.1159  -11.6310   20.2511 C   0  0  0  0  0  0  0  0  0  0  0  0
    7.8373  -12.4219   19.2224 S   0  0  0  0  0  0  0  0  0  0  0  0
    8.3476  -14.1850   19.0828 C   0  0  0  0  0  0  0  0  0  0  0  0
    7.4032  -15.0112   19.9443 C   0  0  0  0  0  0  0  0  0  0  0  0
    7.8269  -16.4794   19.9328 C   0  0  2  0  0  0  0  0  0  0  0  0
    7.1228  -17.1477   18.8303 N   0  0  0  0  0  0  0  0  0  0  0  0
    7.2488  -17.0674   21.1756 C   0  0  0  0  0  0  0  0  0  0  0  0
    6.2085  -17.6967   21.1357 O   0  0  0  0  0  0  0  0  0  0  0  0
    7.9350  -16.8859   22.4124 N   0  0  0  0  0  0  0  0  0  0  0  0
    7.6219  -17.5892   23.6099 C   0  0  1  0  0  0  0  0  0  0  0  0
    7.6732  -19.1019   23.4436 C   0  0  0  0  0  0  0  0  0  0  0  0
    7.1472  -19.8852   24.9737 S   0  0  0  0  0  0  0  0  0  0  0  0
    8.4658  -17.2523   24.7566 C   0  0  0  0  0  0  0  0  0  0  0  0
    9.6997  -17.3717   24.7269 O   0  0  0  0  0  0  0  0  0  0  0  0
    7.8835  -16.7615   25.9677 N   0  0  0  0  0  0  0  0  0  0  0  0
    8.7646  -16.2998   27.0530 C   0  0  1  0  0  0  0  0  0  0  0  0
    7.8986  -15.3035   27.8336 C   0  0  0  0  0  0  0  0  0  0  0  0
    7.4948  -14.1564   27.0245 C   0  0  0  0  0  0  0  0  0  0  0  0
    8.2847  -13.4743   26.0998 C   0  0  0  0  0  0  0  0  0  0  0  0
    7.5336  -12.4664   25.5902 N   0  0  0  0  0  0  0  0  0  0  0  0
    6.3366  -12.5243   26.1726 C   0  0  0  0  0  0  0  0  0  0  0  0
    6.3172  -13.5486   27.0408 N   0  0  0  0  0  0  0  0  0  0  0  0
    9.1955  -17.4250   27.8800 C   0  0  0  0  0  0  0  0  0  0  0  0
   10.0566  -17.2753   28.9408 O   0  0  0  0  0  0  0  0  0  0  0  0
    8.7549  -18.5830   27.6034 O   0  0  0  0  0  0  0  0  0  0  0  0
  1  2  1  0
  2  3  1  0
  3  4  1  0
  4  5  1  0
  5  7  1  0
  5  6  1  6
  7  9  1  0
  7  8  2  0
  9 10  1  0
 10 11  1  6
 11 12  1  0
 13 10  1  0
 13 14  2  0
 15 13  1  0
 16 15  1  0
 16 17  1  1
 18 17  1  0
 18 19  2  0
 20 19  1  0
 21 20  1  0
 22 21  2  0
 22 18  1  0
 23 16  1  0
 24 23  1  0
 25 23  2  0
M  END
$$$$
