MCH.pdb
     RDKit          3D

 25 25  0  0  1  0  0  0  0  0999 V2000
    4.4478  -17.3072   22.5349 C   0  0  0  0  0  0  0  0  0  0  0  0
    5.3431  -17.7544   21.0126 S   0  0  0  0  0  0  0  0  0  0  0  0
    6.0139  -16.1695   20.3597 C   0  0  0  0  0  0  0  0  0  0  0  0
    7.1234  -15.7139   21.2966 C   0  0  0  0  0  0  0  0  0  0  0  0
    6.8295  -14.3080   21.8182 C   0  0  2  0  0  0  0  0  0  0  0  0
    7.2086  -13.3466   20.7741 N   0  0  0  0  0  0  0  0  0  0  0  0
    7.8048  -14.0846   22.9242 C   0  0  0  0  0  0  0  0  0  0  0  0
    8.9960  -14.0039   22.6909 O   0  0  0  0  0  0  0  0  0  0  0  0
    7.3217  -13.9621   24.2602 N   0  0  0  0  0  0  0  0  0  0  0  0
    8.1328  -14.1164   25.4199 C   0  0  1  0  0  0  0  0  0  0  0  0
    7.5485  -13.4364   26.6507 C   0  0  0  0  0  0  0  0  0  0  0  0
    6.2866  -12.2635   26.1376 S   0  0  0  0  0  0  0  0  0  0  0  0
    8.4179  -15.5035   25.7877 C   0  0  0  0  0  0  0  0  0  0  0  0
    7.5191  -16.3417   25.9528 O   0  0  0  0  0  0  0  0  0  0  0  0
    9.7669  -15.9447   25.9671 N   0  0  0  0  0  0  0  0  0  0  0  0
   10.0202  -17.3423   26.3547 C   0  0  1  0  0  0  0  0  0  0  0  0
   11.3666  -17.6698   25.6975 C   0  0  0  0  0  0  0  0  0  0  0  0
   11.3108  -17.6023   24.2395 C   0  0  0  0  0  0  0  0  0  0  0  0
   10.2557  -18.0204   23.4295 C   0  0  0  0  0  0  0  0  0  0  0  0
   10.6210  -17.8003   22.1419 N   0  0  0  0  0  0  0  0  0  0  0  0
   11.8436  -17.2710   22.1569 C   0  0  0  0  0  0  0  0  0  0  0  0
   12.2579  -17.1530   23.4288 N   0  0  0  0  0  0  0  0  0  0  0  0
   10.0685  -17.4721   27.8095 C   0  0  0  0  0  0  0  0  0  0  0  0
   10.2266  -18.6841   28.4384 O   0  0  0  0  0  0  0  0  0  0  0  0
    9.9594  -16.4222   28.5148 O   0  0  0  0  0  0  0  0  0  0  0  0
  1  2  1  0
  2  3  1  0
  3  4  1  0
  4  5  1  0
  5  7  1  0
  5  6  1  6
  7  9  1  0
  7  8  2  0
  9 10  1  0
 10 11  1  1
 11 12  1  0
 13 10  1  0
 13 14  2  0
 15 13  1  0
 16 15  1  0
 16 17  1  6
 18 17  1  0
 18 19  2  0
 20 19  1  0
 21 20  1  0
 22 21  2  0
 22 18  1  0
 23 16  1  0
 24 23  1  0
 25 23  2  0
M  END
$$$$
