TQV.pdb
     RDKit          3D

 24 23  0  0  1  0  0  0  0  0999 V2000
   27.4400  -19.1746  -16.8957 C   0  0  0  0  0  0  0  0  0  0  0  0
   27.9066  -20.5410  -17.3492 C   0  0  1  0  0  0  0  0  0  0  0  0
   29.0960  -20.4775  -18.0558 O   0  0  0  0  0  0  0  0  0  0  0  0
   27.9812  -21.4973  -16.1712 C   0  0  2  0  0  0  0  0  0  0  0  0
   28.4092  -22.7736  -16.6895 N   0  0  0  0  0  0  0  0  0  0  0  0
   26.6591  -21.6445  -15.5106 C   0  0  0  0  0  0  0  0  0  0  0  0
   25.7239  -22.3245  -16.0165 O   0  0  0  0  0  0  0  0  0  0  0  0
   25.5986  -20.7495   -9.4515 N   0  0  0  0  0  0  0  0  0  0  0  0
   24.2755  -21.0240   -9.8656 C   0  0  0  0  0  0  0  0  0  0  0  0
   23.3629  -21.1740   -9.0341 O   0  0  0  0  0  0  0  0  0  0  0  0
   24.0466  -21.1211  -11.3488 C   0  0  0  0  0  0  0  0  0  0  0  0
   25.3382  -20.9745  -12.0978 C   0  0  0  0  0  0  0  0  0  0  0  0
   25.1316  -21.1247  -13.5602 C   0  0  2  0  0  0  0  0  0  0  0  0
   26.4122  -21.0176  -14.2812 N   0  0  0  0  0  0  0  0  0  0  0  0
   24.1555  -20.1762  -14.1431 C   0  0  0  0  0  0  0  0  0  0  0  0
   24.2717  -18.9308  -14.1747 O   0  0  0  0  0  0  0  0  0  0  0  0
   21.3691  -21.6365  -16.9215 C   0  0  0  0  0  0  0  0  0  0  0  0
   21.7738  -20.1726  -16.7741 C   0  0  2  0  0  0  0  0  0  0  0  0
   23.0820  -19.9630  -17.5112 C   0  0  0  0  0  0  0  0  0  0  0  0
   21.9510  -19.8149  -15.3122 C   0  0  2  0  0  0  0  0  0  0  0  0
   22.9558  -20.6857  -14.7346 N   0  0  0  0  0  0  0  0  0  0  0  0
   20.6518  -20.0372  -14.6333 C   0  0  0  0  0  0  0  0  0  0  0  0
   20.5164  -21.0184  -13.8411 O   0  0  0  0  0  0  0  0  0  0  0  0
   19.5536  -19.2299  -14.8089 O   0  0  0  0  0  0  0  0  0  0  0  0
  2  1  1  1
  3  2  1  0
  4  6  1  0
  4  2  1  0
  4  5  1  6
  6  7  2  0
  8  9  1  0
  9 11  1  0
 10  9  2  0
 11 12  1  0
 13 12  1  1
 14 13  1  0
 14  6  1  0
 15 21  1  0
 15 13  1  0
 16 15  2  0
 18 17  1  1
 19 18  1  0
 20 18  1  0
 20 21  1  1
 22 20  1  0
 22 24  1  0
 23 22  2  0
M  END
$$$$
