TQV.pdb
     RDKit          3D

 24 23  0  0  1  0  0  0  0  0999 V2000
   17.8293  -22.0275  -13.3967 C   0  0  0  0  0  0  0  0  0  0  0  0
   19.0337  -21.2958  -13.9482 C   0  0  1  0  0  0  0  0  0  0  0  0
   18.7106  -20.0276  -14.4014 O   0  0  0  0  0  0  0  0  0  0  0  0
   20.1603  -21.2789  -12.9293 C   0  0  2  0  0  0  0  0  0  0  0  0
   19.7004  -20.5030  -11.8037 N   0  0  0  0  0  0  0  0  0  0  0  0
   21.3887  -20.6624  -13.4925 C   0  0  0  0  0  0  0  0  0  0  0  0
   21.6386  -19.4305  -13.3786 O   0  0  0  0  0  0  0  0  0  0  0  0
   26.5977  -23.6611  -15.1153 N   0  0  0  0  0  0  0  0  0  0  0  0
   26.8939  -22.4013  -15.6834 C   0  0  0  0  0  0  0  0  0  0  0  0
   27.9962  -22.1829  -16.2163 O   0  0  0  0  0  0  0  0  0  0  0  0
   25.8104  -21.3615  -15.6034 C   0  0  0  0  0  0  0  0  0  0  0  0
   24.5992  -21.9068  -14.9060 C   0  0  0  0  0  0  0  0  0  0  0  0
   23.5104  -20.8990  -14.8525 C   0  0  2  0  0  0  0  0  0  0  0  0
   22.3215  -21.4515  -14.1799 N   0  0  0  0  0  0  0  0  0  0  0  0
   23.1207  -20.3456  -16.1694 C   0  0  0  0  0  0  0  0  0  0  0  0
   22.2797  -20.8398  -16.9531 O   0  0  0  0  0  0  0  0  0  0  0  0
   23.8698  -16.3736  -16.7582 C   0  0  0  0  0  0  0  0  0  0  0  0
   22.9185  -17.1279  -17.6828 C   0  0  2  0  0  0  0  0  0  0  0  0
   21.5491  -17.1617  -17.0330 C   0  0  0  0  0  0  0  0  0  0  0  0
   23.4089  -18.5437  -17.9093 C   0  0  2  0  0  0  0  0  0  0  0  0
   23.7362  -19.1375  -16.6279 N   0  0  0  0  0  0  0  0  0  0  0  0
   24.6291  -18.4691  -18.7482 C   0  0  0  0  0  0  0  0  0  0  0  0
   25.7617  -18.7167  -18.2336 O   0  0  0  0  0  0  0  0  0  0  0  0
   24.6162  -18.1408  -20.0826 O   0  0  0  0  0  0  0  0  0  0  0  0
  2  1  1  1
  3  2  1  0
  4  6  1  0
  4  2  1  0
  4  5  1  1
  6  7  2  0
  8  9  1  0
  9 11  1  0
 10  9  2  0
 11 12  1  0
 13 12  1  6
 14 13  1  0
 14  6  1  0
 15 21  1  0
 15 13  1  0
 16 15  2  0
 18 17  1  1
 19 18  1  0
 20 18  1  0
 20 21  1  1
 22 20  1  0
 22 24  1  0
 23 22  2  0
M  END
$$$$
