TQV.pdb
     RDKit          3D

 24 23  0  0  1  0  0  0  0  0999 V2000
   23.9240  -19.9397  -10.1947 C   0  0  0  0  0  0  0  0  0  0  0  0
   25.3916  -20.0860   -9.8556 C   0  0  1  0  0  0  0  0  0  0  0  0
   25.6086  -20.1315   -8.4885 O   0  0  0  0  0  0  0  0  0  0  0  0
   25.9896  -21.2807  -10.5787 C   0  0  2  0  0  0  0  0  0  0  0  0
   27.3666  -21.3815  -10.1611 N   0  0  0  0  0  0  0  0  0  0  0  0
   25.9260  -21.1073  -12.0525 C   0  0  0  0  0  0  0  0  0  0  0  0
   26.8875  -20.6328  -12.7182 O   0  0  0  0  0  0  0  0  0  0  0  0
   25.2125  -23.4994  -16.6379 N   0  0  0  0  0  0  0  0  0  0  0  0
   25.0533  -24.2856  -15.4743 C   0  0  0  0  0  0  0  0  0  0  0  0
   25.6318  -25.3803  -15.3576 O   0  0  0  0  0  0  0  0  0  0  0  0
   24.1561  -23.7235  -14.4062 C   0  0  0  0  0  0  0  0  0  0  0  0
   23.7034  -22.3390  -14.7651 C   0  0  0  0  0  0  0  0  0  0  0  0
   24.6231  -21.3127  -14.2129 C   0  0  2  0  0  0  0  0  0  0  0  0
   24.7703  -21.4747  -12.7558 N   0  0  0  0  0  0  0  0  0  0  0  0
   24.2391  -19.9158  -14.5186 C   0  0  0  0  0  0  0  0  0  0  0  0
   23.3298  -19.2653  -13.9568 O   0  0  0  0  0  0  0  0  0  0  0  0
   26.8768  -17.6842  -16.9565 C   0  0  0  0  0  0  0  0  0  0  0  0
   25.8988  -17.0349  -15.9816 C   0  0  2  0  0  0  0  0  0  0  0  0
   26.5538  -16.9792  -14.6154 C   0  0  0  0  0  0  0  0  0  0  0  0
   24.6177  -17.8401  -15.8988 C   0  0  2  0  0  0  0  0  0  0  0  0
   24.9446  -19.2066  -15.5423 N   0  0  0  0  0  0  0  0  0  0  0  0
   23.9823  -17.8148  -17.2382 C   0  0  0  0  0  0  0  0  0  0  0  0
   23.4659  -16.7392  -17.6687 O   0  0  0  0  0  0  0  0  0  0  0  0
   23.9129  -18.9079  -18.0682 O   0  0  0  0  0  0  0  0  0  0  0  0
  2  1  1  1
  3  2  1  0
  4  6  1  0
  4  2  1  0
  4  5  1  1
  6  7  2  0
  8  9  1  0
  9 11  1  0
 10  9  2  0
 11 12  1  0
 13 12  1  1
 14 13  1  0
 14  6  1  0
 15 21  1  0
 15 13  1  0
 16 15  2  0
 18 17  1  6
 19 18  1  0
 20 18  1  0
 20 21  1  6
 22 20  1  0
 22 24  1  0
 23 22  2  0
M  END
$$$$
