TQV.pdb
     RDKit          3D

 24 23  0  0  1  0  0  0  0  0999 V2000
   19.2329  -21.7701  -14.8626 C   0  0  0  0  0  0  0  0  0  0  0  0
   20.7165  -21.4979  -14.7399 C   0  0  1  0  0  0  0  0  0  0  0  0
   21.3727  -21.6311  -15.9522 O   0  0  0  0  0  0  0  0  0  0  0  0
   20.9588  -20.1445  -14.0939 C   0  0  2  0  0  0  0  0  0  0  0  0
   20.4856  -19.1439  -15.0189 N   0  0  0  0  0  0  0  0  0  0  0  0
   22.4023  -19.9279  -13.8191 C   0  0  0  0  0  0  0  0  0  0  0  0
   23.0573  -18.9897  -14.3518 O   0  0  0  0  0  0  0  0  0  0  0  0
   25.0008  -20.5781   -8.6348 N   0  0  0  0  0  0  0  0  0  0  0  0
   26.2318  -20.5902   -9.3289 C   0  0  0  0  0  0  0  0  0  0  0  0
   27.2954  -20.3062   -8.7502 O   0  0  0  0  0  0  0  0  0  0  0  0
   26.1738  -20.9615  -10.7850 C   0  0  0  0  0  0  0  0  0  0  0  0
   24.7567  -21.1939  -11.2193 C   0  0  0  0  0  0  0  0  0  0  0  0
   24.4900  -20.5699  -12.5398 C   0  0  2  0  0  0  0  0  0  0  0  0
   23.0880  -20.7795  -12.9416 N   0  0  0  0  0  0  0  0  0  0  0  0
   25.3884  -21.0233  -13.6258 C   0  0  0  0  0  0  0  0  0  0  0  0
   25.4517  -22.1840  -14.0891 O   0  0  0  0  0  0  0  0  0  0  0  0
   28.5399  -18.4522  -14.8108 C   0  0  0  0  0  0  0  0  0  0  0  0
   27.7555  -19.1677  -15.9068 C   0  0  2  0  0  0  0  0  0  0  0  0
   26.6788  -18.2281  -16.4133 C   0  0  0  0  0  0  0  0  0  0  0  0
   27.1151  -20.4296  -15.3645 C   0  0  2  0  0  0  0  0  0  0  0  0
   26.2826  -20.0828  -14.2296 N   0  0  0  0  0  0  0  0  0  0  0  0
   28.2042  -21.3338  -14.9236 C   0  0  0  0  0  0  0  0  0  0  0  0
   28.4595  -21.4538  -13.6869 O   0  0  0  0  0  0  0  0  0  0  0  0
   28.9776  -22.0714  -15.7876 O   0  0  0  0  0  0  0  0  0  0  0  0
  2  1  1  6
  3  2  1  0
  4  6  1  0
  4  2  1  0
  4  5  1  6
  6  7  2  0
  8  9  1  0
  9 11  1  0
 10  9  2  0
 11 12  1  0
 13 12  1  1
 14 13  1  0
 14  6  1  0
 15 21  1  0
 15 13  1  0
 16 15  2  0
 18 17  1  1
 19 18  1  0
 20 18  1  0
 20 21  1  1
 22 20  1  0
 22 24  1  0
 23 22  2  0
M  END
$$$$
