TQV.pdb
     RDKit          3D

 24 23  0  0  1  0  0  0  0  0999 V2000
   31.3003  -22.7945  -21.8414 C   0  0  0  0  0  0  0  0  0  0  0  0
   31.6204  -21.3334  -21.6110 C   0  0  1  0  0  0  0  0  0  0  0  0
   31.9267  -20.6748  -22.7902 O   0  0  0  0  0  0  0  0  0  0  0  0
   30.4988  -20.6563  -20.8420 C   0  0  2  0  0  0  0  0  0  0  0  0
   30.8615  -19.2674  -20.7012 N   0  0  0  0  0  0  0  0  0  0  0  0
   30.3211  -21.2648  -19.4987 C   0  0  0  0  0  0  0  0  0  0  0  0
   31.2176  -21.2159  -18.6118 O   0  0  0  0  0  0  0  0  0  0  0  0
   25.3327  -21.4338  -16.0854 N   0  0  0  0  0  0  0  0  0  0  0  0
   26.2258  -20.3701  -16.3467 C   0  0  0  0  0  0  0  0  0  0  0  0
   25.9193  -19.1958  -16.0747 O   0  0  0  0  0  0  0  0  0  0  0  0
   27.5458  -20.7426  -16.9633 C   0  0  0  0  0  0  0  0  0  0  0  0
   27.5741  -22.1991  -17.3220 C   0  0  0  0  0  0  0  0  0  0  0  0
   28.8922  -22.5892  -17.8827 C   0  0  2  0  0  0  0  0  0  0  0  0
   29.1261  -21.9230  -19.1760 N   0  0  0  0  0  0  0  0  0  0  0  0
   29.0863  -24.0489  -18.0364 C   0  0  0  0  0  0  0  0  0  0  0  0
   28.7194  -24.7389  -19.0136 O   0  0  0  0  0  0  0  0  0  0  0  0
   31.4725  -26.0035  -15.0812 C   0  0  0  0  0  0  0  0  0  0  0  0
   31.3874  -26.4843  -16.5269 C   0  0  2  0  0  0  0  0  0  0  0  0
   32.4400  -25.7519  -17.3357 C   0  0  0  0  0  0  0  0  0  0  0  0
   30.0147  -26.1988  -17.1019 C   0  0  2  0  0  0  0  0  0  0  0  0
   29.7487  -24.7776  -16.9976 N   0  0  0  0  0  0  0  0  0  0  0  0
   29.0232  -26.9500  -16.2951 C   0  0  0  0  0  0  0  0  0  0  0  0
   28.2505  -26.3246  -15.5073 O   0  0  0  0  0  0  0  0  0  0  0  0
   28.8803  -28.3160  -16.3442 O   0  0  0  0  0  0  0  0  0  0  0  0
  2  1  1  6
  3  2  1  0
  4  6  1  0
  4  2  1  0
  4  5  1  1
  6  7  2  0
  8  9  1  0
  9 11  1  0
 10  9  2  0
 11 12  1  0
 13 12  1  6
 14 13  1  0
 14  6  1  0
 15 21  1  0
 15 13  1  0
 16 15  2  0
 18 17  1  1
 19 18  1  0
 20 18  1  0
 20 21  1  1
 22 20  1  0
 22 24  1  0
 23 22  2  0
M  END
$$$$
