TQV.pdb
     RDKit          3D

 24 23  0  0  1  0  0  0  0  0999 V2000
   24.2648  -11.1273  -14.9417 C   0  0  0  0  0  0  0  0  0  0  0  0
   23.8294  -12.0059  -16.0944 C   0  0  1  0  0  0  0  0  0  0  0  0
   24.4466  -13.2454  -16.0670 O   0  0  0  0  0  0  0  0  0  0  0  0
   22.3147  -12.1123  -16.1415 C   0  0  2  0  0  0  0  0  0  0  0  0
   21.9840  -12.9331  -17.2806 N   0  0  0  0  0  0  0  0  0  0  0  0
   21.6838  -10.7757  -16.2890 C   0  0  0  0  0  0  0  0  0  0  0  0
   21.6757  -10.1506  -17.3854 O   0  0  0  0  0  0  0  0  0  0  0  0
   16.5146   -8.8737  -15.7576 N   0  0  0  0  0  0  0  0  0  0  0  0
   16.9742   -7.6123  -15.3158 C   0  0  0  0  0  0  0  0  0  0  0  0
   16.2492   -6.6046  -15.3915 O   0  0  0  0  0  0  0  0  0  0  0  0
   18.3703   -7.5680  -14.7587 C   0  0  0  0  0  0  0  0  0  0  0  0
   19.0070   -8.9256  -14.8083 C   0  0  0  0  0  0  0  0  0  0  0  0
   20.4196   -8.8408  -15.2570 C   0  0  2  0  0  0  0  0  0  0  0  0
   21.0681  -10.1621  -15.1891 N   0  0  0  0  0  0  0  0  0  0  0  0
   21.2387   -7.8499  -14.5225 C   0  0  0  0  0  0  0  0  0  0  0  0
   21.7444   -8.0116  -13.3895 O   0  0  0  0  0  0  0  0  0  0  0  0
   22.3417   -4.3699  -16.6567 C   0  0  0  0  0  0  0  0  0  0  0  0
   23.1700   -4.8723  -15.4778 C   0  0  2  0  0  0  0  0  0  0  0  0
   24.1953   -5.8589  -16.0015 C   0  0  0  0  0  0  0  0  0  0  0  0
   22.2821   -5.5556  -14.4573 C   0  0  2  0  0  0  0  0  0  0  0  0
   21.5012   -6.5783  -15.1249 N   0  0  0  0  0  0  0  0  0  0  0  0
   21.3747   -4.5290  -13.8905 C   0  0  0  0  0  0  0  0  0  0  0  0
   20.1537   -4.5112  -14.2334 O   0  0  0  0  0  0  0  0  0  0  0  0
   21.7780   -3.5687  -12.9939 O   0  0  0  0  0  0  0  0  0  0  0  0
  2  1  1  1
  3  2  1  0
  4  6  1  0
  4  2  1  0
  4  5  1  6
  6  7  2  0
  8  9  1  0
  9 11  1  0
 10  9  2  0
 11 12  1  0
 13 12  1  1
 14 13  1  0
 14  6  1  0
 15 21  1  0
 15 13  1  0
 16 15  2  0
 18 17  1  6
 19 18  1  0
 20 18  1  0
 20 21  1  6
 22 20  1  0
 22 24  1  0
 23 22  2  0
M  END
$$$$
