RCQ.pdb
     RDKit          3D

 27 26  0  0  1  0  0  0  0  0999 V2000
   29.1783  -20.7755  -11.9280 N   0  0  0  0  0  0  0  0  0  0  0  0
   27.9281  -21.3186  -12.3268 C   0  0  0  0  0  0  0  0  0  0  0  0
   26.9208  -21.3243  -11.5508 N   0  0  0  0  0  0  0  0  0  0  0  0
   27.8276  -21.8637  -13.6388 N   0  0  0  0  0  0  0  0  0  0  0  0
   28.9592  -21.9018  -14.5449 C   0  0  0  0  0  0  0  0  0  0  0  0
   28.7675  -20.7873  -15.5228 C   0  0  0  0  0  0  0  0  0  0  0  0
   27.6654  -20.9261  -16.4902 C   0  0  0  0  0  0  0  0  0  0  0  0
   26.5358  -19.9592  -16.3973 C   0  0  2  0  0  0  0  0  0  0  0  0
   26.8039  -18.8070  -15.5762 N   0  0  0  0  0  0  0  0  0  0  0  0
   25.2465  -20.6135  -16.0092 C   0  0  0  0  0  0  0  0  0  0  0  0
   24.8383  -21.5659  -16.7220 O   0  0  0  0  0  0  0  0  0  0  0  0
   26.0147  -21.6790  -11.8621 N   0  0  0  0  0  0  0  0  0  0  0  0
   24.4700  -20.2361  -14.9093 C   0  0  1  0  0  0  0  0  0  0  0  0
   23.1366  -20.7598  -14.6237 C   0  0  0  0  0  0  0  0  0  0  0  0
   23.2337  -21.1967  -13.1506 S   0  0  0  0  0  0  0  0  0  0  0  0
   23.9984  -19.9550  -12.1264 C   0  0  0  0  0  0  0  0  0  0  0  0
   22.1003  -19.7347  -14.8370 O   0  0  0  0  0  0  0  0  0  0  0  0
   22.3712  -18.5311  -14.6113 N   0  0  0  0  0  0  0  0  0  0  0  0
   18.2145  -19.1465  -19.5544 C   0  0  0  0  0  0  0  0  0  0  0  0
   17.7494  -18.1546  -18.6352 O   0  0  0  0  0  0  0  0  0  0  0  0
   16.9175  -17.3345  -19.0764 C   0  0  0  0  0  0  0  0  0  0  0  0
   18.2637  -18.1578  -17.2659 C   0  0  0  0  0  0  0  0  0  0  0  0
   19.2905  -19.1776  -16.9459 C   0  0  2  0  0  0  0  0  0  0  0  0
   19.7444  -19.1111  -15.5315 N   0  0  0  0  0  0  0  0  0  0  0  0
   20.8182  -20.0819  -15.2889 C   0  0  0  0  0  0  0  0  0  0  0  0
   18.6823  -19.2376  -14.5241 O   0  0  0  0  0  0  0  0  0  0  0  0
   17.9766  -18.1175  -14.1530 O   0  0  0  0  0  0  0  0  0  0  0  0
  2  1  1  0
  3  2  2  0
  4  2  1  0
  5  6  1  0
  5  4  1  0
  7  6  1  0
  8  7  1  0
  8  9  1  1
 10 11  2  0
 10  8  1  0
 12 10  1  0
 13 12  1  0
 14 15  1  0
 13 14  1  6
 16 13  1  0
 16 24  1  0
 17 16  2  0
 19 18  1  0
 19 20  2  0
 21 19  1  0
 22 21  1  0
 23 24  1  0
 23 22  1  6
 25 23  1  0
 26 25  1  0
 27 25  2  0
M  END
$$$$
