RCQ.pdb
     RDKit          3D

 27 26  0  0  1  0  0  0  0  0999 V2000
   19.2041  -22.1545   -9.9101 N   0  0  0  0  0  0  0  0  0  0  0  0
   17.9955  -21.9572  -10.6294 C   0  0  0  0  0  0  0  0  0  0  0  0
   17.9559  -21.2721  -11.6999 N   0  0  0  0  0  0  0  0  0  0  0  0
   16.8100  -22.5567  -10.1156 N   0  0  0  0  0  0  0  0  0  0  0  0
   16.8003  -23.2964   -8.8683 C   0  0  0  0  0  0  0  0  0  0  0  0
   16.6592  -24.7416   -9.2241 C   0  0  0  0  0  0  0  0  0  0  0  0
   16.6448  -25.7076   -8.1121 C   0  0  0  0  0  0  0  0  0  0  0  0
   17.7573  -25.6427   -7.1233 C   0  0  2  0  0  0  0  0  0  0  0  0
   19.0692  -25.8190   -7.6901 N   0  0  0  0  0  0  0  0  0  0  0  0
   17.5445  -26.5538   -5.9546 C   0  0  0  0  0  0  0  0  0  0  0  0
   17.5131  -27.7911   -6.1782 O   0  0  0  0  0  0  0  0  0  0  0  0
   17.0769  -21.1167  -12.1967 N   0  0  0  0  0  0  0  0  0  0  0  0
   17.3796  -26.1199   -4.6357 C   0  0  1  0  0  0  0  0  0  0  0  0
   17.2203  -27.0109   -3.4892 C   0  0  0  0  0  0  0  0  0  0  0  0
   18.6585  -27.4768   -3.1978 S   0  0  0  0  0  0  0  0  0  0  0  0
   19.7138  -26.1341   -2.6888 C   0  0  0  0  0  0  0  0  0  0  0  0
   16.6158  -26.3088   -2.3437 O   0  0  0  0  0  0  0  0  0  0  0  0
   16.9897  -25.1431   -2.0709 N   0  0  0  0  0  0  0  0  0  0  0  0
   13.0578  -28.5708   -2.2597 C   0  0  0  0  0  0  0  0  0  0  0  0
   12.4588  -27.2736   -2.3213 O   0  0  0  0  0  0  0  0  0  0  0  0
   11.7174  -27.0499   -3.3008 C   0  0  0  0  0  0  0  0  0  0  0  0
   12.7435  -26.3083   -1.2600 C   0  0  0  0  0  0  0  0  0  0  0  0
   13.6402  -26.7648   -0.1718 C   0  0  2  0  0  0  0  0  0  0  0  0
   15.0440  -26.3105   -0.3561 N   0  0  0  0  0  0  0  0  0  0  0  0
   15.6297  -26.9209   -1.5555 C   0  0  0  0  0  0  0  0  0  0  0  0
   15.9211  -26.4911    0.8089 O   0  0  0  0  0  0  0  0  0  0  0  0
   17.0978  -27.1860    0.6579 O   0  0  0  0  0  0  0  0  0  0  0  0
  2  1  1  0
  3  2  2  0
  4  2  1  0
  5  6  1  0
  5  4  1  0
  7  6  1  0
  8  7  1  0
  8  9  1  6
 10 11  2  0
 10  8  1  0
 12 10  1  0
 13 12  1  0
 14 15  1  0
 13 14  1  6
 16 13  1  0
 16 24  1  0
 17 16  2  0
 19 18  1  0
 19 20  2  0
 21 19  1  0
 22 21  1  0
 23 24  1  0
 23 22  1  6
 25 23  1  0
 26 25  1  0
 27 25  2  0
M  END
$$$$
