RCQ.pdb
     RDKit          3D

 27 26  0  0  1  0  0  0  0  0999 V2000
   29.3876  -17.6299  -18.5564 N   0  0  0  0  0  0  0  0  0  0  0  0
   27.9790  -17.6026  -18.7356 C   0  0  0  0  0  0  0  0  0  0  0  0
   27.4441  -17.7793  -19.8756 N   0  0  0  0  0  0  0  0  0  0  0  0
   27.1667  -17.3709  -17.5889 N   0  0  0  0  0  0  0  0  0  0  0  0
   27.7227  -17.3153  -16.2507 C   0  0  0  0  0  0  0  0  0  0  0  0
   28.0570  -18.7200  -15.8631 C   0  0  0  0  0  0  0  0  0  0  0  0
   27.0721  -19.4405  -15.0380 C   0  0  0  0  0  0  0  0  0  0  0  0
   27.4775  -20.7543  -14.4643 C   0  0  2  0  0  0  0  0  0  0  0  0
   27.8841  -21.7310  -15.4412 N   0  0  0  0  0  0  0  0  0  0  0  0
   26.4524  -21.3167  -13.5294 C   0  0  0  0  0  0  0  0  0  0  0  0
   25.6742  -22.1967  -13.9785 O   0  0  0  0  0  0  0  0  0  0  0  0
   26.4295  -17.7596  -19.9931 N   0  0  0  0  0  0  0  0  0  0  0  0
   26.3051  -20.9287  -12.1942 C   0  0  2  0  0  0  0  0  0  0  0  0
   25.0835  -21.1088  -11.4139 C   0  0  0  0  0  0  0  0  0  0  0  0
   25.4920  -20.6509  -10.0019 S   0  0  0  0  0  0  0  0  0  0  0  0
   27.1070  -21.2453   -9.5395 C   0  0  0  0  0  0  0  0  0  0  0  0
   23.9735  -20.3104  -11.9626 O   0  0  0  0  0  0  0  0  0  0  0  0
   24.2223  -19.2169  -12.5241 N   0  0  0  0  0  0  0  0  0  0  0  0
   22.3451  -20.3196  -16.8484 C   0  0  0  0  0  0  0  0  0  0  0  0
   22.0232  -21.5255  -16.1502 O   0  0  0  0  0  0  0  0  0  0  0  0
   22.0325  -22.5769  -16.8238 C   0  0  0  0  0  0  0  0  0  0  0  0
   21.7088  -21.4583  -14.7234 C   0  0  0  0  0  0  0  0  0  0  0  0
   21.8461  -20.1319  -14.0762 C   0  0  1  0  0  0  0  0  0  0  0  0
   21.5314  -20.1668  -12.6233 N   0  0  0  0  0  0  0  0  0  0  0  0
   22.6455  -20.7531  -11.8689 C   0  0  0  0  0  0  0  0  0  0  0  0
   20.2592  -20.8121  -12.2712 O   0  0  0  0  0  0  0  0  0  0  0  0
   19.0800  -20.2172  -12.6530 O   0  0  0  0  0  0  0  0  0  0  0  0
  2  1  1  0
  3  2  2  0
  4  2  1  0
  5  6  1  0
  5  4  1  0
  7  6  1  0
  8  7  1  0
  8  9  1  6
 10 11  2  0
 10  8  1  0
 12 10  1  0
 13 12  1  0
 14 15  1  0
 13 14  1  6
 16 13  1  0
 16 24  1  0
 17 16  2  0
 19 18  1  0
 19 20  2  0
 21 19  1  0
 22 21  1  0
 23 24  1  0
 23 22  1  1
 25 23  1  0
 26 25  1  0
 27 25  2  0
M  END
$$$$
