RCQ.pdb
     RDKit          3D

 27 26  0  0  1  0  0  0  0  0999 V2000
   25.8917  -21.8093  -10.6118 N   0  0  0  0  0  0  0  0  0  0  0  0
   26.1725  -22.8909  -11.4883 C   0  0  0  0  0  0  0  0  0  0  0  0
   26.1374  -24.0997  -11.0950 N   0  0  0  0  0  0  0  0  0  0  0  0
   26.4976  -22.5844  -12.8407 N   0  0  0  0  0  0  0  0  0  0  0  0
   26.1151  -21.3293  -13.4583 C   0  0  0  0  0  0  0  0  0  0  0  0
   24.8443  -20.8943  -12.8020 C   0  0  0  0  0  0  0  0  0  0  0  0
   24.2024  -19.6759  -13.3249 C   0  0  0  0  0  0  0  0  0  0  0  0
   24.1556  -19.4972  -14.8032 C   0  0  2  0  0  0  0  0  0  0  0  0
   25.2362  -20.1297  -15.5142 N   0  0  0  0  0  0  0  0  0  0  0  0
   24.0068  -18.0632  -15.2066 C   0  0  0  0  0  0  0  0  0  0  0  0
   23.1137  -17.3866  -14.6355 O   0  0  0  0  0  0  0  0  0  0  0  0
   26.4078  -24.8659  -11.7143 N   0  0  0  0  0  0  0  0  0  0  0  0
   24.7939  -17.4299  -16.1733 C   0  0  1  0  0  0  0  0  0  0  0  0
   24.6629  -16.0250  -16.5511 C   0  0  0  0  0  0  0  0  0  0  0  0
   26.1164  -15.5174  -16.5446 S   0  0  0  0  0  0  0  0  0  0  0  0
   26.6370  -14.9787  -14.9277 C   0  0  0  0  0  0  0  0  0  0  0  0
   24.0252  -15.8815  -17.8714 O   0  0  0  0  0  0  0  0  0  0  0  0
   24.4574  -16.5529  -18.8386 N   0  0  0  0  0  0  0  0  0  0  0  0
   18.4150  -12.9938  -18.5394 C   0  0  0  0  0  0  0  0  0  0  0  0
   18.6083  -14.3604  -18.1649 O   0  0  0  0  0  0  0  0  0  0  0  0
   17.6259  -14.9424  -17.6595 C   0  0  0  0  0  0  0  0  0  0  0  0
   19.9136  -14.9810  -18.3892 C   0  0  0  0  0  0  0  0  0  0  0  0
   20.9203  -14.1654  -19.1091 C   0  0  2  0  0  0  0  0  0  0  0  0
   22.2001  -14.8914  -19.3240 N   0  0  0  0  0  0  0  0  0  0  0  0
   22.9435  -15.0089  -18.0639 C   0  0  0  0  0  0  0  0  0  0  0  0
   23.0549  -14.3554  -20.3921 O   0  0  0  0  0  0  0  0  0  0  0  0
   22.9368  -14.8673  -21.6626 O   0  0  0  0  0  0  0  0  0  0  0  0
  2  1  1  0
  3  2  2  0
  4  2  1  0
  5  6  1  0
  5  4  1  0
  7  6  1  0
  8  7  1  0
  8  9  1  6
 10 11  2  0
 10  8  1  0
 12 10  1  0
 13 12  1  0
 14 15  1  0
 13 14  1  1
 16 13  1  0
 16 24  1  0
 17 16  2  0
 19 18  1  0
 19 20  2  0
 21 19  1  0
 22 21  1  0
 23 24  1  0
 23 22  1  1
 25 23  1  0
 26 25  1  0
 27 25  2  0
M  END
$$$$
