RCQ.pdb
     RDKit          3D

 27 26  0  0  1  0  0  0  0  0999 V2000
   27.4224  -21.9017  -11.6408 N   0  0  0  0  0  0  0  0  0  0  0  0
   26.0712  -22.1909  -11.9690 C   0  0  0  0  0  0  0  0  0  0  0  0
   25.6675  -23.3813  -12.1611 N   0  0  0  0  0  0  0  0  0  0  0  0
   25.1643  -21.0981  -12.0774 N   0  0  0  0  0  0  0  0  0  0  0  0
   23.7601  -21.2912  -12.3840 C   0  0  0  0  0  0  0  0  0  0  0  0
   23.6759  -21.6078  -13.8426 C   0  0  0  0  0  0  0  0  0  0  0  0
   22.9120  -20.6745  -14.6884 C   0  0  0  0  0  0  0  0  0  0  0  0
   23.6275  -20.0206  -15.8198 C   0  0  2  0  0  0  0  0  0  0  0  0
   25.0586  -20.1779  -15.7902 N   0  0  0  0  0  0  0  0  0  0  0  0
   23.2434  -18.5840  -15.9923 C   0  0  0  0  0  0  0  0  0  0  0  0
   23.7280  -17.7500  -15.1853 O   0  0  0  0  0  0  0  0  0  0  0  0
   26.3169  -24.1697  -12.1445 N   0  0  0  0  0  0  0  0  0  0  0  0
   22.3843  -18.1112  -16.9891 C   0  0  1  0  0  0  0  0  0  0  0  0
   21.9999  -16.7111  -17.1493 C   0  0  0  0  0  0  0  0  0  0  0  0
   22.8433  -16.2456  -18.3503 S   0  0  0  0  0  0  0  0  0  0  0  0
   22.8128  -17.4175  -19.6924 C   0  0  0  0  0  0  0  0  0  0  0  0
   20.5535  -16.5763  -17.3945 O   0  0  0  0  0  0  0  0  0  0  0  0
   19.9573  -17.4604  -18.0548 N   0  0  0  0  0  0  0  0  0  0  0  0
   16.7909  -11.8097  -15.1504 C   0  0  0  0  0  0  0  0  0  0  0  0
   15.9265  -12.6284  -15.9426 O   0  0  0  0  0  0  0  0  0  0  0  0
   14.7425  -12.2461  -16.0490 C   0  0  0  0  0  0  0  0  0  0  0  0
   16.4662  -13.8365  -16.5659 C   0  0  0  0  0  0  0  0  0  0  0  0
   17.9046  -14.1133  -16.3394 C   0  0  1  0  0  0  0  0  0  0  0  0
   18.4009  -15.2636  -17.1403 N   0  0  0  0  0  0  0  0  0  0  0  0
   19.8331  -15.4780  -16.9012 C   0  0  0  0  0  0  0  0  0  0  0  0
   18.1108  -15.1993  -18.5793 O   0  0  0  0  0  0  0  0  0  0  0  0
   16.9840  -15.8217  -19.0622 O   0  0  0  0  0  0  0  0  0  0  0  0
  2  1  1  0
  3  2  2  0
  4  2  1  0
  5  6  1  0
  5  4  1  0
  7  6  1  0
  8  7  1  0
  8  9  1  1
 10 11  2  0
 10  8  1  0
 12 10  1  0
 13 12  1  0
 14 15  1  0
 13 14  1  1
 16 13  1  0
 16 24  1  0
 17 16  2  0
 19 18  1  0
 19 20  2  0
 21 19  1  0
 22 21  1  0
 23 24  1  0
 23 22  1  1
 25 23  1  0
 26 25  1  0
 27 25  2  0
M  END
$$$$
