RCQ.pdb
     RDKit          3D

 27 26  0  0  1  0  0  0  0  0999 V2000
   26.6559  -21.8955  -11.6039 N   0  0  0  0  0  0  0  0  0  0  0  0
   25.6596  -21.2517  -10.8229 C   0  0  0  0  0  0  0  0  0  0  0  0
   25.9179  -20.7589   -9.6795 N   0  0  0  0  0  0  0  0  0  0  0  0
   24.3434  -21.1682  -11.3608 N   0  0  0  0  0  0  0  0  0  0  0  0
   23.9789  -21.8150  -12.6064 C   0  0  0  0  0  0  0  0  0  0  0  0
   22.5299  -21.5268  -12.8351 C   0  0  0  0  0  0  0  0  0  0  0  0
   22.1924  -20.2297  -13.4461 C   0  0  0  0  0  0  0  0  0  0  0  0
   22.7879  -19.9135  -14.7746 C   0  0  2  0  0  0  0  0  0  0  0  0
   23.6565  -20.9365  -15.2967 N   0  0  0  0  0  0  0  0  0  0  0  0
   23.4509  -18.5716  -14.8052 C   0  0  0  0  0  0  0  0  0  0  0  0
   22.7439  -17.5659  -14.5399 O   0  0  0  0  0  0  0  0  0  0  0  0
   25.2098  -20.2444   -9.1526 N   0  0  0  0  0  0  0  0  0  0  0  0
   24.8003  -18.3650  -15.1080 C   0  0  1  0  0  0  0  0  0  0  0  0
   25.3878  -17.0608  -15.4037 C   0  0  0  0  0  0  0  0  0  0  0  0
   26.7262  -17.0926  -14.6433 S   0  0  0  0  0  0  0  0  0  0  0  0
   27.2960  -18.7549  -14.3473 C   0  0  0  0  0  0  0  0  0  0  0  0
   25.5713  -16.8709  -16.8531 O   0  0  0  0  0  0  0  0  0  0  0  0
   26.0885  -17.7896  -17.5324 N   0  0  0  0  0  0  0  0  0  0  0  0
   22.7728  -12.0766  -19.9715 C   0  0  0  0  0  0  0  0  0  0  0  0
   24.1128  -11.8731  -19.5152 O   0  0  0  0  0  0  0  0  0  0  0  0
   24.5009  -10.6885  -19.4418 C   0  0  0  0  0  0  0  0  0  0  0  0
   24.9305  -13.0358  -19.1707 C   0  0  0  0  0  0  0  0  0  0  0  0
   24.2912  -14.3643  -19.3227 C   0  0  1  0  0  0  0  0  0  0  0  0
   25.1929  -15.4826  -18.9390 N   0  0  0  0  0  0  0  0  0  0  0  0
   25.1763  -15.6821  -17.4850 C   0  0  0  0  0  0  0  0  0  0  0  0
   26.5700  -15.3800  -19.4410 O   0  0  0  0  0  0  0  0  0  0  0  0
   27.5738  -15.0259  -18.5707 O   0  0  0  0  0  0  0  0  0  0  0  0
  2  1  1  0
  3  2  2  0
  4  2  1  0
  5  6  1  0
  5  4  1  0
  7  6  1  0
  8  7  1  0
  8  9  1  1
 10 11  2  0
 10  8  1  0
 12 10  1  0
 13 12  1  0
 14 15  1  0
 13 14  1  1
 16 13  1  0
 16 24  1  0
 17 16  2  0
 19 18  1  0
 19 20  2  0
 21 19  1  0
 22 21  1  0
 23 24  1  0
 23 22  1  6
 25 23  1  0
 26 25  1  0
 27 25  2  0
M  END
$$$$
