RCQ.pdb
     RDKit          3D

 27 26  0  0  1  0  0  0  0  0999 V2000
   14.9849  -27.3949  -12.1235 N   0  0  0  0  0  0  0  0  0  0  0  0
   14.9094  -26.7112  -10.8810 C   0  0  0  0  0  0  0  0  0  0  0  0
   14.7884  -27.3338   -9.7789 N   0  0  0  0  0  0  0  0  0  0  0  0
   14.9756  -25.2886  -10.8992 N   0  0  0  0  0  0  0  0  0  0  0  0
   14.7470  -24.5233  -12.1095 C   0  0  0  0  0  0  0  0  0  0  0  0
   16.0890  -24.0934  -12.6089 C   0  0  0  0  0  0  0  0  0  0  0  0
   16.4867  -22.6993  -12.3480 C   0  0  0  0  0  0  0  0  0  0  0  0
   17.5901  -22.4639  -11.3750 C   0  0  2  0  0  0  0  0  0  0  0  0
   17.1816  -22.4857   -9.9944 N   0  0  0  0  0  0  0  0  0  0  0  0
   18.3816  -21.2321  -11.6870 C   0  0  0  0  0  0  0  0  0  0  0  0
   17.7447  -20.1703  -11.9078 O   0  0  0  0  0  0  0  0  0  0  0  0
   14.7363  -26.8322   -8.8904 N   0  0  0  0  0  0  0  0  0  0  0  0
   19.7777  -21.1857  -11.7481 C   0  0  1  0  0  0  0  0  0  0  0  0
   20.5499  -19.9809  -12.0408 C   0  0  0  0  0  0  0  0  0  0  0  0
   21.4847  -19.8528  -10.8242 S   0  0  0  0  0  0  0  0  0  0  0  0
   20.5853  -19.7356   -9.2902 C   0  0  0  0  0  0  0  0  0  0  0  0
   21.2924  -20.1135  -13.3063 O   0  0  0  0  0  0  0  0  0  0  0  0
   21.5317  -21.2575  -13.7612 N   0  0  0  0  0  0  0  0  0  0  0  0
   17.8377  -19.6984  -17.1930 C   0  0  0  0  0  0  0  0  0  0  0  0
   18.9337  -19.3733  -18.0522 O   0  0  0  0  0  0  0  0  0  0  0  0
   18.6924  -19.3528  -19.2772 C   0  0  0  0  0  0  0  0  0  0  0  0
   20.2413  -19.0916  -17.4605 C   0  0  0  0  0  0  0  0  0  0  0  0
   20.3428  -19.2162  -15.9871 C   0  0  1  0  0  0  0  0  0  0  0  0
   21.6917  -18.8606  -15.4724 N   0  0  0  0  0  0  0  0  0  0  0  0
   21.7341  -18.9832  -14.0105 C   0  0  0  0  0  0  0  0  0  0  0  0
   22.2058  -17.5544  -15.9067 O   0  0  0  0  0  0  0  0  0  0  0  0
   23.0571  -17.4963  -16.9848 O   0  0  0  0  0  0  0  0  0  0  0  0
  2  1  1  0
  3  2  2  0
  4  2  1  0
  5  6  1  0
  5  4  1  0
  7  6  1  0
  8  7  1  0
  8  9  1  1
 10 11  2  0
 10  8  1  0
 12 10  1  0
 13 12  1  0
 14 15  1  0
 13 14  1  6
 16 13  1  0
 16 24  1  0
 17 16  2  0
 19 18  1  0
 19 20  2  0
 21 19  1  0
 22 21  1  0
 23 24  1  0
 23 22  1  6
 25 23  1  0
 26 25  1  0
 27 25  2  0
M  END
$$$$
