RCQ.pdb
     RDKit          3D

 27 26  0  0  1  0  0  0  0  0999 V2000
   16.7960  -23.0549  -13.8366 N   0  0  0  0  0  0  0  0  0  0  0  0
   17.2835  -23.7556  -12.7015 C   0  0  0  0  0  0  0  0  0  0  0  0
   16.9346  -24.9525  -12.4510 N   0  0  0  0  0  0  0  0  0  0  0  0
   18.1887  -23.0752  -11.8377 N   0  0  0  0  0  0  0  0  0  0  0  0
   18.5558  -21.6879  -12.0467 C   0  0  0  0  0  0  0  0  0  0  0  0
   19.8684  -21.6914  -12.7623 C   0  0  0  0  0  0  0  0  0  0  0  0
   20.8903  -20.7396  -12.2936 C   0  0  0  0  0  0  0  0  0  0  0  0
   21.9405  -21.2503  -11.3684 C   0  0  2  0  0  0  0  0  0  0  0  0
   21.5510  -21.2777   -9.9823 N   0  0  0  0  0  0  0  0  0  0  0  0
   23.2551  -20.5571  -11.5487 C   0  0  0  0  0  0  0  0  0  0  0  0
   23.3563  -19.3788  -11.1209 O   0  0  0  0  0  0  0  0  0  0  0  0
   17.3583  -25.4779  -11.6841 N   0  0  0  0  0  0  0  0  0  0  0  0
   24.3734  -21.1331  -12.1591 C   0  0  2  0  0  0  0  0  0  0  0  0
   25.6305  -20.4311  -12.4051 C   0  0  0  0  0  0  0  0  0  0  0  0
   26.6967  -21.5157  -12.1662 S   0  0  0  0  0  0  0  0  0  0  0  0
   27.0246  -21.7712  -10.4333 C   0  0  0  0  0  0  0  0  0  0  0  0
   25.6823  -19.8862  -13.7730 O   0  0  0  0  0  0  0  0  0  0  0  0
   25.1779  -20.5427  -14.7151 N   0  0  0  0  0  0  0  0  0  0  0  0
   27.6284  -13.9368  -15.4086 C   0  0  0  0  0  0  0  0  0  0  0  0
   27.4803  -14.6351  -16.6478 O   0  0  0  0  0  0  0  0  0  0  0  0
   27.7574  -13.9945  -17.6832 C   0  0  0  0  0  0  0  0  0  0  0  0
   27.0232  -16.0243  -16.6304 C   0  0  0  0  0  0  0  0  0  0  0  0
   26.8713  -16.6555  -15.2979 C   0  0  1  0  0  0  0  0  0  0  0  0
   26.4025  -18.0643  -15.3801 N   0  0  0  0  0  0  0  0  0  0  0  0
   26.2840  -18.6469  -14.0382 C   0  0  0  0  0  0  0  0  0  0  0  0
   27.1859  -18.9366  -16.2659 O   0  0  0  0  0  0  0  0  0  0  0  0
   26.8016  -19.0741  -17.5787 O   0  0  0  0  0  0  0  0  0  0  0  0
  2  1  1  0
  3  2  2  0
  4  2  1  0
  5  6  1  0
  5  4  1  0
  7  6  1  0
  8  7  1  0
  8  9  1  1
 10 11  2  0
 10  8  1  0
 12 10  1  0
 13 12  1  0
 14 15  1  0
 13 14  1  1
 16 13  1  0
 16 24  1  0
 17 16  2  0
 19 18  1  0
 19 20  2  0
 21 19  1  0
 22 21  1  0
 23 24  1  0
 23 22  1  1
 25 23  1  0
 26 25  1  0
 27 25  2  0
M  END
$$$$
