RCQ.pdb
     RDKit          3D

 27 26  0  0  1  0  0  0  0  0999 V2000
   25.1527  -24.4746  -15.0788 N   0  0  0  0  0  0  0  0  0  0  0  0
   26.2113  -24.4760  -16.0256 C   0  0  0  0  0  0  0  0  0  0  0  0
   27.2125  -25.2515  -15.9114 N   0  0  0  0  0  0  0  0  0  0  0  0
   26.1220  -23.5748  -17.1249 N   0  0  0  0  0  0  0  0  0  0  0  0
   25.2264  -22.4344  -17.1140 C   0  0  0  0  0  0  0  0  0  0  0  0
   25.1669  -21.9452  -15.7025 C   0  0  0  0  0  0  0  0  0  0  0  0
   24.3469  -20.7497  -15.4411 C   0  0  0  0  0  0  0  0  0  0  0  0
   24.4130  -19.6349  -16.4272 C   0  0  2  0  0  0  0  0  0  0  0  0
   25.4989  -19.7349  -17.3676 N   0  0  0  0  0  0  0  0  0  0  0  0
   24.3811  -18.2867  -15.7770 C   0  0  0  0  0  0  0  0  0  0  0  0
   23.5102  -18.0868  -14.8920 O   0  0  0  0  0  0  0  0  0  0  0  0
   27.9944  -25.2066  -16.5674 N   0  0  0  0  0  0  0  0  0  0  0  0
   25.2539  -17.2398  -16.0886 C   0  0  1  0  0  0  0  0  0  0  0  0
   25.1334  -15.8825  -15.5622 C   0  0  0  0  0  0  0  0  0  0  0  0
   26.5918  -15.4808  -15.2759 S   0  0  0  0  0  0  0  0  0  0  0  0
   27.7494  -16.7441  -15.7655 C   0  0  0  0  0  0  0  0  0  0  0  0
   24.4857  -14.9853  -16.5348 O   0  0  0  0  0  0  0  0  0  0  0  0
   24.3588  -15.3587  -17.7253 N   0  0  0  0  0  0  0  0  0  0  0  0
   20.4896  -16.6585  -16.4696 C   0  0  0  0  0  0  0  0  0  0  0  0
   20.1622  -15.6922  -17.4716 O   0  0  0  0  0  0  0  0  0  0  0  0
   19.4474  -16.0901  -18.4150 C   0  0  0  0  0  0  0  0  0  0  0  0
   20.6721  -14.3279  -17.3368 C   0  0  0  0  0  0  0  0  0  0  0  0
   21.6066  -14.0775  -16.2139 C   0  0  2  0  0  0  0  0  0  0  0  0
   22.7214  -13.1671  -16.5869 N   0  0  0  0  0  0  0  0  0  0  0  0
   24.0081  -13.7229  -16.1515 C   0  0  0  0  0  0  0  0  0  0  0  0
   22.5713  -11.7748  -16.1419 O   0  0  0  0  0  0  0  0  0  0  0  0
   21.7350  -10.9365  -16.8405 O   0  0  0  0  0  0  0  0  0  0  0  0
  2  1  1  0
  3  2  2  0
  4  2  1  0
  5  6  1  0
  5  4  1  0
  7  6  1  0
  8  7  1  0
  8  9  1  1
 10 11  2  0
 10  8  1  0
 12 10  1  0
 13 12  1  0
 14 15  1  0
 13 14  1  1
 16 13  1  0
 16 24  1  0
 17 16  2  0
 19 18  1  0
 19 20  2  0
 21 19  1  0
 22 21  1  0
 23 24  1  0
 23 22  1  6
 25 23  1  0
 26 25  1  0
 27 25  2  0
M  END
$$$$
