RCQ.pdb
     RDKit          3D

 27 26  0  0  1  0  0  0  0  0999 V2000
   26.9889  -25.8903  -16.1251 N   0  0  0  0  0  0  0  0  0  0  0  0
   27.9665  -24.9196  -16.4702 C   0  0  0  0  0  0  0  0  0  0  0  0
   29.1903  -25.0578  -16.1537 N   0  0  0  0  0  0  0  0  0  0  0  0
   27.5365  -23.7700  -17.1929 N   0  0  0  0  0  0  0  0  0  0  0  0
   26.1419  -23.5437  -17.5193 C   0  0  0  0  0  0  0  0  0  0  0  0
   25.5606  -22.7420  -16.3993 C   0  0  0  0  0  0  0  0  0  0  0  0
   24.2888  -23.2148  -15.8257 C   0  0  0  0  0  0  0  0  0  0  0  0
   23.0374  -22.5311  -16.2571 C   0  0  2  0  0  0  0  0  0  0  0  0
   23.2476  -21.3607  -17.0693 N   0  0  0  0  0  0  0  0  0  0  0  0
   22.1157  -22.2394  -15.1140 C   0  0  0  0  0  0  0  0  0  0  0  0
   21.8363  -23.1859  -14.3344 O   0  0  0  0  0  0  0  0  0  0  0  0
   29.8978  -24.3930  -16.4720 N   0  0  0  0  0  0  0  0  0  0  0  0
   21.5480  -20.9876  -14.8579 C   0  0  1  0  0  0  0  0  0  0  0  0
   20.6298  -20.7092  -13.7565 C   0  0  0  0  0  0  0  0  0  0  0  0
   21.0237  -19.2879  -13.3151 S   0  0  0  0  0  0  0  0  0  0  0  0
   20.8287  -18.0950  -14.6245 C   0  0  0  0  0  0  0  0  0  0  0  0
   19.2256  -20.7908  -14.1948 O   0  0  0  0  0  0  0  0  0  0  0  0
   18.9478  -20.6077  -15.4040 N   0  0  0  0  0  0  0  0  0  0  0  0
   13.4605  -24.1724  -12.3604 C   0  0  0  0  0  0  0  0  0  0  0  0
   14.0644  -22.8767  -12.4013 O   0  0  0  0  0  0  0  0  0  0  0  0
   13.2899  -21.9067  -12.5374 C   0  0  0  0  0  0  0  0  0  0  0  0
   15.5182  -22.7662  -12.2852 C   0  0  0  0  0  0  0  0  0  0  0  0
   16.2669  -22.5232  -13.5410 C   0  0  1  0  0  0  0  0  0  0  0  0
   16.7750  -21.1297  -13.6460 N   0  0  0  0  0  0  0  0  0  0  0  0
   18.1961  -21.0708  -13.2836 C   0  0  0  0  0  0  0  0  0  0  0  0
   16.0011  -20.1214  -12.9087 O   0  0  0  0  0  0  0  0  0  0  0  0
   14.8114  -19.6762  -13.4348 O   0  0  0  0  0  0  0  0  0  0  0  0
  2  1  1  0
  3  2  2  0
  4  2  1  0
  5  6  1  0
  5  4  1  0
  7  6  1  0
  8  7  1  0
  8  9  1  1
 10 11  2  0
 10  8  1  0
 12 10  1  0
 13 12  1  0
 14 15  1  0
 13 14  1  1
 16 13  1  0
 16 24  1  0
 17 16  2  0
 19 18  1  0
 19 20  2  0
 21 19  1  0
 22 21  1  0
 23 24  1  0
 23 22  1  6
 25 23  1  0
 26 25  1  0
 27 25  2  0
M  END
$$$$
