KKE.pdb
     RDKit          3D

 28 27  0  0  1  0  0  0  0  0999 V2000
   26.2974  -22.3462  -18.7238 N   0  0  0  0  0  0  0  0  0  0  0  0
   24.9184  -22.2210  -19.1242 C   0  0  1  0  0  0  0  0  0  0  0  0
   24.4184  -23.3388  -19.9693 C   0  0  0  0  0  0  0  0  0  0  0  0
   25.4075  -24.4362  -20.1016 C   0  0  0  0  0  0  0  0  0  0  0  0
   25.0569  -25.7379  -19.4749 C   0  0  0  0  0  0  0  0  0  0  0  0
   26.0881  -26.8160  -19.7082 C   0  0  0  0  0  0  0  0  0  0  0  0
   25.7281  -28.0118  -18.9728 N   0  0  0  0  0  0  0  0  0  0  0  0
   24.0336  -21.9894  -17.9281 C   0  0  0  0  0  0  0  0  0  0  0  0
   23.1019  -22.7883  -17.6582 O   0  0  0  0  0  0  0  0  0  0  0  0
   24.2355  -20.8755  -17.0950 N   0  0  0  0  0  0  0  0  0  0  0  0
   23.4951  -20.5829  -15.8849 C   0  0  1  0  0  0  0  0  0  0  0  0
   24.3376  -19.6670  -15.0479 C   0  0  0  0  0  0  0  0  0  0  0  0
   25.4386  -20.4387  -14.3948 C   0  0  0  0  0  0  0  0  0  0  0  0
   24.8963  -21.3115  -13.3106 C   0  0  0  0  0  0  0  0  0  0  0  0
   25.9743  -22.1522  -12.6762 C   0  0  0  0  0  0  0  0  0  0  0  0
   25.4822  -22.9199  -11.5530 N   0  0  0  0  0  0  0  0  0  0  0  0
   22.2686  -19.8131  -16.2739 C   0  0  0  0  0  0  0  0  0  0  0  0
   22.4132  -18.7648  -16.9334 O   0  0  0  0  0  0  0  0  0  0  0  0
   21.0125  -20.3264  -15.8666 N   0  0  0  0  0  0  0  0  0  0  0  0
   19.8147  -19.5847  -16.2999 C   0  0  1  0  0  0  0  0  0  0  0  0
   19.2899  -20.3009  -17.4835 C   0  0  0  0  0  0  0  0  0  0  0  0
   18.0404  -19.7454  -18.0839 C   0  0  0  0  0  0  0  0  0  0  0  0
   17.5034  -20.6854  -19.0866 C   0  0  0  0  0  0  0  0  0  0  0  0
   16.4687  -20.3619  -19.7450 O   0  0  0  0  0  0  0  0  0  0  0  0
   18.9753  -19.2776  -15.1744 C   0  0  0  0  0  0  0  0  0  0  0  0
   19.1175  -19.9339  -14.0976 O   0  0  0  0  0  0  0  0  0  0  0  0
   18.0568  -21.9241  -19.3696 O   0  0  0  0  0  0  0  0  0  0  0  0
   17.9842  -18.2943  -15.1213 O   0  0  0  0  0  0  0  0  0  0  0  0
  2  1  1  1
  3  4  1  0
  3  2  1  0
  4  5  1  0
  6  5  1  0
  7  6  1  0
  8  2  1  0
  8  9  2  0
 10  8  1  0
 11 10  1  0
 11 12  1  1
 13 12  1  0
 14 13  1  0
 15 14  1  0
 16 15  1  0
 17 11  1  0
 18 17  2  0
 19 17  1  0
 20 21  1  6
 20 19  1  0
 22 21  1  0
 23 22  1  0
 23 24  2  0
 25 20  1  0
 26 25  2  0
 27 23  1  0
 28 25  1  0
M  END
$$$$
