KKE.pdb
     RDKit          3D

 28 27  0  0  1  0  0  0  0  0999 V2000
   24.4965  -16.5159  -17.2994 N   0  0  0  0  0  0  0  0  0  0  0  0
   24.2526  -16.3005  -15.8952 C   0  0  1  0  0  0  0  0  0  0  0  0
   24.6258  -17.4460  -15.0222 C   0  0  0  0  0  0  0  0  0  0  0  0
   23.9323  -18.7001  -15.4047 C   0  0  0  0  0  0  0  0  0  0  0  0
   22.7490  -19.0895  -14.5935 C   0  0  0  0  0  0  0  0  0  0  0  0
   22.0985  -20.3721  -15.0540 C   0  0  0  0  0  0  0  0  0  0  0  0
   21.0629  -20.7645  -14.1192 N   0  0  0  0  0  0  0  0  0  0  0  0
   24.8912  -15.0177  -15.4326 C   0  0  0  0  0  0  0  0  0  0  0  0
   24.8552  -14.6867  -14.2209 O   0  0  0  0  0  0  0  0  0  0  0  0
   25.5372  -14.1701  -16.3491 N   0  0  0  0  0  0  0  0  0  0  0  0
   26.0215  -12.8349  -16.0653 C   0  0  1  0  0  0  0  0  0  0  0  0
   27.2354  -12.6025  -16.9148 C   0  0  0  0  0  0  0  0  0  0  0  0
   27.8119  -11.2541  -16.6254 C   0  0  0  0  0  0  0  0  0  0  0  0
   29.0467  -11.0265  -17.4347 C   0  0  0  0  0  0  0  0  0  0  0  0
   29.6554   -9.6754  -17.1602 C   0  0  0  0  0  0  0  0  0  0  0  0
   30.8039   -9.4099  -17.9990 N   0  0  0  0  0  0  0  0  0  0  0  0
   24.9762  -11.8622  -16.5234 C   0  0  0  0  0  0  0  0  0  0  0  0
   24.6820  -11.8377  -17.7348 O   0  0  0  0  0  0  0  0  0  0  0  0
   24.3827  -11.0253  -15.5464 N   0  0  0  0  0  0  0  0  0  0  0  0
   23.4191  -10.0178  -16.0252 C   0  0  1  0  0  0  0  0  0  0  0  0
   22.0920  -10.4466  -15.5313 C   0  0  0  0  0  0  0  0  0  0  0  0
   21.6568  -11.8183  -15.9307 C   0  0  0  0  0  0  0  0  0  0  0  0
   20.3011  -12.0863  -15.4133 C   0  0  0  0  0  0  0  0  0  0  0  0
   20.1276  -12.1938  -14.1615 O   0  0  0  0  0  0  0  0  0  0  0  0
   23.9159   -8.6901  -15.7884 C   0  0  0  0  0  0  0  0  0  0  0  0
   23.2379   -7.6942  -16.1871 O   0  0  0  0  0  0  0  0  0  0  0  0
   19.1769  -12.2330  -16.2104 O   0  0  0  0  0  0  0  0  0  0  0  0
   25.1041   -8.3520  -15.1359 O   0  0  0  0  0  0  0  0  0  0  0  0
  2  1  1  6
  3  4  1  0
  3  2  1  0
  4  5  1  0
  6  5  1  0
  7  6  1  0
  8  2  1  0
  8  9  2  0
 10  8  1  0
 11 10  1  0
 11 12  1  6
 13 12  1  0
 14 13  1  0
 15 14  1  0
 16 15  1  0
 17 11  1  0
 18 17  2  0
 19 17  1  0
 20 21  1  1
 20 19  1  0
 22 21  1  0
 23 22  1  0
 23 24  2  0
 25 20  1  0
 26 25  2  0
 27 23  1  0
 28 25  1  0
M  END
$$$$
