KKE.pdb
     RDKit          3D

 28 27  0  0  1  0  0  0  0  0999 V2000
   25.8655  -21.7784  -13.5172 N   0  0  0  0  0  0  0  0  0  0  0  0
   24.8394  -21.8705  -14.5253 C   0  0  1  0  0  0  0  0  0  0  0  0
   24.1955  -23.2077  -14.6286 C   0  0  0  0  0  0  0  0  0  0  0  0
   24.9194  -24.1162  -15.5510 C   0  0  0  0  0  0  0  0  0  0  0  0
   26.3519  -23.8131  -15.8079 C   0  0  0  0  0  0  0  0  0  0  0  0
   27.0130  -24.7857  -16.7551 C   0  0  0  0  0  0  0  0  0  0  0  0
   28.4456  -24.5669  -16.7680 N   0  0  0  0  0  0  0  0  0  0  0  0
   23.8211  -20.7748  -14.3528 C   0  0  0  0  0  0  0  0  0  0  0  0
   23.2560  -20.5962  -13.2448 O   0  0  0  0  0  0  0  0  0  0  0  0
   23.4861  -19.9349  -15.4289 N   0  0  0  0  0  0  0  0  0  0  0  0
   22.5343  -18.8440  -15.3820 C   0  0  1  0  0  0  0  0  0  0  0  0
   22.8153  -17.9462  -16.5499 C   0  0  0  0  0  0  0  0  0  0  0  0
   21.8872  -16.7747  -16.5297 C   0  0  0  0  0  0  0  0  0  0  0  0
   22.6534  -15.4962  -16.6278 C   0  0  0  0  0  0  0  0  0  0  0  0
   21.7451  -14.2942  -16.5889 C   0  0  0  0  0  0  0  0  0  0  0  0
   22.4378  -13.0712  -16.9320 N   0  0  0  0  0  0  0  0  0  0  0  0
   21.1666  -19.4209  -15.5947 C   0  0  0  0  0  0  0  0  0  0  0  0
   21.0534  -20.4136  -16.3406 O   0  0  0  0  0  0  0  0  0  0  0  0
   20.0798  -18.7996  -14.9315 N   0  0  0  0  0  0  0  0  0  0  0  0
   18.7510  -19.4133  -15.1057 C   0  0  1  0  0  0  0  0  0  0  0  0
   17.9615  -19.0371  -13.9122 C   0  0  0  0  0  0  0  0  0  0  0  0
   17.2668  -17.7166  -13.9764 C   0  0  0  0  0  0  0  0  0  0  0  0
   16.4105  -17.5407  -12.7877 C   0  0  0  0  0  0  0  0  0  0  0  0
   16.9228  -17.0906  -11.7183 O   0  0  0  0  0  0  0  0  0  0  0  0
   18.2579  -19.1828  -16.4359 C   0  0  0  0  0  0  0  0  0  0  0  0
   18.6593  -18.1646  -17.0782 O   0  0  0  0  0  0  0  0  0  0  0  0
   15.0572  -17.8371  -12.7505 O   0  0  0  0  0  0  0  0  0  0  0  0
   17.3563  -19.9864  -17.1382 O   0  0  0  0  0  0  0  0  0  0  0  0
  2  1  1  1
  3  4  1  0
  3  2  1  0
  4  5  1  0
  6  5  1  0
  7  6  1  0
  8  2  1  0
  8  9  2  0
 10  8  1  0
 11 10  1  0
 11 12  1  6
 13 12  1  0
 14 13  1  0
 15 14  1  0
 16 15  1  0
 17 11  1  0
 18 17  2  0
 19 17  1  0
 20 21  1  1
 20 19  1  0
 22 21  1  0
 23 22  1  0
 23 24  2  0
 25 20  1  0
 26 25  2  0
 27 23  1  0
 28 25  1  0
M  END
$$$$
