KKE.pdb
     RDKit          3D

 28 27  0  0  1  0  0  0  0  0999 V2000
   24.7286  -20.7723   -7.7355 N   0  0  0  0  0  0  0  0  0  0  0  0
   23.6241  -20.7384   -8.6609 C   0  0  1  0  0  0  0  0  0  0  0  0
   22.4068  -20.0578   -8.1427 C   0  0  0  0  0  0  0  0  0  0  0  0
   21.1777  -20.8636   -8.3432 C   0  0  0  0  0  0  0  0  0  0  0  0
   21.1179  -22.1820   -7.6589 C   0  0  0  0  0  0  0  0  0  0  0  0
   19.8641  -22.9648   -7.9680 C   0  0  0  0  0  0  0  0  0  0  0  0
   19.9122  -24.2552   -7.3101 N   0  0  0  0  0  0  0  0  0  0  0  0
   24.0557  -20.1717   -9.9875 C   0  0  0  0  0  0  0  0  0  0  0  0
   24.5681  -19.0264  -10.0569 O   0  0  0  0  0  0  0  0  0  0  0  0
   23.8916  -20.9146  -11.1693 N   0  0  0  0  0  0  0  0  0  0  0  0
   24.2285  -20.4617  -12.5032 C   0  0  1  0  0  0  0  0  0  0  0  0
   24.9651  -21.5744  -13.1877 C   0  0  0  0  0  0  0  0  0  0  0  0
   25.4189  -21.1311  -14.5411 C   0  0  0  0  0  0  0  0  0  0  0  0
   26.1679  -22.2257  -15.2282 C   0  0  0  0  0  0  0  0  0  0  0  0
   26.7324  -21.7740  -16.5506 C   0  0  0  0  0  0  0  0  0  0  0  0
   27.5480  -22.7923  -17.1760 N   0  0  0  0  0  0  0  0  0  0  0  0
   22.9469  -20.2601  -13.2551 C   0  0  0  0  0  0  0  0  0  0  0  0
   22.0369  -21.0997  -13.1079 O   0  0  0  0  0  0  0  0  0  0  0  0
   22.8468  -19.1213  -14.0919 N   0  0  0  0  0  0  0  0  0  0  0  0
   21.5942  -18.9574  -14.8513 C   0  0  1  0  0  0  0  0  0  0  0  0
   21.7692  -17.7457  -15.6821 C   0  0  0  0  0  0  0  0  0  0  0  0
   20.6145  -17.3781  -16.5550 C   0  0  0  0  0  0  0  0  0  0  0  0
   20.9089  -16.1255  -17.2773 C   0  0  0  0  0  0  0  0  0  0  0  0
   21.3157  -15.1169  -16.6247 O   0  0  0  0  0  0  0  0  0  0  0  0
   21.1834  -20.2092  -15.4256 C   0  0  0  0  0  0  0  0  0  0  0  0
   20.0007  -20.6242  -15.2266 O   0  0  0  0  0  0  0  0  0  0  0  0
   20.7711  -15.9640  -18.6469 O   0  0  0  0  0  0  0  0  0  0  0  0
   21.9634  -21.0553  -16.2177 O   0  0  0  0  0  0  0  0  0  0  0  0
  2  1  1  1
  3  4  1  0
  3  2  1  0
  4  5  1  0
  6  5  1  0
  7  6  1  0
  8  2  1  0
  8  9  2  0
 10  8  1  0
 11 10  1  0
 11 12  1  6
 13 12  1  0
 14 13  1  0
 15 14  1  0
 16 15  1  0
 17 11  1  0
 18 17  2  0
 19 17  1  0
 20 21  1  6
 20 19  1  0
 22 21  1  0
 23 22  1  0
 23 24  2  0
 25 20  1  0
 26 25  2  0
 27 23  1  0
 28 25  1  0
M  END
$$$$
