KKE.pdb
     RDKit          3D

 28 27  0  0  1  0  0  0  0  0999 V2000
   25.2408  -32.9190  -13.5483 N   0  0  0  0  0  0  0  0  0  0  0  0
   26.3450  -33.8384  -13.6629 C   0  0  1  0  0  0  0  0  0  0  0  0
   27.4326  -33.3848  -14.5712 C   0  0  0  0  0  0  0  0  0  0  0  0
   26.9744  -33.2349  -15.9741 C   0  0  0  0  0  0  0  0  0  0  0  0
   26.5337  -34.4702  -16.6740 C   0  0  0  0  0  0  0  0  0  0  0  0
   26.1150  -34.2346  -18.1055 C   0  0  0  0  0  0  0  0  0  0  0  0
   25.6659  -35.4777  -18.7001 N   0  0  0  0  0  0  0  0  0  0  0  0
   26.8748  -34.2094  -12.3032 C   0  0  0  0  0  0  0  0  0  0  0  0
   27.8645  -34.9754  -12.1902 O   0  0  0  0  0  0  0  0  0  0  0  0
   26.2701  -33.7052  -11.1388 N   0  0  0  0  0  0  0  0  0  0  0  0
   26.6775  -34.0027   -9.7811 C   0  0  1  0  0  0  0  0  0  0  0  0
   26.1029  -32.9404   -8.8919 C   0  0  0  0  0  0  0  0  0  0  0  0
   26.4374  -33.2318   -7.4645 C   0  0  0  0  0  0  0  0  0  0  0  0
   25.8804  -32.1744   -6.5684 C   0  0  0  0  0  0  0  0  0  0  0  0
   26.0854  -32.5082   -5.1131 C   0  0  0  0  0  0  0  0  0  0  0  0
   25.4449  -31.5531   -4.2352 N   0  0  0  0  0  0  0  0  0  0  0  0
   26.0348  -35.2981   -9.3841 C   0  0  0  0  0  0  0  0  0  0  0  0
   24.9169  -35.5741   -9.8622 O   0  0  0  0  0  0  0  0  0  0  0  0
   26.7408  -36.1347   -8.4848 N   0  0  0  0  0  0  0  0  0  0  0  0
   26.1328  -37.4395   -8.1680 C   0  0  1  0  0  0  0  0  0  0  0  0
   27.2358  -38.4256   -8.1866 C   0  0  0  0  0  0  0  0  0  0  0  0
   26.8505  -39.8438   -7.9203 C   0  0  0  0  0  0  0  0  0  0  0  0
   28.0526  -40.6417   -7.6109 C   0  0  0  0  0  0  0  0  0  0  0  0
   28.4186  -40.7643   -6.4027 O   0  0  0  0  0  0  0  0  0  0  0  0
   25.2467  -37.3247   -7.0423 C   0  0  0  0  0  0  0  0  0  0  0  0
   25.2145  -36.2386   -6.3868 O   0  0  0  0  0  0  0  0  0  0  0  0
   28.8300  -41.2821   -8.5629 O   0  0  0  0  0  0  0  0  0  0  0  0
   24.3732  -38.3072   -6.5694 O   0  0  0  0  0  0  0  0  0  0  0  0
  2  1  1  1
  3  4  1  0
  3  2  1  0
  4  5  1  0
  6  5  1  0
  7  6  1  0
  8  2  1  0
  8  9  2  0
 10  8  1  0
 11 10  1  0
 11 12  1  1
 13 12  1  0
 14 13  1  0
 15 14  1  0
 16 15  1  0
 17 11  1  0
 18 17  2  0
 19 17  1  0
 20 21  1  1
 20 19  1  0
 22 21  1  0
 23 22  1  0
 23 24  2  0
 25 20  1  0
 26 25  2  0
 27 23  1  0
 28 25  1  0
M  END
$$$$
