KKE.pdb
     RDKit          3D

 28 27  0  0  1  0  0  0  0  0999 V2000
   19.6480  -17.2856  -14.8824 N   0  0  0  0  0  0  0  0  0  0  0  0
   19.0307  -16.4858  -15.9103 C   0  0  1  0  0  0  0  0  0  0  0  0
   17.5906  -16.1914  -15.6803 C   0  0  0  0  0  0  0  0  0  0  0  0
   16.7527  -17.4153  -15.6913 C   0  0  0  0  0  0  0  0  0  0  0  0
   16.6762  -18.1903  -14.4250 C   0  0  0  0  0  0  0  0  0  0  0  0
   15.6834  -19.3271  -14.4735 C   0  0  0  0  0  0  0  0  0  0  0  0
   15.5606  -19.9324  -13.1625 N   0  0  0  0  0  0  0  0  0  0  0  0
   19.8225  -15.2291  -16.1573 C   0  0  0  0  0  0  0  0  0  0  0  0
   20.0461  -14.4205  -15.2217 O   0  0  0  0  0  0  0  0  0  0  0  0
   20.3236  -14.9404  -17.4384 N   0  0  0  0  0  0  0  0  0  0  0  0
   21.1740  -13.8180  -17.7775 C   0  0  1  0  0  0  0  0  0  0  0  0
   21.9736  -14.2036  -18.9863 C   0  0  0  0  0  0  0  0  0  0  0  0
   22.8336  -13.0595  -19.4172 C   0  0  0  0  0  0  0  0  0  0  0  0
   23.7078  -13.4613  -20.5599 C   0  0  0  0  0  0  0  0  0  0  0  0
   24.6103  -12.3364  -20.9975 C   0  0  0  0  0  0  0  0  0  0  0  0
   25.3974  -12.6845  -22.1604 N   0  0  0  0  0  0  0  0  0  0  0  0
   20.2877  -12.6796  -18.1861 C   0  0  0  0  0  0  0  0  0  0  0  0
   19.3390  -12.9173  -18.9595 O   0  0  0  0  0  0  0  0  0  0  0  0
   20.5834  -11.3956  -17.6656 N   0  0  0  0  0  0  0  0  0  0  0  0
   19.7350  -10.2787  -18.1188 C   0  0  1  0  0  0  0  0  0  0  0  0
   18.5648  -10.2539  -17.2138 C   0  0  0  0  0  0  0  0  0  0  0  0
   18.7355   -9.4867  -15.9439 C   0  0  0  0  0  0  0  0  0  0  0  0
   17.4648   -9.4662  -15.1941 C   0  0  0  0  0  0  0  0  0  0  0  0
   16.6848   -8.4749  -15.3269 O   0  0  0  0  0  0  0  0  0  0  0  0
   20.5285   -9.1035  -18.3531 C   0  0  0  0  0  0  0  0  0  0  0  0
   21.7940   -9.1982  -18.3455 O   0  0  0  0  0  0  0  0  0  0  0  0
   17.0495  -10.4718  -14.3355 O   0  0  0  0  0  0  0  0  0  0  0  0
   20.0504   -7.8156  -18.6071 O   0  0  0  0  0  0  0  0  0  0  0  0
  2  1  1  1
  3  4  1  0
  3  2  1  0
  4  5  1  0
  6  5  1  0
  7  6  1  0
  8  2  1  0
  8  9  2  0
 10  8  1  0
 11 10  1  0
 11 12  1  6
 13 12  1  0
 14 13  1  0
 15 14  1  0
 16 15  1  0
 17 11  1  0
 18 17  2  0
 19 17  1  0
 20 21  1  1
 20 19  1  0
 22 21  1  0
 23 22  1  0
 23 24  2  0
 25 20  1  0
 26 25  2  0
 27 23  1  0
 28 25  1  0
M  END
$$$$
