KKE.pdb
     RDKit          3D

 28 27  0  0  1  0  0  0  0  0999 V2000
   31.2021  -22.4935  -17.4017 N   0  0  0  0  0  0  0  0  0  0  0  0
   30.0558  -22.9984  -18.1149 C   0  0  1  0  0  0  0  0  0  0  0  0
   30.3676  -23.5839  -19.4466 C   0  0  0  0  0  0  0  0  0  0  0  0
   31.0263  -22.6122  -20.3533 C   0  0  0  0  0  0  0  0  0  0  0  0
   32.5098  -22.6654  -20.4339 C   0  0  0  0  0  0  0  0  0  0  0  0
   33.0929  -21.7060  -21.4438 C   0  0  0  0  0  0  0  0  0  0  0  0
   34.5330  -21.8594  -21.4969 N   0  0  0  0  0  0  0  0  0  0  0  0
   29.2715  -23.9552  -17.2567 C   0  0  0  0  0  0  0  0  0  0  0  0
   29.8403  -24.6147  -16.3509 O   0  0  0  0  0  0  0  0  0  0  0  0
   27.8906  -24.1262  -17.4558 N   0  0  0  0  0  0  0  0  0  0  0  0
   27.0108  -24.9193  -16.6221 C   0  0  1  0  0  0  0  0  0  0  0  0
   25.7460  -24.1377  -16.4252 C   0  0  0  0  0  0  0  0  0  0  0  0
   24.7667  -24.9407  -15.6311 C   0  0  0  0  0  0  0  0  0  0  0  0
   23.4839  -24.1927  -15.4687 C   0  0  0  0  0  0  0  0  0  0  0  0
   22.5191  -24.9236  -14.5708 C   0  0  0  0  0  0  0  0  0  0  0  0
   21.2195  -24.2891  -14.5293 N   0  0  0  0  0  0  0  0  0  0  0  0
   26.6448  -26.1548  -17.3890 C   0  0  0  0  0  0  0  0  0  0  0  0
   26.3422  -26.0353  -18.5927 O   0  0  0  0  0  0  0  0  0  0  0  0
   26.6652  -27.3901  -16.6957 N   0  0  0  0  0  0  0  0  0  0  0  0
   26.5352  -28.6142  -17.5065 C   0  0  1  0  0  0  0  0  0  0  0  0
   27.5859  -29.5403  -17.0294 C   0  0  0  0  0  0  0  0  0  0  0  0
   27.6112  -30.8883  -17.6718 C   0  0  0  0  0  0  0  0  0  0  0  0
   28.6734  -31.7141  -17.0658 C   0  0  0  0  0  0  0  0  0  0  0  0
   29.8602  -31.2680  -17.0334 O   0  0  0  0  0  0  0  0  0  0  0  0
   25.1592  -29.0198  -17.5931 C   0  0  0  0  0  0  0  0  0  0  0  0
   24.3521  -28.6740  -16.6769 O   0  0  0  0  0  0  0  0  0  0  0  0
   28.4673  -32.9699  -16.5167 O   0  0  0  0  0  0  0  0  0  0  0  0
   24.5787  -29.7753  -18.6150 O   0  0  0  0  0  0  0  0  0  0  0  0
  2  1  1  1
  3  4  1  0
  3  2  1  0
  4  5  1  0
  6  5  1  0
  7  6  1  0
  8  2  1  0
  8  9  2  0
 10  8  1  0
 11 10  1  0
 11 12  1  6
 13 12  1  0
 14 13  1  0
 15 14  1  0
 16 15  1  0
 17 11  1  0
 18 17  2  0
 19 17  1  0
 20 21  1  1
 20 19  1  0
 22 21  1  0
 23 22  1  0
 23 24  2  0
 25 20  1  0
 26 25  2  0
 27 23  1  0
 28 25  1  0
M  END
$$$$
