KKE.pdb
     RDKit          3D

 28 27  0  0  1  0  0  0  0  0999 V2000
   21.8360  -13.9476  -15.8559 N   0  0  0  0  0  0  0  0  0  0  0  0
   21.4737  -12.6952  -16.4706 C   0  0  1  0  0  0  0  0  0  0  0  0
   20.0860  -12.2447  -16.1795 C   0  0  0  0  0  0  0  0  0  0  0  0
   19.0811  -12.9066  -17.0468 C   0  0  0  0  0  0  0  0  0  0  0  0
   18.9517  -14.3823  -16.9220 C   0  0  0  0  0  0  0  0  0  0  0  0
   17.9438  -14.9813  -17.8737 C   0  0  0  0  0  0  0  0  0  0  0  0
   17.8612  -16.4136  -17.6690 N   0  0  0  0  0  0  0  0  0  0  0  0
   22.4847  -11.6279  -16.1446 C   0  0  0  0  0  0  0  0  0  0  0  0
   22.5220  -11.1114  -14.9997 O   0  0  0  0  0  0  0  0  0  0  0  0
   23.4021  -11.1921  -17.1163 N   0  0  0  0  0  0  0  0  0  0  0  0
   24.4733  -10.2420  -16.8978 C   0  0  1  0  0  0  0  0  0  0  0  0
   25.5570  -10.5442  -17.8896 C   0  0  0  0  0  0  0  0  0  0  0  0
   26.7405   -9.6667  -17.6376 C   0  0  0  0  0  0  0  0  0  0  0  0
   27.7851   -9.8809  -18.6837 C   0  0  0  0  0  0  0  0  0  0  0  0
   29.0447   -9.1098  -18.3839 C   0  0  0  0  0  0  0  0  0  0  0  0
   29.9728   -9.1211  -19.4938 N   0  0  0  0  0  0  0  0  0  0  0  0
   23.9484   -8.8768  -17.2281 C   0  0  0  0  0  0  0  0  0  0  0  0
   23.0859   -8.7758  -18.1230 O   0  0  0  0  0  0  0  0  0  0  0  0
   24.4668   -7.7782  -16.4993 N   0  0  0  0  0  0  0  0  0  0  0  0
   23.5916   -6.6014  -16.3508 C   0  0  1  0  0  0  0  0  0  0  0  0
   22.3099   -7.1045  -15.8092 C   0  0  0  0  0  0  0  0  0  0  0  0
   21.3199   -6.0647  -15.3980 C   0  0  0  0  0  0  0  0  0  0  0  0
   20.0517   -6.7066  -15.0017 C   0  0  0  0  0  0  0  0  0  0  0  0
   19.2167   -7.0315  -15.8993 O   0  0  0  0  0  0  0  0  0  0  0  0
   24.3000   -5.5202  -15.7225 C   0  0  0  0  0  0  0  0  0  0  0  0
   23.7069   -4.4131  -15.5408 O   0  0  0  0  0  0  0  0  0  0  0  0
   19.6958   -6.9877  -13.6921 O   0  0  0  0  0  0  0  0  0  0  0  0
   25.6184   -5.5481  -15.2612 O   0  0  0  0  0  0  0  0  0  0  0  0
  2  1  1  1
  3  4  1  0
  3  2  1  0
  4  5  1  0
  6  5  1  0
  7  6  1  0
  8  2  1  0
  8  9  2  0
 10  8  1  0
 11 10  1  0
 11 12  1  6
 13 12  1  0
 14 13  1  0
 15 14  1  0
 16 15  1  0
 17 11  1  0
 18 17  2  0
 19 17  1  0
 20 21  1  1
 20 19  1  0
 22 21  1  0
 23 22  1  0
 23 24  2  0
 25 20  1  0
 26 25  2  0
 27 23  1  0
 28 25  1  0
M  END
$$$$
