KKE.pdb
     RDKit          3D

 28 27  0  0  1  0  0  0  0  0999 V2000
   28.2498  -20.6323  -15.3632 N   0  0  0  0  0  0  0  0  0  0  0  0
   28.3266  -19.3116  -14.7910 C   0  0  1  0  0  0  0  0  0  0  0  0
   28.2877  -18.2060  -15.7858 C   0  0  0  0  0  0  0  0  0  0  0  0
   27.7944  -18.6528  -17.1114 C   0  0  0  0  0  0  0  0  0  0  0  0
   26.3597  -19.0313  -17.2033 C   0  0  0  0  0  0  0  0  0  0  0  0
   25.9424  -19.4806  -18.5832 C   0  0  0  0  0  0  0  0  0  0  0  0
   24.5836  -19.9836  -18.5494 N   0  0  0  0  0  0  0  0  0  0  0  0
   27.2844  -19.1322  -13.7192 C   0  0  0  0  0  0  0  0  0  0  0  0
   27.0994  -18.0077  -13.1897 O   0  0  0  0  0  0  0  0  0  0  0  0
   26.5024  -20.2199  -13.2937 N   0  0  0  0  0  0  0  0  0  0  0  0
   25.4550  -20.1652  -12.2947 C   0  0  1  0  0  0  0  0  0  0  0  0
   24.2954  -20.9653  -12.8088 C   0  0  0  0  0  0  0  0  0  0  0  0
   23.0623  -20.1208  -12.8345 C   0  0  0  0  0  0  0  0  0  0  0  0
   21.8967  -20.9090  -13.3359 C   0  0  0  0  0  0  0  0  0  0  0  0
   20.6482  -20.0693  -13.4224 C   0  0  0  0  0  0  0  0  0  0  0  0
   19.5190  -20.8155  -13.9337 N   0  0  0  0  0  0  0  0  0  0  0  0
   25.9570  -20.8645  -11.0670 C   0  0  0  0  0  0  0  0  0  0  0  0
   26.4827  -21.9874  -11.1997 O   0  0  0  0  0  0  0  0  0  0  0  0
   25.8030  -20.2034   -9.8235 N   0  0  0  0  0  0  0  0  0  0  0  0
   26.2385  -20.9337   -8.6194 C   0  0  1  0  0  0  0  0  0  0  0  0
   27.2061  -20.0530   -7.9284 C   0  0  0  0  0  0  0  0  0  0  0  0
   27.7645  -20.5737   -6.6449 C   0  0  0  0  0  0  0  0  0  0  0  0
   28.1212  -19.4491   -5.7588 C   0  0  0  0  0  0  0  0  0  0  0  0
   27.8751  -18.2633   -6.1357 O   0  0  0  0  0  0  0  0  0  0  0  0
   25.1081  -21.4939   -7.9311 C   0  0  0  0  0  0  0  0  0  0  0  0
   23.9408  -21.0955   -8.2294 O   0  0  0  0  0  0  0  0  0  0  0  0
   28.7190  -19.5940   -4.5169 O   0  0  0  0  0  0  0  0  0  0  0  0
   25.1439  -22.4733   -6.9354 O   0  0  0  0  0  0  0  0  0  0  0  0
  2  1  1  6
  3  4  1  0
  3  2  1  0
  4  5  1  0
  6  5  1  0
  7  6  1  0
  8  2  1  0
  8  9  2  0
 10  8  1  0
 11 10  1  0
 11 12  1  6
 13 12  1  0
 14 13  1  0
 15 14  1  0
 16 15  1  0
 17 11  1  0
 18 17  2  0
 19 17  1  0
 20 21  1  1
 20 19  1  0
 22 21  1  0
 23 22  1  0
 23 24  2  0
 25 20  1  0
 26 25  2  0
 27 23  1  0
 28 25  1  0
M  END
$$$$
