HTA.pdb
     RDKit          3D

 23 23  0  0  1  0  0  0  0  0999 V2000
   18.2478  -12.1611  -16.5700 N   0  0  0  0  0  0  0  0  0  0  0  0
   18.3377  -10.7388  -16.5419 C   0  0  1  0  0  0  0  0  0  0  0  0
   17.1611  -10.2094  -15.7378 C   0  0  0  0  0  0  0  0  0  0  0  0
   15.9179  -10.5756  -16.4353 C   0  0  0  0  0  0  0  0  0  0  0  0
   14.8884  -11.3286  -15.9287 C   0  0  0  0  0  0  0  0  0  0  0  0
   13.9705  -11.4077  -16.9049 N   0  0  0  0  0  0  0  0  0  0  0  0
   14.4090  -10.7339  -17.9719 C   0  0  0  0  0  0  0  0  0  0  0  0
   15.6061  -10.2128  -17.7064 N   0  0  0  0  0  0  0  0  0  0  0  0
   19.5967  -10.2216  -15.9679 C   0  0  0  0  0  0  0  0  0  0  0  0
   20.0234  -10.6979  -14.9067 O   0  0  0  0  0  0  0  0  0  0  0  0
   23.7748   -7.9017  -16.8881 C   0  0  0  0  0  0  0  0  0  0  0  0
   22.4912   -8.6002  -17.2985 C   0  0  1  0  0  0  0  0  0  0  0  0
   22.8282   -9.9355  -17.5568 O   0  0  0  0  0  0  0  0  0  0  0  0
   21.5083   -8.6394  -16.1190 C   0  0  2  0  0  0  0  0  0  0  0  0
   20.2876   -9.1929  -16.6435 N   0  0  0  0  0  0  0  0  0  0  0  0
   21.2613   -7.2358  -15.7489 C   0  0  0  0  0  0  0  0  0  0  0  0
   20.6513   -6.4884  -16.5520 O   0  0  0  0  0  0  0  0  0  0  0  0
   21.6689   -5.0185  -12.7935 C   0  0  0  0  0  0  0  0  0  0  0  0
   21.4335   -5.2632  -14.2865 C   0  0  2  0  0  0  0  0  0  0  0  0
   21.6819   -6.6708  -14.5132 N   0  0  0  0  0  0  0  0  0  0  0  0
   22.4377   -4.4154  -14.9965 C   0  0  0  0  0  0  0  0  0  0  0  0
   22.0293   -3.1652  -15.4208 O   0  0  0  0  0  0  0  0  0  0  0  0
   23.5989   -4.7748  -15.2185 O   0  0  0  0  0  0  0  0  0  0  0  0
  2  1  1  1
  3  2  1  0
  4  3  1  0
  5  4  2  0
  6  5  1  0
  7  6  1  0
  7  8  2  0
  8  4  1  0
  9  2  1  0
 10  9  2  0
 12 11  1  1
 12 13  1  0
 14 15  1  6
 14 12  1  0
 15  9  1  0
 16 14  1  0
 17 16  2  0
 19 18  1  1
 19 20  1  0
 20 16  1  0
 21 22  1  0
 21 19  1  0
 23 21  2  0
M  END
$$$$
