HTA.pdb
     RDKit          3D

 23 23  0  0  1  0  0  0  0  0999 V2000
   17.9854  -11.6255  -15.6300 N   0  0  0  0  0  0  0  0  0  0  0  0
   18.5627  -10.5730  -16.3985 C   0  0  1  0  0  0  0  0  0  0  0  0
   17.9916  -10.6506  -17.8053 C   0  0  0  0  0  0  0  0  0  0  0  0
   18.4402  -11.9098  -18.4212 C   0  0  0  0  0  0  0  0  0  0  0  0
   17.7240  -13.0772  -18.5084 C   0  0  0  0  0  0  0  0  0  0  0  0
   18.5180  -13.9539  -19.1431 N   0  0  0  0  0  0  0  0  0  0  0  0
   19.6772  -13.3587  -19.4379 C   0  0  0  0  0  0  0  0  0  0  0  0
   19.6526  -12.0995  -19.0032 N   0  0  0  0  0  0  0  0  0  0  0  0
   18.3299   -9.2219  -15.8484 C   0  0  0  0  0  0  0  0  0  0  0  0
   17.2031   -8.9199  -15.4311 O   0  0  0  0  0  0  0  0  0  0  0  0
   21.6750   -7.1894  -14.4773 C   0  0  0  0  0  0  0  0  0  0  0  0
   20.2490   -7.0607  -13.9736 C   0  0  1  0  0  0  0  0  0  0  0  0
   20.1525   -5.8026  -13.3645 O   0  0  0  0  0  0  0  0  0  0  0  0
   19.2698   -7.0269  -15.1565 C   0  0  2  0  0  0  0  0  0  0  0  0
   19.4000   -8.3024  -15.8104 N   0  0  0  0  0  0  0  0  0  0  0  0
   19.7693   -5.9838  -16.0679 C   0  0  0  0  0  0  0  0  0  0  0  0
   20.8284   -6.1870  -16.7101 O   0  0  0  0  0  0  0  0  0  0  0  0
   18.5737   -2.7875  -17.5253 C   0  0  0  0  0  0  0  0  0  0  0  0
   19.6707   -3.8116  -17.2216 C   0  0  2  0  0  0  0  0  0  0  0  0
   19.1084   -4.7397  -16.2641 N   0  0  0  0  0  0  0  0  0  0  0  0
   20.7949   -3.0314  -16.6227 C   0  0  0  0  0  0  0  0  0  0  0  0
   21.5481   -2.2447  -17.4733 O   0  0  0  0  0  0  0  0  0  0  0  0
   21.0782   -3.0565  -15.4202 O   0  0  0  0  0  0  0  0  0  0  0  0
  2  1  1  1
  3  2  1  0
  4  3  1  0
  5  4  2  0
  6  5  1  0
  7  6  1  0
  7  8  2  0
  8  4  1  0
  9  2  1  0
 10  9  2  0
 12 11  1  6
 12 13  1  0
 14 15  1  6
 14 12  1  0
 15  9  1  0
 16 14  1  0
 17 16  2  0
 19 18  1  1
 19 20  1  0
 20 16  1  0
 21 22  1  0
 21 19  1  0
 23 21  2  0
M  END
$$$$
