HTA.pdb
     RDKit          3D

 23 23  0  0  1  0  0  0  0  0999 V2000
   21.3455  -13.3152  -18.1278 N   0  0  0  0  0  0  0  0  0  0  0  0
   21.0806  -11.9159  -18.1876 C   0  0  1  0  0  0  0  0  0  0  0  0
   19.6785  -11.7264  -18.7440 C   0  0  0  0  0  0  0  0  0  0  0  0
   19.6456  -12.2599  -20.1152 C   0  0  0  0  0  0  0  0  0  0  0  0
   20.3606  -11.7946  -21.1902 C   0  0  0  0  0  0  0  0  0  0  0  0
   20.0205  -12.5743  -22.2285 N   0  0  0  0  0  0  0  0  0  0  0  0
   19.1330  -13.4848  -21.8181 C   0  0  0  0  0  0  0  0  0  0  0  0
   18.8867  -13.3109  -20.5204 N   0  0  0  0  0  0  0  0  0  0  0  0
   21.1910  -11.2214  -16.8885 C   0  0  0  0  0  0  0  0  0  0  0  0
   20.4853  -11.5895  -15.9390 O   0  0  0  0  0  0  0  0  0  0  0  0
   23.9435  -11.2361  -14.7750 C   0  0  0  0  0  0  0  0  0  0  0  0
   23.7610   -9.7658  -15.1047 C   0  0  1  0  0  0  0  0  0  0  0  0
   24.5178   -9.5181  -16.2576 O   0  0  0  0  0  0  0  0  0  0  0  0
   22.3022   -9.4873  -15.4963 C   0  0  2  0  0  0  0  0  0  0  0  0
   22.1009  -10.1505  -16.7577 N   0  0  0  0  0  0  0  0  0  0  0  0
   22.2105   -8.0340  -15.7149 C   0  0  0  0  0  0  0  0  0  0  0  0
   22.7008   -7.5392  -16.7590 O   0  0  0  0  0  0  0  0  0  0  0  0
   20.2219   -5.2051  -15.0302 C   0  0  0  0  0  0  0  0  0  0  0  0
   21.6616   -5.7254  -15.0606 C   0  0  2  0  0  0  0  0  0  0  0  0
   21.5876   -7.1460  -14.7949 N   0  0  0  0  0  0  0  0  0  0  0  0
   22.3728   -5.0058  -13.9617 C   0  0  0  0  0  0  0  0  0  0  0  0
   22.7777   -3.7077  -14.2082 O   0  0  0  0  0  0  0  0  0  0  0  0
   22.6123   -5.5098  -12.8592 O   0  0  0  0  0  0  0  0  0  0  0  0
  2  1  1  1
  3  2  1  0
  4  3  1  0
  5  4  2  0
  6  5  1  0
  7  6  1  0
  7  8  2  0
  8  4  1  0
  9  2  1  0
 10  9  2  0
 12 11  1  6
 12 13  1  0
 14 15  1  6
 14 12  1  0
 15  9  1  0
 16 14  1  0
 17 16  2  0
 19 18  1  1
 19 20  1  0
 20 16  1  0
 21 22  1  0
 21 19  1  0
 23 21  2  0
M  END
$$$$
