HTA.pdb
     RDKit          3D

 23 23  0  0  1  0  0  0  0  0999 V2000
   26.9150  -12.4052  -19.0297 N   0  0  0  0  0  0  0  0  0  0  0  0
   28.2876  -12.5731  -19.3753 C   0  0  1  0  0  0  0  0  0  0  0  0
   28.3723  -13.6322  -20.4626 C   0  0  0  0  0  0  0  0  0  0  0  0
   27.7983  -14.8827  -19.9403 C   0  0  0  0  0  0  0  0  0  0  0  0
   26.7564  -15.5924  -20.4827 C   0  0  0  0  0  0  0  0  0  0  0  0
   26.5736  -16.6544  -19.6823 N   0  0  0  0  0  0  0  0  0  0  0  0
   27.4623  -16.6079  -18.6858 C   0  0  0  0  0  0  0  0  0  0  0  0
   28.2272  -15.5259  -18.8236 N   0  0  0  0  0  0  0  0  0  0  0  0
   28.9517  -11.3382  -19.8404 C   0  0  0  0  0  0  0  0  0  0  0  0
   28.3398  -10.5617  -20.5872 O   0  0  0  0  0  0  0  0  0  0  0  0
   29.8622   -8.6778  -17.8661 C   0  0  0  0  0  0  0  0  0  0  0  0
   31.1859   -9.0893  -18.4843 C   0  0  1  0  0  0  0  0  0  0  0  0
   31.7659  -10.0149  -17.6067 O   0  0  0  0  0  0  0  0  0  0  0  0
   30.9446   -9.8528  -19.7950 C   0  0  2  0  0  0  0  0  0  0  0  0
   30.2727  -11.0698  -19.4223 N   0  0  0  0  0  0  0  0  0  0  0  0
   32.2779  -10.1982  -20.3156 C   0  0  0  0  0  0  0  0  0  0  0  0
   32.5743  -11.4055  -20.4888 O   0  0  0  0  0  0  0  0  0  0  0  0
   34.2252  -10.2883  -22.5442 C   0  0  0  0  0  0  0  0  0  0  0  0
   34.5287   -9.6852  -21.1700 C   0  0  2  0  0  0  0  0  0  0  0  0
   33.2639   -9.2251  -20.6382 N   0  0  0  0  0  0  0  0  0  0  0  0
   35.4551   -8.5422  -21.4279 C   0  0  0  0  0  0  0  0  0  0  0  0
   36.7664   -8.8439  -21.7431 O   0  0  0  0  0  0  0  0  0  0  0  0
   35.1085   -7.3574  -21.3734 O   0  0  0  0  0  0  0  0  0  0  0  0
  2  1  1  6
  3  2  1  0
  4  3  1  0
  5  4  2  0
  6  5  1  0
  7  6  1  0
  7  8  2  0
  8  4  1  0
  9  2  1  0
 10  9  2  0
 12 11  1  1
 12 13  1  0
 14 15  1  1
 14 12  1  0
 15  9  1  0
 16 14  1  0
 17 16  2  0
 19 18  1  6
 19 20  1  0
 20 16  1  0
 21 22  1  0
 21 19  1  0
 23 21  2  0
M  END
$$$$
