HTA.pdb
     RDKit          3D

 23 23  0  0  1  0  0  0  0  0999 V2000
   18.1560  -11.5598  -17.1496 N   0  0  0  0  0  0  0  0  0  0  0  0
   18.6431  -10.2202  -17.1561 C   0  0  1  0  0  0  0  0  0  0  0  0
   17.4528   -9.2881  -17.3157 C   0  0  0  0  0  0  0  0  0  0  0  0
   16.8615   -9.5113  -18.6449 C   0  0  0  0  0  0  0  0  0  0  0  0
   17.4226   -9.1844  -19.8539 C   0  0  0  0  0  0  0  0  0  0  0  0
   16.5391   -9.5668  -20.7892 N   0  0  0  0  0  0  0  0  0  0  0  0
   15.4751  -10.1079  -20.1891 C   0  0  0  0  0  0  0  0  0  0  0  0
   15.6509  -10.0847  -18.8687 N   0  0  0  0  0  0  0  0  0  0  0  0
   19.4016   -9.8445  -15.9453 C   0  0  0  0  0  0  0  0  0  0  0  0
   18.8924  -10.0182  -14.8292 O   0  0  0  0  0  0  0  0  0  0  0  0
   23.8271   -9.3226  -14.0677 C   0  0  0  0  0  0  0  0  0  0  0  0
   22.8624   -9.6537  -15.1917 C   0  0  1  0  0  0  0  0  0  0  0  0
   22.6216  -11.0321  -15.1183 O   0  0  0  0  0  0  0  0  0  0  0  0
   21.5051   -8.9799  -14.9414 C   0  0  2  0  0  0  0  0  0  0  0  0
   20.6934   -9.2943  -16.0876 N   0  0  0  0  0  0  0  0  0  0  0  0
   21.7651   -7.5306  -14.9390 C   0  0  0  0  0  0  0  0  0  0  0  0
   21.7476   -6.9030  -16.0259 O   0  0  0  0  0  0  0  0  0  0  0  0
   23.2556   -5.1521  -14.9896 C   0  0  0  0  0  0  0  0  0  0  0  0
   22.2289   -5.3608  -13.8731 C   0  0  2  0  0  0  0  0  0  0  0  0
   22.0391   -6.7906  -13.7556 N   0  0  0  0  0  0  0  0  0  0  0  0
   20.9814   -4.6862  -14.3423 C   0  0  0  0  0  0  0  0  0  0  0  0
   20.9835   -3.3051  -14.3895 O   0  0  0  0  0  0  0  0  0  0  0  0
   19.9632   -5.2968  -14.6850 O   0  0  0  0  0  0  0  0  0  0  0  0
  2  1  1  1
  3  2  1  0
  4  3  1  0
  5  4  2  0
  6  5  1  0
  7  6  1  0
  7  8  2  0
  8  4  1  0
  9  2  1  0
 10  9  2  0
 12 11  1  1
 12 13  1  0
 14 15  1  6
 14 12  1  0
 15  9  1  0
 16 14  1  0
 17 16  2  0
 19 18  1  6
 19 20  1  0
 20 16  1  0
 21 22  1  0
 21 19  1  0
 23 21  2  0
M  END
$$$$
