HTA.pdb
     RDKit          3D

 23 23  0  0  1  0  0  0  0  0999 V2000
   21.6665  -12.5509  -16.6110 N   0  0  0  0  0  0  0  0  0  0  0  0
   22.4771  -11.4435  -16.2258 C   0  0  1  0  0  0  0  0  0  0  0  0
   23.7571  -11.4909  -17.0446 C   0  0  0  0  0  0  0  0  0  0  0  0
   24.4951  -12.7123  -16.6848 C   0  0  0  0  0  0  0  0  0  0  0  0
   24.3021  -13.9669  -17.2064 C   0  0  0  0  0  0  0  0  0  0  0  0
   25.1891  -14.7654  -16.5922 N   0  0  0  0  0  0  0  0  0  0  0  0
   25.9029  -14.0400  -15.7265 C   0  0  0  0  0  0  0  0  0  0  0  0
   25.4934  -12.7728  -15.7659 N   0  0  0  0  0  0  0  0  0  0  0  0
   21.8299  -10.1273  -16.4027 C   0  0  0  0  0  0  0  0  0  0  0  0
   21.5496   -9.7347  -17.5438 O   0  0  0  0  0  0  0  0  0  0  0  0
   18.6173   -9.4448  -15.3774 C   0  0  0  0  0  0  0  0  0  0  0  0
   19.4511   -8.4388  -14.6051 C   0  0  1  0  0  0  0  0  0  0  0  0
   19.8337   -9.0684  -13.4132 O   0  0  0  0  0  0  0  0  0  0  0  0
   20.7569   -8.1432  -15.3578 C   0  0  2  0  0  0  0  0  0  0  0  0
   21.5446   -9.3441  -15.2638 N   0  0  0  0  0  0  0  0  0  0  0  0
   21.4344   -7.0816  -14.5948 C   0  0  0  0  0  0  0  0  0  0  0  0
   22.5401   -7.3262  -14.0535 O   0  0  0  0  0  0  0  0  0  0  0  0
   22.8118   -4.4506  -14.9549 C   0  0  0  0  0  0  0  0  0  0  0  0
   21.7560   -4.7463  -13.8861 C   0  0  2  0  0  0  0  0  0  0  0  0
   20.8975   -5.7742  -14.4344 N   0  0  0  0  0  0  0  0  0  0  0  0
   21.0110   -3.4663  -13.6915 C   0  0  0  0  0  0  0  0  0  0  0  0
   21.6126   -2.4904  -12.9197 O   0  0  0  0  0  0  0  0  0  0  0  0
   19.8987   -3.2431  -14.1811 O   0  0  0  0  0  0  0  0  0  0  0  0
  2  1  1  6
  3  2  1  0
  4  3  1  0
  5  4  2  0
  6  5  1  0
  7  6  1  0
  7  8  2  0
  8  4  1  0
  9  2  1  0
 10  9  2  0
 12 11  1  6
 12 13  1  0
 14 15  1  1
 14 12  1  0
 15  9  1  0
 16 14  1  0
 17 16  2  0
 19 18  1  6
 19 20  1  0
 20 16  1  0
 21 22  1  0
 21 19  1  0
 23 21  2  0
M  END
$$$$
