HTA.pdb
     RDKit          3D

 23 23  0  0  1  0  0  0  0  0999 V2000
   18.1966  -13.7446  -18.4722 N   0  0  0  0  0  0  0  0  0  0  0  0
   18.6425  -12.8419  -17.4633 C   0  0  1  0  0  0  0  0  0  0  0  0
   19.6931  -13.5541  -16.6265 C   0  0  0  0  0  0  0  0  0  0  0  0
   19.0697  -14.7302  -15.9987 C   0  0  0  0  0  0  0  0  0  0  0  0
   18.2050  -14.7253  -14.9330 C   0  0  0  0  0  0  0  0  0  0  0  0
   17.8929  -16.0101  -14.7017 N   0  0  0  0  0  0  0  0  0  0  0  0
   18.5348  -16.7809  -15.5842 C   0  0  0  0  0  0  0  0  0  0  0  0
   19.2656  -16.0150  -16.3932 N   0  0  0  0  0  0  0  0  0  0  0  0
   19.2039  -11.5787  -17.9844 C   0  0  0  0  0  0  0  0  0  0  0  0
   20.0213  -11.6134  -18.9148 O   0  0  0  0  0  0  0  0  0  0  0  0
   17.4163   -9.0243  -19.6560 C   0  0  0  0  0  0  0  0  0  0  0  0
   17.9670   -8.3666  -18.4038 C   0  0  1  0  0  0  0  0  0  0  0  0
   17.0184   -8.5741  -17.3936 O   0  0  0  0  0  0  0  0  0  0  0  0
   19.2373   -9.0934  -17.9379 C   0  0  2  0  0  0  0  0  0  0  0  0
   18.7951  -10.3567  -17.4088 N   0  0  0  0  0  0  0  0  0  0  0  0
   19.7821   -8.2903  -16.8305 C   0  0  0  0  0  0  0  0  0  0  0  0
   19.3592   -8.4867  -15.6651 O   0  0  0  0  0  0  0  0  0  0  0  0
   22.3892   -5.6749  -16.3175 C   0  0  0  0  0  0  0  0  0  0  0  0
   21.2475   -6.5773  -15.8417 C   0  0  2  0  0  0  0  0  0  0  0  0
   20.7760   -7.2889  -17.0103 N   0  0  0  0  0  0  0  0  0  0  0  0
   20.1996   -5.6546  -15.3108 C   0  0  0  0  0  0  0  0  0  0  0  0
   20.4011   -5.1186  -14.0531 O   0  0  0  0  0  0  0  0  0  0  0  0
   19.1766   -5.3529  -15.9348 O   0  0  0  0  0  0  0  0  0  0  0  0
  2  1  1  6
  3  2  1  0
  4  3  1  0
  5  4  2  0
  6  5  1  0
  7  6  1  0
  7  8  2  0
  8  4  1  0
  9  2  1  0
 10  9  2  0
 12 11  1  6
 12 13  1  0
 14 15  1  1
 14 12  1  0
 15  9  1  0
 16 14  1  0
 17 16  2  0
 19 18  1  6
 19 20  1  0
 20 16  1  0
 21 22  1  0
 21 19  1  0
 23 21  2  0
M  END
$$$$
