HTA.pdb
     RDKit          3D

 23 23  0  0  1  0  0  0  0  0999 V2000
   26.4280  -12.0590  -17.1240 N   0  0  0  0  0  0  0  0  0  0  0  0
   26.3846  -10.8962  -17.9472 C   0  0  1  0  0  0  0  0  0  0  0  0
   24.9911  -10.2976  -17.8417 C   0  0  0  0  0  0  0  0  0  0  0  0
   24.0293  -11.2527  -18.4149 C   0  0  0  0  0  0  0  0  0  0  0  0
   24.2827  -12.1776  -19.3966 C   0  0  0  0  0  0  0  0  0  0  0  0
   23.1259  -12.8259  -19.6041 N   0  0  0  0  0  0  0  0  0  0  0  0
   22.1934  -12.3269  -18.7877 C   0  0  0  0  0  0  0  0  0  0  0  0
   22.7263  -11.3570  -18.0458 N   0  0  0  0  0  0  0  0  0  0  0  0
   27.3876   -9.8689  -17.5997 C   0  0  0  0  0  0  0  0  0  0  0  0
   27.5059   -9.5074  -16.4205 O   0  0  0  0  0  0  0  0  0  0  0  0
   31.6374   -7.9022  -18.6476 C   0  0  0  0  0  0  0  0  0  0  0  0
   30.5277   -8.9295  -18.7782 C   0  0  1  0  0  0  0  0  0  0  0  0
   30.8088   -9.9411  -17.8503 O   0  0  0  0  0  0  0  0  0  0  0  0
   29.1877   -8.3214  -18.3381 C   0  0  2  0  0  0  0  0  0  0  0  0
   28.1912   -9.3204  -18.6220 N   0  0  0  0  0  0  0  0  0  0  0  0
   28.9549   -7.1676  -19.2228 C   0  0  0  0  0  0  0  0  0  0  0  0
   28.6973   -7.3669  -20.4350 O   0  0  0  0  0  0  0  0  0  0  0  0
   28.8183   -3.4490  -18.9603 C   0  0  0  0  0  0  0  0  0  0  0  0
   28.7153   -4.7702  -19.7272 C   0  0  2  0  0  0  0  0  0  0  0  0
   29.0064   -5.8190  -18.7735 N   0  0  0  0  0  0  0  0  0  0  0  0
   29.7616   -4.7006  -20.7910 C   0  0  0  0  0  0  0  0  0  0  0  0
   29.3563   -4.3315  -22.0595 O   0  0  0  0  0  0  0  0  0  0  0  0
   30.9546   -4.9540  -20.5921 O   0  0  0  0  0  0  0  0  0  0  0  0
  2  1  1  1
  3  2  1  0
  4  3  1  0
  5  4  2  0
  6  5  1  0
  7  6  1  0
  7  8  2  0
  8  4  1  0
  9  2  1  0
 10  9  2  0
 12 11  1  1
 12 13  1  0
 14 15  1  6
 14 12  1  0
 15  9  1  0
 16 14  1  0
 17 16  2  0
 19 18  1  1
 19 20  1  0
 20 16  1  0
 21 22  1  0
 21 19  1  0
 23 21  2  0
M  END
$$$$
