MHY.pdb
     RDKit          3D

 31 32  0  0  1  0  0  0  0  0999 V2000
   18.4673  -13.3224  -23.6445 C   0  0  0  0  0  0  0  0  0  0  0  0
   18.6154  -11.9540  -22.4761 S   0  0  0  0  0  0  0  0  0  0  0  0
   19.9121  -12.3114  -21.2650 C   0  0  0  0  0  0  0  0  0  0  0  0
   19.9312  -11.2622  -20.1614 C   0  0  0  0  0  0  0  0  0  0  0  0
   21.0200  -11.4411  -19.1718 C   0  0  2  0  0  0  0  0  0  0  0  0
   21.0761  -12.7777  -18.6537 N   0  0  0  0  0  0  0  0  0  0  0  0
   20.9009  -10.4524  -18.0634 C   0  0  0  0  0  0  0  0  0  0  0  0
   20.0106  -10.6288  -17.1765 O   0  0  0  0  0  0  0  0  0  0  0  0
   21.7158   -9.3061  -17.9205 N   0  0  0  0  0  0  0  0  0  0  0  0
   21.6593   -8.3797  -16.8248 C   0  0  1  0  0  0  0  0  0  0  0  0
   22.9667   -8.4353  -16.0139 C   0  0  0  0  0  0  0  0  0  0  0  0
   23.1339   -9.7607  -15.4073 C   0  0  0  0  0  0  0  0  0  0  0  0
   23.9100  -10.8158  -15.7780 C   0  0  0  0  0  0  0  0  0  0  0  0
   23.6906  -11.8289  -14.8991 N   0  0  0  0  0  0  0  0  0  0  0  0
   22.7862  -11.4132  -13.9854 C   0  0  0  0  0  0  0  0  0  0  0  0
   22.4485  -10.1404  -14.3019 N   0  0  0  0  0  0  0  0  0  0  0  0
   21.3438   -6.9790  -17.2455 C   0  0  0  0  0  0  0  0  0  0  0  0
   21.7558   -6.4529  -18.3029 O   0  0  0  0  0  0  0  0  0  0  0  0
   14.4185   -7.8512  -16.9598 O   0  0  0  0  0  0  0  0  0  0  0  0
   15.5920   -7.1373  -17.2155 C   0  0  0  0  0  0  0  0  0  0  0  0
   16.6606   -7.7032  -17.8803 C   0  0  0  0  0  0  0  0  0  0  0  0
   17.7897   -6.9702  -18.1115 C   0  0  0  0  0  0  0  0  0  0  0  0
   17.9618   -5.6390  -17.7139 C   0  0  0  0  0  0  0  0  0  0  0  0
   19.1848   -4.8658  -17.9602 C   0  0  0  0  0  0  0  0  0  0  0  0
   20.0539   -4.8422  -16.7430 C   0  0  2  0  0  0  0  0  0  0  0  0
   20.5304   -6.1818  -16.4119 N   0  0  0  0  0  0  0  0  0  0  0  0
   19.2849   -4.3643  -15.5927 C   0  0  0  0  0  0  0  0  0  0  0  0
   19.0516   -5.1246  -14.6353 O   0  0  0  0  0  0  0  0  0  0  0  0
   16.8505   -5.1133  -17.0447 C   0  0  0  0  0  0  0  0  0  0  0  0
   15.7201   -5.8323  -16.8084 C   0  0  0  0  0  0  0  0  0  0  0  0
   18.8017   -3.0676  -15.5441 O   0  0  0  0  0  0  0  0  0  0  0  0
  2  1  1  0
  3  2  1  0
  4  3  1  0
  5  4  1  0
  5  6  1  1
  7  5  1  0
  7  8  2  0
  9  7  1  0
 10  9  1  0
 10 11  1  6
 12 11  1  0
 12 16  1  0
 13 12  2  0
 14 13  1  0
 14 15  1  0
 15 16  2  0
 17 10  1  0
 18 17  2  0
 19 20  1  0
 20 21  2  0
 20 30  1  0
 21 22  1  0
 22 23  2  0
 23 24  1  0
 25 24  1  6
 25 26  1  0
 25 27  1  0
 26 17  1  0
 27 31  1  0
 28 27  2  0
 29 23  1  0
 30 29  2  0
M  END
$$$$
