MHY.pdb
     RDKit          3D

 31 32  0  0  1  0  0  0  0  0999 V2000
   26.1491  -14.2583  -18.5138 C   0  0  0  0  0  0  0  0  0  0  0  0
   24.3850  -14.4154  -18.1635 S   0  0  0  0  0  0  0  0  0  0  0  0
   23.5710  -15.3439  -19.4868 C   0  0  0  0  0  0  0  0  0  0  0  0
   22.6694  -16.4301  -18.9156 C   0  0  0  0  0  0  0  0  0  0  0  0
   23.1826  -17.0547  -17.6734 C   0  0  2  0  0  0  0  0  0  0  0  0
   24.4753  -17.6505  -17.8527 N   0  0  0  0  0  0  0  0  0  0  0  0
   22.2137  -18.0524  -17.1385 C   0  0  0  0  0  0  0  0  0  0  0  0
   20.9892  -17.7315  -17.0483 O   0  0  0  0  0  0  0  0  0  0  0  0
   22.5581  -19.3548  -16.7101 N   0  0  0  0  0  0  0  0  0  0  0  0
   21.6325  -20.3417  -16.2293 C   0  0  1  0  0  0  0  0  0  0  0  0
   22.1389  -21.7553  -16.5686 C   0  0  0  0  0  0  0  0  0  0  0  0
   21.9669  -22.0282  -17.9999 C   0  0  0  0  0  0  0  0  0  0  0  0
   21.3689  -21.2947  -18.9784 C   0  0  0  0  0  0  0  0  0  0  0  0
   21.4505  -21.9963  -20.1394 N   0  0  0  0  0  0  0  0  0  0  0  0
   22.0940  -23.1584  -19.8919 C   0  0  0  0  0  0  0  0  0  0  0  0
   22.4104  -23.1719  -18.5751 N   0  0  0  0  0  0  0  0  0  0  0  0
   21.3295  -20.2122  -14.7699 C   0  0  0  0  0  0  0  0  0  0  0  0
   22.1944  -20.0215  -13.8866 O   0  0  0  0  0  0  0  0  0  0  0  0
   16.3380  -15.4070  -16.0770 O   0  0  0  0  0  0  0  0  0  0  0  0
   17.1717  -16.1697  -15.2552 C   0  0  0  0  0  0  0  0  0  0  0  0
   18.5342  -16.2405  -15.4622 C   0  0  0  0  0  0  0  0  0  0  0  0
   19.3144  -16.9969  -14.6347 C   0  0  0  0  0  0  0  0  0  0  0  0
   18.8286  -17.7375  -13.5506 C   0  0  0  0  0  0  0  0  0  0  0  0
   19.6774  -18.5545  -12.6751 C   0  0  0  0  0  0  0  0  0  0  0  0
   19.5218  -20.0087  -12.9886 C   0  0  2  0  0  0  0  0  0  0  0  0
   19.9888  -20.3076  -14.3390 N   0  0  0  0  0  0  0  0  0  0  0  0
   18.1070  -20.3804  -12.9324 C   0  0  0  0  0  0  0  0  0  0  0  0
   17.5083  -20.7264  -13.9673 O   0  0  0  0  0  0  0  0  0  0  0  0
   17.4428  -17.6318  -13.3849 C   0  0  0  0  0  0  0  0  0  0  0  0
   16.6545  -16.8818  -14.2014 C   0  0  0  0  0  0  0  0  0  0  0  0
   17.4073  -20.3542  -11.7377 O   0  0  0  0  0  0  0  0  0  0  0  0
  2  1  1  0
  3  2  1  0
  4  3  1  0
  5  4  1  0
  5  6  1  6
  7  5  1  0
  7  8  2  0
  9  7  1  0
 10  9  1  0
 10 11  1  1
 12 11  1  0
 12 16  1  0
 13 12  2  0
 14 13  1  0
 14 15  1  0
 15 16  2  0
 17 10  1  0
 18 17  2  0
 19 20  1  0
 20 21  2  0
 20 30  1  0
 21 22  1  0
 22 23  2  0
 23 24  1  0
 25 24  1  6
 25 26  1  0
 25 27  1  0
 26 17  1  0
 27 31  1  0
 28 27  2  0
 29 23  1  0
 30 29  2  0
M  END
$$$$
