MHY.pdb
     RDKit          3D

 31 32  0  0  1  0  0  0  0  0999 V2000
   16.0781  -14.2664  -15.5806 C   0  0  0  0  0  0  0  0  0  0  0  0
   17.1225  -15.7318  -15.7266 S   0  0  0  0  0  0  0  0  0  0  0  0
   18.4434  -15.4337  -16.9276 C   0  0  0  0  0  0  0  0  0  0  0  0
   19.1610  -14.1229  -16.6345 C   0  0  0  0  0  0  0  0  0  0  0  0
   20.1489  -13.7272  -17.6660 C   0  0  2  0  0  0  0  0  0  0  0  0
   21.2914  -14.5944  -17.6925 N   0  0  0  0  0  0  0  0  0  0  0  0
   20.5695  -12.3092  -17.4854 C   0  0  0  0  0  0  0  0  0  0  0  0
   21.5954  -12.0581  -16.7819 O   0  0  0  0  0  0  0  0  0  0  0  0
   19.8995  -11.1967  -18.0440 N   0  0  0  0  0  0  0  0  0  0  0  0
   20.3552   -9.8365  -17.9807 C   0  0  1  0  0  0  0  0  0  0  0  0
   19.7621   -9.0225  -19.1449 C   0  0  0  0  0  0  0  0  0  0  0  0
   20.2624   -7.6436  -19.1093 C   0  0  0  0  0  0  0  0  0  0  0  0
   19.8557   -6.5698  -18.3782 C   0  0  0  0  0  0  0  0  0  0  0  0
   20.6273   -5.5068  -18.7271 N   0  0  0  0  0  0  0  0  0  0  0  0
   21.5098   -5.9100  -19.6674 C   0  0  0  0  0  0  0  0  0  0  0  0
   21.2818   -7.2250  -19.8974 N   0  0  0  0  0  0  0  0  0  0  0  0
   20.0805   -9.1776  -16.6658 C   0  0  0  0  0  0  0  0  0  0  0  0
   18.9936   -9.2592  -16.0520 O   0  0  0  0  0  0  0  0  0  0  0  0
   26.9914   -8.3735  -16.8983 O   0  0  0  0  0  0  0  0  0  0  0  0
   25.8090   -8.3504  -16.1543 C   0  0  0  0  0  0  0  0  0  0  0  0
   25.2510   -9.5005  -15.6346 C   0  0  0  0  0  0  0  0  0  0  0  0
   24.0942   -9.4345  -14.9114 C   0  0  0  0  0  0  0  0  0  0  0  0
   23.3978   -8.2502  -14.6425 C   0  0  0  0  0  0  0  0  0  0  0  0
   22.1498   -8.1948  -13.8719 C   0  0  0  0  0  0  0  0  0  0  0  0
   21.0040   -7.7876  -14.7429 C   0  0  2  0  0  0  0  0  0  0  0  0
   21.0984   -8.4101  -16.0600 N   0  0  0  0  0  0  0  0  0  0  0  0
   21.0284   -6.3388  -14.9509 C   0  0  0  0  0  0  0  0  0  0  0  0
   21.2857   -5.8714  -16.0754 O   0  0  0  0  0  0  0  0  0  0  0  0
   24.0048   -7.1146  -15.1913 C   0  0  0  0  0  0  0  0  0  0  0  0
   25.1568   -7.1665  -15.9130 C   0  0  0  0  0  0  0  0  0  0  0  0
   20.7702   -5.4622  -13.9105 O   0  0  0  0  0  0  0  0  0  0  0  0
  2  1  1  0
  3  2  1  0
  4  3  1  0
  5  4  1  0
  5  6  1  1
  7  5  1  0
  7  8  2  0
  9  7  1  0
 10  9  1  0
 10 11  1  6
 12 11  1  0
 12 16  1  0
 13 12  2  0
 14 13  1  0
 14 15  1  0
 15 16  2  0
 17 10  1  0
 18 17  2  0
 19 20  1  0
 20 21  2  0
 20 30  1  0
 21 22  1  0
 22 23  2  0
 23 24  1  0
 25 24  1  1
 25 26  1  0
 25 27  1  0
 26 17  1  0
 27 31  1  0
 28 27  2  0
 29 23  1  0
 30 29  2  0
M  END
$$$$
