MHY.pdb
     RDKit          3D

 31 32  0  0  1  0  0  0  0  0999 V2000
   30.5111  -21.2847   -8.3962 C   0  0  0  0  0  0  0  0  0  0  0  0
   31.7114  -22.3253   -9.2540 S   0  0  0  0  0  0  0  0  0  0  0  0
   32.1035  -21.6142  -10.8716 C   0  0  0  0  0  0  0  0  0  0  0  0
   30.9014  -20.8794  -11.4498 C   0  0  0  0  0  0  0  0  0  0  0  0
   29.8982  -21.7639  -12.0884 C   0  0  2  0  0  0  0  0  0  0  0  0
   30.4869  -22.6684  -13.0336 N   0  0  0  0  0  0  0  0  0  0  0  0
   28.8148  -20.9662  -12.7288 C   0  0  0  0  0  0  0  0  0  0  0  0
   28.1599  -20.1410  -12.0212 O   0  0  0  0  0  0  0  0  0  0  0  0
   28.4475  -21.0605  -14.0907 N   0  0  0  0  0  0  0  0  0  0  0  0
   27.3342  -20.3870  -14.6981 C   0  0  1  0  0  0  0  0  0  0  0  0
   27.3564  -20.5930  -16.2235 C   0  0  0  0  0  0  0  0  0  0  0  0
   26.3647  -19.7255  -16.8691 C   0  0  0  0  0  0  0  0  0  0  0  0
   25.7117  -18.6247  -16.4056 C   0  0  0  0  0  0  0  0  0  0  0  0
   24.8723  -18.1910  -17.3825 N   0  0  0  0  0  0  0  0  0  0  0  0
   24.9982  -19.0112  -18.4489 C   0  0  0  0  0  0  0  0  0  0  0  0
   25.9182  -19.9520  -18.1281 N   0  0  0  0  0  0  0  0  0  0  0  0
   26.0123  -20.7813  -14.1189 C   0  0  0  0  0  0  0  0  0  0  0  0
   25.6881  -21.9577  -13.8438 O   0  0  0  0  0  0  0  0  0  0  0  0
   18.1434  -19.6987  -10.1872 O   0  0  0  0  0  0  0  0  0  0  0  0
   19.4236  -19.5010  -10.7110 C   0  0  0  0  0  0  0  0  0  0  0  0
   19.6332  -18.8012  -11.8817 C   0  0  0  0  0  0  0  0  0  0  0  0
   20.9013  -18.6291  -12.3592 C   0  0  0  0  0  0  0  0  0  0  0  0
   22.0533  -19.1237  -11.7364 C   0  0  0  0  0  0  0  0  0  0  0  0
   23.4098  -18.9399  -12.2660 C   0  0  0  0  0  0  0  0  0  0  0  0
   23.7445  -20.0104  -13.2556 C   0  0  2  0  0  0  0  0  0  0  0  0
   25.0542  -19.7784  -13.8573 N   0  0  0  0  0  0  0  0  0  0  0  0
   22.7657  -20.0044  -14.3441 C   0  0  0  0  0  0  0  0  0  0  0  0
   21.8595  -20.8570  -14.3767 O   0  0  0  0  0  0  0  0  0  0  0  0
   21.7859  -19.8249  -10.5548 C   0  0  0  0  0  0  0  0  0  0  0  0
   20.5281  -20.0031  -10.0681 C   0  0  0  0  0  0  0  0  0  0  0  0
   22.8255  -19.0598  -15.3548 O   0  0  0  0  0  0  0  0  0  0  0  0
  2  1  1  0
  3  2  1  0
  4  3  1  0
  5  4  1  0
  5  6  1  6
  7  5  1  0
  7  8  2  0
  9  7  1  0
 10  9  1  0
 10 11  1  6
 12 11  1  0
 12 16  1  0
 13 12  2  0
 14 13  1  0
 14 15  1  0
 15 16  2  0
 17 10  1  0
 18 17  2  0
 19 20  1  0
 20 21  2  0
 20 30  1  0
 21 22  1  0
 22 23  2  0
 23 24  1  0
 25 24  1  1
 25 26  1  0
 25 27  1  0
 26 17  1  0
 27 31  1  0
 28 27  2  0
 29 23  1  0
 30 29  2  0
M  END
$$$$
