MHY.pdb
     RDKit          3D

 31 32  0  0  1  0  0  0  0  0999 V2000
   33.1670  -22.7323   -7.9339 C   0  0  0  0  0  0  0  0  0  0  0  0
   31.6776  -22.2508   -8.8336 S   0  0  0  0  0  0  0  0  0  0  0  0
   32.1137  -21.1763  -10.2232 C   0  0  0  0  0  0  0  0  0  0  0  0
   30.8650  -20.6327  -10.9047 C   0  0  0  0  0  0  0  0  0  0  0  0
   29.9625  -21.6782  -11.4424 C   0  0  2  0  0  0  0  0  0  0  0  0
   30.6169  -22.5331  -12.3905 N   0  0  0  0  0  0  0  0  0  0  0  0
   28.7391  -21.0713  -12.0387 C   0  0  0  0  0  0  0  0  0  0  0  0
   28.2510  -20.0269  -11.5083 O   0  0  0  0  0  0  0  0  0  0  0  0
   28.0617  -21.5800  -13.1705 N   0  0  0  0  0  0  0  0  0  0  0  0
   26.8138  -21.0865  -13.6814 C   0  0  1  0  0  0  0  0  0  0  0  0
   26.6803  -21.4259  -15.1770 C   0  0  0  0  0  0  0  0  0  0  0  0
   25.4405  -20.8589  -15.7194 C   0  0  0  0  0  0  0  0  0  0  0  0
   24.4512  -20.1455  -15.1150 C   0  0  0  0  0  0  0  0  0  0  0  0
   23.5009  -19.8710  -16.0469 N   0  0  0  0  0  0  0  0  0  0  0  0
   23.8905  -20.4064  -17.2247 C   0  0  0  0  0  0  0  0  0  0  0  0
   25.0845  -21.0113  -17.0177 N   0  0  0  0  0  0  0  0  0  0  0  0
   25.6243  -21.5654  -12.9105 C   0  0  0  0  0  0  0  0  0  0  0  0
   25.3764  -22.7688  -12.6762 O   0  0  0  0  0  0  0  0  0  0  0  0
   27.7067  -19.6859   -6.6571 O   0  0  0  0  0  0  0  0  0  0  0  0
   26.6781  -19.6931   -7.6027 C   0  0  0  0  0  0  0  0  0  0  0  0
   26.5854  -18.7312   -8.5877 C   0  0  0  0  0  0  0  0  0  0  0  0
   25.5647  -18.7750   -9.4942 C   0  0  0  0  0  0  0  0  0  0  0  0
   24.5630  -19.7529   -9.5085 C   0  0  0  0  0  0  0  0  0  0  0  0
   23.4656  -19.7825  -10.4828 C   0  0  0  0  0  0  0  0  0  0  0  0
   23.6439  -20.9081  -11.4516 C   0  0  2  0  0  0  0  0  0  0  0  0
   24.7100  -20.6162  -12.4053 N   0  0  0  0  0  0  0  0  0  0  0  0
   22.4159  -21.0963  -12.2258 C   0  0  0  0  0  0  0  0  0  0  0  0
   22.3871  -20.8055  -13.4356 O   0  0  0  0  0  0  0  0  0  0  0  0
   24.7029  -20.7032   -8.4903 C   0  0  0  0  0  0  0  0  0  0  0  0
   25.7148  -20.6713   -7.5816 C   0  0  0  0  0  0  0  0  0  0  0  0
   21.2674  -21.5960  -11.6353 O   0  0  0  0  0  0  0  0  0  0  0  0
  2  1  1  0
  3  2  1  0
  4  3  1  0
  5  4  1  0
  5  6  1  6
  7  5  1  0
  7  8  2  0
  9  7  1  0
 10  9  1  0
 10 11  1  6
 12 11  1  0
 12 16  1  0
 13 12  2  0
 14 13  1  0
 14 15  1  0
 15 16  2  0
 17 10  1  0
 18 17  2  0
 19 20  1  0
 20 21  2  0
 20 30  1  0
 21 22  1  0
 22 23  2  0
 23 24  1  0
 25 24  1  1
 25 26  1  0
 25 27  1  0
 26 17  1  0
 27 31  1  0
 28 27  2  0
 29 23  1  0
 30 29  2  0
M  END
$$$$
