MHY.pdb
     RDKit          3D

 31 32  0  0  1  0  0  0  0  0999 V2000
   28.7829  -18.6966  -14.7333 C   0  0  0  0  0  0  0  0  0  0  0  0
   28.3166  -17.1718  -15.5800 S   0  0  0  0  0  0  0  0  0  0  0  0
   27.7919  -17.5390  -17.2729 C   0  0  0  0  0  0  0  0  0  0  0  0
   26.5030  -18.3501  -17.2802 C   0  0  0  0  0  0  0  0  0  0  0  0
   26.6449  -19.7111  -17.8494 C   0  0  2  0  0  0  0  0  0  0  0  0
   26.9783  -19.6901  -19.2446 N   0  0  0  0  0  0  0  0  0  0  0  0
   25.4142  -20.5180  -17.6152 C   0  0  0  0  0  0  0  0  0  0  0  0
   24.4261  -20.3715  -18.3979 O   0  0  0  0  0  0  0  0  0  0  0  0
   25.2548  -21.4509  -16.5651 N   0  0  0  0  0  0  0  0  0  0  0  0
   24.0114  -22.0510  -16.1704 C   0  0  1  0  0  0  0  0  0  0  0  0
   24.2146  -23.5476  -15.8724 C   0  0  0  0  0  0  0  0  0  0  0  0
   25.4932  -24.0082  -16.4254 C   0  0  0  0  0  0  0  0  0  0  0  0
   26.4519  -23.3391  -17.1227 C   0  0  0  0  0  0  0  0  0  0  0  0
   27.4387  -24.2205  -17.4330 N   0  0  0  0  0  0  0  0  0  0  0  0
   27.1026  -25.4307  -16.9347 C   0  0  0  0  0  0  0  0  0  0  0  0
   25.9062  -25.2938  -16.3150 N   0  0  0  0  0  0  0  0  0  0  0  0
   23.3537  -21.3556  -15.0205 C   0  0  0  0  0  0  0  0  0  0  0  0
   23.9516  -20.9925  -13.9835 O   0  0  0  0  0  0  0  0  0  0  0  0
   19.3857  -17.7206  -19.7376 O   0  0  0  0  0  0  0  0  0  0  0  0
   19.8542  -17.9837  -18.4478 C   0  0  0  0  0  0  0  0  0  0  0  0
   19.0008  -18.0894  -17.3686 C   0  0  0  0  0  0  0  0  0  0  0  0
   19.4995  -18.3490  -16.1238 C   0  0  0  0  0  0  0  0  0  0  0  0
   20.8589  -18.5232  -15.8384 C   0  0  0  0  0  0  0  0  0  0  0  0
   21.3823  -18.7919  -14.4937 C   0  0  0  0  0  0  0  0  0  0  0  0
   21.2389  -20.2396  -14.1461 C   0  0  2  0  0  0  0  0  0  0  0  0
   21.9709  -21.0809  -15.0883 N   0  0  0  0  0  0  0  0  0  0  0  0
   19.8310  -20.6325  -14.2252 C   0  0  0  0  0  0  0  0  0  0  0  0
   19.4523  -21.4348  -15.0981 O   0  0  0  0  0  0  0  0  0  0  0  0
   21.6803  -18.4061  -16.9658 C   0  0  0  0  0  0  0  0  0  0  0  0
   21.1966  -18.1483  -18.2108 C   0  0  0  0  0  0  0  0  0  0  0  0
   18.8955  -20.1238  -13.3401 O   0  0  0  0  0  0  0  0  0  0  0  0
  2  1  1  0
  3  2  1  0
  4  3  1  0
  5  4  1  0
  5  6  1  6
  7  5  1  0
  7  8  2  0
  9  7  1  0
 10  9  1  0
 10 11  1  1
 12 11  1  0
 12 16  1  0
 13 12  2  0
 14 13  1  0
 14 15  1  0
 15 16  2  0
 17 10  1  0
 18 17  2  0
 19 20  1  0
 20 21  2  0
 20 30  1  0
 21 22  1  0
 22 23  2  0
 23 24  1  0
 25 24  1  6
 25 26  1  0
 25 27  1  0
 26 17  1  0
 27 31  1  0
 28 27  2  0
 29 23  1  0
 30 29  2  0
M  END
$$$$
