MHY.pdb
     RDKit          3D

 31 32  0  0  1  0  0  0  0  0999 V2000
   29.4220  -19.3289   -6.0478 C   0  0  0  0  0  0  0  0  0  0  0  0
   28.1760  -18.8312   -7.2558 S   0  0  0  0  0  0  0  0  0  0  0  0
   27.5736  -20.2805   -8.1572 C   0  0  0  0  0  0  0  0  0  0  0  0
   26.6519  -19.8690   -9.2974 C   0  0  0  0  0  0  0  0  0  0  0  0
   26.2234  -20.9900  -10.1671 C   0  0  2  0  0  0  0  0  0  0  0  0
   27.2964  -21.8947  -10.4644 N   0  0  0  0  0  0  0  0  0  0  0  0
   25.6003  -20.4831  -11.4222 C   0  0  0  0  0  0  0  0  0  0  0  0
   24.5875  -19.7228  -11.3410 O   0  0  0  0  0  0  0  0  0  0  0  0
   26.0549  -20.7920  -12.7246 N   0  0  0  0  0  0  0  0  0  0  0  0
   25.4264  -20.3692  -13.9445 C   0  0  1  0  0  0  0  0  0  0  0  0
   26.4484  -20.3666  -15.0958 C   0  0  0  0  0  0  0  0  0  0  0  0
   26.8825  -18.9959  -15.3885 C   0  0  0  0  0  0  0  0  0  0  0  0
   26.4356  -17.8018  -14.9120 C   0  0  0  0  0  0  0  0  0  0  0  0
   27.1501  -16.8146  -15.5136 N   0  0  0  0  0  0  0  0  0  0  0  0
   28.0372  -17.3840  -16.3589 C   0  0  0  0  0  0  0  0  0  0  0  0
   27.8692  -18.7254  -16.2767 N   0  0  0  0  0  0  0  0  0  0  0  0
   24.2152  -21.1725  -14.2993 C   0  0  0  0  0  0  0  0  0  0  0  0
   24.1757  -22.4228  -14.2982 O   0  0  0  0  0  0  0  0  0  0  0  0
   16.3378  -22.2808  -10.9983 O   0  0  0  0  0  0  0  0  0  0  0  0
   17.6171  -21.9081  -11.4188 C   0  0  0  0  0  0  0  0  0  0  0  0
   18.7193  -22.7092  -11.2009 C   0  0  0  0  0  0  0  0  0  0  0  0
   19.9528  -22.3085  -11.6293 C   0  0  0  0  0  0  0  0  0  0  0  0
   20.2038  -21.1041  -12.2973 C   0  0  0  0  0  0  0  0  0  0  0  0
   21.5365  -20.6810  -12.7435 C   0  0  0  0  0  0  0  0  0  0  0  0
   21.6885  -20.8694  -14.2195 C   0  0  2  0  0  0  0  0  0  0  0  0
   23.0294  -20.4978  -14.6611 N   0  0  0  0  0  0  0  0  0  0  0  0
   20.7475  -20.0023  -14.9305 C   0  0  0  0  0  0  0  0  0  0  0  0
   21.0022  -18.7937  -15.0840 O   0  0  0  0  0  0  0  0  0  0  0  0
   19.0541  -20.3298  -12.4926 C   0  0  0  0  0  0  0  0  0  0  0  0
   17.8200  -20.7173  -12.0714 C   0  0  0  0  0  0  0  0  0  0  0  0
   19.5616  -20.5013  -15.4425 O   0  0  0  0  0  0  0  0  0  0  0  0
  2  1  1  0
  3  2  1  0
  4  3  1  0
  5  4  1  0
  5  6  1  6
  7  5  1  0
  7  8  2  0
  9  7  1  0
 10  9  1  0
 10 11  1  6
 12 11  1  0
 12 16  1  0
 13 12  2  0
 14 13  1  0
 14 15  1  0
 15 16  2  0
 17 10  1  0
 18 17  2  0
 19 20  1  0
 20 21  2  0
 20 30  1  0
 21 22  1  0
 22 23  2  0
 23 24  1  0
 25 24  1  1
 25 26  1  0
 25 27  1  0
 26 17  1  0
 27 31  1  0
 28 27  2  0
 29 23  1  0
 30 29  2  0
M  END
$$$$
