MHY.pdb
     RDKit          3D

 31 32  0  0  1  0  0  0  0  0999 V2000
   32.0512  -38.0162  -19.5726 C   0  0  0  0  0  0  0  0  0  0  0  0
   33.8004  -38.2503  -19.9534 S   0  0  0  0  0  0  0  0  0  0  0  0
   34.8166  -37.2579  -18.8316 C   0  0  0  0  0  0  0  0  0  0  0  0
   33.9734  -36.2140  -18.1117 C   0  0  0  0  0  0  0  0  0  0  0  0
   34.5937  -34.8694  -18.0497 C   0  0  2  0  0  0  0  0  0  0  0  0
   35.7805  -34.8495  -17.2439 N   0  0  0  0  0  0  0  0  0  0  0  0
   33.6158  -33.8526  -17.5701 C   0  0  0  0  0  0  0  0  0  0  0  0
   33.2618  -33.8682  -16.3515 O   0  0  0  0  0  0  0  0  0  0  0  0
   33.0349  -32.8526  -18.3832 N   0  0  0  0  0  0  0  0  0  0  0  0
   31.9556  -31.9896  -17.9930 C   0  0  1  0  0  0  0  0  0  0  0  0
   31.6824  -30.9491  -19.0941 C   0  0  0  0  0  0  0  0  0  0  0  0
   32.7590  -29.9530  -19.1323 C   0  0  0  0  0  0  0  0  0  0  0  0
   33.8370  -29.7787  -18.3195 C   0  0  0  0  0  0  0  0  0  0  0  0
   34.5263  -28.6942  -18.7618 N   0  0  0  0  0  0  0  0  0  0  0  0
   33.8875  -28.1935  -19.8420 C   0  0  0  0  0  0  0  0  0  0  0  0
   32.8023  -28.9723  -20.0661 N   0  0  0  0  0  0  0  0  0  0  0  0
   30.7071  -32.7274  -17.6251 C   0  0  0  0  0  0  0  0  0  0  0  0
   30.3082  -33.7645  -18.1996 O   0  0  0  0  0  0  0  0  0  0  0  0
   22.5290  -31.5644  -15.1473 O   0  0  0  0  0  0  0  0  0  0  0  0
   23.9129  -31.7365  -15.0626 C   0  0  0  0  0  0  0  0  0  0  0  0
   24.4752  -32.8635  -14.4988 C   0  0  0  0  0  0  0  0  0  0  0  0
   25.8335  -32.9936  -14.4367 C   0  0  0  0  0  0  0  0  0  0  0  0
   26.7405  -32.0408  -14.9156 C   0  0  0  0  0  0  0  0  0  0  0  0
   28.1985  -32.1889  -14.8334 C   0  0  0  0  0  0  0  0  0  0  0  0
   28.7289  -32.9086  -16.0326 C   0  0  2  0  0  0  0  0  0  0  0  0
   29.9129  -32.2406  -16.5647 N   0  0  0  0  0  0  0  0  0  0  0  0
   27.7232  -32.9100  -17.0963 C   0  0  0  0  0  0  0  0  0  0  0  0
   27.7752  -32.0655  -18.0090 O   0  0  0  0  0  0  0  0  0  0  0  0
   26.1196  -30.9188  -15.4766 C   0  0  0  0  0  0  0  0  0  0  0  0
   24.7684  -30.7770  -15.5450 C   0  0  0  0  0  0  0  0  0  0  0  0
   26.6985  -33.8412  -17.1107 O   0  0  0  0  0  0  0  0  0  0  0  0
  2  1  1  0
  3  2  1  0
  4  3  1  0
  5  4  1  0
  5  6  1  1
  7  5  1  0
  7  8  2  0
  9  7  1  0
 10  9  1  0
 10 11  1  6
 12 11  1  0
 12 16  1  0
 13 12  2  0
 14 13  1  0
 14 15  1  0
 15 16  2  0
 17 10  1  0
 18 17  2  0
 19 20  1  0
 20 21  2  0
 20 30  1  0
 21 22  1  0
 22 23  2  0
 23 24  1  0
 25 24  1  1
 25 26  1  0
 25 27  1  0
 26 17  1  0
 27 31  1  0
 28 27  2  0
 29 23  1  0
 30 29  2  0
M  END
$$$$
