SFP.pdb
     RDKit          3D

 25 26  0  0  1  0  0  0  0  0999 V2000
    8.4824  -15.6269   19.0517 O   0  0  0  0  0  0  0  0  0  0  0  0
    7.2072  -15.1283   19.3127 C   0  0  0  0  0  0  0  0  0  0  0  0
    7.2864  -13.8032   20.0811 C   0  0  2  0  0  0  0  0  0  0  0  0
    8.1130  -12.9165   19.2867 N   0  0  0  0  0  0  0  0  0  0  0  0
    7.9828  -14.0931   21.3540 C   0  0  0  0  0  0  0  0  0  0  0  0
    9.2241  -13.9105   21.4461 O   0  0  0  0  0  0  0  0  0  0  0  0
    7.3230  -14.5769   22.5087 N   0  0  0  0  0  0  0  0  0  0  0  0
    8.0701  -14.9073   23.7143 C   0  0  1  0  0  0  0  0  0  0  0  0
    7.1186  -14.8172   24.9133 C   0  0  0  0  0  0  0  0  0  0  0  0
    7.0949  -13.4874   25.5259 C   0  0  0  0  0  0  0  0  0  0  0  0
    6.0809  -13.1938   26.4523 C   0  0  0  0  0  0  0  0  0  0  0  0
    5.9772  -11.9720   27.0723 C   0  0  0  0  0  0  0  0  0  0  0  0
    6.8819  -10.9731   26.8015 C   0  0  0  0  0  0  0  0  0  0  0  0
    7.8887  -11.2209   25.9008 C   0  0  0  0  0  0  0  0  0  0  0  0
    7.9718  -12.4712   25.2843 C   0  0  0  0  0  0  0  0  0  0  0  0
    8.7191  -16.2157   23.6960 C   0  0  0  0  0  0  0  0  0  0  0  0
    8.1349  -17.1268   23.0143 O   0  0  0  0  0  0  0  0  0  0  0  0
    9.9111  -16.4931   24.3611 N   0  0  0  0  0  0  0  0  0  0  0  0
   10.7203  -15.5577   25.1091 C   0  0  0  0  0  0  0  0  0  0  0  0
   12.0334  -15.7899   24.3417 C   0  0  0  0  0  0  0  0  0  0  0  0
   12.1273  -17.2819   24.3741 C   0  0  0  0  0  0  0  0  0  0  0  0
   10.6539  -17.7281   24.4223 C   0  0  1  0  0  0  0  0  0  0  0  0
   10.3986  -18.4544   25.6739 C   0  0  0  0  0  0  0  0  0  0  0  0
   10.8341  -19.7799   25.8525 O   0  0  0  0  0  0  0  0  0  0  0  0
    9.7871  -17.9075   26.6090 O   0  0  0  0  0  0  0  0  0  0  0  0
  2  1  1  0
  3  2  1  0
  3  4  1  6
  5  3  1  0
  5  6  2  0
  7  5  1  0
  8  7  1  0
  8  9  1  1
  9 10  1  0
 10 11  2  0
 10 15  1  0
 11 12  1  0
 12 13  2  0
 14 13  1  0
 15 14  2  0
 16  8  1  0
 17 16  2  0
 18 22  1  0
 18 16  1  0
 19 20  1  0
 19 18  1  0
 20 21  1  0
 21 22  1  0
 23 24  1  0
 22 23  1  1
 25 23  2  0
M  END
$$$$
