SFP.pdb
     RDKit          3D

 25 26  0  0  1  0  0  0  0  0999 V2000
   10.8677  -19.2611   22.0435 O   0  0  0  0  0  0  0  0  0  0  0  0
   11.8090  -18.2534   21.8400 C   0  0  0  0  0  0  0  0  0  0  0  0
   11.1480  -17.0001   21.2529 C   0  0  2  0  0  0  0  0  0  0  0  0
   12.1751  -16.3085   20.4995 N   0  0  0  0  0  0  0  0  0  0  0  0
   10.7471  -16.1562   22.4003 C   0  0  0  0  0  0  0  0  0  0  0  0
   11.6262  -15.6036   23.1106 O   0  0  0  0  0  0  0  0  0  0  0  0
    9.3986  -15.9237   22.7609 N   0  0  0  0  0  0  0  0  0  0  0  0
    9.0638  -15.2083   23.9844 C   0  0  1  0  0  0  0  0  0  0  0  0
    7.6750  -14.5810   23.8137 C   0  0  0  0  0  0  0  0  0  0  0  0
    7.2559  -13.7947   24.9757 C   0  0  0  0  0  0  0  0  0  0  0  0
    7.6049  -12.4353   25.0267 C   0  0  0  0  0  0  0  0  0  0  0  0
    7.2594  -11.6224   26.0792 C   0  0  0  0  0  0  0  0  0  0  0  0
    6.5447  -12.1223   27.1417 C   0  0  0  0  0  0  0  0  0  0  0  0
    6.1843  -13.4475   27.1295 C   0  0  0  0  0  0  0  0  0  0  0  0
    6.5480  -14.2524   26.0477 C   0  0  0  0  0  0  0  0  0  0  0  0
    9.0934  -16.0196   25.1985 C   0  0  0  0  0  0  0  0  0  0  0  0
    8.7361  -17.2411   25.0709 O   0  0  0  0  0  0  0  0  0  0  0  0
    9.4911  -15.5314   26.4410 N   0  0  0  0  0  0  0  0  0  0  0  0
    9.3275  -14.1815   26.9310 C   0  0  0  0  0  0  0  0  0  0  0  0
   10.8085  -13.9184   27.2543 C   0  0  0  0  0  0  0  0  0  0  0  0
   11.1477  -15.1300   28.0622 C   0  0  0  0  0  0  0  0  0  0  0  0
   10.2003  -16.2065   27.5004 C   0  0  1  0  0  0  0  0  0  0  0  0
    9.2894  -16.6638   28.5588 C   0  0  0  0  0  0  0  0  0  0  0  0
    9.7248  -17.5371   29.5719 O   0  0  0  0  0  0  0  0  0  0  0  0
    8.1047  -16.2850   28.5809 O   0  0  0  0  0  0  0  0  0  0  0  0
  2  1  1  0
  3  2  1  0
  3  4  1  6
  5  3  1  0
  5  6  2  0
  7  5  1  0
  8  7  1  0
  8  9  1  6
  9 10  1  0
 10 11  2  0
 10 15  1  0
 11 12  1  0
 12 13  2  0
 14 13  1  0
 15 14  2  0
 16  8  1  0
 17 16  2  0
 18 22  1  0
 18 16  1  0
 19 20  1  0
 19 18  1  0
 20 21  1  0
 21 22  1  0
 23 24  1  0
 22 23  1  1
 25 23  2  0
M  END
$$$$
