SFP.pdb
     RDKit          3D

 25 26  0  0  1  0  0  0  0  0999 V2000
   12.1117  -18.7843   22.4287 O   0  0  0  0  0  0  0  0  0  0  0  0
   11.0099  -18.4667   21.6362 C   0  0  0  0  0  0  0  0  0  0  0  0
   11.0873  -17.0133   21.1520 C   0  0  2  0  0  0  0  0  0  0  0  0
   12.4691  -16.7755   20.7850 N   0  0  0  0  0  0  0  0  0  0  0  0
   10.7480  -16.1617   22.3134 C   0  0  0  0  0  0  0  0  0  0  0  0
   11.6650  -15.6724   23.0222 O   0  0  0  0  0  0  0  0  0  0  0  0
    9.4192  -15.8530   22.6896 N   0  0  0  0  0  0  0  0  0  0  0  0
    9.1364  -15.1659   23.9420 C   0  0  1  0  0  0  0  0  0  0  0  0
    7.7258  -14.5703   23.8596 C   0  0  0  0  0  0  0  0  0  0  0  0
    7.4052  -13.7003   24.9929 C   0  0  0  0  0  0  0  0  0  0  0  0
    6.6592  -14.2327   26.0570 C   0  0  0  0  0  0  0  0  0  0  0  0
    6.3078  -13.4895   27.1581 C   0  0  0  0  0  0  0  0  0  0  0  0
    6.6823  -12.1707   27.2584 C   0  0  0  0  0  0  0  0  0  0  0  0
    7.4130  -11.6128   26.2380 C   0  0  0  0  0  0  0  0  0  0  0  0
    7.7571  -12.3897   25.1297 C   0  0  0  0  0  0  0  0  0  0  0  0
    9.2530  -15.9957   25.1383 C   0  0  0  0  0  0  0  0  0  0  0  0
    9.0030  -17.2412   24.9887 O   0  0  0  0  0  0  0  0  0  0  0  0
    9.6222  -15.4995   26.3864 N   0  0  0  0  0  0  0  0  0  0  0  0
    9.4440  -14.1473   26.8651 C   0  0  0  0  0  0  0  0  0  0  0  0
   10.9168  -13.8778   27.2190 C   0  0  0  0  0  0  0  0  0  0  0  0
   11.2420  -15.0840   28.0409 C   0  0  0  0  0  0  0  0  0  0  0  0
   10.3102  -16.1665   27.4646 C   0  0  1  0  0  0  0  0  0  0  0  0
    9.3778  -16.6207   28.5056 C   0  0  0  0  0  0  0  0  0  0  0  0
    9.8046  -17.4496   29.5589 O   0  0  0  0  0  0  0  0  0  0  0  0
    8.1821  -16.2788   28.4766 O   0  0  0  0  0  0  0  0  0  0  0  0
  2  1  1  0
  3  2  1  0
  3  4  1  1
  5  3  1  0
  5  6  2  0
  7  5  1  0
  8  7  1  0
  8  9  1  6
  9 10  1  0
 10 11  2  0
 10 15  1  0
 11 12  1  0
 12 13  2  0
 14 13  1  0
 15 14  2  0
 16  8  1  0
 17 16  2  0
 18 22  1  0
 18 16  1  0
 19 20  1  0
 19 18  1  0
 20 21  1  0
 21 22  1  0
 23 24  1  0
 22 23  1  1
 25 23  2  0
M  END
$$$$
