SFP.pdb
     RDKit          3D

 25 26  0  0  1  0  0  0  0  0999 V2000
   11.7871  -18.8944   22.2472 O   0  0  0  0  0  0  0  0  0  0  0  0
   10.8239  -18.3017   21.4325 C   0  0  0  0  0  0  0  0  0  0  0  0
   11.1608  -16.8279   21.1735 C   0  0  2  0  0  0  0  0  0  0  0  0
   12.6003  -16.7562   21.0206 N   0  0  0  0  0  0  0  0  0  0  0  0
   10.7720  -16.0844   22.3922 C   0  0  0  0  0  0  0  0  0  0  0  0
   11.6570  -15.6783   23.1888 O   0  0  0  0  0  0  0  0  0  0  0  0
    9.4291  -15.7920   22.7296 N   0  0  0  0  0  0  0  0  0  0  0  0
    9.1006  -15.1224   23.9803 C   0  0  1  0  0  0  0  0  0  0  0  0
    7.7205  -14.4707   23.8324 C   0  0  0  0  0  0  0  0  0  0  0  0
    7.3348  -13.6766   25.0007 C   0  0  0  0  0  0  0  0  0  0  0  0
    6.6006  -14.3003   26.0227 C   0  0  0  0  0  0  0  0  0  0  0  0
    6.1914  -13.6329   27.1519 C   0  0  0  0  0  0  0  0  0  0  0  0
    6.4931  -12.3029   27.3243 C   0  0  0  0  0  0  0  0  0  0  0  0
    7.2099  -11.6568   26.3470 C   0  0  0  0  0  0  0  0  0  0  0  0
    7.6138  -12.3579   25.2088 C   0  0  0  0  0  0  0  0  0  0  0  0
    9.1166  -15.9825   25.1607 C   0  0  0  0  0  0  0  0  0  0  0  0
    8.7592  -17.1972   24.9798 O   0  0  0  0  0  0  0  0  0  0  0  0
    9.5021  -15.5459   26.4261 N   0  0  0  0  0  0  0  0  0  0  0  0
    9.3396  -14.2154   26.9670 C   0  0  0  0  0  0  0  0  0  0  0  0
   10.8180  -13.9736   27.3178 C   0  0  0  0  0  0  0  0  0  0  0  0
   11.1413  -15.2181   28.0811 C   0  0  0  0  0  0  0  0  0  0  0  0
   10.1951  -16.2662   27.4662 C   0  0  1  0  0  0  0  0  0  0  0  0
    9.2692  -16.7597   28.4950 C   0  0  0  0  0  0  0  0  0  0  0  0
    7.8810  -16.5608   28.3861 O   0  0  0  0  0  0  0  0  0  0  0  0
    9.6976  -17.3684   29.4917 O   0  0  0  0  0  0  0  0  0  0  0  0
  2  1  1  0
  3  2  1  0
  3  4  1  1
  5  3  1  0
  5  6  2  0
  7  5  1  0
  8  7  1  0
  8  9  1  6
  9 10  1  0
 10 11  2  0
 10 15  1  0
 11 12  1  0
 12 13  2  0
 14 13  1  0
 15 14  2  0
 16  8  1  0
 17 16  2  0
 18 22  1  0
 18 16  1  0
 19 20  1  0
 19 18  1  0
 20 21  1  0
 21 22  1  0
 23 24  1  0
 22 23  1  1
 25 23  2  0
M  END
$$$$
