SFP.pdb
     RDKit          3D

 25 26  0  0  1  0  0  0  0  0999 V2000
    8.1276  -20.1224   21.0014 O   0  0  0  0  0  0  0  0  0  0  0  0
    6.8398  -19.8903   21.4816 C   0  0  0  0  0  0  0  0  0  0  0  0
    6.3332  -18.5117   21.0396 C   0  0  2  0  0  0  0  0  0  0  0  0
    6.7865  -18.3253   19.6757 N   0  0  0  0  0  0  0  0  0  0  0  0
    7.0033  -17.5168   21.9061 C   0  0  0  0  0  0  0  0  0  0  0  0
    8.1119  -17.0311   21.5629 O   0  0  0  0  0  0  0  0  0  0  0  0
    6.4615  -17.0631   23.1321 N   0  0  0  0  0  0  0  0  0  0  0  0
    7.2282  -16.1925   24.0125 C   0  0  1  0  0  0  0  0  0  0  0  0
    6.2597  -15.5239   24.9954 C   0  0  0  0  0  0  0  0  0  0  0  0
    6.8753  -14.4304   25.7502 C   0  0  0  0  0  0  0  0  0  0  0  0
    6.7010  -13.1156   25.2885 C   0  0  0  0  0  0  0  0  0  0  0  0
    7.2459  -12.0289   25.9289 C   0  0  0  0  0  0  0  0  0  0  0  0
    7.9967  -12.1946   27.0684 C   0  0  0  0  0  0  0  0  0  0  0  0
    8.1904  -13.4653   27.5521 C   0  0  0  0  0  0  0  0  0  0  0  0
    7.6258  -14.5530   26.8823 C   0  0  0  0  0  0  0  0  0  0  0  0
    8.3011  -16.8549   24.7497 C   0  0  0  0  0  0  0  0  0  0  0  0
    7.9999  -17.9638   25.3115 O   0  0  0  0  0  0  0  0  0  0  0  0
    9.5938  -16.3460   24.8506 N   0  0  0  0  0  0  0  0  0  0  0  0
   10.0151  -14.9948   24.5575 C   0  0  0  0  0  0  0  0  0  0  0  0
   11.1031  -15.3558   23.5313 C   0  0  0  0  0  0  0  0  0  0  0  0
   11.8761  -16.3926   24.2821 C   0  0  0  0  0  0  0  0  0  0  0  0
   10.8160  -17.0271   25.2018 C   0  0  1  0  0  0  0  0  0  0  0  0
   11.1809  -16.7988   26.6068 C   0  0  0  0  0  0  0  0  0  0  0  0
   10.4331  -15.9332   27.4255 O   0  0  0  0  0  0  0  0  0  0  0  0
   12.1666  -17.3709   27.1052 O   0  0  0  0  0  0  0  0  0  0  0  0
  2  1  1  0
  3  2  1  0
  3  4  1  6
  5  3  1  0
  5  6  2  0
  7  5  1  0
  8  7  1  0
  8  9  1  1
  9 10  1  0
 10 11  2  0
 10 15  1  0
 11 12  1  0
 12 13  2  0
 14 13  1  0
 15 14  2  0
 16  8  1  0
 17 16  2  0
 18 22  1  0
 18 16  1  0
 19 20  1  0
 19 18  1  0
 20 21  1  0
 21 22  1  0
 23 24  1  0
 22 23  1  1
 25 23  2  0
M  END
$$$$
