SFP.pdb
     RDKit          3D

 25 26  0  0  1  0  0  0  0  0999 V2000
   11.9472  -18.7525   22.3861 O   0  0  0  0  0  0  0  0  0  0  0  0
   10.8419  -18.2593   21.6948 C   0  0  0  0  0  0  0  0  0  0  0  0
   11.0696  -16.8031   21.2701 C   0  0  2  0  0  0  0  0  0  0  0  0
   12.4948  -16.6572   21.0508 N   0  0  0  0  0  0  0  0  0  0  0  0
   10.6743  -15.9602   22.4202 C   0  0  0  0  0  0  0  0  0  0  0  0
   11.5477  -15.5509   23.2279 O   0  0  0  0  0  0  0  0  0  0  0  0
    9.3377  -15.5732   22.6777 N   0  0  0  0  0  0  0  0  0  0  0  0
    8.9600  -14.9944   23.9595 C   0  0  1  0  0  0  0  0  0  0  0  0
    7.5149  -14.4919   23.8566 C   0  0  0  0  0  0  0  0  0  0  0  0
    7.0534  -13.8244   25.0754 C   0  0  0  0  0  0  0  0  0  0  0  0
    7.3146  -12.4530   25.2289 C   0  0  0  0  0  0  0  0  0  0  0  0
    6.9242  -11.7460   26.3405 C   0  0  0  0  0  0  0  0  0  0  0  0
    6.2498  -12.3698   27.3630 C   0  0  0  0  0  0  0  0  0  0  0  0
    5.9752  -13.7108   27.2509 C   0  0  0  0  0  0  0  0  0  0  0  0
    6.3830  -14.4065   26.1107 C   0  0  0  0  0  0  0  0  0  0  0  0
    9.0897  -15.8944   25.1025 C   0  0  0  0  0  0  0  0  0  0  0  0
    8.7548  -17.1127   24.9034 O   0  0  0  0  0  0  0  0  0  0  0  0
    9.5568  -15.4905   26.3511 N   0  0  0  0  0  0  0  0  0  0  0  0
    9.5521  -14.1459   26.8811 C   0  0  0  0  0  0  0  0  0  0  0  0
   11.0575  -14.0591   27.1864 C   0  0  0  0  0  0  0  0  0  0  0  0
   11.2702  -15.3244   27.9544 C   0  0  0  0  0  0  0  0  0  0  0  0
   10.2005  -16.2715   27.3790 C   0  0  1  0  0  0  0  0  0  0  0  0
    9.2589  -16.6554   28.4397 C   0  0  0  0  0  0  0  0  0  0  0  0
    7.8962  -16.3143   28.3670 O   0  0  0  0  0  0  0  0  0  0  0  0
    9.6506  -17.2952   29.4320 O   0  0  0  0  0  0  0  0  0  0  0  0
  2  1  1  0
  3  2  1  0
  3  4  1  1
  5  3  1  0
  5  6  2  0
  7  5  1  0
  8  7  1  0
  8  9  1  6
  9 10  1  0
 10 11  2  0
 10 15  1  0
 11 12  1  0
 12 13  2  0
 14 13  1  0
 15 14  2  0
 16  8  1  0
 17 16  2  0
 18 22  1  0
 18 16  1  0
 19 20  1  0
 19 18  1  0
 20 21  1  0
 21 22  1  0
 23 24  1  0
 22 23  1  1
 25 23  2  0
M  END
$$$$
