SFP.pdb
     RDKit          3D

 25 26  0  0  1  0  0  0  0  0999 V2000
   11.5294  -18.8636   22.1806 O   0  0  0  0  0  0  0  0  0  0  0  0
   10.5628  -18.2686   21.3716 C   0  0  0  0  0  0  0  0  0  0  0  0
   10.9147  -16.8025   21.0898 C   0  0  2  0  0  0  0  0  0  0  0  0
   12.3482  -16.7569   20.8810 N   0  0  0  0  0  0  0  0  0  0  0  0
   10.5863  -16.0450   22.3176 C   0  0  0  0  0  0  0  0  0  0  0  0
   11.5038  -15.6974   23.1050 O   0  0  0  0  0  0  0  0  0  0  0  0
    9.2675  -15.6753   22.6739 N   0  0  0  0  0  0  0  0  0  0  0  0
    8.9845  -15.0654   23.9657 C   0  0  1  0  0  0  0  0  0  0  0  0
    7.5965  -14.4169   23.9010 C   0  0  0  0  0  0  0  0  0  0  0  0
    7.2755  -13.6325   25.0951 C   0  0  0  0  0  0  0  0  0  0  0  0
    7.6170  -12.2704   25.1145 C   0  0  0  0  0  0  0  0  0  0  0  0
    7.3595  -11.4590   26.1930 C   0  0  0  0  0  0  0  0  0  0  0  0
    6.7454  -11.9632   27.3148 C   0  0  0  0  0  0  0  0  0  0  0  0
    6.3957  -13.2912   27.3351 C   0  0  0  0  0  0  0  0  0  0  0  0
    6.6687  -14.0945   26.2258 C   0  0  0  0  0  0  0  0  0  0  0  0
    9.0507  -15.9781   25.1040 C   0  0  0  0  0  0  0  0  0  0  0  0
    8.7007  -17.1877   24.8797 O   0  0  0  0  0  0  0  0  0  0  0  0
    9.4747  -15.5948   26.3743 N   0  0  0  0  0  0  0  0  0  0  0  0
    9.3777  -14.2748   26.9552 C   0  0  0  0  0  0  0  0  0  0  0  0
   10.8704  -14.1056   27.2870 C   0  0  0  0  0  0  0  0  0  0  0  0
   11.1529  -15.3841   28.0093 C   0  0  0  0  0  0  0  0  0  0  0  0
   10.1532  -16.3733   27.3815 C   0  0  1  0  0  0  0  0  0  0  0  0
    9.2239  -16.8569   28.4120 C   0  0  0  0  0  0  0  0  0  0  0  0
    9.6494  -17.7306   29.4290 O   0  0  0  0  0  0  0  0  0  0  0  0
    8.0320  -16.5009   28.4061 O   0  0  0  0  0  0  0  0  0  0  0  0
  2  1  1  0
  3  2  1  0
  3  4  1  1
  5  3  1  0
  5  6  2  0
  7  5  1  0
  8  7  1  0
  8  9  1  6
  9 10  1  0
 10 11  2  0
 10 15  1  0
 11 12  1  0
 12 13  2  0
 14 13  1  0
 15 14  2  0
 16  8  1  0
 17 16  2  0
 18 22  1  0
 18 16  1  0
 19 20  1  0
 19 18  1  0
 20 21  1  0
 21 22  1  0
 23 24  1  0
 22 23  1  1
 25 23  2  0
M  END
$$$$
