SFP.pdb
     RDKit          3D

 25 26  0  0  1  0  0  0  0  0999 V2000
   11.4511  -18.7823   22.2100 O   0  0  0  0  0  0  0  0  0  0  0  0
   10.5767  -18.1661   21.3164 C   0  0  0  0  0  0  0  0  0  0  0  0
   10.9664  -16.6991   21.0960 C   0  0  2  0  0  0  0  0  0  0  0  0
   12.4037  -16.6791   20.9111 N   0  0  0  0  0  0  0  0  0  0  0  0
   10.6354  -15.9809   22.3465 C   0  0  0  0  0  0  0  0  0  0  0  0
   11.5478  -15.6841   23.1603 O   0  0  0  0  0  0  0  0  0  0  0  0
    9.3197  -15.5948   22.6967 N   0  0  0  0  0  0  0  0  0  0  0  0
    9.0364  -14.9915   23.9915 C   0  0  1  0  0  0  0  0  0  0  0  0
    7.6169  -14.4128   23.9557 C   0  0  0  0  0  0  0  0  0  0  0  0
    7.2905  -13.6244   25.1457 C   0  0  0  0  0  0  0  0  0  0  0  0
    6.4997  -14.2146   26.1450 C   0  0  0  0  0  0  0  0  0  0  0  0
    6.1397  -13.5491   27.2920 C   0  0  0  0  0  0  0  0  0  0  0  0
    6.5500  -12.2547   27.5057 C   0  0  0  0  0  0  0  0  0  0  0  0
    7.3250  -11.6419   26.5516 C   0  0  0  0  0  0  0  0  0  0  0  0
    7.6770  -12.3403   25.3946 C   0  0  0  0  0  0  0  0  0  0  0  0
    9.1737  -15.8927   25.1327 C   0  0  0  0  0  0  0  0  0  0  0  0
    8.9129  -17.1257   24.9138 O   0  0  0  0  0  0  0  0  0  0  0  0
    9.5729  -15.4746   26.4000 N   0  0  0  0  0  0  0  0  0  0  0  0
    9.4660  -14.1390   26.9421 C   0  0  0  0  0  0  0  0  0  0  0  0
   10.9521  -13.9615   27.2986 C   0  0  0  0  0  0  0  0  0  0  0  0
   11.2186  -15.2197   28.0615 C   0  0  0  0  0  0  0  0  0  0  0  0
   10.2304  -16.2253   27.4417 C   0  0  1  0  0  0  0  0  0  0  0  0
    9.2803  -16.6796   28.4665 C   0  0  0  0  0  0  0  0  0  0  0  0
    9.6753  -17.5566   29.4929 O   0  0  0  0  0  0  0  0  0  0  0  0
    8.0976  -16.2948   28.4474 O   0  0  0  0  0  0  0  0  0  0  0  0
  2  1  1  0
  3  2  1  0
  3  4  1  1
  5  3  1  0
  5  6  2  0
  7  5  1  0
  8  7  1  0
  8  9  1  6
  9 10  1  0
 10 11  2  0
 10 15  1  0
 11 12  1  0
 12 13  2  0
 14 13  1  0
 15 14  2  0
 16  8  1  0
 17 16  2  0
 18 22  1  0
 18 16  1  0
 19 20  1  0
 19 18  1  0
 20 21  1  0
 21 22  1  0
 23 24  1  0
 22 23  1  1
 25 23  2  0
M  END
$$$$
