VQE.pdb
     RDKit          3D

 26 25  0  0  1  0  0  0  0  0999 V2000
   17.1554  -13.1664  -16.9272 C   0  0  0  0  0  0  0  0  0  0  0  0
   18.4074  -12.7499  -16.1862 C   0  0  1  0  0  0  0  0  0  0  0  0
   19.4074  -13.8564  -16.3067 C   0  0  0  0  0  0  0  0  0  0  0  0
   18.9052  -11.4216  -16.6961 C   0  0  2  0  0  0  0  0  0  0  0  0
   19.1039  -11.4288  -18.1101 N   0  0  0  0  0  0  0  0  0  0  0  0
   20.0739  -10.9283  -15.9380 C   0  0  0  0  0  0  0  0  0  0  0  0
   19.8724  -10.6647  -14.7029 O   0  0  0  0  0  0  0  0  0  0  0  0
   26.1058  -11.8200  -16.9075 N   0  0  0  0  0  0  0  0  0  0  0  0
   26.1605  -10.7683  -15.9317 C   0  0  0  0  0  0  0  0  0  0  0  0
   27.2951  -10.4384  -15.5145 O   0  0  0  0  0  0  0  0  0  0  0  0
   24.9137  -10.1158  -15.4532 C   0  0  0  0  0  0  0  0  0  0  0  0
   23.7577  -10.7370  -16.1856 C   0  0  0  0  0  0  0  0  0  0  0  0
   22.4335  -10.1055  -15.8138 C   0  0  2  0  0  0  0  0  0  0  0  0
   21.3504  -10.7477  -16.5135 N   0  0  0  0  0  0  0  0  0  0  0  0
   22.4584   -8.6401  -16.0308 C   0  0  0  0  0  0  0  0  0  0  0  0
   22.7317   -8.2119  -17.1715 O   0  0  0  0  0  0  0  0  0  0  0  0
   22.1851   -7.7521  -14.9944 N   0  0  0  0  0  0  0  0  0  0  0  0
   22.1950   -6.2923  -15.1450 C   0  0  1  0  0  0  0  0  0  0  0  0
   21.0095   -5.8143  -15.8852 C   0  0  0  0  0  0  0  0  0  0  0  0
   19.7329   -6.1561  -15.1809 C   0  0  0  0  0  0  0  0  0  0  0  0
   18.5150   -5.5846  -15.8007 C   0  0  0  0  0  0  0  0  0  0  0  0
   18.0395   -6.2044  -16.7859 O   0  0  0  0  0  0  0  0  0  0  0  0
   22.2193   -5.7454  -13.7773 C   0  0  0  0  0  0  0  0  0  0  0  0
   22.4409   -4.3837  -13.5023 O   0  0  0  0  0  0  0  0  0  0  0  0
   17.8699   -4.4381  -15.3884 O   0  0  0  0  0  0  0  0  0  0  0  0
   22.0353   -6.5308  -12.7872 O   0  0  0  0  0  0  0  0  0  0  0  0
  2  1  1  6
  2  3  1  0
  4  2  1  0
  4  5  1  6
  6  4  1  0
  6  7  2  0
  9 10  2  0
  9  8  1  0
 11  9  1  0
 13 12  1  6
 12 11  1  0
 13 14  1  0
 14  6  1  0
 15 13  1  0
 16 15  2  0
 17 15  1  0
 18 19  1  1
 18 17  1  0
 19 20  1  0
 21 20  1  0
 21 25  1  0
 22 21  2  0
 23 24  1  0
 23 18  1  0
 26 23  2  0
M  END
$$$$
