VQE.pdb
     RDKit          3D

 26 25  0  0  1  0  0  0  0  0999 V2000
   27.8978  -21.4107  -11.2693 C   0  0  0  0  0  0  0  0  0  0  0  0
   26.3973  -21.5374  -11.4185 C   0  0  1  0  0  0  0  0  0  0  0  0
   25.7542  -20.5642  -10.4814 C   0  0  0  0  0  0  0  0  0  0  0  0
   25.9927  -21.3533  -12.8589 C   0  0  2  0  0  0  0  0  0  0  0  0
   26.5298  -20.1548  -13.4191 N   0  0  0  0  0  0  0  0  0  0  0  0
   24.5356  -21.4973  -13.0585 C   0  0  0  0  0  0  0  0  0  0  0  0
   24.1081  -22.6888  -13.2405 O   0  0  0  0  0  0  0  0  0  0  0  0
   19.8288  -21.1794   -9.9800 N   0  0  0  0  0  0  0  0  0  0  0  0
   20.5311  -19.9284  -10.0361 C   0  0  0  0  0  0  0  0  0  0  0  0
   20.2975  -19.1040   -9.1219 O   0  0  0  0  0  0  0  0  0  0  0  0
   21.4870  -19.6473  -11.1390 C   0  0  0  0  0  0  0  0  0  0  0  0
   21.4485  -20.8101  -12.0903 C   0  0  0  0  0  0  0  0  0  0  0  0
   22.2397  -20.5477  -13.3536 C   0  0  2  0  0  0  0  0  0  0  0  0
   23.6415  -20.4047  -13.0543 N   0  0  0  0  0  0  0  0  0  0  0  0
   21.6970  -19.3850  -14.0945 C   0  0  0  0  0  0  0  0  0  0  0  0
   22.0315  -18.2384  -13.7305 O   0  0  0  0  0  0  0  0  0  0  0  0
   20.8335  -19.5554  -15.1729 N   0  0  0  0  0  0  0  0  0  0  0  0
   20.4089  -18.4660  -16.0598 C   0  0  1  0  0  0  0  0  0  0  0  0
   20.9416  -18.6390  -17.4266 C   0  0  0  0  0  0  0  0  0  0  0  0
   20.6115  -17.4749  -18.3090 C   0  0  0  0  0  0  0  0  0  0  0  0
   21.0844  -17.6073  -19.7063 C   0  0  0  0  0  0  0  0  0  0  0  0
   21.6740  -18.6773  -20.0033 O   0  0  0  0  0  0  0  0  0  0  0  0
   18.9359  -18.4959  -16.0595 C   0  0  0  0  0  0  0  0  0  0  0  0
   18.1486  -17.3800  -16.3970 O   0  0  0  0  0  0  0  0  0  0  0  0
   20.9325  -16.6595  -20.6959 O   0  0  0  0  0  0  0  0  0  0  0  0
   18.3332  -19.5751  -15.7384 O   0  0  0  0  0  0  0  0  0  0  0  0
  2  1  1  6
  2  3  1  0
  4  2  1  0
  4  5  1  1
  6  4  1  0
  6  7  2  0
  9 10  2  0
  9  8  1  0
 11  9  1  0
 13 12  1  1
 12 11  1  0
 13 14  1  0
 14  6  1  0
 15 13  1  0
 16 15  2  0
 17 15  1  0
 18 19  1  6
 18 17  1  0
 19 20  1  0
 21 20  1  0
 21 25  1  0
 22 21  2  0
 23 24  1  0
 23 18  1  0
 26 23  2  0
M  END
$$$$
