VQE.pdb
     RDKit          3D

 26 25  0  0  1  0  0  0  0  0999 V2000
   27.2433  -23.4852  -19.0502 C   0  0  0  0  0  0  0  0  0  0  0  0
   26.1362  -23.0175  -18.1305 C   0  0  1  0  0  0  0  0  0  0  0  0
   25.6033  -24.2108  -17.4020 C   0  0  0  0  0  0  0  0  0  0  0  0
   26.6325  -21.9216  -17.2221 C   0  0  2  0  0  0  0  0  0  0  0  0
   27.7834  -22.3208  -16.4772 N   0  0  0  0  0  0  0  0  0  0  0  0
   25.5560  -21.3515  -16.3855 C   0  0  0  0  0  0  0  0  0  0  0  0
   25.4859  -21.7876  -15.1854 O   0  0  0  0  0  0  0  0  0  0  0  0
   22.9065  -15.8078  -16.9784 N   0  0  0  0  0  0  0  0  0  0  0  0
   22.1733  -16.3342  -15.8618 C   0  0  0  0  0  0  0  0  0  0  0  0
   21.4394  -15.5344  -15.2358 O   0  0  0  0  0  0  0  0  0  0  0  0
   22.2960  -17.7667  -15.4849 C   0  0  0  0  0  0  0  0  0  0  0  0
   23.3437  -18.3873  -16.3657 C   0  0  0  0  0  0  0  0  0  0  0  0
   23.5936  -19.8412  -16.0274 C   0  0  2  0  0  0  0  0  0  0  0  0
   24.6429  -20.3815  -16.8533 N   0  0  0  0  0  0  0  0  0  0  0  0
   22.3441  -20.6331  -16.1084 C   0  0  0  0  0  0  0  0  0  0  0  0
   21.9572  -21.0216  -17.2303 O   0  0  0  0  0  0  0  0  0  0  0  0
   21.6104  -20.9428  -14.9668 N   0  0  0  0  0  0  0  0  0  0  0  0
   20.3685  -21.7246  -14.9805 C   0  0  1  0  0  0  0  0  0  0  0  0
   20.1672  -22.4473  -13.7080 C   0  0  0  0  0  0  0  0  0  0  0  0
   18.9687  -23.3439  -13.7556 C   0  0  0  0  0  0  0  0  0  0  0  0
   18.7297  -24.1194  -12.5165 C   0  0  0  0  0  0  0  0  0  0  0  0
   19.5516  -23.9529  -11.5796 O   0  0  0  0  0  0  0  0  0  0  0  0
   19.2839  -20.7556  -15.2147 C   0  0  0  0  0  0  0  0  0  0  0  0
   18.1143  -21.0749  -15.9282 O   0  0  0  0  0  0  0  0  0  0  0  0
   17.6899  -25.0012  -12.3122 O   0  0  0  0  0  0  0  0  0  0  0  0
   19.3975  -19.5684  -14.7577 O   0  0  0  0  0  0  0  0  0  0  0  0
  2  1  1  6
  2  3  1  0
  4  2  1  0
  4  5  1  1
  6  4  1  0
  6  7  2  0
  9 10  2  0
  9  8  1  0
 11  9  1  0
 13 12  1  6
 12 11  1  0
 13 14  1  0
 14  6  1  0
 15 13  1  0
 16 15  2  0
 17 15  1  0
 18 19  1  1
 18 17  1  0
 19 20  1  0
 21 20  1  0
 21 25  1  0
 22 21  2  0
 23 24  1  0
 23 18  1  0
 26 23  2  0
M  END
$$$$
