VQE.pdb
     RDKit          3D

 26 25  0  0  1  0  0  0  0  0999 V2000
   27.4682  -14.6807  -17.1823 C   0  0  0  0  0  0  0  0  0  0  0  0
   26.1213  -14.0506  -17.4632 C   0  0  1  0  0  0  0  0  0  0  0  0
   25.0670  -15.0866  -17.2313 C   0  0  0  0  0  0  0  0  0  0  0  0
   25.9401  -12.8025  -16.6374 C   0  0  2  0  0  0  0  0  0  0  0  0
   26.1563  -13.0421  -15.2465 N   0  0  0  0  0  0  0  0  0  0  0  0
   24.6646  -12.1147  -16.9269 C   0  0  0  0  0  0  0  0  0  0  0  0
   24.5168  -11.6837  -18.1219 O   0  0  0  0  0  0  0  0  0  0  0  0
   19.1192  -13.3628  -14.8327 N   0  0  0  0  0  0  0  0  0  0  0  0
   18.9893  -12.7801  -16.1384 C   0  0  0  0  0  0  0  0  0  0  0  0
   17.8958  -12.9441  -16.7278 O   0  0  0  0  0  0  0  0  0  0  0  0
   20.1154  -12.0211  -16.7425 C   0  0  0  0  0  0  0  0  0  0  0  0
   21.2307  -11.9717  -15.7364 C   0  0  0  0  0  0  0  0  0  0  0  0
   22.4338  -11.2083  -16.2467 C   0  0  2  0  0  0  0  0  0  0  0  0
   23.6492  -11.9281  -15.9639 N   0  0  0  0  0  0  0  0  0  0  0  0
   22.4571   -9.8258  -15.7145 C   0  0  0  0  0  0  0  0  0  0  0  0
   22.9591   -9.6300  -14.5881 O   0  0  0  0  0  0  0  0  0  0  0  0
   21.9343   -8.7624  -16.4448 N   0  0  0  0  0  0  0  0  0  0  0  0
   21.8723   -7.3826  -15.9487 C   0  0  1  0  0  0  0  0  0  0  0  0
   21.4168   -6.4479  -16.9978 C   0  0  0  0  0  0  0  0  0  0  0  0
   20.3985   -5.4785  -16.4820 C   0  0  0  0  0  0  0  0  0  0  0  0
   19.9327   -4.4859  -17.4778 C   0  0  0  0  0  0  0  0  0  0  0  0
   20.4122   -4.5814  -18.6363 O   0  0  0  0  0  0  0  0  0  0  0  0
   20.9316   -7.4029  -14.8151 C   0  0  0  0  0  0  0  0  0  0  0  0
   21.0195   -6.5087  -13.7326 O   0  0  0  0  0  0  0  0  0  0  0  0
   19.0264   -3.4754  -17.2371 O   0  0  0  0  0  0  0  0  0  0  0  0
   19.9910   -8.2668  -14.7994 O   0  0  0  0  0  0  0  0  0  0  0  0
  2  1  1  1
  2  3  1  0
  4  2  1  0
  4  5  1  1
  6  4  1  0
  6  7  2  0
  9 10  2  0
  9  8  1  0
 11  9  1  0
 13 12  1  1
 12 11  1  0
 13 14  1  0
 14  6  1  0
 15 13  1  0
 16 15  2  0
 17 15  1  0
 18 19  1  6
 18 17  1  0
 19 20  1  0
 21 20  1  0
 21 25  1  0
 22 21  2  0
 23 24  1  0
 23 18  1  0
 26 23  2  0
M  END
$$$$
