VQE.pdb
     RDKit          3D

 26 25  0  0  1  0  0  0  0  0999 V2000
   26.7868  -17.1068  -15.3045 C   0  0  0  0  0  0  0  0  0  0  0  0
   27.3554  -18.0569  -16.3360 C   0  0  1  0  0  0  0  0  0  0  0  0
   28.4170  -17.3305  -17.1003 C   0  0  0  0  0  0  0  0  0  0  0  0
   27.8389  -19.3235  -15.6771 C   0  0  2  0  0  0  0  0  0  0  0  0
   28.4799  -20.2006  -16.6038 N   0  0  0  0  0  0  0  0  0  0  0  0
   26.7857  -19.9796  -14.8746 C   0  0  0  0  0  0  0  0  0  0  0  0
   25.9240  -20.6620  -15.5281 O   0  0  0  0  0  0  0  0  0  0  0  0
   26.3664  -20.0672   -8.5885 N   0  0  0  0  0  0  0  0  0  0  0  0
   25.2785  -20.9277   -8.9593 C   0  0  0  0  0  0  0  0  0  0  0  0
   24.6559  -21.4900   -8.0285 O   0  0  0  0  0  0  0  0  0  0  0  0
   24.9259  -21.1266  -10.3894 C   0  0  0  0  0  0  0  0  0  0  0  0
   25.9499  -20.4069  -11.2213 C   0  0  0  0  0  0  0  0  0  0  0  0
   25.6558  -20.4978  -12.7032 C   0  0  2  0  0  0  0  0  0  0  0  0
   26.7075  -19.8787  -13.4685 N   0  0  0  0  0  0  0  0  0  0  0  0
   24.3204  -19.9396  -13.0201 C   0  0  0  0  0  0  0  0  0  0  0  0
   24.2435  -18.7448  -13.3745 O   0  0  0  0  0  0  0  0  0  0  0  0
   23.1716  -20.7201  -12.9284 N   0  0  0  0  0  0  0  0  0  0  0  0
   21.8694  -20.3253  -13.4784 C   0  0  1  0  0  0  0  0  0  0  0  0
   21.9215  -20.1799  -14.9475 C   0  0  0  0  0  0  0  0  0  0  0  0
   20.5704  -19.9065  -15.5325 C   0  0  0  0  0  0  0  0  0  0  0  0
   20.5429  -19.8318  -17.0115 C   0  0  0  0  0  0  0  0  0  0  0  0
   21.4510  -20.4487  -17.6244 O   0  0  0  0  0  0  0  0  0  0  0  0
   20.9267  -21.3873  -13.0861 C   0  0  0  0  0  0  0  0  0  0  0  0
   19.5708  -21.1399  -12.8044 O   0  0  0  0  0  0  0  0  0  0  0  0
   19.6115  -19.1452  -17.7610 O   0  0  0  0  0  0  0  0  0  0  0  0
   21.3452  -22.5901  -12.9909 O   0  0  0  0  0  0  0  0  0  0  0  0
  2  1  1  1
  2  3  1  0
  4  2  1  0
  4  5  1  6
  6  4  1  0
  6  7  2  0
  9 10  2  0
  9  8  1  0
 11  9  1  0
 13 12  1  1
 12 11  1  0
 13 14  1  0
 14  6  1  0
 15 13  1  0
 16 15  2  0
 17 15  1  0
 18 19  1  6
 18 17  1  0
 19 20  1  0
 21 20  1  0
 21 25  1  0
 22 21  2  0
 23 24  1  0
 23 18  1  0
 26 23  2  0
M  END
$$$$
