VQE.pdb
     RDKit          3D

 26 25  0  0  1  0  0  0  0  0999 V2000
   18.8000  -10.4288  -14.5544 C   0  0  0  0  0  0  0  0  0  0  0  0
   17.4133  -10.9599  -14.8459 C   0  0  1  0  0  0  0  0  0  0  0  0
   17.5504  -12.3600  -15.3552 C   0  0  0  0  0  0  0  0  0  0  0  0
   16.5350  -10.8392  -13.6267 C   0  0  2  0  0  0  0  0  0  0  0  0
   15.2861  -11.5106  -13.7953 N   0  0  0  0  0  0  0  0  0  0  0  0
   16.3968   -9.4416  -13.1669 C   0  0  0  0  0  0  0  0  0  0  0  0
   15.7452   -8.6575  -13.9389 O   0  0  0  0  0  0  0  0  0  0  0  0
   15.3772   -6.7507   -7.7768 N   0  0  0  0  0  0  0  0  0  0  0  0
   14.4255   -7.1630   -8.7696 C   0  0  0  0  0  0  0  0  0  0  0  0
   13.2219   -7.1986   -8.4229 O   0  0  0  0  0  0  0  0  0  0  0  0
   14.8723   -7.5265  -10.1398 C   0  0  0  0  0  0  0  0  0  0  0  0
   16.3693   -7.4025  -10.1848 C   0  0  0  0  0  0  0  0  0  0  0  0
   16.9202   -7.5761  -11.5838 C   0  0  2  0  0  0  0  0  0  0  0  0
   16.9401   -8.9684  -11.9526 N   0  0  0  0  0  0  0  0  0  0  0  0
   18.2488   -6.9347  -11.7204 C   0  0  0  0  0  0  0  0  0  0  0  0
   19.2128   -7.4235  -11.0954 O   0  0  0  0  0  0  0  0  0  0  0  0
   18.4294   -5.8127  -12.5242 N   0  0  0  0  0  0  0  0  0  0  0  0
   19.7442   -5.2826  -12.9039 C   0  0  1  0  0  0  0  0  0  0  0  0
   20.3900   -6.1193  -13.9358 C   0  0  0  0  0  0  0  0  0  0  0  0
   21.6809   -5.5273  -14.4111 C   0  0  0  0  0  0  0  0  0  0  0  0
   22.3941   -6.3378  -15.4251 C   0  0  0  0  0  0  0  0  0  0  0  0
   21.9379   -7.4874  -15.6511 O   0  0  0  0  0  0  0  0  0  0  0  0
   19.5003   -3.9194  -13.4062 C   0  0  0  0  0  0  0  0  0  0  0  0
   20.4668   -2.8989  -13.3480 O   0  0  0  0  0  0  0  0  0  0  0  0
   23.5078   -5.9364  -16.1317 O   0  0  0  0  0  0  0  0  0  0  0  0
   18.3648   -3.6360  -13.9175 O   0  0  0  0  0  0  0  0  0  0  0  0
  2  1  1  1
  2  3  1  0
  4  2  1  0
  4  5  1  6
  6  4  1  0
  6  7  2  0
  9 10  2  0
  9  8  1  0
 11  9  1  0
 13 12  1  1
 12 11  1  0
 13 14  1  0
 14  6  1  0
 15 13  1  0
 16 15  2  0
 17 15  1  0
 18 19  1  6
 18 17  1  0
 19 20  1  0
 21 20  1  0
 21 25  1  0
 22 21  2  0
 23 24  1  0
 23 18  1  0
 26 23  2  0
M  END
$$$$
