VQE.pdb
     RDKit          3D

 26 25  0  0  1  0  0  0  0  0999 V2000
   25.1168  -12.5831  -15.2089 C   0  0  0  0  0  0  0  0  0  0  0  0
   25.4162  -13.0711  -16.6097 C   0  0  1  0  0  0  0  0  0  0  0  0
   26.4072  -14.1876  -16.5100 C   0  0  0  0  0  0  0  0  0  0  0  0
   24.1418  -13.4503  -17.3202 C   0  0  2  0  0  0  0  0  0  0  0  0
   24.3932  -14.0554  -18.5888 N   0  0  0  0  0  0  0  0  0  0  0  0
   23.1753  -12.3340  -17.3794 C   0  0  0  0  0  0  0  0  0  0  0  0
   23.4622  -11.3840  -18.1861 O   0  0  0  0  0  0  0  0  0  0  0  0
   17.2149  -12.8257  -17.4798 N   0  0  0  0  0  0  0  0  0  0  0  0
   17.2879  -11.4001  -17.3254 C   0  0  0  0  0  0  0  0  0  0  0  0
   16.2177  -10.7597  -17.4470 O   0  0  0  0  0  0  0  0  0  0  0  0
   18.5859  -10.7370  -17.0347 C   0  0  0  0  0  0  0  0  0  0  0  0
   19.6379  -11.8057  -16.9359 C   0  0  0  0  0  0  0  0  0  0  0  0
   21.0239  -11.2331  -16.7315 C   0  0  2  0  0  0  0  0  0  0  0  0
   21.9958  -12.2887  -16.6046 N   0  0  0  0  0  0  0  0  0  0  0  0
   21.0529  -10.2953  -15.5848 C   0  0  0  0  0  0  0  0  0  0  0  0
   21.2338  -10.7602  -14.4401 O   0  0  0  0  0  0  0  0  0  0  0  0
   20.8836   -8.9259  -15.7677 N   0  0  0  0  0  0  0  0  0  0  0  0
   20.9029   -7.9468  -14.6746 C   0  0  1  0  0  0  0  0  0  0  0  0
   21.5810   -6.6975  -15.0761 C   0  0  0  0  0  0  0  0  0  0  0  0
   21.6589   -5.7143  -13.9492 C   0  0  0  0  0  0  0  0  0  0  0  0
   22.3438   -4.4447  -14.2853 C   0  0  0  0  0  0  0  0  0  0  0  0
   23.4757   -4.5399  -14.8243 O   0  0  0  0  0  0  0  0  0  0  0  0
   19.4921   -7.6954  -14.3327 C   0  0  0  0  0  0  0  0  0  0  0  0
   19.0520   -7.4786  -13.0143 O   0  0  0  0  0  0  0  0  0  0  0  0
   21.8445   -3.1806  -14.0546 O   0  0  0  0  0  0  0  0  0  0  0  0
   18.6182   -7.6730  -15.2638 O   0  0  0  0  0  0  0  0  0  0  0  0
  2  1  1  1
  2  3  1  0
  4  2  1  0
  4  5  1  6
  6  4  1  0
  6  7  2  0
  9 10  2  0
  9  8  1  0
 11  9  1  0
 13 12  1  1
 12 11  1  0
 13 14  1  0
 14  6  1  0
 15 13  1  0
 16 15  2  0
 17 15  1  0
 18 19  1  6
 18 17  1  0
 19 20  1  0
 21 20  1  0
 21 25  1  0
 22 21  2  0
 23 24  1  0
 23 18  1  0
 26 23  2  0
M  END
$$$$
