VQE.pdb
     RDKit          3D

 26 25  0  0  1  0  0  0  0  0999 V2000
   27.9920  -12.5601  -15.5888 C   0  0  0  0  0  0  0  0  0  0  0  0
   26.9937  -11.4778  -15.9380 C   0  0  1  0  0  0  0  0  0  0  0  0
   27.7195  -10.3986  -16.6778 C   0  0  0  0  0  0  0  0  0  0  0  0
   25.8292  -12.0594  -16.6983 C   0  0  2  0  0  0  0  0  0  0  0  0
   26.2511  -12.7995  -17.8442 N   0  0  0  0  0  0  0  0  0  0  0  0
   24.7899  -11.0519  -16.9957 C   0  0  0  0  0  0  0  0  0  0  0  0
   24.9164  -10.4233  -18.1023 O   0  0  0  0  0  0  0  0  0  0  0  0
   18.8971  -11.6262  -16.2915 N   0  0  0  0  0  0  0  0  0  0  0  0
   18.9433  -10.2914  -16.8181 C   0  0  0  0  0  0  0  0  0  0  0  0
   17.8638   -9.8039  -17.2269 O   0  0  0  0  0  0  0  0  0  0  0  0
   20.2260   -9.5419  -16.8658 C   0  0  0  0  0  0  0  0  0  0  0  0
   21.3124  -10.4549  -16.3712 C   0  0  0  0  0  0  0  0  0  0  0  0
   22.6826   -9.8172  -16.4524 C   0  0  2  0  0  0  0  0  0  0  0  0
   23.7086  -10.7758  -16.1308 N   0  0  0  0  0  0  0  0  0  0  0  0
   22.7589   -8.6011  -15.6094 C   0  0  0  0  0  0  0  0  0  0  0  0
   23.2037   -8.7092  -14.4477 O   0  0  0  0  0  0  0  0  0  0  0  0
   22.3471   -7.3619  -16.0911 N   0  0  0  0  0  0  0  0  0  0  0  0
   22.4920   -6.1061  -15.3457 C   0  0  1  0  0  0  0  0  0  0  0  0
   22.4063   -4.9317  -16.2376 C   0  0  0  0  0  0  0  0  0  0  0  0
   22.6446   -3.6496  -15.5014 C   0  0  0  0  0  0  0  0  0  0  0  0
   22.4826   -2.4279  -16.3231 C   0  0  0  0  0  0  0  0  0  0  0  0
   22.6053   -1.3273  -15.7277 O   0  0  0  0  0  0  0  0  0  0  0  0
   21.4022   -6.0968  -14.3544 C   0  0  0  0  0  0  0  0  0  0  0  0
   21.5674   -5.6201  -13.0412 O   0  0  0  0  0  0  0  0  0  0  0  0
   22.2088   -2.4025  -17.6740 O   0  0  0  0  0  0  0  0  0  0  0  0
   20.2517   -6.5406  -14.6868 O   0  0  0  0  0  0  0  0  0  0  0  0
  2  1  1  6
  2  3  1  0
  4  2  1  0
  4  5  1  6
  6  4  1  0
  6  7  2  0
  9 10  2  0
  9  8  1  0
 11  9  1  0
 13 12  1  1
 12 11  1  0
 13 14  1  0
 14  6  1  0
 15 13  1  0
 16 15  2  0
 17 15  1  0
 18 19  1  6
 18 17  1  0
 19 20  1  0
 21 20  1  0
 21 25  1  0
 22 21  2  0
 23 24  1  0
 23 18  1  0
 26 23  2  0
M  END
$$$$
