VQE.pdb
     RDKit          3D

 26 25  0  0  1  0  0  0  0  0999 V2000
   26.9271  -18.4261  -16.0562 C   0  0  0  0  0  0  0  0  0  0  0  0
   27.4979  -19.5772  -16.8556 C   0  0  1  0  0  0  0  0  0  0  0  0
   28.7150  -19.0851  -17.5734 C   0  0  0  0  0  0  0  0  0  0  0  0
   27.7567  -20.7633  -15.9619 C   0  0  2  0  0  0  0  0  0  0  0  0
   28.2765  -21.8788  -16.6860 N   0  0  0  0  0  0  0  0  0  0  0  0
   26.5911  -21.0985  -15.1176 C   0  0  0  0  0  0  0  0  0  0  0  0
   25.6474  -21.7427  -15.6921 O   0  0  0  0  0  0  0  0  0  0  0  0
   26.2077  -20.7614   -8.8716 N   0  0  0  0  0  0  0  0  0  0  0  0
   24.8610  -21.1268   -9.2093 C   0  0  0  0  0  0  0  0  0  0  0  0
   24.0822  -21.3687   -8.2579 O   0  0  0  0  0  0  0  0  0  0  0  0
   24.4337  -21.2078  -10.6305 C   0  0  0  0  0  0  0  0  0  0  0  0
   25.6332  -20.9222  -11.4898 C   0  0  0  0  0  0  0  0  0  0  0  0
   25.3154  -21.0001  -12.9675 C   0  0  2  0  0  0  0  0  0  0  0  0
   26.4942  -20.7434  -13.7546 N   0  0  0  0  0  0  0  0  0  0  0  0
   24.1907  -20.1032  -13.3222 C   0  0  0  0  0  0  0  0  0  0  0  0
   24.3351  -18.8739  -13.1577 O   0  0  0  0  0  0  0  0  0  0  0  0
   22.9963  -20.6084  -13.8277 N   0  0  0  0  0  0  0  0  0  0  0  0
   21.8795  -19.7693  -14.2775 C   0  0  1  0  0  0  0  0  0  0  0  0
   21.6901  -19.8549  -15.7400 C   0  0  0  0  0  0  0  0  0  0  0  0
   21.6934  -21.2720  -16.2241 C   0  0  0  0  0  0  0  0  0  0  0  0
   22.1598  -21.4455  -17.6192 C   0  0  0  0  0  0  0  0  0  0  0  0
   22.3913  -20.3956  -18.2712 O   0  0  0  0  0  0  0  0  0  0  0  0
   20.6901  -20.2623  -13.5614 C   0  0  0  0  0  0  0  0  0  0  0  0
   20.7246  -21.3686  -12.6932 O   0  0  0  0  0  0  0  0  0  0  0  0
   22.3562  -22.6538  -18.2531 O   0  0  0  0  0  0  0  0  0  0  0  0
   19.5707  -19.6706  -13.7284 O   0  0  0  0  0  0  0  0  0  0  0  0
  2  1  1  1
  2  3  1  0
  4  2  1  0
  4  5  1  6
  6  4  1  0
  6  7  2  0
  9 10  2  0
  9  8  1  0
 11  9  1  0
 13 12  1  1
 12 11  1  0
 13 14  1  0
 14  6  1  0
 15 13  1  0
 16 15  2  0
 17 15  1  0
 18 19  1  6
 18 17  1  0
 19 20  1  0
 21 20  1  0
 21 25  1  0
 22 21  2  0
 23 24  1  0
 23 18  1  0
 26 23  2  0
M  END
$$$$
