NRL.pdb
     RDKit          3D

 28 27  0  0  1  0  0  0  0  0999 V2000
   30.5548  -21.8407   -9.2662 N   0  0  0  0  0  0  0  0  0  0  0  0
   30.8938  -21.1085  -10.4319 C   0  0  0  0  0  0  0  0  0  0  0  0
   32.0540  -20.6477  -10.5521 O   0  0  0  0  0  0  0  0  0  0  0  0
   29.8835  -20.8917  -11.4968 C   0  0  0  0  0  0  0  0  0  0  0  0
   28.5307  -21.3993  -11.0220 C   0  0  2  0  0  0  0  0  0  0  0  0
   28.5815  -22.7770  -10.6334 N   0  0  0  0  0  0  0  0  0  0  0  0
   27.5108  -21.1324  -12.0671 C   0  0  0  0  0  0  0  0  0  0  0  0
   27.9407  -21.0404  -13.2556 O   0  0  0  0  0  0  0  0  0  0  0  0
   18.8331  -22.4590  -12.6494 N   0  0  0  0  0  0  0  0  0  0  0  0
   19.1516  -21.9030  -13.9409 C   0  0  0  0  0  0  0  0  0  0  0  0
   18.2136  -21.8034  -14.8038 N   0  0  0  0  0  0  0  0  0  0  0  0
   20.4765  -21.4878  -14.2159 N   0  0  0  0  0  0  0  0  0  0  0  0
   21.4328  -21.5002  -13.1413 C   0  0  0  0  0  0  0  0  0  0  0  0
   22.8136  -21.0668  -13.6172 C   0  0  0  0  0  0  0  0  0  0  0  0
   23.7794  -21.1939  -12.4594 C   0  0  0  0  0  0  0  0  0  0  0  0
   25.1971  -20.8084  -12.8922 C   0  0  2  0  0  0  0  0  0  0  0  0
   26.1310  -20.9818  -11.8041 N   0  0  0  0  0  0  0  0  0  0  0  0
   25.1677  -19.4154  -13.3878 C   0  0  0  0  0  0  0  0  0  0  0  0
   25.0202  -18.4640  -12.5817 O   0  0  0  0  0  0  0  0  0  0  0  0
   18.3737  -21.4311  -15.7528 C   0  0  0  0  0  0  0  0  0  0  0  0
   26.3468  -14.7398  -15.3945 C   0  0  1  0  0  0  0  0  0  0  0  0
   26.3831  -15.8025  -16.5002 C   0  0  0  0  0  0  0  0  0  0  0  0
   27.6204  -15.5317  -17.3348 C   0  0  0  0  0  0  0  0  0  0  0  0
   26.4677  -17.1719  -15.9110 C   0  0  1  0  0  0  0  0  0  0  0  0
   25.2707  -17.7007  -15.2214 N   0  0  0  0  0  0  0  0  0  0  0  0
   25.3006  -19.0628  -14.7743 C   0  0  0  0  0  0  0  0  0  0  0  0
   24.0484  -17.5103  -16.0530 O   0  0  0  0  0  0  0  0  0  0  0  0
   23.3912  -16.4495  -15.9219 O   0  0  0  0  0  0  0  0  0  0  0  0
  1  2  1  0
  2  3  2  0
  4  2  1  0
  4  5  1  0
  5  6  1  6
  7  8  2  0
  7  5  1  0
 10  9  1  0
 10 12  1  0
 11 10  2  0
 13 12  1  0
 13 14  1  0
 14 15  1  0
 16 15  1  1
 16 17  1  0
 17  7  1  0
 18 16  1  0
 19 18  2  0
 21 20  1  6
 21 23  1  0
 22 21  1  0
 24 23  1  1
 24 26  1  0
 24 25  1  0
 25 18  1  0
 26 28  1  0
 27 26  2  0
M  END
$$$$
