NRL.pdb
     RDKit          3D

 28 27  0  0  1  0  0  0  0  0999 V2000
   16.7121  -22.3909   -8.1225 N   0  0  0  0  0  0  0  0  0  0  0  0
   17.3191  -21.8983   -9.3053 C   0  0  0  0  0  0  0  0  0  0  0  0
   16.6083  -21.3358  -10.1720 O   0  0  0  0  0  0  0  0  0  0  0  0
   18.7807  -22.0489   -9.5120 C   0  0  0  0  0  0  0  0  0  0  0  0
   19.0333  -22.8207  -10.7979 C   0  0  2  0  0  0  0  0  0  0  0  0
   18.4906  -24.1452  -10.7434 N   0  0  0  0  0  0  0  0  0  0  0  0
   20.4858  -22.8051  -11.1037 C   0  0  0  0  0  0  0  0  0  0  0  0
   21.2245  -23.4944  -10.3388 O   0  0  0  0  0  0  0  0  0  0  0  0
   27.1479  -22.5725  -15.3027 N   0  0  0  0  0  0  0  0  0  0  0  0
   26.1901  -23.3252  -16.0738 C   0  0  0  0  0  0  0  0  0  0  0  0
   26.5055  -24.5089  -16.4398 N   0  0  0  0  0  0  0  0  0  0  0  0
   24.9427  -22.7418  -16.4011 N   0  0  0  0  0  0  0  0  0  0  0  0
   24.5033  -21.6004  -15.6440 C   0  0  0  0  0  0  0  0  0  0  0  0
   24.2610  -21.9584  -14.1832 C   0  0  0  0  0  0  0  0  0  0  0  0
   22.7765  -21.8602  -13.9072 C   0  0  0  0  0  0  0  0  0  0  0  0
   22.4765  -22.1788  -12.4394 C   0  0  2  0  0  0  0  0  0  0  0  0
   21.0605  -22.0812  -12.1721 N   0  0  0  0  0  0  0  0  0  0  0  0
   23.2702  -21.2609  -11.5944 C   0  0  0  0  0  0  0  0  0  0  0  0
   23.0188  -20.0306  -11.5938 O   0  0  0  0  0  0  0  0  0  0  0  0
   25.8830  -25.0912  -17.0215 C   0  0  0  0  0  0  0  0  0  0  0  0
   26.1236  -18.7387   -7.9246 C   0  0  2  0  0  0  0  0  0  0  0  0
   26.7793  -20.0907   -8.2335 C   0  0  0  0  0  0  0  0  0  0  0  0
   27.3014  -20.6407   -6.9198 C   0  0  0  0  0  0  0  0  0  0  0  0
   25.7814  -21.0395   -8.8110 C   0  0  1  0  0  0  0  0  0  0  0  0
   25.2887  -20.7728  -10.1799 N   0  0  0  0  0  0  0  0  0  0  0  0
   24.3454  -21.6933  -10.7450 C   0  0  0  0  0  0  0  0  0  0  0  0
   26.4230  -20.6233  -11.1353 O   0  0  0  0  0  0  0  0  0  0  0  0
   26.9122  -21.6557  -11.6543 O   0  0  0  0  0  0  0  0  0  0  0  0
  1  2  1  0
  2  3  2  0
  4  2  1  0
  4  5  1  0
  5  6  1  1
  7  8  2  0
  7  5  1  0
 10  9  1  0
 10 12  1  0
 11 10  2  0
 13 12  1  0
 13 14  1  0
 14 15  1  0
 16 15  1  6
 16 17  1  0
 17  7  1  0
 18 16  1  0
 19 18  2  0
 21 20  1  6
 21 23  1  0
 22 21  1  0
 24 23  1  1
 24 26  1  0
 24 25  1  0
 25 18  1  0
 26 28  1  0
 27 26  2  0
M  END
$$$$
