NRL.pdb
     RDKit          3D

 28 27  0  0  1  0  0  0  0  0999 V2000
   22.6763  -12.2015  -18.5325 N   0  0  0  0  0  0  0  0  0  0  0  0
   21.8707  -12.3239  -17.3723 C   0  0  0  0  0  0  0  0  0  0  0  0
   21.9620  -13.3571  -16.6674 O   0  0  0  0  0  0  0  0  0  0  0  0
   20.9303  -11.2384  -16.9992 C   0  0  0  0  0  0  0  0  0  0  0  0
   19.5342  -11.8159  -16.8246 C   0  0  2  0  0  0  0  0  0  0  0  0
   19.0082  -12.3275  -18.0548 N   0  0  0  0  0  0  0  0  0  0  0  0
   18.6542  -10.7955  -16.2016 C   0  0  0  0  0  0  0  0  0  0  0  0
   18.1810   -9.9157  -16.9814 O   0  0  0  0  0  0  0  0  0  0  0  0
   12.7484  -10.5478   -9.7219 N   0  0  0  0  0  0  0  0  0  0  0  0
   12.5093   -9.4034  -10.5657 C   0  0  0  0  0  0  0  0  0  0  0  0
   11.3645   -8.8375  -10.5062 N   0  0  0  0  0  0  0  0  0  0  0  0
   13.5344   -8.9430  -11.4263 N   0  0  0  0  0  0  0  0  0  0  0  0
   14.5479   -9.8758  -11.8411 C   0  0  0  0  0  0  0  0  0  0  0  0
   15.5672   -9.2197  -12.7638 C   0  0  0  0  0  0  0  0  0  0  0  0
   16.5531  -10.2755  -13.2141 C   0  0  0  0  0  0  0  0  0  0  0  0
   17.4782   -9.7232  -14.3026 C   0  0  2  0  0  0  0  0  0  0  0  0
   18.3326  -10.7633  -14.8264 N   0  0  0  0  0  0  0  0  0  0  0  0
   18.2508   -8.6005  -13.7285 C   0  0  0  0  0  0  0  0  0  0  0  0
   18.8657   -8.7498  -12.6439 O   0  0  0  0  0  0  0  0  0  0  0  0
   11.1156   -8.0314  -11.1004 C   0  0  0  0  0  0  0  0  0  0  0  0
   21.9544   -5.1778  -12.7172 C   0  0  2  0  0  0  0  0  0  0  0  0
   21.2316   -4.7815  -14.0109 C   0  0  0  0  0  0  0  0  0  0  0  0
   22.3015   -4.4197  -15.0235 C   0  0  0  0  0  0  0  0  0  0  0  0
   20.4180   -5.9211  -14.5292 C   0  0  1  0  0  0  0  0  0  0  0  0
   19.1743   -6.2651  -13.8063 N   0  0  0  0  0  0  0  0  0  0  0  0
   18.3503   -7.3071  -14.3462 C   0  0  0  0  0  0  0  0  0  0  0  0
   18.3243   -5.0576  -13.6028 O   0  0  0  0  0  0  0  0  0  0  0  0
   17.3625   -4.8607  -14.3841 O   0  0  0  0  0  0  0  0  0  0  0  0
  1  2  1  0
  2  3  2  0
  4  2  1  0
  4  5  1  0
  5  6  1  6
  7  8  2  0
  7  5  1  0
 10  9  1  0
 10 12  1  0
 11 10  2  0
 13 12  1  0
 13 14  1  0
 14 15  1  0
 16 15  1  1
 16 17  1  0
 17  7  1  0
 18 16  1  0
 19 18  2  0
 21 20  1  1
 21 23  1  0
 22 21  1  0
 24 23  1  1
 24 26  1  0
 24 25  1  0
 25 18  1  0
 26 28  1  0
 27 26  2  0
M  END
$$$$
