NRL.pdb
     RDKit          3D

 28 27  0  0  1  0  0  0  0  0999 V2000
   22.1521  -16.5831  -15.8413 N   0  0  0  0  0  0  0  0  0  0  0  0
   21.7920  -17.9217  -16.1389 C   0  0  0  0  0  0  0  0  0  0  0  0
   20.8537  -18.1414  -16.9414 O   0  0  0  0  0  0  0  0  0  0  0  0
   22.5204  -19.0485  -15.5053 C   0  0  0  0  0  0  0  0  0  0  0  0
   23.4486  -18.5093  -14.4280 C   0  0  2  0  0  0  0  0  0  0  0  0
   24.3462  -17.5178  -14.9409 N   0  0  0  0  0  0  0  0  0  0  0  0
   24.1526  -19.6409  -13.7739 C   0  0  0  0  0  0  0  0  0  0  0  0
   23.4253  -20.4491  -13.1230 O   0  0  0  0  0  0  0  0  0  0  0  0
   27.6278  -24.5051  -16.5637 N   0  0  0  0  0  0  0  0  0  0  0  0
   27.9958  -23.5435  -17.5730 C   0  0  0  0  0  0  0  0  0  0  0  0
   27.7496  -23.8263  -18.7952 N   0  0  0  0  0  0  0  0  0  0  0  0
   28.6116  -22.3282  -17.1894 N   0  0  0  0  0  0  0  0  0  0  0  0
   28.7021  -22.0217  -15.7869 C   0  0  0  0  0  0  0  0  0  0  0  0
   27.3248  -21.8108  -15.1710 C   0  0  0  0  0  0  0  0  0  0  0  0
   27.5065  -21.3188  -13.7516 C   0  0  0  0  0  0  0  0  0  0  0  0
   26.1566  -20.9480  -13.1302 C   0  0  2  0  0  0  0  0  0  0  0  0
   25.5482  -19.8488  -13.8427 N   0  0  0  0  0  0  0  0  0  0  0  0
   26.3742  -20.6366  -11.7011 C   0  0  0  0  0  0  0  0  0  0  0  0
   27.2895  -19.8469  -11.3616 O   0  0  0  0  0  0  0  0  0  0  0  0
   28.0667  -23.2291  -19.5748 C   0  0  0  0  0  0  0  0  0  0  0  0
   28.3823  -20.5449   -7.0693 C   0  0  2  0  0  0  0  0  0  0  0  0
   27.1501  -19.7145   -7.4506 C   0  0  0  0  0  0  0  0  0  0  0  0
   27.4987  -18.2606   -7.1938 C   0  0  0  0  0  0  0  0  0  0  0  0
   26.8164  -19.9008   -8.8939 C   0  0  1  0  0  0  0  0  0  0  0  0
   25.9442  -21.0385   -9.2584 N   0  0  0  0  0  0  0  0  0  0  0  0
   25.5844  -21.1935  -10.6378 C   0  0  0  0  0  0  0  0  0  0  0  0
   24.6927  -21.0320   -8.4487 O   0  0  0  0  0  0  0  0  0  0  0  0
   24.7280  -21.4962   -7.2835 O   0  0  0  0  0  0  0  0  0  0  0  0
  1  2  1  0
  2  3  2  0
  4  2  1  0
  4  5  1  0
  5  6  1  6
  7  8  2  0
  7  5  1  0
 10  9  1  0
 10 12  1  0
 11 10  2  0
 13 12  1  0
 13 14  1  0
 14 15  1  0
 16 15  1  6
 16 17  1  0
 17  7  1  0
 18 16  1  0
 19 18  2  0
 21 20  1  1
 21 23  1  0
 22 21  1  0
 24 23  1  6
 24 26  1  0
 24 25  1  0
 25 18  1  0
 26 28  1  0
 27 26  2  0
M  END
$$$$
