NRL.pdb
     RDKit          3D

 28 27  0  0  1  0  0  0  0  0999 V2000
   18.4026  -29.8397  -14.2245 N   0  0  0  0  0  0  0  0  0  0  0  0
   18.2775  -31.0567  -14.9410 C   0  0  0  0  0  0  0  0  0  0  0  0
   17.1415  -31.4369  -15.3122 O   0  0  0  0  0  0  0  0  0  0  0  0
   19.4807  -31.8696  -15.2465 C   0  0  0  0  0  0  0  0  0  0  0  0
   20.7137  -31.1801  -14.6834 C   0  0  2  0  0  0  0  0  0  0  0  0
   21.2018  -30.1562  -15.5581 N   0  0  0  0  0  0  0  0  0  0  0  0
   21.7426  -32.2000  -14.3594 C   0  0  0  0  0  0  0  0  0  0  0  0
   21.4042  -33.0869  -13.5198 O   0  0  0  0  0  0  0  0  0  0  0  0
   29.5227  -33.6967  -17.6938 N   0  0  0  0  0  0  0  0  0  0  0  0
   29.2973  -32.8199  -16.5717 C   0  0  0  0  0  0  0  0  0  0  0  0
   30.1132  -31.8532  -16.3870 N   0  0  0  0  0  0  0  0  0  0  0  0
   28.1937  -33.0494  -15.7158 N   0  0  0  0  0  0  0  0  0  0  0  0
   27.4049  -34.2346  -15.9217 C   0  0  0  0  0  0  0  0  0  0  0  0
   26.2078  -34.2795  -14.9805 C   0  0  0  0  0  0  0  0  0  0  0  0
   25.2499  -33.1759  -15.3731 C   0  0  0  0  0  0  0  0  0  0  0  0
   24.0132  -33.1857  -14.4696 C   0  0  2  0  0  0  0  0  0  0  0  0
   23.0366  -32.2244  -14.9259 N   0  0  0  0  0  0  0  0  0  0  0  0
   24.4510  -32.9231  -13.0818 C   0  0  0  0  0  0  0  0  0  0  0  0
   24.6279  -31.7430  -12.6907 O   0  0  0  0  0  0  0  0  0  0  0  0
   30.0195  -31.1949  -15.5977 C   0  0  0  0  0  0  0  0  0  0  0  0
   25.6515  -31.5877   -8.4014 C   0  0  2  0  0  0  0  0  0  0  0  0
   24.3991  -32.4531   -8.5904 C   0  0  0  0  0  0  0  0  0  0  0  0
   23.2372  -31.6898   -7.9837 C   0  0  0  0  0  0  0  0  0  0  0  0
   24.1379  -32.6905  -10.0412 C   0  0  1  0  0  0  0  0  0  0  0  0
   24.9957  -33.6686  -10.7450 N   0  0  0  0  0  0  0  0  0  0  0  0
   24.6964  -33.9591  -12.1169 C   0  0  0  0  0  0  0  0  0  0  0  0
   25.0578  -34.9575   -9.9989 O   0  0  0  0  0  0  0  0  0  0  0  0
   24.2583  -35.8725  -10.3118 O   0  0  0  0  0  0  0  0  0  0  0  0
  1  2  1  0
  2  3  2  0
  4  2  1  0
  4  5  1  0
  5  6  1  6
  7  8  2  0
  7  5  1  0
 10  9  1  0
 10 12  1  0
 11 10  2  0
 13 12  1  0
 13 14  1  0
 14 15  1  0
 16 15  1  6
 16 17  1  0
 17  7  1  0
 18 16  1  0
 19 18  2  0
 21 20  1  1
 21 23  1  0
 22 21  1  0
 24 23  1  6
 24 26  1  0
 24 25  1  0
 25 18  1  0
 26 28  1  0
 27 26  2  0
M  END
$$$$
