NRL.pdb
     RDKit          3D

 28 27  0  0  1  0  0  0  0  0999 V2000
   16.9125  -15.9198  -15.4207 N   0  0  0  0  0  0  0  0  0  0  0  0
   18.1751  -15.4343  -14.9962 C   0  0  0  0  0  0  0  0  0  0  0  0
   18.8633  -16.1223  -14.2051 O   0  0  0  0  0  0  0  0  0  0  0  0
   18.6737  -14.1251  -15.4852 C   0  0  0  0  0  0  0  0  0  0  0  0
   17.6207  -13.4827  -16.3749 C   0  0  2  0  0  0  0  0  0  0  0  0
   17.4966  -14.1581  -17.6320 N   0  0  0  0  0  0  0  0  0  0  0  0
   17.9195  -12.0363  -16.5248 C   0  0  0  0  0  0  0  0  0  0  0  0
   18.5960  -11.7091  -17.5452 O   0  0  0  0  0  0  0  0  0  0  0  0
   13.3728   -4.9372  -15.1363 N   0  0  0  0  0  0  0  0  0  0  0  0
   13.5337   -5.7435  -16.3207 C   0  0  0  0  0  0  0  0  0  0  0  0
   12.6176   -5.6985  -17.2113 N   0  0  0  0  0  0  0  0  0  0  0  0
   14.6860   -6.5529  -16.4643 N   0  0  0  0  0  0  0  0  0  0  0  0
   15.7071   -6.4722  -15.4543 C   0  0  0  0  0  0  0  0  0  0  0  0
   16.9236   -7.3125  -15.8214 C   0  0  0  0  0  0  0  0  0  0  0  0
   16.6237   -8.7579  -15.4891 C   0  0  0  0  0  0  0  0  0  0  0  0
   17.8116   -9.6544  -15.8511 C   0  0  2  0  0  0  0  0  0  0  0  0
   17.4976  -11.0438  -15.6123 N   0  0  0  0  0  0  0  0  0  0  0  0
   18.9859   -9.2043  -15.0731 C   0  0  0  0  0  0  0  0  0  0  0  0
   18.9691   -9.2619  -13.8189 O   0  0  0  0  0  0  0  0  0  0  0  0
   12.6673   -6.2489  -18.0828 C   0  0  0  0  0  0  0  0  0  0  0  0
   24.2881  -10.5008  -16.0681 C   0  0  1  0  0  0  0  0  0  0  0  0
   22.9405  -10.2206  -15.3908 C   0  0  0  0  0  0  0  0  0  0  0  0
   23.0402  -10.7461  -13.9713 C   0  0  0  0  0  0  0  0  0  0  0  0
   22.6610   -8.7542  -15.3622 C   0  0  2  0  0  0  0  0  0  0  0  0
   21.3290   -8.3154  -14.8921 N   0  0  0  0  0  0  0  0  0  0  0  0
   20.1853   -8.6883  -15.6726 C   0  0  0  0  0  0  0  0  0  0  0  0
   21.2941   -6.8389  -14.6908 O   0  0  0  0  0  0  0  0  0  0  0  0
   20.5622   -6.1472  -15.4392 O   0  0  0  0  0  0  0  0  0  0  0  0
  1  2  1  0
  2  3  2  0
  4  2  1  0
  4  5  1  0
  5  6  1  6
  7  8  2  0
  7  5  1  0
 10  9  1  0
 10 12  1  0
 11 10  2  0
 13 12  1  0
 13 14  1  0
 14 15  1  0
 16 15  1  1
 16 17  1  0
 17  7  1  0
 18 16  1  0
 19 18  2  0
 21 20  1  6
 21 23  1  0
 22 21  1  0
 24 23  1  1
 24 26  1  0
 24 25  1  0
 25 18  1  0
 26 28  1  0
 27 26  2  0
M  END
$$$$
