DKF.pdb
     RDKit          3D

 29 29  0  0  1  0  0  0  0  0999 V2000
   28.1259  -23.3180  -18.6064 N   0  0  0  0  0  0  0  0  0  0  0  0
   27.7512  -24.1926  -17.5358 C   0  0  1  0  0  0  0  0  0  0  0  0
   26.5397  -23.7218  -16.7935 C   0  0  0  0  0  0  0  0  0  0  0  0
   26.6817  -22.4237  -16.1388 C   0  0  0  0  0  0  0  0  0  0  0  0
   25.8351  -21.8655  -15.4035 O   0  0  0  0  0  0  0  0  0  0  0  0
   27.6999  -25.6178  -17.9209 C   0  0  0  0  0  0  0  0  0  0  0  0
   27.0436  -25.9801  -18.9379 O   0  0  0  0  0  0  0  0  0  0  0  0
   27.8722  -21.7257  -16.3440 O   0  0  0  0  0  0  0  0  0  0  0  0
   28.3753  -26.5914  -17.1693 N   0  0  0  0  0  0  0  0  0  0  0  0
   28.4232  -28.0155  -17.5286 C   0  0  1  0  0  0  0  0  0  0  0  0
   29.8286  -28.5273  -17.4612 C   0  0  0  0  0  0  0  0  0  0  0  0
   30.7102  -27.9309  -18.4913 C   0  0  0  0  0  0  0  0  0  0  0  0
   32.1640  -28.3485  -18.3521 C   0  0  0  0  0  0  0  0  0  0  0  0
   33.0208  -27.7798  -19.4624 C   0  0  0  0  0  0  0  0  0  0  0  0
   34.4394  -28.0821  -19.2115 N   0  0  0  0  0  0  0  0  0  0  0  0
   27.4473  -28.7836  -16.7510 C   0  0  0  0  0  0  0  0  0  0  0  0
   27.4071  -28.7226  -15.5138 O   0  0  0  0  0  0  0  0  0  0  0  0
   26.5258  -29.6187  -17.4348 N   0  0  0  0  0  0  0  0  0  0  0  0
   25.5006  -30.4086  -16.7438 C   0  0  1  0  0  0  0  0  0  0  0  0
   24.1704  -29.7768  -17.0308 C   0  0  0  0  0  0  0  0  0  0  0  0
   23.0654  -30.5927  -16.4893 C   0  0  0  0  0  0  0  0  0  0  0  0
   22.7569  -30.4841  -15.1626 C   0  0  0  0  0  0  0  0  0  0  0  0
   21.7356  -31.2076  -14.6226 C   0  0  0  0  0  0  0  0  0  0  0  0
   20.9954  -32.0636  -15.4095 C   0  0  0  0  0  0  0  0  0  0  0  0
   21.2944  -32.1794  -16.7321 C   0  0  0  0  0  0  0  0  0  0  0  0
   22.3238  -31.4515  -17.2826 C   0  0  0  0  0  0  0  0  0  0  0  0
   25.5824  -31.8209  -17.1888 C   0  0  0  0  0  0  0  0  0  0  0  0
   25.8334  -32.1193  -18.3799 O   0  0  0  0  0  0  0  0  0  0  0  0
   25.3823  -32.8776  -16.2980 O   0  0  0  0  0  0  0  0  0  0  0  0
  2  1  1  6
  3  2  1  0
  4  8  1  0
  4  3  1  0
  5  4  2  0
  6  2  1  0
  7  6  2  0
  9  6  1  0
 10  9  1  0
 10 11  1  1
 12 13  1  0
 12 11  1  0
 13 14  1  0
 14 15  1  0
 16 17  2  0
 16 10  1  0
 18 16  1  0
 19 18  1  0
 19 20  1  6
 20 21  1  0
 21 26  2  0
 21 22  1  0
 22 23  2  0
 23 24  1  0
 25 24  2  0
 26 25  1  0
 27 29  1  0
 27 19  1  0
 28 27  2  0
M  END
$$$$
