DKF.pdb
     RDKit          3D

 29 29  0  0  1  0  0  0  0  0999 V2000
   28.9162  -20.8549  -18.6152 N   0  0  0  0  0  0  0  0  0  0  0  0
   28.1093  -21.6039  -17.6989 C   0  0  1  0  0  0  0  0  0  0  0  0
   28.9181  -22.4362  -16.7536 C   0  0  0  0  0  0  0  0  0  0  0  0
   29.5930  -23.5809  -17.3604 C   0  0  0  0  0  0  0  0  0  0  0  0
   29.5892  -23.8879  -18.5747 O   0  0  0  0  0  0  0  0  0  0  0  0
   27.0569  -20.8035  -17.0402 C   0  0  0  0  0  0  0  0  0  0  0  0
   27.3668  -19.9001  -16.2131 O   0  0  0  0  0  0  0  0  0  0  0  0
   30.3166  -24.4236  -16.5162 O   0  0  0  0  0  0  0  0  0  0  0  0
   25.7003  -21.0294  -17.3186 N   0  0  0  0  0  0  0  0  0  0  0  0
   24.6022  -20.2575  -16.7207 C   0  0  1  0  0  0  0  0  0  0  0  0
   23.5686  -19.9284  -17.7528 C   0  0  0  0  0  0  0  0  0  0  0  0
   22.4341  -19.1490  -17.2058 C   0  0  0  0  0  0  0  0  0  0  0  0
   21.3317  -18.9004  -18.2208 C   0  0  0  0  0  0  0  0  0  0  0  0
   20.2058  -18.0749  -17.6367 C   0  0  0  0  0  0  0  0  0  0  0  0
   19.1161  -17.9407  -18.6171 N   0  0  0  0  0  0  0  0  0  0  0  0
   24.0881  -20.9234  -15.5210 C   0  0  0  0  0  0  0  0  0  0  0  0
   23.7836  -22.1247  -15.5228 O   0  0  0  0  0  0  0  0  0  0  0  0
   23.9354  -20.1706  -14.3277 N   0  0  0  0  0  0  0  0  0  0  0  0
   23.4606  -20.7576  -13.0697 C   0  0  1  0  0  0  0  0  0  0  0  0
   23.8022  -19.8016  -11.9649 C   0  0  0  0  0  0  0  0  0  0  0  0
   23.3524  -20.3170  -10.6566 C   0  0  0  0  0  0  0  0  0  0  0  0
   24.2571  -20.9531   -9.8541 C   0  0  0  0  0  0  0  0  0  0  0  0
   23.8896  -21.4325   -8.6322 C   0  0  0  0  0  0  0  0  0  0  0  0
   22.5943  -21.2826   -8.1852 C   0  0  0  0  0  0  0  0  0  0  0  0
   21.6852  -20.6506   -8.9766 C   0  0  0  0  0  0  0  0  0  0  0  0
   22.0505  -20.1646  -10.2106 C   0  0  0  0  0  0  0  0  0  0  0  0
   22.0072  -21.0342  -13.1714 C   0  0  0  0  0  0  0  0  0  0  0  0
   21.2229  -20.2249  -13.7196 O   0  0  0  0  0  0  0  0  0  0  0  0
   21.4520  -22.2089  -12.6595 O   0  0  0  0  0  0  0  0  0  0  0  0
  2  1  1  1
  3  2  1  0
  4  8  1  0
  4  3  1  0
  5  4  2  0
  6  2  1  0
  7  6  2  0
  9  6  1  0
 10  9  1  0
 10 11  1  6
 12 13  1  0
 12 11  1  0
 13 14  1  0
 14 15  1  0
 16 17  2  0
 16 10  1  0
 18 16  1  0
 19 18  1  0
 19 20  1  1
 20 21  1  0
 21 26  2  0
 21 22  1  0
 22 23  2  0
 23 24  1  0
 25 24  2  0
 26 25  1  0
 27 29  1  0
 27 19  1  0
 28 27  2  0
M  END
$$$$
