DKF.pdb
     RDKit          3D

 29 29  0  0  1  0  0  0  0  0999 V2000
   17.8675  -15.3485  -17.5871 N   0  0  0  0  0  0  0  0  0  0  0  0
   17.9926  -14.4790  -16.4557 C   0  0  1  0  0  0  0  0  0  0  0  0
   18.6204  -15.1466  -15.2723 C   0  0  0  0  0  0  0  0  0  0  0  0
   17.9404  -16.3546  -14.8115 C   0  0  0  0  0  0  0  0  0  0  0  0
   16.7710  -16.4261  -14.3685 O   0  0  0  0  0  0  0  0  0  0  0  0
   18.5774  -13.1616  -16.7788 C   0  0  0  0  0  0  0  0  0  0  0  0
   19.6356  -13.0846  -17.4648 O   0  0  0  0  0  0  0  0  0  0  0  0
   18.6515  -17.5538  -14.8642 O   0  0  0  0  0  0  0  0  0  0  0  0
   17.9727  -11.9765  -16.3327 N   0  0  0  0  0  0  0  0  0  0  0  0
   18.5468  -10.6387  -16.5329 C   0  0  1  0  0  0  0  0  0  0  0  0
   17.5114   -9.5825  -16.3003 C   0  0  0  0  0  0  0  0  0  0  0  0
   16.5619   -9.4463  -17.4289 C   0  0  0  0  0  0  0  0  0  0  0  0
   17.1598   -8.7426  -18.6350 C   0  0  0  0  0  0  0  0  0  0  0  0
   16.1344   -8.5313  -19.7278 C   0  0  0  0  0  0  0  0  0  0  0  0
   16.7588   -7.8717  -20.8861 N   0  0  0  0  0  0  0  0  0  0  0  0
   19.7795  -10.4778  -15.7573 C   0  0  0  0  0  0  0  0  0  0  0  0
   19.8632  -10.8581  -14.5808 O   0  0  0  0  0  0  0  0  0  0  0  0
   20.9051   -9.8698  -16.3717 N   0  0  0  0  0  0  0  0  0  0  0  0
   22.1966   -9.7137  -15.6933 C   0  0  1  0  0  0  0  0  0  0  0  0
   23.1217  -10.7660  -16.2300 C   0  0  0  0  0  0  0  0  0  0  0  0
   24.4947  -10.5780  -15.7207 C   0  0  0  0  0  0  0  0  0  0  0  0
   24.8775   -9.3337  -15.3058 C   0  0  0  0  0  0  0  0  0  0  0  0
   26.1307   -9.1169  -14.8154 C   0  0  0  0  0  0  0  0  0  0  0  0
   27.0350  -10.1537  -14.7301 C   0  0  0  0  0  0  0  0  0  0  0  0
   26.6640  -11.3970  -15.1407 C   0  0  0  0  0  0  0  0  0  0  0  0
   25.4006  -11.6217  -15.6363 C   0  0  0  0  0  0  0  0  0  0  0  0
   22.7003   -8.3346  -15.9018 C   0  0  0  0  0  0  0  0  0  0  0  0
   23.1044   -7.6328  -14.9453 O   0  0  0  0  0  0  0  0  0  0  0  0
   22.7446   -7.7602  -17.1740 O   0  0  0  0  0  0  0  0  0  0  0  0
  2  1  1  6
  3  2  1  0
  4  8  1  0
  4  3  1  0
  5  4  2  0
  6  2  1  0
  7  6  2  0
  9  6  1  0
 10  9  1  0
 10 11  1  1
 12 13  1  0
 12 11  1  0
 13 14  1  0
 14 15  1  0
 16 17  2  0
 16 10  1  0
 18 16  1  0
 19 18  1  0
 19 20  1  6
 20 21  1  0
 21 26  2  0
 21 22  1  0
 22 23  2  0
 23 24  1  0
 25 24  2  0
 26 25  1  0
 27 29  1  0
 27 19  1  0
 28 27  2  0
M  END
$$$$
