DKF.pdb
     RDKit          3D

 29 29  0  0  1  0  0  0  0  0999 V2000
   19.5427  -11.8337  -18.0515 N   0  0  0  0  0  0  0  0  0  0  0  0
   19.1587  -10.8853  -17.0492 C   0  0  1  0  0  0  0  0  0  0  0  0
   19.3917  -11.3808  -15.6561 C   0  0  0  0  0  0  0  0  0  0  0  0
   18.5751  -12.5265  -15.2630 C   0  0  0  0  0  0  0  0  0  0  0  0
   17.6266  -13.0216  -15.9143 O   0  0  0  0  0  0  0  0  0  0  0  0
   19.6714   -9.5214  -17.2921 C   0  0  0  0  0  0  0  0  0  0  0  0
   20.8245   -9.3511  -17.7795 O   0  0  0  0  0  0  0  0  0  0  0  0
   18.8694  -13.1394  -14.0448 O   0  0  0  0  0  0  0  0  0  0  0  0
   18.8923   -8.3946  -16.9880 N   0  0  0  0  0  0  0  0  0  0  0  0
   19.3310   -7.0106  -17.2141 C   0  0  1  0  0  0  0  0  0  0  0  0
   18.3846   -6.3031  -18.1336 C   0  0  0  0  0  0  0  0  0  0  0  0
   17.0203   -6.1752  -17.5712 C   0  0  0  0  0  0  0  0  0  0  0  0
   16.0653   -5.4191  -18.4787 C   0  0  0  0  0  0  0  0  0  0  0  0
   14.7038   -5.2448  -17.8413 C   0  0  0  0  0  0  0  0  0  0  0  0
   14.2139   -6.5370  -17.3344 N   0  0  0  0  0  0  0  0  0  0  0  0
   19.5840   -6.3283  -15.9423 C   0  0  0  0  0  0  0  0  0  0  0  0
   18.7901   -6.4036  -14.9935 O   0  0  0  0  0  0  0  0  0  0  0  0
   20.7692   -5.5616  -15.7960 N   0  0  0  0  0  0  0  0  0  0  0  0
   21.1381   -4.8947  -14.5424 C   0  0  1  0  0  0  0  0  0  0  0  0
   22.5141   -5.3609  -14.1677 C   0  0  0  0  0  0  0  0  0  0  0  0
   22.5486   -6.8253  -13.9836 C   0  0  0  0  0  0  0  0  0  0  0  0
   21.8277   -7.3767  -12.9621 C   0  0  0  0  0  0  0  0  0  0  0  0
   21.8189   -8.7252  -12.7632 C   0  0  0  0  0  0  0  0  0  0  0  0
   22.5401   -9.5569  -13.5926 C   0  0  0  0  0  0  0  0  0  0  0  0
   23.2615   -9.0182  -14.6131 C   0  0  0  0  0  0  0  0  0  0  0  0
   23.2739   -7.6580  -14.8187 C   0  0  0  0  0  0  0  0  0  0  0  0
   21.0498   -3.4251  -14.7203 C   0  0  0  0  0  0  0  0  0  0  0  0
   21.2694   -2.6357  -13.7720 O   0  0  0  0  0  0  0  0  0  0  0  0
   20.7173   -2.8597  -15.9532 O   0  0  0  0  0  0  0  0  0  0  0  0
  2  1  1  6
  3  2  1  0
  4  8  1  0
  4  3  1  0
  5  4  2  0
  6  2  1  0
  7  6  2  0
  9  6  1  0
 10  9  1  0
 10 11  1  1
 12 13  1  0
 12 11  1  0
 13 14  1  0
 14 15  1  0
 16 17  2  0
 16 10  1  0
 18 16  1  0
 19 18  1  0
 19 20  1  6
 20 21  1  0
 21 26  2  0
 21 22  1  0
 22 23  2  0
 23 24  1  0
 25 24  2  0
 26 25  1  0
 27 29  1  0
 27 19  1  0
 28 27  2  0
M  END
$$$$
