DKF.pdb
     RDKit          3D

 29 29  0  0  1  0  0  0  0  0999 V2000
   19.5253  -15.0300  -19.4547 N   0  0  0  0  0  0  0  0  0  0  0  0
   20.4718  -13.9792  -19.6820 C   0  0  1  0  0  0  0  0  0  0  0  0
   20.1015  -13.0985  -20.8343 C   0  0  0  0  0  0  0  0  0  0  0  0
   19.8860  -13.7950  -22.1002 C   0  0  0  0  0  0  0  0  0  0  0  0
   20.6890  -14.5709  -22.6678 O   0  0  0  0  0  0  0  0  0  0  0  0
   20.8449  -13.2387  -18.4595 C   0  0  0  0  0  0  0  0  0  0  0  0
   19.9505  -12.7779  -17.6954 O   0  0  0  0  0  0  0  0  0  0  0  0
   18.6706  -13.5847  -22.7522 O   0  0  0  0  0  0  0  0  0  0  0  0
   22.1921  -13.0338  -18.1249 N   0  0  0  0  0  0  0  0  0  0  0  0
   22.6372  -12.3379  -16.9096 C   0  0  1  0  0  0  0  0  0  0  0  0
   24.0284  -12.7545  -16.5453 C   0  0  0  0  0  0  0  0  0  0  0  0
   24.1372  -14.1998  -16.2404 C   0  0  0  0  0  0  0  0  0  0  0  0
   25.5705  -14.6687  -16.0583 C   0  0  0  0  0  0  0  0  0  0  0  0
   25.6424  -16.1479  -15.7463 C   0  0  0  0  0  0  0  0  0  0  0  0
   27.0453  -16.5621  -15.5817 N   0  0  0  0  0  0  0  0  0  0  0  0
   22.4368  -10.8917  -17.0327 C   0  0  0  0  0  0  0  0  0  0  0  0
   22.8750  -10.2534  -18.0004 O   0  0  0  0  0  0  0  0  0  0  0  0
   21.7225  -10.2064  -16.0157 N   0  0  0  0  0  0  0  0  0  0  0  0
   21.4650   -8.7627  -16.0564 C   0  0  1  0  0  0  0  0  0  0  0  0
   20.1964   -8.5490  -16.8285 C   0  0  0  0  0  0  0  0  0  0  0  0
   19.8299   -7.1194  -16.8656 C   0  0  0  0  0  0  0  0  0  0  0  0
   18.7676   -6.6934  -16.1191 C   0  0  0  0  0  0  0  0  0  0  0  0
   18.4021   -5.3802  -16.1120 C   0  0  0  0  0  0  0  0  0  0  0  0
   19.1011   -4.4579  -16.8608 C   0  0  0  0  0  0  0  0  0  0  0  0
   20.1607   -4.8715  -17.6078 C   0  0  0  0  0  0  0  0  0  0  0  0
   20.5342   -6.1955  -17.6187 C   0  0  0  0  0  0  0  0  0  0  0  0
   21.4002   -8.2335  -14.6725 C   0  0  0  0  0  0  0  0  0  0  0  0
   21.0332   -8.9513  -13.7129 O   0  0  0  0  0  0  0  0  0  0  0  0
   21.7453   -6.9120  -14.3814 O   0  0  0  0  0  0  0  0  0  0  0  0
  2  1  1  1
  3  2  1  0
  4  8  1  0
  4  3  1  0
  5  4  2  0
  6  2  1  0
  7  6  2  0
  9  6  1  0
 10  9  1  0
 10 11  1  6
 12 13  1  0
 12 11  1  0
 13 14  1  0
 14 15  1  0
 16 17  2  0
 16 10  1  0
 18 16  1  0
 19 18  1  0
 19 20  1  1
 20 21  1  0
 21 26  2  0
 21 22  1  0
 22 23  2  0
 23 24  1  0
 25 24  2  0
 26 25  1  0
 27 29  1  0
 27 19  1  0
 28 27  2  0
M  END
$$$$
