DKF.pdb
     RDKit          3D

 29 29  0  0  1  0  0  0  0  0999 V2000
   15.5165  -22.5397    3.4572 N   0  0  0  0  0  0  0  0  0  0  0  0
   14.8887  -21.3052    3.0919 C   0  0  1  0  0  0  0  0  0  0  0  0
   13.4660  -21.4785    2.6603 C   0  0  0  0  0  0  0  0  0  0  0  0
   13.2602  -22.4433    1.5829 C   0  0  0  0  0  0  0  0  0  0  0  0
   13.6313  -22.3191    0.3930 O   0  0  0  0  0  0  0  0  0  0  0  0
   15.0870  -20.2219    4.0763 C   0  0  0  0  0  0  0  0  0  0  0  0
   14.5646  -19.0868    3.8891 O   0  0  0  0  0  0  0  0  0  0  0  0
   12.5855  -23.6237    1.8956 O   0  0  0  0  0  0  0  0  0  0  0  0
   15.8549  -20.4310    5.2321 N   0  0  0  0  0  0  0  0  0  0  0  0
   16.0803  -19.4070    6.2616 C   0  0  1  0  0  0  0  0  0  0  0  0
   16.4441  -20.0450    7.5663 C   0  0  0  0  0  0  0  0  0  0  0  0
   15.4474  -21.0429    8.0188 C   0  0  0  0  0  0  0  0  0  0  0  0
   15.8567  -21.7663    9.2902 C   0  0  0  0  0  0  0  0  0  0  0  0
   14.8202  -22.7832    9.7166 C   0  0  0  0  0  0  0  0  0  0  0  0
   15.3074  -23.5451   10.8780 N   0  0  0  0  0  0  0  0  0  0  0  0
   17.0208  -18.3881    5.7879 C   0  0  0  0  0  0  0  0  0  0  0  0
   17.9984  -18.6806    5.0845 O   0  0  0  0  0  0  0  0  0  0  0  0
   16.8045  -17.0319    6.1457 N   0  0  0  0  0  0  0  0  0  0  0  0
   17.6895  -15.9431    5.7172 C   0  0  1  0  0  0  0  0  0  0  0  0
   17.0418  -15.2656    4.5456 C   0  0  0  0  0  0  0  0  0  0  0  0
   17.9111  -14.2068    3.9953 C   0  0  0  0  0  0  0  0  0  0  0  0
   18.7961  -14.5308    3.0059 C   0  0  0  0  0  0  0  0  0  0  0  0
   19.6083  -13.5827    2.4586 C   0  0  0  0  0  0  0  0  0  0  0  0
   19.5494  -12.2771    2.8966 C   0  0  0  0  0  0  0  0  0  0  0  0
   18.6715  -11.9436    3.8816 C   0  0  0  0  0  0  0  0  0  0  0  0
   17.8493  -12.8962    4.4374 C   0  0  0  0  0  0  0  0  0  0  0  0
   17.9332  -15.0270    6.8577 C   0  0  0  0  0  0  0  0  0  0  0  0
   17.0543  -14.8120    7.7249 O   0  0  0  0  0  0  0  0  0  0  0  0
   19.1531  -14.3651    7.0121 O   0  0  0  0  0  0  0  0  0  0  0  0
  2  1  1  1
  3  2  1  0
  4  8  1  0
  4  3  1  0
  5  4  2  0
  6  2  1  0
  7  6  2  0
  9  6  1  0
 10  9  1  0
 10 11  1  1
 12 13  1  0
 12 11  1  0
 13 14  1  0
 14 15  1  0
 16 17  2  0
 16 10  1  0
 18 16  1  0
 19 18  1  0
 19 20  1  6
 20 21  1  0
 21 26  2  0
 21 22  1  0
 22 23  2  0
 23 24  1  0
 25 24  2  0
 26 25  1  0
 27 29  1  0
 27 19  1  0
 28 27  2  0
M  END
$$$$
