DKF.pdb
     RDKit          3D

 29 29  0  0  1  0  0  0  0  0999 V2000
   22.9769  -22.3019  -15.2566 N   0  0  0  0  0  0  0  0  0  0  0  0
   22.8584  -21.7028  -13.9610 C   0  0  1  0  0  0  0  0  0  0  0  0
   21.6988  -22.2319  -13.1764 C   0  0  0  0  0  0  0  0  0  0  0  0
   20.3989  -22.0999  -13.8297 C   0  0  0  0  0  0  0  0  0  0  0  0
   19.5047  -22.9750  -13.8893 O   0  0  0  0  0  0  0  0  0  0  0  0
   24.1260  -21.6665  -13.2034 C   0  0  0  0  0  0  0  0  0  0  0  0
   24.6584  -22.7388  -12.7996 O   0  0  0  0  0  0  0  0  0  0  0  0
   20.1116  -20.8851  -14.4527 O   0  0  0  0  0  0  0  0  0  0  0  0
   24.7601  -20.4475  -12.9189 N   0  0  0  0  0  0  0  0  0  0  0  0
   26.0455  -20.3378  -12.2154 C   0  0  1  0  0  0  0  0  0  0  0  0
   26.7879  -19.1177  -12.6649 C   0  0  0  0  0  0  0  0  0  0  0  0
   27.0698  -19.1163  -14.1190 C   0  0  0  0  0  0  0  0  0  0  0  0
   27.8546  -17.8992  -14.5772 C   0  0  0  0  0  0  0  0  0  0  0  0
   28.1890  -17.9686  -16.0516 C   0  0  0  0  0  0  0  0  0  0  0  0
   29.0515  -16.8368  -16.4281 N   0  0  0  0  0  0  0  0  0  0  0  0
   25.8593  -20.4497  -10.7663 C   0  0  0  0  0  0  0  0  0  0  0  0
   24.7829  -20.1617  -10.2238 O   0  0  0  0  0  0  0  0  0  0  0  0
   26.9414  -20.8993   -9.9657 N   0  0  0  0  0  0  0  0  0  0  0  0
   26.8661  -20.9945   -8.5036 C   0  0  1  0  0  0  0  0  0  0  0  0
   28.2535  -21.2501   -7.9930 C   0  0  0  0  0  0  0  0  0  0  0  0
   28.4390  -20.6770   -6.6451 C   0  0  0  0  0  0  0  0  0  0  0  0
   28.4216  -21.5153   -5.5661 C   0  0  0  0  0  0  0  0  0  0  0  0
   28.6026  -21.0320   -4.3045 C   0  0  0  0  0  0  0  0  0  0  0  0
   28.8067  -19.6847   -4.0966 C   0  0  0  0  0  0  0  0  0  0  0  0
   28.8258  -18.8411   -5.1643 C   0  0  0  0  0  0  0  0  0  0  0  0
   28.6439  -19.3232   -6.4398 C   0  0  0  0  0  0  0  0  0  0  0  0
   26.2646  -19.7535   -7.9583 C   0  0  0  0  0  0  0  0  0  0  0  0
   25.4167  -19.7866   -7.0360 O   0  0  0  0  0  0  0  0  0  0  0  0
   26.6182  -18.4956   -8.4511 O   0  0  0  0  0  0  0  0  0  0  0  0
  2  1  1  6
  3  2  1  0
  4  8  1  0
  4  3  1  0
  5  4  2  0
  6  2  1  0
  7  6  2  0
  9  6  1  0
 10  9  1  0
 10 11  1  1
 12 13  1  0
 12 11  1  0
 13 14  1  0
 14 15  1  0
 16 17  2  0
 16 10  1  0
 18 16  1  0
 19 18  1  0
 19 20  1  1
 20 21  1  0
 21 26  2  0
 21 22  1  0
 22 23  2  0
 23 24  1  0
 25 24  2  0
 26 25  1  0
 27 29  1  0
 27 19  1  0
 28 27  2  0
M  END
$$$$
