DKF.pdb
     RDKit          3D

 29 29  0  0  1  0  0  0  0  0999 V2000
   27.7640  -21.3413  -18.3324 N   0  0  0  0  0  0  0  0  0  0  0  0
   26.3403  -21.2964  -18.4827 C   0  0  1  0  0  0  0  0  0  0  0  0
   25.7280  -22.6512  -18.6557 C   0  0  0  0  0  0  0  0  0  0  0  0
   25.9575  -23.2714  -19.9583 C   0  0  0  0  0  0  0  0  0  0  0  0
   26.3245  -24.4509  -20.1656 O   0  0  0  0  0  0  0  0  0  0  0  0
   25.6610  -20.4578  -17.4741 C   0  0  0  0  0  0  0  0  0  0  0  0
   26.2460  -20.1589  -16.3949 O   0  0  0  0  0  0  0  0  0  0  0  0
   25.7515  -22.4843  -21.0916 O   0  0  0  0  0  0  0  0  0  0  0  0
   24.3601  -19.9795  -17.6934 N   0  0  0  0  0  0  0  0  0  0  0  0
   23.6827  -19.0166  -16.8142 C   0  0  1  0  0  0  0  0  0  0  0  0
   23.2227  -17.8251  -17.5954 C   0  0  0  0  0  0  0  0  0  0  0  0
   24.3062  -16.8474  -17.8487 C   0  0  0  0  0  0  0  0  0  0  0  0
   23.8779  -15.6941  -18.7396 C   0  0  0  0  0  0  0  0  0  0  0  0
   25.0407  -14.7891  -19.0851 C   0  0  0  0  0  0  0  0  0  0  0  0
   24.5720  -13.6485  -19.8889 N   0  0  0  0  0  0  0  0  0  0  0  0
   22.6417  -19.6758  -16.0212 C   0  0  0  0  0  0  0  0  0  0  0  0
   21.8339  -20.4641  -16.5333 O   0  0  0  0  0  0  0  0  0  0  0  0
   22.5581  -19.4023  -14.6312 N   0  0  0  0  0  0  0  0  0  0  0  0
   21.5231  -19.9789  -13.7657 C   0  0  1  0  0  0  0  0  0  0  0  0
   21.8948  -19.6699  -12.3454 C   0  0  0  0  0  0  0  0  0  0  0  0
   20.8663  -20.1609  -11.4068 C   0  0  0  0  0  0  0  0  0  0  0  0
   20.8039  -21.4999  -11.1415 C   0  0  0  0  0  0  0  0  0  0  0  0
   19.8798  -21.9960  -10.2709 C   0  0  0  0  0  0  0  0  0  0  0  0
   18.9902  -21.1514   -9.6423 C   0  0  0  0  0  0  0  0  0  0  0  0
   19.0437  -19.8161   -9.8995 C   0  0  0  0  0  0  0  0  0  0  0  0
   19.9743  -19.3097  -10.7770 C   0  0  0  0  0  0  0  0  0  0  0  0
   20.1981  -19.4363  -14.1519 C   0  0  0  0  0  0  0  0  0  0  0  0
   19.1673  -20.1489  -14.1328 O   0  0  0  0  0  0  0  0  0  0  0  0
   20.0443  -18.1077  -14.5536 O   0  0  0  0  0  0  0  0  0  0  0  0
  2  1  1  1
  3  2  1  0
  4  8  1  0
  4  3  1  0
  5  4  2  0
  6  2  1  0
  7  6  2  0
  9  6  1  0
 10  9  1  0
 10 11  1  6
 12 13  1  0
 12 11  1  0
 13 14  1  0
 14 15  1  0
 16 17  2  0
 16 10  1  0
 18 16  1  0
 19 18  1  0
 19 20  1  1
 20 21  1  0
 21 26  2  0
 21 22  1  0
 22 23  2  0
 23 24  1  0
 25 24  2  0
 26 25  1  0
 27 29  1  0
 27 19  1  0
 28 27  2  0
M  END
$$$$
