DKF.pdb
     RDKit          3D

 29 29  0  0  1  0  0  0  0  0999 V2000
   24.6718  -16.7383  -19.1299 N   0  0  0  0  0  0  0  0  0  0  0  0
   24.5025  -16.8091  -17.7094 C   0  0  1  0  0  0  0  0  0  0  0  0
   23.4745  -15.8505  -17.1949 C   0  0  0  0  0  0  0  0  0  0  0  0
   23.9582  -14.4920  -16.9617 C   0  0  0  0  0  0  0  0  0  0  0  0
   23.4092  -13.6195  -16.2501 O   0  0  0  0  0  0  0  0  0  0  0  0
   24.3465  -18.1854  -17.1959 C   0  0  0  0  0  0  0  0  0  0  0  0
   23.4030  -18.9169  -17.6093 O   0  0  0  0  0  0  0  0  0  0  0  0
   25.1474  -14.1156  -17.5867 O   0  0  0  0  0  0  0  0  0  0  0  0
   25.2380  -18.7043  -16.2446 N   0  0  0  0  0  0  0  0  0  0  0  0
   25.0925  -20.0274  -15.6222 C   0  0  1  0  0  0  0  0  0  0  0  0
   26.4309  -20.6745  -15.4445 C   0  0  0  0  0  0  0  0  0  0  0  0
   26.8780  -21.4159  -16.6463 C   0  0  0  0  0  0  0  0  0  0  0  0
   28.1614  -22.1981  -16.4263 C   0  0  0  0  0  0  0  0  0  0  0  0
   28.5312  -23.0238  -17.6395 C   0  0  0  0  0  0  0  0  0  0  0  0
   29.8423  -23.6614  -17.4364 N   0  0  0  0  0  0  0  0  0  0  0  0
   24.2784  -19.9462  -14.4066 C   0  0  0  0  0  0  0  0  0  0  0  0
   24.5743  -19.1854  -13.4741 O   0  0  0  0  0  0  0  0  0  0  0  0
   23.1220  -20.7615  -14.2966 N   0  0  0  0  0  0  0  0  0  0  0  0
   22.3038  -20.8252  -13.0805 C   0  0  1  0  0  0  0  0  0  0  0  0
   21.7154  -19.4633  -12.8570 C   0  0  0  0  0  0  0  0  0  0  0  0
   20.7657  -19.4723  -11.7267 C   0  0  0  0  0  0  0  0  0  0  0  0
   21.2515  -19.3208  -10.4585 C   0  0  0  0  0  0  0  0  0  0  0  0
   20.4101  -19.3089   -9.3862 C   0  0  0  0  0  0  0  0  0  0  0  0
   19.0507  -19.4504   -9.5650 C   0  0  0  0  0  0  0  0  0  0  0  0
   18.5564  -19.6020  -10.8238 C   0  0  0  0  0  0  0  0  0  0  0  0
   19.4007  -19.6145  -11.9098 C   0  0  0  0  0  0  0  0  0  0  0  0
   21.2774  -21.8851  -13.2309 C   0  0  0  0  0  0  0  0  0  0  0  0
   20.7291  -22.4125  -12.2350 O   0  0  0  0  0  0  0  0  0  0  0  0
   20.8797  -22.3401  -14.4899 O   0  0  0  0  0  0  0  0  0  0  0  0
  2  1  1  6
  3  2  1  0
  4  8  1  0
  4  3  1  0
  5  4  2  0
  6  2  1  0
  7  6  2  0
  9  6  1  0
 10  9  1  0
 10 11  1  1
 12 13  1  0
 12 11  1  0
 13 14  1  0
 14 15  1  0
 16 17  2  0
 16 10  1  0
 18 16  1  0
 19 18  1  0
 19 20  1  6
 20 21  1  0
 21 26  2  0
 21 22  1  0
 22 23  2  0
 23 24  1  0
 25 24  2  0
 26 25  1  0
 27 29  1  0
 27 19  1  0
 28 27  2  0
M  END
$$$$
