YGT.pdb
     RDKit          3D

 24 24  0  0  1  0  0  0  0  0999 V2000
   11.1342  -14.5015   30.3739 O   0  0  0  0  0  0  0  0  0  0  0  0
   10.2269  -14.7092   29.3295 C   0  0  0  0  0  0  0  0  0  0  0  0
    9.7866  -13.6793   28.5339 C   0  0  0  0  0  0  0  0  0  0  0  0
    8.8852  -13.9159   27.5040 C   0  0  0  0  0  0  0  0  0  0  0  0
    8.3971  -15.1883   27.2385 C   0  0  0  0  0  0  0  0  0  0  0  0
    7.4610  -15.3668   26.1523 C   0  0  0  0  0  0  0  0  0  0  0  0
    7.7975  -16.3439   25.0783 C   0  0  2  0  0  0  0  0  0  0  0  0
    8.9419  -15.7300   24.3663 N   0  0  0  0  0  0  0  0  0  0  0  0
    6.7325  -16.4974   24.0586 C   0  0  0  0  0  0  0  0  0  0  0  0
    5.6245  -17.0658   24.3212 O   0  0  0  0  0  0  0  0  0  0  0  0
    8.8591  -16.2063   28.0573 C   0  0  0  0  0  0  0  0  0  0  0  0
    9.7552  -15.9798   29.0833 C   0  0  0  0  0  0  0  0  0  0  0  0
    6.8790  -16.0178   22.7200 N   0  0  0  0  0  0  0  0  0  0  0  0
    7.2969  -16.7957   21.6070 C   0  0  0  0  0  0  0  0  0  0  0  0
    7.3190  -16.1301   20.3085 C   0  0  0  0  0  0  0  0  0  0  0  0
    6.2036  -16.0105   19.6902 O   0  0  0  0  0  0  0  0  0  0  0  0
    6.9086  -13.1588   19.5668 C   0  0  0  0  0  0  0  0  0  0  0  0
    8.1528  -13.3974   18.7807 C   0  0  1  0  0  0  0  0  0  0  0  0
    9.2487  -12.9954   19.5690 O   0  0  0  0  0  0  0  0  0  0  0  0
    8.3419  -14.8468   18.3780 C   0  0  2  0  0  0  0  0  0  0  0  0
    8.4281  -15.5939   19.6340 N   0  0  0  0  0  0  0  0  0  0  0  0
    9.5542  -15.0023   17.5696 C   0  0  0  0  0  0  0  0  0  0  0  0
    9.6122  -14.5463   16.4036 O   0  0  0  0  0  0  0  0  0  0  0  0
   10.6617  -15.6558   18.0749 O   0  0  0  0  0  0  0  0  0  0  0  0
  2  1  1  0
  3  2  2  0
  4  3  1  0
  5 11  1  0
  5  4  2  0
  6  5  1  0
  7  6  1  0
  7  8  1  6
  9 10  2  0
  9  7  1  0
 11 12  2  0
 12  2  1  0
 13  9  1  0
 14 13  1  0
 14 15  1  0
 15 16  2  0
 18 17  1  1
 18 20  1  0
 18 19  1  0
 21 15  1  0
 20 21  1  1
 22 20  1  0
 22 24  1  0
 23 22  2  0
M  END
$$$$
