YGT.pdb
     RDKit          3D

 24 24  0  0  1  0  0  0  0  0999 V2000
   10.0241  -14.8496   30.7719 O   0  0  0  0  0  0  0  0  0  0  0  0
   10.1390  -14.9401   29.3806 C   0  0  0  0  0  0  0  0  0  0  0  0
   11.2233  -15.5306   28.7779 C   0  0  0  0  0  0  0  0  0  0  0  0
   11.3099  -15.6058   27.3937 C   0  0  0  0  0  0  0  0  0  0  0  0
   10.3159  -15.0934   26.5708 C   0  0  0  0  0  0  0  0  0  0  0  0
   10.4671  -15.2037   25.1379 C   0  0  0  0  0  0  0  0  0  0  0  0
    9.7147  -16.2747   24.4250 C   0  0  2  0  0  0  0  0  0  0  0  0
   10.2701  -17.5373   24.9641 N   0  0  0  0  0  0  0  0  0  0  0  0
    9.9779  -16.3168   22.9666 C   0  0  0  0  0  0  0  0  0  0  0  0
   11.0391  -16.8308   22.4876 O   0  0  0  0  0  0  0  0  0  0  0  0
    9.2352  -14.5041   27.2071 C   0  0  0  0  0  0  0  0  0  0  0  0
    9.1412  -14.4251   28.5826 C   0  0  0  0  0  0  0  0  0  0  0  0
    9.0603  -15.7869   22.0073 N   0  0  0  0  0  0  0  0  0  0  0  0
    9.2329  -15.8175   20.5974 C   0  0  0  0  0  0  0  0  0  0  0  0
    9.2451  -17.1316   19.9630 C   0  0  0  0  0  0  0  0  0  0  0  0
    9.0897  -18.1520   20.7215 O   0  0  0  0  0  0  0  0  0  0  0  0
    6.9863  -18.6038   17.4304 C   0  0  0  0  0  0  0  0  0  0  0  0
    8.3836  -18.7773   16.9401 C   0  0  1  0  0  0  0  0  0  0  0  0
    8.6701  -17.7163   16.0592 O   0  0  0  0  0  0  0  0  0  0  0  0
    9.4149  -18.7860   18.0514 C   0  0  2  0  0  0  0  0  0  0  0  0
    9.4103  -17.4289   18.6003 N   0  0  0  0  0  0  0  0  0  0  0  0
   10.7328  -19.1553   17.5276 C   0  0  0  0  0  0  0  0  0  0  0  0
   11.6172  -18.2868   17.3422 O   0  0  0  0  0  0  0  0  0  0  0  0
   11.0304  -20.4703   17.2261 O   0  0  0  0  0  0  0  0  0  0  0  0
  2  1  1  0
  3  2  2  0
  4  3  1  0
  5 11  1  0
  5  4  2  0
  6  5  1  0
  7  6  1  0
  7  8  1  1
  9 10  2  0
  9  7  1  0
 11 12  2  0
 12  2  1  0
 13  9  1  0
 14 13  1  0
 14 15  1  0
 15 16  2  0
 18 17  1  1
 18 20  1  0
 18 19  1  0
 21 15  1  0
 20 21  1  6
 22 20  1  0
 22 24  1  0
 23 22  2  0
M  END
$$$$
