YGT.pdb
     RDKit          3D

 24 24  0  0  1  0  0  0  0  0999 V2000
    6.2102  -11.4265   28.4703 O   0  0  0  0  0  0  0  0  0  0  0  0
    6.5728  -12.2220   27.3781 C   0  0  0  0  0  0  0  0  0  0  0  0
    7.7883  -12.0866   26.7522 C   0  0  0  0  0  0  0  0  0  0  0  0
    8.1207  -12.8909   25.6697 C   0  0  0  0  0  0  0  0  0  0  0  0
    7.2487  -13.8541   25.1806 C   0  0  0  0  0  0  0  0  0  0  0  0
    7.6554  -14.6580   24.0508 C   0  0  0  0  0  0  0  0  0  0  0  0
    7.4844  -16.1363   24.1330 C   0  0  2  0  0  0  0  0  0  0  0  0
    8.2860  -16.5355   25.3126 N   0  0  0  0  0  0  0  0  0  0  0  0
    8.0745  -16.8682   22.9867 C   0  0  0  0  0  0  0  0  0  0  0  0
    9.2457  -17.3640   23.0343 O   0  0  0  0  0  0  0  0  0  0  0  0
    6.0308  -13.9674   25.8319 C   0  0  0  0  0  0  0  0  0  0  0  0
    5.6924  -13.1718   26.9087 C   0  0  0  0  0  0  0  0  0  0  0  0
    7.3691  -17.0656   21.7593 N   0  0  0  0  0  0  0  0  0  0  0  0
    7.9215  -17.6131   20.5703 C   0  0  0  0  0  0  0  0  0  0  0  0
    8.5134  -16.6726   19.6243 C   0  0  0  0  0  0  0  0  0  0  0  0
    7.8206  -16.3622   18.5927 O   0  0  0  0  0  0  0  0  0  0  0  0
    9.4159  -12.3672   19.2563 C   0  0  0  0  0  0  0  0  0  0  0  0
    9.0903  -13.7818   19.5966 C   0  0  1  0  0  0  0  0  0  0  0  0
    7.8218  -14.0769   19.0603 O   0  0  0  0  0  0  0  0  0  0  0  0
   10.0970  -14.7782   19.0558 C   0  0  2  0  0  0  0  0  0  0  0  0
    9.7711  -16.0521   19.6991 N   0  0  0  0  0  0  0  0  0  0  0  0
   11.4634  -14.3481   19.3644 C   0  0  0  0  0  0  0  0  0  0  0  0
   12.0381  -13.4816   18.6645 O   0  0  0  0  0  0  0  0  0  0  0  0
   12.1499  -14.8887   20.4347 O   0  0  0  0  0  0  0  0  0  0  0  0
  2  1  1  0
  3  2  2  0
  4  3  1  0
  5 11  1  0
  5  4  2  0
  6  5  1  0
  7  6  1  0
  7  8  1  1
  9 10  2  0
  9  7  1  0
 11 12  2  0
 12  2  1  0
 13  9  1  0
 14 13  1  0
 14 15  1  0
 15 16  2  0
 18 17  1  6
 18 20  1  0
 18 19  1  0
 21 15  1  0
 20 21  1  1
 22 20  1  0
 22 24  1  0
 23 22  2  0
M  END
$$$$
