YGT.pdb
     RDKit          3D

 24 24  0  0  1  0  0  0  0  0999 V2000
   11.0652  -15.2527   30.4272 O   0  0  0  0  0  0  0  0  0  0  0  0
   10.2710  -15.0660   29.2907 C   0  0  0  0  0  0  0  0  0  0  0  0
    9.9348  -13.8137   28.8368 C   0  0  0  0  0  0  0  0  0  0  0  0
    9.1445  -13.6594   27.7051 C   0  0  0  0  0  0  0  0  0  0  0  0
    8.6667  -14.7517   26.9935 C   0  0  0  0  0  0  0  0  0  0  0  0
    7.8488  -14.5226   25.8245 C   0  0  0  0  0  0  0  0  0  0  0  0
    8.0468  -15.4002   24.6363 C   0  0  2  0  0  0  0  0  0  0  0  0
    9.3933  -15.0429   24.1338 N   0  0  0  0  0  0  0  0  0  0  0  0
    7.1167  -15.1084   23.5194 C   0  0  0  0  0  0  0  0  0  0  0  0
    6.0899  -15.8253   23.2923 O   0  0  0  0  0  0  0  0  0  0  0  0
    9.0221  -16.0014   27.4752 C   0  0  0  0  0  0  0  0  0  0  0  0
    9.8074  -16.1637   28.5994 C   0  0  0  0  0  0  0  0  0  0  0  0
    7.3104  -14.0068   22.6294 N   0  0  0  0  0  0  0  0  0  0  0  0
    6.8343  -13.9335   21.2929 C   0  0  0  0  0  0  0  0  0  0  0  0
    7.7350  -14.4036   20.2454 C   0  0  0  0  0  0  0  0  0  0  0  0
    7.2826  -14.4256   19.0473 O   0  0  0  0  0  0  0  0  0  0  0  0
    9.8566  -12.6337   18.8470 C   0  0  0  0  0  0  0  0  0  0  0  0
   10.7319  -13.8244   19.0448 C   0  0  1  0  0  0  0  0  0  0  0  0
   11.5423  -13.5857   20.1718 O   0  0  0  0  0  0  0  0  0  0  0  0
    9.9588  -15.1111   19.2585 C   0  0  2  0  0  0  0  0  0  0  0  0
    9.0608  -14.8459   20.3837 N   0  0  0  0  0  0  0  0  0  0  0  0
   10.8737  -16.2197   19.5436 C   0  0  0  0  0  0  0  0  0  0  0  0
   10.8719  -16.7828   20.6633 O   0  0  0  0  0  0  0  0  0  0  0  0
   11.7596  -16.6698   18.5836 O   0  0  0  0  0  0  0  0  0  0  0  0
  2  1  1  0
  3  2  2  0
  4  3  1  0
  5 11  1  0
  5  4  2  0
  6  5  1  0
  7  6  1  0
  7  8  1  6
  9 10  2  0
  9  7  1  0
 11 12  2  0
 12  2  1  0
 13  9  1  0
 14 13  1  0
 14 15  1  0
 15 16  2  0
 18 17  1  1
 18 20  1  0
 18 19  1  0
 21 15  1  0
 20 21  1  1
 22 20  1  0
 22 24  1  0
 23 22  2  0
M  END
$$$$
