YGT.pdb
     RDKit          3D

 24 24  0  0  1  0  0  0  0  0999 V2000
   11.0123  -14.2679   30.0023 O   0  0  0  0  0  0  0  0  0  0  0  0
   10.3391  -14.4360   28.7875 C   0  0  0  0  0  0  0  0  0  0  0  0
   10.8310  -15.2419   27.7895 C   0  0  0  0  0  0  0  0  0  0  0  0
   10.1402  -15.3894   26.5936 C   0  0  0  0  0  0  0  0  0  0  0  0
    8.9376  -14.7362   26.3594 C   0  0  0  0  0  0  0  0  0  0  0  0
    8.2691  -14.9322   25.0934 C   0  0  0  0  0  0  0  0  0  0  0  0
    7.2367  -16.0024   24.9938 C   0  0  2  0  0  0  0  0  0  0  0  0
    7.9724  -17.2536   25.2881 N   0  0  0  0  0  0  0  0  0  0  0  0
    6.6899  -16.1765   23.6269 C   0  0  0  0  0  0  0  0  0  0  0  0
    6.0133  -15.2656   23.0504 O   0  0  0  0  0  0  0  0  0  0  0  0
    8.4668  -13.9307   27.3840 C   0  0  0  0  0  0  0  0  0  0  0  0
    9.1472  -13.7785   28.5759 C   0  0  0  0  0  0  0  0  0  0  0  0
    6.8875  -17.3726   22.8696 N   0  0  0  0  0  0  0  0  0  0  0  0
    6.4172  -17.5985   21.5482 C   0  0  0  0  0  0  0  0  0  0  0  0
    7.0177  -16.7951   20.4882 C   0  0  0  0  0  0  0  0  0  0  0  0
    6.5970  -16.9885   19.2939 O   0  0  0  0  0  0  0  0  0  0  0  0
    6.8836  -13.3637   19.6287 C   0  0  0  0  0  0  0  0  0  0  0  0
    8.3424  -13.6709   19.6541 C   0  0  1  0  0  0  0  0  0  0  0  0
    8.8546  -13.2451   20.8951 O   0  0  0  0  0  0  0  0  0  0  0  0
    8.6507  -15.1444   19.4741 C   0  0  2  0  0  0  0  0  0  0  0  0
    8.0191  -15.8180   20.6101 N   0  0  0  0  0  0  0  0  0  0  0  0
   10.0987  -15.3676   19.4472 C   0  0  0  0  0  0  0  0  0  0  0  0
   10.6697  -15.9946   20.3701 O   0  0  0  0  0  0  0  0  0  0  0  0
   10.8680  -14.8916   18.4029 O   0  0  0  0  0  0  0  0  0  0  0  0
  2  1  1  0
  3  2  2  0
  4  3  1  0
  5 11  1  0
  5  4  2  0
  6  5  1  0
  7  6  1  0
  7  8  1  6
  9 10  2  0
  9  7  1  0
 11 12  2  0
 12  2  1  0
 13  9  1  0
 14 13  1  0
 14 15  1  0
 15 16  2  0
 18 17  1  1
 18 20  1  0
 18 19  1  0
 21 15  1  0
 20 21  1  1
 22 20  1  0
 22 24  1  0
 23 22  2  0
M  END
$$$$
