WWT.pdb
     RDKit          3D

 36 39  0  0  1  0  0  0  0  0999 V2000
    8.4536  -17.9401   22.0038 N   0  0  0  0  0  0  0  0  0  0  0  0
    9.7532  -17.3922   22.1545 C   0  0  1  0  0  0  0  0  0  0  0  0
    9.9607  -16.2067   21.2821 C   0  0  0  0  0  0  0  0  0  0  0  0
    8.7041  -15.4192   21.1896 C   0  0  0  0  0  0  0  0  0  0  0  0
    7.4744  -15.7763   21.7700 C   0  0  0  0  0  0  0  0  0  0  0  0
    6.5626  -14.8317   21.5233 N   0  0  0  0  0  0  0  0  0  0  0  0
    7.1293  -13.8545   20.8002 C   0  0  0  0  0  0  0  0  0  0  0  0
    6.6574  -12.6679   20.2736 C   0  0  0  0  0  0  0  0  0  0  0  0
    7.4512  -11.8188   19.5423 C   0  0  0  0  0  0  0  0  0  0  0  0
    8.7538  -12.2067   19.3543 C   0  0  0  0  0  0  0  0  0  0  0  0
    9.2799  -13.3874   19.8608 C   0  0  0  0  0  0  0  0  0  0  0  0
    8.4552  -14.2035   20.5846 C   0  0  0  0  0  0  0  0  0  0  0  0
   10.1190  -17.1035   23.5876 C   0  0  0  0  0  0  0  0  0  0  0  0
   11.2258  -16.5994   23.7866 O   0  0  0  0  0  0  0  0  0  0  0  0
    9.2494  -17.3895   24.6608 N   0  0  0  0  0  0  0  0  0  0  0  0
    9.5028  -17.2860   26.0618 C   0  0  1  0  0  0  0  0  0  0  0  0
    8.3800  -16.7596   26.8848 C   0  0  0  0  0  0  0  0  0  0  0  0
    7.5203  -15.7969   26.1774 C   0  0  0  0  0  0  0  0  0  0  0  0
    6.3988  -16.0609   25.3907 C   0  0  0  0  0  0  0  0  0  0  0  0
    5.8873  -14.9036   24.9485 N   0  0  0  0  0  0  0  0  0  0  0  0
    6.6429  -13.8959   25.4236 C   0  0  0  0  0  0  0  0  0  0  0  0
    6.5668  -12.5269   25.2727 C   0  0  0  0  0  0  0  0  0  0  0  0
    7.4772  -11.6728   25.8610 C   0  0  0  0  0  0  0  0  0  0  0  0
    8.5011  -12.1905   26.6267 C   0  0  0  0  0  0  0  0  0  0  0  0
    8.5600  -13.5612   26.7656 C   0  0  0  0  0  0  0  0  0  0  0  0
    7.6601  -14.4312   26.1871 C   0  0  0  0  0  0  0  0  0  0  0  0
   10.2044  -18.4631   26.6716 C   0  0  0  0  0  0  0  0  0  0  0  0
    9.5156  -19.2741   27.3354 O   0  0  0  0  0  0  0  0  0  0  0  0
   13.3378  -20.4082   24.8764 C   0  0  0  0  0  0  0  0  0  0  0  0
   13.5247  -20.1344   26.3211 C   0  0  1  0  0  0  0  0  0  0  0  0
   14.4156  -19.0439   26.4525 O   0  0  0  0  0  0  0  0  0  0  0  0
   12.2689  -19.7897   27.0821 C   0  0  2  0  0  0  0  0  0  0  0  0
   11.6049  -18.6426   26.4944 N   0  0  0  0  0  0  0  0  0  0  0  0
   12.4508  -19.5564   28.5053 C   0  0  0  0  0  0  0  0  0  0  0  0
   12.8974  -20.4704   29.4437 O   0  0  0  0  0  0  0  0  0  0  0  0
   12.1815  -18.4038   28.9755 O   0  0  0  0  0  0  0  0  0  0  0  0
  2  3  1  0
  2  1  1  1
  4 12  1  0
  4  3  1  0
  5  4  2  0
  6  5  1  0
  6  7  1  0
  7  8  1  0
  7 12  2  0
  8  9  2  0
  9 10  1  0
 11 10  2  0
 12 11  1  0
 13  2  1  0
 14 13  2  0
 15 13  1  0
 16 15  1  0
 16 17  1  1
 18 17  1  0
 19 18  2  0
 20 19  1  0
 21 20  1  0
 21 26  2  0
 22 21  1  0
 23 22  2  0
 23 24  1  0
 24 25  2  0
 25 26  1  0
 26 18  1  0
 27 16  1  0
 27 28  2  0
 30 32  1  0
 30 29  1  6
 31 30  1  0
 32 33  1  6
 33 27  1  0
 34 32  1  0
 35 34  1  0
 36 34  2  0
M  END
$$$$
