WWT.pdb
     RDKit          3D

 36 39  0  0  1  0  0  0  0  0999 V2000
    8.2926  -17.5813   21.7643 N   0  0  0  0  0  0  0  0  0  0  0  0
    8.5709  -16.2371   22.1211 C   0  0  1  0  0  0  0  0  0  0  0  0
    7.3915  -15.3543   21.9232 C   0  0  0  0  0  0  0  0  0  0  0  0
    7.2462  -15.0177   20.4832 C   0  0  0  0  0  0  0  0  0  0  0  0
    6.6153  -15.8221   19.5182 C   0  0  0  0  0  0  0  0  0  0  0  0
    6.6300  -15.2074   18.3323 N   0  0  0  0  0  0  0  0  0  0  0  0
    7.2457  -14.0228   18.4608 C   0  0  0  0  0  0  0  0  0  0  0  0
    7.5400  -13.0050   17.5746 C   0  0  0  0  0  0  0  0  0  0  0  0
    8.2042  -11.8651   17.9555 C   0  0  0  0  0  0  0  0  0  0  0  0
    8.5690  -11.7799   19.2755 C   0  0  0  0  0  0  0  0  0  0  0  0
    8.2987  -12.7721   20.2081 C   0  0  0  0  0  0  0  0  0  0  0  0
    7.6339  -13.8905   19.7867 C   0  0  0  0  0  0  0  0  0  0  0  0
    9.1527  -16.0925   23.5037 C   0  0  0  0  0  0  0  0  0  0  0  0
    9.7721  -15.0533   23.7388 O   0  0  0  0  0  0  0  0  0  0  0  0
    9.0050  -17.0875   24.4925 N   0  0  0  0  0  0  0  0  0  0  0  0
    9.5609  -17.1239   25.8067 C   0  0  1  0  0  0  0  0  0  0  0  0
    8.6215  -16.8018   26.9154 C   0  0  0  0  0  0  0  0  0  0  0  0
    7.5845  -15.8217   26.5546 C   0  0  0  0  0  0  0  0  0  0  0  0
    6.2756  -16.0673   26.1390 C   0  0  0  0  0  0  0  0  0  0  0  0
    5.6513  -14.8993   25.9327 N   0  0  0  0  0  0  0  0  0  0  0  0
    6.5151  -13.9025   26.2013 C   0  0  0  0  0  0  0  0  0  0  0  0
    6.3944  -12.5294   26.1484 C   0  0  0  0  0  0  0  0  0  0  0  0
    7.4407  -11.6886   26.4695 C   0  0  0  0  0  0  0  0  0  0  0  0
    8.6512  -12.2243   26.8569 C   0  0  0  0  0  0  0  0  0  0  0  0
    8.7518  -13.5988   26.9036 C   0  0  0  0  0  0  0  0  0  0  0  0
    7.7188  -14.4557   26.5879 C   0  0  0  0  0  0  0  0  0  0  0  0
   10.4561  -18.2938   26.0883 C   0  0  0  0  0  0  0  0  0  0  0  0
    9.9270  -19.4281   26.1691 O   0  0  0  0  0  0  0  0  0  0  0  0
   15.0899  -20.0799   26.3542 C   0  0  0  0  0  0  0  0  0  0  0  0
   14.1351  -18.9683   26.1309 C   0  0  1  0  0  0  0  0  0  0  0  0
   14.1323  -18.6587   24.7509 O   0  0  0  0  0  0  0  0  0  0  0  0
   12.7097  -19.2483   26.5369 C   0  0  2  0  0  0  0  0  0  0  0  0
   11.8572  -18.1098   26.2551 N   0  0  0  0  0  0  0  0  0  0  0  0
   12.5267  -19.6481   27.9223 C   0  0  0  0  0  0  0  0  0  0  0  0
   12.7849  -20.8946   28.4653 O   0  0  0  0  0  0  0  0  0  0  0  0
   12.0841  -18.7903   28.7532 O   0  0  0  0  0  0  0  0  0  0  0  0
  2  3  1  0
  2  1  1  1
  4 12  1  0
  4  3  1  0
  5  4  2  0
  6  5  1  0
  6  7  1  0
  7  8  1  0
  7 12  2  0
  8  9  2  0
  9 10  1  0
 11 10  2  0
 12 11  1  0
 13  2  1  0
 14 13  2  0
 15 13  1  0
 16 15  1  0
 16 17  1  1
 18 17  1  0
 19 18  2  0
 20 19  1  0
 21 20  1  0
 21 26  2  0
 22 21  1  0
 23 22  2  0
 23 24  1  0
 24 25  2  0
 25 26  1  0
 26 18  1  0
 27 16  1  0
 27 28  2  0
 30 32  1  0
 30 29  1  6
 31 30  1  0
 32 33  1  1
 33 27  1  0
 34 32  1  0
 35 34  1  0
 36 34  2  0
M  END
$$$$
