WWT.pdb
     RDKit          3D

 36 39  0  0  1  0  0  0  0  0999 V2000
    8.9260  -18.0043   21.7442 N   0  0  0  0  0  0  0  0  0  0  0  0
   10.1886  -17.4710   22.1092 C   0  0  1  0  0  0  0  0  0  0  0  0
   10.5125  -16.2378   21.3452 C   0  0  0  0  0  0  0  0  0  0  0  0
    9.2633  -15.6123   20.8391 C   0  0  0  0  0  0  0  0  0  0  0  0
    8.3716  -16.1986   19.9239 C   0  0  0  0  0  0  0  0  0  0  0  0
    7.3358  -15.3825   19.7103 N   0  0  0  0  0  0  0  0  0  0  0  0
    7.4954  -14.2712   20.4442 C   0  0  0  0  0  0  0  0  0  0  0  0
    6.7472  -13.1205   20.5989 C   0  0  0  0  0  0  0  0  0  0  0  0
    7.1361  -12.0939   21.4239 C   0  0  0  0  0  0  0  0  0  0  0  0
    8.3190  -12.2634   22.0981 C   0  0  0  0  0  0  0  0  0  0  0  0
    9.1097  -13.3985   21.9799 C   0  0  0  0  0  0  0  0  0  0  0  0
    8.6846  -14.3976   21.1485 C   0  0  0  0  0  0  0  0  0  0  0  0
   10.3462  -17.2674   23.5940 C   0  0  0  0  0  0  0  0  0  0  0  0
   11.3968  -16.7472   23.9739 O   0  0  0  0  0  0  0  0  0  0  0  0
    9.3502  -17.6472   24.5177 N   0  0  0  0  0  0  0  0  0  0  0  0
    9.3915  -17.5886   25.9434 C   0  0  1  0  0  0  0  0  0  0  0  0
    8.1119  -17.2290   26.6131 C   0  0  0  0  0  0  0  0  0  0  0  0
    7.3659  -16.1538   25.9395 C   0  0  0  0  0  0  0  0  0  0  0  0
    6.2625  -16.2712   25.0939 C   0  0  0  0  0  0  0  0  0  0  0  0
    5.8675  -15.0489   24.7112 N   0  0  0  0  0  0  0  0  0  0  0  0
    6.6812  -14.1412   25.2822 C   0  0  0  0  0  0  0  0  0  0  0  0
    6.7240  -12.7638   25.2212 C   0  0  0  0  0  0  0  0  0  0  0  0
    7.6743  -12.0291   25.9007 C   0  0  0  0  0  0  0  0  0  0  0  0
    8.6175  -12.6793   26.6688 C   0  0  0  0  0  0  0  0  0  0  0  0
    8.5579  -14.0562   26.7171 C   0  0  0  0  0  0  0  0  0  0  0  0
    7.6164  -14.8082   26.0468 C   0  0  0  0  0  0  0  0  0  0  0  0
   10.1305  -18.7126   26.6067 C   0  0  0  0  0  0  0  0  0  0  0  0
   10.2309  -19.7951   25.9814 O   0  0  0  0  0  0  0  0  0  0  0  0
   12.3590  -20.0175   26.1007 C   0  0  0  0  0  0  0  0  0  0  0  0
   12.7143  -19.8568   27.5307 C   0  0  1  0  0  0  0  0  0  0  0  0
   13.6281  -18.7830   27.6410 O   0  0  0  0  0  0  0  0  0  0  0  0
   11.5589  -19.5673   28.4560 C   0  0  2  0  0  0  0  0  0  0  0  0
   10.6950  -18.5432   27.9019 N   0  0  0  0  0  0  0  0  0  0  0  0
   11.9285  -19.1953   29.8118 C   0  0  0  0  0  0  0  0  0  0  0  0
   12.5637  -19.9951   30.7457 O   0  0  0  0  0  0  0  0  0  0  0  0
   11.6559  -18.0200   30.2194 O   0  0  0  0  0  0  0  0  0  0  0  0
  2  3  1  0
  2  1  1  1
  4 12  1  0
  4  3  1  0
  5  4  2  0
  6  5  1  0
  6  7  1  0
  7  8  1  0
  7 12  2  0
  8  9  2  0
  9 10  1  0
 11 10  2  0
 12 11  1  0
 13  2  1  0
 14 13  2  0
 15 13  1  0
 16 15  1  0
 16 17  1  1
 18 17  1  0
 19 18  2  0
 20 19  1  0
 21 20  1  0
 21 26  2  0
 22 21  1  0
 23 22  2  0
 23 24  1  0
 24 25  2  0
 25 26  1  0
 26 18  1  0
 27 16  1  0
 27 28  2  0
 30 32  1  0
 30 29  1  6
 31 30  1  0
 32 33  1  6
 33 27  1  0
 34 32  1  0
 35 34  1  0
 36 34  2  0
M  END
$$$$
