WWT.pdb
     RDKit          3D

 36 39  0  0  1  0  0  0  0  0999 V2000
    8.6175  -18.3124   22.1079 N   0  0  0  0  0  0  0  0  0  0  0  0
    9.6889  -17.4583   21.7411 C   0  0  1  0  0  0  0  0  0  0  0  0
    9.3911  -16.6951   20.5008 C   0  0  0  0  0  0  0  0  0  0  0  0
    8.1842  -15.8519   20.7019 C   0  0  0  0  0  0  0  0  0  0  0  0
    6.9051  -16.3277   21.0396 C   0  0  0  0  0  0  0  0  0  0  0  0
    6.0594  -15.3029   21.1774 N   0  0  0  0  0  0  0  0  0  0  0  0
    6.7179  -14.1576   20.9455 C   0  0  0  0  0  0  0  0  0  0  0  0
    6.3400  -12.8291   20.9443 C   0  0  0  0  0  0  0  0  0  0  0  0
    7.2188  -11.8131   20.6595 C   0  0  0  0  0  0  0  0  0  0  0  0
    8.5088  -12.1808   20.3712 C   0  0  0  0  0  0  0  0  0  0  0  0
    8.9424  -13.4996   20.3583 C   0  0  0  0  0  0  0  0  0  0  0  0
    8.0348  -14.4805   20.6491 C   0  0  0  0  0  0  0  0  0  0  0  0
   10.1444  -16.5554   22.8583 C   0  0  0  0  0  0  0  0  0  0  0  0
   11.1073  -15.8233   22.6219 O   0  0  0  0  0  0  0  0  0  0  0  0
    9.5115  -16.5359   24.1186 N   0  0  0  0  0  0  0  0  0  0  0  0
   10.0872  -16.2736   25.3983 C   0  0  1  0  0  0  0  0  0  0  0  0
    9.1215  -16.0743   26.5132 C   0  0  0  0  0  0  0  0  0  0  0  0
    7.8761  -15.4002   26.1122 C   0  0  0  0  0  0  0  0  0  0  0  0
    6.6672  -15.9822   25.7302 C   0  0  0  0  0  0  0  0  0  0  0  0
    5.7760  -15.0163   25.4668 N   0  0  0  0  0  0  0  0  0  0  0  0
    6.3696  -13.8246   25.6656 C   0  0  0  0  0  0  0  0  0  0  0  0
    5.9165  -12.5282   25.5362 C   0  0  0  0  0  0  0  0  0  0  0  0
    6.7252  -11.4399   25.7936 C   0  0  0  0  0  0  0  0  0  0  0  0
    8.0300  -11.6398   26.1934 C   0  0  0  0  0  0  0  0  0  0  0  0
    8.4640  -12.9430   26.3169 C   0  0  0  0  0  0  0  0  0  0  0  0
    7.6720  -14.0433   26.0656 C   0  0  0  0  0  0  0  0  0  0  0  0
   11.2619  -17.1341   25.7574 C   0  0  0  0  0  0  0  0  0  0  0  0
   11.8159  -16.9340   26.8647 O   0  0  0  0  0  0  0  0  0  0  0  0
   13.1459  -19.8999   22.9140 C   0  0  0  0  0  0  0  0  0  0  0  0
   12.8867  -20.2170   24.3385 C   0  0  1  0  0  0  0  0  0  0  0  0
   13.9365  -21.0416   24.8058 O   0  0  0  0  0  0  0  0  0  0  0  0
   12.7989  -19.0267   25.2609 C   0  0  2  0  0  0  0  0  0  0  0  0
   11.7220  -18.1410   24.8634 N   0  0  0  0  0  0  0  0  0  0  0  0
   14.0236  -18.2555   25.3962 C   0  0  0  0  0  0  0  0  0  0  0  0
   15.2482  -18.7184   25.8448 O   0  0  0  0  0  0  0  0  0  0  0  0
   14.0079  -17.0221   25.0792 O   0  0  0  0  0  0  0  0  0  0  0  0
  2  3  1  0
  2  1  1  1
  4 12  1  0
  4  3  1  0
  5  4  2  0
  6  5  1  0
  6  7  1  0
  7  8  1  0
  7 12  2  0
  8  9  2  0
  9 10  1  0
 11 10  2  0
 12 11  1  0
 13  2  1  0
 14 13  2  0
 15 13  1  0
 16 15  1  0
 16 17  1  1
 18 17  1  0
 19 18  2  0
 20 19  1  0
 21 20  1  0
 21 26  2  0
 22 21  1  0
 23 22  2  0
 23 24  1  0
 24 25  2  0
 25 26  1  0
 26 18  1  0
 27 16  1  0
 27 28  2  0
 30 32  1  0
 30 29  1  6
 31 30  1  0
 32 33  1  6
 33 27  1  0
 34 32  1  0
 35 34  1  0
 36 34  2  0
M  END
$$$$
