WWT.pdb
     RDKit          3D

 36 39  0  0  1  0  0  0  0  0999 V2000
    7.3803  -18.3809   21.9529 N   0  0  0  0  0  0  0  0  0  0  0  0
    7.8862  -17.0973   21.6238 C   0  0  1  0  0  0  0  0  0  0  0  0
    6.8049  -16.1614   21.2184 C   0  0  0  0  0  0  0  0  0  0  0  0
    7.2732  -15.2983   20.1032 C   0  0  0  0  0  0  0  0  0  0  0  0
    7.2527  -15.6451   18.7409 C   0  0  0  0  0  0  0  0  0  0  0  0
    7.7121  -14.6291   18.0052 N   0  0  0  0  0  0  0  0  0  0  0  0
    8.0412  -13.6139   18.8175 C   0  0  0  0  0  0  0  0  0  0  0  0
    8.5605  -12.3529   18.5982 C   0  0  0  0  0  0  0  0  0  0  0  0
    8.8260  -11.4769   19.6219 C   0  0  0  0  0  0  0  0  0  0  0  0
    8.5490  -11.9158   20.8921 C   0  0  0  0  0  0  0  0  0  0  0  0
    8.0268  -13.1719   21.1692 C   0  0  0  0  0  0  0  0  0  0  0  0
    7.7759  -14.0126   20.1202 C   0  0  0  0  0  0  0  0  0  0  0  0
    8.7649  -16.5068   22.6962 C   0  0  0  0  0  0  0  0  0  0  0  0
    9.4588  -15.5405   22.3746 O   0  0  0  0  0  0  0  0  0  0  0  0
    8.8035  -17.0220   24.0087 N   0  0  0  0  0  0  0  0  0  0  0  0
    9.6589  -16.6437   25.0871 C   0  0  1  0  0  0  0  0  0  0  0  0
    8.9923  -16.4492   26.4036 C   0  0  0  0  0  0  0  0  0  0  0  0
    7.7644  -15.6404   26.3383 C   0  0  0  0  0  0  0  0  0  0  0  0
    6.4472  -16.0840   26.2178 C   0  0  0  0  0  0  0  0  0  0  0  0
    5.6234  -15.0267   26.2190 N   0  0  0  0  0  0  0  0  0  0  0  0
    6.3657  -13.9098   26.3362 C   0  0  0  0  0  0  0  0  0  0  0  0
    6.0305  -12.5725   26.3832 C   0  0  0  0  0  0  0  0  0  0  0  0
    6.9837  -11.5816   26.5020 C   0  0  0  0  0  0  0  0  0  0  0  0
    8.3175  -11.9245   26.5769 C   0  0  0  0  0  0  0  0  0  0  0  0
    8.6322  -13.2663   26.5284 C   0  0  0  0  0  0  0  0  0  0  0  0
    7.6953  -14.2711   26.4110 C   0  0  0  0  0  0  0  0  0  0  0  0
   10.9549  -17.3943   25.1664 C   0  0  0  0  0  0  0  0  0  0  0  0
   10.9394  -18.5331   25.6917 O   0  0  0  0  0  0  0  0  0  0  0  0
   14.0688  -16.0427   22.5286 C   0  0  0  0  0  0  0  0  0  0  0  0
   13.6671  -17.4336   22.8465 C   0  0  1  0  0  0  0  0  0  0  0  0
   14.7595  -18.2853   22.5609 O   0  0  0  0  0  0  0  0  0  0  0  0
   13.2618  -17.6788   24.2785 C   0  0  2  0  0  0  0  0  0  0  0  0
   12.1549  -16.8228   24.6580 N   0  0  0  0  0  0  0  0  0  0  0  0
   14.3277  -17.5399   25.2570 C   0  0  0  0  0  0  0  0  0  0  0  0
   15.5062  -18.2638   25.3059 O   0  0  0  0  0  0  0  0  0  0  0  0
   14.2004  -16.6728   26.1811 O   0  0  0  0  0  0  0  0  0  0  0  0
  2  3  1  0
  2  1  1  1
  4 12  1  0
  4  3  1  0
  5  4  2  0
  6  5  1  0
  6  7  1  0
  7  8  1  0
  7 12  2  0
  8  9  2  0
  9 10  1  0
 11 10  2  0
 12 11  1  0
 13  2  1  0
 14 13  2  0
 15 13  1  0
 16 15  1  0
 16 17  1  1
 18 17  1  0
 19 18  2  0
 20 19  1  0
 21 20  1  0
 21 26  2  0
 22 21  1  0
 23 22  2  0
 23 24  1  0
 24 25  2  0
 25 26  1  0
 26 18  1  0
 27 16  1  0
 27 28  2  0
 30 32  1  0
 30 29  1  1
 31 30  1  0
 32 33  1  1
 33 27  1  0
 34 32  1  0
 35 34  1  0
 36 34  2  0
M  END
$$$$
