WWT.pdb
     RDKit          3D

 36 39  0  0  1  0  0  0  0  0999 V2000
   11.0359  -17.9608   19.6046 N   0  0  0  0  0  0  0  0  0  0  0  0
   10.2179  -17.0662   20.3413 C   0  0  1  0  0  0  0  0  0  0  0  0
    8.7731  -17.2782   20.0639 C   0  0  0  0  0  0  0  0  0  0  0  0
    8.2189  -16.1061   19.3381 C   0  0  0  0  0  0  0  0  0  0  0  0
    7.5985  -16.1476   18.0771 C   0  0  0  0  0  0  0  0  0  0  0  0
    7.1856  -14.9249   17.7320 N   0  0  0  0  0  0  0  0  0  0  0  0
    7.5039  -14.0632   18.7094 C   0  0  0  0  0  0  0  0  0  0  0  0
    7.3247  -12.7032   18.8711 C   0  0  0  0  0  0  0  0  0  0  0  0
    7.7582  -12.0302   19.9868 C   0  0  0  0  0  0  0  0  0  0  0  0
    8.3875  -12.7792   20.9489 C   0  0  0  0  0  0  0  0  0  0  0  0
    8.5937  -14.1476   20.8380 C   0  0  0  0  0  0  0  0  0  0  0  0
    8.1449  -14.7789   19.7109 C   0  0  0  0  0  0  0  0  0  0  0  0
   10.5101  -17.0668   21.8196 C   0  0  0  0  0  0  0  0  0  0  0  0
   10.8688  -18.1373   22.3135 O   0  0  0  0  0  0  0  0  0  0  0  0
   10.3847  -15.9081   22.6141 N   0  0  0  0  0  0  0  0  0  0  0  0
    9.5621  -15.7027   23.7626 C   0  0  1  0  0  0  0  0  0  0  0  0
    8.2139  -15.1302   23.4982 C   0  0  0  0  0  0  0  0  0  0  0  0
    7.4485  -14.8160   24.7155 C   0  0  0  0  0  0  0  0  0  0  0  0
    6.4168  -15.5530   25.2975 C   0  0  0  0  0  0  0  0  0  0  0  0
    6.0044  -14.9319   26.4113 N   0  0  0  0  0  0  0  0  0  0  0  0
    6.7365  -13.8135   26.5701 C   0  0  0  0  0  0  0  0  0  0  0  0
    6.7228  -12.8228   27.5299 C   0  0  0  0  0  0  0  0  0  0  0  0
    7.5812  -11.7433   27.4815 C   0  0  0  0  0  0  0  0  0  0  0  0
    8.4865  -11.6384   26.4463 C   0  0  0  0  0  0  0  0  0  0  0  0
    8.4847  -12.6386   25.4970 C   0  0  0  0  0  0  0  0  0  0  0  0
    7.6365  -13.7252   25.5278 C   0  0  0  0  0  0  0  0  0  0  0  0
    9.5619  -16.8264   24.7559 C   0  0  0  0  0  0  0  0  0  0  0  0
    8.5686  -17.5919   24.7718 O   0  0  0  0  0  0  0  0  0  0  0  0
   12.3007  -19.4482   25.2629 C   0  0  0  0  0  0  0  0  0  0  0  0
   11.9399  -18.8605   26.5750 C   0  0  1  0  0  0  0  0  0  0  0  0
   12.9700  -17.9708   26.9591 O   0  0  0  0  0  0  0  0  0  0  0  0
   10.6418  -18.0931   26.6053 C   0  0  2  0  0  0  0  0  0  0  0  0
   10.6586  -17.0075   25.6444 N   0  0  0  0  0  0  0  0  0  0  0  0
   10.2609  -17.5701   27.9070 C   0  0  0  0  0  0  0  0  0  0  0  0
    9.8627  -18.3048   29.0102 O   0  0  0  0  0  0  0  0  0  0  0  0
   10.2830  -16.3100   28.0903 O   0  0  0  0  0  0  0  0  0  0  0  0
  2  3  1  0
  2  1  1  6
  4 12  1  0
  4  3  1  0
  5  4  2  0
  6  5  1  0
  6  7  1  0
  7  8  1  0
  7 12  2  0
  8  9  2  0
  9 10  1  0
 11 10  2  0
 12 11  1  0
 13  2  1  0
 14 13  2  0
 15 13  1  0
 16 15  1  0
 16 17  1  6
 18 17  1  0
 19 18  2  0
 20 19  1  0
 21 20  1  0
 21 26  2  0
 22 21  1  0
 23 22  2  0
 23 24  1  0
 24 25  2  0
 25 26  1  0
 26 18  1  0
 27 16  1  0
 27 28  2  0
 30 32  1  0
 30 29  1  6
 31 30  1  0
 32 33  1  6
 33 27  1  0
 34 32  1  0
 35 34  1  0
 36 34  2  0
M  END
$$$$
