WWT.pdb
     RDKit          3D

 36 39  0  0  1  0  0  0  0  0999 V2000
    8.4862  -16.2326   21.4095 N   0  0  0  0  0  0  0  0  0  0  0  0
    9.2547  -15.1794   21.9681 C   0  0  1  0  0  0  0  0  0  0  0  0
    8.7508  -13.8438   21.5534 C   0  0  0  0  0  0  0  0  0  0  0  0
    8.8423  -13.7036   20.0769 C   0  0  0  0  0  0  0  0  0  0  0  0
    7.7520  -13.5325   19.2059 C   0  0  0  0  0  0  0  0  0  0  0  0
    8.1881  -13.4054   17.9496 N   0  0  0  0  0  0  0  0  0  0  0  0
    9.5270  -13.4848   17.9408 C   0  0  0  0  0  0  0  0  0  0  0  0
   10.4746  -13.4262   16.9375 C   0  0  0  0  0  0  0  0  0  0  0  0
   11.8198  -13.5456   17.1864 C   0  0  0  0  0  0  0  0  0  0  0  0
   12.1874  -13.7289   18.4956 C   0  0  0  0  0  0  0  0  0  0  0  0
   11.2777  -13.7951   19.5422 C   0  0  0  0  0  0  0  0  0  0  0  0
    9.9475  -13.6702   19.2504 C   0  0  0  0  0  0  0  0  0  0  0  0
    9.4100  -15.2794   23.4637 C   0  0  0  0  0  0  0  0  0  0  0  0
   10.0026  -14.3547   24.0227 O   0  0  0  0  0  0  0  0  0  0  0  0
    8.9079  -16.3705   24.2033 N   0  0  0  0  0  0  0  0  0  0  0  0
    9.2560  -16.7840   25.5245 C   0  0  1  0  0  0  0  0  0  0  0  0
    8.1990  -16.6063   26.5572 C   0  0  0  0  0  0  0  0  0  0  0  0
    7.2625  -15.5075   26.2714 C   0  0  0  0  0  0  0  0  0  0  0  0
    5.9731  -15.5907   25.7454 C   0  0  0  0  0  0  0  0  0  0  0  0
    5.4492  -14.3596   25.6638 N   0  0  0  0  0  0  0  0  0  0  0  0
    6.3596  -13.4793   26.1204 C   0  0  0  0  0  0  0  0  0  0  0  0
    6.3401  -12.1061   26.2499 C   0  0  0  0  0  0  0  0  0  0  0  0
    7.4171  -11.4015   26.7482 C   0  0  0  0  0  0  0  0  0  0  0  0
    8.5556  -12.0786   27.1324 C   0  0  0  0  0  0  0  0  0  0  0  0
    8.5554  -13.4508   26.9953 C   0  0  0  0  0  0  0  0  0  0  0  0
    7.4900  -14.1731   26.5009 C   0  0  0  0  0  0  0  0  0  0  0  0
    9.9785  -18.0953   25.6127 C   0  0  0  0  0  0  0  0  0  0  0  0
    9.3703  -19.1242   25.2328 O   0  0  0  0  0  0  0  0  0  0  0  0
   13.1016  -19.1676   23.9978 C   0  0  0  0  0  0  0  0  0  0  0  0
   13.2521  -19.4676   25.4415 C   0  0  1  0  0  0  0  0  0  0  0  0
   14.1318  -18.5125   26.0020 O   0  0  0  0  0  0  0  0  0  0  0  0
   11.9762  -19.4370   26.2453 C   0  0  2  0  0  0  0  0  0  0  0  0
   11.3098  -18.1563   26.1117 N   0  0  0  0  0  0  0  0  0  0  0  0
   12.1248  -19.7509   27.6567 C   0  0  0  0  0  0  0  0  0  0  0  0
   12.6001  -20.9334   28.1963 O   0  0  0  0  0  0  0  0  0  0  0  0
   11.7936  -18.8721   28.5170 O   0  0  0  0  0  0  0  0  0  0  0  0
  2  3  1  0
  2  1  1  1
  4 12  1  0
  4  3  1  0
  5  4  2  0
  6  5  1  0
  6  7  1  0
  7  8  1  0
  7 12  2  0
  8  9  2  0
  9 10  1  0
 11 10  2  0
 12 11  1  0
 13  2  1  0
 14 13  2  0
 15 13  1  0
 16 15  1  0
 16 17  1  1
 18 17  1  0
 19 18  2  0
 20 19  1  0
 21 20  1  0
 21 26  2  0
 22 21  1  0
 23 22  2  0
 23 24  1  0
 24 25  2  0
 25 26  1  0
 26 18  1  0
 27 16  1  0
 27 28  2  0
 30 32  1  0
 30 29  1  6
 31 30  1  0
 32 33  1  1
 33 27  1  0
 34 32  1  0
 35 34  1  0
 36 34  2  0
M  END
$$$$
