WWT.pdb
     RDKit          3D

 36 39  0  0  1  0  0  0  0  0999 V2000
    8.5298  -17.0144   21.7345 N   0  0  0  0  0  0  0  0  0  0  0  0
    8.4643  -15.7460   22.3658 C   0  0  1  0  0  0  0  0  0  0  0  0
    7.2150  -15.0179   22.0211 C   0  0  0  0  0  0  0  0  0  0  0  0
    7.2075  -14.6811   20.5739 C   0  0  0  0  0  0  0  0  0  0  0  0
    6.3937  -15.2872   19.6008 C   0  0  0  0  0  0  0  0  0  0  0  0
    6.6137  -14.7256   18.4088 N   0  0  0  0  0  0  0  0  0  0  0  0
    7.5426  -13.7672   18.5411 C   0  0  0  0  0  0  0  0  0  0  0  0
    8.1397  -12.8950   17.6519 C   0  0  0  0  0  0  0  0  0  0  0  0
    9.0961  -11.9886   18.0384 C   0  0  0  0  0  0  0  0  0  0  0  0
    9.4387  -11.9874   19.3670 C   0  0  0  0  0  0  0  0  0  0  0  0
    8.8709  -12.8412   20.3029 C   0  0  0  0  0  0  0  0  0  0  0  0
    7.9210  -13.7275   19.8758 C   0  0  0  0  0  0  0  0  0  0  0  0
    8.6842  -15.8063   23.8554 C   0  0  0  0  0  0  0  0  0  0  0  0
    8.7085  -14.7306   24.4563 O   0  0  0  0  0  0  0  0  0  0  0  0
    8.8555  -17.0252   24.5442 N   0  0  0  0  0  0  0  0  0  0  0  0
    9.3766  -17.2392   25.8559 C   0  0  1  0  0  0  0  0  0  0  0  0
    8.4534  -16.9188   26.9786 C   0  0  0  0  0  0  0  0  0  0  0  0
    7.5055  -15.8326   26.6819 C   0  0  0  0  0  0  0  0  0  0  0  0
    6.1637  -15.9378   26.3148 C   0  0  0  0  0  0  0  0  0  0  0  0
    5.6508  -14.7093   26.1596 N   0  0  0  0  0  0  0  0  0  0  0  0
    6.6189  -13.8093   26.4143 C   0  0  0  0  0  0  0  0  0  0  0  0
    6.6329  -12.4301   26.3961 C   0  0  0  0  0  0  0  0  0  0  0  0
    7.7689  -11.7046   26.6923 C   0  0  0  0  0  0  0  0  0  0  0  0
    8.9345  -12.3663   27.0182 C   0  0  0  0  0  0  0  0  0  0  0  0
    8.9000  -13.7448   27.0309 C   0  0  0  0  0  0  0  0  0  0  0  0
    7.7757  -14.4878   26.7392 C   0  0  0  0  0  0  0  0  0  0  0  0
   10.1362  -18.5193   26.0393 C   0  0  0  0  0  0  0  0  0  0  0  0
    9.5516  -19.5916   25.7543 O   0  0  0  0  0  0  0  0  0  0  0  0
   11.2371  -20.1809   24.1478 C   0  0  0  0  0  0  0  0  0  0  0  0
   12.4891  -20.0481   24.9300 C   0  0  1  0  0  0  0  0  0  0  0  0
   13.2794  -19.0396   24.3311 O   0  0  0  0  0  0  0  0  0  0  0  0
   12.3091  -19.6820   26.3821 C   0  0  2  0  0  0  0  0  0  0  0  0
   11.4754  -18.5039   26.5204 N   0  0  0  0  0  0  0  0  0  0  0  0
   13.5404  -19.4836   27.1287 C   0  0  0  0  0  0  0  0  0  0  0  0
   13.9831  -18.3016   27.6965 O   0  0  0  0  0  0  0  0  0  0  0  0
   14.3193  -20.4767   27.2990 O   0  0  0  0  0  0  0  0  0  0  0  0
  2  3  1  0
  2  1  1  1
  4 12  1  0
  4  3  1  0
  5  4  2  0
  6  5  1  0
  6  7  1  0
  7  8  1  0
  7 12  2  0
  8  9  2  0
  9 10  1  0
 11 10  2  0
 12 11  1  0
 13  2  1  0
 14 13  2  0
 15 13  1  0
 16 15  1  0
 16 17  1  1
 18 17  1  0
 19 18  2  0
 20 19  1  0
 21 20  1  0
 21 26  2  0
 22 21  1  0
 23 22  2  0
 23 24  1  0
 24 25  2  0
 25 26  1  0
 26 18  1  0
 27 16  1  0
 27 28  2  0
 30 32  1  0
 30 29  1  6
 31 30  1  0
 32 33  1  6
 33 27  1  0
 34 32  1  0
 35 34  1  0
 36 34  2  0
M  END
$$$$
