FEN.pdb
     RDKit          3D

 29 29  0  0  1  0  0  0  0  0999 V2000
   24.0605  -20.1371   -8.9190 N   0  0  0  0  0  0  0  0  0  0  0  0
   25.0505  -19.9595   -9.9323 C   0  0  1  0  0  0  0  0  0  0  0  0
   26.2473  -20.8403   -9.7029 C   0  0  0  0  0  0  0  0  0  0  0  0
   27.0044  -20.3324   -8.5274 C   0  0  0  0  0  0  0  0  0  0  0  0
   28.1201  -19.5354   -8.6685 C   0  0  0  0  0  0  0  0  0  0  0  0
   28.8169  -19.0683   -7.5561 C   0  0  0  0  0  0  0  0  0  0  0  0
   28.4211  -19.3824   -6.2726 C   0  0  0  0  0  0  0  0  0  0  0  0
   27.3026  -20.1814   -6.1318 C   0  0  0  0  0  0  0  0  0  0  0  0
   26.6101  -20.6457   -7.2358 C   0  0  0  0  0  0  0  0  0  0  0  0
   24.5118  -20.1207  -11.3086 C   0  0  0  0  0  0  0  0  0  0  0  0
   23.5241  -20.8924  -11.4545 O   0  0  0  0  0  0  0  0  0  0  0  0
   25.0656  -19.4478  -12.4254 N   0  0  0  0  0  0  0  0  0  0  0  0
   24.2884  -19.1317  -13.5810 C   0  0  1  0  0  0  0  0  0  0  0  0
   24.9544  -18.2753  -14.5979 C   0  0  0  0  0  0  0  0  0  0  0  0
   24.1551  -17.8976  -15.7894 C   0  0  0  0  0  0  0  0  0  0  0  0
   24.8263  -17.1064  -16.8114 C   0  0  0  0  0  0  0  0  0  0  0  0
   24.4101  -17.1117  -17.9916 O   0  0  0  0  0  0  0  0  0  0  0  0
   23.6252  -20.3301  -14.1973 C   0  0  0  0  0  0  0  0  0  0  0  0
   24.3591  -21.3084  -14.4888 O   0  0  0  0  0  0  0  0  0  0  0  0
   25.9333  -16.3331  -16.5106 O   0  0  0  0  0  0  0  0  0  0  0  0
   20.1612  -23.9272  -15.6447 N   0  0  0  0  0  0  0  0  0  0  0  0
   20.3353  -23.6184  -14.2752 C   0  0  0  0  0  0  0  0  0  0  0  0
   19.9160  -24.4588  -13.4418 O   0  0  0  0  0  0  0  0  0  0  0  0
   20.9709  -22.3848  -13.7844 C   0  0  0  0  0  0  0  0  0  0  0  0
   21.5954  -21.6436  -14.9157 C   0  0  2  0  0  0  0  0  0  0  0  0
   22.2508  -20.4151  -14.4637 N   0  0  0  0  0  0  0  0  0  0  0  0
   20.6205  -21.3087  -15.9477 C   0  0  0  0  0  0  0  0  0  0  0  0
   20.0884  -22.2234  -16.6662 O   0  0  0  0  0  0  0  0  0  0  0  0
   20.2145  -20.0136  -16.2114 O   0  0  0  0  0  0  0  0  0  0  0  0
  2  1  1  1
  2  3  1  0
  2 10  1  0
  3  4  1  0
  4  5  2  0
  5  6  1  0
  7  6  2  0
  8  7  1  0
  9  4  1  0
  9  8  2  0
 10 11  2  0
 10 12  1  0
 12 13  1  0
 13 18  1  0
 13 14  1  6
 14 15  1  0
 15 16  1  0
 16 20  1  0
 17 16  2  0
 18 26  1  0
 19 18  2  0
 21 22  1  0
 22 24  1  0
 23 22  2  0
 25 24  1  1
 25 27  1  0
 26 25  1  0
 27 28  2  0
 27 29  1  0
M  END
$$$$
