FEN.pdb
     RDKit          3D

 29 29  0  0  1  0  0  0  0  0999 V2000
   26.8636  -22.3999  -11.6670 N   0  0  0  0  0  0  0  0  0  0  0  0
   26.0286  -21.2693  -11.4155 C   0  0  1  0  0  0  0  0  0  0  0  0
   26.8335  -20.0496  -11.0614 C   0  0  0  0  0  0  0  0  0  0  0  0
   27.4126  -20.2291   -9.7028 C   0  0  0  0  0  0  0  0  0  0  0  0
   28.7311  -20.5834   -9.5140 C   0  0  0  0  0  0  0  0  0  0  0  0
   29.2568  -20.7469   -8.2340 C   0  0  0  0  0  0  0  0  0  0  0  0
   28.4831  -20.5616   -7.1072 C   0  0  0  0  0  0  0  0  0  0  0  0
   27.1613  -20.2064   -7.2972 C   0  0  0  0  0  0  0  0  0  0  0  0
   26.6385  -20.0440   -8.5677 C   0  0  0  0  0  0  0  0  0  0  0  0
   25.0758  -20.9903  -12.5222 C   0  0  0  0  0  0  0  0  0  0  0  0
   25.4740  -21.2197  -13.6975 O   0  0  0  0  0  0  0  0  0  0  0  0
   23.7712  -20.4881  -12.2935 N   0  0  0  0  0  0  0  0  0  0  0  0
   22.8313  -20.3106  -13.3540 C   0  0  1  0  0  0  0  0  0  0  0  0
   21.4006  -20.4919  -12.9917 C   0  0  0  0  0  0  0  0  0  0  0  0
   20.9647  -21.8634  -12.6310 C   0  0  0  0  0  0  0  0  0  0  0  0
   19.5622  -22.0400  -12.2804 C   0  0  0  0  0  0  0  0  0  0  0  0
   18.7759  -22.6002  -13.0765 O   0  0  0  0  0  0  0  0  0  0  0  0
   23.0596  -19.0556  -14.1468 C   0  0  0  0  0  0  0  0  0  0  0  0
   23.5766  -18.0802  -13.5452 O   0  0  0  0  0  0  0  0  0  0  0  0
   19.0628  -21.5979  -11.0683 O   0  0  0  0  0  0  0  0  0  0  0  0
   26.4275  -18.7491  -18.5189 N   0  0  0  0  0  0  0  0  0  0  0  0
   25.8630  -18.1263  -17.3810 C   0  0  0  0  0  0  0  0  0  0  0  0
   26.1261  -16.9113  -17.2045 O   0  0  0  0  0  0  0  0  0  0  0  0
   24.9986  -18.8162  -16.4097 C   0  0  0  0  0  0  0  0  0  0  0  0
   23.6124  -18.2753  -16.4807 C   0  0  2  0  0  0  0  0  0  0  0  0
   22.7299  -18.9139  -15.5027 N   0  0  0  0  0  0  0  0  0  0  0  0
   23.0372  -18.4325  -17.8119 C   0  0  0  0  0  0  0  0  0  0  0  0
   22.6186  -19.5727  -18.2130 O   0  0  0  0  0  0  0  0  0  0  0  0
   22.9071  -17.3866  -18.7068 O   0  0  0  0  0  0  0  0  0  0  0  0
  2  1  1  6
  2  3  1  0
  2 10  1  0
  3  4  1  0
  4  5  2  0
  5  6  1  0
  7  6  2  0
  8  7  1  0
  9  4  1  0
  9  8  2  0
 10 11  2  0
 10 12  1  0
 12 13  1  0
 13 18  1  0
 13 14  1  1
 14 15  1  0
 15 16  1  0
 16 20  1  0
 17 16  2  0
 18 26  1  0
 19 18  2  0
 21 22  1  0
 22 24  1  0
 23 22  2  0
 25 24  1  6
 25 27  1  0
 26 25  1  0
 27 28  2  0
 27 29  1  0
M  END
$$$$
