FEN.pdb
     RDKit          3D

 29 29  0  0  1  0  0  0  0  0999 V2000
   36.3791  -10.1443  -16.3669 N   0  0  0  0  0  0  0  0  0  0  0  0
   35.0867   -9.8457  -15.8384 C   0  0  1  0  0  0  0  0  0  0  0  0
   35.1739   -9.0107  -14.5910 C   0  0  0  0  0  0  0  0  0  0  0  0
   36.0831   -9.6803  -13.6224 C   0  0  0  0  0  0  0  0  0  0  0  0
   36.0266  -11.0375  -13.3889 C   0  0  0  0  0  0  0  0  0  0  0  0
   36.8864  -11.6480  -12.4782 C   0  0  0  0  0  0  0  0  0  0  0  0
   37.8261  -10.9229  -11.7754 C   0  0  0  0  0  0  0  0  0  0  0  0
   37.8822   -9.5624  -12.0100 C   0  0  0  0  0  0  0  0  0  0  0  0
   37.0288   -8.9553  -12.9140 C   0  0  0  0  0  0  0  0  0  0  0  0
   34.1741   -9.2342  -16.8402 C   0  0  0  0  0  0  0  0  0  0  0  0
   34.7031   -8.7184  -17.8632 O   0  0  0  0  0  0  0  0  0  0  0  0
   32.7670   -9.2182  -16.6767 N   0  0  0  0  0  0  0  0  0  0  0  0
   31.8990   -8.6254  -17.6434 C   0  0  1  0  0  0  0  0  0  0  0  0
   30.6196   -9.3407  -17.8935 C   0  0  0  0  0  0  0  0  0  0  0  0
   30.7120  -10.7164  -18.4414 C   0  0  0  0  0  0  0  0  0  0  0  0
   29.4581  -11.4143  -18.6895 C   0  0  0  0  0  0  0  0  0  0  0  0
   28.8425  -11.2474  -19.7662 O   0  0  0  0  0  0  0  0  0  0  0  0
   31.6919   -7.1528  -17.4325 C   0  0  0  0  0  0  0  0  0  0  0  0
   31.4106   -6.7715  -16.2680 O   0  0  0  0  0  0  0  0  0  0  0  0
   28.9156  -12.2739  -17.7511 O   0  0  0  0  0  0  0  0  0  0  0  0
   32.6908   -1.4600  -19.7031 N   0  0  0  0  0  0  0  0  0  0  0  0
   32.1772   -2.5069  -18.9022 C   0  0  0  0  0  0  0  0  0  0  0  0
   31.5981   -2.1805  -17.8370 O   0  0  0  0  0  0  0  0  0  0  0  0
   32.2847   -3.9341  -19.2459 C   0  0  0  0  0  0  0  0  0  0  0  0
   31.5790   -4.7621  -18.2284 C   0  0  2  0  0  0  0  0  0  0  0  0
   31.7919   -6.1933  -18.4507 N   0  0  0  0  0  0  0  0  0  0  0  0
   30.1455   -4.4933  -18.2107 C   0  0  0  0  0  0  0  0  0  0  0  0
   29.6818   -3.4560  -17.6231 O   0  0  0  0  0  0  0  0  0  0  0  0
   29.2146   -5.3190  -18.8137 O   0  0  0  0  0  0  0  0  0  0  0  0
  2  1  1  6
  2  3  1  0
  2 10  1  0
  3  4  1  0
  4  5  2  0
  5  6  1  0
  7  6  2  0
  8  7  1  0
  9  4  1  0
  9  8  2  0
 10 11  2  0
 10 12  1  0
 12 13  1  0
 13 18  1  0
 13 14  1  1
 14 15  1  0
 15 16  1  0
 16 20  1  0
 17 16  2  0
 18 26  1  0
 19 18  2  0
 21 22  1  0
 22 24  1  0
 23 22  2  0
 25 24  1  6
 25 27  1  0
 26 25  1  0
 27 28  2  0
 27 29  1  0
M  END
$$$$
