FEN.pdb
     RDKit          3D

 29 29  0  0  1  0  0  0  0  0999 V2000
   25.5143  -11.2596  -18.4041 N   0  0  0  0  0  0  0  0  0  0  0  0
   24.9487  -10.8503  -17.1586 C   0  0  1  0  0  0  0  0  0  0  0  0
   25.9902  -10.2874  -16.2316 C   0  0  0  0  0  0  0  0  0  0  0  0
   27.0188  -11.3296  -15.9688 C   0  0  0  0  0  0  0  0  0  0  0  0
   28.2804  -11.2631  -16.5201 C   0  0  0  0  0  0  0  0  0  0  0  0
   29.2315  -12.2482  -16.2628 C   0  0  0  0  0  0  0  0  0  0  0  0
   28.9518  -13.3264  -15.4492 C   0  0  0  0  0  0  0  0  0  0  0  0
   27.6869  -13.3924  -14.8970 C   0  0  0  0  0  0  0  0  0  0  0  0
   26.7417  -12.4148  -15.1519 C   0  0  0  0  0  0  0  0  0  0  0  0
   23.8008   -9.9189  -17.3175 C   0  0  0  0  0  0  0  0  0  0  0  0
   23.8058   -9.1648  -18.3293 O   0  0  0  0  0  0  0  0  0  0  0  0
   22.7345   -9.8610  -16.3867 N   0  0  0  0  0  0  0  0  0  0  0  0
   21.6153   -8.9931  -16.5703 C   0  0  1  0  0  0  0  0  0  0  0  0
   20.2860   -9.6546  -16.6506 C   0  0  0  0  0  0  0  0  0  0  0  0
   19.9818  -10.6836  -15.6261 C   0  0  0  0  0  0  0  0  0  0  0  0
   18.6830  -11.3371  -15.7116 C   0  0  0  0  0  0  0  0  0  0  0  0
   17.8848  -11.0425  -16.6293 O   0  0  0  0  0  0  0  0  0  0  0  0
   21.6092   -7.8236  -15.6280 C   0  0  0  0  0  0  0  0  0  0  0  0
   21.7249   -8.0717  -14.4009 O   0  0  0  0  0  0  0  0  0  0  0  0
   18.2972  -12.2936  -14.7896 O   0  0  0  0  0  0  0  0  0  0  0  0
   24.7535   -4.6973  -16.3571 N   0  0  0  0  0  0  0  0  0  0  0  0
   23.7793   -4.7492  -15.3326 C   0  0  0  0  0  0  0  0  0  0  0  0
   24.1376   -5.2232  -14.2265 O   0  0  0  0  0  0  0  0  0  0  0  0
   22.3917   -4.2848  -15.4927 C   0  0  0  0  0  0  0  0  0  0  0  0
   21.4410   -5.3627  -15.1012 C   0  0  2  0  0  0  0  0  0  0  0  0
   21.4811   -6.4879  -16.0368 N   0  0  0  0  0  0  0  0  0  0  0  0
   20.0710   -4.8701  -15.0107 C   0  0  0  0  0  0  0  0  0  0  0  0
   19.7752   -3.8994  -14.2320 O   0  0  0  0  0  0  0  0  0  0  0  0
   19.0265   -5.4038  -15.7428 O   0  0  0  0  0  0  0  0  0  0  0  0
  2  1  1  6
  2  3  1  0
  2 10  1  0
  3  4  1  0
  4  5  2  0
  5  6  1  0
  7  6  2  0
  8  7  1  0
  9  4  1  0
  9  8  2  0
 10 11  2  0
 10 12  1  0
 12 13  1  0
 13 18  1  0
 13 14  1  1
 14 15  1  0
 15 16  1  0
 16 20  1  0
 17 16  2  0
 18 26  1  0
 19 18  2  0
 21 22  1  0
 22 24  1  0
 23 22  2  0
 25 24  1  6
 25 27  1  0
 26 25  1  0
 27 28  2  0
 27 29  1  0
M  END
$$$$
