FEN.pdb
     RDKit          3D

 29 29  0  0  1  0  0  0  0  0999 V2000
   22.5250  -22.5341  -15.7219 N   0  0  0  0  0  0  0  0  0  0  0  0
   22.4538  -23.3879  -14.5797 C   0  0  1  0  0  0  0  0  0  0  0  0
   23.7152  -23.3330  -13.7632 C   0  0  0  0  0  0  0  0  0  0  0  0
   24.8210  -23.9582  -14.5375 C   0  0  0  0  0  0  0  0  0  0  0  0
   24.9556  -25.3261  -14.6402 C   0  0  0  0  0  0  0  0  0  0  0  0
   25.9976  -25.8944  -15.3700 C   0  0  0  0  0  0  0  0  0  0  0  0
   26.9338  -25.1154  -16.0175 C   0  0  0  0  0  0  0  0  0  0  0  0
   26.7982  -23.7442  -15.9142 C   0  0  0  0  0  0  0  0  0  0  0  0
   25.7640  -23.1790  -15.1897 C   0  0  0  0  0  0  0  0  0  0  0  0
   21.2513  -23.1408  -13.7410 C   0  0  0  0  0  0  0  0  0  0  0  0
   21.1559  -22.0103  -13.1885 O   0  0  0  0  0  0  0  0  0  0  0  0
   20.2414  -24.1165  -13.5542 N   0  0  0  0  0  0  0  0  0  0  0  0
   19.1470  -23.9120  -12.6598 C   0  0  1  0  0  0  0  0  0  0  0  0
   17.9093  -23.3519  -13.2642 C   0  0  0  0  0  0  0  0  0  0  0  0
   18.0286  -22.0457  -13.9575 C   0  0  0  0  0  0  0  0  0  0  0  0
   16.8145  -21.4962  -14.5449 C   0  0  0  0  0  0  0  0  0  0  0  0
   16.3335  -20.4230  -14.1173 O   0  0  0  0  0  0  0  0  0  0  0  0
   18.8626  -25.1007  -11.7870 C   0  0  0  0  0  0  0  0  0  0  0  0
   19.0272  -26.2397  -12.2932 O   0  0  0  0  0  0  0  0  0  0  0  0
   16.1634  -22.1384  -15.5829 O   0  0  0  0  0  0  0  0  0  0  0  0
   19.1185  -24.1797   -6.6526 N   0  0  0  0  0  0  0  0  0  0  0  0
   19.1274  -25.1955   -7.6372 C   0  0  0  0  0  0  0  0  0  0  0  0
   20.2487  -25.5892   -8.0423 O   0  0  0  0  0  0  0  0  0  0  0  0
   17.9121  -25.8043   -8.2020 C   0  0  0  0  0  0  0  0  0  0  0  0
   18.1399  -26.1806   -9.6252 C   0  0  2  0  0  0  0  0  0  0  0  0
   18.4271  -25.0105  -10.4567 N   0  0  0  0  0  0  0  0  0  0  0  0
   16.9973  -26.8923  -10.1869 C   0  0  0  0  0  0  0  0  0  0  0  0
   16.0067  -26.2519  -10.6815 O   0  0  0  0  0  0  0  0  0  0  0  0
   16.9103  -28.2718  -10.2236 O   0  0  0  0  0  0  0  0  0  0  0  0
  2  1  1  6
  2  3  1  0
  2 10  1  0
  3  4  1  0
  4  5  2  0
  5  6  1  0
  7  6  2  0
  8  7  1  0
  9  4  1  0
  9  8  2  0
 10 11  2  0
 10 12  1  0
 12 13  1  0
 13 18  1  0
 13 14  1  6
 14 15  1  0
 15 16  1  0
 16 20  1  0
 17 16  2  0
 18 26  1  0
 19 18  2  0
 21 22  1  0
 22 24  1  0
 23 22  2  0
 25 24  1  1
 25 27  1  0
 26 25  1  0
 27 28  2  0
 27 29  1  0
M  END
$$$$
