FEN.pdb
     RDKit          3D

 29 29  0  0  1  0  0  0  0  0999 V2000
   24.7693  -20.7586   -7.8136 N   0  0  0  0  0  0  0  0  0  0  0  0
   25.8902  -20.1598   -8.4645 C   0  0  1  0  0  0  0  0  0  0  0  0
   27.1919  -20.7157   -7.9571 C   0  0  0  0  0  0  0  0  0  0  0  0
   27.4557  -20.1687   -6.5991 C   0  0  0  0  0  0  0  0  0  0  0  0
   27.8005  -18.8491   -6.3997 C   0  0  0  0  0  0  0  0  0  0  0  0
   28.0437  -18.3538   -5.1203 C   0  0  0  0  0  0  0  0  0  0  0  0
   27.9500  -19.1595   -4.0046 C   0  0  0  0  0  0  0  0  0  0  0  0
   27.6043  -20.4822   -4.2053 C   0  0  0  0  0  0  0  0  0  0  0  0
   27.3626  -20.9750   -5.4752 C   0  0  0  0  0  0  0  0  0  0  0  0
   25.8094  -20.2300   -9.9474 C   0  0  0  0  0  0  0  0  0  0  0  0
   24.8644  -20.9044  -10.4421 O   0  0  0  0  0  0  0  0  0  0  0  0
   26.7410  -19.5767  -10.7912 N   0  0  0  0  0  0  0  0  0  0  0  0
   26.4575  -19.3034  -12.1639 C   0  0  1  0  0  0  0  0  0  0  0  0
   27.2112  -18.1744  -12.7710 C   0  0  0  0  0  0  0  0  0  0  0  0
   26.9323  -17.8657  -14.1951 C   0  0  0  0  0  0  0  0  0  0  0  0
   27.7208  -18.5768  -15.1919 C   0  0  0  0  0  0  0  0  0  0  0  0
   27.2295  -18.8527  -16.3092 O   0  0  0  0  0  0  0  0  0  0  0  0
   26.4795  -20.5295  -13.0310 C   0  0  0  0  0  0  0  0  0  0  0  0
   27.2647  -21.4544  -12.7012 O   0  0  0  0  0  0  0  0  0  0  0  0
   29.0238  -18.9644  -14.9353 O   0  0  0  0  0  0  0  0  0  0  0  0
   24.1871  -24.4825  -15.3894 N   0  0  0  0  0  0  0  0  0  0  0  0
   24.0512  -24.0547  -14.0478 C   0  0  0  0  0  0  0  0  0  0  0  0
   23.5121  -24.8549  -13.2443 O   0  0  0  0  0  0  0  0  0  0  0  0
   24.5006  -22.7432  -13.5531 C   0  0  0  0  0  0  0  0  0  0  0  0
   25.2040  -21.9995  -14.6353 C   0  0  2  0  0  0  0  0  0  0  0  0
   25.6842  -20.6957  -14.1743 N   0  0  0  0  0  0  0  0  0  0  0  0
   24.3506  -21.8049  -15.8020 C   0  0  0  0  0  0  0  0  0  0  0  0
   24.4300  -22.5900  -16.8087 O   0  0  0  0  0  0  0  0  0  0  0  0
   23.4205  -20.7861  -15.8961 O   0  0  0  0  0  0  0  0  0  0  0  0
  2  1  1  1
  2  3  1  0
  2 10  1  0
  3  4  1  0
  4  5  2  0
  5  6  1  0
  7  6  2  0
  8  7  1  0
  9  4  1  0
  9  8  2  0
 10 11  2  0
 10 12  1  0
 12 13  1  0
 13 18  1  0
 13 14  1  6
 14 15  1  0
 15 16  1  0
 16 20  1  0
 17 16  2  0
 18 26  1  0
 19 18  2  0
 21 22  1  0
 22 24  1  0
 23 22  2  0
 25 24  1  1
 25 27  1  0
 26 25  1  0
 27 28  2  0
 27 29  1  0
M  END
$$$$
