FEN.pdb
     RDKit          3D

 29 29  0  0  1  0  0  0  0  0999 V2000
   28.6703  -21.3007   -9.1710 N   0  0  0  0  0  0  0  0  0  0  0  0
   27.3249  -20.8259   -9.2274 C   0  0  1  0  0  0  0  0  0  0  0  0
   27.1582  -19.5328   -8.4784 C   0  0  0  0  0  0  0  0  0  0  0  0
   27.6965  -19.6977   -7.1014 C   0  0  0  0  0  0  0  0  0  0  0  0
   26.9567  -20.2808   -6.0952 C   0  0  0  0  0  0  0  0  0  0  0  0
   27.4772  -20.4273   -4.8110 C   0  0  0  0  0  0  0  0  0  0  0  0
   28.7489  -19.9970   -4.4944 C   0  0  0  0  0  0  0  0  0  0  0  0
   29.4899  -19.4126   -5.5037 C   0  0  0  0  0  0  0  0  0  0  0  0
   28.9740  -19.2665   -6.7790 C   0  0  0  0  0  0  0  0  0  0  0  0
   26.8004  -20.7230  -10.6147 C   0  0  0  0  0  0  0  0  0  0  0  0
   27.6427  -20.7592  -11.5537 O   0  0  0  0  0  0  0  0  0  0  0  0
   25.4187  -20.5895  -10.8971 N   0  0  0  0  0  0  0  0  0  0  0  0
   24.8437  -21.0734  -12.1115 C   0  0  1  0  0  0  0  0  0  0  0  0
   25.1668  -22.4803  -12.4683 C   0  0  0  0  0  0  0  0  0  0  0  0
   24.7135  -22.9602  -13.7970 C   0  0  0  0  0  0  0  0  0  0  0  0
   25.5320  -22.5962  -14.9453 C   0  0  0  0  0  0  0  0  0  0  0  0
   26.7335  -22.9413  -15.0017 O   0  0  0  0  0  0  0  0  0  0  0  0
   23.3752  -20.7824  -12.2311 C   0  0  0  0  0  0  0  0  0  0  0  0
   22.6112  -21.3173  -11.3879 O   0  0  0  0  0  0  0  0  0  0  0  0
   25.0101  -21.8652  -15.9976 O   0  0  0  0  0  0  0  0  0  0  0  0
   22.7543  -18.0021  -16.1297 N   0  0  0  0  0  0  0  0  0  0  0  0
   21.8229  -18.0732  -15.0673 C   0  0  0  0  0  0  0  0  0  0  0  0
   21.6741  -17.0415  -14.3673 O   0  0  0  0  0  0  0  0  0  0  0  0
   21.0329  -19.2726  -14.7449 C   0  0  0  0  0  0  0  0  0  0  0  0
   21.3753  -19.7616  -13.3801 C   0  0  2  0  0  0  0  0  0  0  0  0
   22.8170  -19.9593  -13.2202 N   0  0  0  0  0  0  0  0  0  0  0  0
   20.6879  -21.0085  -13.0632 C   0  0  0  0  0  0  0  0  0  0  0  0
   19.6224  -21.0062  -12.3554 O   0  0  0  0  0  0  0  0  0  0  0  0
   21.1288  -22.2453  -13.4964 O   0  0  0  0  0  0  0  0  0  0  0  0
  2  1  1  6
  2  3  1  0
  2 10  1  0
  3  4  1  0
  4  5  2  0
  5  6  1  0
  7  6  2  0
  8  7  1  0
  9  4  1  0
  9  8  2  0
 10 11  2  0
 10 12  1  0
 12 13  1  0
 13 18  1  0
 13 14  1  1
 14 15  1  0
 15 16  1  0
 16 20  1  0
 17 16  2  0
 18 26  1  0
 19 18  2  0
 21 22  1  0
 22 24  1  0
 23 22  2  0
 25 24  1  6
 25 27  1  0
 26 25  1  0
 27 28  2  0
 27 29  1  0
M  END
$$$$
