FEN.pdb
     RDKit          3D

 29 29  0  0  1  0  0  0  0  0999 V2000
   29.1539  -21.1162  -13.1495 N   0  0  0  0  0  0  0  0  0  0  0  0
   28.1157  -21.0166  -12.1743 C   0  0  1  0  0  0  0  0  0  0  0  0
   28.6035  -20.3765  -10.9042 C   0  0  0  0  0  0  0  0  0  0  0  0
   29.7894  -21.1256  -10.4087 C   0  0  0  0  0  0  0  0  0  0  0  0
   29.7690  -21.8154   -9.2156 C   0  0  0  0  0  0  0  0  0  0  0  0
   30.8893  -22.5119   -8.7671 C   0  0  0  0  0  0  0  0  0  0  0  0
   32.0605  -22.5403   -9.4952 C   0  0  0  0  0  0  0  0  0  0  0  0
   32.0803  -21.8486  -10.6912 C   0  0  0  0  0  0  0  0  0  0  0  0
   30.9685  -21.1566  -11.1373 C   0  0  0  0  0  0  0  0  0  0  0  0
   26.8946  -20.3428  -12.6894 C   0  0  0  0  0  0  0  0  0  0  0  0
   27.0494  -19.2319  -13.2676 O   0  0  0  0  0  0  0  0  0  0  0  0
   25.6010  -20.9030  -12.5496 N   0  0  0  0  0  0  0  0  0  0  0  0
   24.4809  -20.4163  -13.2899 C   0  0  1  0  0  0  0  0  0  0  0  0
   24.6771  -20.2913  -14.7585 C   0  0  0  0  0  0  0  0  0  0  0  0
   25.3934  -21.3974  -15.4399 C   0  0  0  0  0  0  0  0  0  0  0  0
   24.6937  -22.0664  -16.5280 C   0  0  0  0  0  0  0  0  0  0  0  0
   23.5402  -21.7075  -16.8546 O   0  0  0  0  0  0  0  0  0  0  0  0
   23.1947  -21.1124  -12.9481 C   0  0  0  0  0  0  0  0  0  0  0  0
   23.2240  -22.3662  -12.8598 O   0  0  0  0  0  0  0  0  0  0  0  0
   25.2780  -23.1083  -17.2258 O   0  0  0  0  0  0  0  0  0  0  0  0
   18.2886  -22.3424  -11.8041 N   0  0  0  0  0  0  0  0  0  0  0  0
   18.4221  -20.9386  -11.6913 C   0  0  0  0  0  0  0  0  0  0  0  0
   17.4258  -20.3016  -11.2690 O   0  0  0  0  0  0  0  0  0  0  0  0
   19.6464  -20.1983  -12.0371 C   0  0  0  0  0  0  0  0  0  0  0  0
   20.7271  -21.1465  -12.4271 C   0  0  2  0  0  0  0  0  0  0  0  0
   21.9788  -20.4491  -12.7274 N   0  0  0  0  0  0  0  0  0  0  0  0
   20.3475  -21.9562  -13.5793 C   0  0  0  0  0  0  0  0  0  0  0  0
   19.7342  -23.0679  -13.4239 O   0  0  0  0  0  0  0  0  0  0  0  0
   20.6163  -21.5862  -14.8842 O   0  0  0  0  0  0  0  0  0  0  0  0
  2  1  1  6
  2  3  1  0
  2 10  1  0
  3  4  1  0
  4  5  2  0
  5  6  1  0
  7  6  2  0
  8  7  1  0
  9  4  1  0
  9  8  2  0
 10 11  2  0
 10 12  1  0
 12 13  1  0
 13 18  1  0
 13 14  1  6
 14 15  1  0
 15 16  1  0
 16 20  1  0
 17 16  2  0
 18 26  1  0
 19 18  2  0
 21 22  1  0
 22 24  1  0
 23 22  2  0
 25 24  1  6
 25 27  1  0
 26 25  1  0
 27 28  2  0
 27 29  1  0
M  END
$$$$
