YKN.pdb
     RDKit          3D

 30 30  0  0  1  0  0  0  0  0999 V2000
   18.2974  -14.9306   13.7526 O   0  0  0  0  0  0  0  0  0  0  0  0
   17.6428  -15.1099   14.9663 C   0  0  0  0  0  0  0  0  0  0  0  0
   18.1665  -14.6554   16.1620 C   0  0  0  0  0  0  0  0  0  0  0  0
   17.5456  -14.8171   17.3734 C   0  0  0  0  0  0  0  0  0  0  0  0
   16.3252  -15.4736   17.3930 C   0  0  0  0  0  0  0  0  0  0  0  0
   15.5915  -15.6853   18.6743 C   0  0  0  0  0  0  0  0  0  0  0  0
   14.3016  -14.9230   18.6659 C   0  0  2  0  0  0  0  0  0  0  0  0
   14.5490  -13.5156   18.6242 N   0  0  0  0  0  0  0  0  0  0  0  0
   13.5256  -15.3180   19.8918 C   0  0  0  0  0  0  0  0  0  0  0  0
   13.9445  -15.0257   21.0339 O   0  0  0  0  0  0  0  0  0  0  0  0
   15.7648  -15.9452   16.2157 C   0  0  0  0  0  0  0  0  0  0  0  0
   16.4269  -15.7589   15.0209 C   0  0  0  0  0  0  0  0  0  0  0  0
   12.3127  -16.0249   19.7675 N   0  0  0  0  0  0  0  0  0  0  0  0
   11.6689  -16.8788   20.6905 C   0  0  1  0  0  0  0  0  0  0  0  0
   10.4384  -17.6198   20.1879 C   0  0  0  0  0  0  0  0  0  0  0  0
    9.8291  -18.5727   21.1423 C   0  0  0  0  0  0  0  0  0  0  0  0
    8.6671  -19.3694   20.5699 C   0  0  0  0  0  0  0  0  0  0  0  0
    8.2607  -20.3976   21.6424 C   0  0  0  0  0  0  0  0  0  0  0  0
    7.2430  -21.2709   21.1466 N   0  0  0  0  0  0  0  0  0  0  0  0
   12.5056  -17.7897   21.4630 C   0  0  0  0  0  0  0  0  0  0  0  0
   13.2579  -18.6220   20.8662 O   0  0  0  0  0  0  0  0  0  0  0  0
   17.1889  -18.4048   24.4507 N   0  0  0  0  0  0  0  0  0  0  0  0
   15.8980  -18.9100   24.1687 C   0  0  0  0  0  0  0  0  0  0  0  0
   15.5107  -20.0307   24.6038 O   0  0  0  0  0  0  0  0  0  0  0  0
   14.9627  -18.1134   23.3406 C   0  0  0  0  0  0  0  0  0  0  0  0
   13.5583  -18.6004   23.6087 C   0  0  2  0  0  0  0  0  0  0  0  0
   12.5646  -17.8401   22.8864 N   0  0  0  0  0  0  0  0  0  0  0  0
   13.2352  -18.5060   25.0543 C   0  0  0  0  0  0  0  0  0  0  0  0
   13.9282  -19.0846   25.9283 O   0  0  0  0  0  0  0  0  0  0  0  0
   12.1432  -17.7687   25.5217 O   0  0  0  0  0  0  0  0  0  0  0  0
  2  1  1  0
  3  2  2  0
  4  3  1  0
  5 11  1  0
  5  4  2  0
  6  5  1  0
  7  6  1  0
  7  9  1  0
  7  8  1  1
  9 10  2  0
 11 12  2  0
 12  2  1  0
 13  9  1  0
 13 14  1  0
 14 15  1  6
 15 16  1  0
 16 17  1  0
 17 18  1  0
 18 19  1  0
 20 14  1  0
 20 21  2  0
 22 23  1  0
 23 25  1  0
 24 23  2  0
 26 25  1  1
 26 27  1  0
 27 20  1  0
 28 30  1  0
 28 26  1  0
 29 28  2  0
M  END
$$$$
