YKN.pdb
     RDKit          3D

 30 30  0  0  1  0  0  0  0  0999 V2000
    5.5262  -11.3451   29.1172 O   0  0  0  0  0  0  0  0  0  0  0  0
    6.1177  -12.0821   28.0971 C   0  0  0  0  0  0  0  0  0  0  0  0
    7.3316  -12.7235   28.2579 C   0  0  0  0  0  0  0  0  0  0  0  0
    7.9396  -13.4566   27.2719 C   0  0  0  0  0  0  0  0  0  0  0  0
    7.2959  -13.5561   26.0486 C   0  0  0  0  0  0  0  0  0  0  0  0
    7.8975  -14.3378   24.9297 C   0  0  0  0  0  0  0  0  0  0  0  0
    7.1026  -15.5832   24.6805 C   0  0  2  0  0  0  0  0  0  0  0  0
    7.2108  -16.4795   25.7889 N   0  0  0  0  0  0  0  0  0  0  0  0
    7.6077  -16.2046   23.4078 C   0  0  0  0  0  0  0  0  0  0  0  0
    8.4589  -17.1210   23.4391 O   0  0  0  0  0  0  0  0  0  0  0  0
    6.0766  -12.9279   25.8458 C   0  0  0  0  0  0  0  0  0  0  0  0
    5.5038  -12.2012   26.8677 C   0  0  0  0  0  0  0  0  0  0  0  0
    7.1260  -15.7599   22.1602 N   0  0  0  0  0  0  0  0  0  0  0  0
    7.8406  -15.3524   21.0118 C   0  0  1  0  0  0  0  0  0  0  0  0
    7.5279  -13.9639   20.4730 C   0  0  0  0  0  0  0  0  0  0  0  0
    8.2506  -13.5762   19.2412 C   0  0  0  0  0  0  0  0  0  0  0  0
    7.4823  -13.8482   17.9573 C   0  0  0  0  0  0  0  0  0  0  0  0
    8.4077  -13.4510   16.7917 C   0  0  0  0  0  0  0  0  0  0  0  0
    7.7183  -13.5465   15.5429 N   0  0  0  0  0  0  0  0  0  0  0  0
    9.2832  -15.5653   21.0048 C   0  0  0  0  0  0  0  0  0  0  0  0
    9.9999  -15.0912   21.9409 O   0  0  0  0  0  0  0  0  0  0  0  0
   12.7870  -19.0415   22.2668 N   0  0  0  0  0  0  0  0  0  0  0  0
   12.0690  -19.2032   21.0588 C   0  0  0  0  0  0  0  0  0  0  0  0
   12.4662  -19.9804   20.1457 O   0  0  0  0  0  0  0  0  0  0  0  0
   10.8139  -18.4458   20.8437 C   0  0  0  0  0  0  0  0  0  0  0  0
   11.1689  -17.0846   20.2938 C   0  0  2  0  0  0  0  0  0  0  0  0
   10.0003  -16.2855   20.0053 N   0  0  0  0  0  0  0  0  0  0  0  0
   11.9497  -17.2112   19.0380 C   0  0  0  0  0  0  0  0  0  0  0  0
   11.3915  -17.3205   17.9175 O   0  0  0  0  0  0  0  0  0  0  0  0
   13.3478  -17.2156   19.0333 O   0  0  0  0  0  0  0  0  0  0  0  0
  2  1  1  0
  3  2  2  0
  4  3  1  0
  5 11  1  0
  5  4  2  0
  6  5  1  0
  7  6  1  0
  7  9  1  0
  7  8  1  1
  9 10  2  0
 11 12  2  0
 12  2  1  0
 13  9  1  0
 13 14  1  0
 14 15  1  1
 15 16  1  0
 16 17  1  0
 17 18  1  0
 18 19  1  0
 20 14  1  0
 20 21  2  0
 22 23  1  0
 23 25  1  0
 24 23  2  0
 26 25  1  6
 26 27  1  0
 27 20  1  0
 28 30  1  0
 28 26  1  0
 29 28  2  0
M  END
$$$$
