YKN.pdb
     RDKit          3D

 30 30  0  0  1  0  0  0  0  0999 V2000
   10.2479  -14.5402   30.9187 O   0  0  0  0  0  0  0  0  0  0  0  0
   10.0655  -14.7440   29.5553 C   0  0  0  0  0  0  0  0  0  0  0  0
    9.6456  -13.7361   28.7077 C   0  0  0  0  0  0  0  0  0  0  0  0
    9.4567  -13.9061   27.3606 C   0  0  0  0  0  0  0  0  0  0  0  0
    9.7022  -15.1608   26.8256 C   0  0  0  0  0  0  0  0  0  0  0  0
    9.5188  -15.4195   25.3681 C   0  0  0  0  0  0  0  0  0  0  0  0
    8.0666  -15.6137   25.0541 C   0  0  2  0  0  0  0  0  0  0  0  0
    7.5531  -16.7603   25.7361 N   0  0  0  0  0  0  0  0  0  0  0  0
    7.9317  -15.7437   23.5621 C   0  0  0  0  0  0  0  0  0  0  0  0
    7.6132  -16.8366   23.0431 O   0  0  0  0  0  0  0  0  0  0  0  0
   10.1248  -16.1994   27.6412 C   0  0  0  0  0  0  0  0  0  0  0  0
   10.3009  -15.9803   28.9908 C   0  0  0  0  0  0  0  0  0  0  0  0
    8.1634  -14.6314   22.7283 N   0  0  0  0  0  0  0  0  0  0  0  0
    8.4244  -14.5844   21.3407 C   0  0  1  0  0  0  0  0  0  0  0  0
    8.3971  -13.2092   20.6895 C   0  0  0  0  0  0  0  0  0  0  0  0
    8.6923  -13.1802   19.2397 C   0  0  0  0  0  0  0  0  0  0  0  0
    7.4764  -13.3978   18.3527 C   0  0  0  0  0  0  0  0  0  0  0  0
    7.9842  -13.4220   16.8986 C   0  0  0  0  0  0  0  0  0  0  0  0
    6.9343  -13.7926   16.0018 N   0  0  0  0  0  0  0  0  0  0  0  0
    9.5708  -15.3368   20.8447 C   0  0  0  0  0  0  0  0  0  0  0  0
    9.5866  -15.7527   19.6441 O   0  0  0  0  0  0  0  0  0  0  0  0
   13.0927  -15.3030   18.8557 N   0  0  0  0  0  0  0  0  0  0  0  0
   13.1929  -15.0405   20.2421 C   0  0  0  0  0  0  0  0  0  0  0  0
   13.3610  -13.8711   20.6890 O   0  0  0  0  0  0  0  0  0  0  0  0
   13.1003  -16.1587   21.2097 C   0  0  0  0  0  0  0  0  0  0  0  0
   11.6806  -16.6742   21.2052 C   0  0  2  0  0  0  0  0  0  0  0  0
   10.7277  -15.6664   21.6096 N   0  0  0  0  0  0  0  0  0  0  0  0
   11.5362  -17.8275   22.1282 C   0  0  0  0  0  0  0  0  0  0  0  0
   10.6789  -17.8389   23.0469 O   0  0  0  0  0  0  0  0  0  0  0  0
   12.3453  -18.9629   22.0258 O   0  0  0  0  0  0  0  0  0  0  0  0
  2  1  1  0
  3  2  2  0
  4  3  1  0
  5 11  1  0
  5  4  2  0
  6  5  1  0
  7  6  1  0
  7  9  1  0
  7  8  1  1
  9 10  2  0
 11 12  2  0
 12  2  1  0
 13  9  1  0
 13 14  1  0
 14 15  1  1
 15 16  1  0
 16 17  1  0
 17 18  1  0
 18 19  1  0
 20 14  1  0
 20 21  2  0
 22 23  1  0
 23 25  1  0
 24 23  2  0
 26 25  1  1
 26 27  1  0
 27 20  1  0
 28 30  1  0
 28 26  1  0
 29 28  2  0
M  END
$$$$
