YKN.pdb
     RDKit          3D

 30 30  0  0  1  0  0  0  0  0999 V2000
    7.4966  -12.8012   15.6776 O   0  0  0  0  0  0  0  0  0  0  0  0
    7.3541  -13.1589   17.0138 C   0  0  0  0  0  0  0  0  0  0  0  0
    7.9830  -12.4697   18.0337 C   0  0  0  0  0  0  0  0  0  0  0  0
    7.8622  -12.7980   19.3592 C   0  0  0  0  0  0  0  0  0  0  0  0
    7.0637  -13.8821   19.6877 C   0  0  0  0  0  0  0  0  0  0  0  0
    6.8850  -14.2970   21.1092 C   0  0  0  0  0  0  0  0  0  0  0  0
    8.1082  -15.0101   21.5994 C   0  0  2  0  0  0  0  0  0  0  0  0
    8.4489  -16.0863   20.7223 N   0  0  0  0  0  0  0  0  0  0  0  0
    7.8305  -15.4936   22.9959 C   0  0  0  0  0  0  0  0  0  0  0  0
    7.4406  -14.6993   23.8805 O   0  0  0  0  0  0  0  0  0  0  0  0
    6.4151  -14.6004   18.6948 C   0  0  0  0  0  0  0  0  0  0  0  0
    6.5669  -14.2324   17.3749 C   0  0  0  0  0  0  0  0  0  0  0  0
    8.0068  -16.8525   23.3253 N   0  0  0  0  0  0  0  0  0  0  0  0
    7.8947  -17.4980   24.5769 C   0  0  1  0  0  0  0  0  0  0  0  0
    7.6457  -18.9990   24.5483 C   0  0  0  0  0  0  0  0  0  0  0  0
    7.5272  -19.6548   25.8697 C   0  0  0  0  0  0  0  0  0  0  0  0
    7.3385  -21.1622   25.8015 C   0  0  0  0  0  0  0  0  0  0  0  0
    7.1863  -21.6582   27.2519 C   0  0  0  0  0  0  0  0  0  0  0  0
    6.9760  -23.0720   27.2840 N   0  0  0  0  0  0  0  0  0  0  0  0
    8.8999  -17.1890   25.5871 C   0  0  0  0  0  0  0  0  0  0  0  0
   10.1218  -17.4643   25.3726 O   0  0  0  0  0  0  0  0  0  0  0  0
   10.9602  -13.4899   29.4115 N   0  0  0  0  0  0  0  0  0  0  0  0
   10.3183  -14.7338   29.6154 C   0  0  0  0  0  0  0  0  0  0  0  0
   10.6853  -15.5330   30.5220 O   0  0  0  0  0  0  0  0  0  0  0  0
    9.1820  -15.1244   28.7485 C   0  0  0  0  0  0  0  0  0  0  0  0
    9.6754  -16.1445   27.7498 C   0  0  2  0  0  0  0  0  0  0  0  0
    8.6339  -16.5811   26.8487 N   0  0  0  0  0  0  0  0  0  0  0  0
   10.2056  -17.3456   28.4420 C   0  0  0  0  0  0  0  0  0  0  0  0
   11.4390  -17.5653   28.5388 O   0  0  0  0  0  0  0  0  0  0  0  0
    9.3622  -18.2969   29.0235 O   0  0  0  0  0  0  0  0  0  0  0  0
  2  1  1  0
  3  2  2  0
  4  3  1  0
  5 11  1  0
  5  4  2  0
  6  5  1  0
  7  6  1  0
  7  9  1  0
  7  8  1  6
  9 10  2  0
 11 12  2  0
 12  2  1  0
 13  9  1  0
 13 14  1  0
 14 15  1  6
 15 16  1  0
 16 17  1  0
 17 18  1  0
 18 19  1  0
 20 14  1  0
 20 21  2  0
 22 23  1  0
 23 25  1  0
 24 23  2  0
 26 25  1  1
 26 27  1  0
 27 20  1  0
 28 30  1  0
 28 26  1  0
 29 28  2  0
M  END
$$$$
