YKN.pdb
     RDKit          3D

 30 30  0  0  1  0  0  0  0  0999 V2000
    7.6337  -10.8503   26.5017 O   0  0  0  0  0  0  0  0  0  0  0  0
    7.5046  -12.2338   26.5557 C   0  0  0  0  0  0  0  0  0  0  0  0
    6.2848  -12.8546   26.7486 C   0  0  0  0  0  0  0  0  0  0  0  0
    6.1257  -14.2149   26.8066 C   0  0  0  0  0  0  0  0  0  0  0  0
    7.2549  -15.0056   26.6631 C   0  0  0  0  0  0  0  0  0  0  0  0
    7.1580  -16.4932   26.7146 C   0  0  0  0  0  0  0  0  0  0  0  0
    6.4672  -17.0110   25.4900 C   0  0  2  0  0  0  0  0  0  0  0  0
    6.0594  -18.3682   25.6781 N   0  0  0  0  0  0  0  0  0  0  0  0
    7.4152  -16.8676   24.3316 C   0  0  0  0  0  0  0  0  0  0  0  0
    8.3690  -17.6640   24.1852 O   0  0  0  0  0  0  0  0  0  0  0  0
    8.4977  -14.4227   26.4679 C   0  0  0  0  0  0  0  0  0  0  0  0
    8.6081  -13.0496   26.4166 C   0  0  0  0  0  0  0  0  0  0  0  0
    7.2392  -15.8304   23.3938 N   0  0  0  0  0  0  0  0  0  0  0  0
    8.0403  -15.4709   22.2871 C   0  0  1  0  0  0  0  0  0  0  0  0
    7.6560  -14.1929   21.5558 C   0  0  0  0  0  0  0  0  0  0  0  0
    8.4855  -13.8537   20.3781 C   0  0  0  0  0  0  0  0  0  0  0  0
    7.7377  -13.9050   19.0548 C   0  0  0  0  0  0  0  0  0  0  0  0
    8.7425  -13.5012   17.9593 C   0  0  0  0  0  0  0  0  0  0  0  0
    8.0952  -13.4085   16.6880 N   0  0  0  0  0  0  0  0  0  0  0  0
    9.4875  -15.5190   22.4587 C   0  0  0  0  0  0  0  0  0  0  0  0
   10.0563  -14.7347   23.2810 O   0  0  0  0  0  0  0  0  0  0  0  0
   12.0807  -17.3573   24.5313 N   0  0  0  0  0  0  0  0  0  0  0  0
   12.1446  -18.2973   23.4763 C   0  0  0  0  0  0  0  0  0  0  0  0
   12.0409  -19.5392   23.6823 O   0  0  0  0  0  0  0  0  0  0  0  0
   12.3386  -17.8271   22.0847 C   0  0  0  0  0  0  0  0  0  0  0  0
   11.7948  -16.4220   21.9781 C   0  0  2  0  0  0  0  0  0  0  0  0
   10.3664  -16.3993   21.7625 N   0  0  0  0  0  0  0  0  0  0  0  0
   12.4322  -15.6946   20.8523 C   0  0  0  0  0  0  0  0  0  0  0  0
   12.0982  -15.8963   19.6579 O   0  0  0  0  0  0  0  0  0  0  0  0
   13.4382  -14.7460   21.0594 O   0  0  0  0  0  0  0  0  0  0  0  0
  2  1  1  0
  3  2  2  0
  4  3  1  0
  5 11  1  0
  5  4  2  0
  6  5  1  0
  7  6  1  0
  7  9  1  0
  7  8  1  1
  9 10  2  0
 11 12  2  0
 12  2  1  0
 13  9  1  0
 13 14  1  0
 14 15  1  1
 15 16  1  0
 16 17  1  0
 17 18  1  0
 18 19  1  0
 20 14  1  0
 20 21  2  0
 22 23  1  0
 23 25  1  0
 24 23  2  0
 26 25  1  6
 26 27  1  0
 27 20  1  0
 28 30  1  0
 28 26  1  0
 29 28  2  0
M  END
$$$$
