YKN.pdb
     RDKit          3D

 30 30  0  0  1  0  0  0  0  0999 V2000
   10.7778  -14.2306   30.8240 O   0  0  0  0  0  0  0  0  0  0  0  0
   10.5160  -14.5351   29.4927 C   0  0  0  0  0  0  0  0  0  0  0  0
    9.8748  -13.6510   28.6454 C   0  0  0  0  0  0  0  0  0  0  0  0
    9.6027  -13.9222   27.3295 C   0  0  0  0  0  0  0  0  0  0  0  0
    9.9951  -15.1529   26.8273 C   0  0  0  0  0  0  0  0  0  0  0  0
    9.7330  -15.5169   25.4048 C   0  0  0  0  0  0  0  0  0  0  0  0
    8.3055  -15.9378   25.2313 C   0  0  2  0  0  0  0  0  0  0  0  0
    8.0172  -17.0835   26.0360 N   0  0  0  0  0  0  0  0  0  0  0  0
    8.0804  -16.2103   23.7697 C   0  0  0  0  0  0  0  0  0  0  0  0
    8.3145  -17.3409   23.2879 O   0  0  0  0  0  0  0  0  0  0  0  0
   10.6410  -16.0686   27.6439 C   0  0  0  0  0  0  0  0  0  0  0  0
   10.8931  -15.7508   28.9614 C   0  0  0  0  0  0  0  0  0  0  0  0
    7.6012  -15.1909   22.9226 N   0  0  0  0  0  0  0  0  0  0  0  0
    7.6830  -15.0748   21.5171 C   0  0  1  0  0  0  0  0  0  0  0  0
    7.2296  -13.7522   20.9163 C   0  0  0  0  0  0  0  0  0  0  0  0
    7.1171  -13.7230   19.4409 C   0  0  0  0  0  0  0  0  0  0  0  0
    8.2013  -12.9107   18.7502 C   0  0  0  0  0  0  0  0  0  0  0  0
    7.9518  -13.0320   17.2350 C   0  0  0  0  0  0  0  0  0  0  0  0
    8.9661  -12.3446   16.4983 N   0  0  0  0  0  0  0  0  0  0  0  0
    8.9207  -15.5034   20.8763 C   0  0  0  0  0  0  0  0  0  0  0  0
    8.9326  -15.7748   19.6350 O   0  0  0  0  0  0  0  0  0  0  0  0
   13.4884  -14.5583   18.7171 N   0  0  0  0  0  0  0  0  0  0  0  0
   13.4722  -14.6265   20.1299 C   0  0  0  0  0  0  0  0  0  0  0  0
   14.5203  -14.8478   20.7990 O   0  0  0  0  0  0  0  0  0  0  0  0
   12.1969  -14.4353   20.8595 C   0  0  0  0  0  0  0  0  0  0  0  0
   11.4332  -15.7380   20.8305 C   0  0  2  0  0  0  0  0  0  0  0  0
   10.1753  -15.6546   21.5361 N   0  0  0  0  0  0  0  0  0  0  0  0
   12.2269  -16.8278   21.4512 C   0  0  0  0  0  0  0  0  0  0  0  0
   13.1441  -17.4186   20.8279 O   0  0  0  0  0  0  0  0  0  0  0  0
   11.9976  -17.2557   22.7623 O   0  0  0  0  0  0  0  0  0  0  0  0
  2  1  1  0
  3  2  2  0
  4  3  1  0
  5 11  1  0
  5  4  2  0
  6  5  1  0
  7  6  1  0
  7  9  1  0
  7  8  1  1
  9 10  2  0
 11 12  2  0
 12  2  1  0
 13  9  1  0
 13 14  1  0
 14 15  1  1
 15 16  1  0
 16 17  1  0
 17 18  1  0
 18 19  1  0
 20 14  1  0
 20 21  2  0
 22 23  1  0
 23 25  1  0
 24 23  2  0
 26 25  1  1
 26 27  1  0
 27 20  1  0
 28 30  1  0
 28 26  1  0
 29 28  2  0
M  END
$$$$
