YKN.pdb
     RDKit          3D

 30 30  0  0  1  0  0  0  0  0999 V2000
    5.5548  -10.9332   28.5610 O   0  0  0  0  0  0  0  0  0  0  0  0
    6.2341  -11.8255   27.7388 C   0  0  0  0  0  0  0  0  0  0  0  0
    7.1487  -12.7361   28.2339 C   0  0  0  0  0  0  0  0  0  0  0  0
    7.8336  -13.6274   27.4493 C   0  0  0  0  0  0  0  0  0  0  0  0
    7.5909  -13.6091   26.0849 C   0  0  0  0  0  0  0  0  0  0  0  0
    8.2989  -14.5504   25.1698 C   0  0  0  0  0  0  0  0  0  0  0  0
    7.3135  -15.4452   24.4819 C   0  0  2  0  0  0  0  0  0  0  0  0
    6.9941  -16.5693   25.3053 N   0  0  0  0  0  0  0  0  0  0  0  0
    7.9130  -15.8666   23.1688 C   0  0  0  0  0  0  0  0  0  0  0  0
    8.3997  -17.0104   23.0273 O   0  0  0  0  0  0  0  0  0  0  0  0
    6.6811  -12.7113   25.5477 C   0  0  0  0  0  0  0  0  0  0  0  0
    6.0159  -11.8336   26.3769 C   0  0  0  0  0  0  0  0  0  0  0  0
    7.9335  -14.9740   22.0782 N   0  0  0  0  0  0  0  0  0  0  0  0
    8.4299  -15.1623   20.7691 C   0  0  1  0  0  0  0  0  0  0  0  0
    8.1679  -14.0409   19.7744 C   0  0  0  0  0  0  0  0  0  0  0  0
    8.6172  -14.2957   18.3876 C   0  0  0  0  0  0  0  0  0  0  0  0
    7.9913  -13.3749   17.3516 C   0  0  0  0  0  0  0  0  0  0  0  0
    8.4492  -13.8813   15.9708 C   0  0  0  0  0  0  0  0  0  0  0  0
    7.9782  -13.0178   14.9332 N   0  0  0  0  0  0  0  0  0  0  0  0
    9.8051  -15.6268   20.6301 C   0  0  0  0  0  0  0  0  0  0  0  0
   10.1858  -16.1700   19.5462 O   0  0  0  0  0  0  0  0  0  0  0  0
   13.1440  -15.4279   18.8966 N   0  0  0  0  0  0  0  0  0  0  0  0
   13.1791  -14.5382   19.9958 C   0  0  0  0  0  0  0  0  0  0  0  0
   13.1857  -13.2849   19.8394 O   0  0  0  0  0  0  0  0  0  0  0  0
   13.2098  -15.0769   21.3757 C   0  0  0  0  0  0  0  0  0  0  0  0
   12.1217  -16.1166   21.5039 C   0  0  2  0  0  0  0  0  0  0  0  0
   10.8095  -15.5267   21.6367 N   0  0  0  0  0  0  0  0  0  0  0  0
   12.3519  -16.9762   22.6917 C   0  0  0  0  0  0  0  0  0  0  0  0
   11.5260  -17.0372   23.6368 O   0  0  0  0  0  0  0  0  0  0  0  0
   13.4991  -17.7643   22.8235 O   0  0  0  0  0  0  0  0  0  0  0  0
  2  1  1  0
  3  2  2  0
  4  3  1  0
  5 11  1  0
  5  4  2  0
  6  5  1  0
  7  6  1  0
  7  9  1  0
  7  8  1  1
  9 10  2  0
 11 12  2  0
 12  2  1  0
 13  9  1  0
 13 14  1  0
 14 15  1  6
 15 16  1  0
 16 17  1  0
 17 18  1  0
 18 19  1  0
 20 14  1  0
 20 21  2  0
 22 23  1  0
 23 25  1  0
 24 23  2  0
 26 25  1  1
 26 27  1  0
 27 20  1  0
 28 30  1  0
 28 26  1  0
 29 28  2  0
M  END
$$$$
