YKN.pdb
     RDKit          3D

 30 30  0  0  1  0  0  0  0  0999 V2000
    6.4120  -12.4141   17.5685 O   0  0  0  0  0  0  0  0  0  0  0  0
    7.4136  -13.1990   18.1291 C   0  0  0  0  0  0  0  0  0  0  0  0
    7.7664  -14.4295   17.6075 C   0  0  0  0  0  0  0  0  0  0  0  0
    8.7483  -15.2258   18.1374 C   0  0  0  0  0  0  0  0  0  0  0  0
    9.4207  -14.7653   19.2584 C   0  0  0  0  0  0  0  0  0  0  0  0
   10.5015  -15.5774   19.8888 C   0  0  0  0  0  0  0  0  0  0  0  0
    9.9138  -16.5723   20.8427 C   0  0  2  0  0  0  0  0  0  0  0  0
    8.5447  -16.8292   20.5219 N   0  0  0  0  0  0  0  0  0  0  0  0
   10.0684  -16.0228   22.2339 C   0  0  0  0  0  0  0  0  0  0  0  0
   11.1847  -16.0208   22.7988 O   0  0  0  0  0  0  0  0  0  0  0  0
    9.0976  -13.5364   19.8131 C   0  0  0  0  0  0  0  0  0  0  0  0
    8.1022  -12.7705   19.2448 C   0  0  0  0  0  0  0  0  0  0  0  0
    8.9529  -15.5017   22.9198 N   0  0  0  0  0  0  0  0  0  0  0  0
    8.8388  -15.0763   24.2621 C   0  0  1  0  0  0  0  0  0  0  0  0
    7.6763  -14.1489   24.5852 C   0  0  0  0  0  0  0  0  0  0  0  0
    7.6376  -13.6274   25.9697 C   0  0  0  0  0  0  0  0  0  0  0  0
    6.4749  -12.6876   26.2482 C   0  0  0  0  0  0  0  0  0  0  0  0
    6.6314  -12.2042   27.7024 C   0  0  0  0  0  0  0  0  0  0  0  0
    5.5578  -11.3321   28.0642 N   0  0  0  0  0  0  0  0  0  0  0  0
    8.9582  -16.0905   25.3030 C   0  0  0  0  0  0  0  0  0  0  0  0
    7.9859  -16.8728   25.5425 O   0  0  0  0  0  0  0  0  0  0  0  0
   11.1319  -20.7573   26.7055 N   0  0  0  0  0  0  0  0  0  0  0  0
   11.7981  -19.5252   26.9026 C   0  0  0  0  0  0  0  0  0  0  0  0
   12.6916  -19.3837   27.7841 O   0  0  0  0  0  0  0  0  0  0  0  0
   11.4486  -18.3584   26.0590 C   0  0  0  0  0  0  0  0  0  0  0  0
   10.3932  -17.5518   26.7779 C   0  0  2  0  0  0  0  0  0  0  0  0
   10.1110  -16.2994   26.1151 N   0  0  0  0  0  0  0  0  0  0  0  0
   10.8214  -17.2414   28.1647 C   0  0  0  0  0  0  0  0  0  0  0  0
   11.3153  -16.1279   28.4732 O   0  0  0  0  0  0  0  0  0  0  0  0
   10.6985  -18.1702   29.2024 O   0  0  0  0  0  0  0  0  0  0  0  0
  2  1  1  0
  3  2  2  0
  4  3  1  0
  5 11  1  0
  5  4  2  0
  6  5  1  0
  7  6  1  0
  7  9  1  0
  7  8  1  6
  9 10  2  0
 11 12  2  0
 12  2  1  0
 13  9  1  0
 13 14  1  0
 14 15  1  6
 15 16  1  0
 16 17  1  0
 17 18  1  0
 18 19  1  0
 20 14  1  0
 20 21  2  0
 22 23  1  0
 23 25  1  0
 24 23  2  0
 26 25  1  6
 26 27  1  0
 27 20  1  0
 28 30  1  0
 28 26  1  0
 29 28  2  0
M  END
$$$$
