YKN.pdb
     RDKit          3D

 30 30  0  0  1  0  0  0  0  0999 V2000
    7.0907  -14.1140   14.8319 O   0  0  0  0  0  0  0  0  0  0  0  0
    7.7819  -14.1521   16.0379 C   0  0  0  0  0  0  0  0  0  0  0  0
    8.7912  -15.0644   16.2820 C   0  0  0  0  0  0  0  0  0  0  0  0
    9.4901  -15.1268   17.4596 C   0  0  0  0  0  0  0  0  0  0  0  0
    9.1613  -14.2218   18.4565 C   0  0  0  0  0  0  0  0  0  0  0  0
    9.8796  -14.2301   19.7637 C   0  0  0  0  0  0  0  0  0  0  0  0
    9.5080  -15.4487   20.5524 C   0  0  2  0  0  0  0  0  0  0  0  0
    8.1579  -15.8319   20.2805 N   0  0  0  0  0  0  0  0  0  0  0  0
    9.7182  -15.1364   22.0082 C   0  0  0  0  0  0  0  0  0  0  0  0
   10.8727  -15.0595   22.4842 O   0  0  0  0  0  0  0  0  0  0  0  0
    8.1550  -13.2902   18.2522 C   0  0  0  0  0  0  0  0  0  0  0  0
    7.4797  -13.2658   17.0506 C   0  0  0  0  0  0  0  0  0  0  0  0
    8.6124  -14.9260   22.8564 N   0  0  0  0  0  0  0  0  0  0  0  0
    8.5785  -14.6642   24.2442 C   0  0  1  0  0  0  0  0  0  0  0  0
    7.4162  -13.8217   24.7493 C   0  0  0  0  0  0  0  0  0  0  0  0
    7.4421  -13.4924   26.1919 C   0  0  0  0  0  0  0  0  0  0  0  0
    6.4598  -12.4055   26.5997 C   0  0  0  0  0  0  0  0  0  0  0  0
    6.6025  -12.2245   28.1227 C   0  0  0  0  0  0  0  0  0  0  0  0
    5.6744  -11.2503   28.6060 N   0  0  0  0  0  0  0  0  0  0  0  0
    8.7956  -15.7881   25.1476 C   0  0  0  0  0  0  0  0  0  0  0  0
    7.9065  -16.6881   25.2673 O   0  0  0  0  0  0  0  0  0  0  0  0
   10.9223  -19.4575   27.9189 N   0  0  0  0  0  0  0  0  0  0  0  0
   11.7722  -19.1174   26.8405 C   0  0  0  0  0  0  0  0  0  0  0  0
   12.7683  -19.8279   26.5266 O   0  0  0  0  0  0  0  0  0  0  0  0
   11.4993  -17.8959   26.0476 C   0  0  0  0  0  0  0  0  0  0  0  0
   10.2626  -17.2332   26.6069 C   0  0  2  0  0  0  0  0  0  0  0  0
    9.9603  -15.9847   25.9457 N   0  0  0  0  0  0  0  0  0  0  0  0
   10.4263  -16.9488   28.0543 C   0  0  0  0  0  0  0  0  0  0  0  0
   10.7004  -15.7978   28.4776 O   0  0  0  0  0  0  0  0  0  0  0  0
   10.2845  -17.9451   29.0248 O   0  0  0  0  0  0  0  0  0  0  0  0
  2  1  1  0
  3  2  2  0
  4  3  1  0
  5 11  1  0
  5  4  2  0
  6  5  1  0
  7  6  1  0
  7  9  1  0
  7  8  1  1
  9 10  2  0
 11 12  2  0
 12  2  1  0
 13  9  1  0
 13 14  1  0
 14 15  1  1
 15 16  1  0
 16 17  1  0
 17 18  1  0
 18 19  1  0
 20 14  1  0
 20 21  2  0
 22 23  1  0
 23 25  1  0
 24 23  2  0
 26 25  1  6
 26 27  1  0
 27 20  1  0
 28 30  1  0
 28 26  1  0
 29 28  2  0
M  END
$$$$
