MRV.pdb
     RDKit          3D

 27 26  0  0  1  0  0  0  0  0999 V2000
   27.5082  -19.1833   -5.5698 C   0  0  0  0  0  0  0  0  0  0  0  0
   28.9731  -20.0423   -6.1610 S   0  0  0  0  0  0  0  0  0  0  0  0
   28.5503  -20.9982   -7.6239 C   0  0  0  0  0  0  0  0  0  0  0  0
   27.3962  -20.3996   -8.3527 C   0  0  0  0  0  0  0  0  0  0  0  0
   26.9490  -21.2237   -9.5445 C   0  0  2  0  0  0  0  0  0  0  0  0
   28.0095  -21.5640  -10.4428 N   0  0  0  0  0  0  0  0  0  0  0  0
   25.9500  -20.4011  -10.2696 C   0  0  0  0  0  0  0  0  0  0  0  0
   26.1644  -19.1999  -10.4458 O   0  0  0  0  0  0  0  0  0  0  0  0
   27.8192  -19.3411  -15.8415 N   0  0  0  0  0  0  0  0  0  0  0  0
   26.7093  -19.1942  -16.6975 C   0  0  0  0  0  0  0  0  0  0  0  0
   26.5341  -18.1772  -17.4750 N   0  0  0  0  0  0  0  0  0  0  0  0
   25.7005  -20.2087  -16.7340 N   0  0  0  0  0  0  0  0  0  0  0  0
   25.6166  -21.1639  -15.6352 C   0  0  0  0  0  0  0  0  0  0  0  0
   24.7517  -20.6004  -14.5517 C   0  0  0  0  0  0  0  0  0  0  0  0
   25.1814  -20.9940  -13.1851 C   0  0  0  0  0  0  0  0  0  0  0  0
   24.2554  -20.5716  -12.0856 C   0  0  2  0  0  0  0  0  0  0  0  0
   24.7330  -20.9597  -10.7770 N   0  0  0  0  0  0  0  0  0  0  0  0
   22.9345  -21.2451  -12.3781 C   0  0  0  0  0  0  0  0  0  0  0  0
   22.8614  -22.4646  -12.6715 O   0  0  0  0  0  0  0  0  0  0  0  0
   25.7681  -18.1438  -18.1817 C   0  0  0  0  0  0  0  0  0  0  0  0
   19.9994  -20.3188   -9.9654 C   0  0  2  0  0  0  0  0  0  0  0  0
   19.4924  -20.3875  -11.3876 C   0  0  0  0  0  0  0  0  0  0  0  0
   19.2696  -19.0277  -11.9900 C   0  0  2  0  0  0  0  0  0  0  0  0
   20.4357  -21.1735  -12.2633 N   0  0  0  0  0  0  0  0  0  0  0  0
   21.7228  -20.5097  -12.3297 C   0  0  0  0  0  0  0  0  0  0  0  0
   19.8785  -21.3455  -13.6452 O   0  0  0  0  0  0  0  0  0  0  0  0
   20.4267  -20.6967  -14.7425 O   0  0  0  0  0  0  0  0  0  0  0  0
  2  1  1  0
  3  4  1  0
  3  2  1  0
  4  5  1  0
  5  6  1  6
  7  8  2  0
  7  5  1  0
 10 12  1  0
 10  9  1  0
 11 10  2  0
 13 14  1  0
 13 12  1  0
 14 15  1  0
 16 15  1  6
 16 17  1  0
 17  7  1  0
 18 16  1  0
 19 18  2  0
 21 20  1  1
 21 22  1  0
 23 21  1  0
 23 24  1  6
 24 18  1  0
 25 26  1  0
 25 23  1  0
 27 25  2  0
M  END
$$$$
