MRV.pdb
     RDKit          3D

 27 26  0  0  1  0  0  0  0  0999 V2000
   27.0914  -19.4919   -7.4409 C   0  0  0  0  0  0  0  0  0  0  0  0
   27.8244  -21.1280   -7.5794 S   0  0  0  0  0  0  0  0  0  0  0  0
   27.9805  -21.5629   -9.3169 C   0  0  0  0  0  0  0  0  0  0  0  0
   26.7702  -21.1652  -10.0903 C   0  0  0  0  0  0  0  0  0  0  0  0
   26.8716  -21.4889  -11.5682 C   0  0  2  0  0  0  0  0  0  0  0  0
   28.0549  -20.9802  -12.1917 N   0  0  0  0  0  0  0  0  0  0  0  0
   25.6859  -20.8734  -12.2129 C   0  0  0  0  0  0  0  0  0  0  0  0
   25.4618  -19.6717  -12.0520 O   0  0  0  0  0  0  0  0  0  0  0  0
   21.7720  -18.5204  -18.4871 N   0  0  0  0  0  0  0  0  0  0  0  0
   23.0228  -19.1523  -18.6366 C   0  0  0  0  0  0  0  0  0  0  0  0
   23.9807  -18.6812  -19.3647 N   0  0  0  0  0  0  0  0  0  0  0  0
   23.2819  -20.3856  -17.9585 N   0  0  0  0  0  0  0  0  0  0  0  0
   22.2083  -21.0147  -17.1978 C   0  0  0  0  0  0  0  0  0  0  0  0
   22.3425  -20.6489  -15.7529 C   0  0  0  0  0  0  0  0  0  0  0  0
   23.4942  -21.3033  -15.0802 C   0  0  0  0  0  0  0  0  0  0  0  0
   23.6369  -20.9878  -13.6225 C   0  0  2  0  0  0  0  0  0  0  0  0
   24.7835  -21.6342  -13.0236 N   0  0  0  0  0  0  0  0  0  0  0  0
   22.3645  -21.4757  -12.9692 C   0  0  0  0  0  0  0  0  0  0  0  0
   22.1636  -22.6933  -12.7332 O   0  0  0  0  0  0  0  0  0  0  0  0
   24.8720  -19.2013  -19.5142 C   0  0  0  0  0  0  0  0  0  0  0  0
   20.5052  -19.4693  -10.0073 C   0  0  2  0  0  0  0  0  0  0  0  0
   19.5576  -19.8786  -11.1114 C   0  0  0  0  0  0  0  0  0  0  0  0
   19.1931  -18.7341  -12.0164 C   0  0  2  0  0  0  0  0  0  0  0  0
   20.1356  -21.0022  -11.9347 N   0  0  0  0  0  0  0  0  0  0  0  0
   21.3462  -20.5607  -12.5989 C   0  0  0  0  0  0  0  0  0  0  0  0
   19.1479  -21.4960  -12.9498 O   0  0  0  0  0  0  0  0  0  0  0  0
   18.1539  -22.4071  -12.6222 O   0  0  0  0  0  0  0  0  0  0  0  0
  2  1  1  0
  3  4  1  0
  3  2  1  0
  4  5  1  0
  5  6  1  6
  7  8  2  0
  7  5  1  0
 10 12  1  0
 10  9  1  0
 11 10  2  0
 13 14  1  0
 13 12  1  0
 14 15  1  0
 16 15  1  6
 16 17  1  0
 17  7  1  0
 18 16  1  0
 19 18  2  0
 21 20  1  1
 21 22  1  0
 23 21  1  0
 23 24  1  1
 24 18  1  0
 25 26  1  0
 25 23  1  0
 27 25  2  0
M  END
$$$$
