MRV.pdb
     RDKit          3D

 27 26  0  0  1  0  0  0  0  0999 V2000
   29.2711  -21.4821   -5.7047 C   0  0  0  0  0  0  0  0  0  0  0  0
   27.9113  -21.1081   -6.8202 S   0  0  0  0  0  0  0  0  0  0  0  0
   28.5725  -20.5179   -8.3845 C   0  0  0  0  0  0  0  0  0  0  0  0
   27.5256  -20.4918   -9.4449 C   0  0  0  0  0  0  0  0  0  0  0  0
   27.8998  -21.2957  -10.6750 C   0  0  2  0  0  0  0  0  0  0  0  0
   29.2521  -21.1037  -11.1018 N   0  0  0  0  0  0  0  0  0  0  0  0
   26.9867  -20.8531  -11.7569 C   0  0  0  0  0  0  0  0  0  0  0  0
   27.1254  -19.7308  -12.2482 O   0  0  0  0  0  0  0  0  0  0  0  0
   29.0466  -23.6280  -16.3460 N   0  0  0  0  0  0  0  0  0  0  0  0
   27.9474  -24.4997  -16.2117 C   0  0  0  0  0  0  0  0  0  0  0  0
   28.0597  -25.7557  -15.9296 N   0  0  0  0  0  0  0  0  0  0  0  0
   26.6181  -24.0006  -16.3904 N   0  0  0  0  0  0  0  0  0  0  0  0
   26.4188  -22.5682  -16.5790 C   0  0  0  0  0  0  0  0  0  0  0  0
   26.4162  -21.8871  -15.2465 C   0  0  0  0  0  0  0  0  0  0  0  0
   25.1092  -21.9635  -14.5443 C   0  0  0  0  0  0  0  0  0  0  0  0
   25.0337  -21.1888  -13.2641 C   0  0  2  0  0  0  0  0  0  0  0  0
   25.9391  -21.6925  -12.2554 N   0  0  0  0  0  0  0  0  0  0  0  0
   23.6044  -21.3152  -12.7899 C   0  0  0  0  0  0  0  0  0  0  0  0
   23.2522  -22.2001  -11.9704 O   0  0  0  0  0  0  0  0  0  0  0  0
   27.2309  -26.3839  -15.8529 C   0  0  0  0  0  0  0  0  0  0  0  0
   19.0698  -19.2840  -12.6566 C   0  0  2  0  0  0  0  0  0  0  0  0
   20.5285  -19.1958  -13.0428 C   0  0  0  0  0  0  0  0  0  0  0  0
   21.2519  -18.0889  -12.3265 C   0  0  1  0  0  0  0  0  0  0  0  0
   21.2376  -20.5024  -12.7889 N   0  0  0  0  0  0  0  0  0  0  0  0
   22.6053  -20.4268  -13.2632 C   0  0  0  0  0  0  0  0  0  0  0  0
   20.5288  -21.6439  -13.4555 O   0  0  0  0  0  0  0  0  0  0  0  0
   19.5548  -22.3845  -12.8009 O   0  0  0  0  0  0  0  0  0  0  0  0
  2  1  1  0
  3  4  1  0
  3  2  1  0
  4  5  1  0
  5  6  1  6
  7  8  2  0
  7  5  1  0
 10 12  1  0
 10  9  1  0
 11 10  2  0
 13 14  1  0
 13 12  1  0
 14 15  1  0
 16 15  1  6
 16 17  1  0
 17  7  1  0
 18 16  1  0
 19 18  2  0
 21 20  1  6
 21 22  1  0
 23 21  1  0
 23 24  1  6
 24 18  1  0
 25 26  1  0
 25 23  1  0
 27 25  2  0
M  END
$$$$
