MRV.pdb
     RDKit          3D

 27 26  0  0  1  0  0  0  0  0999 V2000
   26.4962  -18.7026   -7.4689 C   0  0  0  0  0  0  0  0  0  0  0  0
   26.7994  -20.4310   -7.0766 S   0  0  0  0  0  0  0  0  0  0  0  0
   27.0598  -21.3484   -8.6008 C   0  0  0  0  0  0  0  0  0  0  0  0
   26.1960  -20.8350   -9.7015 C   0  0  0  0  0  0  0  0  0  0  0  0
   26.4095  -21.5591  -11.0166 C   0  0  2  0  0  0  0  0  0  0  0  0
   27.7603  -21.5172  -11.4871 N   0  0  0  0  0  0  0  0  0  0  0  0
   25.5337  -20.8894  -12.0090 C   0  0  0  0  0  0  0  0  0  0  0  0
   25.8311  -19.7664  -12.4222 O   0  0  0  0  0  0  0  0  0  0  0  0
   27.4241  -22.2573  -16.4438 N   0  0  0  0  0  0  0  0  0  0  0  0
   27.1326  -23.6362  -16.4353 C   0  0  0  0  0  0  0  0  0  0  0  0
   28.0364  -24.5591  -16.4050 N   0  0  0  0  0  0  0  0  0  0  0  0
   25.7707  -24.0751  -16.4607 N   0  0  0  0  0  0  0  0  0  0  0  0
   24.7050  -23.0816  -16.3956 C   0  0  0  0  0  0  0  0  0  0  0  0
   24.6712  -22.4779  -15.0267 C   0  0  0  0  0  0  0  0  0  0  0  0
   23.5471  -21.5276  -14.8255 C   0  0  0  0  0  0  0  0  0  0  0  0
   23.5418  -20.8268  -13.5012 C   0  0  2  0  0  0  0  0  0  0  0  0
   24.3429  -21.5081  -12.5087 N   0  0  0  0  0  0  0  0  0  0  0  0
   22.0960  -20.7850  -13.0633 C   0  0  0  0  0  0  0  0  0  0  0  0
   21.6067  -21.6576  -12.3032 O   0  0  0  0  0  0  0  0  0  0  0  0
   27.7948  -25.5710  -16.3348 C   0  0  0  0  0  0  0  0  0  0  0  0
   17.9103  -18.1335  -12.7955 C   0  0  2  0  0  0  0  0  0  0  0  0
   19.3765  -18.2334  -13.1489 C   0  0  0  0  0  0  0  0  0  0  0  0
   20.2418  -17.3566  -12.2862 C   0  0  1  0  0  0  0  0  0  0  0  0
   19.8614  -19.6586  -13.0577 N   0  0  0  0  0  0  0  0  0  0  0  0
   21.2378  -19.7456  -13.5043 C   0  0  0  0  0  0  0  0  0  0  0  0
   19.0015  -20.5784  -13.8729 O   0  0  0  0  0  0  0  0  0  0  0  0
   17.9433  -21.2802  -13.3132 O   0  0  0  0  0  0  0  0  0  0  0  0
  2  1  1  0
  3  4  1  0
  3  2  1  0
  4  5  1  0
  5  6  1  6
  7  8  2  0
  7  5  1  0
 10 12  1  0
 10  9  1  0
 11 10  2  0
 13 14  1  0
 13 12  1  0
 14 15  1  0
 16 15  1  6
 16 17  1  0
 17  7  1  0
 18 16  1  0
 19 18  2  0
 21 20  1  6
 21 22  1  0
 23 21  1  0
 23 24  1  6
 24 18  1  0
 25 26  1  0
 25 23  1  0
 27 25  2  0
M  END
$$$$
