MRV.pdb
     RDKit          3D

 27 26  0  0  1  0  0  0  0  0999 V2000
   17.3499   -6.1217  -20.2484 C   0  0  0  0  0  0  0  0  0  0  0  0
   16.2999   -7.5183  -20.6729 S   0  0  0  0  0  0  0  0  0  0  0  0
   16.9567   -9.0078  -19.9096 C   0  0  0  0  0  0  0  0  0  0  0  0
   17.7660   -8.6899  -18.6992 C   0  0  0  0  0  0  0  0  0  0  0  0
   18.4140   -9.9107  -18.0753 C   0  0  2  0  0  0  0  0  0  0  0  0
   17.4779  -10.8880  -17.6102 N   0  0  0  0  0  0  0  0  0  0  0  0
   19.2081   -9.4190  -16.9229 C   0  0  0  0  0  0  0  0  0  0  0  0
   18.7019   -9.4021  -15.7988 O   0  0  0  0  0  0  0  0  0  0  0  0
   26.6666  -12.5211  -15.6623 N   0  0  0  0  0  0  0  0  0  0  0  0
   25.4697  -13.2339  -15.8755 C   0  0  0  0  0  0  0  0  0  0  0  0
   25.4012  -14.5237  -15.9133 N   0  0  0  0  0  0  0  0  0  0  0  0
   24.2424  -12.5224  -16.0642 N   0  0  0  0  0  0  0  0  0  0  0  0
   24.2292  -11.0745  -15.8898 C   0  0  0  0  0  0  0  0  0  0  0  0
   22.8262  -10.5709  -16.0212 C   0  0  0  0  0  0  0  0  0  0  0  0
   22.7153   -9.0926  -15.9236 C   0  0  0  0  0  0  0  0  0  0  0  0
   21.3135   -8.5640  -15.9057 C   0  0  2  0  0  0  0  0  0  0  0  0
   20.5558   -8.9586  -17.0724 N   0  0  0  0  0  0  0  0  0  0  0  0
   21.4415   -7.0591  -15.8530 C   0  0  0  0  0  0  0  0  0  0  0  0
   21.7832   -6.3860  -16.8573 O   0  0  0  0  0  0  0  0  0  0  0  0
   24.5057  -15.0273  -16.0915 C   0  0  0  0  0  0  0  0  0  0  0  0
   20.1149   -2.7854  -14.0949 C   0  0  2  0  0  0  0  0  0  0  0  0
   19.9762   -4.2745  -14.3140 C   0  0  0  0  0  0  0  0  0  0  0  0
   19.0399   -4.6097  -15.4422 C   0  0  1  0  0  0  0  0  0  0  0  0
   21.3180   -4.9130  -14.5718 N   0  0  0  0  0  0  0  0  0  0  0  0
   21.1765   -6.3536  -14.6515 C   0  0  0  0  0  0  0  0  0  0  0  0
   22.3047   -4.5558  -13.5001 O   0  0  0  0  0  0  0  0  0  0  0  0
   23.0863   -3.4118  -13.5753 O   0  0  0  0  0  0  0  0  0  0  0  0
  2  1  1  0
  3  4  1  0
  3  2  1  0
  4  5  1  0
  5  6  1  1
  7  8  2  0
  7  5  1  0
 10 12  1  0
 10  9  1  0
 11 10  2  0
 13 14  1  0
 13 12  1  0
 14 15  1  0
 16 15  1  6
 16 17  1  0
 17  7  1  0
 18 16  1  0
 19 18  2  0
 21 20  1  1
 21 22  1  0
 23 21  1  0
 23 24  1  1
 24 18  1  0
 25 26  1  0
 25 23  1  0
 27 25  2  0
M  END
$$$$
