YPA.pdb
     RDKit          3D

 25 26  0  0  1  0  0  0  0  0999 V2000
   21.3577  -19.9630  -14.4804 O   0  0  0  0  0  0  0  0  0  0  0  0
   22.2419  -20.1823  -13.4309 C   0  0  0  0  0  0  0  0  0  0  0  0
   22.8568  -19.1302  -12.7922 C   0  0  0  0  0  0  0  0  0  0  0  0
   23.7491  -19.3347  -11.7342 C   0  0  0  0  0  0  0  0  0  0  0  0
   24.0531  -20.5986  -11.2834 C   0  0  0  0  0  0  0  0  0  0  0  0
   24.9880  -20.8546  -10.1591 C   0  0  0  0  0  0  0  0  0  0  0  0
   26.4390  -20.7836  -10.5434 C   0  0  2  0  0  0  0  0  0  0  0  0
   26.8299  -21.7230  -11.5638 N   0  0  0  0  0  0  0  0  0  0  0  0
   27.2632  -20.8736   -9.3251 C   0  0  0  0  0  0  0  0  0  0  0  0
   27.7268  -21.9777   -8.9472 O   0  0  0  0  0  0  0  0  0  0  0  0
   23.4215  -21.6567  -11.9415 C   0  0  0  0  0  0  0  0  0  0  0  0
   22.5419  -21.4555  -12.9842 C   0  0  0  0  0  0  0  0  0  0  0  0
   27.5864  -19.7206   -8.4972 N   0  0  0  0  0  0  0  0  0  0  0  0
   27.0001  -18.4165   -8.6151 C   0  0  0  0  0  0  0  0  0  0  0  0
   27.7345  -17.5451   -7.6401 C   0  0  0  0  0  0  0  0  0  0  0  0
   29.0301  -18.3208   -7.3386 C   0  0  0  0  0  0  0  0  0  0  0  0
   28.5391  -19.7213   -7.4200 C   0  0  1  0  0  0  0  0  0  0  0  0
   27.9554  -20.2155   -6.1503 C   0  0  0  0  0  0  0  0  0  0  0  0
   26.7095  -20.1652   -6.0308 O   0  0  0  0  0  0  0  0  0  0  0  0
   29.3050  -22.2573   -3.2598 C   0  0  0  0  0  0  0  0  0  0  0  0
   28.2131  -21.5210   -4.0042 C   0  0  2  0  0  0  0  0  0  0  0  0
   28.7104  -20.7306   -5.0849 N   0  0  0  0  0  0  0  0  0  0  0  0
   27.5437  -20.6369   -3.0295 C   0  0  0  0  0  0  0  0  0  0  0  0
   27.7454  -19.2732   -3.1063 O   0  0  0  0  0  0  0  0  0  0  0  0
   26.7964  -21.0829   -2.1317 O   0  0  0  0  0  0  0  0  0  0  0  0
  1  2  1  0
  2  3  2  0
  2 12  1  0
  3  4  1  0
  4  5  2  0
  5  6  1  0
  6  7  1  0
  7  9  1  0
  7  8  1  6
  9 13  1  0
 10  9  2  0
 11  5  1  0
 12 11  2  0
 13 14  1  0
 13 17  1  0
 14 15  1  0
 15 16  1  0
 17 16  1  0
 18 22  1  0
 17 18  1  1
 19 18  2  0
 21 20  1  1
 21 22  1  0
 21 23  1  0
 23 24  1  0
 25 23  2  0
M  END
$$$$
