YPA.pdb
     RDKit          3D

 25 26  0  0  1  0  0  0  0  0999 V2000
   27.5589  -15.5024  -18.6342 O   0  0  0  0  0  0  0  0  0  0  0  0
   27.1974  -16.2594  -17.5263 C   0  0  0  0  0  0  0  0  0  0  0  0
   25.8823  -16.3568  -17.1342 C   0  0  0  0  0  0  0  0  0  0  0  0
   25.5027  -17.1149  -16.0214 C   0  0  0  0  0  0  0  0  0  0  0  0
   26.4280  -17.7988  -15.2671 C   0  0  0  0  0  0  0  0  0  0  0  0
   26.0627  -18.6195  -14.0853 C   0  0  0  0  0  0  0  0  0  0  0  0
   26.2107  -20.0994  -14.3002 C   0  0  2  0  0  0  0  0  0  0  0  0
   25.1876  -20.6845  -15.1293 N   0  0  0  0  0  0  0  0  0  0  0  0
   26.3476  -20.7631  -12.9917 C   0  0  0  0  0  0  0  0  0  0  0  0
   25.3547  -21.2980  -12.4394 O   0  0  0  0  0  0  0  0  0  0  0  0
   27.7592  -17.6905  -15.6769 C   0  0  0  0  0  0  0  0  0  0  0  0
   28.1337  -16.9435  -16.7737 C   0  0  0  0  0  0  0  0  0  0  0  0
   27.6083  -20.8409  -12.2679 N   0  0  0  0  0  0  0  0  0  0  0  0
   28.8501  -20.2573  -12.6873 C   0  0  0  0  0  0  0  0  0  0  0  0
   29.8748  -20.7081  -11.6894 C   0  0  0  0  0  0  0  0  0  0  0  0
   29.2228  -21.9187  -10.9960 C   0  0  0  0  0  0  0  0  0  0  0  0
   27.7946  -21.5077  -11.0075 C   0  0  1  0  0  0  0  0  0  0  0  0
   27.4182  -20.6536   -9.8558 C   0  0  0  0  0  0  0  0  0  0  0  0
   27.6253  -19.4226   -9.9595 O   0  0  0  0  0  0  0  0  0  0  0  0
   25.3024  -21.0032   -6.7702 C   0  0  0  0  0  0  0  0  0  0  0  0
   26.4199  -20.3534   -7.5559 C   0  0  2  0  0  0  0  0  0  0  0  0
   26.8499  -21.1399   -8.6680 N   0  0  0  0  0  0  0  0  0  0  0  0
   27.5537  -20.1714   -6.6281 C   0  0  0  0  0  0  0  0  0  0  0  0
   27.5174  -19.1380   -5.7132 O   0  0  0  0  0  0  0  0  0  0  0  0
   28.5515  -20.9249   -6.6422 O   0  0  0  0  0  0  0  0  0  0  0  0
  1  2  1  0
  2  3  2  0
  2 12  1  0
  3  4  1  0
  4  5  2  0
  5  6  1  0
  6  7  1  0
  7  9  1  0
  7  8  1  1
  9 13  1  0
 10  9  2  0
 11  5  1  0
 12 11  2  0
 13 14  1  0
 13 17  1  0
 14 15  1  0
 15 16  1  0
 17 16  1  0
 18 22  1  0
 17 18  1  1
 19 18  2  0
 21 20  1  1
 21 22  1  0
 21 23  1  0
 23 24  1  0
 25 23  2  0
M  END
$$$$
