YPA.pdb
     RDKit          3D

 25 26  0  0  1  0  0  0  0  0999 V2000
   17.5807  -16.9434  -16.7493 O   0  0  0  0  0  0  0  0  0  0  0  0
   18.6882  -17.5575  -16.1770 C   0  0  0  0  0  0  0  0  0  0  0  0
   19.9607  -17.1000  -16.4303 C   0  0  0  0  0  0  0  0  0  0  0  0
   21.0854  -17.7074  -15.8617 C   0  0  0  0  0  0  0  0  0  0  0  0
   20.9706  -18.7913  -15.0220 C   0  0  0  0  0  0  0  0  0  0  0  0
   22.1393  -19.4568  -14.3939 C   0  0  0  0  0  0  0  0  0  0  0  0
   22.9535  -20.2872  -15.3455 C   0  0  2  0  0  0  0  0  0  0  0  0
   22.2040  -21.3063  -16.0355 N   0  0  0  0  0  0  0  0  0  0  0  0
   24.1322  -20.8142  -14.6352 C   0  0  0  0  0  0  0  0  0  0  0  0
   24.1578  -22.0041  -14.2346 O   0  0  0  0  0  0  0  0  0  0  0  0
   19.6726  -19.2447  -14.7742 C   0  0  0  0  0  0  0  0  0  0  0  0
   18.5639  -18.6462  -15.3344 C   0  0  0  0  0  0  0  0  0  0  0  0
   25.3151  -20.0134  -14.3548 N   0  0  0  0  0  0  0  0  0  0  0  0
   25.5186  -18.6526  -14.7614 C   0  0  0  0  0  0  0  0  0  0  0  0
   26.9192  -18.3056  -14.3527 C   0  0  0  0  0  0  0  0  0  0  0  0
   27.5995  -19.6695  -14.1330 C   0  0  0  0  0  0  0  0  0  0  0  0
   26.4590  -20.4664  -13.6103 C   0  0  1  0  0  0  0  0  0  0  0  0
   26.2689  -20.3326  -12.1463 C   0  0  0  0  0  0  0  0  0  0  0  0
   25.5406  -19.3966  -11.7430 O   0  0  0  0  0  0  0  0  0  0  0  0
   27.2676  -22.3135   -9.0583 C   0  0  0  0  0  0  0  0  0  0  0  0
   26.3083  -21.5213   -9.9188 C   0  0  2  0  0  0  0  0  0  0  0  0
   26.8524  -21.1849  -11.1959 N   0  0  0  0  0  0  0  0  0  0  0  0
   25.9942  -20.2782   -9.1869 C   0  0  0  0  0  0  0  0  0  0  0  0
   24.9256  -20.2618   -8.3128 O   0  0  0  0  0  0  0  0  0  0  0  0
   26.6661  -19.2338   -9.3320 O   0  0  0  0  0  0  0  0  0  0  0  0
  1  2  1  0
  2  3  2  0
  2 12  1  0
  3  4  1  0
  4  5  2  0
  5  6  1  0
  6  7  1  0
  7  9  1  0
  7  8  1  1
  9 13  1  0
 10  9  2  0
 11  5  1  0
 12 11  2  0
 13 14  1  0
 13 17  1  0
 14 15  1  0
 15 16  1  0
 17 16  1  0
 18 22  1  0
 17 18  1  1
 19 18  2  0
 21 20  1  1
 21 22  1  0
 21 23  1  0
 23 24  1  0
 25 23  2  0
M  END
$$$$
