YPA.pdb
     RDKit          3D

 25 26  0  0  1  0  0  0  0  0999 V2000
   19.6869  -27.5132  -10.8296 O   0  0  0  0  0  0  0  0  0  0  0  0
   20.3955  -28.4921  -10.1433 C   0  0  0  0  0  0  0  0  0  0  0  0
   19.7551  -29.3647   -9.2940 C   0  0  0  0  0  0  0  0  0  0  0  0
   20.4545  -30.3553   -8.5962 C   0  0  0  0  0  0  0  0  0  0  0  0
   21.8161  -30.5027   -8.7274 C   0  0  0  0  0  0  0  0  0  0  0  0
   22.5909  -31.5462   -8.0102 C   0  0  0  0  0  0  0  0  0  0  0  0
   22.9060  -32.7550   -8.8455 C   0  0  2  0  0  0  0  0  0  0  0  0
   21.7477  -33.4323   -9.3710 N   0  0  0  0  0  0  0  0  0  0  0  0
   23.8028  -33.6433   -8.0851 C   0  0  0  0  0  0  0  0  0  0  0  0
   23.3351  -34.5649   -7.3717 O   0  0  0  0  0  0  0  0  0  0  0  0
   22.4526  -29.6096   -9.5928 C   0  0  0  0  0  0  0  0  0  0  0  0
   21.7636  -28.6332  -10.2808 C   0  0  0  0  0  0  0  0  0  0  0  0
   25.2528  -33.5163   -8.1064 N   0  0  0  0  0  0  0  0  0  0  0  0
   25.9882  -32.4325   -8.6919 C   0  0  0  0  0  0  0  0  0  0  0  0
   27.4359  -32.8062   -8.5747 C   0  0  0  0  0  0  0  0  0  0  0  0
   27.4168  -34.3257   -8.3256 C   0  0  0  0  0  0  0  0  0  0  0  0
   26.1708  -34.4592   -7.5265 C   0  0  1  0  0  0  0  0  0  0  0  0
   26.3739  -34.2305   -6.0761 C   0  0  0  0  0  0  0  0  0  0  0  0
   26.3937  -33.0432   -5.6772 O   0  0  0  0  0  0  0  0  0  0  0  0
   26.4653  -36.3958   -2.9631 C   0  0  0  0  0  0  0  0  0  0  0  0
   26.6298  -35.0948   -3.7173 C   0  0  2  0  0  0  0  0  0  0  0  0
   26.5443  -35.2569   -5.1338 N   0  0  0  0  0  0  0  0  0  0  0  0
   27.9621  -34.5596   -3.3736 C   0  0  0  0  0  0  0  0  0  0  0  0
   28.1755  -34.0401   -2.1124 O   0  0  0  0  0  0  0  0  0  0  0  0
   28.9093  -34.5602   -4.1900 O   0  0  0  0  0  0  0  0  0  0  0  0
  1  2  1  0
  2  3  2  0
  2 12  1  0
  3  4  1  0
  4  5  2  0
  5  6  1  0
  6  7  1  0
  7  9  1  0
  7  8  1  1
  9 13  1  0
 10  9  2  0
 11  5  1  0
 12 11  2  0
 13 14  1  0
 13 17  1  0
 14 15  1  0
 15 16  1  0
 17 16  1  0
 18 22  1  0
 17 18  1  1
 19 18  2  0
 21 20  1  1
 21 22  1  0
 21 23  1  0
 23 24  1  0
 25 23  2  0
M  END
$$$$
