YPA.pdb
     RDKit          3D

 25 26  0  0  1  0  0  0  0  0999 V2000
   28.2929  -24.6686  -22.6888 O   0  0  0  0  0  0  0  0  0  0  0  0
   27.9038  -25.7931  -21.9711 C   0  0  0  0  0  0  0  0  0  0  0  0
   28.6144  -26.2102  -20.8693 C   0  0  0  0  0  0  0  0  0  0  0  0
   28.2353  -27.3400  -20.1364 C   0  0  0  0  0  0  0  0  0  0  0  0
   27.1332  -28.0867  -20.4841 C   0  0  0  0  0  0  0  0  0  0  0  0
   26.6956  -29.2861  -19.7267 C   0  0  0  0  0  0  0  0  0  0  0  0
   27.4690  -30.5317  -20.0554 C   0  0  2  0  0  0  0  0  0  0  0  0
   27.3728  -30.9446  -21.4326 N   0  0  0  0  0  0  0  0  0  0  0  0
   27.0964  -31.5933  -19.1037 C   0  0  0  0  0  0  0  0  0  0  0  0
   26.1692  -32.3963  -19.3728 O   0  0  0  0  0  0  0  0  0  0  0  0
   26.4218  -27.6514  -21.6048 C   0  0  0  0  0  0  0  0  0  0  0  0
   26.7951  -26.5378  -22.3273 C   0  0  0  0  0  0  0  0  0  0  0  0
   27.7581  -31.7784  -17.8203 N   0  0  0  0  0  0  0  0  0  0  0  0
   28.7449  -30.9036  -17.2551 C   0  0  0  0  0  0  0  0  0  0  0  0
   29.2139  -31.5705  -15.9963 C   0  0  0  0  0  0  0  0  0  0  0  0
   28.7769  -33.0381  -16.1586 C   0  0  0  0  0  0  0  0  0  0  0  0
   27.5086  -32.8669  -16.9143 C   0  0  1  0  0  0  0  0  0  0  0  0
   26.3337  -32.6199  -16.0449 C   0  0  0  0  0  0  0  0  0  0  0  0
   26.1393  -31.4441  -15.6593 O   0  0  0  0  0  0  0  0  0  0  0  0
   23.3184  -34.6340  -14.9279 C   0  0  0  0  0  0  0  0  0  0  0  0
   24.2061  -33.4091  -14.9372 C   0  0  2  0  0  0  0  0  0  0  0  0
   25.4362  -33.6174  -15.6326 N   0  0  0  0  0  0  0  0  0  0  0  0
   24.4997  -33.0754  -13.5293 C   0  0  0  0  0  0  0  0  0  0  0  0
   23.6096  -32.2919  -12.8222 O   0  0  0  0  0  0  0  0  0  0  0  0
   25.5324  -33.4799  -12.9520 O   0  0  0  0  0  0  0  0  0  0  0  0
  1  2  1  0
  2  3  2  0
  2 12  1  0
  3  4  1  0
  4  5  2  0
  5  6  1  0
  6  7  1  0
  7  9  1  0
  7  8  1  6
  9 13  1  0
 10  9  2  0
 11  5  1  0
 12 11  2  0
 13 14  1  0
 13 17  1  0
 14 15  1  0
 15 16  1  0
 17 16  1  0
 18 22  1  0
 17 18  1  1
 19 18  2  0
 21 20  1  1
 21 22  1  0
 21 23  1  0
 23 24  1  0
 25 23  2  0
M  END
$$$$
