EHI.pdb
     RDKit          3D

 28 28  0  0  1  0  0  0  0  0999 V2000
   32.6150   -9.9889  -17.8787 N   0  0  0  0  0  0  0  0  0  0  0  0
   31.7453   -9.7341  -19.0001 C   0  0  1  0  0  0  0  0  0  0  0  0
   31.5714  -11.0114  -19.7712 C   0  0  0  0  0  0  0  0  0  0  0  0
   30.9642  -12.1313  -18.9722 C   0  0  0  0  0  0  0  0  0  0  0  0
   30.8911  -13.3422  -19.8635 C   0  0  0  0  0  0  0  0  0  0  0  0
   31.3837  -13.3888  -21.0082 O   0  0  0  0  0  0  0  0  0  0  0  0
   30.4361   -9.2164  -18.5041 C   0  0  0  0  0  0  0  0  0  0  0  0
   29.9588   -9.4808  -17.3798 O   0  0  0  0  0  0  0  0  0  0  0  0
   30.2447  -14.5035  -19.4358 O   0  0  0  0  0  0  0  0  0  0  0  0
   29.6902   -8.3568  -19.4016 N   0  0  0  0  0  0  0  0  0  0  0  0
   28.4849   -7.7209  -18.9326 C   0  0  1  0  0  0  0  0  0  0  0  0
   28.0004   -6.6401  -19.8184 C   0  0  0  0  0  0  0  0  0  0  0  0
   26.8477   -5.8719  -19.3124 C   0  0  0  0  0  0  0  0  0  0  0  0
   26.2083   -5.9672  -18.1156 C   0  0  0  0  0  0  0  0  0  0  0  0
   25.2135   -5.0325  -18.0513 N   0  0  0  0  0  0  0  0  0  0  0  0
   25.2443   -4.3575  -19.2198 C   0  0  0  0  0  0  0  0  0  0  0  0
   26.2196   -4.8540  -19.9792 N   0  0  0  0  0  0  0  0  0  0  0  0
   27.4709   -8.7992  -18.6612 C   0  0  0  0  0  0  0  0  0  0  0  0
   27.2558   -9.7123  -19.5394 O   0  0  0  0  0  0  0  0  0  0  0  0
   25.3663  -12.8563  -14.8101 C   0  0  0  0  0  0  0  0  0  0  0  0
   24.9888  -11.7921  -15.7688 C   0  0  0  0  0  0  0  0  0  0  0  0
   26.0495  -10.7613  -16.0559 C   0  0  2  0  0  0  0  0  0  0  0  0
   26.3380   -9.9746  -14.7794 C   0  0  0  0  0  0  0  0  0  0  0  0
   25.7208   -9.8207  -17.1454 C   0  0  2  0  0  0  0  0  0  0  0  0
   26.7290   -8.8523  -17.4539 N   0  0  0  0  0  0  0  0  0  0  0  0
   24.3812   -9.2053  -16.9245 C   0  0  0  0  0  0  0  0  0  0  0  0
   24.3153   -8.0139  -16.4658 O   0  0  0  0  0  0  0  0  0  0  0  0
   23.1844   -9.8323  -17.1832 O   0  0  0  0  0  0  0  0  0  0  0  0
  2  1  1  1
  2  3  1  0
  2  7  1  0
  3  4  1  0
  4  5  1  0
  5  6  2  0
  5  9  1  0
  7  8  2  0
 10  7  1  0
 10 11  1  0
 11 12  1  6
 12 13  1  0
 13 17  1  0
 13 14  2  0
 14 15  1  0
 16 15  1  0
 17 16  2  0
 18 25  1  0
 18 11  1  0
 19 18  2  0
 21 22  1  0
 21 20  1  0
 22 23  1  1
 24 26  1  0
 24 22  1  0
 24 25  1  1
 26 28  1  0
 27 26  2  0
M  END
$$$$
