EHI.pdb
     RDKit          3D

 28 28  0  0  1  0  0  0  0  0999 V2000
   26.1411  -19.4596  -16.7372 N   0  0  0  0  0  0  0  0  0  0  0  0
   26.8564  -19.9326  -15.5780 C   0  0  1  0  0  0  0  0  0  0  0  0
   28.1950  -19.2529  -15.5311 C   0  0  0  0  0  0  0  0  0  0  0  0
   29.1400  -19.6854  -16.6179 C   0  0  0  0  0  0  0  0  0  0  0  0
   29.0291  -21.1807  -16.7523 C   0  0  0  0  0  0  0  0  0  0  0  0
   28.5802  -21.7523  -17.7657 O   0  0  0  0  0  0  0  0  0  0  0  0
   26.0571  -19.6440  -14.3509 C   0  0  0  0  0  0  0  0  0  0  0  0
   25.9236  -18.5053  -13.8535 O   0  0  0  0  0  0  0  0  0  0  0  0
   29.4339  -22.0212  -15.7136 O   0  0  0  0  0  0  0  0  0  0  0  0
   25.4062  -20.7716  -13.7139 N   0  0  0  0  0  0  0  0  0  0  0  0
   24.5647  -20.5461  -12.5658 C   0  0  1  0  0  0  0  0  0  0  0  0
   23.1905  -21.0694  -12.7250 C   0  0  0  0  0  0  0  0  0  0  0  0
   22.3310  -20.3241  -13.6634 C   0  0  0  0  0  0  0  0  0  0  0  0
   22.6333  -19.2478  -14.4382 C   0  0  0  0  0  0  0  0  0  0  0  0
   21.5444  -18.9019  -15.1880 N   0  0  0  0  0  0  0  0  0  0  0  0
   20.5657  -19.7754  -14.8698 C   0  0  0  0  0  0  0  0  0  0  0  0
   21.0291  -20.6293  -13.9585 N   0  0  0  0  0  0  0  0  0  0  0  0
   25.2888  -21.0683  -11.3544 C   0  0  0  0  0  0  0  0  0  0  0  0
   25.8835  -22.2063  -11.4044 O   0  0  0  0  0  0  0  0  0  0  0  0
   28.5914  -19.7985   -6.3853 C   0  0  0  0  0  0  0  0  0  0  0  0
   27.5204  -20.5999   -7.0217 C   0  0  0  0  0  0  0  0  0  0  0  0
   26.9143  -20.0119   -8.2694 C   0  0  2  0  0  0  0  0  0  0  0  0
   26.3368  -18.6367   -7.9424 C   0  0  0  0  0  0  0  0  0  0  0  0
   25.8701  -20.8422   -8.9019 C   0  0  2  0  0  0  0  0  0  0  0  0
   25.3449  -20.3437  -10.1368 N   0  0  0  0  0  0  0  0  0  0  0  0
   24.8023  -21.1849   -7.9199 C   0  0  0  0  0  0  0  0  0  0  0  0
   25.1149  -21.8449   -6.8706 O   0  0  0  0  0  0  0  0  0  0  0  0
   23.4784  -20.8373   -8.0567 O   0  0  0  0  0  0  0  0  0  0  0  0
  2  1  1  6
  2  3  1  0
  2  7  1  0
  3  4  1  0
  4  5  1  0
  5  6  2  0
  5  9  1  0
  7  8  2  0
 10  7  1  0
 10 11  1  0
 11 12  1  6
 12 13  1  0
 13 17  1  0
 13 14  2  0
 14 15  1  0
 16 15  1  0
 17 16  2  0
 18 25  1  0
 18 11  1  0
 19 18  2  0
 21 22  1  0
 21 20  1  0
 22 23  1  1
 24 26  1  0
 24 22  1  0
 24 25  1  6
 26 28  1  0
 27 26  2  0
M  END
$$$$
