EHI.pdb
     RDKit          3D

 28 28  0  0  1  0  0  0  0  0999 V2000
   43.6806  -12.3988   -7.7642 N   0  0  0  0  0  0  0  0  0  0  0  0
   43.0599  -11.3015   -8.4640 C   0  0  1  0  0  0  0  0  0  0  0  0
   41.9809  -11.8499   -9.3535 C   0  0  0  0  0  0  0  0  0  0  0  0
   42.3843  -13.0798  -10.1188 C   0  0  0  0  0  0  0  0  0  0  0  0
   42.4461  -12.7117  -11.5772 C   0  0  0  0  0  0  0  0  0  0  0  0
   41.4524  -12.3615  -12.2445 O   0  0  0  0  0  0  0  0  0  0  0  0
   42.5067  -10.3317   -7.4733 C   0  0  0  0  0  0  0  0  0  0  0  0
   41.7920  -10.6549   -6.5004 O   0  0  0  0  0  0  0  0  0  0  0  0
   43.6571  -12.7504  -12.2710 O   0  0  0  0  0  0  0  0  0  0  0  0
   42.8314   -8.9336   -7.6750 N   0  0  0  0  0  0  0  0  0  0  0  0
   42.3840   -7.9579   -6.7133 C   0  0  1  0  0  0  0  0  0  0  0  0
   43.4870   -7.2753   -6.0028 C   0  0  0  0  0  0  0  0  0  0  0  0
   44.1053   -8.0404   -4.9040 C   0  0  0  0  0  0  0  0  0  0  0  0
   43.8189   -9.2939   -4.4604 C   0  0  0  0  0  0  0  0  0  0  0  0
   44.6676   -9.6251   -3.4417 N   0  0  0  0  0  0  0  0  0  0  0  0
   45.4823   -8.5643   -3.2601 C   0  0  0  0  0  0  0  0  0  0  0  0
   45.1520   -7.6125   -4.1316 N   0  0  0  0  0  0  0  0  0  0  0  0
   41.4287   -7.0278   -7.4112 C   0  0  0  0  0  0  0  0  0  0  0  0
   41.5663   -6.7918   -8.6668 O   0  0  0  0  0  0  0  0  0  0  0  0
   35.5655   -5.4811   -7.7755 C   0  0  0  0  0  0  0  0  0  0  0  0
   36.9826   -5.0639   -7.8846 C   0  0  0  0  0  0  0  0  0  0  0  0
   37.9872   -5.9756   -7.2291 C   0  0  2  0  0  0  0  0  0  0  0  0
   37.6209   -6.1436   -5.7563 C   0  0  0  0  0  0  0  0  0  0  0  0
   39.3907   -5.5297   -7.3355 C   0  0  2  0  0  0  0  0  0  0  0  0
   40.3620   -6.3890   -6.7293 N   0  0  0  0  0  0  0  0  0  0  0  0
   39.5275   -4.1106   -6.9001 C   0  0  0  0  0  0  0  0  0  0  0  0
   39.9419   -3.8635   -5.7162 O   0  0  0  0  0  0  0  0  0  0  0  0
   39.2381   -3.0225   -7.6905 O   0  0  0  0  0  0  0  0  0  0  0  0
  2  1  1  1
  2  3  1  0
  2  7  1  0
  3  4  1  0
  4  5  1  0
  5  6  2  0
  5  9  1  0
  7  8  2  0
 10  7  1  0
 10 11  1  0
 11 12  1  6
 12 13  1  0
 13 17  1  0
 13 14  2  0
 14 15  1  0
 16 15  1  0
 17 16  2  0
 18 25  1  0
 18 11  1  0
 19 18  2  0
 21 22  1  0
 21 20  1  0
 22 23  1  1
 24 26  1  0
 24 22  1  0
 24 25  1  1
 26 28  1  0
 27 26  2  0
M  END
$$$$
