EHI.pdb
     RDKit          3D

 28 28  0  0  1  0  0  0  0  0999 V2000
   14.7257  -13.2351  -17.0711 N   0  0  0  0  0  0  0  0  0  0  0  0
   15.9738  -13.2664  -16.3499 C   0  0  1  0  0  0  0  0  0  0  0  0
   16.7192  -14.5118  -16.7366 C   0  0  0  0  0  0  0  0  0  0  0  0
   18.0645  -14.6494  -16.0789 C   0  0  0  0  0  0  0  0  0  0  0  0
   18.3010  -16.1139  -15.8228 C   0  0  0  0  0  0  0  0  0  0  0  0
   18.2423  -16.9891  -16.7093 O   0  0  0  0  0  0  0  0  0  0  0  0
   16.7620  -12.0399  -16.6701 C   0  0  0  0  0  0  0  0  0  0  0  0
   17.4060  -11.8775  -17.7287 O   0  0  0  0  0  0  0  0  0  0  0  0
   18.6030  -16.5728  -14.5392 O   0  0  0  0  0  0  0  0  0  0  0  0
   16.7662  -10.9866  -15.6744 N   0  0  0  0  0  0  0  0  0  0  0  0
   17.3827   -9.7216  -15.9859 C   0  0  1  0  0  0  0  0  0  0  0  0
   16.4405   -8.5817  -15.9689 C   0  0  0  0  0  0  0  0  0  0  0  0
   15.4700   -8.5422  -17.0787 C   0  0  0  0  0  0  0  0  0  0  0  0
   15.6968   -8.4943  -18.4190 C   0  0  0  0  0  0  0  0  0  0  0  0
   14.5046   -8.5114  -19.0869 N   0  0  0  0  0  0  0  0  0  0  0  0
   13.5382   -8.5710  -18.1463 C   0  0  0  0  0  0  0  0  0  0  0  0
   14.1083   -8.5901  -16.9426 N   0  0  0  0  0  0  0  0  0  0  0  0
   18.5728   -9.5538  -15.0803 C   0  0  0  0  0  0  0  0  0  0  0  0
   18.4802   -9.8632  -13.8365 O   0  0  0  0  0  0  0  0  0  0  0  0
   23.0724  -11.9285  -15.4639 C   0  0  0  0  0  0  0  0  0  0  0  0
   21.8948  -11.0901  -15.1406 C   0  0  0  0  0  0  0  0  0  0  0  0
   22.1560   -9.6113  -15.0183 C   0  0  2  0  0  0  0  0  0  0  0  0
   23.1999   -9.3781  -13.9286 C   0  0  0  0  0  0  0  0  0  0  0  0
   20.9610   -8.7925  -14.7331 C   0  0  2  0  0  0  0  0  0  0  0  0
   19.8163   -9.0603  -15.5501 N   0  0  0  0  0  0  0  0  0  0  0  0
   21.3117   -7.3442  -14.6922 C   0  0  0  0  0  0  0  0  0  0  0  0
   20.9457   -6.5911  -15.6582 O   0  0  0  0  0  0  0  0  0  0  0  0
   22.0119   -6.7414  -13.6731 O   0  0  0  0  0  0  0  0  0  0  0  0
  2  1  1  6
  2  3  1  0
  2  7  1  0
  3  4  1  0
  4  5  1  0
  5  6  2  0
  5  9  1  0
  7  8  2  0
 10  7  1  0
 10 11  1  0
 11 12  1  1
 12 13  1  0
 13 17  1  0
 13 14  2  0
 14 15  1  0
 16 15  1  0
 17 16  2  0
 18 25  1  0
 18 11  1  0
 19 18  2  0
 21 22  1  0
 21 20  1  0
 22 23  1  1
 24 26  1  0
 24 22  1  0
 24 25  1  6
 26 28  1  0
 27 26  2  0
M  END
$$$$
