EHI.pdb
     RDKit          3D

 28 28  0  0  1  0  0  0  0  0999 V2000
   25.8980  -24.6638  -16.0119 N   0  0  0  0  0  0  0  0  0  0  0  0
   25.9411  -25.4886  -17.1937 C   0  0  1  0  0  0  0  0  0  0  0  0
   26.4062  -24.6475  -18.3480 C   0  0  0  0  0  0  0  0  0  0  0  0
   25.3099  -24.2510  -19.2978 C   0  0  0  0  0  0  0  0  0  0  0  0
   24.3988  -23.2969  -18.5725 C   0  0  0  0  0  0  0  0  0  0  0  0
   23.2795  -23.6156  -18.1245 O   0  0  0  0  0  0  0  0  0  0  0  0
   26.8574  -26.6433  -16.9588 C   0  0  0  0  0  0  0  0  0  0  0  0
   28.0989  -26.5430  -16.8570 O   0  0  0  0  0  0  0  0  0  0  0  0
   24.7773  -21.9691  -18.3654 O   0  0  0  0  0  0  0  0  0  0  0  0
   26.2450  -27.9522  -16.8473 N   0  0  0  0  0  0  0  0  0  0  0  0
   27.0785  -29.1057  -16.6194 C   0  0  1  0  0  0  0  0  0  0  0  0
   26.3995  -30.1923  -15.8806 C   0  0  0  0  0  0  0  0  0  0  0  0
   27.1711  -31.4406  -15.7343 C   0  0  0  0  0  0  0  0  0  0  0  0
   27.0143  -32.6296  -16.3760 C   0  0  0  0  0  0  0  0  0  0  0  0
   27.9776  -33.5055  -15.9607 N   0  0  0  0  0  0  0  0  0  0  0  0
   28.7323  -32.8462  -15.0563 C   0  0  0  0  0  0  0  0  0  0  0  0
   28.2559  -31.6101  -14.9160 N   0  0  0  0  0  0  0  0  0  0  0  0
   27.6560  -29.5256  -17.9441 C   0  0  0  0  0  0  0  0  0  0  0  0
   26.9744  -29.3619  -19.0211 O   0  0  0  0  0  0  0  0  0  0  0  0
   32.1747  -27.9808  -20.1816 C   0  0  0  0  0  0  0  0  0  0  0  0
   30.8551  -28.5683  -19.8533 C   0  0  0  0  0  0  0  0  0  0  0  0
   30.8371  -30.0584  -19.6318 C   0  0  2  0  0  0  0  0  0  0  0  0
   31.3469  -30.7555  -20.8911 C   0  0  0  0  0  0  0  0  0  0  0  0
   29.5195  -30.6146  -19.2651 C   0  0  2  0  0  0  0  0  0  0  0  0
   28.9455  -30.1045  -18.0569 N   0  0  0  0  0  0  0  0  0  0  0  0
   29.5468  -32.1045  -19.3040 C   0  0  0  0  0  0  0  0  0  0  0  0
   30.2199  -32.7347  -18.4186 O   0  0  0  0  0  0  0  0  0  0  0  0
   28.8883  -32.8709  -20.2375 O   0  0  0  0  0  0  0  0  0  0  0  0
  2  1  1  1
  2  3  1  0
  2  7  1  0
  3  4  1  0
  4  5  1  0
  5  6  2  0
  5  9  1  0
  7  8  2  0
 10  7  1  0
 10 11  1  0
 11 12  1  6
 12 13  1  0
 13 17  1  0
 13 14  2  0
 14 15  1  0
 16 15  1  0
 17 16  2  0
 18 25  1  0
 18 11  1  0
 19 18  2  0
 21 22  1  0
 21 20  1  0
 22 23  1  6
 24 26  1  0
 24 22  1  0
 24 25  1  1
 26 28  1  0
 27 26  2  0
M  END
$$$$
