EHI.pdb
     RDKit          3D

 28 28  0  0  1  0  0  0  0  0999 V2000
   27.8142  -22.4501  -16.9505 N   0  0  0  0  0  0  0  0  0  0  0  0
   28.2968  -21.1148  -16.6996 C   0  0  1  0  0  0  0  0  0  0  0  0
   28.4709  -20.4132  -18.0163 C   0  0  0  0  0  0  0  0  0  0  0  0
   28.1344  -21.2616  -19.2114 C   0  0  0  0  0  0  0  0  0  0  0  0
   29.4294  -21.6792  -19.8555 C   0  0  0  0  0  0  0  0  0  0  0  0
   29.8703  -21.1787  -20.9092 O   0  0  0  0  0  0  0  0  0  0  0  0
   27.3266  -20.3938  -15.8238 C   0  0  0  0  0  0  0  0  0  0  0  0
   27.3961  -19.1751  -15.5562 O   0  0  0  0  0  0  0  0  0  0  0  0
   30.2183  -22.6801  -19.2853 O   0  0  0  0  0  0  0  0  0  0  0  0
   26.2465  -21.1784  -15.2594 N   0  0  0  0  0  0  0  0  0  0  0  0
   25.2815  -20.5387  -14.4011 C   0  0  1  0  0  0  0  0  0  0  0  0
   23.9496  -20.3757  -15.0232 C   0  0  0  0  0  0  0  0  0  0  0  0
   23.8390  -19.2883  -16.0133 C   0  0  0  0  0  0  0  0  0  0  0  0
   23.7638  -19.3632  -17.3693 C   0  0  0  0  0  0  0  0  0  0  0  0
   23.6313  -18.1073  -17.8916 N   0  0  0  0  0  0  0  0  0  0  0  0
   23.6247  -17.2548  -16.8450 C   0  0  0  0  0  0  0  0  0  0  0  0
   23.7482  -17.9541  -15.7180 N   0  0  0  0  0  0  0  0  0  0  0  0
   25.2660  -21.2808  -13.0921 C   0  0  0  0  0  0  0  0  0  0  0  0
   25.3415  -22.5635  -13.0817 O   0  0  0  0  0  0  0  0  0  0  0  0
   26.8031  -19.2863   -7.7994 C   0  0  0  0  0  0  0  0  0  0  0  0
   26.1950  -19.5040   -9.1324 C   0  0  0  0  0  0  0  0  0  0  0  0
   26.1899  -20.9273   -9.6267 C   0  0  2  0  0  0  0  0  0  0  0  0
   27.5331  -21.2304  -10.2866 C   0  0  0  0  0  0  0  0  0  0  0  0
   25.0993  -21.2527  -10.5671 C   0  0  2  0  0  0  0  0  0  0  0  0
   25.1707  -20.6120  -11.8453 N   0  0  0  0  0  0  0  0  0  0  0  0
   23.7707  -21.0832   -9.9128 C   0  0  0  0  0  0  0  0  0  0  0  0
   23.5231  -21.7293   -8.8378 O   0  0  0  0  0  0  0  0  0  0  0  0
   22.7692  -20.2667  -10.3847 O   0  0  0  0  0  0  0  0  0  0  0  0
  2  1  1  6
  2  3  1  0
  2  7  1  0
  3  4  1  0
  4  5  1  0
  5  6  2  0
  5  9  1  0
  7  8  2  0
 10  7  1  0
 10 11  1  0
 11 12  1  6
 12 13  1  0
 13 17  1  0
 13 14  2  0
 14 15  1  0
 16 15  1  0
 17 16  2  0
 18 25  1  0
 18 11  1  0
 19 18  2  0
 21 22  1  0
 21 20  1  0
 22 23  1  6
 24 26  1  0
 24 22  1  0
 24 25  1  6
 26 28  1  0
 27 26  2  0
M  END
$$$$
