EHI.pdb
     RDKit          3D

 28 28  0  0  1  0  0  0  0  0999 V2000
   28.4857  -21.9590  -16.2417 N   0  0  0  0  0  0  0  0  0  0  0  0
   27.5672  -20.8966  -16.5682 C   0  0  1  0  0  0  0  0  0  0  0  0
   27.4226  -20.8308  -18.0619 C   0  0  0  0  0  0  0  0  0  0  0  0
   28.6676  -20.3866  -18.7787 C   0  0  0  0  0  0  0  0  0  0  0  0
   29.2732  -21.5973  -19.4373 C   0  0  0  0  0  0  0  0  0  0  0  0
   28.7669  -22.7360  -19.3897 O   0  0  0  0  0  0  0  0  0  0  0  0
   26.2547  -21.1556  -15.9062 C   0  0  0  0  0  0  0  0  0  0  0  0
   25.7501  -22.2909  -15.7712 O   0  0  0  0  0  0  0  0  0  0  0  0
   30.4691  -21.4966  -20.1508 O   0  0  0  0  0  0  0  0  0  0  0  0
   25.5394  -20.0020  -15.3981 N   0  0  0  0  0  0  0  0  0  0  0  0
   24.3483  -20.1989  -14.6108 C   0  0  1  0  0  0  0  0  0  0  0  0
   24.4591  -19.6865  -13.2279 C   0  0  0  0  0  0  0  0  0  0  0  0
   24.9488  -20.6544  -12.2286 C   0  0  0  0  0  0  0  0  0  0  0  0
   25.3180  -21.9527  -12.3966 C   0  0  0  0  0  0  0  0  0  0  0  0
   25.7471  -22.4655  -11.2047 N   0  0  0  0  0  0  0  0  0  0  0  0
   25.6403  -21.4713  -10.2980 C   0  0  0  0  0  0  0  0  0  0  0  0
   25.1636  -20.3846  -10.9033 N   0  0  0  0  0  0  0  0  0  0  0  0
   23.1861  -19.6396  -15.3862 C   0  0  0  0  0  0  0  0  0  0  0  0
   23.2774  -18.4786  -15.9294 O   0  0  0  0  0  0  0  0  0  0  0  0
   18.9846  -20.4295  -19.5387 C   0  0  0  0  0  0  0  0  0  0  0  0
   19.2282  -19.9490  -18.1588 C   0  0  0  0  0  0  0  0  0  0  0  0
   20.4488  -20.5082  -17.4752 C   0  0  2  0  0  0  0  0  0  0  0  0
   20.2454  -22.0026  -17.2365 C   0  0  0  0  0  0  0  0  0  0  0  0
   20.7992  -19.8532  -16.1993 C   0  0  2  0  0  0  0  0  0  0  0  0
   21.9713  -20.3532  -15.5469 N   0  0  0  0  0  0  0  0  0  0  0  0
   19.6169  -19.7972  -15.2931 C   0  0  0  0  0  0  0  0  0  0  0  0
   18.5698  -19.1738  -15.6795 O   0  0  0  0  0  0  0  0  0  0  0  0
   19.5628  -20.3781  -14.0474 O   0  0  0  0  0  0  0  0  0  0  0  0
  2  1  1  6
  2  3  1  0
  2  7  1  0
  3  4  1  0
  4  5  1  0
  5  6  2  0
  5  9  1  0
  7  8  2  0
 10  7  1  0
 10 11  1  0
 11 12  1  1
 12 13  1  0
 13 17  1  0
 13 14  2  0
 14 15  1  0
 16 15  1  0
 17 16  2  0
 18 25  1  0
 18 11  1  0
 19 18  2  0
 21 22  1  0
 21 20  1  0
 22 23  1  1
 24 26  1  0
 24 22  1  0
 24 25  1  1
 26 28  1  0
 27 26  2  0
M  END
$$$$
