EHI.pdb
     RDKit          3D

 28 28  0  0  1  0  0  0  0  0999 V2000
   19.9983  -15.1468  -18.6746 N   0  0  0  0  0  0  0  0  0  0  0  0
   19.0497  -14.1285  -18.2975 C   0  0  1  0  0  0  0  0  0  0  0  0
   18.4775  -14.4810  -16.9541 C   0  0  0  0  0  0  0  0  0  0  0  0
   17.5861  -15.6919  -16.9668 C   0  0  0  0  0  0  0  0  0  0  0  0
   17.0625  -15.8895  -15.5692 C   0  0  0  0  0  0  0  0  0  0  0  0
   16.4001  -15.0323  -14.9515 O   0  0  0  0  0  0  0  0  0  0  0  0
   19.7332  -12.8020  -18.2658 C   0  0  0  0  0  0  0  0  0  0  0  0
   20.9421  -12.6431  -17.9914 O   0  0  0  0  0  0  0  0  0  0  0  0
   17.3061  -17.0783  -14.8788 O   0  0  0  0  0  0  0  0  0  0  0  0
   18.9225  -11.6408  -18.5744 N   0  0  0  0  0  0  0  0  0  0  0  0
   19.5359  -10.3368  -18.6004 C   0  0  1  0  0  0  0  0  0  0  0  0
   18.8373   -9.3693  -19.4740 C   0  0  0  0  0  0  0  0  0  0  0  0
   19.4622   -8.0373  -19.5750 C   0  0  0  0  0  0  0  0  0  0  0  0
   20.6130   -7.6716  -20.2012 C   0  0  0  0  0  0  0  0  0  0  0  0
   20.7947   -6.3230  -20.0763 N   0  0  0  0  0  0  0  0  0  0  0  0
   19.7445   -5.8579  -19.3672 C   0  0  0  0  0  0  0  0  0  0  0  0
   18.9430   -6.8777  -19.0640 N   0  0  0  0  0  0  0  0  0  0  0  0
   19.7015   -9.8773  -17.1770 C   0  0  0  0  0  0  0  0  0  0  0  0
   18.8669  -10.2612  -16.2785 O   0  0  0  0  0  0  0  0  0  0  0  0
   23.6448  -11.0683  -14.2971 C   0  0  0  0  0  0  0  0  0  0  0  0
   22.4028  -10.5401  -14.9077 C   0  0  0  0  0  0  0  0  0  0  0  0
   22.1828   -9.0562  -14.7681 C   0  0  2  0  0  0  0  0  0  0  0  0
   22.1194   -8.6994  -13.2847 C   0  0  0  0  0  0  0  0  0  0  0  0
   20.9761   -8.5421  -15.4460 C   0  0  2  0  0  0  0  0  0  0  0  0
   20.7603   -9.0230  -16.7770 N   0  0  0  0  0  0  0  0  0  0  0  0
   20.9131   -7.0556  -15.3548 C   0  0  0  0  0  0  0  0  0  0  0  0
   21.4429   -6.3553  -16.2839 O   0  0  0  0  0  0  0  0  0  0  0  0
   20.3146   -6.3635  -14.3276 O   0  0  0  0  0  0  0  0  0  0  0  0
  2  1  1  1
  2  3  1  0
  2  7  1  0
  3  4  1  0
  4  5  1  0
  5  6  2  0
  5  9  1  0
  7  8  2  0
 10  7  1  0
 10 11  1  0
 11 12  1  6
 12 13  1  0
 13 17  1  0
 13 14  2  0
 14 15  1  0
 16 15  1  0
 17 16  2  0
 18 25  1  0
 18 11  1  0
 19 18  2  0
 21 22  1  0
 21 20  1  0
 22 23  1  1
 24 26  1  0
 24 22  1  0
 24 25  1  6
 26 28  1  0
 27 26  2  0
M  END
$$$$
