EHI.pdb
     RDKit          3D

 28 28  0  0  1  0  0  0  0  0999 V2000
   23.3780   -6.4936  -17.4559 N   0  0  0  0  0  0  0  0  0  0  0  0
   23.2318   -6.5762  -16.0239 C   0  0  1  0  0  0  0  0  0  0  0  0
   22.4316   -5.3945  -15.5553 C   0  0  0  0  0  0  0  0  0  0  0  0
   22.2155   -5.3523  -14.0678 C   0  0  0  0  0  0  0  0  0  0  0  0
   21.2659   -4.2213  -13.7752 C   0  0  0  0  0  0  0  0  0  0  0  0
   21.4810   -3.0366  -14.0996 O   0  0  0  0  0  0  0  0  0  0  0  0
   22.5619   -7.8617  -15.6678 C   0  0  0  0  0  0  0  0  0  0  0  0
   22.4162   -8.2750  -14.4974 O   0  0  0  0  0  0  0  0  0  0  0  0
   20.0650   -4.4555  -13.1028 O   0  0  0  0  0  0  0  0  0  0  0  0
   22.0592   -8.6635  -16.7656 N   0  0  0  0  0  0  0  0  0  0  0  0
   21.3454   -9.8829  -16.4816 C   0  0  1  0  0  0  0  0  0  0  0  0
   19.9769   -9.9140  -17.0417 C   0  0  0  0  0  0  0  0  0  0  0  0
   19.2362  -11.1734  -16.8412 C   0  0  0  0  0  0  0  0  0  0  0  0
   19.7044  -12.4498  -16.7979 C   0  0  0  0  0  0  0  0  0  0  0  0
   18.6711  -13.3093  -16.5506 N   0  0  0  0  0  0  0  0  0  0  0  0
   17.5592  -12.5518  -16.4406 C   0  0  0  0  0  0  0  0  0  0  0  0
   17.8896  -11.2730  -16.6130 N   0  0  0  0  0  0  0  0  0  0  0  0
   22.2143  -11.0352  -16.9080 C   0  0  0  0  0  0  0  0  0  0  0  0
   22.8484  -10.9808  -18.0243 O   0  0  0  0  0  0  0  0  0  0  0  0
   26.6790  -14.5588  -15.2777 C   0  0  0  0  0  0  0  0  0  0  0  0
   25.3528  -14.5594  -15.9375 C   0  0  0  0  0  0  0  0  0  0  0  0
   24.4430  -13.4120  -15.5827 C   0  0  2  0  0  0  0  0  0  0  0  0
   24.0348  -13.5347  -14.1165 C   0  0  0  0  0  0  0  0  0  0  0  0
   23.2316  -13.3001  -16.4192 C   0  0  2  0  0  0  0  0  0  0  0  0
   22.3670  -12.2005  -16.1146 N   0  0  0  0  0  0  0  0  0  0  0  0
   22.5076  -14.6020  -16.4754 C   0  0  0  0  0  0  0  0  0  0  0  0
   23.0671  -15.5972  -17.0503 O   0  0  0  0  0  0  0  0  0  0  0  0
   21.2580  -14.8212  -15.9436 O   0  0  0  0  0  0  0  0  0  0  0  0
  2  1  1  6
  2  3  1  0
  2  7  1  0
  3  4  1  0
  4  5  1  0
  5  6  2  0
  5  9  1  0
  7  8  2  0
 10  7  1  0
 10 11  1  0
 11 12  1  6
 12 13  1  0
 13 17  1  0
 13 14  2  0
 14 15  1  0
 16 15  1  0
 17 16  2  0
 18 25  1  0
 18 11  1  0
 19 18  2  0
 21 22  1  0
 21 20  1  0
 22 23  1  1
 24 26  1  0
 24 22  1  0
 24 25  1  1
 26 28  1  0
 27 26  2  0
M  END
$$$$
