EHI.pdb
     RDKit          3D

 28 28  0  0  1  0  0  0  0  0999 V2000
   13.9025  -10.6350  -15.7575 N   0  0  0  0  0  0  0  0  0  0  0  0
   14.6798   -9.4969  -15.3339 C   0  0  1  0  0  0  0  0  0  0  0  0
   13.9531   -8.2448  -15.7345 C   0  0  0  0  0  0  0  0  0  0  0  0
   14.1723   -7.8411  -17.1663 C   0  0  0  0  0  0  0  0  0  0  0  0
   15.4529   -7.0520  -17.2285 C   0  0  0  0  0  0  0  0  0  0  0  0
   16.1181   -6.7334  -16.2229 O   0  0  0  0  0  0  0  0  0  0  0  0
   14.8829   -9.5580  -13.8564 C   0  0  0  0  0  0  0  0  0  0  0  0
   14.0928  -10.1130  -13.0630 O   0  0  0  0  0  0  0  0  0  0  0  0
   15.9676   -6.6249  -18.4540 O   0  0  0  0  0  0  0  0  0  0  0  0
   16.0777   -8.9254  -13.3336 N   0  0  0  0  0  0  0  0  0  0  0  0
   16.3549   -8.9963  -11.9211 C   0  0  1  0  0  0  0  0  0  0  0  0
   17.5988   -9.7273  -11.5960 C   0  0  0  0  0  0  0  0  0  0  0  0
   17.6186  -11.1510  -11.9803 C   0  0  0  0  0  0  0  0  0  0  0  0
   16.8167  -12.1668  -11.5615 C   0  0  0  0  0  0  0  0  0  0  0  0
   17.1626  -13.3204  -12.2073 N   0  0  0  0  0  0  0  0  0  0  0  0
   18.1859  -13.0080  -13.0303 C   0  0  0  0  0  0  0  0  0  0  0  0
   18.4641  -11.7118  -12.9000 N   0  0  0  0  0  0  0  0  0  0  0  0
   16.2978   -7.5972  -11.3698 C   0  0  0  0  0  0  0  0  0  0  0  0
   16.6955   -6.6087  -12.0880 O   0  0  0  0  0  0  0  0  0  0  0  0
   12.7935   -4.1390   -7.6921 C   0  0  0  0  0  0  0  0  0  0  0  0
   14.1115   -4.3948   -8.3179 C   0  0  0  0  0  0  0  0  0  0  0  0
   14.3547   -5.8077   -8.7811 C   0  0  2  0  0  0  0  0  0  0  0  0
   14.3245   -6.7404   -7.5725 C   0  0  0  0  0  0  0  0  0  0  0  0
   15.6161   -6.0086   -9.5217 C   0  0  2  0  0  0  0  0  0  0  0  0
   15.8135   -7.3176  -10.0667 N   0  0  0  0  0  0  0  0  0  0  0  0
   16.7802   -5.5395   -8.7173 C   0  0  0  0  0  0  0  0  0  0  0  0
   16.8790   -4.2958   -8.4383 O   0  0  0  0  0  0  0  0  0  0  0  0
   17.7771   -6.3584   -8.2399 O   0  0  0  0  0  0  0  0  0  0  0  0
  2  1  1  1
  2  3  1  0
  2  7  1  0
  3  4  1  0
  4  5  1  0
  5  6  2  0
  5  9  1  0
  7  8  2  0
 10  7  1  0
 10 11  1  0
 11 12  1  6
 12 13  1  0
 13 17  1  0
 13 14  2  0
 14 15  1  0
 16 15  1  0
 17 16  2  0
 18 25  1  0
 18 11  1  0
 19 18  2  0
 21 22  1  0
 21 20  1  0
 22 23  1  1
 24 26  1  0
 24 22  1  0
 24 25  1  1
 26 28  1  0
 27 26  2  0
M  END
$$$$
