SMN.pdb
     RDKit          3D

 23 22  0  0  1  0  0  0  0  0999 V2000
   28.9398  -22.1293  -15.3573 O   0  0  0  0  0  0  0  0  0  0  0  0
   28.1973  -21.3248  -16.2220 C   0  0  0  0  0  0  0  0  0  0  0  0
   27.5326  -20.2448  -15.3839 C   0  0  2  0  0  0  0  0  0  0  0  0
   28.5388  -19.4941  -14.6843 N   0  0  0  0  0  0  0  0  0  0  0  0
   26.5328  -20.8412  -14.4489 C   0  0  0  0  0  0  0  0  0  0  0  0
   25.6806  -21.6697  -14.8938 O   0  0  0  0  0  0  0  0  0  0  0  0
   26.9952  -19.2696   -8.1309 C   0  0  0  0  0  0  0  0  0  0  0  0
   25.7551  -20.5945   -7.9612 S   0  0  0  0  0  0  0  0  0  0  0  0
   25.1569  -21.0500   -9.5862 C   0  0  0  0  0  0  0  0  0  0  0  0
   25.9888  -20.6924  -10.7448 C   0  0  0  0  0  0  0  0  0  0  0  0
   25.5615  -21.0428  -12.1230 C   0  0  2  0  0  0  0  0  0  0  0  0
   26.5376  -20.4861  -13.0849 N   0  0  0  0  0  0  0  0  0  0  0  0
   24.2159  -20.5985  -12.4490 C   0  0  0  0  0  0  0  0  0  0  0  0
   23.9412  -19.3779  -12.4230 O   0  0  0  0  0  0  0  0  0  0  0  0
   22.7816  -19.7955  -15.5044 N   0  0  0  0  0  0  0  0  0  0  0  0
   21.8483  -20.8529  -15.5799 C   0  0  0  0  0  0  0  0  0  0  0  0
   21.5257  -21.2150  -16.7599 O   0  0  0  0  0  0  0  0  0  0  0  0
   21.2859  -21.4975  -14.3872 C   0  0  0  0  0  0  0  0  0  0  0  0
   21.8411  -20.9526  -13.1118 C   0  0  2  0  0  0  0  0  0  0  0  0
   23.1531  -21.4803  -12.8079 N   0  0  0  0  0  0  0  0  0  0  0  0
   20.9599  -21.0658  -11.9454 C   0  0  0  0  0  0  0  0  0  0  0  0
   19.9171  -20.3283  -11.9138 O   0  0  0  0  0  0  0  0  0  0  0  0
   21.1456  -21.8895  -10.8776 O   0  0  0  0  0  0  0  0  0  0  0  0
  2  1  1  0
  3  2  1  0
  3  5  1  0
  3  4  1  1
  5  6  2  0
  5 12  1  0
  7  8  1  0
  8  9  1  0
 11 10  1  1
 10  9  1  0
 11 13  1  0
 12 11  1  0
 13 20  1  0
 14 13  2  0
 16 15  1  0
 17 16  2  0
 18 16  1  0
 19 21  1  0
 19 18  1  6
 20 19  1  0
 21 23  1  0
 22 21  2  0
M  END
$$$$
