SMN.pdb
     RDKit          3D

 23 22  0  0  1  0  0  0  0  0999 V2000
   15.9217  -10.4725  -11.4004 O   0  0  0  0  0  0  0  0  0  0  0  0
   16.0077  -10.4569  -10.0081 C   0  0  0  0  0  0  0  0  0  0  0  0
   14.8497   -9.6208   -9.4879 C   0  0  2  0  0  0  0  0  0  0  0  0
   13.6106  -10.1651   -9.9713 N   0  0  0  0  0  0  0  0  0  0  0  0
   15.0163   -8.1881   -9.8744 C   0  0  0  0  0  0  0  0  0  0  0  0
   14.5202   -7.7761  -10.9674 O   0  0  0  0  0  0  0  0  0  0  0  0
   13.6883   -3.6952   -6.1028 C   0  0  0  0  0  0  0  0  0  0  0  0
   14.6575   -2.5826   -7.1727 S   0  0  0  0  0  0  0  0  0  0  0  0
   15.5422   -3.5585   -8.3856 C   0  0  0  0  0  0  0  0  0  0  0  0
   15.4145   -5.0214   -8.3095 C   0  0  0  0  0  0  0  0  0  0  0  0
   15.9471   -5.8871   -9.3920 C   0  0  2  0  0  0  0  0  0  0  0  0
   15.7181   -7.3032   -9.0312 N   0  0  0  0  0  0  0  0  0  0  0  0
   17.3525   -5.6579   -9.6863 C   0  0  0  0  0  0  0  0  0  0  0  0
   18.2292   -6.0829   -8.9009 O   0  0  0  0  0  0  0  0  0  0  0  0
   21.7723   -5.5366  -12.3189 N   0  0  0  0  0  0  0  0  0  0  0  0
   21.0170   -6.6398  -11.8638 C   0  0  0  0  0  0  0  0  0  0  0  0
   21.6048   -7.7702  -11.9299 O   0  0  0  0  0  0  0  0  0  0  0  0
   19.6502   -6.5028  -11.3467 C   0  0  0  0  0  0  0  0  0  0  0  0
   19.2005   -5.0812  -11.2536 C   0  0  2  0  0  0  0  0  0  0  0  0
   17.8192   -4.9623  -10.8414 N   0  0  0  0  0  0  0  0  0  0  0  0
   19.4522   -4.2647  -12.4452 C   0  0  0  0  0  0  0  0  0  0  0  0
   18.4873   -4.0957  -13.2653 O   0  0  0  0  0  0  0  0  0  0  0  0
   20.6286   -3.6610  -12.7692 O   0  0  0  0  0  0  0  0  0  0  0  0
  2  1  1  0
  3  2  1  0
  3  5  1  0
  3  4  1  6
  5  6  2  0
  5 12  1  0
  7  8  1  0
  8  9  1  0
 11 10  1  1
 10  9  1  0
 11 13  1  0
 12 11  1  0
 13 20  1  0
 14 13  2  0
 16 15  1  0
 17 16  2  0
 18 16  1  0
 19 21  1  0
 19 18  1  6
 20 19  1  0
 21 23  1  0
 22 21  2  0
M  END
$$$$
