SMN.pdb
     RDKit          3D

 23 22  0  0  1  0  0  0  0  0999 V2000
   26.6348  -19.2003  -16.6972 O   0  0  0  0  0  0  0  0  0  0  0  0
   27.7339  -18.9845  -15.8655 C   0  0  0  0  0  0  0  0  0  0  0  0
   28.1942  -20.3404  -15.3552 C   0  0  2  0  0  0  0  0  0  0  0  0
   28.4355  -21.2150  -16.4698 N   0  0  0  0  0  0  0  0  0  0  0  0
   27.1965  -20.9140  -14.4038 C   0  0  0  0  0  0  0  0  0  0  0  0
   26.5356  -21.9438  -14.7401 O   0  0  0  0  0  0  0  0  0  0  0  0
   26.9012  -20.6433   -7.1518 C   0  0  0  0  0  0  0  0  0  0  0  0
   25.7143  -19.6938   -8.1577 S   0  0  0  0  0  0  0  0  0  0  0  0
   25.4147  -20.5673   -9.6919 C   0  0  0  0  0  0  0  0  0  0  0  0
   26.2363  -20.2038  -10.8560 C   0  0  0  0  0  0  0  0  0  0  0  0
   25.9948  -20.8298  -12.1805 C   0  0  2  0  0  0  0  0  0  0  0  0
   26.9926  -20.3157  -13.1440 N   0  0  0  0  0  0  0  0  0  0  0  0
   24.6470  -20.6262  -12.6867 C   0  0  0  0  0  0  0  0  0  0  0  0
   24.3777  -19.5929  -13.3393 O   0  0  0  0  0  0  0  0  0  0  0  0
   20.8763  -20.6855  -15.4859 N   0  0  0  0  0  0  0  0  0  0  0  0
   21.2464  -22.0292  -15.2576 C   0  0  0  0  0  0  0  0  0  0  0  0
   20.9658  -22.8419  -16.2002 O   0  0  0  0  0  0  0  0  0  0  0  0
   21.9108  -22.4677  -14.0245 C   0  0  0  0  0  0  0  0  0  0  0  0
   22.3008  -21.3322  -13.1354 C   0  0  2  0  0  0  0  0  0  0  0  0
   23.5759  -21.5477  -12.4876 N   0  0  0  0  0  0  0  0  0  0  0  0
   21.2889  -20.9278  -12.1544 C   0  0  0  0  0  0  0  0  0  0  0  0
   21.4559  -21.2943  -10.9420 O   0  0  0  0  0  0  0  0  0  0  0  0
   20.1732  -20.1911  -12.4110 O   0  0  0  0  0  0  0  0  0  0  0  0
  2  1  1  0
  3  2  1  0
  3  5  1  0
  3  4  1  6
  5  6  2  0
  5 12  1  0
  7  8  1  0
  8  9  1  0
 11 10  1  1
 10  9  1  0
 11 13  1  0
 12 11  1  0
 13 20  1  0
 14 13  2  0
 16 15  1  0
 17 16  2  0
 18 16  1  0
 19 21  1  0
 19 18  1  1
 20 19  1  0
 21 23  1  0
 22 21  2  0
M  END
$$$$
