SMN.pdb
     RDKit          3D

 23 22  0  0  1  0  0  0  0  0999 V2000
   20.1994  -13.9431  -18.5016 O   0  0  0  0  0  0  0  0  0  0  0  0
   19.1494  -13.0271  -18.4337 C   0  0  0  0  0  0  0  0  0  0  0  0
   19.6597  -11.7052  -18.9838 C   0  0  2  0  0  0  0  0  0  0  0  0
   20.1263  -11.8946  -20.3299 N   0  0  0  0  0  0  0  0  0  0  0  0
   20.7229  -11.1399  -18.1008 C   0  0  0  0  0  0  0  0  0  0  0  0
   20.4656  -10.9213  -16.8775 O   0  0  0  0  0  0  0  0  0  0  0  0
   27.3041  -10.0883  -15.1211 C   0  0  0  0  0  0  0  0  0  0  0  0
   25.7649  -10.8010  -15.7880 S   0  0  0  0  0  0  0  0  0  0  0  0
   25.5987  -10.3328  -17.5083 C   0  0  0  0  0  0  0  0  0  0  0  0
   24.3747  -10.7431  -18.2123 C   0  0  0  0  0  0  0  0  0  0  0  0
   23.0519  -10.1974  -17.8158 C   0  0  2  0  0  0  0  0  0  0  0  0
   22.0001  -10.8528  -18.6232 N   0  0  0  0  0  0  0  0  0  0  0  0
   22.9566   -8.7513  -17.9335 C   0  0  0  0  0  0  0  0  0  0  0  0
   22.8866   -8.2232  -19.0660 O   0  0  0  0  0  0  0  0  0  0  0  0
   20.6042   -3.5971  -15.8101 N   0  0  0  0  0  0  0  0  0  0  0  0
   21.5991   -4.3748  -16.4427 C   0  0  0  0  0  0  0  0  0  0  0  0
   22.3691   -3.7383  -17.2362 O   0  0  0  0  0  0  0  0  0  0  0  0
   21.7449   -5.8161  -16.2065 C   0  0  0  0  0  0  0  0  0  0  0  0
   22.8304   -6.4354  -17.0252 C   0  0  2  0  0  0  0  0  0  0  0  0
   22.9361   -7.8629  -16.8172 N   0  0  0  0  0  0  0  0  0  0  0  0
   24.1466   -5.8006  -16.9044 C   0  0  0  0  0  0  0  0  0  0  0  0
   24.2234   -4.5443  -17.1238 O   0  0  0  0  0  0  0  0  0  0  0  0
   25.3110   -6.4257  -16.5781 O   0  0  0  0  0  0  0  0  0  0  0  0
  2  1  1  0
  3  2  1  0
  3  5  1  0
  3  4  1  6
  5  6  2  0
  5 12  1  0
  7  8  1  0
  8  9  1  0
 11 10  1  6
 10  9  1  0
 11 13  1  0
 12 11  1  0
 13 20  1  0
 14 13  2  0
 16 15  1  0
 17 16  2  0
 18 16  1  0
 19 21  1  0
 19 18  1  1
 20 19  1  0
 21 23  1  0
 22 21  2  0
M  END
$$$$
