SMN.pdb
     RDKit          3D

 23 22  0  0  1  0  0  0  0  0999 V2000
   18.3143  -10.9177  -20.8492 O   0  0  0  0  0  0  0  0  0  0  0  0
   18.5439  -10.7838  -19.4797 C   0  0  0  0  0  0  0  0  0  0  0  0
   19.7209  -11.6776  -19.1240 C   0  0  2  0  0  0  0  0  0  0  0  0
   19.2579  -13.0240  -18.9285 N   0  0  0  0  0  0  0  0  0  0  0  0
   20.4373  -11.1556  -17.9223 C   0  0  0  0  0  0  0  0  0  0  0  0
   19.8781  -11.2243  -16.7851 O   0  0  0  0  0  0  0  0  0  0  0  0
   27.6342  -10.2027  -14.8968 C   0  0  0  0  0  0  0  0  0  0  0  0
   26.5745  -10.8306  -16.2402 S   0  0  0  0  0  0  0  0  0  0  0  0
   24.9226  -10.1684  -16.0428 C   0  0  0  0  0  0  0  0  0  0  0  0
   23.8973  -10.5926  -17.0077 C   0  0  0  0  0  0  0  0  0  0  0  0
   22.4959  -10.1177  -16.8839 C   0  0  2  0  0  0  0  0  0  0  0  0
   21.7228  -10.5925  -18.0521 N   0  0  0  0  0  0  0  0  0  0  0  0
   22.3771   -8.6749  -16.7475 C   0  0  0  0  0  0  0  0  0  0  0  0
   22.5150   -7.9423  -17.7527 O   0  0  0  0  0  0  0  0  0  0  0  0
   19.4928   -4.0746  -16.8139 N   0  0  0  0  0  0  0  0  0  0  0  0
   20.2125   -4.7883  -15.8303 C   0  0  0  0  0  0  0  0  0  0  0  0
   20.6013   -4.0996  -14.8292 O   0  0  0  0  0  0  0  0  0  0  0  0
   20.4955   -6.2240  -15.9439 C   0  0  0  0  0  0  0  0  0  0  0  0
   21.8713   -6.5862  -15.4883 C   0  0  2  0  0  0  0  0  0  0  0  0
   22.1060   -8.0132  -15.5128 N   0  0  0  0  0  0  0  0  0  0  0  0
   22.2723   -6.0226  -14.1954 C   0  0  0  0  0  0  0  0  0  0  0  0
   22.1206   -6.7504  -13.1564 O   0  0  0  0  0  0  0  0  0  0  0  0
   22.7967   -4.7833  -13.9894 O   0  0  0  0  0  0  0  0  0  0  0  0
  2  1  1  0
  3  2  1  0
  3  5  1  0
  3  4  1  1
  5  6  2  0
  5 12  1  0
  7  8  1  0
  8  9  1  0
 11 10  1  6
 10  9  1  0
 11 13  1  0
 12 11  1  0
 13 20  1  0
 14 13  2  0
 16 15  1  0
 17 16  2  0
 18 16  1  0
 19 21  1  0
 19 18  1  1
 20 19  1  0
 21 23  1  0
 22 21  2  0
M  END
$$$$
