SMN.pdb
     RDKit          3D

 23 22  0  0  1  0  0  0  0  0999 V2000
   20.4258  -17.5838  -18.3025 O   0  0  0  0  0  0  0  0  0  0  0  0
   20.2791  -16.7306  -17.2085 C   0  0  0  0  0  0  0  0  0  0  0  0
   21.3639  -17.0842  -16.2042 C   0  0  2  0  0  0  0  0  0  0  0  0
   20.8586  -18.0584  -15.2763 N   0  0  0  0  0  0  0  0  0  0  0  0
   21.8610  -15.8596  -15.5094 C   0  0  0  0  0  0  0  0  0  0  0  0
   21.1626  -15.3408  -14.5854 O   0  0  0  0  0  0  0  0  0  0  0  0
   27.2318  -10.4473  -14.8611 C   0  0  0  0  0  0  0  0  0  0  0  0
   26.0201  -11.5804  -15.6160 S   0  0  0  0  0  0  0  0  0  0  0  0
   25.9395  -13.0838  -14.6468 C   0  0  0  0  0  0  0  0  0  0  0  0
   25.1234  -14.1899  -15.1693 C   0  0  0  0  0  0  0  0  0  0  0  0
   23.6421  -14.0918  -15.1991 C   0  0  2  0  0  0  0  0  0  0  0  0
   23.0950  -15.2869  -15.8777 N   0  0  0  0  0  0  0  0  0  0  0  0
   23.1488  -12.8781  -15.8299 C   0  0  0  0  0  0  0  0  0  0  0  0
   23.0792  -12.8104  -17.0776 O   0  0  0  0  0  0  0  0  0  0  0  0
   18.9663   -9.3369  -17.2538 N   0  0  0  0  0  0  0  0  0  0  0  0
   20.3448   -9.5478  -17.0303 C   0  0  0  0  0  0  0  0  0  0  0  0
   21.1159   -8.6255  -17.4573 O   0  0  0  0  0  0  0  0  0  0  0  0
   20.8620  -10.7423  -16.3520 C   0  0  0  0  0  0  0  0  0  0  0  0
   22.2443  -10.5574  -15.8162 C   0  0  2  0  0  0  0  0  0  0  0  0
   22.7249  -11.7230  -15.1075 N   0  0  0  0  0  0  0  0  0  0  0  0
   22.4486   -9.3480  -15.0126 C   0  0  0  0  0  0  0  0  0  0  0  0
   22.1250   -8.2267  -15.5324 O   0  0  0  0  0  0  0  0  0  0  0  0
   22.9567   -9.3008  -13.7505 O   0  0  0  0  0  0  0  0  0  0  0  0
  2  1  1  0
  3  2  1  0
  3  5  1  0
  3  4  1  1
  5  6  2  0
  5 12  1  0
  7  8  1  0
  8  9  1  0
 11 10  1  6
 10  9  1  0
 11 13  1  0
 12 11  1  0
 13 20  1  0
 14 13  2  0
 16 15  1  0
 17 16  2  0
 18 16  1  0
 19 21  1  0
 19 18  1  1
 20 19  1  0
 21 23  1  0
 22 21  2  0
M  END
$$$$
