SMN.pdb
     RDKit          3D

 23 22  0  0  1  0  0  0  0  0999 V2000
   17.1336  -11.4583  -17.6902 O   0  0  0  0  0  0  0  0  0  0  0  0
   18.3788  -11.4137  -18.3176 C   0  0  0  0  0  0  0  0  0  0  0  0
   19.4382  -11.6090  -17.2453 C   0  0  2  0  0  0  0  0  0  0  0  0
   19.0779  -12.7242  -16.4133 N   0  0  0  0  0  0  0  0  0  0  0  0
   19.6230  -10.3586  -16.4503 C   0  0  0  0  0  0  0  0  0  0  0  0
   18.7474  -10.0311  -15.5920 O   0  0  0  0  0  0  0  0  0  0  0  0
   22.5188   -9.7470  -11.3733 C   0  0  0  0  0  0  0  0  0  0  0  0
   21.7099   -9.0291  -12.8403 S   0  0  0  0  0  0  0  0  0  0  0  0
   22.8907   -8.9553  -14.1844 C   0  0  0  0  0  0  0  0  0  0  0  0
   22.4544   -8.3322  -15.4428 C   0  0  0  0  0  0  0  0  0  0  0  0
   21.0236   -8.3440  -15.8395 C   0  0  2  0  0  0  0  0  0  0  0  0
   20.7603   -9.5512  -16.6526 N   0  0  0  0  0  0  0  0  0  0  0  0
   20.6045   -7.1485  -16.5532 C   0  0  0  0  0  0  0  0  0  0  0  0
   20.5636   -7.1538  -17.8040 O   0  0  0  0  0  0  0  0  0  0  0  0
   18.2113   -3.0674  -18.3383 N   0  0  0  0  0  0  0  0  0  0  0  0
   17.7308   -4.3929  -18.2549 C   0  0  0  0  0  0  0  0  0  0  0  0
   16.7174   -4.6546  -18.9844 O   0  0  0  0  0  0  0  0  0  0  0  0
   18.3511   -5.4058  -17.3927 C   0  0  0  0  0  0  0  0  0  0  0  0
   19.5484   -4.8952  -16.6595 C   0  0  2  0  0  0  0  0  0  0  0  0
   20.2246   -5.9321  -15.9115 N   0  0  0  0  0  0  0  0  0  0  0  0
   19.3114   -3.7226  -15.8116 C   0  0  0  0  0  0  0  0  0  0  0  0
   18.3762   -3.7950  -14.9442 O   0  0  0  0  0  0  0  0  0  0  0  0
   19.9979   -2.5479  -15.8582 O   0  0  0  0  0  0  0  0  0  0  0  0
  2  1  1  0
  3  2  1  0
  3  5  1  0
  3  4  1  1
  5  6  2  0
  5 12  1  0
  7  8  1  0
  8  9  1  0
 11 10  1  6
 10  9  1  0
 11 13  1  0
 12 11  1  0
 13 20  1  0
 14 13  2  0
 16 15  1  0
 17 16  2  0
 18 16  1  0
 19 21  1  0
 19 18  1  1
 20 19  1  0
 21 23  1  0
 22 21  2  0
M  END
$$$$
