SMN.pdb
     RDKit          3D

 23 22  0  0  1  0  0  0  0  0999 V2000
   18.2594  -10.8850  -20.7849 O   0  0  0  0  0  0  0  0  0  0  0  0
   18.8619  -10.2873  -19.6776 C   0  0  0  0  0  0  0  0  0  0  0  0
   19.4997  -11.3927  -18.8520 C   0  0  2  0  0  0  0  0  0  0  0  0
   18.4744  -12.2571  -18.3352 N   0  0  0  0  0  0  0  0  0  0  0  0
   20.3448  -10.8189  -17.7627 C   0  0  0  0  0  0  0  0  0  0  0  0
   19.7887  -10.3688  -16.7146 O   0  0  0  0  0  0  0  0  0  0  0  0
   27.8133  -10.5762  -15.0328 C   0  0  0  0  0  0  0  0  0  0  0  0
   26.6413  -11.2461  -16.2574 S   0  0  0  0  0  0  0  0  0  0  0  0
   25.0582  -10.4332  -16.0603 C   0  0  0  0  0  0  0  0  0  0  0  0
   23.9579  -10.8596  -16.9378 C   0  0  0  0  0  0  0  0  0  0  0  0
   22.6243  -10.2124  -16.8520 C   0  0  2  0  0  0  0  0  0  0  0  0
   21.7470  -10.7790  -17.8994 N   0  0  0  0  0  0  0  0  0  0  0  0
   22.6698   -8.7627  -16.9559 C   0  0  0  0  0  0  0  0  0  0  0  0
   22.7709   -8.2232  -18.0805 O   0  0  0  0  0  0  0  0  0  0  0  0
   21.8047   -3.7478  -16.4934 N   0  0  0  0  0  0  0  0  0  0  0  0
   21.0006   -4.7361  -17.1028 C   0  0  0  0  0  0  0  0  0  0  0  0
   20.0230   -4.2964  -17.7945 O   0  0  0  0  0  0  0  0  0  0  0  0
   21.2667   -6.1722  -16.9571 C   0  0  0  0  0  0  0  0  0  0  0  0
   22.4029   -6.4650  -16.0322 C   0  0  2  0  0  0  0  0  0  0  0  0
   22.6054   -7.8833  -15.8341 N   0  0  0  0  0  0  0  0  0  0  0  0
   22.3572   -5.7683  -14.7428 C   0  0  0  0  0  0  0  0  0  0  0  0
   22.3044   -4.4919  -14.7578 O   0  0  0  0  0  0  0  0  0  0  0  0
   22.3664   -6.3548  -13.5143 O   0  0  0  0  0  0  0  0  0  0  0  0
  2  1  1  0
  3  2  1  0
  3  5  1  0
  3  4  1  1
  5  6  2  0
  5 12  1  0
  7  8  1  0
  8  9  1  0
 11 10  1  6
 10  9  1  0
 11 13  1  0
 12 11  1  0
 13 20  1  0
 14 13  2  0
 16 15  1  0
 17 16  2  0
 18 16  1  0
 19 21  1  0
 19 18  1  1
 20 19  1  0
 21 23  1  0
 22 21  2  0
M  END
$$$$
