SMN.pdb
     RDKit          3D

 23 22  0  0  1  0  0  0  0  0999 V2000
   42.4383   -9.2975   -4.5297 O   0  0  0  0  0  0  0  0  0  0  0  0
   42.6370  -10.6717   -4.6653 C   0  0  0  0  0  0  0  0  0  0  0  0
   43.3955  -10.8981   -5.9630 C   0  0  2  0  0  0  0  0  0  0  0  0
   44.7407  -10.4122   -5.8226 N   0  0  0  0  0  0  0  0  0  0  0  0
   42.6877  -10.2533   -7.1088 C   0  0  0  0  0  0  0  0  0  0  0  0
   43.1896   -9.2207   -7.6494 O   0  0  0  0  0  0  0  0  0  0  0  0
   36.5995  -11.2421  -12.1784 C   0  0  0  0  0  0  0  0  0  0  0  0
   37.6147  -11.9559  -10.8435 S   0  0  0  0  0  0  0  0  0  0  0  0
   38.7814  -10.7242  -10.2710 C   0  0  0  0  0  0  0  0  0  0  0  0
   39.7161  -11.1130   -9.2045 C   0  0  0  0  0  0  0  0  0  0  0  0
   40.6933  -10.1373   -8.6589 C   0  0  2  0  0  0  0  0  0  0  0  0
   41.4736  -10.7885   -7.5842 N   0  0  0  0  0  0  0  0  0  0  0  0
   40.0848   -8.9093   -8.1731 C   0  0  0  0  0  0  0  0  0  0  0  0
   39.7322   -8.8220   -6.9755 O   0  0  0  0  0  0  0  0  0  0  0  0
   40.3076   -3.4640   -6.8009 N   0  0  0  0  0  0  0  0  0  0  0  0
   39.6200   -4.6973   -6.8298 C   0  0  0  0  0  0  0  0  0  0  0  0
   38.4589   -4.6892   -6.3013 O   0  0  0  0  0  0  0  0  0  0  0  0
   40.1943   -5.9087   -7.4274 C   0  0  0  0  0  0  0  0  0  0  0  0
   39.2813   -6.5638   -8.4119 C   0  0  2  0  0  0  0  0  0  0  0  0
   39.8535   -7.7609   -8.9876 N   0  0  0  0  0  0  0  0  0  0  0  0
   38.7613   -5.6860   -9.4651 C   0  0  0  0  0  0  0  0  0  0  0  0
   38.9554   -6.0339  -10.6790 O   0  0  0  0  0  0  0  0  0  0  0  0
   38.0836   -4.5207   -9.2751 O   0  0  0  0  0  0  0  0  0  0  0  0
  2  1  1  0
  3  2  1  0
  3  5  1  0
  3  4  1  1
  5  6  2  0
  5 12  1  0
  7  8  1  0
  8  9  1  0
 11 10  1  1
 10  9  1  0
 11 13  1  0
 12 11  1  0
 13 20  1  0
 14 13  2  0
 16 15  1  0
 17 16  2  0
 18 16  1  0
 19 21  1  0
 19 18  1  6
 20 19  1  0
 21 23  1  0
 22 21  2  0
M  END
$$$$
