SMN.pdb
     RDKit          3D

 23 22  0  0  1  0  0  0  0  0999 V2000
   26.7730  -18.5892  -16.0258 O   0  0  0  0  0  0  0  0  0  0  0  0
   27.7878  -18.5743  -15.0686 C   0  0  0  0  0  0  0  0  0  0  0  0
   28.2095  -20.0146  -14.8271 C   0  0  2  0  0  0  0  0  0  0  0  0
   28.5199  -20.6400  -16.0833 N   0  0  0  0  0  0  0  0  0  0  0  0
   27.1503  -20.7581  -14.0823 C   0  0  0  0  0  0  0  0  0  0  0  0
   26.6034  -21.7690  -14.6204 O   0  0  0  0  0  0  0  0  0  0  0  0
   26.8235  -20.1928   -7.6435 C   0  0  0  0  0  0  0  0  0  0  0  0
   25.0842  -20.6738   -7.8993 S   0  0  0  0  0  0  0  0  0  0  0  0
   24.8558  -21.1632   -9.6065 C   0  0  0  0  0  0  0  0  0  0  0  0
   25.8007  -20.6334  -10.6008 C   0  0  0  0  0  0  0  0  0  0  0  0
   25.6986  -21.0257  -12.0293 C   0  0  2  0  0  0  0  0  0  0  0  0
   26.7632  -20.3396  -12.7933 N   0  0  0  0  0  0  0  0  0  0  0  0
   24.3964  -20.7573  -12.6180 C   0  0  0  0  0  0  0  0  0  0  0  0
   24.1173  -19.6016  -13.0087 O   0  0  0  0  0  0  0  0  0  0  0  0
   19.3674  -22.9772  -15.2363 N   0  0  0  0  0  0  0  0  0  0  0  0
   20.3783  -22.0140  -15.0243 C   0  0  0  0  0  0  0  0  0  0  0  0
   20.0827  -20.8238  -15.3762 O   0  0  0  0  0  0  0  0  0  0  0  0
   21.6809  -22.3509  -14.4376 C   0  0  0  0  0  0  0  0  0  0  0  0
   22.1100  -21.3904  -13.3770 C   0  0  2  0  0  0  0  0  0  0  0  0
   23.3822  -21.7464  -12.7881 N   0  0  0  0  0  0  0  0  0  0  0  0
   21.1168  -21.1261  -12.3313 C   0  0  0  0  0  0  0  0  0  0  0  0
   20.1175  -20.3893  -12.6326 O   0  0  0  0  0  0  0  0  0  0  0  0
   21.1546  -21.5937  -11.0534 O   0  0  0  0  0  0  0  0  0  0  0  0
  2  1  1  0
  3  2  1  0
  3  5  1  0
  3  4  1  6
  5  6  2  0
  5 12  1  0
  7  8  1  0
  8  9  1  0
 11 10  1  1
 10  9  1  0
 11 13  1  0
 12 11  1  0
 13 20  1  0
 14 13  2  0
 16 15  1  0
 17 16  2  0
 18 16  1  0
 19 21  1  0
 19 18  1  6
 20 19  1  0
 21 23  1  0
 22 21  2  0
M  END
$$$$
