SMN.pdb
     RDKit          3D

 23 22  0  0  1  0  0  0  0  0999 V2000
   15.0435  -10.5731  -17.8679 O   0  0  0  0  0  0  0  0  0  0  0  0
   15.3997  -10.4483  -16.5248 C   0  0  0  0  0  0  0  0  0  0  0  0
   16.8902  -10.7274  -16.4193 C   0  0  2  0  0  0  0  0  0  0  0  0
   17.1383  -12.1158  -16.6954 N   0  0  0  0  0  0  0  0  0  0  0  0
   17.4100  -10.3253  -15.0785 C   0  0  0  0  0  0  0  0  0  0  0  0
   17.2185  -11.0873  -14.0820 O   0  0  0  0  0  0  0  0  0  0  0  0
   22.6172   -9.5104  -12.6786 C   0  0  0  0  0  0  0  0  0  0  0  0
   21.5892   -8.3907  -11.6727 S   0  0  0  0  0  0  0  0  0  0  0  0
   20.6637   -7.3093  -12.7591 C   0  0  0  0  0  0  0  0  0  0  0  0
   19.9278   -7.9271  -13.8723 C   0  0  0  0  0  0  0  0  0  0  0  0
   18.6782   -8.6902  -13.6253 C   0  0  2  0  0  0  0  0  0  0  0  0
   18.1071   -9.1101  -14.9235 N   0  0  0  0  0  0  0  0  0  0  0  0
   17.6906   -7.9594  -12.8475 C   0  0  0  0  0  0  0  0  0  0  0  0
   16.9621   -7.1105  -13.4085 O   0  0  0  0  0  0  0  0  0  0  0  0
   14.9564   -7.2379   -7.3261 N   0  0  0  0  0  0  0  0  0  0  0  0
   15.0736   -7.1929   -8.7328 C   0  0  0  0  0  0  0  0  0  0  0  0
   14.2688   -6.3990   -9.3240 O   0  0  0  0  0  0  0  0  0  0  0  0
   16.0533   -7.9992   -9.4707 C   0  0  0  0  0  0  0  0  0  0  0  0
   16.4935   -7.3599  -10.7471 C   0  0  2  0  0  0  0  0  0  0  0  0
   17.4851   -8.1458  -11.4479 N   0  0  0  0  0  0  0  0  0  0  0  0
   16.9324   -5.9656  -10.6312 C   0  0  0  0  0  0  0  0  0  0  0  0
   16.0725   -5.1010  -10.2500 O   0  0  0  0  0  0  0  0  0  0  0  0
   18.1823   -5.4944  -10.8937 O   0  0  0  0  0  0  0  0  0  0  0  0
  2  1  1  0
  3  2  1  0
  3  5  1  0
  3  4  1  1
  5  6  2  0
  5 12  1  0
  7  8  1  0
  8  9  1  0
 11 10  1  6
 10  9  1  0
 11 13  1  0
 12 11  1  0
 13 20  1  0
 14 13  2  0
 16 15  1  0
 17 16  2  0
 18 16  1  0
 19 21  1  0
 19 18  1  1
 20 19  1  0
 21 23  1  0
 22 21  2  0
M  END
$$$$
