RHW.pdb
     RDKit          3D

 36 38  0  0  1  0  0  0  0  0999 V2000
   34.5798  -25.9840  -16.7098 N   0  0  0  0  0  0  0  0  0  0  0  0
   33.2391  -25.6001  -16.4829 C   0  0  0  0  0  0  0  0  0  0  0  0
   32.8395  -25.3433  -15.2917 N   0  0  0  0  0  0  0  0  0  0  0  0
   32.3460  -25.5044  -17.5717 N   0  0  0  0  0  0  0  0  0  0  0  0
   30.9731  -25.0266  -17.3158 C   0  0  0  0  0  0  0  0  0  0  0  0
   30.8985  -23.5675  -17.5880 C   0  0  0  0  0  0  0  0  0  0  0  0
   30.2932  -22.7917  -16.4864 C   0  0  0  0  0  0  0  0  0  0  0  0
   28.9173  -23.1303  -16.0616 C   0  0  2  0  0  0  0  0  0  0  0  0
   27.9443  -23.3924  -17.0690 N   0  0  0  0  0  0  0  0  0  0  0  0
   28.4159  -22.0740  -15.1252 C   0  0  0  0  0  0  0  0  0  0  0  0
   29.2545  -21.5836  -14.3587 O   0  0  0  0  0  0  0  0  0  0  0  0
   31.8435  -25.0573  -15.1030 N   0  0  0  0  0  0  0  0  0  0  0  0
   27.0613  -21.6310  -15.0719 C   0  0  1  0  0  0  0  0  0  0  0  0
   26.5040  -20.7127  -14.1454 C   0  0  0  0  0  0  0  0  0  0  0  0
   25.5954  -19.6415  -14.7616 C   0  0  0  0  0  0  0  0  0  0  0  0
   26.4165  -18.7092  -15.5713 C   0  0  0  0  0  0  0  0  0  0  0  0
   27.7328  -18.6969  -15.8035 N   0  0  0  0  0  0  0  0  0  0  0  0
   28.0018  -17.6255  -16.6185 C   0  0  0  0  0  0  0  0  0  0  0  0
   26.8530  -16.9838  -16.8860 N   0  0  0  0  0  0  0  0  0  0  0  0
   25.8756  -17.6336  -16.2534 C   0  0  0  0  0  0  0  0  0  0  0  0
   26.1491  -21.1599  -12.8157 O   0  0  0  0  0  0  0  0  0  0  0  0
   26.0033  -22.4248  -12.6057 N   0  0  0  0  0  0  0  0  0  0  0  0
   25.9412  -20.3470  -11.6976 C   0  0  1  0  0  0  0  0  0  0  0  0
   25.6866  -20.7514  -10.3268 C   0  0  0  0  0  0  0  0  0  0  0  0
   26.9106  -20.5763   -9.4689 C   0  0  0  0  0  0  0  0  0  0  0  0
   26.5520  -20.5443   -8.0369 C   0  0  0  0  0  0  0  0  0  0  0  0
   25.4217  -20.9983   -7.3976 N   0  0  0  0  0  0  0  0  0  0  0  0
   25.5256  -20.7553   -6.0715 C   0  0  0  0  0  0  0  0  0  0  0  0
   26.7015  -20.1464   -5.7986 C   0  0  0  0  0  0  0  0  0  0  0  0
   27.2873  -19.6974   -4.6195 C   0  0  0  0  0  0  0  0  0  0  0  0
   28.5253  -19.1081   -4.6256 C   0  0  0  0  0  0  0  0  0  0  0  0
   29.1751  -18.9728   -5.8450 C   0  0  0  0  0  0  0  0  0  0  0  0
   28.5933  -19.4180   -7.0238 C   0  0  0  0  0  0  0  0  0  0  0  0
   27.3534  -20.0075   -7.0101 C   0  0  0  0  0  0  0  0  0  0  0  0
   24.6273  -19.8559   -9.7999 O   0  0  0  0  0  0  0  0  0  0  0  0
   24.3426  -18.7816  -10.3354 O   0  0  0  0  0  0  0  0  0  0  0  0
  2  1  1  0
  3  2  2  0
  4  2  1  0
  5  4  1  0
  6  7  1  0
  6  5  1  0
  8  7  1  0
  8 10  1  0
  8  9  1  6
 10 11  2  0
 12 13  1  0
 12 10  1  0
 13 20  1  0
 13 14  1  1
 15 14  1  0
 16 15  2  0
 17 18  1  0
 17 16  1  0
 18 19  2  0
 19 15  1  0
 20 22  1  0
 21 20  2  0
 22 23  1  0
 23 24  1  1
 24 25  1  0
 25 33  1  0
 26 25  2  0
 26 27  1  0
 27 28  1  0
 28 29  2  0
 29 30  1  0
 31 30  2  0
 32 31  1  0
 33 32  2  0
 33 28  1  0
 34 23  1  0
 35 34  2  0
 36 34  1  0
M  END
$$$$
