RHW.pdb
     RDKit          3D

 36 38  0  0  1  0  0  0  0  0999 V2000
   20.9377  -27.4581  -13.4573 N   0  0  0  0  0  0  0  0  0  0  0  0
   21.5547  -27.9879  -14.6128 C   0  0  0  0  0  0  0  0  0  0  0  0
   21.2644  -29.1730  -15.0073 N   0  0  0  0  0  0  0  0  0  0  0  0
   22.4909  -27.2076  -15.3249 N   0  0  0  0  0  0  0  0  0  0  0  0
   22.6627  -25.7923  -14.9431 C   0  0  0  0  0  0  0  0  0  0  0  0
   21.5295  -24.9944  -15.4796 C   0  0  0  0  0  0  0  0  0  0  0  0
   21.6385  -23.5490  -15.1952 C   0  0  0  0  0  0  0  0  0  0  0  0
   21.6744  -23.1113  -13.7827 C   0  0  2  0  0  0  0  0  0  0  0  0
   20.4387  -22.9699  -13.0874 N   0  0  0  0  0  0  0  0  0  0  0  0
   22.4707  -21.8468  -13.6780 C   0  0  0  0  0  0  0  0  0  0  0  0
   21.8190  -20.7966  -13.6185 O   0  0  0  0  0  0  0  0  0  0  0  0
   21.8057  -29.6344  -15.7842 N   0  0  0  0  0  0  0  0  0  0  0  0
   23.8960  -21.7996  -13.6552 C   0  0  2  0  0  0  0  0  0  0  0  0
   24.7071  -20.6358  -13.6555 C   0  0  0  0  0  0  0  0  0  0  0  0
   26.0006  -20.7475  -12.8387 C   0  0  0  0  0  0  0  0  0  0  0  0
   25.6655  -20.7985  -11.3950 C   0  0  0  0  0  0  0  0  0  0  0  0
   24.4822  -20.7096  -10.7797 N   0  0  0  0  0  0  0  0  0  0  0  0
   24.7064  -20.8137   -9.4293 C   0  0  0  0  0  0  0  0  0  0  0  0
   26.0235  -20.9674   -9.2180 N   0  0  0  0  0  0  0  0  0  0  0  0
   26.6229  -20.9599  -10.4090 C   0  0  0  0  0  0  0  0  0  0  0  0
   24.7715  -19.8054  -14.8388 O   0  0  0  0  0  0  0  0  0  0  0  0
   25.0188  -20.3643  -15.9754 N   0  0  0  0  0  0  0  0  0  0  0  0
   24.5886  -18.4204  -14.8883 C   0  0  1  0  0  0  0  0  0  0  0  0
   24.5341  -17.5619  -16.0577 C   0  0  0  0  0  0  0  0  0  0  0  0
   23.5830  -16.4143  -15.8496 C   0  0  0  0  0  0  0  0  0  0  0  0
   22.1889  -16.8314  -16.1001 C   0  0  0  0  0  0  0  0  0  0  0  0
   21.4765  -17.8903  -15.5867 N   0  0  0  0  0  0  0  0  0  0  0  0
   20.2266  -17.8849  -16.1025 C   0  0  0  0  0  0  0  0  0  0  0  0
   20.0768  -16.8455  -16.9541 C   0  0  0  0  0  0  0  0  0  0  0  0
   19.0101  -16.3961  -17.7257 C   0  0  0  0  0  0  0  0  0  0  0  0
   19.1294  -15.2807  -18.5143 C   0  0  0  0  0  0  0  0  0  0  0  0
   20.3477  -14.6152  -18.5193 C   0  0  0  0  0  0  0  0  0  0  0  0
   21.4148  -15.0614  -17.7523 C   0  0  0  0  0  0  0  0  0  0  0  0
   21.2882  -16.1788  -16.9646 C   0  0  0  0  0  0  0  0  0  0  0  0
   25.8942  -16.9997  -16.2468 O   0  0  0  0  0  0  0  0  0  0  0  0
   26.6952  -16.8788  -15.3163 O   0  0  0  0  0  0  0  0  0  0  0  0
  2  1  1  0
  3  2  2  0
  4  2  1  0
  5  4  1  0
  6  7  1  0
  6  5  1  0
  8  7  1  0
  8 10  1  0
  8  9  1  6
 10 11  2  0
 12 13  1  0
 12 10  1  0
 13 20  1  0
 13 14  1  1
 15 14  1  0
 16 15  2  0
 17 18  1  0
 17 16  1  0
 18 19  2  0
 19 15  1  0
 20 22  1  0
 21 20  2  0
 22 23  1  0
 23 24  1  6
 24 25  1  0
 25 33  1  0
 26 25  2  0
 26 27  1  0
 27 28  1  0
 28 29  2  0
 29 30  1  0
 31 30  2  0
 32 31  1  0
 33 32  2  0
 33 28  1  0
 34 23  1  0
 35 34  2  0
 36 34  1  0
M  END
$$$$
