RHW.pdb
     RDKit          3D

 36 38  0  0  1  0  0  0  0  0999 V2000
   26.2505  -29.5573  -15.8241 N   0  0  0  0  0  0  0  0  0  0  0  0
   27.6426  -29.7864  -15.9010 C   0  0  0  0  0  0  0  0  0  0  0  0
   28.1010  -30.9805  -15.8081 N   0  0  0  0  0  0  0  0  0  0  0  0
   28.5213  -28.6960  -16.0772 N   0  0  0  0  0  0  0  0  0  0  0  0
   27.9581  -27.3317  -16.0809 C   0  0  0  0  0  0  0  0  0  0  0  0
   27.3389  -27.0560  -17.4034 C   0  0  0  0  0  0  0  0  0  0  0  0
   26.7899  -25.6901  -17.5249 C   0  0  0  0  0  0  0  0  0  0  0  0
   27.7302  -24.5732  -17.7629 C   0  0  2  0  0  0  0  0  0  0  0  0
   29.0413  -24.8813  -18.2283 N   0  0  0  0  0  0  0  0  0  0  0  0
   27.8083  -23.7231  -16.5320 C   0  0  0  0  0  0  0  0  0  0  0  0
   28.9363  -23.5695  -16.0472 O   0  0  0  0  0  0  0  0  0  0  0  0
   29.1366  -31.1689  -15.8464 N   0  0  0  0  0  0  0  0  0  0  0  0
   26.6795  -23.1126  -15.9096 C   0  0  1  0  0  0  0  0  0  0  0  0
   26.5479  -21.7495  -15.5394 C   0  0  0  0  0  0  0  0  0  0  0  0
   27.2576  -20.7550  -16.4667 C   0  0  0  0  0  0  0  0  0  0  0  0
   27.1740  -19.3947  -15.8822 C   0  0  0  0  0  0  0  0  0  0  0  0
   27.8255  -18.8591  -14.8452 N   0  0  0  0  0  0  0  0  0  0  0  0
   27.3918  -17.5642  -14.7049 C   0  0  0  0  0  0  0  0  0  0  0  0
   26.4778  -17.3068  -15.6544 N   0  0  0  0  0  0  0  0  0  0  0  0
   26.3337  -18.4151  -16.3813 C   0  0  0  0  0  0  0  0  0  0  0  0
   25.3202  -21.2861  -14.9295 O   0  0  0  0  0  0  0  0  0  0  0  0
   24.2080  -21.4712  -15.5573 N   0  0  0  0  0  0  0  0  0  0  0  0
   25.2022  -20.6403  -13.6953 C   0  0  1  0  0  0  0  0  0  0  0  0
   24.0032  -20.1184  -13.0647 C   0  0  0  0  0  0  0  0  0  0  0  0
   24.3417  -19.1381  -11.9740 C   0  0  0  0  0  0  0  0  0  0  0  0
   24.4966  -19.8246  -10.6760 C   0  0  0  0  0  0  0  0  0  0  0  0
   23.5477  -20.3850   -9.8527 N   0  0  0  0  0  0  0  0  0  0  0  0
   24.1498  -20.9042   -8.7590 C   0  0  0  0  0  0  0  0  0  0  0  0
   25.4859  -20.7075   -8.8233 C   0  0  0  0  0  0  0  0  0  0  0  0
   26.5372  -21.0443   -7.9769 C   0  0  0  0  0  0  0  0  0  0  0  0
   27.8316  -20.7238   -8.2963 C   0  0  0  0  0  0  0  0  0  0  0  0
   28.0597  -20.0522   -9.4897 C   0  0  0  0  0  0  0  0  0  0  0  0
   27.0134  -19.7129  -10.3360 C   0  0  0  0  0  0  0  0  0  0  0  0
   25.7197  -20.0373  -10.0101 C   0  0  0  0  0  0  0  0  0  0  0  0
   23.2432  -19.3924  -14.1120 O   0  0  0  0  0  0  0  0  0  0  0  0
   23.7716  -18.9834  -15.1490 O   0  0  0  0  0  0  0  0  0  0  0  0
  2  1  1  0
  3  2  2  0
  4  2  1  0
  5  4  1  0
  6  7  1  0
  6  5  1  0
  8  7  1  0
  8 10  1  0
  8  9  1  1
 10 11  2  0
 12 13  1  0
 12 10  1  0
 13 20  1  0
 13 14  1  1
 15 14  1  0
 16 15  2  0
 17 18  1  0
 17 16  1  0
 18 19  2  0
 19 15  1  0
 20 22  1  0
 21 20  2  0
 22 23  1  0
 23 24  1  6
 24 25  1  0
 25 33  1  0
 26 25  2  0
 26 27  1  0
 27 28  1  0
 28 29  2  0
 29 30  1  0
 31 30  2  0
 32 31  1  0
 33 32  2  0
 33 28  1  0
 34 23  1  0
 35 34  2  0
 36 34  1  0
M  END
$$$$
