RHW.pdb
     RDKit          3D

 36 38  0  0  1  0  0  0  0  0999 V2000
   32.7453  -25.5588  -15.6731 N   0  0  0  0  0  0  0  0  0  0  0  0
   32.6060  -26.2467  -16.8994 C   0  0  0  0  0  0  0  0  0  0  0  0
   32.8227  -27.5095  -16.9533 N   0  0  0  0  0  0  0  0  0  0  0  0
   32.2308  -25.5365  -18.0600 N   0  0  0  0  0  0  0  0  0  0  0  0
   31.0613  -24.6389  -17.9886 C   0  0  0  0  0  0  0  0  0  0  0  0
   31.4989  -23.2916  -17.5395 C   0  0  0  0  0  0  0  0  0  0  0  0
   30.4014  -22.3048  -17.4773 C   0  0  0  0  0  0  0  0  0  0  0  0
   29.0662  -22.7654  -17.0375 C   0  0  2  0  0  0  0  0  0  0  0  0
   28.0417  -22.9021  -18.0182 N   0  0  0  0  0  0  0  0  0  0  0  0
   28.5899  -21.8964  -15.9141 C   0  0  0  0  0  0  0  0  0  0  0  0
   29.2817  -21.9049  -14.8883 O   0  0  0  0  0  0  0  0  0  0  0  0
   32.7752  -28.0298  -17.8679 N   0  0  0  0  0  0  0  0  0  0  0  0
   27.4107  -21.0958  -15.9679 C   0  0  1  0  0  0  0  0  0  0  0  0
   26.8739  -20.3034  -14.9209 C   0  0  0  0  0  0  0  0  0  0  0  0
   26.4755  -18.8785  -15.3258 C   0  0  0  0  0  0  0  0  0  0  0  0
   27.5988  -18.2450  -16.0578 C   0  0  0  0  0  0  0  0  0  0  0  0
   28.8188  -18.7130  -16.3397 N   0  0  0  0  0  0  0  0  0  0  0  0
   29.4869  -17.7389  -17.0392 C   0  0  0  0  0  0  0  0  0  0  0  0
   28.6778  -16.6775  -17.1867 N   0  0  0  0  0  0  0  0  0  0  0  0
   27.5210  -16.9711  -16.5925 C   0  0  0  0  0  0  0  0  0  0  0  0
   26.0643  -20.9229  -13.8939 O   0  0  0  0  0  0  0  0  0  0  0  0
   25.0614  -21.6522  -14.2512 N   0  0  0  0  0  0  0  0  0  0  0  0
   26.2555  -20.8158  -12.5132 C   0  0  1  0  0  0  0  0  0  0  0  0
   25.4421  -21.3720  -11.4471 C   0  0  0  0  0  0  0  0  0  0  0  0
   26.2859  -21.7681  -10.2656 C   0  0  0  0  0  0  0  0  0  0  0  0
   26.0623  -20.8550   -9.1269 C   0  0  0  0  0  0  0  0  0  0  0  0
   24.9100  -20.2343   -8.7036 N   0  0  0  0  0  0  0  0  0  0  0  0
   25.1778  -19.4826   -7.6121 C   0  0  0  0  0  0  0  0  0  0  0  0
   26.4865  -19.5803   -7.2868 C   0  0  0  0  0  0  0  0  0  0  0  0
   27.2567  -19.0237   -6.2709 C   0  0  0  0  0  0  0  0  0  0  0  0
   28.5946  -19.3042   -6.1645 C   0  0  0  0  0  0  0  0  0  0  0  0
   29.1563  -20.1599   -7.1024 C   0  0  0  0  0  0  0  0  0  0  0  0
   28.3916  -20.7159   -8.1184 C   0  0  0  0  0  0  0  0  0  0  0  0
   27.0523  -20.4309   -8.2188 C   0  0  0  0  0  0  0  0  0  0  0  0
   24.5131  -20.3019  -11.0071 O   0  0  0  0  0  0  0  0  0  0  0  0
   23.4861  -20.5398  -10.3663 O   0  0  0  0  0  0  0  0  0  0  0  0
  2  1  1  0
  3  2  2  0
  4  2  1  0
  5  4  1  0
  6  7  1  0
  6  5  1  0
  8  7  1  0
  8 10  1  0
  8  9  1  6
 10 11  2  0
 12 13  1  0
 12 10  1  0
 13 20  1  0
 13 14  1  1
 15 14  1  0
 16 15  2  0
 17 18  1  0
 17 16  1  0
 18 19  2  0
 19 15  1  0
 20 22  1  0
 21 20  2  0
 22 23  1  0
 23 24  1  1
 24 25  1  0
 25 33  1  0
 26 25  2  0
 26 27  1  0
 27 28  1  0
 28 29  2  0
 29 30  1  0
 31 30  2  0
 32 31  1  0
 33 32  2  0
 33 28  1  0
 34 23  1  0
 35 34  2  0
 36 34  1  0
M  END
$$$$
