RHW.pdb
     RDKit          3D

 36 38  0  0  1  0  0  0  0  0999 V2000
   30.9321  -21.6326  -20.0348 N   0  0  0  0  0  0  0  0  0  0  0  0
   29.9933  -21.3795  -21.0600 C   0  0  0  0  0  0  0  0  0  0  0  0
   29.6079  -22.3339  -21.8250 N   0  0  0  0  0  0  0  0  0  0  0  0
   29.4872  -20.0739  -21.2371 N   0  0  0  0  0  0  0  0  0  0  0  0
   29.9099  -19.0211  -20.2929 C   0  0  0  0  0  0  0  0  0  0  0  0
   28.7662  -18.6532  -19.4182 C   0  0  0  0  0  0  0  0  0  0  0  0
   29.0018  -18.9373  -17.9879 C   0  0  0  0  0  0  0  0  0  0  0  0
   28.2953  -20.0823  -17.3731 C   0  0  2  0  0  0  0  0  0  0  0  0
   27.4692  -20.8922  -18.2049 N   0  0  0  0  0  0  0  0  0  0  0  0
   27.5167  -19.6024  -16.1867 C   0  0  0  0  0  0  0  0  0  0  0  0
   28.0711  -18.7513  -15.4799 O   0  0  0  0  0  0  0  0  0  0  0  0
   28.9711  -22.1500  -22.6435 N   0  0  0  0  0  0  0  0  0  0  0  0
   26.2154  -20.0731  -15.8413 C   0  0  2  0  0  0  0  0  0  0  0  0
   25.5110  -19.8150  -14.6374 C   0  0  0  0  0  0  0  0  0  0  0  0
   24.1402  -19.1509  -14.8184 C   0  0  0  0  0  0  0  0  0  0  0  0
   24.2306  -18.1231  -15.8834 C   0  0  0  0  0  0  0  0  0  0  0  0
   25.2714  -17.7446  -16.6319 N   0  0  0  0  0  0  0  0  0  0  0  0
   24.8385  -16.7517  -17.4753 C   0  0  0  0  0  0  0  0  0  0  0  0
   23.5354  -16.5235  -17.2451 N   0  0  0  0  0  0  0  0  0  0  0  0
   23.1497  -17.3532  -16.2753 C   0  0  0  0  0  0  0  0  0  0  0  0
   25.6321  -20.7312  -13.5238 O   0  0  0  0  0  0  0  0  0  0  0  0
   25.3737  -21.9805  -13.7182 N   0  0  0  0  0  0  0  0  0  0  0  0
   26.0112  -20.4017  -12.2192 C   0  0  1  0  0  0  0  0  0  0  0  0
   25.7750  -21.1506  -10.9981 C   0  0  0  0  0  0  0  0  0  0  0  0
   26.9555  -21.0665  -10.0683 C   0  0  0  0  0  0  0  0  0  0  0  0
   26.5310  -20.6741   -8.7097 C   0  0  0  0  0  0  0  0  0  0  0  0
   25.3278  -20.8619   -8.0699 N   0  0  0  0  0  0  0  0  0  0  0  0
   25.3906  -20.3324   -6.8273 C   0  0  0  0  0  0  0  0  0  0  0  0
   26.6100  -19.7899   -6.6114 C   0  0  0  0  0  0  0  0  0  0  0  0
   27.1808  -19.1395   -5.5223 C   0  0  0  0  0  0  0  0  0  0  0  0
   28.4739  -18.6856   -5.5688 C   0  0  0  0  0  0  0  0  0  0  0  0
   29.1947  -18.8946   -6.7367 C   0  0  0  0  0  0  0  0  0  0  0  0
   28.6283  -19.5415   -7.8261 C   0  0  0  0  0  0  0  0  0  0  0  0
   27.3331  -19.9937   -7.7724 C   0  0  0  0  0  0  0  0  0  0  0  0
   24.6143  -20.5213  -10.3210 O   0  0  0  0  0  0  0  0  0  0  0  0
   24.1578  -19.4293  -10.6690 O   0  0  0  0  0  0  0  0  0  0  0  0
  2  1  1  0
  3  2  2  0
  4  2  1  0
  5  4  1  0
  6  7  1  0
  6  5  1  0
  8  7  1  0
  8 10  1  0
  8  9  1  6
 10 11  2  0
 12 13  1  0
 12 10  1  0
 13 20  1  0
 13 14  1  1
 15 14  1  0
 16 15  2  0
 17 18  1  0
 17 16  1  0
 18 19  2  0
 19 15  1  0
 20 22  1  0
 21 20  2  0
 22 23  1  0
 23 24  1  1
 24 25  1  0
 25 33  1  0
 26 25  2  0
 26 27  1  0
 27 28  1  0
 28 29  2  0
 29 30  1  0
 31 30  2  0
 32 31  1  0
 33 32  2  0
 33 28  1  0
 34 23  1  0
 35 34  2  0
 36 34  1  0
M  END
$$$$
