RHW.pdb
     RDKit          3D

 36 38  0  0  1  0  0  0  0  0999 V2000
   29.1757  -28.1379  -17.7738 N   0  0  0  0  0  0  0  0  0  0  0  0
   27.8048  -27.8389  -17.6076 C   0  0  0  0  0  0  0  0  0  0  0  0
   26.9580  -28.7877  -17.4424 N   0  0  0  0  0  0  0  0  0  0  0  0
   27.3757  -26.4944  -17.6275 N   0  0  0  0  0  0  0  0  0  0  0  0
   28.3079  -25.4654  -18.1283 C   0  0  0  0  0  0  0  0  0  0  0  0
   29.4042  -25.2705  -17.1440 C   0  0  0  0  0  0  0  0  0  0  0  0
   29.2131  -24.0928  -16.2731 C   0  0  0  0  0  0  0  0  0  0  0  0
   29.1125  -22.7596  -16.9060 C   0  0  2  0  0  0  0  0  0  0  0  0
   30.2283  -22.2790  -17.6505 N   0  0  0  0  0  0  0  0  0  0  0  0
   28.7115  -21.7518  -15.8728 C   0  0  0  0  0  0  0  0  0  0  0  0
   29.4353  -20.7528  -15.7771 O   0  0  0  0  0  0  0  0  0  0  0  0
   25.9470  -28.5821  -17.2301 N   0  0  0  0  0  0  0  0  0  0  0  0
   27.5789  -21.8918  -15.0173 C   0  0  2  0  0  0  0  0  0  0  0  0
   27.1048  -20.9442  -14.0741 C   0  0  0  0  0  0  0  0  0  0  0  0
   27.1878  -19.4813  -14.5279 C   0  0  0  0  0  0  0  0  0  0  0  0
   26.1589  -19.2313  -15.5661 C   0  0  0  0  0  0  0  0  0  0  0  0
   25.2699  -20.0627  -16.1185 N   0  0  0  0  0  0  0  0  0  0  0  0
   24.5409  -19.3446  -17.0335 C   0  0  0  0  0  0  0  0  0  0  0  0
   24.9812  -18.0761  -17.0407 N   0  0  0  0  0  0  0  0  0  0  0  0
   25.9696  -17.9911  -16.1499 C   0  0  0  0  0  0  0  0  0  0  0  0
   25.9906  -21.2816  -13.2147 O   0  0  0  0  0  0  0  0  0  0  0  0
   24.9064  -21.7294  -13.7527 N   0  0  0  0  0  0  0  0  0  0  0  0
   25.9584  -21.1736  -11.8213 C   0  0  2  0  0  0  0  0  0  0  0  0
   25.0005  -21.7521  -10.8966 C   0  0  0  0  0  0  0  0  0  0  0  0
   25.6164  -21.9788   -9.5422 C   0  0  0  0  0  0  0  0  0  0  0  0
   26.0273  -20.7005   -8.9280 C   0  0  0  0  0  0  0  0  0  0  0  0
   25.3056  -19.5489   -8.7152 N   0  0  0  0  0  0  0  0  0  0  0  0
   26.0949  -18.6257   -8.1211 C   0  0  0  0  0  0  0  0  0  0  0  0
   27.3355  -19.1267   -7.9269 C   0  0  0  0  0  0  0  0  0  0  0  0
   28.4942  -18.6020   -7.3636 C   0  0  0  0  0  0  0  0  0  0  0  0
   29.6412  -19.3491   -7.2827 C   0  0  0  0  0  0  0  0  0  0  0  0
   29.6100  -20.6444   -7.7812 C   0  0  0  0  0  0  0  0  0  0  0  0
   28.4565  -21.1709   -8.3455 C   0  0  0  0  0  0  0  0  0  0  0  0
   27.3115  -20.4173   -8.4229 C   0  0  0  0  0  0  0  0  0  0  0  0
   23.9006  -20.7686  -10.7396 O   0  0  0  0  0  0  0  0  0  0  0  0
   24.0194  -19.5854  -11.0681 O   0  0  0  0  0  0  0  0  0  0  0  0
  2  1  1  0
  3  2  2  0
  4  2  1  0
  5  4  1  0
  6  7  1  0
  6  5  1  0
  8  7  1  0
  8 10  1  0
  8  9  1  1
 10 11  2  0
 12 13  1  0
 12 10  1  0
 13 20  1  0
 13 14  1  6
 15 14  1  0
 16 15  2  0
 17 18  1  0
 17 16  1  0
 18 19  2  0
 19 15  1  0
 20 22  1  0
 21 20  2  0
 22 23  1  0
 23 24  1  6
 24 25  1  0
 25 33  1  0
 26 25  2  0
 26 27  1  0
 27 28  1  0
 28 29  2  0
 29 30  1  0
 31 30  2  0
 32 31  1  0
 33 32  2  0
 33 28  1  0
 34 23  1  0
 35 34  2  0
 36 34  1  0
M  END
$$$$
