RHW.pdb
     RDKit          3D

 36 38  0  0  1  0  0  0  0  0999 V2000
   28.8928  -17.5297  -22.4467 N   0  0  0  0  0  0  0  0  0  0  0  0
   30.0530  -18.3361  -22.4325 C   0  0  0  0  0  0  0  0  0  0  0  0
   31.1184  -17.9354  -23.0233 N   0  0  0  0  0  0  0  0  0  0  0  0
   30.0300  -19.5815  -21.7687 N   0  0  0  0  0  0  0  0  0  0  0  0
   28.7726  -20.0147  -21.1285 C   0  0  0  0  0  0  0  0  0  0  0  0
   28.3559  -19.0030  -20.1227 C   0  0  0  0  0  0  0  0  0  0  0  0
   27.1091  -19.3551  -19.4131 C   0  0  0  0  0  0  0  0  0  0  0  0
   27.2023  -20.2148  -18.2129 C   0  0  2  0  0  0  0  0  0  0  0  0
   28.2568  -21.1709  -18.1468 N   0  0  0  0  0  0  0  0  0  0  0  0
   25.8835  -20.8876  -17.9844 C   0  0  0  0  0  0  0  0  0  0  0  0
   25.2034  -21.1094  -18.9940 O   0  0  0  0  0  0  0  0  0  0  0  0
   31.9867  -18.5314  -23.0398 N   0  0  0  0  0  0  0  0  0  0  0  0
   25.3893  -21.2615  -16.6998 C   0  0  1  0  0  0  0  0  0  0  0  0
   24.0913  -21.7480  -16.3980 C   0  0  0  0  0  0  0  0  0  0  0  0
   23.8448  -23.2139  -16.7764 C   0  0  0  0  0  0  0  0  0  0  0  0
   25.1030  -23.9809  -16.6108 C   0  0  0  0  0  0  0  0  0  0  0  0
   26.3263  -23.5686  -16.2639 N   0  0  0  0  0  0  0  0  0  0  0  0
   27.1485  -24.6678  -16.2525 C   0  0  0  0  0  0  0  0  0  0  0  0
   26.4304  -25.7511  -16.5901 N   0  0  0  0  0  0  0  0  0  0  0  0
   25.1792  -25.3478  -16.8122 C   0  0  0  0  0  0  0  0  0  0  0  0
   23.4013  -21.2704  -15.2191 O   0  0  0  0  0  0  0  0  0  0  0  0
   24.0856  -20.6837  -14.2956 N   0  0  0  0  0  0  0  0  0  0  0  0
   22.0313  -21.3770  -14.9626 C   0  0  1  0  0  0  0  0  0  0  0  0
   21.2689  -20.7742  -13.8842 C   0  0  0  0  0  0  0  0  0  0  0  0
   20.8448  -19.3726  -14.2315 C   0  0  0  0  0  0  0  0  0  0  0  0
   20.0650  -19.3519  -15.4852 C   0  0  0  0  0  0  0  0  0  0  0  0
   18.7643  -19.7305  -15.7244 N   0  0  0  0  0  0  0  0  0  0  0  0
   18.4721  -19.5390  -17.0306 C   0  0  0  0  0  0  0  0  0  0  0  0
   19.5466  -19.0393  -17.6816 C   0  0  0  0  0  0  0  0  0  0  0  0
   19.7680  -18.6685  -19.0039 C   0  0  0  0  0  0  0  0  0  0  0  0
   20.9809  -18.1695  -19.4040 C   0  0  0  0  0  0  0  0  0  0  0  0
   21.9807  -18.0470  -18.4486 C   0  0  0  0  0  0  0  0  0  0  0  0
   21.7643  -18.4174  -17.1287 C   0  0  0  0  0  0  0  0  0  0  0  0
   20.5471  -18.9160  -16.7351 C   0  0  0  0  0  0  0  0  0  0  0  0
   20.0434  -21.5923  -13.7092 O   0  0  0  0  0  0  0  0  0  0  0  0
   19.2591  -21.4170  -12.7733 O   0  0  0  0  0  0  0  0  0  0  0  0
  2  1  1  0
  3  2  2  0
  4  2  1  0
  5  4  1  0
  6  7  1  0
  6  5  1  0
  8  7  1  0
  8 10  1  0
  8  9  1  6
 10 11  2  0
 12 13  1  0
 12 10  1  0
 13 20  1  0
 13 14  1  6
 15 14  1  0
 16 15  2  0
 17 18  1  0
 17 16  1  0
 18 19  2  0
 19 15  1  0
 20 22  1  0
 21 20  2  0
 22 23  1  0
 23 24  1  1
 24 25  1  0
 25 33  1  0
 26 25  2  0
 26 27  1  0
 27 28  1  0
 28 29  2  0
 29 30  1  0
 31 30  2  0
 32 31  1  0
 33 32  2  0
 33 28  1  0
 34 23  1  0
 35 34  2  0
 36 34  1  0
M  END
$$$$
