RHW.pdb
     RDKit          3D

 36 38  0  0  1  0  0  0  0  0999 V2000
   34.7938  -24.7645  -16.3571 N   0  0  0  0  0  0  0  0  0  0  0  0
   34.2373  -25.8504  -15.6449 C   0  0  0  0  0  0  0  0  0  0  0  0
   34.8080  -26.9984  -15.6791 N   0  0  0  0  0  0  0  0  0  0  0  0
   33.0524  -25.6642  -14.9008 N   0  0  0  0  0  0  0  0  0  0  0  0
   31.8656  -25.1226  -15.5913 C   0  0  0  0  0  0  0  0  0  0  0  0
   32.1412  -23.7294  -16.0291 C   0  0  0  0  0  0  0  0  0  0  0  0
   31.1249  -22.7570  -15.5780 C   0  0  0  0  0  0  0  0  0  0  0  0
   29.7059  -23.1746  -15.5735 C   0  0  2  0  0  0  0  0  0  0  0  0
   29.1910  -23.8310  -16.7287 N   0  0  0  0  0  0  0  0  0  0  0  0
   28.8464  -21.9982  -15.2248 C   0  0  0  0  0  0  0  0  0  0  0  0
   29.0898  -20.9475  -15.8314 O   0  0  0  0  0  0  0  0  0  0  0  0
   34.4318  -27.8085  -15.1209 N   0  0  0  0  0  0  0  0  0  0  0  0
   27.8039  -22.0307  -14.2521 C   0  0  1  0  0  0  0  0  0  0  0  0
   26.9174  -20.9736  -13.9219 C   0  0  0  0  0  0  0  0  0  0  0  0
   26.3338  -20.2186  -15.1228 C   0  0  0  0  0  0  0  0  0  0  0  0
   25.3171  -19.2502  -14.6457 C   0  0  0  0  0  0  0  0  0  0  0  0
   25.2527  -18.5583  -13.5038 N   0  0  0  0  0  0  0  0  0  0  0  0
   24.1107  -17.7974  -13.5420 C   0  0  0  0  0  0  0  0  0  0  0  0
   23.4779  -18.0215  -14.7049 N   0  0  0  0  0  0  0  0  0  0  0  0
   24.2022  -18.9068  -15.3900 C   0  0  0  0  0  0  0  0  0  0  0  0
   26.0555  -21.0935  -12.7657 O   0  0  0  0  0  0  0  0  0  0  0  0
   24.8401  -21.4917  -12.9375 N   0  0  0  0  0  0  0  0  0  0  0  0
   26.4058  -20.8176  -11.4408 C   0  0  1  0  0  0  0  0  0  0  0  0
   25.5791  -20.9218  -10.2520 C   0  0  0  0  0  0  0  0  0  0  0  0
   26.0986  -20.0430   -9.1462 C   0  0  0  0  0  0  0  0  0  0  0  0
   27.5039  -20.3671   -8.8298 C   0  0  0  0  0  0  0  0  0  0  0  0
   28.4498  -21.0276   -9.5790 N   0  0  0  0  0  0  0  0  0  0  0  0
   29.6072  -21.0977   -8.8836 C   0  0  0  0  0  0  0  0  0  0  0  0
   29.4660  -20.4992   -7.6795 C   0  0  0  0  0  0  0  0  0  0  0  0
   30.3348  -20.2962   -6.6121 C   0  0  0  0  0  0  0  0  0  0  0  0
   29.9249  -19.6332   -5.4841 C   0  0  0  0  0  0  0  0  0  0  0  0
   28.6162  -19.1719   -5.4403 C   0  0  0  0  0  0  0  0  0  0  0  0
   27.7460  -19.3739   -6.5023 C   0  0  0  0  0  0  0  0  0  0  0  0
   28.1633  -20.0384   -7.6290 C   0  0  0  0  0  0  0  0  0  0  0  0
   24.2253  -20.4394  -10.6214 O   0  0  0  0  0  0  0  0  0  0  0  0
   24.0173  -19.7619  -11.6312 O   0  0  0  0  0  0  0  0  0  0  0  0
  2  1  1  0
  3  2  2  0
  4  2  1  0
  5  4  1  0
  6  7  1  0
  6  5  1  0
  8  7  1  0
  8 10  1  0
  8  9  1  6
 10 11  2  0
 12 13  1  0
 12 10  1  0
 13 20  1  0
 13 14  1  6
 15 14  1  0
 16 15  2  0
 17 18  1  0
 17 16  1  0
 18 19  2  0
 19 15  1  0
 20 22  1  0
 21 20  2  0
 22 23  1  0
 23 24  1  6
 24 25  1  0
 25 33  1  0
 26 25  2  0
 26 27  1  0
 27 28  1  0
 28 29  2  0
 29 30  1  0
 31 30  2  0
 32 31  1  0
 33 32  2  0
 33 28  1  0
 34 23  1  0
 35 34  2  0
 36 34  1  0
M  END
$$$$
