RHW.pdb
     RDKit          3D

 36 38  0  0  1  0  0  0  0  0999 V2000
   31.8048  -26.2313  -19.9662 N   0  0  0  0  0  0  0  0  0  0  0  0
   32.9948  -25.6564  -19.4663 C   0  0  0  0  0  0  0  0  0  0  0  0
   34.1257  -25.9794  -19.9775 N   0  0  0  0  0  0  0  0  0  0  0  0
   32.9303  -24.7302  -18.4032 N   0  0  0  0  0  0  0  0  0  0  0  0
   31.6138  -24.4383  -17.8031 C   0  0  0  0  0  0  0  0  0  0  0  0
   30.8266  -23.5838  -18.7298 C   0  0  0  0  0  0  0  0  0  0  0  0
   30.0475  -22.5322  -18.0450 C   0  0  0  0  0  0  0  0  0  0  0  0
   29.0321  -22.9443  -17.0514 C   0  0  2  0  0  0  0  0  0  0  0  0
   28.0331  -23.8775  -17.4533 N   0  0  0  0  0  0  0  0  0  0  0  0
   28.3898  -21.7237  -16.4669 C   0  0  0  0  0  0  0  0  0  0  0  0
   29.1282  -20.7438  -16.3068 O   0  0  0  0  0  0  0  0  0  0  0  0
   35.0097  -25.4784  -19.7001 N   0  0  0  0  0  0  0  0  0  0  0  0
   27.0163  -21.6461  -16.0903 C   0  0  1  0  0  0  0  0  0  0  0  0
   26.4892  -21.0379  -14.9221 C   0  0  0  0  0  0  0  0  0  0  0  0
   26.3070  -19.5174  -15.0092 C   0  0  0  0  0  0  0  0  0  0  0  0
   25.7209  -19.1689  -16.3261 C   0  0  0  0  0  0  0  0  0  0  0  0
   25.3965  -19.9504  -17.3608 N   0  0  0  0  0  0  0  0  0  0  0  0
   24.8877  -19.1439  -18.3483 C   0  0  0  0  0  0  0  0  0  0  0  0
   24.8991  -17.8716  -17.9190 N   0  0  0  0  0  0  0  0  0  0  0  0
   25.4054  -17.8704  -16.6856 C   0  0  0  0  0  0  0  0  0  0  0  0
   25.5208  -21.7497  -14.1162 O   0  0  0  0  0  0  0  0  0  0  0  0
   25.2779  -22.9875  -14.3887 N   0  0  0  0  0  0  0  0  0  0  0  0
   24.7970  -21.2280  -13.0401 C   0  0  1  0  0  0  0  0  0  0  0  0
   24.8646  -21.6104  -11.6412 C   0  0  0  0  0  0  0  0  0  0  0  0
   26.2515  -21.4194  -11.0888 C   0  0  0  0  0  0  0  0  0  0  0  0
   26.2122  -20.7015   -9.7991 C   0  0  0  0  0  0  0  0  0  0  0  0
   25.1520  -20.1229   -9.1406 N   0  0  0  0  0  0  0  0  0  0  0  0
   25.5860  -19.5719   -7.9846 C   0  0  0  0  0  0  0  0  0  0  0  0
   26.9170  -19.7644   -7.8457 C   0  0  0  0  0  0  0  0  0  0  0  0
   27.8300  -19.4094   -6.8581 C   0  0  0  0  0  0  0  0  0  0  0  0
   29.1546  -19.7466   -6.9665 C   0  0  0  0  0  0  0  0  0  0  0  0
   29.5559  -20.4522   -8.0927 C   0  0  0  0  0  0  0  0  0  0  0  0
   28.6484  -20.8068   -9.0811 C   0  0  0  0  0  0  0  0  0  0  0  0
   27.3234  -20.4661   -8.9658 C   0  0  0  0  0  0  0  0  0  0  0  0
   23.9491  -20.7080  -10.9001 O   0  0  0  0  0  0  0  0  0  0  0  0
   23.5612  -20.9543   -9.7552 O   0  0  0  0  0  0  0  0  0  0  0  0
  2  1  1  0
  3  2  2  0
  4  2  1  0
  5  4  1  0
  6  7  1  0
  6  5  1  0
  8  7  1  0
  8 10  1  0
  8  9  1  6
 10 11  2  0
 12 13  1  0
 12 10  1  0
 13 20  1  0
 13 14  1  1
 15 14  1  0
 16 15  2  0
 17 18  1  0
 17 16  1  0
 18 19  2  0
 19 15  1  0
 20 22  1  0
 21 20  2  0
 22 23  1  0
 23 24  1  1
 24 25  1  0
 25 33  1  0
 26 25  2  0
 26 27  1  0
 27 28  1  0
 28 29  2  0
 29 30  1  0
 31 30  2  0
 32 31  1  0
 33 32  2  0
 33 28  1  0
 34 23  1  0
 35 34  2  0
 36 34  1  0
M  END
$$$$
