RHW.pdb
     RDKit          3D

 36 38  0  0  1  0  0  0  0  0999 V2000
   31.7435  -26.6842  -18.2876 N   0  0  0  0  0  0  0  0  0  0  0  0
   32.4125  -25.7137  -17.5085 C   0  0  0  0  0  0  0  0  0  0  0  0
   33.6930  -25.7207  -17.4383 N   0  0  0  0  0  0  0  0  0  0  0  0
   31.6644  -24.7425  -16.8090 N   0  0  0  0  0  0  0  0  0  0  0  0
   30.2824  -24.4677  -17.2485 C   0  0  0  0  0  0  0  0  0  0  0  0
   30.1804  -23.0576  -17.7066 C   0  0  0  0  0  0  0  0  0  0  0  0
   29.4724  -22.1775  -16.7546 C   0  0  0  0  0  0  0  0  0  0  0  0
   28.1445  -22.6016  -16.2596 C   0  0  2  0  0  0  0  0  0  0  0  0
   27.0550  -22.6188  -17.1777 N   0  0  0  0  0  0  0  0  0  0  0  0
   27.7863  -21.7910  -15.0519 C   0  0  0  0  0  0  0  0  0  0  0  0
   28.7049  -21.5690  -14.2532 O   0  0  0  0  0  0  0  0  0  0  0  0
   34.2091  -25.0026  -16.8662 N   0  0  0  0  0  0  0  0  0  0  0  0
   26.4778  -21.2899  -14.7852 C   0  0  1  0  0  0  0  0  0  0  0  0
   26.0697  -20.5424  -13.6508 C   0  0  0  0  0  0  0  0  0  0  0  0
   24.9877  -19.4899  -13.9233 C   0  0  0  0  0  0  0  0  0  0  0  0
   23.6636  -20.1541  -13.9890 C   0  0  0  0  0  0  0  0  0  0  0  0
   23.3314  -21.4369  -13.8127 N   0  0  0  0  0  0  0  0  0  0  0  0
   21.9730  -21.5420  -13.9804 C   0  0  0  0  0  0  0  0  0  0  0  0
   21.4740  -20.3265  -14.2574 N   0  0  0  0  0  0  0  0  0  0  0  0
   22.4942  -19.4682  -14.2664 C   0  0  0  0  0  0  0  0  0  0  0  0
   26.0281  -21.1756  -12.3503 O   0  0  0  0  0  0  0  0  0  0  0  0
   25.7947  -22.4432  -12.2855 N   0  0  0  0  0  0  0  0  0  0  0  0
   26.2200  -20.5458  -11.1171 C   0  0  1  0  0  0  0  0  0  0  0  0
   26.0964  -21.1157   -9.7876 C   0  0  0  0  0  0  0  0  0  0  0  0
   27.3812  -20.9843   -9.0149 C   0  0  0  0  0  0  0  0  0  0  0  0
   27.1517  -20.3175   -7.7176 C   0  0  0  0  0  0  0  0  0  0  0  0
   26.0155  -19.7265   -7.2155 N   0  0  0  0  0  0  0  0  0  0  0  0
   26.2694  -19.2388   -5.9802 C   0  0  0  0  0  0  0  0  0  0  0  0
   27.5529  -19.4862   -5.6347 C   0  0  0  0  0  0  0  0  0  0  0  0
   28.3010  -19.2052   -4.4961 C   0  0  0  0  0  0  0  0  0  0  0  0
   29.6146  -19.5871   -4.4019 C   0  0  0  0  0  0  0  0  0  0  0  0
   30.1744  -20.2616   -5.4784 C   0  0  0  0  0  0  0  0  0  0  0  0
   29.4319  -20.5423   -6.6169 C   0  0  0  0  0  0  0  0  0  0  0  0
   28.1170  -20.1573   -6.7042 C   0  0  0  0  0  0  0  0  0  0  0  0
   25.0536  -20.3357   -9.0765 O   0  0  0  0  0  0  0  0  0  0  0  0
   24.7245  -19.1991   -9.4256 O   0  0  0  0  0  0  0  0  0  0  0  0
  2  1  1  0
  3  2  2  0
  4  2  1  0
  5  4  1  0
  6  7  1  0
  6  5  1  0
  8  7  1  0
  8 10  1  0
  8  9  1  6
 10 11  2  0
 12 13  1  0
 12 10  1  0
 13 20  1  0
 13 14  1  6
 15 14  1  0
 16 15  2  0
 17 18  1  0
 17 16  1  0
 18 19  2  0
 19 15  1  0
 20 22  1  0
 21 20  2  0
 22 23  1  0
 23 24  1  1
 24 25  1  0
 25 33  1  0
 26 25  2  0
 26 27  1  0
 27 28  1  0
 28 29  2  0
 29 30  1  0
 31 30  2  0
 32 31  1  0
 33 32  2  0
 33 28  1  0
 34 23  1  0
 35 34  2  0
 36 34  1  0
M  END
$$$$
