RHW.pdb
     RDKit          3D

 36 38  0  0  1  0  0  0  0  0999 V2000
   28.4233  -15.6135  -18.5619 N   0  0  0  0  0  0  0  0  0  0  0  0
   27.9573  -15.8095  -19.8813 C   0  0  0  0  0  0  0  0  0  0  0  0
   28.3234  -15.0103  -20.8150 N   0  0  0  0  0  0  0  0  0  0  0  0
   27.0875  -16.8851  -20.1625 N   0  0  0  0  0  0  0  0  0  0  0  0
   26.7870  -17.8474  -19.0845 C   0  0  0  0  0  0  0  0  0  0  0  0
   25.3375  -18.1748  -19.1040 C   0  0  0  0  0  0  0  0  0  0  0  0
   24.9383  -19.1485  -18.0674 C   0  0  0  0  0  0  0  0  0  0  0  0
   24.9622  -20.5876  -18.4085 C   0  0  2  0  0  0  0  0  0  0  0  0
   23.8251  -21.1465  -19.0605 N   0  0  0  0  0  0  0  0  0  0  0  0
   25.2921  -21.3804  -17.1810 C   0  0  0  0  0  0  0  0  0  0  0  0
   24.3404  -21.6589  -16.4409 O   0  0  0  0  0  0  0  0  0  0  0  0
   27.9304  -15.0965  -21.7884 N   0  0  0  0  0  0  0  0  0  0  0  0
   26.6088  -21.8047  -16.8339 C   0  0  2  0  0  0  0  0  0  0  0  0
   27.0385  -22.2944  -15.5738 C   0  0  0  0  0  0  0  0  0  0  0  0
   27.9154  -23.5516  -15.6320 C   0  0  0  0  0  0  0  0  0  0  0  0
   27.1874  -24.6237  -16.3528 C   0  0  0  0  0  0  0  0  0  0  0  0
   26.4697  -25.6478  -15.8808 N   0  0  0  0  0  0  0  0  0  0  0  0
   25.9999  -26.3582  -16.9575 C   0  0  0  0  0  0  0  0  0  0  0  0
   26.4276  -25.7700  -18.0863 N   0  0  0  0  0  0  0  0  0  0  0  0
   27.1544  -24.7093  -17.7335 C   0  0  0  0  0  0  0  0  0  0  0  0
   27.3286  -21.3653  -14.5030 O   0  0  0  0  0  0  0  0  0  0  0  0
   28.2238  -20.4563  -14.6968 N   0  0  0  0  0  0  0  0  0  0  0  0
   26.7261  -21.3426  -13.2418 C   0  0  1  0  0  0  0  0  0  0  0  0
   27.0776  -20.5288  -12.0920 C   0  0  0  0  0  0  0  0  0  0  0  0
   26.2510  -19.2723  -12.0385 C   0  0  0  0  0  0  0  0  0  0  0  0
   24.8086  -19.5872  -12.0636 C   0  0  0  0  0  0  0  0  0  0  0  0
   23.9783  -20.0130  -11.0529 N   0  0  0  0  0  0  0  0  0  0  0  0
   22.7269  -20.1787  -11.5374 C   0  0  0  0  0  0  0  0  0  0  0  0
   22.6914  -19.8746  -12.8544 C   0  0  0  0  0  0  0  0  0  0  0  0
   21.6726  -19.8731  -13.8016 C   0  0  0  0  0  0  0  0  0  0  0  0
   21.9153  -19.5027  -15.0993 C   0  0  0  0  0  0  0  0  0  0  0  0
   23.2091  -19.1305  -15.4382 C   0  0  0  0  0  0  0  0  0  0  0  0
   24.2286  -19.1323  -14.4965 C   0  0  0  0  0  0  0  0  0  0  0  0
   23.9783  -19.5040  -13.1987 C   0  0  0  0  0  0  0  0  0  0  0  0
   26.7689  -21.3308  -10.8824 O   0  0  0  0  0  0  0  0  0  0  0  0
   26.1734  -22.4098  -10.9383 O   0  0  0  0  0  0  0  0  0  0  0  0
  2  1  1  0
  3  2  2  0
  4  2  1  0
  5  4  1  0
  6  7  1  0
  6  5  1  0
  8  7  1  0
  8 10  1  0
  8  9  1  1
 10 11  2  0
 12 13  1  0
 12 10  1  0
 13 20  1  0
 13 14  1  6
 15 14  1  0
 16 15  2  0
 17 18  1  0
 17 16  1  0
 18 19  2  0
 19 15  1  0
 20 22  1  0
 21 20  2  0
 22 23  1  0
 23 24  1  1
 24 25  1  0
 25 33  1  0
 26 25  2  0
 26 27  1  0
 27 28  1  0
 28 29  2  0
 29 30  1  0
 31 30  2  0
 32 31  1  0
 33 32  2  0
 33 28  1  0
 34 23  1  0
 35 34  2  0
 36 34  1  0
M  END
$$$$
