RHW.pdb
     RDKit          3D

 36 38  0  0  1  0  0  0  0  0999 V2000
   29.1514  -27.1130  -16.2905 N   0  0  0  0  0  0  0  0  0  0  0  0
   30.4598  -27.2039  -16.8159 C   0  0  0  0  0  0  0  0  0  0  0  0
   31.2381  -28.1496  -16.4359 N   0  0  0  0  0  0  0  0  0  0  0  0
   30.9030  -26.2489  -17.7560 N   0  0  0  0  0  0  0  0  0  0  0  0
   30.0218  -25.1066  -18.0676 C   0  0  0  0  0  0  0  0  0  0  0  0
   30.6197  -23.8586  -17.5256 C   0  0  0  0  0  0  0  0  0  0  0  0
   29.8514  -23.2729  -16.4082 C   0  0  0  0  0  0  0  0  0  0  0  0
   28.5628  -22.6125  -16.7113 C   0  0  2  0  0  0  0  0  0  0  0  0
   28.4057  -21.9890  -17.9829 N   0  0  0  0  0  0  0  0  0  0  0  0
   28.2373  -21.6409  -15.6186 C   0  0  0  0  0  0  0  0  0  0  0  0
   29.1725  -20.9343  -15.2221 O   0  0  0  0  0  0  0  0  0  0  0  0
   32.2091  -28.2460  -16.8325 N   0  0  0  0  0  0  0  0  0  0  0  0
   26.9460  -21.5054  -15.0284 C   0  0  1  0  0  0  0  0  0  0  0  0
   26.5616  -20.5718  -14.0319 C   0  0  0  0  0  0  0  0  0  0  0  0
   25.6618  -19.4317  -14.5249 C   0  0  0  0  0  0  0  0  0  0  0  0
   26.3953  -18.6300  -15.5340 C   0  0  0  0  0  0  0  0  0  0  0  0
   26.2780  -18.6012  -16.8652 N   0  0  0  0  0  0  0  0  0  0  0  0
   27.1868  -17.6904  -17.3437 C   0  0  0  0  0  0  0  0  0  0  0  0
   27.8583  -17.1615  -16.3081 N   0  0  0  0  0  0  0  0  0  0  0  0
   27.3864  -17.7254  -15.1959 C   0  0  0  0  0  0  0  0  0  0  0  0
   26.3328  -21.0220  -12.6758 O   0  0  0  0  0  0  0  0  0  0  0  0
   25.5497  -22.0291  -12.4810 N   0  0  0  0  0  0  0  0  0  0  0  0
   26.8848  -20.4693  -11.5166 C   0  0  1  0  0  0  0  0  0  0  0  0
   26.5404  -20.7500  -10.1345 C   0  0  0  0  0  0  0  0  0  0  0  0
   27.1183  -19.7160   -9.2062 C   0  0  0  0  0  0  0  0  0  0  0  0
   26.7552  -20.0029   -7.8040 C   0  0  0  0  0  0  0  0  0  0  0  0
   25.5525  -20.3958   -7.2642 N   0  0  0  0  0  0  0  0  0  0  0  0
   25.6845  -20.5396   -5.9263 C   0  0  0  0  0  0  0  0  0  0  0  0
   26.9503  -20.2525   -5.5479 C   0  0  0  0  0  0  0  0  0  0  0  0
   27.5959  -20.2506   -4.3157 C   0  0  0  0  0  0  0  0  0  0  0  0
   28.9224  -19.9187   -4.2138 C   0  0  0  0  0  0  0  0  0  0  0  0
   29.6003  -19.5839   -5.3781 C   0  0  0  0  0  0  0  0  0  0  0  0
   28.9593  -19.5831   -6.6092 C   0  0  0  0  0  0  0  0  0  0  0  0
   27.6309  -19.9168   -6.7038 C   0  0  0  0  0  0  0  0  0  0  0  0
   25.0617  -20.6797  -10.0331 O   0  0  0  0  0  0  0  0  0  0  0  0
   24.4093  -19.7489  -10.5127 O   0  0  0  0  0  0  0  0  0  0  0  0
  2  1  1  0
  3  2  2  0
  4  2  1  0
  5  4  1  0
  6  7  1  0
  6  5  1  0
  8  7  1  0
  8 10  1  0
  8  9  1  6
 10 11  2  0
 12 13  1  0
 12 10  1  0
 13 20  1  0
 13 14  1  1
 15 14  1  0
 16 15  2  0
 17 18  1  0
 17 16  1  0
 18 19  2  0
 19 15  1  0
 20 22  1  0
 21 20  2  0
 22 23  1  0
 23 24  1  1
 24 25  1  0
 25 33  1  0
 26 25  2  0
 26 27  1  0
 27 28  1  0
 28 29  2  0
 29 30  1  0
 31 30  2  0
 32 31  1  0
 33 32  2  0
 33 28  1  0
 34 23  1  0
 35 34  2  0
 36 34  1  0
M  END
$$$$
