DQI.pdb
     RDKit          3D

 26 25  0  0  1  0  0  0  0  0999 V2000
    8.3702  -18.6973   20.3176 N   0  0  0  0  0  0  0  0  0  0  0  0
    7.8584  -17.3579   20.0887 C   0  0  1  0  0  0  0  0  0  0  0  0
    6.8719  -17.3269   18.9454 C   0  0  0  0  0  0  0  0  0  0  0  0
    7.5408  -17.6992   17.6874 C   0  0  0  0  0  0  0  0  0  0  0  0
    8.7374  -18.0518   17.6925 O   0  0  0  0  0  0  0  0  0  0  0  0
    7.1567  -16.9070   21.3399 C   0  0  0  0  0  0  0  0  0  0  0  0
    6.4361  -15.8866   21.3386 O   0  0  0  0  0  0  0  0  0  0  0  0
    6.8336  -17.6562   16.4953 O   0  0  0  0  0  0  0  0  0  0  0  0
    6.2689  -20.5952   26.2399 N   0  0  0  0  0  0  0  0  0  0  0  0
    7.6018  -20.3185   25.7859 C   0  0  0  0  0  0  0  0  0  0  0  0
    8.5236  -21.0733   26.1692 O   0  0  0  0  0  0  0  0  0  0  0  0
    7.7714  -19.1523   24.8927 C   0  0  0  0  0  0  0  0  0  0  0  0
    6.4998  -18.3604   24.7631 C   0  0  0  0  0  0  0  0  0  0  0  0
    6.7052  -17.2439   23.7957 C   0  0  2  0  0  0  0  0  0  0  0  0
    7.2918  -17.6245   22.5549 N   0  0  0  0  0  0  0  0  0  0  0  0
    7.6630  -16.2777   24.4483 C   0  0  0  0  0  0  0  0  0  0  0  0
    8.8693  -16.3533   24.1452 O   0  0  0  0  0  0  0  0  0  0  0  0
    5.7499  -11.4902   26.0972 C   0  0  0  0  0  0  0  0  0  0  0  0
    6.6712  -12.5305   25.4936 C   0  0  0  0  0  0  0  0  0  0  0  0
    7.4728  -13.1901   26.5688 C   0  0  2  0  0  0  0  0  0  0  0  0
    8.4150  -12.2740   27.2724 C   0  0  0  0  0  0  0  0  0  0  0  0
    8.1639  -14.4077   25.9876 C   0  0  2  0  0  0  0  0  0  0  0  0
    7.2266  -15.3128   25.3740 N   0  0  0  0  0  0  0  0  0  0  0  0
    8.8858  -15.1503   27.0509 C   0  0  0  0  0  0  0  0  0  0  0  0
   10.2297  -14.9094   27.3363 O   0  0  0  0  0  0  0  0  0  0  0  0
    8.3040  -16.0276   27.7341 O   0  0  0  0  0  0  0  0  0  0  0  0
  2  1  1  1
  2  3  1  0
  4  3  1  0
  4  8  1  0
  5  4  2  0
  6  2  1  0
  7  6  2  0
  9 10  1  0
 10 12  1  0
 11 10  2  0
 12 13  1  0
 14 13  1  1
 14 15  1  0
 15  6  1  0
 16 17  2  0
 16 14  1  0
 18 19  1  0
 19 20  1  0
 20 22  1  0
 20 21  1  6
 22 23  1  1
 23 16  1  0
 24 22  1  0
 25 24  1  0
 26 24  2  0
M  END
$$$$
