DQI.pdb
     RDKit          3D

 26 25  0  0  1  0  0  0  0  0999 V2000
    9.8706  -18.7552   20.7303 N   0  0  0  0  0  0  0  0  0  0  0  0
   11.1393  -18.0887   20.9634 C   0  0  1  0  0  0  0  0  0  0  0  0
   11.8773  -17.8289   19.6714 C   0  0  0  0  0  0  0  0  0  0  0  0
   12.8508  -18.9043   19.4177 C   0  0  0  0  0  0  0  0  0  0  0  0
   12.9428  -19.8672   20.2054 O   0  0  0  0  0  0  0  0  0  0  0  0
   10.8577  -16.7697   21.6282 C   0  0  0  0  0  0  0  0  0  0  0  0
   11.7776  -16.1058   22.1512 O   0  0  0  0  0  0  0  0  0  0  0  0
   13.6661  -18.8417   18.2976 O   0  0  0  0  0  0  0  0  0  0  0  0
    6.4206  -12.8331   20.0009 N   0  0  0  0  0  0  0  0  0  0  0  0
    7.3347  -13.6543   19.2596 C   0  0  0  0  0  0  0  0  0  0  0  0
    7.2140  -13.6947   18.0146 O   0  0  0  0  0  0  0  0  0  0  0  0
    8.3528  -14.3886   20.0413 C   0  0  0  0  0  0  0  0  0  0  0  0
    8.1412  -14.2283   21.5213 C   0  0  0  0  0  0  0  0  0  0  0  0
    9.1909  -14.9886   22.2593 C   0  0  2  0  0  0  0  0  0  0  0  0
    9.5431  -16.2417   21.6812 N   0  0  0  0  0  0  0  0  0  0  0  0
    8.6272  -15.2867   23.6269 C   0  0  0  0  0  0  0  0  0  0  0  0
    8.1214  -16.4089   23.8206 O   0  0  0  0  0  0  0  0  0  0  0  0
    9.4174  -13.5530   29.4414 C   0  0  0  0  0  0  0  0  0  0  0  0
    8.6651  -14.3560   28.4001 C   0  0  0  0  0  0  0  0  0  0  0  0
    8.9182  -13.7935   27.0387 C   0  0  2  0  0  0  0  0  0  0  0  0
    8.5026  -12.3706   26.8826 C   0  0  0  0  0  0  0  0  0  0  0  0
    8.2850  -14.7054   26.0064 C   0  0  2  0  0  0  0  0  0  0  0  0
    8.6622  -14.3389   24.6657 N   0  0  0  0  0  0  0  0  0  0  0  0
    6.8048  -14.6415   26.0975 C   0  0  0  0  0  0  0  0  0  0  0  0
    6.0866  -15.4284   26.9978 O   0  0  0  0  0  0  0  0  0  0  0  0
    6.1455  -13.8695   25.3597 O   0  0  0  0  0  0  0  0  0  0  0  0
  2  1  1  6
  2  3  1  0
  4  3  1  0
  4  8  1  0
  5  4  2  0
  6  2  1  0
  7  6  2  0
  9 10  1  0
 10 12  1  0
 11 10  2  0
 12 13  1  0
 14 13  1  6
 14 15  1  0
 15  6  1  0
 16 17  2  0
 16 14  1  0
 18 19  1  0
 19 20  1  0
 20 22  1  0
 20 21  1  1
 22 23  1  6
 23 16  1  0
 24 22  1  0
 25 24  1  0
 26 24  2  0
M  END
$$$$
