DQI.pdb
     RDKit          3D

 26 25  0  0  1  0  0  0  0  0999 V2000
    8.4237  -16.3378   19.0379 N   0  0  0  0  0  0  0  0  0  0  0  0
    8.3113  -15.0418   19.6829 C   0  0  1  0  0  0  0  0  0  0  0  0
    7.4857  -14.0806   18.8608 C   0  0  0  0  0  0  0  0  0  0  0  0
    7.9727  -14.0531   17.4713 C   0  0  0  0  0  0  0  0  0  0  0  0
    8.9745  -14.7199   17.1433 O   0  0  0  0  0  0  0  0  0  0  0  0
    7.6353  -15.2395   21.0115 C   0  0  0  0  0  0  0  0  0  0  0  0
    6.7404  -14.4584   21.3982 O   0  0  0  0  0  0  0  0  0  0  0  0
    7.3114  -13.2814   16.5276 O   0  0  0  0  0  0  0  0  0  0  0  0
    7.4297  -20.5536   24.4578 N   0  0  0  0  0  0  0  0  0  0  0  0
    6.8545  -19.5920   25.3544 C   0  0  0  0  0  0  0  0  0  0  0  0
    6.3907  -20.0034   26.4415 O   0  0  0  0  0  0  0  0  0  0  0  0
    6.8618  -18.1815   24.9105 C   0  0  0  0  0  0  0  0  0  0  0  0
    7.4276  -18.0364   23.5250 C   0  0  0  0  0  0  0  0  0  0  0  0
    7.3771  -16.6035   23.1143 C   0  0  2  0  0  0  0  0  0  0  0  0
    7.9926  -16.3154   21.8626 N   0  0  0  0  0  0  0  0  0  0  0  0
    8.1396  -15.8274   24.1597 C   0  0  0  0  0  0  0  0  0  0  0  0
    9.3783  -15.7530   24.0470 O   0  0  0  0  0  0  0  0  0  0  0  0
    5.7561  -11.5108   26.2914 C   0  0  0  0  0  0  0  0  0  0  0  0
    6.7670  -12.4770   25.7086 C   0  0  0  0  0  0  0  0  0  0  0  0
    7.3600  -13.3148   26.7950 C   0  0  2  0  0  0  0  0  0  0  0  0
    8.0754  -12.5327   27.8430 C   0  0  0  0  0  0  0  0  0  0  0  0
    8.2295  -14.3865   26.1679 C   0  0  2  0  0  0  0  0  0  0  0  0
    7.4895  -15.1991   25.2372 N   0  0  0  0  0  0  0  0  0  0  0  0
    8.7841  -15.2814   27.2143 C   0  0  0  0  0  0  0  0  0  0  0  0
    9.9576  -14.9731   27.9022 O   0  0  0  0  0  0  0  0  0  0  0  0
    8.2088  -16.3550   27.5165 O   0  0  0  0  0  0  0  0  0  0  0  0
  2  1  1  6
  2  3  1  0
  4  3  1  0
  4  8  1  0
  5  4  2  0
  6  2  1  0
  7  6  2  0
  9 10  1  0
 10 12  1  0
 11 10  2  0
 12 13  1  0
 14 13  1  1
 14 15  1  0
 15  6  1  0
 16 17  2  0
 16 14  1  0
 18 19  1  0
 19 20  1  0
 20 22  1  0
 20 21  1  1
 22 23  1  6
 23 16  1  0
 24 22  1  0
 25 24  1  0
 26 24  2  0
M  END
$$$$
