DQI.pdb
     RDKit          3D

 26 25  0  0  1  0  0  0  0  0999 V2000
    9.2166  -18.0968   19.8904 N   0  0  0  0  0  0  0  0  0  0  0  0
    8.2069  -17.0853   19.6342 C   0  0  1  0  0  0  0  0  0  0  0  0
    7.2373  -17.5255   18.5630 C   0  0  0  0  0  0  0  0  0  0  0  0
    7.9289  -17.6389   17.2679 C   0  0  0  0  0  0  0  0  0  0  0  0
    7.6121  -16.8938   16.3189 O   0  0  0  0  0  0  0  0  0  0  0  0
    7.4422  -16.8569   20.9087 C   0  0  0  0  0  0  0  0  0  0  0  0
    6.4765  -16.0652   20.9439 O   0  0  0  0  0  0  0  0  0  0  0  0
    8.9356  -18.5792   17.1075 O   0  0  0  0  0  0  0  0  0  0  0  0
    5.3705  -21.0067   25.1594 N   0  0  0  0  0  0  0  0  0  0  0  0
    6.3064  -20.9727   24.0721 C   0  0  0  0  0  0  0  0  0  0  0  0
    6.9630  -22.0095   23.8268 O   0  0  0  0  0  0  0  0  0  0  0  0
    6.4132  -19.7002   23.3263 C   0  0  0  0  0  0  0  0  0  0  0  0
    7.0077  -18.6076   24.1711 C   0  0  0  0  0  0  0  0  0  0  0  0
    7.1370  -17.3641   23.3578 C   0  0  2  0  0  0  0  0  0  0  0  0
    7.7935  -17.5315   22.1049 N   0  0  0  0  0  0  0  0  0  0  0  0
    7.9805  -16.4069   24.1633 C   0  0  0  0  0  0  0  0  0  0  0  0
    9.2049  -16.3695   23.9348 O   0  0  0  0  0  0  0  0  0  0  0  0
    5.6419  -11.8862   25.9057 C   0  0  0  0  0  0  0  0  0  0  0  0
    6.6514  -12.8626   25.3374 C   0  0  0  0  0  0  0  0  0  0  0  0
    7.4300  -13.4964   26.4445 C   0  0  2  0  0  0  0  0  0  0  0  0
    8.2570  -12.5379   27.2315 C   0  0  0  0  0  0  0  0  0  0  0  0
    8.2430  -14.6433   25.8774 C   0  0  2  0  0  0  0  0  0  0  0  0
    7.4200  -15.5730   25.1476 N   0  0  0  0  0  0  0  0  0  0  0  0
    8.9168  -15.3901   26.9691 C   0  0  0  0  0  0  0  0  0  0  0  0
   10.2163  -15.0885   27.3761 O   0  0  0  0  0  0  0  0  0  0  0  0
    8.3326  -16.3262   27.5668 O   0  0  0  0  0  0  0  0  0  0  0  0
  2  1  1  1
  2  3  1  0
  4  3  1  0
  4  8  1  0
  5  4  2  0
  6  2  1  0
  7  6  2  0
  9 10  1  0
 10 12  1  0
 11 10  2  0
 12 13  1  0
 14 13  1  1
 14 15  1  0
 15  6  1  0
 16 17  2  0
 16 14  1  0
 18 19  1  0
 19 20  1  0
 20 22  1  0
 20 21  1  6
 22 23  1  1
 23 16  1  0
 24 22  1  0
 25 24  1  0
 26 24  2  0
M  END
$$$$
