DQI.pdb
     RDKit          3D

 26 25  0  0  1  0  0  0  0  0999 V2000
    9.9693  -14.8677   18.4389 N   0  0  0  0  0  0  0  0  0  0  0  0
    8.8269  -14.0743   18.8556 C   0  0  1  0  0  0  0  0  0  0  0  0
    7.7081  -14.1344   17.8426 C   0  0  0  0  0  0  0  0  0  0  0  0
    8.2494  -13.9990   16.4798 C   0  0  0  0  0  0  0  0  0  0  0  0
    8.9510  -14.9063   15.9893 O   0  0  0  0  0  0  0  0  0  0  0  0
    8.3239  -14.6303   20.1591 C   0  0  0  0  0  0  0  0  0  0  0  0
    7.2675  -14.2050   20.6726 O   0  0  0  0  0  0  0  0  0  0  0  0
    7.9754  -12.8565   15.7430 O   0  0  0  0  0  0  0  0  0  0  0  0
   10.5051  -19.9701   22.3087 N   0  0  0  0  0  0  0  0  0  0  0  0
    9.3182  -19.9440   21.5025 C   0  0  0  0  0  0  0  0  0  0  0  0
    8.9776  -20.9982   20.9205 O   0  0  0  0  0  0  0  0  0  0  0  0
    8.5916  -18.6580   21.4303 C   0  0  0  0  0  0  0  0  0  0  0  0
    9.2190  -17.6135   22.3113 C   0  0  0  0  0  0  0  0  0  0  0  0
    8.5912  -16.2887   22.0371 C   0  0  2  0  0  0  0  0  0  0  0  0
    9.0317  -15.6511   20.8422 N   0  0  0  0  0  0  0  0  0  0  0  0
    8.9793  -15.3821   23.1791 C   0  0  0  0  0  0  0  0  0  0  0  0
   10.0660  -14.7771   23.1041 O   0  0  0  0  0  0  0  0  0  0  0  0
    6.7144  -11.2399   26.8124 C   0  0  0  0  0  0  0  0  0  0  0  0
    7.8071  -12.2634   26.5803 C   0  0  0  0  0  0  0  0  0  0  0  0
    7.3923  -13.2213   25.5105 C   0  0  2  0  0  0  0  0  0  0  0  0
    6.0540  -13.8384   25.7335 C   0  0  0  0  0  0  0  0  0  0  0  0
    8.4886  -14.2514   25.3234 C   0  0  2  0  0  0  0  0  0  0  0  0
    8.1523  -15.2116   24.3041 N   0  0  0  0  0  0  0  0  0  0  0  0
    8.7245  -14.9922   26.5880 C   0  0  0  0  0  0  0  0  0  0  0  0
    9.4395  -14.4338   27.6474 O   0  0  0  0  0  0  0  0  0  0  0  0
    8.2836  -16.1565   26.7457 O   0  0  0  0  0  0  0  0  0  0  0  0
  2  1  1  6
  2  3  1  0
  4  3  1  0
  4  8  1  0
  5  4  2  0
  6  2  1  0
  7  6  2  0
  9 10  1  0
 10 12  1  0
 11 10  2  0
 12 13  1  0
 14 13  1  1
 14 15  1  0
 15  6  1  0
 16 17  2  0
 16 14  1  0
 18 19  1  0
 19 20  1  0
 20 22  1  0
 20 21  1  1
 22 23  1  6
 23 16  1  0
 24 22  1  0
 25 24  1  0
 26 24  2  0
M  END
$$$$
