DQK.pdb
     RDKit          3D

 27 26  0  0  1  0  0  0  0  0999 V2000
   22.1945  -19.2484  -16.2134 N   0  0  0  0  0  0  0  0  0  0  0  0
   21.3763  -18.2609  -15.5432 C   0  0  1  0  0  0  0  0  0  0  0  0
   21.5014  -18.4791  -14.0694 C   0  0  0  0  0  0  0  0  0  0  0  0
   20.8495  -19.7611  -13.7086 C   0  0  0  0  0  0  0  0  0  0  0  0
   20.3247  -20.5312  -14.5614 O   0  0  0  0  0  0  0  0  0  0  0  0
   21.8847  -16.8898  -15.8943 C   0  0  0  0  0  0  0  0  0  0  0  0
   21.4516  -15.8647  -15.3061 O   0  0  0  0  0  0  0  0  0  0  0  0
   20.7929  -20.1677  -12.3884 O   0  0  0  0  0  0  0  0  0  0  0  0
   26.5014  -15.5765  -20.2443 N   0  0  0  0  0  0  0  0  0  0  0  0
   26.0121  -14.2769  -19.8923 C   0  0  0  0  0  0  0  0  0  0  0  0
   26.5416  -13.3102  -20.4905 O   0  0  0  0  0  0  0  0  0  0  0  0
   24.9451  -14.1659  -18.8812 C   0  0  0  0  0  0  0  0  0  0  0  0
   24.4593  -15.4284  -18.3063 C   0  0  0  0  0  0  0  0  0  0  0  0
   23.3006  -15.4163  -17.3854 C   0  0  2  0  0  0  0  0  0  0  0  0
   22.8682  -16.6904  -16.8970 N   0  0  0  0  0  0  0  0  0  0  0  0
   22.1649  -14.5752  -17.8618 C   0  0  0  0  0  0  0  0  0  0  0  0
   21.3901  -14.9490  -18.7792 O   0  0  0  0  0  0  0  0  0  0  0  0
   21.9059  -13.3025  -17.2948 N   0  0  0  0  0  0  0  0  0  0  0  0
   20.7815  -12.4979  -17.8071 C   0  0  1  0  0  0  0  0  0  0  0  0
   19.7474  -12.4448  -16.7277 C   0  0  0  0  0  0  0  0  0  0  0  0
   18.5382  -11.6492  -17.1120 C   0  0  0  0  0  0  0  0  0  0  0  0
   17.5035  -11.6761  -15.9898 C   0  0  0  0  0  0  0  0  0  0  0  0
   16.3129  -10.8079  -16.4073 C   0  0  0  0  0  0  0  0  0  0  0  0
   15.2549  -11.0355  -15.4453 N   0  0  0  0  0  0  0  0  0  0  0  0
   21.3072  -11.1325  -18.0317 C   0  0  0  0  0  0  0  0  0  0  0  0
   22.4699  -10.7792  -17.7214 O   0  0  0  0  0  0  0  0  0  0  0  0
   20.5063  -10.1658  -18.6118 O   0  0  0  0  0  0  0  0  0  0  0  0
  2  3  1  0
  2  1  1  6
  3  4  1  0
  4  8  1  0
  5  4  2  0
  6  2  1  0
  7  6  2  0
  9 10  1  0
 10 12  1  0
 10 11  2  0
 12 13  1  0
 14 13  1  6
 14 15  1  0
 15  6  1  0
 16 17  2  0
 16 14  1  0
 18 16  1  0
 19 18  1  0
 19 20  1  1
 20 21  1  0
 21 22  1  0
 23 22  1  0
 23 24  1  0
 25 19  1  0
 26 25  2  0
 27 25  1  0
M  END
$$$$
