DQK.pdb
     RDKit          3D

 27 26  0  0  1  0  0  0  0  0999 V2000
   16.2759  -13.6214  -15.6310 N   0  0  0  0  0  0  0  0  0  0  0  0
   16.3476  -12.4804  -16.5180 C   0  0  1  0  0  0  0  0  0  0  0  0
   14.9766  -12.2267  -17.0577 C   0  0  0  0  0  0  0  0  0  0  0  0
   14.5869  -13.3474  -17.9469 C   0  0  0  0  0  0  0  0  0  0  0  0
   15.3144  -13.7614  -18.8930 O   0  0  0  0  0  0  0  0  0  0  0  0
   16.8095  -11.2835  -15.7333 C   0  0  0  0  0  0  0  0  0  0  0  0
   16.2975  -10.9985  -14.6194 O   0  0  0  0  0  0  0  0  0  0  0  0
   13.3790  -13.9950  -17.7646 O   0  0  0  0  0  0  0  0  0  0  0  0
   22.5810   -9.2174  -14.8961 N   0  0  0  0  0  0  0  0  0  0  0  0
   21.8354   -8.1036  -14.3903 C   0  0  0  0  0  0  0  0  0  0  0  0
   22.4985   -7.2290  -13.7837 O   0  0  0  0  0  0  0  0  0  0  0  0
   20.3791   -8.0591  -14.6140 C   0  0  0  0  0  0  0  0  0  0  0  0
   19.7831   -9.2383  -15.2582 C   0  0  0  0  0  0  0  0  0  0  0  0
   18.3275   -9.2707  -15.5241 C   0  0  2  0  0  0  0  0  0  0  0  0
   17.8358  -10.4274  -16.2090 N   0  0  0  0  0  0  0  0  0  0  0  0
   17.7943   -8.0014  -16.0974 C   0  0  0  0  0  0  0  0  0  0  0  0
   17.7869   -7.7734  -17.3342 O   0  0  0  0  0  0  0  0  0  0  0  0
   17.2661   -6.9844  -15.2638 N   0  0  0  0  0  0  0  0  0  0  0  0
   16.7777   -5.7327  -15.8710 C   0  0  1  0  0  0  0  0  0  0  0  0
   15.4705   -5.4063  -15.2215 C   0  0  0  0  0  0  0  0  0  0  0  0
   14.9279   -4.0722  -15.6322 C   0  0  0  0  0  0  0  0  0  0  0  0
   13.5983   -3.7993  -14.9334 C   0  0  0  0  0  0  0  0  0  0  0  0
   13.0773   -2.4362  -15.3982 C   0  0  0  0  0  0  0  0  0  0  0  0
   11.7470   -2.2734  -14.8500 N   0  0  0  0  0  0  0  0  0  0  0  0
   17.7599   -4.6821  -15.5208 C   0  0  0  0  0  0  0  0  0  0  0  0
   17.8651   -3.5983  -16.1433 O   0  0  0  0  0  0  0  0  0  0  0  0
   18.6254   -4.8658  -14.4580 O   0  0  0  0  0  0  0  0  0  0  0  0
  2  3  1  0
  2  1  1  1
  3  4  1  0
  4  8  1  0
  5  4  2  0
  6  2  1  0
  7  6  2  0
  9 10  1  0
 10 12  1  0
 10 11  2  0
 12 13  1  0
 14 13  1  6
 14 15  1  0
 15  6  1  0
 16 17  2  0
 16 14  1  0
 18 16  1  0
 19 18  1  0
 19 20  1  1
 20 21  1  0
 21 22  1  0
 23 22  1  0
 23 24  1  0
 25 19  1  0
 26 25  2  0
 27 25  1  0
M  END
$$$$
