DQK.pdb
     RDKit          3D

 27 26  0  0  1  0  0  0  0  0999 V2000
   15.9638  -11.2773  -14.3316 N   0  0  0  0  0  0  0  0  0  0  0  0
   15.7450   -9.8589  -14.5165 C   0  0  1  0  0  0  0  0  0  0  0  0
   14.2697   -9.6195  -14.5568 C   0  0  0  0  0  0  0  0  0  0  0  0
   13.7151  -10.1981  -15.8043 C   0  0  0  0  0  0  0  0  0  0  0  0
   14.3393  -10.1943  -16.9026 O   0  0  0  0  0  0  0  0  0  0  0  0
   16.3437   -9.1193  -13.3520 C   0  0  0  0  0  0  0  0  0  0  0  0
   16.4179   -9.6496  -12.2129 O   0  0  0  0  0  0  0  0  0  0  0  0
   12.4599  -10.7777  -15.8067 O   0  0  0  0  0  0  0  0  0  0  0  0
   21.6542   -6.1954  -13.2894 N   0  0  0  0  0  0  0  0  0  0  0  0
   21.1276   -5.7193  -12.0451 C   0  0  0  0  0  0  0  0  0  0  0  0
   21.9377   -5.1184  -11.3000 O   0  0  0  0  0  0  0  0  0  0  0  0
   19.7065   -5.9572  -11.7340 C   0  0  0  0  0  0  0  0  0  0  0  0
   18.9456   -6.7364  -12.7212 C   0  0  0  0  0  0  0  0  0  0  0  0
   17.5289   -7.0722  -12.4553 C   0  0  2  0  0  0  0  0  0  0  0  0
   16.8483   -7.8000  -13.4829 N   0  0  0  0  0  0  0  0  0  0  0  0
   16.7259   -5.9235  -11.9456 C   0  0  0  0  0  0  0  0  0  0  0  0
   16.2278   -5.0592  -12.7115 O   0  0  0  0  0  0  0  0  0  0  0  0
   16.4860   -5.7535  -10.5593 N   0  0  0  0  0  0  0  0  0  0  0  0
   15.6430   -4.6331  -10.1034 C   0  0  1  0  0  0  0  0  0  0  0  0
   14.9870   -5.0624   -8.8297 C   0  0  0  0  0  0  0  0  0  0  0  0
   14.0823   -4.0170   -8.2539 C   0  0  0  0  0  0  0  0  0  0  0  0
   13.5375   -4.4696   -6.9014 C   0  0  0  0  0  0  0  0  0  0  0  0
   12.6428   -3.3590   -6.3432 C   0  0  0  0  0  0  0  0  0  0  0  0
   12.1275   -3.8192   -5.0706 N   0  0  0  0  0  0  0  0  0  0  0  0
   16.5585   -3.5069   -9.8125 C   0  0  0  0  0  0  0  0  0  0  0  0
   17.7845   -3.6517   -9.5907 O   0  0  0  0  0  0  0  0  0  0  0  0
   16.0768   -2.2112   -9.7738 O   0  0  0  0  0  0  0  0  0  0  0  0
  2  3  1  0
  2  1  1  1
  3  4  1  0
  4  8  1  0
  5  4  2  0
  6  2  1  0
  7  6  2  0
  9 10  1  0
 10 12  1  0
 10 11  2  0
 12 13  1  0
 14 13  1  6
 14 15  1  0
 15  6  1  0
 16 17  2  0
 16 14  1  0
 18 16  1  0
 19 18  1  0
 19 20  1  1
 20 21  1  0
 21 22  1  0
 23 22  1  0
 23 24  1  0
 25 19  1  0
 26 25  2  0
 27 25  1  0
M  END
$$$$
