DQK.pdb
     RDKit          3D

 27 26  0  0  1  0  0  0  0  0999 V2000
   19.8982  -14.0788  -16.3362 N   0  0  0  0  0  0  0  0  0  0  0  0
   20.0156  -12.9205  -17.1955 C   0  0  1  0  0  0  0  0  0  0  0  0
   18.6362  -12.4523  -17.5324 C   0  0  0  0  0  0  0  0  0  0  0  0
   17.9300  -13.5161  -18.2861 C   0  0  0  0  0  0  0  0  0  0  0  0
   18.4776  -14.1901  -19.2035 O   0  0  0  0  0  0  0  0  0  0  0  0
   20.7479  -11.8371  -16.4529 C   0  0  0  0  0  0  0  0  0  0  0  0
   20.2642  -11.3201  -15.4122 O   0  0  0  0  0  0  0  0  0  0  0  0
   16.6103  -13.8143  -18.0013 O   0  0  0  0  0  0  0  0  0  0  0  0
   27.0359  -10.4396  -16.6165 N   0  0  0  0  0  0  0  0  0  0  0  0
   26.4807  -10.8311  -15.3553 C   0  0  0  0  0  0  0  0  0  0  0  0
   27.3048  -11.1837  -14.4783 O   0  0  0  0  0  0  0  0  0  0  0  0
   25.0181  -10.7904  -15.1760 C   0  0  0  0  0  0  0  0  0  0  0  0
   24.2283  -10.4057  -16.3546 C   0  0  0  0  0  0  0  0  0  0  0  0
   22.7550  -10.3107  -16.2501 C   0  0  2  0  0  0  0  0  0  0  0  0
   22.0079  -11.3517  -16.8880 N   0  0  0  0  0  0  0  0  0  0  0  0
   22.2181   -8.9543  -16.5599 C   0  0  0  0  0  0  0  0  0  0  0  0
   22.2297   -8.4764  -17.7232 O   0  0  0  0  0  0  0  0  0  0  0  0
   21.6647   -8.1346  -15.5450 N   0  0  0  0  0  0  0  0  0  0  0  0
   21.0861   -6.8275  -15.9065 C   0  0  1  0  0  0  0  0  0  0  0  0
   19.6207   -6.8962  -15.6151 C   0  0  0  0  0  0  0  0  0  0  0  0
   18.9192   -5.5893  -15.8217 C   0  0  0  0  0  0  0  0  0  0  0  0
   17.4392   -5.7171  -15.4696 C   0  0  0  0  0  0  0  0  0  0  0  0
   16.7478   -4.3892  -15.7924 C   0  0  0  0  0  0  0  0  0  0  0  0
   15.3321   -4.5694  -15.5472 N   0  0  0  0  0  0  0  0  0  0  0  0
   21.7051   -5.8284  -15.0066 C   0  0  0  0  0  0  0  0  0  0  0  0
   22.1922   -6.1140  -13.8866 O   0  0  0  0  0  0  0  0  0  0  0  0
   21.7700   -4.4993  -15.3830 O   0  0  0  0  0  0  0  0  0  0  0  0
  2  3  1  0
  2  1  1  1
  3  4  1  0
  4  8  1  0
  5  4  2  0
  6  2  1  0
  7  6  2  0
  9 10  1  0
 10 12  1  0
 10 11  2  0
 12 13  1  0
 14 13  1  6
 14 15  1  0
 15  6  1  0
 16 17  2  0
 16 14  1  0
 18 16  1  0
 19 18  1  0
 19 20  1  1
 20 21  1  0
 21 22  1  0
 23 22  1  0
 23 24  1  0
 25 19  1  0
 26 25  2  0
 27 25  1  0
M  END
$$$$
