DQK.pdb
     RDKit          3D

 27 26  0  0  1  0  0  0  0  0999 V2000
   17.2335   -9.7414  -13.5764 N   0  0  0  0  0  0  0  0  0  0  0  0
   17.5998   -9.0254  -12.3734 C   0  0  1  0  0  0  0  0  0  0  0  0
   18.6041   -7.9815  -12.7436 C   0  0  0  0  0  0  0  0  0  0  0  0
   19.8517   -8.6430  -13.1959 C   0  0  0  0  0  0  0  0  0  0  0  0
   20.4362   -9.5420  -12.5281 O   0  0  0  0  0  0  0  0  0  0  0  0
   16.3724   -8.3656  -11.8082 C   0  0  0  0  0  0  0  0  0  0  0  0
   15.5492   -7.7743  -12.5545 O   0  0  0  0  0  0  0  0  0  0  0  0
   20.4334   -8.2872  -14.3987 O   0  0  0  0  0  0  0  0  0  0  0  0
   12.2266  -10.4097   -7.7560 N   0  0  0  0  0  0  0  0  0  0  0  0
   12.5214  -10.7195   -9.1233 C   0  0  0  0  0  0  0  0  0  0  0  0
   11.9512  -11.7334   -9.5918 O   0  0  0  0  0  0  0  0  0  0  0  0
   13.4467   -9.8473   -9.8690 C   0  0  0  0  0  0  0  0  0  0  0  0
   14.0048   -8.7065   -9.1290 C   0  0  0  0  0  0  0  0  0  0  0  0
   14.9408   -7.7812   -9.8060 C   0  0  2  0  0  0  0  0  0  0  0  0
   16.0881   -8.3791  -10.4184 N   0  0  0  0  0  0  0  0  0  0  0  0
   15.2914   -6.5815   -8.9925 C   0  0  0  0  0  0  0  0  0  0  0  0
   16.0916   -6.6366   -8.0238 O   0  0  0  0  0  0  0  0  0  0  0  0
   14.7315   -5.3115   -9.2787 N   0  0  0  0  0  0  0  0  0  0  0  0
   14.9812   -4.1870   -8.3582 C   0  0  1  0  0  0  0  0  0  0  0  0
   14.6510   -2.9289   -9.0965 C   0  0  0  0  0  0  0  0  0  0  0  0
   14.7798   -1.7003   -8.2497 C   0  0  0  0  0  0  0  0  0  0  0  0
   14.3570   -0.4630   -9.0376 C   0  0  0  0  0  0  0  0  0  0  0  0
   14.6052    0.7733   -8.1684 C   0  0  0  0  0  0  0  0  0  0  0  0
   14.2932    1.9359   -8.9732 N   0  0  0  0  0  0  0  0  0  0  0  0
   14.0317   -4.3433   -7.2333 C   0  0  0  0  0  0  0  0  0  0  0  0
   14.1590   -3.7535   -6.1337 O   0  0  0  0  0  0  0  0  0  0  0  0
   12.9335   -5.1739   -7.3607 O   0  0  0  0  0  0  0  0  0  0  0  0
  2  3  1  0
  2  1  1  6
  3  4  1  0
  4  8  1  0
  5  4  2  0
  6  2  1  0
  7  6  2  0
  9 10  1  0
 10 12  1  0
 10 11  2  0
 12 13  1  0
 14 13  1  1
 14 15  1  0
 15  6  1  0
 16 17  2  0
 16 14  1  0
 18 16  1  0
 19 18  1  0
 19 20  1  6
 20 21  1  0
 21 22  1  0
 23 22  1  0
 23 24  1  0
 25 19  1  0
 26 25  2  0
 27 25  1  0
M  END
$$$$
