DQK.pdb
     RDKit          3D

 27 26  0  0  1  0  0  0  0  0999 V2000
   20.1816   -9.3613  -13.2344 N   0  0  0  0  0  0  0  0  0  0  0  0
   19.6617   -8.0274  -13.4445 C   0  0  1  0  0  0  0  0  0  0  0  0
   19.4488   -7.8394  -14.9124 C   0  0  0  0  0  0  0  0  0  0  0  0
   20.7615   -7.8528  -15.6017 C   0  0  0  0  0  0  0  0  0  0  0  0
   21.2559   -8.8922  -16.1223 O   0  0  0  0  0  0  0  0  0  0  0  0
   18.3476   -7.8994  -12.7245 C   0  0  0  0  0  0  0  0  0  0  0  0
   17.6662   -6.8436  -12.7964 O   0  0  0  0  0  0  0  0  0  0  0  0
   21.5095   -6.6942  -15.7003 O   0  0  0  0  0  0  0  0  0  0  0  0
   14.8059  -12.8199  -10.6479 N   0  0  0  0  0  0  0  0  0  0  0  0
   14.0910  -11.6949  -10.1229 C   0  0  0  0  0  0  0  0  0  0  0  0
   13.0161  -11.9548   -9.5314 O   0  0  0  0  0  0  0  0  0  0  0  0
   14.6531  -10.3443  -10.3042 C   0  0  0  0  0  0  0  0  0  0  0  0
   15.9546  -10.2667  -10.9830 C   0  0  0  0  0  0  0  0  0  0  0  0
   16.5403   -8.9438  -11.2954 C   0  0  2  0  0  0  0  0  0  0  0  0
   17.8197   -8.9548  -11.9372 N   0  0  0  0  0  0  0  0  0  0  0  0
   16.4828   -7.9793  -10.1594 C   0  0  0  0  0  0  0  0  0  0  0  0
   17.2325   -8.0789   -9.1545 O   0  0  0  0  0  0  0  0  0  0  0  0
   15.5700   -6.8953  -10.1624 N   0  0  0  0  0  0  0  0  0  0  0  0
   15.5626   -5.9531   -9.0283 C   0  0  1  0  0  0  0  0  0  0  0  0
   15.1158   -4.6273   -9.5573 C   0  0  0  0  0  0  0  0  0  0  0  0
   14.9272   -3.6003   -8.4838 C   0  0  0  0  0  0  0  0  0  0  0  0
   14.3970   -2.2982   -9.0787 C   0  0  0  0  0  0  0  0  0  0  0  0
   14.2679   -1.2680   -7.9529 C   0  0  0  0  0  0  0  0  0  0  0  0
   13.7852   -0.0386   -8.5466 N   0  0  0  0  0  0  0  0  0  0  0  0
   14.5486   -6.4514   -8.0719 C   0  0  0  0  0  0  0  0  0  0  0  0
   14.5370   -6.1472   -6.8551 O   0  0  0  0  0  0  0  0  0  0  0  0
   13.5442   -7.2990   -8.5021 O   0  0  0  0  0  0  0  0  0  0  0  0
  2  3  1  0
  2  1  1  6
  3  4  1  0
  4  8  1  0
  5  4  2  0
  6  2  1  0
  7  6  2  0
  9 10  1  0
 10 12  1  0
 10 11  2  0
 12 13  1  0
 14 13  1  1
 14 15  1  0
 15  6  1  0
 16 17  2  0
 16 14  1  0
 18 16  1  0
 19 18  1  0
 19 20  1  6
 20 21  1  0
 21 22  1  0
 23 22  1  0
 23 24  1  0
 25 19  1  0
 26 25  2  0
 27 25  1  0
M  END
$$$$
