DQK.pdb
     RDKit          3D

 27 26  0  0  1  0  0  0  0  0999 V2000
   29.4437  -25.4300  -17.3056 N   0  0  0  0  0  0  0  0  0  0  0  0
   28.4002  -26.3950  -17.0341 C   0  0  1  0  0  0  0  0  0  0  0  0
   27.1036  -25.8203  -17.5074 C   0  0  0  0  0  0  0  0  0  0  0  0
   26.7528  -24.6499  -16.6673 C   0  0  0  0  0  0  0  0  0  0  0  0
   27.1525  -23.4779  -16.9171 O   0  0  0  0  0  0  0  0  0  0  0  0
   28.6979  -27.6587  -17.7931 C   0  0  0  0  0  0  0  0  0  0  0  0
   28.0623  -27.9553  -18.8382 O   0  0  0  0  0  0  0  0  0  0  0  0
   25.9533  -24.8074  -15.5504 O   0  0  0  0  0  0  0  0  0  0  0  0
   34.2845  -30.6123  -18.0834 N   0  0  0  0  0  0  0  0  0  0  0  0
   33.4274  -31.5675  -18.7200 C   0  0  0  0  0  0  0  0  0  0  0  0
   33.9974  -32.5567  -19.2389 O   0  0  0  0  0  0  0  0  0  0  0  0
   31.9722  -31.3324  -18.7192 C   0  0  0  0  0  0  0  0  0  0  0  0
   31.5120  -30.1016  -18.0602 C   0  0  0  0  0  0  0  0  0  0  0  0
   30.0702  -29.7675  -18.0569 C   0  0  2  0  0  0  0  0  0  0  0  0
   29.7012  -28.5676  -17.3691 N   0  0  0  0  0  0  0  0  0  0  0  0
   29.1888  -30.9179  -17.7051 C   0  0  0  0  0  0  0  0  0  0  0  0
   28.8843  -31.1924  -16.5161 O   0  0  0  0  0  0  0  0  0  0  0  0
   28.6494  -31.7625  -18.7071 N   0  0  0  0  0  0  0  0  0  0  0  0
   27.5684  -32.7018  -18.3562 C   0  0  1  0  0  0  0  0  0  0  0  0
   26.3854  -31.8826  -17.9482 C   0  0  0  0  0  0  0  0  0  0  0  0
   25.1464  -32.6998  -17.7482 C   0  0  0  0  0  0  0  0  0  0  0  0
   24.5876  -32.4862  -16.3436 C   0  0  0  0  0  0  0  0  0  0  0  0
   23.3301  -33.3459  -16.1863 C   0  0  0  0  0  0  0  0  0  0  0  0
   22.7814  -33.0714  -14.8747 N   0  0  0  0  0  0  0  0  0  0  0  0
   27.2329  -33.4409  -19.5941 C   0  0  0  0  0  0  0  0  0  0  0  0
   26.8468  -32.8836  -20.6493 O   0  0  0  0  0  0  0  0  0  0  0  0
   27.3374  -34.8193  -19.6308 O   0  0  0  0  0  0  0  0  0  0  0  0
  2  3  1  0
  2  1  1  6
  3  4  1  0
  4  8  1  0
  5  4  2  0
  6  2  1  0
  7  6  2  0
  9 10  1  0
 10 12  1  0
 10 11  2  0
 12 13  1  0
 14 13  1  1
 14 15  1  0
 15  6  1  0
 16 17  2  0
 16 14  1  0
 18 16  1  0
 19 18  1  0
 19 20  1  6
 20 21  1  0
 21 22  1  0
 23 22  1  0
 23 24  1  0
 25 19  1  0
 26 25  2  0
 27 25  1  0
M  END
$$$$
