DQK.pdb
     RDKit          3D

 27 26  0  0  1  0  0  0  0  0999 V2000
   17.1875  -12.5409  -14.7332 N   0  0  0  0  0  0  0  0  0  0  0  0
   16.7619  -11.1596  -14.8043 C   0  0  1  0  0  0  0  0  0  0  0  0
   15.2740  -11.1257  -14.6617 C   0  0  0  0  0  0  0  0  0  0  0  0
   14.6535  -11.6907  -15.8841 C   0  0  0  0  0  0  0  0  0  0  0  0
   14.9355  -11.2898  -17.0484 O   0  0  0  0  0  0  0  0  0  0  0  0
   17.3939  -10.3979  -13.6721 C   0  0  0  0  0  0  0  0  0  0  0  0
   17.3208  -10.8144  -12.4865 O   0  0  0  0  0  0  0  0  0  0  0  0
   13.7183  -12.7044  -15.7871 O   0  0  0  0  0  0  0  0  0  0  0  0
   22.0897   -6.0669  -13.9881 N   0  0  0  0  0  0  0  0  0  0  0  0
   21.6600   -5.9577  -12.6258 C   0  0  0  0  0  0  0  0  0  0  0  0
   22.3256   -5.1806  -11.9007 O   0  0  0  0  0  0  0  0  0  0  0  0
   20.4935   -6.7414  -12.1806 C   0  0  0  0  0  0  0  0  0  0  0  0
   19.8713   -7.6121  -13.1883 C   0  0  0  0  0  0  0  0  0  0  0  0
   18.6311   -8.3481  -12.8553 C   0  0  2  0  0  0  0  0  0  0  0  0
   18.0962   -9.1841  -13.8866 N   0  0  0  0  0  0  0  0  0  0  0  0
   17.5860   -7.5014  -12.2111 C   0  0  0  0  0  0  0  0  0  0  0  0
   16.8671   -6.7053  -12.8676 O   0  0  0  0  0  0  0  0  0  0  0  0
   17.3544   -7.5574  -10.8141 N   0  0  0  0  0  0  0  0  0  0  0  0
   16.2718   -6.7464  -10.2275 C   0  0  1  0  0  0  0  0  0  0  0  0
   15.3027   -7.6934   -9.5943 C   0  0  0  0  0  0  0  0  0  0  0  0
   14.1840   -6.9987   -8.8809 C   0  0  0  0  0  0  0  0  0  0  0  0
   13.2565   -8.0178   -8.2237 C   0  0  0  0  0  0  0  0  0  0  0  0
   12.1447   -7.2601   -7.4921 C   0  0  0  0  0  0  0  0  0  0  0  0
   11.3124   -8.2454   -6.8338 N   0  0  0  0  0  0  0  0  0  0  0  0
   16.8910   -5.9183   -9.1682 C   0  0  0  0  0  0  0  0  0  0  0  0
   18.0364   -6.1322   -8.7040 O   0  0  0  0  0  0  0  0  0  0  0  0
   16.2039   -4.8429   -8.6355 O   0  0  0  0  0  0  0  0  0  0  0  0
  2  3  1  0
  2  1  1  1
  3  4  1  0
  4  8  1  0
  5  4  2  0
  6  2  1  0
  7  6  2  0
  9 10  1  0
 10 12  1  0
 10 11  2  0
 12 13  1  0
 14 13  1  6
 14 15  1  0
 15  6  1  0
 16 17  2  0
 16 14  1  0
 18 16  1  0
 19 18  1  0
 19 20  1  1
 20 21  1  0
 21 22  1  0
 23 22  1  0
 23 24  1  0
 25 19  1  0
 26 25  2  0
 27 25  1  0
M  END
$$$$
