DQK.pdb
     RDKit          3D

 27 26  0  0  1  0  0  0  0  0999 V2000
   22.1603  -19.8126  -19.4285 N   0  0  0  0  0  0  0  0  0  0  0  0
   21.4131  -18.6284  -19.0635 C   0  0  1  0  0  0  0  0  0  0  0  0
   21.6233  -17.6015  -20.1296 C   0  0  0  0  0  0  0  0  0  0  0  0
   23.0282  -17.1295  -20.0827 C   0  0  0  0  0  0  0  0  0  0  0  0
   23.9738  -17.7202  -20.6765 O   0  0  0  0  0  0  0  0  0  0  0  0
   19.9532  -18.9805  -18.9841 C   0  0  0  0  0  0  0  0  0  0  0  0
   19.3498  -19.4803  -19.9692 O   0  0  0  0  0  0  0  0  0  0  0  0
   23.3591  -15.9942  -19.3664 O   0  0  0  0  0  0  0  0  0  0  0  0
   16.9378  -23.1698  -16.4001 N   0  0  0  0  0  0  0  0  0  0  0  0
   18.0623  -22.5363  -15.7785 C   0  0  0  0  0  0  0  0  0  0  0  0
   18.6568  -23.2091  -14.9028 O   0  0  0  0  0  0  0  0  0  0  0  0
   18.4380  -21.1749  -16.2009 C   0  0  0  0  0  0  0  0  0  0  0  0
   17.5872  -20.5535  -17.2260 C   0  0  0  0  0  0  0  0  0  0  0  0
   17.8270  -19.1481  -17.6237 C   0  0  2  0  0  0  0  0  0  0  0  0
   19.1949  -18.7672  -17.8043 N   0  0  0  0  0  0  0  0  0  0  0  0
   17.0636  -18.1568  -16.8123 C   0  0  0  0  0  0  0  0  0  0  0  0
   17.6096  -17.4491  -15.9276 O   0  0  0  0  0  0  0  0  0  0  0  0
   15.6725  -17.9664  -17.0050 N   0  0  0  0  0  0  0  0  0  0  0  0
   14.9267  -17.0955  -16.0780 C   0  0  1  0  0  0  0  0  0  0  0  0
   13.7195  -16.6012  -16.8097 C   0  0  0  0  0  0  0  0  0  0  0  0
   12.8605  -15.6964  -15.9812 C   0  0  0  0  0  0  0  0  0  0  0  0
   11.6369  -15.2475  -16.7761 C   0  0  0  0  0  0  0  0  0  0  0  0
   10.8828  -14.1984  -15.9538 C   0  0  0  0  0  0  0  0  0  0  0  0
    9.6742  -13.8686  -16.6799 N   0  0  0  0  0  0  0  0  0  0  0  0
   14.4858  -17.9534  -14.9551 C   0  0  0  0  0  0  0  0  0  0  0  0
   14.4114  -19.2034  -15.0275 O   0  0  0  0  0  0  0  0  0  0  0  0
   14.1285  -17.3865  -13.7455 O   0  0  0  0  0  0  0  0  0  0  0  0
  2  3  1  0
  2  1  1  6
  3  4  1  0
  4  8  1  0
  5  4  2  0
  6  2  1  0
  7  6  2  0
  9 10  1  0
 10 12  1  0
 10 11  2  0
 12 13  1  0
 14 13  1  1
 14 15  1  0
 15  6  1  0
 16 17  2  0
 16 14  1  0
 18 16  1  0
 19 18  1  0
 19 20  1  6
 20 21  1  0
 21 22  1  0
 23 22  1  0
 23 24  1  0
 25 19  1  0
 26 25  2  0
 27 25  1  0
M  END
$$$$
