DQK.pdb
     RDKit          3D

 27 26  0  0  1  0  0  0  0  0999 V2000
   22.7844  -20.9399  -15.5939 N   0  0  0  0  0  0  0  0  0  0  0  0
   23.7538  -20.3046  -14.7274 C   0  0  1  0  0  0  0  0  0  0  0  0
   24.0938  -18.9713  -15.3123 C   0  0  0  0  0  0  0  0  0  0  0  0
   24.9037  -19.1683  -16.5386 C   0  0  0  0  0  0  0  0  0  0  0  0
   25.2391  -20.3084  -16.9671 O   0  0  0  0  0  0  0  0  0  0  0  0
   23.1398  -20.1163  -13.3675 C   0  0  0  0  0  0  0  0  0  0  0  0
   23.5609  -19.2288  -12.5806 O   0  0  0  0  0  0  0  0  0  0  0  0
   25.3311  -18.0790  -17.2750 O   0  0  0  0  0  0  0  0  0  0  0  0
   19.0629  -17.3433  -14.8738 N   0  0  0  0  0  0  0  0  0  0  0  0
   18.3178  -17.7627  -13.7244 C   0  0  0  0  0  0  0  0  0  0  0  0
   17.2173  -17.1891  -13.5441 O   0  0  0  0  0  0  0  0  0  0  0  0
   18.8770  -18.8147  -12.8564 C   0  0  0  0  0  0  0  0  0  0  0  0
   20.1884  -19.3519  -13.2469 C   0  0  0  0  0  0  0  0  0  0  0  0
   20.8053  -20.4330  -12.4461 C   0  0  2  0  0  0  0  0  0  0  0  0
   22.0662  -20.9243  -12.9128 N   0  0  0  0  0  0  0  0  0  0  0  0
   19.8613  -21.5331  -12.0957 C   0  0  0  0  0  0  0  0  0  0  0  0
   19.2242  -22.1757  -12.9691 O   0  0  0  0  0  0  0  0  0  0  0  0
   19.6382  -21.9070  -10.7472 N   0  0  0  0  0  0  0  0  0  0  0  0
   18.6832  -22.9890  -10.4453 C   0  0  1  0  0  0  0  0  0  0  0  0
   18.5689  -23.0761   -8.9566 C   0  0  0  0  0  0  0  0  0  0  0  0
   17.5805  -24.1058   -8.5029 C   0  0  0  0  0  0  0  0  0  0  0  0
   18.2527  -25.1205   -7.5813 C   0  0  0  0  0  0  0  0  0  0  0  0
   17.1928  -26.1169   -7.1025 C   0  0  0  0  0  0  0  0  0  0  0  0
   17.8751  -27.1344   -6.3307 N   0  0  0  0  0  0  0  0  0  0  0  0
   17.3774  -22.5667  -11.0001 C   0  0  0  0  0  0  0  0  0  0  0  0
   17.0502  -21.3667  -11.1620 O   0  0  0  0  0  0  0  0  0  0  0  0
   16.4407  -23.5137  -11.3720 O   0  0  0  0  0  0  0  0  0  0  0  0
  2  3  1  0
  2  1  1  6
  3  4  1  0
  4  8  1  0
  5  4  2  0
  6  2  1  0
  7  6  2  0
  9 10  1  0
 10 12  1  0
 10 11  2  0
 12 13  1  0
 14 13  1  6
 14 15  1  0
 15  6  1  0
 16 17  2  0
 16 14  1  0
 18 16  1  0
 19 18  1  0
 19 20  1  1
 20 21  1  0
 21 22  1  0
 23 22  1  0
 23 24  1  0
 25 19  1  0
 26 25  2  0
 27 25  1  0
M  END
$$$$
