LLY.pdb
     RDKit          3D

 29 29  0  0  1  0  0  0  0  0999 V2000
   22.0396  -31.4026  -14.4555 C   0  0  0  0  0  0  0  0  0  0  0  0
   21.3015  -32.7446  -14.2925 C   0  0  2  0  0  0  0  0  0  0  0  0
   19.8774  -32.5107  -14.6614 C   0  0  0  0  0  0  0  0  0  0  0  0
   21.5464  -33.1876  -12.9021 C   0  0  0  0  0  0  0  0  0  0  0  0
   22.9676  -33.3680  -12.4848 C   0  0  2  0  0  0  0  0  0  0  0  0
   23.4356  -34.5488  -13.2406 N   0  0  0  0  0  0  0  0  0  0  0  0
   23.1647  -33.6675  -11.0517 C   0  0  0  0  0  0  0  0  0  0  0  0
   22.9627  -34.8537  -10.6409 O   0  0  0  0  0  0  0  0  0  0  0  0
   26.0788  -34.7876   -8.1875 C   0  0  0  0  0  0  0  0  0  0  0  0
   26.1807  -33.2932   -8.5823 C   0  0  2  0  0  0  0  0  0  0  0  0
   27.4509  -32.8098   -7.9748 C   0  0  0  0  0  0  0  0  0  0  0  0
   24.9470  -32.6390   -8.1219 C   0  0  0  0  0  0  0  0  0  0  0  0
   23.6368  -33.1270   -8.6275 C   0  0  2  0  0  0  0  0  0  0  0  0
   23.5682  -32.7408  -10.0659 N   0  0  0  0  0  0  0  0  0  0  0  0
   22.5262  -32.4578   -7.9045 C   0  0  0  0  0  0  0  0  0  0  0  0
   22.3358  -31.1955   -8.0469 O   0  0  0  0  0  0  0  0  0  0  0  0
   20.3974  -27.5809  -10.7137 O   0  0  0  0  0  0  0  0  0  0  0  0
   20.1713  -28.7164   -9.9493 C   0  0  0  0  0  0  0  0  0  0  0  0
   19.5024  -28.6333   -8.7281 C   0  0  0  0  0  0  0  0  0  0  0  0
   19.2727  -29.7542   -7.9615 C   0  0  0  0  0  0  0  0  0  0  0  0
   19.7235  -30.9765   -8.4317 C   0  0  0  0  0  0  0  0  0  0  0  0
   19.5128  -32.1980   -7.6600 C   0  0  0  0  0  0  0  0  0  0  0  0
   20.4468  -32.3689   -6.4811 C   0  0  2  0  0  0  0  0  0  0  0  0
   21.6081  -33.0824   -7.0383 N   0  0  0  0  0  0  0  0  0  0  0  0
   19.7783  -33.1643   -5.4487 C   0  0  0  0  0  0  0  0  0  0  0  0
   18.6938  -32.7318   -4.7106 O   0  0  0  0  0  0  0  0  0  0  0  0
   20.3913  -31.0772   -9.6458 C   0  0  0  0  0  0  0  0  0  0  0  0
   20.6056  -29.9420  -10.3881 C   0  0  0  0  0  0  0  0  0  0  0  0
   20.2137  -34.3341   -5.2023 O   0  0  0  0  0  0  0  0  0  0  0  0
  2  4  1  0
  2  1  1  1
  3  2  1  0
  5  6  1  6
  5  4  1  0
  7  5  1  0
  8  7  2  0
 10  9  1  1
 10 12  1  0
 11 10  1  0
 13 12  1  1
 13 15  1  0
 13 14  1  0
 14  7  1  0
 15 24  1  0
 16 15  2  0
 17 18  1  0
 18 28  2  0
 19 20  2  0
 19 18  1  0
 20 21  1  0
 21 22  1  0
 21 27  2  0
 23 22  1  6
 23 25  1  0
 24 23  1  0
 25 29  2  0
 25 26  1  0
 28 27  1  0
M  END
$$$$
