LLY.pdb
     RDKit          3D

 29 29  0  0  1  0  0  0  0  0999 V2000
   13.2560  -12.1625   -9.1005 C   0  0  0  0  0  0  0  0  0  0  0  0
   12.3068  -11.5915  -10.1707 C   0  0  2  0  0  0  0  0  0  0  0  0
   12.3795  -12.4971  -11.3511 C   0  0  0  0  0  0  0  0  0  0  0  0
   12.7321  -10.1928  -10.4000 C   0  0  0  0  0  0  0  0  0  0  0  0
   12.6980   -9.2696   -9.2282 C   0  0  2  0  0  0  0  0  0  0  0  0
   11.2607   -9.0486   -8.9639 N   0  0  0  0  0  0  0  0  0  0  0  0
   13.3026   -7.9420   -9.4611 C   0  0  0  0  0  0  0  0  0  0  0  0
   12.7721   -7.1702  -10.3211 O   0  0  0  0  0  0  0  0  0  0  0  0
   13.2144   -3.7413   -8.3329 C   0  0  0  0  0  0  0  0  0  0  0  0
   13.7446   -4.7854   -7.3188 C   0  0  2  0  0  0  0  0  0  0  0  0
   13.8344   -4.0642   -6.0196 C   0  0  0  0  0  0  0  0  0  0  0  0
   15.0057   -5.3130   -7.8605 C   0  0  0  0  0  0  0  0  0  0  0  0
   14.9817   -6.0805   -9.1335 C   0  0  2  0  0  0  0  0  0  0  0  0
   14.4424   -7.4307   -8.8032 N   0  0  0  0  0  0  0  0  0  0  0  0
   16.3595   -6.2383   -9.6636 C   0  0  0  0  0  0  0  0  0  0  0  0
   17.3205   -6.5517   -8.8711 O   0  0  0  0  0  0  0  0  0  0  0  0
   22.8740   -8.8889  -14.8773 O   0  0  0  0  0  0  0  0  0  0  0  0
   21.6979   -8.5583  -14.2199 C   0  0  0  0  0  0  0  0  0  0  0  0
   21.6175   -8.6152  -12.8285 C   0  0  0  0  0  0  0  0  0  0  0  0
   20.4549   -8.2892  -12.1659 C   0  0  0  0  0  0  0  0  0  0  0  0
   19.3572   -7.9003  -12.9159 C   0  0  0  0  0  0  0  0  0  0  0  0
   18.0969   -7.5477  -12.2685 C   0  0  0  0  0  0  0  0  0  0  0  0
   18.1438   -6.2785  -11.4449 C   0  0  2  0  0  0  0  0  0  0  0  0
   16.7523   -6.0785  -11.0066 N   0  0  0  0  0  0  0  0  0  0  0  0
   18.6000   -5.1727  -12.2900 C   0  0  0  0  0  0  0  0  0  0  0  0
   17.7605   -4.2797  -12.9270 O   0  0  0  0  0  0  0  0  0  0  0  0
   19.4200   -7.8381  -14.3024 C   0  0  0  0  0  0  0  0  0  0  0  0
   20.5930   -8.1691  -14.9348 C   0  0  0  0  0  0  0  0  0  0  0  0
   19.8503   -5.0100  -12.4598 O   0  0  0  0  0  0  0  0  0  0  0  0
  2  4  1  0
  2  1  1  1
  3  2  1  0
  5  6  1  6
  5  4  1  0
  7  5  1  0
  8  7  2  0
 10  9  1  6
 10 12  1  0
 11 10  1  0
 13 12  1  1
 13 15  1  0
 13 14  1  0
 14  7  1  0
 15 24  1  0
 16 15  2  0
 17 18  1  0
 18 28  2  0
 19 20  2  0
 19 18  1  0
 20 21  1  0
 21 22  1  0
 21 27  2  0
 23 22  1  6
 23 25  1  0
 24 23  1  0
 25 29  2  0
 25 26  1  0
 28 27  1  0
M  END
$$$$
