LLY.pdb
     RDKit          3D

 29 29  0  0  1  0  0  0  0  0999 V2000
   27.5091  -20.2653  -17.4459 C   0  0  0  0  0  0  0  0  0  0  0  0
   28.5223  -20.5393  -16.3186 C   0  0  2  0  0  0  0  0  0  0  0  0
   29.5190  -21.5104  -16.8499 C   0  0  0  0  0  0  0  0  0  0  0  0
   27.7334  -20.9933  -15.1519 C   0  0  0  0  0  0  0  0  0  0  0  0
   26.5920  -20.1325  -14.7247 C   0  0  2  0  0  0  0  0  0  0  0  0
   27.2231  -18.9618  -14.0799 N   0  0  0  0  0  0  0  0  0  0  0  0
   25.6904  -20.7411  -13.7252 C   0  0  0  0  0  0  0  0  0  0  0  0
   25.0848  -21.8188  -14.0231 O   0  0  0  0  0  0  0  0  0  0  0  0
   26.4516  -21.9682   -9.4511 C   0  0  0  0  0  0  0  0  0  0  0  0
   26.1128  -20.4625   -9.5841 C   0  0  2  0  0  0  0  0  0  0  0  0
   26.2981  -19.8939   -8.2208 C   0  0  0  0  0  0  0  0  0  0  0  0
   24.7586  -20.3721  -10.1499 C   0  0  0  0  0  0  0  0  0  0  0  0
   24.5006  -20.9323  -11.5027 C   0  0  2  0  0  0  0  0  0  0  0  0
   25.4287  -20.2308  -12.4350 N   0  0  0  0  0  0  0  0  0  0  0  0
   23.1049  -20.6449  -11.9194 C   0  0  0  0  0  0  0  0  0  0  0  0
   22.7181  -19.4298  -12.0738 O   0  0  0  0  0  0  0  0  0  0  0  0
   21.3074  -19.2549  -18.6248 O   0  0  0  0  0  0  0  0  0  0  0  0
   21.0878  -19.9364  -17.4365 C   0  0  0  0  0  0  0  0  0  0  0  0
   19.8974  -19.7711  -16.7283 C   0  0  0  0  0  0  0  0  0  0  0  0
   19.6692  -20.4427  -15.5478 C   0  0  0  0  0  0  0  0  0  0  0  0
   20.6544  -21.2931  -15.0736 C   0  0  0  0  0  0  0  0  0  0  0  0
   20.4702  -22.0277  -13.8253 C   0  0  0  0  0  0  0  0  0  0  0  0
   20.7387  -21.2214  -12.5727 C   0  0  2  0  0  0  0  0  0  0  0  0
   22.1062  -21.6026  -12.1817 N   0  0  0  0  0  0  0  0  0  0  0  0
   19.7667  -21.5945  -11.5424 C   0  0  0  0  0  0  0  0  0  0  0  0
   18.4616  -21.1441  -11.5013 O   0  0  0  0  0  0  0  0  0  0  0  0
   21.8457  -21.4693  -15.7663 C   0  0  0  0  0  0  0  0  0  0  0  0
   22.0445  -20.7861  -16.9407 C   0  0  0  0  0  0  0  0  0  0  0  0
   20.1332  -22.3852  -10.6155 O   0  0  0  0  0  0  0  0  0  0  0  0
  2  4  1  0
  2  1  1  6
  3  2  1  0
  5  6  1  1
  5  4  1  0
  7  5  1  0
  8  7  2  0
 10  9  1  1
 10 12  1  0
 11 10  1  0
 13 12  1  1
 13 15  1  0
 13 14  1  0
 14  7  1  0
 15 24  1  0
 16 15  2  0
 17 18  1  0
 18 28  2  0
 19 20  2  0
 19 18  1  0
 20 21  1  0
 21 22  1  0
 21 27  2  0
 23 22  1  6
 23 25  1  0
 24 23  1  0
 25 29  2  0
 25 26  1  0
 28 27  1  0
M  END
$$$$
