LLY.pdb
     RDKit          3D

 29 29  0  0  1  0  0  0  0  0999 V2000
   26.0705  -31.6855   -8.2334 C   0  0  0  0  0  0  0  0  0  0  0  0
   25.2360  -32.9245   -7.8583 C   0  0  2  0  0  0  0  0  0  0  0  0
   24.0023  -32.4352   -7.1820 C   0  0  0  0  0  0  0  0  0  0  0  0
   26.1195  -33.7908   -7.0468 C   0  0  0  0  0  0  0  0  0  0  0  0
   27.4190  -34.1995   -7.6557 C   0  0  2  0  0  0  0  0  0  0  0  0
   27.0516  -35.1497   -8.7265 N   0  0  0  0  0  0  0  0  0  0  0  0
   28.3393  -34.9109   -6.7452 C   0  0  0  0  0  0  0  0  0  0  0  0
   28.1260  -36.1395   -6.4965 O   0  0  0  0  0  0  0  0  0  0  0  0
   32.9879  -36.1115   -6.4815 C   0  0  0  0  0  0  0  0  0  0  0  0
   32.5332  -34.6328   -6.4028 C   0  0  2  0  0  0  0  0  0  0  0  0
   33.7888  -33.8332   -6.3946 C   0  0  0  0  0  0  0  0  0  0  0  0
   31.6723  -34.5074   -5.2174 C   0  0  0  0  0  0  0  0  0  0  0  0
   30.3386  -35.1643   -5.2186 C   0  0  2  0  0  0  0  0  0  0  0  0
   29.4649  -34.3457   -6.1071 N   0  0  0  0  0  0  0  0  0  0  0  0
   29.7617  -35.1568   -3.8507 C   0  0  0  0  0  0  0  0  0  0  0  0
   29.4313  -34.0449   -3.2991 O   0  0  0  0  0  0  0  0  0  0  0  0
   25.0188  -37.4837    3.1589 O   0  0  0  0  0  0  0  0  0  0  0  0
   25.6921  -37.3894    1.9495 C   0  0  0  0  0  0  0  0  0  0  0  0
   26.6161  -38.3627    1.5691 C   0  0  0  0  0  0  0  0  0  0  0  0
   27.2899  -38.2788    0.3709 C   0  0  0  0  0  0  0  0  0  0  0  0
   27.0293  -37.1987   -0.4562 C   0  0  0  0  0  0  0  0  0  0  0  0
   27.7169  -37.0546   -1.7362 C   0  0  0  0  0  0  0  0  0  0  0  0
   28.9537  -36.1829   -1.6937 C   0  0  2  0  0  0  0  0  0  0  0  0
   29.5195  -36.2891   -3.0490 N   0  0  0  0  0  0  0  0  0  0  0  0
   29.8792  -36.7090   -0.6877 C   0  0  0  0  0  0  0  0  0  0  0  0
   31.0011  -37.4610   -0.9769 O   0  0  0  0  0  0  0  0  0  0  0  0
   26.1122  -36.2205   -0.0928 C   0  0  0  0  0  0  0  0  0  0  0  0
   25.4557  -36.3314    1.1081 C   0  0  0  0  0  0  0  0  0  0  0  0
   29.6483  -36.4667    0.5398 O   0  0  0  0  0  0  0  0  0  0  0  0
  2  4  1  0
  2  1  1  1
  3  2  1  0
  5  6  1  6
  5  4  1  0
  7  5  1  0
  8  7  2  0
 10  9  1  1
 10 12  1  0
 11 10  1  0
 13 12  1  1
 13 15  1  0
 13 14  1  0
 14  7  1  0
 15 24  1  0
 16 15  2  0
 17 18  1  0
 18 28  2  0
 19 20  2  0
 19 18  1  0
 20 21  1  0
 21 22  1  0
 21 27  2  0
 23 22  1  6
 23 25  1  0
 24 23  1  0
 25 29  2  0
 25 26  1  0
 28 27  1  0
M  END
$$$$
