LLY.pdb
     RDKit          3D

 29 29  0  0  1  0  0  0  0  0999 V2000
   33.4864  -34.0609   -6.8653 C   0  0  0  0  0  0  0  0  0  0  0  0
   32.2726  -34.9979   -7.0107 C   0  0  2  0  0  0  0  0  0  0  0  0
   31.1779  -34.2053   -7.6370 C   0  0  0  0  0  0  0  0  0  0  0  0
   31.9947  -35.5311   -5.6586 C   0  0  0  0  0  0  0  0  0  0  0  0
   33.0817  -36.3101   -4.9968 C   0  0  2  0  0  0  0  0  0  0  0  0
   33.0993  -37.6083   -5.7032 N   0  0  0  0  0  0  0  0  0  0  0  0
   32.8594  -36.6011   -3.5657 C   0  0  0  0  0  0  0  0  0  0  0  0
   32.2013  -37.6415   -3.2477 O   0  0  0  0  0  0  0  0  0  0  0  0
   35.4764  -37.3810    0.0855 C   0  0  0  0  0  0  0  0  0  0  0  0
   35.3893  -35.8902   -0.3264 C   0  0  2  0  0  0  0  0  0  0  0  0
   36.3475  -35.1779    0.5627 C   0  0  0  0  0  0  0  0  0  0  0  0
   33.9779  -35.4927   -0.2158 C   0  0  0  0  0  0  0  0  0  0  0  0
   32.9681  -36.1608   -1.0785 C   0  0  2  0  0  0  0  0  0  0  0  0
   33.3200  -35.8167   -2.4858 N   0  0  0  0  0  0  0  0  0  0  0  0
   31.6125  -35.6304   -0.7867 C   0  0  0  0  0  0  0  0  0  0  0  0
   31.1012  -35.7826    0.3818 O   0  0  0  0  0  0  0  0  0  0  0  0
   23.6162  -32.0053   -2.4161 O   0  0  0  0  0  0  0  0  0  0  0  0
   24.9434  -32.4093   -2.4161 C   0  0  0  0  0  0  0  0  0  0  0  0
   25.6434  -32.5612   -1.2191 C   0  0  0  0  0  0  0  0  0  0  0  0
   26.9611  -32.9617   -1.2078 C   0  0  0  0  0  0  0  0  0  0  0  0
   27.5828  -33.2127   -2.4198 C   0  0  0  0  0  0  0  0  0  0  0  0
   28.9795  -33.6354   -2.4699 C   0  0  0  0  0  0  0  0  0  0  0  0
   29.3950  -34.5747   -1.3579 C   0  0  2  0  0  0  0  0  0  0  0  0
   30.7818  -34.9407   -1.6910 N   0  0  0  0  0  0  0  0  0  0  0  0
   28.5181  -35.7479   -1.3660 C   0  0  0  0  0  0  0  0  0  0  0  0
   28.6367  -36.8046   -2.2476 O   0  0  0  0  0  0  0  0  0  0  0  0
   26.9004  -33.0664   -3.6211 C   0  0  0  0  0  0  0  0  0  0  0  0
   25.5872  -32.6657   -3.6006 C   0  0  0  0  0  0  0  0  0  0  0  0
   27.5788  -35.8135   -0.5104 O   0  0  0  0  0  0  0  0  0  0  0  0
  2  4  1  0
  2  1  1  1
  3  2  1  0
  5  6  1  6
  5  4  1  0
  7  5  1  0
  8  7  2  0
 10  9  1  1
 10 12  1  0
 11 10  1  0
 13 12  1  1
 13 15  1  0
 13 14  1  0
 14  7  1  0
 15 24  1  0
 16 15  2  0
 17 18  1  0
 18 28  2  0
 19 20  2  0
 19 18  1  0
 20 21  1  0
 21 22  1  0
 21 27  2  0
 23 22  1  6
 23 25  1  0
 24 23  1  0
 25 29  2  0
 25 26  1  0
 28 27  1  0
M  END
$$$$
