MSL.pdb
     RDKit          3D

 23 22  0  0  1  0  0  0  0  0999 V2000
    8.7480  -11.5507   19.5881 C   0  0  0  0  0  0  0  0  0  0  0  0
    8.0581  -12.4240   18.1652 S   0  0  0  0  0  0  0  0  0  0  0  0
    8.1085  -14.2255   18.4009 C   0  0  0  0  0  0  0  0  0  0  0  0
    8.0374  -14.5855   19.8632 C   0  0  0  0  0  0  0  0  0  0  0  0
    8.0426  -16.0873   20.0536 C   0  0  2  0  0  0  0  0  0  0  0  0
    7.0266  -16.7000   19.2231 N   0  0  0  0  0  0  0  0  0  0  0  0
    7.8084  -16.4808   21.4500 C   0  0  0  0  0  0  0  0  0  0  0  0
    6.6561  -16.5077   21.9104 O   0  0  0  0  0  0  0  0  0  0  0  0
   10.6862  -18.3763   23.7112 O   0  0  0  0  0  0  0  0  0  0  0  0
    9.4031  -18.3882   24.1925 C   0  0  0  0  0  0  0  0  0  0  0  0
    8.6939  -17.1302   23.7379 C   0  0  2  0  0  0  0  0  0  0  0  0
    8.8610  -16.8497   22.3507 N   0  0  0  0  0  0  0  0  0  0  0  0
    9.1344  -16.0395   24.6318 C   0  0  0  0  0  0  0  0  0  0  0  0
   10.1865  -15.4261   24.3297 O   0  0  0  0  0  0  0  0  0  0  0  0
    7.7920  -12.1279   25.5644 C   0  0  0  0  0  0  0  0  0  0  0  0
    6.9296  -13.2084   26.2460 C   0  0  2  0  0  0  0  0  0  0  0  0
    5.7481  -12.4900   26.8839 C   0  0  0  0  0  0  0  0  0  0  0  0
    7.8176  -13.8193   27.2974 C   0  0  0  0  0  0  0  0  0  0  0  0
    8.9327  -14.6305   26.7343 C   0  0  2  0  0  0  0  0  0  0  0  0
    8.4537  -15.6410   25.7995 N   0  0  0  0  0  0  0  0  0  0  0  0
    9.8129  -15.2507   27.7342 C   0  0  0  0  0  0  0  0  0  0  0  0
   10.4282  -14.4839   28.5565 O   0  0  0  0  0  0  0  0  0  0  0  0
   10.0316  -16.6006   27.8617 O   0  0  0  0  0  0  0  0  0  0  0  0
  2  1  1  0
  3  2  1  0
  3  4  1  0
  5  4  1  0
  5  6  1  6
  7  5  1  0
  8  7  2  0
  9 10  1  0
 11 10  1  1
 11 13  1  0
 11 12  1  0
 12  7  1  0
 13 20  1  0
 14 13  2  0
 16 15  1  1
 16 17  1  0
 18 16  1  0
 19 18  1  1
 19 21  1  0
 20 19  1  0
 21 22  2  0
 21 23  1  0
M  END
$$$$
