MSL.pdb
     RDKit          3D

 23 22  0  0  1  0  0  0  0  0999 V2000
    9.1653  -11.9926   20.0255 C   0  0  0  0  0  0  0  0  0  0  0  0
    8.0204  -12.6539   18.7947 S   0  0  0  0  0  0  0  0  0  0  0  0
    7.5386  -14.3628   19.1836 C   0  0  0  0  0  0  0  0  0  0  0  0
    8.7421  -15.2695   19.2350 C   0  0  0  0  0  0  0  0  0  0  0  0
    8.3559  -16.6589   19.6956 C   0  0  2  0  0  0  0  0  0  0  0  0
    7.5088  -17.2954   18.7083 N   0  0  0  0  0  0  0  0  0  0  0  0
    7.6507  -16.6512   20.9849 C   0  0  0  0  0  0  0  0  0  0  0  0
    6.4290  -16.4375   21.0318 O   0  0  0  0  0  0  0  0  0  0  0  0
    8.6824  -18.8324   24.2122 O   0  0  0  0  0  0  0  0  0  0  0  0
    7.4751  -18.1865   24.1552 C   0  0  0  0  0  0  0  0  0  0  0  0
    7.6719  -16.8279   23.5165 C   0  0  2  0  0  0  0  0  0  0  0  0
    8.3036  -16.8828   22.2402 N   0  0  0  0  0  0  0  0  0  0  0  0
    8.3776  -15.9852   24.5037 C   0  0  0  0  0  0  0  0  0  0  0  0
    9.6291  -15.9291   24.4349 O   0  0  0  0  0  0  0  0  0  0  0  0
    7.6885  -11.7827   25.5307 C   0  0  0  0  0  0  0  0  0  0  0  0
    6.6932  -12.6971   26.2716 C   0  0  2  0  0  0  0  0  0  0  0  0
    5.7384  -11.7847   27.0296 C   0  0  0  0  0  0  0  0  0  0  0  0
    7.5323  -13.5064   27.2245 C   0  0  0  0  0  0  0  0  0  0  0  0
    8.4363  -14.4749   26.5439 C   0  0  2  0  0  0  0  0  0  0  0  0
    7.7411  -15.2401   25.5164 N   0  0  0  0  0  0  0  0  0  0  0  0
    9.1579  -15.3854   27.4436 C   0  0  0  0  0  0  0  0  0  0  0  0
    8.7835  -16.6103   27.4916 O   0  0  0  0  0  0  0  0  0  0  0  0
   10.2137  -15.0271   28.2457 O   0  0  0  0  0  0  0  0  0  0  0  0
  2  1  1  0
  3  2  1  0
  3  4  1  0
  5  4  1  0
  5  6  1  6
  7  5  1  0
  8  7  2  0
  9 10  1  0
 11 10  1  1
 11 13  1  0
 11 12  1  0
 12  7  1  0
 13 20  1  0
 14 13  2  0
 16 15  1  1
 16 17  1  0
 18 16  1  0
 19 18  1  1
 19 21  1  0
 20 19  1  0
 21 22  2  0
 21 23  1  0
M  END
$$$$
