MSL.pdb
     RDKit          3D

 23 22  0  0  1  0  0  0  0  0999 V2000
   12.2269  -22.8018   23.5940 C   0  0  0  0  0  0  0  0  0  0  0  0
   11.0695  -22.8083   22.2070 S   0  0  0  0  0  0  0  0  0  0  0  0
    9.6668  -21.6914   22.5047 C   0  0  0  0  0  0  0  0  0  0  0  0
   10.1356  -20.2755   22.7252 C   0  0  0  0  0  0  0  0  0  0  0  0
    8.9747  -19.3662   23.0674 C   0  0  2  0  0  0  0  0  0  0  0  0
    7.8421  -19.6587   22.2133 N   0  0  0  0  0  0  0  0  0  0  0  0
    9.3121  -17.9426   22.9294 C   0  0  0  0  0  0  0  0  0  0  0  0
   10.4296  -17.5255   23.2723 O   0  0  0  0  0  0  0  0  0  0  0  0
    6.4291  -15.1208   21.8385 O   0  0  0  0  0  0  0  0  0  0  0  0
    7.6856  -14.8577   21.3588 C   0  0  0  0  0  0  0  0  0  0  0  0
    8.7022  -15.5857   22.2126 C   0  0  2  0  0  0  0  0  0  0  0  0
    8.4029  -16.9657   22.4055 N   0  0  0  0  0  0  0  0  0  0  0  0
    8.8420  -14.8172   23.4666 C   0  0  0  0  0  0  0  0  0  0  0  0
    9.3440  -13.6695   23.3950 O   0  0  0  0  0  0  0  0  0  0  0  0
    7.9665  -11.6717   26.1383 C   0  0  0  0  0  0  0  0  0  0  0  0
    6.9500  -12.7801   25.8009 C   0  0  2  0  0  0  0  0  0  0  0  0
    5.6006  -12.3157   26.3324 C   0  0  0  0  0  0  0  0  0  0  0  0
    7.4298  -13.9979   26.5454 C   0  0  0  0  0  0  0  0  0  0  0  0
    8.6842  -14.5774   25.9893 C   0  0  2  0  0  0  0  0  0  0  0  0
    8.4496  -15.2847   24.7367 N   0  0  0  0  0  0  0  0  0  0  0  0
    9.4329  -15.4368   26.9167 C   0  0  0  0  0  0  0  0  0  0  0  0
    9.8034  -14.9379   28.0377 O   0  0  0  0  0  0  0  0  0  0  0  0
    9.7708  -16.7466   26.6781 O   0  0  0  0  0  0  0  0  0  0  0  0
  2  1  1  0
  3  2  1  0
  3  4  1  0
  5  4  1  0
  5  6  1  6
  7  5  1  0
  8  7  2  0
  9 10  1  0
 11 10  1  6
 11 13  1  0
 11 12  1  0
 12  7  1  0
 13 20  1  0
 14 13  2  0
 16 15  1  1
 16 17  1  0
 18 16  1  0
 19 18  1  1
 19 21  1  0
 20 19  1  0
 21 22  2  0
 21 23  1  0
M  END
$$$$
