MSL.pdb
     RDKit          3D

 23 22  0  0  1  0  0  0  0  0999 V2000
    8.5791  -11.8297   19.9738 C   0  0  0  0  0  0  0  0  0  0  0  0
    8.1579  -12.6003   18.3952 S   0  0  0  0  0  0  0  0  0  0  0  0
    7.2964  -14.1827   18.6353 C   0  0  0  0  0  0  0  0  0  0  0  0
    7.3301  -14.6068   20.0817 C   0  0  0  0  0  0  0  0  0  0  0  0
    7.5931  -16.0925   20.2059 C   0  0  2  0  0  0  0  0  0  0  0  0
    6.4842  -16.8442   19.6557 N   0  0  0  0  0  0  0  0  0  0  0  0
    7.8027  -16.5149   21.5978 C   0  0  0  0  0  0  0  0  0  0  0  0
    6.8780  -16.4424   22.4225 O   0  0  0  0  0  0  0  0  0  0  0  0
   11.6684  -17.3850   23.0981 O   0  0  0  0  0  0  0  0  0  0  0  0
   10.6268  -18.0838   23.6502 C   0  0  0  0  0  0  0  0  0  0  0  0
    9.3467  -17.2998   23.4526 C   0  0  2  0  0  0  0  0  0  0  0  0
    9.0507  -17.0245   22.0860 N   0  0  0  0  0  0  0  0  0  0  0  0
    9.4422  -16.0962   24.3040 C   0  0  0  0  0  0  0  0  0  0  0  0
   10.0043  -15.0832   23.8221 O   0  0  0  0  0  0  0  0  0  0  0  0
    6.1286  -12.4794   27.4153 C   0  0  0  0  0  0  0  0  0  0  0  0
    7.6128  -12.8812   27.3091 C   0  0  2  0  0  0  0  0  0  0  0  0
    8.3165  -11.7665   26.5469 C   0  0  0  0  0  0  0  0  0  0  0  0
    7.6211  -14.1615   26.5167 C   0  0  0  0  0  0  0  0  0  0  0  0
    8.9644  -14.7997   26.4342 C   0  0  2  0  0  0  0  0  0  0  0  0
    8.9448  -16.0082   25.6195 N   0  0  0  0  0  0  0  0  0  0  0  0
    9.5968  -15.0802   27.7305 C   0  0  0  0  0  0  0  0  0  0  0  0
    9.6016  -16.2908   28.1514 O   0  0  0  0  0  0  0  0  0  0  0  0
   10.1913  -14.1404   28.5366 O   0  0  0  0  0  0  0  0  0  0  0  0
  2  1  1  0
  3  2  1  0
  3  4  1  0
  5  4  1  0
  5  6  1  1
  7  5  1  0
  8  7  2  0
  9 10  1  0
 11 10  1  6
 11 13  1  0
 11 12  1  0
 12  7  1  0
 13 20  1  0
 14 13  2  0
 16 15  1  6
 16 17  1  0
 18 16  1  0
 19 18  1  1
 19 21  1  0
 20 19  1  0
 21 22  2  0
 21 23  1  0
M  END
$$$$
