MSL.pdb
     RDKit          3D

 23 22  0  0  1  0  0  0  0  0999 V2000
    8.7918  -11.5078   19.3649 C   0  0  0  0  0  0  0  0  0  0  0  0
    8.4813  -12.3593   17.8022 S   0  0  0  0  0  0  0  0  0  0  0  0
    8.7984  -14.1436   17.9416 C   0  0  0  0  0  0  0  0  0  0  0  0
    8.1896  -14.7081   19.2001 C   0  0  0  0  0  0  0  0  0  0  0  0
    8.5005  -16.1831   19.3393 C   0  0  2  0  0  0  0  0  0  0  0  0
    7.7993  -16.9399   18.3228 N   0  0  0  0  0  0  0  0  0  0  0  0
    8.1333  -16.7160   20.6588 C   0  0  0  0  0  0  0  0  0  0  0  0
    6.9405  -16.8762   20.9621 O   0  0  0  0  0  0  0  0  0  0  0  0
   10.9853  -18.0479   23.4979 O   0  0  0  0  0  0  0  0  0  0  0  0
    9.6641  -18.3664   23.6744 C   0  0  0  0  0  0  0  0  0  0  0  0
    8.8082  -17.2929   23.0362 C   0  0  2  0  0  0  0  0  0  0  0  0
    9.0966  -17.0769   21.6574 N   0  0  0  0  0  0  0  0  0  0  0  0
    8.9348  -16.0842   23.8761 C   0  0  0  0  0  0  0  0  0  0  0  0
    9.8575  -15.2785   23.6044 O   0  0  0  0  0  0  0  0  0  0  0  0
    5.6384  -12.2640   27.2540 C   0  0  0  0  0  0  0  0  0  0  0  0
    7.0808  -12.7631   27.0392 C   0  0  2  0  0  0  0  0  0  0  0  0
    7.8514  -11.6173   26.3971 C   0  0  0  0  0  0  0  0  0  0  0  0
    6.9605  -13.9267   26.0912 C   0  0  0  0  0  0  0  0  0  0  0  0
    8.2537  -14.6202   25.8356 C   0  0  2  0  0  0  0  0  0  0  0  0
    8.0900  -15.7743   24.9606 N   0  0  0  0  0  0  0  0  0  0  0  0
    8.9966  -15.0085   27.0425 C   0  0  0  0  0  0  0  0  0  0  0  0
    9.5332  -14.0815   27.7464 O   0  0  0  0  0  0  0  0  0  0  0  0
    9.1638  -16.2985   27.4834 O   0  0  0  0  0  0  0  0  0  0  0  0
  2  1  1  0
  3  2  1  0
  3  4  1  0
  5  4  1  0
  5  6  1  6
  7  5  1  0
  8  7  2  0
  9 10  1  0
 11 10  1  1
 11 13  1  0
 11 12  1  0
 12  7  1  0
 13 20  1  0
 14 13  2  0
 16 15  1  6
 16 17  1  0
 18 16  1  0
 19 18  1  1
 19 21  1  0
 20 19  1  0
 21 22  2  0
 21 23  1  0
M  END
$$$$
