MSL.pdb
     RDKit          3D

 23 22  0  0  1  0  0  0  0  0999 V2000
    8.2282  -11.5822   19.3129 C   0  0  0  0  0  0  0  0  0  0  0  0
    8.1710  -12.4351   17.7215 S   0  0  0  0  0  0  0  0  0  0  0  0
    8.5013  -14.2128   17.9063 C   0  0  0  0  0  0  0  0  0  0  0  0
    8.2237  -14.6747   19.3144 C   0  0  0  0  0  0  0  0  0  0  0  0
    8.4040  -16.1724   19.4401 C   0  0  2  0  0  0  0  0  0  0  0  0
    7.5396  -16.8604   18.5036 N   0  0  0  0  0  0  0  0  0  0  0  0
    8.1158  -16.6647   20.7945 C   0  0  0  0  0  0  0  0  0  0  0  0
    6.9433  -16.7812   21.1845 O   0  0  0  0  0  0  0  0  0  0  0  0
   11.1486  -17.9503   23.4893 O   0  0  0  0  0  0  0  0  0  0  0  0
    9.8494  -18.3362   23.6930 C   0  0  0  0  0  0  0  0  0  0  0  0
    8.9259  -17.2827   23.1187 C   0  0  2  0  0  0  0  0  0  0  0  0
    9.1364  -17.0334   21.7314 N   0  0  0  0  0  0  0  0  0  0  0  0
    9.0536  -16.0846   23.9737 C   0  0  0  0  0  0  0  0  0  0  0  0
    9.9612  -15.2638   23.6966 O   0  0  0  0  0  0  0  0  0  0  0  0
    5.8623  -12.0313   27.0283 C   0  0  0  0  0  0  0  0  0  0  0  0
    7.2730  -12.6493   26.9673 C   0  0  2  0  0  0  0  0  0  0  0  0
    8.1892  -11.5945   26.3616 C   0  0  0  0  0  0  0  0  0  0  0  0
    7.1455  -13.8386   26.0528 C   0  0  0  0  0  0  0  0  0  0  0  0
    8.3885  -14.6544   25.9633 C   0  0  2  0  0  0  0  0  0  0  0  0
    8.2258  -15.8009   25.0781 N   0  0  0  0  0  0  0  0  0  0  0  0
    8.9350  -15.0930   27.2549 C   0  0  0  0  0  0  0  0  0  0  0  0
    8.6734  -16.2844   27.6487 O   0  0  0  0  0  0  0  0  0  0  0  0
    9.7132  -14.3221   28.0835 O   0  0  0  0  0  0  0  0  0  0  0  0
  2  1  1  0
  3  2  1  0
  3  4  1  0
  5  4  1  0
  5  6  1  6
  7  5  1  0
  8  7  2  0
  9 10  1  0
 11 10  1  1
 11 13  1  0
 11 12  1  0
 12  7  1  0
 13 20  1  0
 14 13  2  0
 16 15  1  6
 16 17  1  0
 18 16  1  0
 19 18  1  1
 19 21  1  0
 20 19  1  0
 21 22  2  0
 21 23  1  0
M  END
$$$$
