MSL.pdb
     RDKit          3D

 23 22  0  0  1  0  0  0  0  0999 V2000
    8.3381  -11.6556   19.6160 C   0  0  0  0  0  0  0  0  0  0  0  0
    9.0281  -12.5325   18.1953 S   0  0  0  0  0  0  0  0  0  0  0  0
    7.9608  -13.9109   17.6809 C   0  0  0  0  0  0  0  0  0  0  0  0
    7.3869  -14.6301   18.8752 C   0  0  0  0  0  0  0  0  0  0  0  0
    8.3321  -15.7054   19.3673 C   0  0  2  0  0  0  0  0  0  0  0  0
    8.3369  -16.8252   18.4488 N   0  0  0  0  0  0  0  0  0  0  0  0
    7.9801  -16.1975   20.7065 C   0  0  0  0  0  0  0  0  0  0  0  0
    6.8017  -16.1734   21.0953 O   0  0  0  0  0  0  0  0  0  0  0  0
   10.8553  -17.8882   23.2847 O   0  0  0  0  0  0  0  0  0  0  0  0
    9.5361  -18.1633   23.5344 C   0  0  0  0  0  0  0  0  0  0  0  0
    8.6858  -17.0317   22.9970 C   0  0  2  0  0  0  0  0  0  0  0  0
    8.9427  -16.7236   21.6295 N   0  0  0  0  0  0  0  0  0  0  0  0
    8.8585  -15.8881   23.9163 C   0  0  0  0  0  0  0  0  0  0  0  0
    9.8801  -15.1738   23.7740 O   0  0  0  0  0  0  0  0  0  0  0  0
    5.7637  -11.8659   27.2380 C   0  0  0  0  0  0  0  0  0  0  0  0
    7.1336  -12.5663   27.1463 C   0  0  2  0  0  0  0  0  0  0  0  0
    8.1321  -11.5186   26.6727 C   0  0  0  0  0  0  0  0  0  0  0  0
    6.9580  -13.6466   26.1122 C   0  0  0  0  0  0  0  0  0  0  0  0
    8.1727  -14.4867   25.9194 C   0  0  2  0  0  0  0  0  0  0  0  0
    7.9542  -15.5448   24.9411 N   0  0  0  0  0  0  0  0  0  0  0  0
    8.7349  -15.0539   27.1529 C   0  0  0  0  0  0  0  0  0  0  0  0
    9.4112  -14.2812   27.9200 O   0  0  0  0  0  0  0  0  0  0  0  0
    8.5920  -16.3590   27.5562 O   0  0  0  0  0  0  0  0  0  0  0  0
  2  1  1  0
  3  2  1  0
  3  4  1  0
  5  4  1  0
  5  6  1  6
  7  5  1  0
  8  7  2  0
  9 10  1  0
 11 10  1  1
 11 13  1  0
 11 12  1  0
 12  7  1  0
 13 20  1  0
 14 13  2  0
 16 15  1  6
 16 17  1  0
 18 16  1  0
 19 18  1  1
 19 21  1  0
 20 19  1  0
 21 22  2  0
 21 23  1  0
M  END
$$$$
