MSL.pdb
     RDKit          3D

 23 22  0  0  1  0  0  0  0  0999 V2000
    7.4821  -11.6103   19.7831 C   0  0  0  0  0  0  0  0  0  0  0  0
    7.8689  -12.4380   18.2247 S   0  0  0  0  0  0  0  0  0  0  0  0
    8.2853  -14.1879   18.4854 C   0  0  0  0  0  0  0  0  0  0  0  0
    7.9808  -14.6153   19.8989 C   0  0  0  0  0  0  0  0  0  0  0  0
    8.2465  -16.0935   20.0884 C   0  0  2  0  0  0  0  0  0  0  0  0
    7.3915  -16.8711   19.2155 N   0  0  0  0  0  0  0  0  0  0  0  0
    8.0290  -16.5338   21.4735 C   0  0  0  0  0  0  0  0  0  0  0  0
    6.8775  -16.6764   21.9140 O   0  0  0  0  0  0  0  0  0  0  0  0
   10.9981  -18.2467   23.7949 O   0  0  0  0  0  0  0  0  0  0  0  0
    9.6992  -18.3440   24.2210 C   0  0  0  0  0  0  0  0  0  0  0  0
    8.9386  -17.1148   23.7703 C   0  0  2  0  0  0  0  0  0  0  0  0
    9.0978  -16.8206   22.3850 N   0  0  0  0  0  0  0  0  0  0  0  0
    9.3301  -16.0110   24.6708 C   0  0  0  0  0  0  0  0  0  0  0  0
   10.3889  -15.3910   24.4084 O   0  0  0  0  0  0  0  0  0  0  0  0
    8.7072  -11.9690   25.5400 C   0  0  0  0  0  0  0  0  0  0  0  0
    7.5028  -12.8384   25.9511 C   0  0  2  0  0  0  0  0  0  0  0  0
    6.3920  -11.8829   26.3658 C   0  0  0  0  0  0  0  0  0  0  0  0
    7.9813  -13.6478   27.1272 C   0  0  0  0  0  0  0  0  0  0  0  0
    9.0504  -14.6248   26.7797 C   0  0  2  0  0  0  0  0  0  0  0  0
    8.5954  -15.6068   25.8033 N   0  0  0  0  0  0  0  0  0  0  0  0
    9.6620  -15.3074   27.9283 C   0  0  0  0  0  0  0  0  0  0  0  0
    9.3584  -16.5356   28.1333 O   0  0  0  0  0  0  0  0  0  0  0  0
   10.5436  -14.7304   28.8093 O   0  0  0  0  0  0  0  0  0  0  0  0
  2  1  1  0
  3  2  1  0
  3  4  1  0
  5  4  1  0
  5  6  1  6
  7  5  1  0
  8  7  2  0
  9 10  1  0
 11 10  1  1
 11 13  1  0
 11 12  1  0
 12  7  1  0
 13 20  1  0
 14 13  2  0
 16 15  1  1
 16 17  1  0
 18 16  1  0
 19 18  1  1
 19 21  1  0
 20 19  1  0
 21 22  2  0
 21 23  1  0
M  END
$$$$
