MSL.pdb
     RDKit          3D

 23 22  0  0  1  0  0  0  0  0999 V2000
    8.9422  -12.0956   19.7058 C   0  0  0  0  0  0  0  0  0  0  0  0
    8.0500  -12.8607   18.3340 S   0  0  0  0  0  0  0  0  0  0  0  0
    7.3184  -14.4519   18.8203 C   0  0  0  0  0  0  0  0  0  0  0  0
    8.2555  -15.2343   19.7051 C   0  0  0  0  0  0  0  0  0  0  0  0
    7.6248  -16.5381   20.1455 C   0  0  2  0  0  0  0  0  0  0  0  0
    6.4063  -16.7805   19.4011 N   0  0  0  0  0  0  0  0  0  0  0  0
    7.3103  -16.5573   21.5809 C   0  0  0  0  0  0  0  0  0  0  0  0
    6.2279  -16.1112   21.9931 O   0  0  0  0  0  0  0  0  0  0  0  0
    9.6360  -18.7186   24.2832 O   0  0  0  0  0  0  0  0  0  0  0  0
    8.3389  -18.4344   24.6222 C   0  0  0  0  0  0  0  0  0  0  0  0
    7.9343  -17.1274   23.9738 C   0  0  2  0  0  0  0  0  0  0  0  0
    8.2033  -17.0763   22.5752 N   0  0  0  0  0  0  0  0  0  0  0  0
    8.5715  -16.0447   24.7512 C   0  0  0  0  0  0  0  0  0  0  0  0
    9.6899  -15.6281   24.3638 O   0  0  0  0  0  0  0  0  0  0  0  0
    7.1806  -12.1902   25.4603 C   0  0  0  0  0  0  0  0  0  0  0  0
    6.5483  -13.1181   26.5161 C   0  0  2  0  0  0  0  0  0  0  0  0
    5.5453  -12.2781   27.2953 C   0  0  0  0  0  0  0  0  0  0  0  0
    7.6890  -13.5486   27.3996 C   0  0  0  0  0  0  0  0  0  0  0  0
    8.6685  -14.4367   26.7137 C   0  0  2  0  0  0  0  0  0  0  0  0
    8.0090  -15.4479   25.8970 N   0  0  0  0  0  0  0  0  0  0  0  0
    9.6530  -15.0730   27.5998 C   0  0  0  0  0  0  0  0  0  0  0  0
   10.4726  -14.3184   28.2335 O   0  0  0  0  0  0  0  0  0  0  0  0
    9.7670  -16.4259   27.8077 O   0  0  0  0  0  0  0  0  0  0  0  0
  2  1  1  0
  3  2  1  0
  3  4  1  0
  5  4  1  0
  5  6  1  6
  7  5  1  0
  8  7  2  0
  9 10  1  0
 11 10  1  1
 11 13  1  0
 11 12  1  0
 12  7  1  0
 13 20  1  0
 14 13  2  0
 16 15  1  6
 16 17  1  0
 18 16  1  0
 19 18  1  1
 19 21  1  0
 20 19  1  0
 21 22  2  0
 21 23  1  0
M  END
$$$$
