IEA.pdb
     RDKit          3D

 23 22  0  0  1  0  0  0  0  0999 V2000
    5.6800  -11.7756   26.9921 C   0  0  0  0  0  0  0  0  0  0  0  0
    5.5363  -12.9316   26.0253 C   0  0  0  0  0  0  0  0  0  0  0  0
    6.8553  -13.6565   25.9383 C   0  0  2  0  0  0  0  0  0  0  0  0
    7.9074  -12.6636   25.4975 C   0  0  0  0  0  0  0  0  0  0  0  0
    6.7916  -14.8409   24.9985 C   0  0  2  0  0  0  0  0  0  0  0  0
    5.6720  -15.6948   25.2632 N   0  0  0  0  0  0  0  0  0  0  0  0
    8.0506  -15.6637   25.1046 C   0  0  0  0  0  0  0  0  0  0  0  0
    8.0987  -16.4994   26.0246 O   0  0  0  0  0  0  0  0  0  0  0  0
    9.1195  -15.4983   24.2107 N   0  0  0  0  0  0  0  0  0  0  0  0
   10.4114  -16.1182   24.2184 C   0  0  1  0  0  0  0  0  0  0  0  0
   11.1991  -15.8370   22.9417 C   0  0  0  0  0  0  0  0  0  0  0  0
   10.4721  -16.4109   21.7739 C   0  0  0  0  0  0  0  0  0  0  0  0
   11.2024  -17.6007   21.2407 C   0  0  0  0  0  0  0  0  0  0  0  0
   11.2743  -17.7941   20.0149 O   0  0  0  0  0  0  0  0  0  0  0  0
   11.1475  -15.8896   25.4457 C   0  0  0  0  0  0  0  0  0  0  0  0
   12.3965  -15.6404   25.4394 O   0  0  0  0  0  0  0  0  0  0  0  0
   11.8026  -18.4931   22.1169 O   0  0  0  0  0  0  0  0  0  0  0  0
   10.5827  -14.3352   28.4938 C   0  0  0  0  0  0  0  0  0  0  0  0
   11.2233  -15.6094   27.9470 C   0  0  2  0  0  0  0  0  0  0  0  0
   10.5239  -15.9296   26.7202 N   0  0  0  0  0  0  0  0  0  0  0  0
   11.1369  -16.7206   28.9294 C   0  0  0  0  0  0  0  0  0  0  0  0
   10.4258  -17.8797   28.6451 O   0  0  0  0  0  0  0  0  0  0  0  0
   11.7252  -16.5900   30.0328 O   0  0  0  0  0  0  0  0  0  0  0  0
  2  3  1  0
  2  1  1  0
  3  4  1  6
  5  7  1  0
  5  3  1  0
  5  6  1  1
  7  8  2  0
  9 10  1  0
  9  7  1  0
 10 11  1  6
 12 11  1  0
 12 13  1  0
 13 17  1  0
 14 13  2  0
 15 20  1  0
 15 10  1  0
 16 15  2  0
 19 18  1  1
 19 21  1  0
 19 20  1  0
 21 22  1  0
 23 21  2  0
M  END
$$$$
