IEA.pdb
     RDKit          3D

 23 22  0  0  1  0  0  0  0  0999 V2000
    7.3066  -11.7275   19.7105 C   0  0  0  0  0  0  0  0  0  0  0  0
    7.4346  -13.1507   19.2109 C   0  0  0  0  0  0  0  0  0  0  0  0
    7.8412  -14.0335   20.3634 C   0  0  2  0  0  0  0  0  0  0  0  0
    9.1409  -13.5017   20.9250 C   0  0  0  0  0  0  0  0  0  0  0  0
    7.9755  -15.4827   19.9491 C   0  0  2  0  0  0  0  0  0  0  0  0
    6.7496  -16.0281   19.4466 N   0  0  0  0  0  0  0  0  0  0  0  0
    8.4245  -16.3234   21.1173 C   0  0  0  0  0  0  0  0  0  0  0  0
    7.5474  -16.6728   21.9270 O   0  0  0  0  0  0  0  0  0  0  0  0
    9.7666  -16.6964   21.2873 N   0  0  0  0  0  0  0  0  0  0  0  0
   10.3549  -17.5302   22.2933 C   0  0  1  0  0  0  0  0  0  0  0  0
   11.8050  -17.8869   21.9781 C   0  0  0  0  0  0  0  0  0  0  0  0
   12.3451  -18.7646   23.0549 C   0  0  0  0  0  0  0  0  0  0  0  0
   13.7774  -19.0952   22.7863 C   0  0  0  0  0  0  0  0  0  0  0  0
   14.6570  -18.2275   22.9231 O   0  0  0  0  0  0  0  0  0  0  0  0
   10.1307  -17.0448   23.6404 C   0  0  0  0  0  0  0  0  0  0  0  0
   10.6590  -15.9638   24.0579 O   0  0  0  0  0  0  0  0  0  0  0  0
   14.1274  -20.3754   22.3826 O   0  0  0  0  0  0  0  0  0  0  0  0
    7.5476  -17.3620   26.1271 C   0  0  0  0  0  0  0  0  0  0  0  0
    9.0553  -17.2537   25.9077 C   0  0  2  0  0  0  0  0  0  0  0  0
    9.3139  -17.7414   24.5690 N   0  0  0  0  0  0  0  0  0  0  0  0
    9.8056  -18.0330   26.9260 C   0  0  0  0  0  0  0  0  0  0  0  0
    9.8675  -17.6167   28.2498 O   0  0  0  0  0  0  0  0  0  0  0  0
   10.3887  -19.0860   26.5626 O   0  0  0  0  0  0  0  0  0  0  0  0
  2  3  1  0
  2  1  1  0
  3  4  1  6
  5  7  1  0
  5  3  1  0
  5  6  1  1
  7  8  2  0
  9 10  1  0
  9  7  1  0
 10 11  1  6
 12 11  1  0
 12 13  1  0
 13 17  1  0
 14 13  2  0
 15 20  1  0
 15 10  1  0
 16 15  2  0
 19 18  1  1
 19 21  1  0
 19 20  1  0
 21 22  1  0
 23 21  2  0
M  END
$$$$
