IEA.pdb
     RDKit          3D

 23 22  0  0  1  0  0  0  0  0999 V2000
    5.5553  -11.3070   26.3322 C   0  0  0  0  0  0  0  0  0  0  0  0
    5.4087  -12.5834   25.5316 C   0  0  0  0  0  0  0  0  0  0  0  0
    6.6917  -13.3684   25.6331 C   0  0  2  0  0  0  0  0  0  0  0  0
    7.7948  -12.5464   25.0047 C   0  0  0  0  0  0  0  0  0  0  0  0
    6.5795  -14.7275   24.9771 C   0  0  2  0  0  0  0  0  0  0  0  0
    5.3938  -15.4312   25.3667 N   0  0  0  0  0  0  0  0  0  0  0  0
    7.7730  -15.5798   25.3273 C   0  0  0  0  0  0  0  0  0  0  0  0
    7.7564  -16.1390   26.4381 O   0  0  0  0  0  0  0  0  0  0  0  0
    8.8531  -15.7375   24.4455 N   0  0  0  0  0  0  0  0  0  0  0  0
   10.0827  -16.4480   24.6369 C   0  0  1  0  0  0  0  0  0  0  0  0
   10.8739  -16.6007   23.3407 C   0  0  0  0  0  0  0  0  0  0  0  0
   10.0604  -17.3605   22.3496 C   0  0  0  0  0  0  0  0  0  0  0  0
   10.8056  -17.4979   21.0616 C   0  0  0  0  0  0  0  0  0  0  0  0
   10.2859  -18.0842   20.0965 O   0  0  0  0  0  0  0  0  0  0  0  0
   10.8546  -15.9611   25.7627 C   0  0  0  0  0  0  0  0  0  0  0  0
   11.8500  -15.1826   25.6039 O   0  0  0  0  0  0  0  0  0  0  0  0
   12.0826  -16.9694   20.9422 O   0  0  0  0  0  0  0  0  0  0  0  0
   10.7131  -14.6481   28.7942 C   0  0  0  0  0  0  0  0  0  0  0  0
   11.3596  -15.9113   28.2291 C   0  0  2  0  0  0  0  0  0  0  0  0
   10.5490  -16.3209   27.1013 N   0  0  0  0  0  0  0  0  0  0  0  0
   11.4428  -16.9805   29.2572 C   0  0  0  0  0  0  0  0  0  0  0  0
   12.2688  -16.8504   30.3665 O   0  0  0  0  0  0  0  0  0  0  0  0
   10.7446  -18.0146   29.1021 O   0  0  0  0  0  0  0  0  0  0  0  0
  2  3  1  0
  2  1  1  0
  3  4  1  6
  5  7  1  0
  5  3  1  0
  5  6  1  1
  7  8  2  0
  9 10  1  0
  9  7  1  0
 10 11  1  6
 12 11  1  0
 12 13  1  0
 13 17  1  0
 14 13  2  0
 15 20  1  0
 15 10  1  0
 16 15  2  0
 19 18  1  1
 19 21  1  0
 19 20  1  0
 21 22  1  0
 23 21  2  0
M  END
$$$$
