IEA.pdb
     RDKit          3D

 23 22  0  0  1  0  0  0  0  0999 V2000
    7.1384  -11.9668   19.6658 C   0  0  0  0  0  0  0  0  0  0  0  0
    7.7497  -13.3477   19.5607 C   0  0  0  0  0  0  0  0  0  0  0  0
    7.7498  -13.9822   20.9283 C   0  0  2  0  0  0  0  0  0  0  0  0
    8.5824  -13.1158   21.8466 C   0  0  0  0  0  0  0  0  0  0  0  0
    8.2694  -15.4031   20.8952 C   0  0  2  0  0  0  0  0  0  0  0  0
    7.4930  -16.2541   20.0433 N   0  0  0  0  0  0  0  0  0  0  0  0
    8.2701  -15.9944   22.2822 C   0  0  0  0  0  0  0  0  0  0  0  0
    7.1624  -16.2788   22.7713 O   0  0  0  0  0  0  0  0  0  0  0  0
    9.4607  -16.2151   22.9913 N   0  0  0  0  0  0  0  0  0  0  0  0
    9.6438  -16.7194   24.3200 C   0  0  1  0  0  0  0  0  0  0  0  0
   10.3852  -18.0534   24.3386 C   0  0  0  0  0  0  0  0  0  0  0  0
   11.5870  -17.9653   23.4615 C   0  0  0  0  0  0  0  0  0  0  0  0
   12.2084  -19.3139   23.2942 C   0  0  0  0  0  0  0  0  0  0  0  0
   12.5745  -19.9629   24.2893 O   0  0  0  0  0  0  0  0  0  0  0  0
   10.1609  -15.7274   25.2414 C   0  0  0  0  0  0  0  0  0  0  0  0
   11.2823  -15.1555   25.0477 O   0  0  0  0  0  0  0  0  0  0  0  0
   12.3775  -19.8443   22.0237 O   0  0  0  0  0  0  0  0  0  0  0  0
    8.8683  -13.4285   27.7150 C   0  0  0  0  0  0  0  0  0  0  0  0
    9.9911  -14.4082   27.3795 C   0  0  2  0  0  0  0  0  0  0  0  0
    9.4524  -15.3366   26.4076 N   0  0  0  0  0  0  0  0  0  0  0  0
   10.4741  -15.1117   28.5957 C   0  0  0  0  0  0  0  0  0  0  0  0
   10.3604  -16.4903   28.7232 O   0  0  0  0  0  0  0  0  0  0  0  0
   10.9922  -14.4286   29.5152 O   0  0  0  0  0  0  0  0  0  0  0  0
  2  3  1  0
  2  1  1  0
  3  4  1  1
  5  7  1  0
  5  3  1  0
  5  6  1  6
  7  8  2  0
  9 10  1  0
  9  7  1  0
 10 11  1  6
 12 11  1  0
 12 13  1  0
 13 17  1  0
 14 13  2  0
 15 20  1  0
 15 10  1  0
 16 15  2  0
 19 18  1  1
 19 21  1  0
 19 20  1  0
 21 22  1  0
 23 21  2  0
M  END
$$$$
