IEA.pdb
     RDKit          3D

 23 22  0  0  1  0  0  0  0  0999 V2000
    7.6919  -11.9794   18.5926 C   0  0  0  0  0  0  0  0  0  0  0  0
    8.0863  -13.4361   18.7113 C   0  0  0  0  0  0  0  0  0  0  0  0
    7.8204  -13.8960   20.1222 C   0  0  2  0  0  0  0  0  0  0  0  0
    8.5734  -12.9816   21.0627 C   0  0  0  0  0  0  0  0  0  0  0  0
    8.2139  -15.3420   20.3320 C   0  0  2  0  0  0  0  0  0  0  0  0
    7.4879  -16.2393   19.4831 N   0  0  0  0  0  0  0  0  0  0  0  0
    7.9764  -15.7484   21.7644 C   0  0  0  0  0  0  0  0  0  0  0  0
    6.7969  -15.9552   22.1007 O   0  0  0  0  0  0  0  0  0  0  0  0
    9.0322  -15.8879   22.6782 N   0  0  0  0  0  0  0  0  0  0  0  0
    8.9828  -16.1131   24.0924 C   0  0  1  0  0  0  0  0  0  0  0  0
   10.0089  -17.1447   24.5533 C   0  0  0  0  0  0  0  0  0  0  0  0
    9.7324  -18.4501   23.8894 C   0  0  0  0  0  0  0  0  0  0  0  0
   10.7339  -19.4733   24.3173 C   0  0  0  0  0  0  0  0  0  0  0  0
   11.8772  -19.4733   23.8294 O   0  0  0  0  0  0  0  0  0  0  0  0
    8.9681  -14.8876   24.8659 C   0  0  0  0  0  0  0  0  0  0  0  0
    9.9878  -14.1274   24.9331 O   0  0  0  0  0  0  0  0  0  0  0  0
   10.3868  -20.4270   25.2629 O   0  0  0  0  0  0  0  0  0  0  0  0
    6.3516  -12.9236   26.6638 C   0  0  0  0  0  0  0  0  0  0  0  0
    7.8173  -13.2846   26.4301 C   0  0  2  0  0  0  0  0  0  0  0  0
    7.8232  -14.4641   25.5902 N   0  0  0  0  0  0  0  0  0  0  0  0
    8.5243  -13.5265   27.7142 C   0  0  0  0  0  0  0  0  0  0  0  0
    8.8998  -12.4736   28.5391 O   0  0  0  0  0  0  0  0  0  0  0  0
    8.7782  -14.7133   28.0425 O   0  0  0  0  0  0  0  0  0  0  0  0
  2  3  1  0
  2  1  1  0
  3  4  1  1
  5  7  1  0
  5  3  1  0
  5  6  1  6
  7  8  2  0
  9 10  1  0
  9  7  1  0
 10 11  1  1
 12 11  1  0
 12 13  1  0
 13 17  1  0
 14 13  2  0
 15 20  1  0
 15 10  1  0
 16 15  2  0
 19 18  1  1
 19 21  1  0
 19 20  1  0
 21 22  1  0
 23 21  2  0
M  END
$$$$
