HNH.pdb
     RDKit          3D

 29 30  0  0  1  0  0  0  0  0999 V2000
   13.3735  -19.1187   16.4671 N   0  0  0  0  0  0  0  0  0  0  0  0
   13.0763  -17.8412   17.0758 C   0  0  1  0  0  0  0  0  0  0  0  0
   12.6197  -16.8240   16.0589 C   0  0  0  0  0  0  0  0  0  0  0  0
   13.7003  -16.4844   15.1030 C   0  0  0  0  0  0  0  0  0  0  0  0
   14.9119  -15.9544   15.4927 C   0  0  0  0  0  0  0  0  0  0  0  0
   15.6703  -15.7668   14.3781 N   0  0  0  0  0  0  0  0  0  0  0  0
   14.9491  -16.1704   13.3149 C   0  0  0  0  0  0  0  0  0  0  0  0
   13.7642  -16.6003   13.7668 N   0  0  0  0  0  0  0  0  0  0  0  0
   12.0288  -17.9966   18.0969 C   0  0  0  0  0  0  0  0  0  0  0  0
   10.8647  -18.2867   17.7585 O   0  0  0  0  0  0  0  0  0  0  0  0
   13.1669  -18.6786   23.4599 N   0  0  0  0  0  0  0  0  0  0  0  0
   13.0769  -18.7861   22.0582 C   0  0  0  0  0  0  0  0  0  0  0  0
   14.0964  -18.6216   21.3591 O   0  0  0  0  0  0  0  0  0  0  0  0
   11.7882  -19.0901   21.4238 C   0  0  0  0  0  0  0  0  0  0  0  0
   11.3356  -18.0260   20.4723 C   0  0  2  0  0  0  0  0  0  0  0  0
   12.3553  -17.8157   19.4583 N   0  0  0  0  0  0  0  0  0  0  0  0
   11.0893  -16.7720   21.2026 C   0  0  0  0  0  0  0  0  0  0  0  0
   12.0044  -15.9194   21.2789 O   0  0  0  0  0  0  0  0  0  0  0  0
    9.8288  -16.5415   21.8082 N   0  0  0  0  0  0  0  0  0  0  0  0
    9.5842  -15.3212   22.5391 C   0  0  1  0  0  0  0  0  0  0  0  0
    8.3566  -14.5889   22.0920 C   0  0  0  0  0  0  0  0  0  0  0  0
    8.4567  -14.1406   20.6690 C   0  0  0  0  0  0  0  0  0  0  0  0
    9.5475  -14.3829   19.8622 C   0  0  0  0  0  0  0  0  0  0  0  0
    9.3164  -13.8509   18.6538 N   0  0  0  0  0  0  0  0  0  0  0  0
    8.1121  -13.2914   18.7066 C   0  0  0  0  0  0  0  0  0  0  0  0
    7.5799  -13.4607   19.9252 N   0  0  0  0  0  0  0  0  0  0  0  0
    9.5446  -15.5598   23.9944 C   0  0  0  0  0  0  0  0  0  0  0  0
    9.5403  -16.7047   24.4634 O   0  0  0  0  0  0  0  0  0  0  0  0
    9.5111  -14.4888   24.8658 O   0  0  0  0  0  0  0  0  0  0  0  0
  2  1  1  6
  3  2  1  0
  3  4  1  0
  4  8  1  0
  5  4  2  0
  5  6  1  0
  6  7  1  0
  8  7  2  0
  9  2  1  0
  9 10  2  0
 12 14  1  0
 12 11  1  0
 13 12  2  0
 15 14  1  1
 15 17  1  0
 15 16  1  0
 16  9  1  0
 17 19  1  0
 18 17  2  0
 19 20  1  0
 20 27  1  0
 20 21  1  6
 22 21  1  0
 23 22  2  0
 24 25  1  0
 24 23  1  0
 25 26  2  0
 26 22  1  0
 27 28  2  0
 27 29  1  0
M  END
$$$$
