HNH.pdb
     RDKit          3D

 29 30  0  0  1  0  0  0  0  0999 V2000
   10.4448  -15.6174   21.2869 N   0  0  0  0  0  0  0  0  0  0  0  0
    9.4350  -15.3457   22.2857 C   0  0  1  0  0  0  0  0  0  0  0  0
    8.0438  -15.3634   21.7011 C   0  0  0  0  0  0  0  0  0  0  0  0
    7.9400  -14.4849   20.5119 C   0  0  0  0  0  0  0  0  0  0  0  0
    9.0064  -13.7722   20.0063 C   0  0  0  0  0  0  0  0  0  0  0  0
    8.5741  -13.0779   18.9182 N   0  0  0  0  0  0  0  0  0  0  0  0
    7.2663  -13.3502   18.7472 C   0  0  0  0  0  0  0  0  0  0  0  0
    6.8979  -14.1993   19.7148 N   0  0  0  0  0  0  0  0  0  0  0  0
    9.5095  -16.3406   23.3668 C   0  0  0  0  0  0  0  0  0  0  0  0
    8.6551  -16.3421   24.2743 O   0  0  0  0  0  0  0  0  0  0  0  0
   10.3095  -20.9487   22.7950 N   0  0  0  0  0  0  0  0  0  0  0  0
   11.3079  -19.9561   22.8435 C   0  0  0  0  0  0  0  0  0  0  0  0
   11.9087  -19.6326   21.7996 O   0  0  0  0  0  0  0  0  0  0  0  0
   11.6393  -19.3060   24.1175 C   0  0  0  0  0  0  0  0  0  0  0  0
   10.6880  -18.2087   24.4827 C   0  0  2  0  0  0  0  0  0  0  0  0
   10.5542  -17.2900   23.3645 N   0  0  0  0  0  0  0  0  0  0  0  0
   11.1843  -17.4881   25.6663 C   0  0  0  0  0  0  0  0  0  0  0  0
   11.5517  -16.2962   25.5466 O   0  0  0  0  0  0  0  0  0  0  0  0
   11.2413  -18.1436   26.9216 N   0  0  0  0  0  0  0  0  0  0  0  0
   10.8742  -17.4407   28.1276 C   0  0  1  0  0  0  0  0  0  0  0  0
    9.5498  -16.7469   28.0392 C   0  0  0  0  0  0  0  0  0  0  0  0
    9.6997  -15.2773   27.8072 C   0  0  0  0  0  0  0  0  0  0  0  0
   10.9064  -14.6125   27.8464 C   0  0  0  0  0  0  0  0  0  0  0  0
   10.6910  -13.3133   27.5969 N   0  0  0  0  0  0  0  0  0  0  0  0
    9.3832  -13.1724   27.4071 C   0  0  0  0  0  0  0  0  0  0  0  0
    8.7704  -14.3580   27.5323 N   0  0  0  0  0  0  0  0  0  0  0  0
   10.9176  -18.3271   29.3060 C   0  0  0  0  0  0  0  0  0  0  0  0
   10.9770  -17.8741   30.4558 O   0  0  0  0  0  0  0  0  0  0  0  0
   10.8919  -19.6976   29.1364 O   0  0  0  0  0  0  0  0  0  0  0  0
  2  1  1  6
  3  2  1  0
  3  4  1  0
  4  8  1  0
  5  4  2  0
  5  6  1  0
  6  7  1  0
  8  7  2  0
  9  2  1  0
  9 10  2  0
 12 14  1  0
 12 11  1  0
 13 12  2  0
 15 14  1  6
 15 17  1  0
 15 16  1  0
 16  9  1  0
 17 19  1  0
 18 17  2  0
 19 20  1  0
 20 27  1  0
 20 21  1  6
 22 21  1  0
 23 22  2  0
 24 25  1  0
 24 23  1  0
 25 26  2  0
 26 22  1  0
 27 28  2  0
 27 29  1  0
M  END
$$$$
