HNH.pdb
     RDKit          3D

 29 30  0  0  1  0  0  0  0  0999 V2000
   13.2246  -17.0202   12.7771 N   0  0  0  0  0  0  0  0  0  0  0  0
   12.7721  -17.2102   14.1373 C   0  0  1  0  0  0  0  0  0  0  0  0
   12.4058  -18.6477   14.4146 C   0  0  0  0  0  0  0  0  0  0  0  0
   11.2182  -19.0689   13.6342 C   0  0  0  0  0  0  0  0  0  0  0  0
   10.0390  -18.3550   13.6125 C   0  0  0  0  0  0  0  0  0  0  0  0
    9.1627  -19.0091   12.8018 N   0  0  0  0  0  0  0  0  0  0  0  0
    9.7803  -20.1077   12.3270 C   0  0  0  0  0  0  0  0  0  0  0  0
   11.0181  -20.1307   12.8371 N   0  0  0  0  0  0  0  0  0  0  0  0
   13.8192  -16.7950   15.0836 C   0  0  0  0  0  0  0  0  0  0  0  0
   15.0160  -16.8063   14.7354 O   0  0  0  0  0  0  0  0  0  0  0  0
   16.2104  -13.2635   18.0686 N   0  0  0  0  0  0  0  0  0  0  0  0
   15.0975  -13.9070   18.6445 C   0  0  0  0  0  0  0  0  0  0  0  0
   14.9813  -13.9481   19.8855 O   0  0  0  0  0  0  0  0  0  0  0  0
   14.0794  -14.5266   17.7870 C   0  0  0  0  0  0  0  0  0  0  0  0
   14.4765  -15.8812   17.2874 C   0  0  2  0  0  0  0  0  0  0  0  0
   13.4551  -16.3841   16.3841 N   0  0  0  0  0  0  0  0  0  0  0  0
   14.6416  -16.8054   18.4210 C   0  0  0  0  0  0  0  0  0  0  0  0
   13.6307  -17.1667   19.0671 O   0  0  0  0  0  0  0  0  0  0  0  0
   15.9328  -17.2750   18.7689 N   0  0  0  0  0  0  0  0  0  0  0  0
   16.1023  -18.1879   19.8741 C   0  0  1  0  0  0  0  0  0  0  0  0
   17.0567  -19.3063   19.5885 C   0  0  0  0  0  0  0  0  0  0  0  0
   16.5174  -20.2590   18.5699 C   0  0  0  0  0  0  0  0  0  0  0  0
   15.1957  -20.3013   18.1816 C   0  0  0  0  0  0  0  0  0  0  0  0
   15.0482  -21.2621   17.2587 N   0  0  0  0  0  0  0  0  0  0  0  0
   16.2477  -21.8045   17.0767 C   0  0  0  0  0  0  0  0  0  0  0  0
   17.1482  -21.2039   17.8674 N   0  0  0  0  0  0  0  0  0  0  0  0
   16.4891  -17.4786   21.1084 C   0  0  0  0  0  0  0  0  0  0  0  0
   16.6835  -16.2568   21.1198 O   0  0  0  0  0  0  0  0  0  0  0  0
   16.6414  -18.1828   22.2868 O   0  0  0  0  0  0  0  0  0  0  0  0
  2  1  1  6
  3  2  1  0
  3  4  1  0
  4  8  1  0
  5  4  2  0
  5  6  1  0
  6  7  1  0
  8  7  2  0
  9  2  1  0
  9 10  2  0
 12 14  1  0
 12 11  1  0
 13 12  2  0
 15 14  1  1
 15 17  1  0
 15 16  1  0
 16  9  1  0
 17 19  1  0
 18 17  2  0
 19 20  1  0
 20 27  1  0
 20 21  1  6
 22 21  1  0
 23 22  2  0
 24 25  1  0
 24 23  1  0
 25 26  2  0
 26 22  1  0
 27 28  2  0
 27 29  1  0
M  END
$$$$
