GKC.pdb
     RDKit          3D

 20 19  0  0  1  0  0  0  0  0999 V2000
    4.2434  -19.4025   21.8496 N   0  0  0  0  0  0  0  0  0  0  0  0
    4.3271  -18.0546   22.3380 C   0  0  0  0  0  0  0  0  0  0  0  0
    5.7128  -17.5134   22.2347 C   0  0  0  0  0  0  0  0  0  0  0  0
    6.6718  -18.2995   22.4113 O   0  0  0  0  0  0  0  0  0  0  0  0
    5.9949  -16.1569   21.9471 N   0  0  0  0  0  0  0  0  0  0  0  0
    7.3328  -15.6093   21.8779 C   0  0  1  0  0  0  0  0  0  0  0  0
    7.3966  -14.3832   20.9968 C   0  0  0  0  0  0  0  0  0  0  0  0
    8.0560  -14.6385   19.6845 C   0  0  0  0  0  0  0  0  0  0  0  0
    7.6178  -13.5872   18.6965 C   0  0  0  0  0  0  0  0  0  0  0  0
    8.1627  -13.7810   17.3123 C   0  0  0  0  0  0  0  0  0  0  0  0
    7.7056  -12.6847   16.4409 N   0  0  0  0  0  0  0  0  0  0  0  0
    7.8248  -15.3287   23.2466 C   0  0  0  0  0  0  0  0  0  0  0  0
    7.1640  -14.5667   23.9954 O   0  0  0  0  0  0  0  0  0  0  0  0
    9.0176  -15.8801   23.7669 N   0  0  0  0  0  0  0  0  0  0  0  0
    9.5094  -15.5044   25.0984 C   0  0  1  0  0  0  0  0  0  0  0  0
    8.4682  -15.9280   26.1106 C   0  0  0  0  0  0  0  0  0  0  0  0
    8.2153  -17.7123   26.0594 S   0  0  0  0  0  0  0  0  0  0  0  0
   10.7937  -16.1373   25.4022 C   0  0  0  0  0  0  0  0  0  0  0  0
   11.4490  -15.9526   26.4591 O   0  0  0  0  0  0  0  0  0  0  0  0
   11.3362  -17.0019   24.4692 O   0  0  0  0  0  0  0  0  0  0  0  0
  2  1  1  0
  3  2  1  0
  4  3  2  0
  5  3  1  0
  6 12  1  0
  6  5  1  0
  6  7  1  6
  8  7  1  0
  9  8  1  0
 10  9  1  0
 11 10  1  0
 12 14  1  0
 13 12  2  0
 14 15  1  0
 15 16  1  1
 15 18  1  0
 17 16  1  0
 18 19  2  0
 18 20  1  0
M  END
$$$$
