GKC.pdb
     RDKit          3D

 20 19  0  0  1  0  0  0  0  0999 V2000
    7.8135  -12.4606   19.1285 N   0  0  0  0  0  0  0  0  0  0  0  0
    8.5492  -13.5456   19.7149 C   0  0  0  0  0  0  0  0  0  0  0  0
    7.9134  -14.0288   20.9743 C   0  0  0  0  0  0  0  0  0  0  0  0
    6.9965  -13.3403   21.4784 O   0  0  0  0  0  0  0  0  0  0  0  0
    8.2961  -15.2255   21.6252 N   0  0  0  0  0  0  0  0  0  0  0  0
    7.7175  -15.6866   22.8692 C   0  0  1  0  0  0  0  0  0  0  0  0
    7.8414  -17.1842   23.0290 C   0  0  0  0  0  0  0  0  0  0  0  0
    7.3052  -17.6811   24.3281 C   0  0  0  0  0  0  0  0  0  0  0  0
    7.5097  -19.1726   24.4110 C   0  0  0  0  0  0  0  0  0  0  0  0
    6.8933  -19.8101   25.6211 C   0  0  0  0  0  0  0  0  0  0  0  0
    7.1154  -21.2658   25.5826 N   0  0  0  0  0  0  0  0  0  0  0  0
    8.3353  -14.9599   24.0024 C   0  0  0  0  0  0  0  0  0  0  0  0
    9.5848  -14.9654   24.1309 O   0  0  0  0  0  0  0  0  0  0  0  0
    7.5842  -14.2476   24.9649 N   0  0  0  0  0  0  0  0  0  0  0  0
    8.2461  -13.4582   26.0112 C   0  0  1  0  0  0  0  0  0  0  0  0
    7.3670  -12.2650   26.3136 C   0  0  0  0  0  0  0  0  0  0  0  0
    5.6563  -12.7774   26.5613 S   0  0  0  0  0  0  0  0  0  0  0  0
    8.4657  -14.2428   27.2271 C   0  0  0  0  0  0  0  0  0  0  0  0
    7.9941  -15.3900   27.4322 O   0  0  0  0  0  0  0  0  0  0  0  0
    9.2453  -13.6953   28.2296 O   0  0  0  0  0  0  0  0  0  0  0  0
  2  1  1  0
  3  2  1  0
  4  3  2  0
  5  3  1  0
  6 12  1  0
  6  5  1  0
  6  7  1  1
  8  7  1  0
  9  8  1  0
 10  9  1  0
 11 10  1  0
 12 14  1  0
 13 12  2  0
 14 15  1  0
 15 16  1  1
 15 18  1  0
 17 16  1  0
 18 19  2  0
 18 20  1  0
M  END
$$$$
