GKC.pdb
     RDKit          3D

 20 19  0  0  1  0  0  0  0  0999 V2000
   10.0933  -19.4733   17.4173 N   0  0  0  0  0  0  0  0  0  0  0  0
    9.4040  -20.4146   18.2545 C   0  0  0  0  0  0  0  0  0  0  0  0
    8.5371  -19.7322   19.2578 C   0  0  0  0  0  0  0  0  0  0  0  0
    8.8130  -18.5526   19.5760 O   0  0  0  0  0  0  0  0  0  0  0  0
    7.4203  -20.3528   19.8659 N   0  0  0  0  0  0  0  0  0  0  0  0
    6.5238  -19.6796   20.7814 C   0  0  1  0  0  0  0  0  0  0  0  0
    5.1734  -20.3546   20.8485 C   0  0  0  0  0  0  0  0  0  0  0  0
    4.2153  -19.6594   21.7545 C   0  0  0  0  0  0  0  0  0  0  0  0
    2.8868  -20.3711   21.7114 C   0  0  0  0  0  0  0  0  0  0  0  0
    1.8444  -19.7795   22.6137 C   0  0  0  0  0  0  0  0  0  0  0  0
    0.6356  -20.6212   22.5943 N   0  0  0  0  0  0  0  0  0  0  0  0
    7.1581  -19.5852   22.1165 C   0  0  0  0  0  0  0  0  0  0  0  0
    7.6708  -20.6107   22.6298 O   0  0  0  0  0  0  0  0  0  0  0  0
    7.2202  -18.3842   22.8591 N   0  0  0  0  0  0  0  0  0  0  0  0
    7.8134  -18.3524   24.2019 C   0  0  1  0  0  0  0  0  0  0  0  0
    7.6501  -16.9499   24.7446 C   0  0  0  0  0  0  0  0  0  0  0  0
    8.3308  -16.8251   26.4094 S   0  0  0  0  0  0  0  0  0  0  0  0
    7.1774  -19.3171   25.1002 C   0  0  0  0  0  0  0  0  0  0  0  0
    5.9395  -19.5285   25.1610 O   0  0  0  0  0  0  0  0  0  0  0  0
    7.9834  -20.0551   25.9477 O   0  0  0  0  0  0  0  0  0  0  0  0
  2  1  1  0
  3  2  1  0
  4  3  2  0
  5  3  1  0
  6 12  1  0
  6  5  1  0
  6  7  1  1
  8  7  1  0
  9  8  1  0
 10  9  1  0
 11 10  1  0
 12 14  1  0
 13 12  2  0
 14 15  1  0
 15 16  1  1
 15 18  1  0
 17 16  1  0
 18 19  2  0
 18 20  1  0
M  END
$$$$
