GKC.pdb
     RDKit          3D

 20 19  0  0  1  0  0  0  0  0999 V2000
    7.8127  -12.7780   19.1832 N   0  0  0  0  0  0  0  0  0  0  0  0
    8.2992  -14.0554   19.6234 C   0  0  0  0  0  0  0  0  0  0  0  0
    7.7993  -14.3987   20.9857 C   0  0  0  0  0  0  0  0  0  0  0  0
    7.2786  -13.4904   21.6733 O   0  0  0  0  0  0  0  0  0  0  0  0
    7.8853  -15.6990   21.5372 N   0  0  0  0  0  0  0  0  0  0  0  0
    7.3179  -16.0711   22.8157 C   0  0  1  0  0  0  0  0  0  0  0  0
    7.0476  -17.5553   22.9033 C   0  0  0  0  0  0  0  0  0  0  0  0
    5.6744  -17.9280   22.4589 C   0  0  0  0  0  0  0  0  0  0  0  0
    5.7109  -19.2990   21.8325 C   0  0  0  0  0  0  0  0  0  0  0  0
    4.3728  -19.8009   21.3762 C   0  0  0  0  0  0  0  0  0  0  0  0
    4.5345  -21.0979   20.6968 N   0  0  0  0  0  0  0  0  0  0  0  0
    8.2078  -15.6091   23.9060 C   0  0  0  0  0  0  0  0  0  0  0  0
    9.4531  -15.6651   23.7513 O   0  0  0  0  0  0  0  0  0  0  0  0
    7.7257  -15.0996   25.1331 N   0  0  0  0  0  0  0  0  0  0  0  0
    8.6461  -14.5857   26.1551 C   0  0  1  0  0  0  0  0  0  0  0  0
    7.8632  -13.6546   27.0540 C   0  0  0  0  0  0  0  0  0  0  0  0
    8.8920  -13.0589   28.4093 S   0  0  0  0  0  0  0  0  0  0  0  0
    9.2403  -15.6659   26.9442 C   0  0  0  0  0  0  0  0  0  0  0  0
    8.6760  -16.7609   27.1954 O   0  0  0  0  0  0  0  0  0  0  0  0
   10.5119  -15.4821   27.4557 O   0  0  0  0  0  0  0  0  0  0  0  0
  2  1  1  0
  3  2  1  0
  4  3  2  0
  5  3  1  0
  6 12  1  0
  6  5  1  0
  6  7  1  6
  8  7  1  0
  9  8  1  0
 10  9  1  0
 11 10  1  0
 12 14  1  0
 13 12  2  0
 14 15  1  0
 15 16  1  1
 15 18  1  0
 17 16  1  0
 18 19  2  0
 18 20  1  0
M  END
$$$$
