GEK.pdb
     RDKit          3D

 23 22  0  0  1  0  0  0  0  0999 V2000
   16.7497  -12.0406  -14.8352 N   0  0  0  0  0  0  0  0  0  0  0  0
   16.7107  -10.6103  -14.8830 C   0  0  0  0  0  0  0  0  0  0  0  0
   17.4205   -9.9677  -13.7621 C   0  0  0  0  0  0  0  0  0  0  0  0
   17.2884  -10.4861  -12.6167 O   0  0  0  0  0  0  0  0  0  0  0  0
   18.2306   -8.8179  -13.8975 N   0  0  0  0  0  0  0  0  0  0  0  0
   18.8906   -8.2484  -12.6856 C   0  0  1  0  0  0  0  0  0  0  0  0
   20.0004   -7.3401  -13.1749 C   0  0  0  0  0  0  0  0  0  0  0  0
   20.7225   -6.6383  -12.0740 C   0  0  0  0  0  0  0  0  0  0  0  0
   21.8317   -5.8162  -12.6399 C   0  0  0  0  0  0  0  0  0  0  0  0
   22.3694   -4.9296  -11.9378 O   0  0  0  0  0  0  0  0  0  0  0  0
   17.8254   -7.5441  -11.9459 C   0  0  0  0  0  0  0  0  0  0  0  0
   17.0596   -6.7036  -12.5378 O   0  0  0  0  0  0  0  0  0  0  0  0
   22.2599   -6.0316  -13.9319 O   0  0  0  0  0  0  0  0  0  0  0  0
   17.5440   -7.7183  -10.5613 N   0  0  0  0  0  0  0  0  0  0  0  0
   16.5013   -6.9462   -9.8899 C   0  0  1  0  0  0  0  0  0  0  0  0
   15.4439   -7.9320   -9.4906 C   0  0  0  0  0  0  0  0  0  0  0  0
   14.2580   -7.3798   -8.7954 C   0  0  0  0  0  0  0  0  0  0  0  0
   13.1633   -8.3635   -8.5648 C   0  0  0  0  0  0  0  0  0  0  0  0
   11.9450   -7.8682   -7.8578 C   0  0  0  0  0  0  0  0  0  0  0  0
   10.8338   -8.7534   -7.8464 N   0  0  0  0  0  0  0  0  0  0  0  0
   17.0215   -6.0796   -8.8513 C   0  0  0  0  0  0  0  0  0  0  0  0
   18.0982   -6.3646   -8.2723 O   0  0  0  0  0  0  0  0  0  0  0  0
   16.3666   -4.9354   -8.4723 O   0  0  0  0  0  0  0  0  0  0  0  0
  2  1  1  0
  3  5  1  0
  3  2  1  0
  4  3  2  0
  6  5  1  0
  6 11  1  0
  6  7  1  6
  8  7  1  0
  9  8  1  0
 10  9  2  0
 11 14  1  0
 12 11  2  0
 13  9  1  0
 14 15  1  0
 15 21  1  0
 15 16  1  1
 17 16  1  0
 18 17  1  0
 19 18  1  0
 20 19  1  0
 21 23  1  0
 22 21  2  0
M  END
$$$$
