GEK.pdb
     RDKit          3D

 23 22  0  0  1  0  0  0  0  0999 V2000
   16.6834  -12.2054  -14.7116 N   0  0  0  0  0  0  0  0  0  0  0  0
   16.6978  -10.7756  -14.7833 C   0  0  0  0  0  0  0  0  0  0  0  0
   17.4781  -10.1434  -13.7042 C   0  0  0  0  0  0  0  0  0  0  0  0
   17.4794  -10.7144  -12.5764 O   0  0  0  0  0  0  0  0  0  0  0  0
   18.2156   -8.9483  -13.8607 N   0  0  0  0  0  0  0  0  0  0  0  0
   18.8180   -8.3041  -12.6562 C   0  0  1  0  0  0  0  0  0  0  0  0
   19.9570   -7.4333  -13.1463 C   0  0  0  0  0  0  0  0  0  0  0  0
   20.5880   -6.6180  -12.0678 C   0  0  0  0  0  0  0  0  0  0  0  0
   21.6505   -5.7460  -12.6486 C   0  0  0  0  0  0  0  0  0  0  0  0
   21.5730   -4.5026  -12.5212 O   0  0  0  0  0  0  0  0  0  0  0  0
   17.7218   -7.5498  -12.0179 C   0  0  0  0  0  0  0  0  0  0  0  0
   16.6898   -7.1947  -12.6904 O   0  0  0  0  0  0  0  0  0  0  0  0
   22.7113   -6.3088  -13.3246 O   0  0  0  0  0  0  0  0  0  0  0  0
   17.6922   -7.1582  -10.6496 N   0  0  0  0  0  0  0  0  0  0  0  0
   16.5066   -6.5461  -10.0549 C   0  0  1  0  0  0  0  0  0  0  0  0
   15.5449   -7.6668   -9.7936 C   0  0  0  0  0  0  0  0  0  0  0  0
   14.2828   -7.3048   -9.1077 C   0  0  0  0  0  0  0  0  0  0  0  0
   13.3468   -8.4438   -8.8942 C   0  0  0  0  0  0  0  0  0  0  0  0
   11.9910   -8.1163   -8.3613 C   0  0  0  0  0  0  0  0  0  0  0  0
   11.1001   -9.2139   -8.2203 N   0  0  0  0  0  0  0  0  0  0  0  0
   16.8207   -5.6730   -8.9416 C   0  0  0  0  0  0  0  0  0  0  0  0
   15.9203   -4.9768   -8.4122 O   0  0  0  0  0  0  0  0  0  0  0  0
   18.0920   -5.5800   -8.4350 O   0  0  0  0  0  0  0  0  0  0  0  0
  2  1  1  0
  3  5  1  0
  3  2  1  0
  4  3  2  0
  6  5  1  0
  6 11  1  0
  6  7  1  6
  8  7  1  0
  9  8  1  0
 10  9  2  0
 11 14  1  0
 12 11  2  0
 13  9  1  0
 14 15  1  0
 15 21  1  0
 15 16  1  1
 17 16  1  0
 18 17  1  0
 19 18  1  0
 20 19  1  0
 21 23  1  0
 22 21  2  0
M  END
$$$$
