GEK.pdb
     RDKit          3D

 23 22  0  0  1  0  0  0  0  0999 V2000
   24.1232  -15.0953  -17.1752 N   0  0  0  0  0  0  0  0  0  0  0  0
   24.8538  -15.3474  -15.9701 C   0  0  0  0  0  0  0  0  0  0  0  0
   25.0849  -16.7807  -15.7148 C   0  0  0  0  0  0  0  0  0  0  0  0
   24.1048  -17.5642  -15.8692 O   0  0  0  0  0  0  0  0  0  0  0  0
   26.3275  -17.3194  -15.3120 N   0  0  0  0  0  0  0  0  0  0  0  0
   26.4442  -18.7919  -15.0956 C   0  0  1  0  0  0  0  0  0  0  0  0
   27.6876  -19.2476  -15.8321 C   0  0  0  0  0  0  0  0  0  0  0  0
   27.4974  -19.3567  -17.3078 C   0  0  0  0  0  0  0  0  0  0  0  0
   28.7283  -19.9190  -17.9365 C   0  0  0  0  0  0  0  0  0  0  0  0
   29.6961  -19.1661  -18.1911 O   0  0  0  0  0  0  0  0  0  0  0  0
   26.5162  -18.9749  -13.6329 C   0  0  0  0  0  0  0  0  0  0  0  0
   27.2185  -18.1867  -12.9057 O   0  0  0  0  0  0  0  0  0  0  0  0
   28.7970  -21.2620  -18.2375 O   0  0  0  0  0  0  0  0  0  0  0  0
   25.8408  -19.9958  -12.9061 N   0  0  0  0  0  0  0  0  0  0  0  0
   26.0394  -20.1706  -11.4694 C   0  0  1  0  0  0  0  0  0  0  0  0
   24.7315  -20.6620  -10.9242 C   0  0  0  0  0  0  0  0  0  0  0  0
   24.6743  -20.8973   -9.4628 C   0  0  0  0  0  0  0  0  0  0  0  0
   23.3525  -21.3700   -8.9643 C   0  0  0  0  0  0  0  0  0  0  0  0
   23.1856  -21.4787   -7.4844 C   0  0  0  0  0  0  0  0  0  0  0  0
   21.9040  -21.8962   -7.0356 N   0  0  0  0  0  0  0  0  0  0  0  0
   27.2202  -20.9492  -11.1537 C   0  0  0  0  0  0  0  0  0  0  0  0
   27.5774  -21.8875  -11.9072 O   0  0  0  0  0  0  0  0  0  0  0  0
   27.9773  -20.6907  -10.0394 O   0  0  0  0  0  0  0  0  0  0  0  0
  2  1  1  0
  3  5  1  0
  3  2  1  0
  4  3  2  0
  6  5  1  0
  6 11  1  0
  6  7  1  6
  8  7  1  0
  9  8  1  0
 10  9  2  0
 11 14  1  0
 12 11  2  0
 13  9  1  0
 14 15  1  0
 15 21  1  0
 15 16  1  6
 17 16  1  0
 18 17  1  0
 19 18  1  0
 20 19  1  0
 21 23  1  0
 22 21  2  0
M  END
$$$$
