GEK.pdb
     RDKit          3D

 23 22  0  0  1  0  0  0  0  0999 V2000
   18.0639  -25.6884   -5.9847 N   0  0  0  0  0  0  0  0  0  0  0  0
   18.1175  -24.4216   -6.6495 C   0  0  0  0  0  0  0  0  0  0  0  0
   18.1956  -24.5338   -8.1173 C   0  0  0  0  0  0  0  0  0  0  0  0
   19.1404  -25.2224   -8.5982 O   0  0  0  0  0  0  0  0  0  0  0  0
   17.2825  -23.9209   -9.0045 N   0  0  0  0  0  0  0  0  0  0  0  0
   17.4633  -24.1066  -10.4747 C   0  0  1  0  0  0  0  0  0  0  0  0
   16.1060  -24.4690  -11.0425 C   0  0  0  0  0  0  0  0  0  0  0  0
   15.7870  -25.9226  -10.9373 C   0  0  0  0  0  0  0  0  0  0  0  0
   16.4907  -26.6746  -12.0171 C   0  0  0  0  0  0  0  0  0  0  0  0
   16.2507  -26.4100  -13.2173 O   0  0  0  0  0  0  0  0  0  0  0  0
   17.9968  -22.8249  -10.9754 C   0  0  0  0  0  0  0  0  0  0  0  0
   17.5526  -21.7086  -10.5282 O   0  0  0  0  0  0  0  0  0  0  0  0
   17.3995  -27.6584  -11.6925 O   0  0  0  0  0  0  0  0  0  0  0  0
   19.0179  -22.6970  -11.9590 N   0  0  0  0  0  0  0  0  0  0  0  0
   19.4614  -21.3890  -12.4351 C   0  0  1  0  0  0  0  0  0  0  0  0
   20.7711  -21.6194  -13.1286 C   0  0  0  0  0  0  0  0  0  0  0  0
   21.4137  -20.4298  -13.7339 C   0  0  0  0  0  0  0  0  0  0  0  0
   22.6969  -20.7110  -14.4363 C   0  0  0  0  0  0  0  0  0  0  0  0
   23.3480  -19.5674  -15.1420 C   0  0  0  0  0  0  0  0  0  0  0  0
   24.6357  -19.8269  -15.6829 N   0  0  0  0  0  0  0  0  0  0  0  0
   18.4371  -20.6819  -13.1775 C   0  0  0  0  0  0  0  0  0  0  0  0
   17.6529  -21.3125  -13.9279 O   0  0  0  0  0  0  0  0  0  0  0  0
   18.2902  -19.3212  -13.0858 O   0  0  0  0  0  0  0  0  0  0  0  0
  2  1  1  0
  3  5  1  0
  3  2  1  0
  4  3  2  0
  6  5  1  0
  6 11  1  0
  6  7  1  6
  8  7  1  0
  9  8  1  0
 10  9  2  0
 11 14  1  0
 12 11  2  0
 13  9  1  0
 14 15  1  0
 15 21  1  0
 15 16  1  6
 17 16  1  0
 18 17  1  0
 19 18  1  0
 20 19  1  0
 21 23  1  0
 22 21  2  0
M  END
$$$$
