GEK.pdb
     RDKit          3D

 23 22  0  0  1  0  0  0  0  0999 V2000
   18.2672  -10.5968  -17.6742 N   0  0  0  0  0  0  0  0  0  0  0  0
   17.0742   -9.8192  -17.5270 C   0  0  0  0  0  0  0  0  0  0  0  0
   17.2422   -8.6512  -16.6435 C   0  0  0  0  0  0  0  0  0  0  0  0
   16.2237   -7.9340  -16.4278 O   0  0  0  0  0  0  0  0  0  0  0  0
   18.4652   -8.2946  -16.0322 N   0  0  0  0  0  0  0  0  0  0  0  0
   18.5512   -7.0105  -15.2757 C   0  0  1  0  0  0  0  0  0  0  0  0
   19.6138   -7.1969  -14.2117 C   0  0  0  0  0  0  0  0  0  0  0  0
   19.1208   -7.9121  -12.9987 C   0  0  0  0  0  0  0  0  0  0  0  0
   20.2730   -8.2789  -12.1243 C   0  0  0  0  0  0  0  0  0  0  0  0
   21.4421   -8.0356  -12.5014 O   0  0  0  0  0  0  0  0  0  0  0  0
   18.8844   -5.9795  -16.2778 C   0  0  0  0  0  0  0  0  0  0  0  0
   19.2027   -6.3061  -17.4759 O   0  0  0  0  0  0  0  0  0  0  0  0
   20.0494   -8.8856  -10.9073 O   0  0  0  0  0  0  0  0  0  0  0  0
   18.8831   -4.5770  -16.0340 N   0  0  0  0  0  0  0  0  0  0  0  0
   19.1388   -3.6148  -17.1031 C   0  0  1  0  0  0  0  0  0  0  0  0
   18.2047   -3.9741  -18.2200 C   0  0  0  0  0  0  0  0  0  0  0  0
   18.1693   -3.0449  -19.3732 C   0  0  0  0  0  0  0  0  0  0  0  0
   17.2681   -3.4690  -20.4809 C   0  0  0  0  0  0  0  0  0  0  0  0
   17.2731   -2.6314  -21.7171 C   0  0  0  0  0  0  0  0  0  0  0  0
   16.5488   -3.1547  -22.8216 N   0  0  0  0  0  0  0  0  0  0  0  0
   19.1188   -2.2409  -16.6422 C   0  0  0  0  0  0  0  0  0  0  0  0
   19.3894   -1.3056  -17.4345 O   0  0  0  0  0  0  0  0  0  0  0  0
   18.8068   -1.9201  -15.3456 O   0  0  0  0  0  0  0  0  0  0  0  0
  2  1  1  0
  3  5  1  0
  3  2  1  0
  4  3  2  0
  6  5  1  0
  6 11  1  0
  6  7  1  1
  8  7  1  0
  9  8  1  0
 10  9  2  0
 11 14  1  0
 12 11  2  0
 13  9  1  0
 14 15  1  0
 15 21  1  0
 15 16  1  6
 17 16  1  0
 18 17  1  0
 19 18  1  0
 20 19  1  0
 21 23  1  0
 22 21  2  0
M  END
$$$$
