GEK.pdb
     RDKit          3D

 23 22  0  0  1  0  0  0  0  0999 V2000
   16.2545  -11.9724  -13.1759 N   0  0  0  0  0  0  0  0  0  0  0  0
   16.7008  -10.6879  -13.6238 C   0  0  0  0  0  0  0  0  0  0  0  0
   17.3811   -9.9063  -12.5753 C   0  0  0  0  0  0  0  0  0  0  0  0
   17.2722  -10.3137  -11.3836 O   0  0  0  0  0  0  0  0  0  0  0  0
   18.1392   -8.7409  -12.8276 N   0  0  0  0  0  0  0  0  0  0  0  0
   18.5619   -7.8871  -11.6783 C   0  0  1  0  0  0  0  0  0  0  0  0
   19.7390   -7.0600  -12.1541 C   0  0  0  0  0  0  0  0  0  0  0  0
   20.2072   -6.0605  -11.1503 C   0  0  0  0  0  0  0  0  0  0  0  0
   21.2971   -5.2268  -11.7366 C   0  0  0  0  0  0  0  0  0  0  0  0
   21.0235   -4.1191  -12.2527 O   0  0  0  0  0  0  0  0  0  0  0  0
   17.3754   -7.0858  -11.3200 C   0  0  0  0  0  0  0  0  0  0  0  0
   16.6417   -6.5558  -12.2277 O   0  0  0  0  0  0  0  0  0  0  0  0
   22.5992   -5.6772  -11.7116 O   0  0  0  0  0  0  0  0  0  0  0  0
   16.9363   -6.8317   -9.9899 N   0  0  0  0  0  0  0  0  0  0  0  0
   15.8010   -5.9548   -9.7138 C   0  0  1  0  0  0  0  0  0  0  0  0
   14.9501   -6.6766   -8.7118 C   0  0  0  0  0  0  0  0  0  0  0  0
   13.7418   -5.9624   -8.2381 C   0  0  0  0  0  0  0  0  0  0  0  0
   12.8979   -6.7390   -7.2875 C   0  0  0  0  0  0  0  0  0  0  0  0
   11.6714   -6.0666   -6.7649 C   0  0  0  0  0  0  0  0  0  0  0  0
   10.8416   -6.8584   -5.9266 N   0  0  0  0  0  0  0  0  0  0  0  0
   16.2007   -4.6007   -9.3866 C   0  0  0  0  0  0  0  0  0  0  0  0
   17.3202   -4.3825   -8.8622 O   0  0  0  0  0  0  0  0  0  0  0  0
   15.3834   -3.5277   -9.6361 O   0  0  0  0  0  0  0  0  0  0  0  0
  2  1  1  0
  3  5  1  0
  3  2  1  0
  4  3  2  0
  6  5  1  0
  6 11  1  0
  6  7  1  6
  8  7  1  0
  9  8  1  0
 10  9  2  0
 11 14  1  0
 12 11  2  0
 13  9  1  0
 14 15  1  0
 15 21  1  0
 15 16  1  1
 17 16  1  0
 18 17  1  0
 19 18  1  0
 20 19  1  0
 21 23  1  0
 22 21  2  0
M  END
$$$$
