GEK.pdb
     RDKit          3D

 23 22  0  0  1  0  0  0  0  0999 V2000
   25.7023  -22.6372  -14.2410 N   0  0  0  0  0  0  0  0  0  0  0  0
   24.3673  -22.8030  -14.7309 C   0  0  0  0  0  0  0  0  0  0  0  0
   23.3562  -22.0940  -13.9258 C   0  0  0  0  0  0  0  0  0  0  0  0
   23.7484  -21.5322  -12.8634 O   0  0  0  0  0  0  0  0  0  0  0  0
   21.9893  -22.0094  -14.2736 N   0  0  0  0  0  0  0  0  0  0  0  0
   21.0362  -21.3679  -13.3203 C   0  0  1  0  0  0  0  0  0  0  0  0
   20.2780  -20.3124  -14.0995 C   0  0  0  0  0  0  0  0  0  0  0  0
   21.0808  -19.0849  -14.3730 C   0  0  0  0  0  0  0  0  0  0  0  0
   20.2202  -18.0509  -15.0186 C   0  0  0  0  0  0  0  0  0  0  0  0
   20.6882  -16.9149  -15.2604 O   0  0  0  0  0  0  0  0  0  0  0  0
   20.1849  -22.4611  -12.8121 C   0  0  0  0  0  0  0  0  0  0  0  0
   19.8789  -23.4571  -13.5589 O   0  0  0  0  0  0  0  0  0  0  0  0
   18.9142  -18.3462  -15.3444 O   0  0  0  0  0  0  0  0  0  0  0  0
   19.6418  -22.5261  -11.4978 N   0  0  0  0  0  0  0  0  0  0  0  0
   18.8660  -23.6790  -11.0472 C   0  0  1  0  0  0  0  0  0  0  0  0
   18.9658  -23.6900   -9.5508 C   0  0  0  0  0  0  0  0  0  0  0  0
   18.3259  -24.8316   -8.8568 C   0  0  0  0  0  0  0  0  0  0  0  0
   18.5438  -24.8598   -7.3834 C   0  0  0  0  0  0  0  0  0  0  0  0
   18.0760  -26.0749   -6.6522 C   0  0  0  0  0  0  0  0  0  0  0  0
   18.2817  -26.0681   -5.2466 N   0  0  0  0  0  0  0  0  0  0  0  0
   17.5355  -23.7224  -11.6201 C   0  0  0  0  0  0  0  0  0  0  0  0
   16.8678  -22.6669  -11.7457 O   0  0  0  0  0  0  0  0  0  0  0  0
   16.9696  -24.8993  -12.0399 O   0  0  0  0  0  0  0  0  0  0  0  0
  2  1  1  0
  3  5  1  0
  3  2  1  0
  4  3  2  0
  6  5  1  0
  6 11  1  0
  6  7  1  6
  8  7  1  0
  9  8  1  0
 10  9  2  0
 11 14  1  0
 12 11  2  0
 13  9  1  0
 14 15  1  0
 15 21  1  0
 15 16  1  1
 17 16  1  0
 18 17  1  0
 19 18  1  0
 20 19  1  0
 21 23  1  0
 22 21  2  0
M  END
$$$$
