GEK.pdb
     RDKit          3D

 23 22  0  0  1  0  0  0  0  0999 V2000
   20.0188  -12.4519  -16.4646 N   0  0  0  0  0  0  0  0  0  0  0  0
   20.3381  -11.1555  -16.9812 C   0  0  0  0  0  0  0  0  0  0  0  0
   19.9027  -10.0528  -16.1051 C   0  0  0  0  0  0  0  0  0  0  0  0
   18.8065  -10.1958  -15.4918 O   0  0  0  0  0  0  0  0  0  0  0  0
   20.6356   -8.8596  -15.9162 N   0  0  0  0  0  0  0  0  0  0  0  0
   20.0793   -7.7998  -15.0240 C   0  0  1  0  0  0  0  0  0  0  0  0
   21.2461   -6.9404  -14.5813 C   0  0  0  0  0  0  0  0  0  0  0  0
   20.8497   -5.8184  -13.6812 C   0  0  0  0  0  0  0  0  0  0  0  0
   22.0676   -5.1151  -13.1826 C   0  0  0  0  0  0  0  0  0  0  0  0
   22.5079   -5.3695  -12.0383 O   0  0  0  0  0  0  0  0  0  0  0  0
   19.0813   -7.0782  -15.8372 C   0  0  0  0  0  0  0  0  0  0  0  0
   19.3250   -6.7728  -17.0581 O   0  0  0  0  0  0  0  0  0  0  0  0
   22.7028   -4.1873  -13.9793 O   0  0  0  0  0  0  0  0  0  0  0  0
   17.7987   -6.6675  -15.3758 N   0  0  0  0  0  0  0  0  0  0  0  0
   16.8935   -5.8936  -16.2219 C   0  0  1  0  0  0  0  0  0  0  0  0
   15.5325   -6.4960  -16.0372 C   0  0  0  0  0  0  0  0  0  0  0  0
   14.4081   -5.7990  -16.7039 C   0  0  0  0  0  0  0  0  0  0  0  0
   13.0721   -6.4135  -16.4660 C   0  0  0  0  0  0  0  0  0  0  0  0
   11.9164   -5.8327  -17.2122 C   0  0  0  0  0  0  0  0  0  0  0  0
   10.6322   -6.3008  -16.8250 N   0  0  0  0  0  0  0  0  0  0  0  0
   17.0154   -4.4639  -16.0186 C   0  0  0  0  0  0  0  0  0  0  0  0
   17.5399   -4.0182  -14.9688 O   0  0  0  0  0  0  0  0  0  0  0  0
   16.5707   -3.5627  -16.9522 O   0  0  0  0  0  0  0  0  0  0  0  0
  2  1  1  0
  3  5  1  0
  3  2  1  0
  4  3  2  0
  6  5  1  0
  6 11  1  0
  6  7  1  6
  8  7  1  0
  9  8  1  0
 10  9  2  0
 11 14  1  0
 12 11  2  0
 13  9  1  0
 14 15  1  0
 15 21  1  0
 15 16  1  1
 17 16  1  0
 18 17  1  0
 19 18  1  0
 20 19  1  0
 21 23  1  0
 22 21  2  0
M  END
$$$$
