GEK.pdb
     RDKit          3D

 23 22  0  0  1  0  0  0  0  0999 V2000
   16.7605  -11.8395  -14.7590 N   0  0  0  0  0  0  0  0  0  0  0  0
   17.8697  -11.0043  -15.1077 C   0  0  0  0  0  0  0  0  0  0  0  0
   18.3112  -10.1281  -14.0074 C   0  0  0  0  0  0  0  0  0  0  0  0
   18.3238  -10.6191  -12.8425 O   0  0  0  0  0  0  0  0  0  0  0  0
   18.7161   -8.7858  -14.1826 N   0  0  0  0  0  0  0  0  0  0  0  0
   19.2448   -8.0283  -13.0098 C   0  0  1  0  0  0  0  0  0  0  0  0
   20.2913   -7.0697  -13.5407 C   0  0  0  0  0  0  0  0  0  0  0  0
   20.8676   -6.1788  -12.4917 C   0  0  0  0  0  0  0  0  0  0  0  0
   21.8346   -5.2266  -13.1119 C   0  0  0  0  0  0  0  0  0  0  0  0
   22.9627   -5.6329  -13.4730 O   0  0  0  0  0  0  0  0  0  0  0  0
   18.0749   -7.3605  -12.4069 C   0  0  0  0  0  0  0  0  0  0  0  0
   17.0009   -7.1791  -13.0830 O   0  0  0  0  0  0  0  0  0  0  0  0
   21.4865   -3.9043  -13.2837 O   0  0  0  0  0  0  0  0  0  0  0  0
   18.0147   -6.8736  -11.0705 N   0  0  0  0  0  0  0  0  0  0  0  0
   16.7636   -6.3970  -10.4860 C   0  0  1  0  0  0  0  0  0  0  0  0
   15.8781   -7.6006  -10.3570 C   0  0  0  0  0  0  0  0  0  0  0  0
   14.6234   -7.4157   -9.5916 C   0  0  0  0  0  0  0  0  0  0  0  0
   13.8322   -8.6619   -9.3918 C   0  0  0  0  0  0  0  0  0  0  0  0
   12.5477   -8.5362   -8.6408 C   0  0  0  0  0  0  0  0  0  0  0  0
   11.8679   -9.7539   -8.3701 N   0  0  0  0  0  0  0  0  0  0  0  0
   16.9664   -5.5963   -9.2951 C   0  0  0  0  0  0  0  0  0  0  0  0
   18.0946   -5.5562   -8.7463 O   0  0  0  0  0  0  0  0  0  0  0  0
   15.9492   -4.8650   -8.7366 O   0  0  0  0  0  0  0  0  0  0  0  0
  2  1  1  0
  3  5  1  0
  3  2  1  0
  4  3  2  0
  6  5  1  0
  6 11  1  0
  6  7  1  6
  8  7  1  0
  9  8  1  0
 10  9  2  0
 11 14  1  0
 12 11  2  0
 13  9  1  0
 14 15  1  0
 15 21  1  0
 15 16  1  1
 17 16  1  0
 18 17  1  0
 19 18  1  0
 20 19  1  0
 21 23  1  0
 22 21  2  0
M  END
$$$$
