GEK.pdb
     RDKit          3D

 23 22  0  0  1  0  0  0  0  0999 V2000
   15.9062  -13.4102  -15.6651 N   0  0  0  0  0  0  0  0  0  0  0  0
   15.7970  -12.0933  -15.1141 C   0  0  0  0  0  0  0  0  0  0  0  0
   16.7923  -11.1490  -15.6532 C   0  0  0  0  0  0  0  0  0  0  0  0
   17.6773  -11.6154  -16.4261 O   0  0  0  0  0  0  0  0  0  0  0  0
   16.8099   -9.7676  -15.3564 N   0  0  0  0  0  0  0  0  0  0  0  0
   17.7758   -8.8835  -16.0735 C   0  0  1  0  0  0  0  0  0  0  0  0
   17.1228   -7.5211  -16.1892 C   0  0  0  0  0  0  0  0  0  0  0  0
   18.0243   -6.4765  -16.7567 C   0  0  0  0  0  0  0  0  0  0  0  0
   17.3121   -5.1662  -16.8066 C   0  0  0  0  0  0  0  0  0  0  0  0
   17.9196   -4.1426  -17.1957 O   0  0  0  0  0  0  0  0  0  0  0  0
   19.0039   -8.8891  -15.2552 C   0  0  0  0  0  0  0  0  0  0  0  0
   18.9424   -8.8139  -13.9769 O   0  0  0  0  0  0  0  0  0  0  0  0
   15.9910   -5.0843  -16.4230 O   0  0  0  0  0  0  0  0  0  0  0  0
   20.3268   -8.9795  -15.7733 N   0  0  0  0  0  0  0  0  0  0  0  0
   21.4951   -8.9475  -14.8968 C   0  0  1  0  0  0  0  0  0  0  0  0
   22.6106   -9.5919  -15.6647 C   0  0  0  0  0  0  0  0  0  0  0  0
   22.8266  -11.0374  -15.4236 C   0  0  0  0  0  0  0  0  0  0  0  0
   23.9105  -11.6457  -16.2447 C   0  0  0  0  0  0  0  0  0  0  0  0
   24.2085  -13.0901  -16.0111 C   0  0  0  0  0  0  0  0  0  0  0  0
   25.2491  -13.6430  -16.8045 N   0  0  0  0  0  0  0  0  0  0  0  0
   21.7489   -7.6326  -14.3429 C   0  0  0  0  0  0  0  0  0  0  0  0
   21.6161   -6.6099  -15.0587 O   0  0  0  0  0  0  0  0  0  0  0  0
   22.1350   -7.4626  -13.0376 O   0  0  0  0  0  0  0  0  0  0  0  0
  2  1  1  0
  3  5  1  0
  3  2  1  0
  4  3  2  0
  6  5  1  0
  6 11  1  0
  6  7  1  1
  8  7  1  0
  9  8  1  0
 10  9  2  0
 11 14  1  0
 12 11  2  0
 13  9  1  0
 14 15  1  0
 15 21  1  0
 15 16  1  6
 17 16  1  0
 18 17  1  0
 19 18  1  0
 20 19  1  0
 21 23  1  0
 22 21  2  0
M  END
$$$$
