GEK.pdb
     RDKit          3D

 23 22  0  0  1  0  0  0  0  0999 V2000
   26.0011  -14.3724  -15.9343 N   0  0  0  0  0  0  0  0  0  0  0  0
   27.2190  -13.9708  -16.5707 C   0  0  0  0  0  0  0  0  0  0  0  0
   27.3318  -12.5120  -16.7507 C   0  0  0  0  0  0  0  0  0  0  0  0
   26.3389  -11.8060  -16.4131 O   0  0  0  0  0  0  0  0  0  0  0  0
   28.4758  -11.8684  -17.2736 N   0  0  0  0  0  0  0  0  0  0  0  0
   28.4377  -10.3937  -17.5030 C   0  0  1  0  0  0  0  0  0  0  0  0
   29.8531   -9.8836  -17.3223 C   0  0  0  0  0  0  0  0  0  0  0  0
   30.0042   -8.4307  -17.6257 C   0  0  0  0  0  0  0  0  0  0  0  0
   31.4223   -8.0153  -17.4186 C   0  0  0  0  0  0  0  0  0  0  0  0
   32.1912   -7.9159  -18.4020 O   0  0  0  0  0  0  0  0  0  0  0  0
   27.9095  -10.2169  -18.8697 C   0  0  0  0  0  0  0  0  0  0  0  0
   28.2960  -10.9767  -19.8271 O   0  0  0  0  0  0  0  0  0  0  0  0
   31.8831   -7.7448  -16.1484 O   0  0  0  0  0  0  0  0  0  0  0  0
   26.9547   -9.2327  -19.2522 N   0  0  0  0  0  0  0  0  0  0  0  0
   26.4716   -9.1298  -20.6270 C   0  0  1  0  0  0  0  0  0  0  0  0
   25.0333   -9.5538  -20.5966 C   0  0  0  0  0  0  0  0  0  0  0  0
   24.3013   -9.4912  -21.8830 C   0  0  0  0  0  0  0  0  0  0  0  0
   22.9068  -10.0121  -21.8263 C   0  0  0  0  0  0  0  0  0  0  0  0
   22.1482  -10.0594  -23.1115 C   0  0  0  0  0  0  0  0  0  0  0  0
   20.9091  -10.7533  -23.0732 N   0  0  0  0  0  0  0  0  0  0  0  0
   26.7690   -7.8484  -21.2351 C   0  0  0  0  0  0  0  0  0  0  0  0
   26.5833   -6.7865  -20.5921 O   0  0  0  0  0  0  0  0  0  0  0  0
   27.2577   -7.7533  -22.5133 O   0  0  0  0  0  0  0  0  0  0  0  0
  2  1  1  0
  3  5  1  0
  3  2  1  0
  4  3  2  0
  6  5  1  0
  6 11  1  0
  6  7  1  6
  8  7  1  0
  9  8  1  0
 10  9  2  0
 11 14  1  0
 12 11  2  0
 13  9  1  0
 14 15  1  0
 15 21  1  0
 15 16  1  1
 17 16  1  0
 18 17  1  0
 19 18  1  0
 20 19  1  0
 21 23  1  0
 22 21  2  0
M  END
$$$$
