GET.pdb
     RDKit          3D

 21 20  0  0  1  0  0  0  0  0999 V2000
   12.6128  -13.5910  -11.2546 N   0  0  0  0  0  0  0  0  0  0  0  0
   12.3743  -12.1644  -11.3162 C   0  0  0  0  0  0  0  0  0  0  0  0
   13.6569  -11.4517  -11.0830 C   0  0  0  0  0  0  0  0  0  0  0  0
   14.3900  -11.7693  -10.1056 O   0  0  0  0  0  0  0  0  0  0  0  0
   14.1140  -10.4064  -11.9203 N   0  0  0  0  0  0  0  0  0  0  0  0
   15.3385   -9.6702  -11.6881 C   0  0  1  0  0  0  0  0  0  0  0  0
   16.2225   -9.6397  -12.8961 C   0  0  0  0  0  0  0  0  0  0  0  0
   16.6759  -11.0314  -13.2918 C   0  0  0  0  0  0  0  0  0  0  0  0
   17.5035  -10.9531  -14.5169 C   0  0  0  0  0  0  0  0  0  0  0  0
   18.4955  -10.1601  -14.5355 O   0  0  0  0  0  0  0  0  0  0  0  0
   15.0828   -8.2796  -11.2440 C   0  0  0  0  0  0  0  0  0  0  0  0
   14.0694   -7.6654  -11.6421 O   0  0  0  0  0  0  0  0  0  0  0  0
   17.1352  -11.7582  -15.5721 O   0  0  0  0  0  0  0  0  0  0  0  0
   14.6396   -6.7458   -7.9014 C   0  0  0  0  0  0  0  0  0  0  0  0
   15.8016   -6.0076   -8.5351 C   0  0  1  0  0  0  0  0  0  0  0  0
   16.9681   -6.6923   -8.1228 O   0  0  0  0  0  0  0  0  0  0  0  0
   15.7054   -6.2164  -10.0395 C   0  0  2  0  0  0  0  0  0  0  0  0
   15.9671   -7.6118  -10.3620 N   0  0  0  0  0  0  0  0  0  0  0  0
   16.6225   -5.3219  -10.7898 C   0  0  0  0  0  0  0  0  0  0  0  0
   16.4092   -3.9479  -10.7389 O   0  0  0  0  0  0  0  0  0  0  0  0
   17.5861   -5.7140  -11.4765 O   0  0  0  0  0  0  0  0  0  0  0  0
  2  1  1  0
  3  5  1  0
  3  2  1  0
  4  3  2  0
  6 11  1  0
  6  5  1  0
  6  7  1  6
  8  7  1  0
  9 10  2  0
  9  8  1  0
 11 18  1  0
 12 11  2  0
 13  9  1  0
 15 14  1  1
 16 15  1  0
 17 19  1  0
 17 15  1  0
 17 18  1  1
 19 20  1  0
 21 19  2  0
M  END
$$$$
