GET.pdb
     RDKit          3D

 21 20  0  0  1  0  0  0  0  0999 V2000
   14.7136  -15.7034  -14.8182 N   0  0  0  0  0  0  0  0  0  0  0  0
   14.3058  -14.3294  -15.0225 C   0  0  0  0  0  0  0  0  0  0  0  0
   15.2952  -13.4321  -14.3719 C   0  0  0  0  0  0  0  0  0  0  0  0
   15.5161  -13.5247  -13.1325 O   0  0  0  0  0  0  0  0  0  0  0  0
   16.0235  -12.4513  -15.0862 N   0  0  0  0  0  0  0  0  0  0  0  0
   17.0388  -11.6115  -14.4866 C   0  0  1  0  0  0  0  0  0  0  0  0
   18.1788  -11.3425  -15.4191 C   0  0  0  0  0  0  0  0  0  0  0  0
   19.2510  -12.4094  -15.3132 C   0  0  0  0  0  0  0  0  0  0  0  0
   20.3685  -12.0810  -16.2271 C   0  0  0  0  0  0  0  0  0  0  0  0
   20.6300  -12.8747  -17.1835 O   0  0  0  0  0  0  0  0  0  0  0  0
   16.4908  -10.3192  -14.0115 C   0  0  0  0  0  0  0  0  0  0  0  0
   15.5613   -9.7602  -14.6330 O   0  0  0  0  0  0  0  0  0  0  0  0
   21.0616  -10.9180  -15.9736 O   0  0  0  0  0  0  0  0  0  0  0  0
   14.7526   -9.5275  -11.0171 C   0  0  0  0  0  0  0  0  0  0  0  0
   15.8925   -8.5288  -11.0100 C   0  0  1  0  0  0  0  0  0  0  0  0
   16.9334   -9.1328  -10.2676 O   0  0  0  0  0  0  0  0  0  0  0  0
   16.4082   -8.4188  -12.4376 C   0  0  2  0  0  0  0  0  0  0  0  0
   16.9953   -9.6858  -12.8495 N   0  0  0  0  0  0  0  0  0  0  0  0
   17.3826   -7.3103  -12.5982 C   0  0  0  0  0  0  0  0  0  0  0  0
   18.6672   -7.6062  -13.0436 O   0  0  0  0  0  0  0  0  0  0  0  0
   17.1350   -6.1123  -12.3587 O   0  0  0  0  0  0  0  0  0  0  0  0
  2  1  1  0
  3  5  1  0
  3  2  1  0
  4  3  2  0
  6 11  1  0
  6  5  1  0
  6  7  1  6
  8  7  1  0
  9 10  2  0
  9  8  1  0
 11 18  1  0
 12 11  2  0
 13  9  1  0
 15 14  1  6
 16 15  1  0
 17 19  1  0
 17 15  1  0
 17 18  1  1
 19 20  1  0
 21 19  2  0
M  END
$$$$
