GET.pdb
     RDKit          3D

 21 20  0  0  1  0  0  0  0  0999 V2000
   15.9427  -12.4329  -16.3282 N   0  0  0  0  0  0  0  0  0  0  0  0
   15.6630  -11.0959  -16.8075 C   0  0  0  0  0  0  0  0  0  0  0  0
   16.4758  -10.1258  -16.0291 C   0  0  0  0  0  0  0  0  0  0  0  0
   16.2766   -9.9816  -14.7910 O   0  0  0  0  0  0  0  0  0  0  0  0
   17.4892   -9.3321  -16.6170 N   0  0  0  0  0  0  0  0  0  0  0  0
   18.3270   -8.4185  -15.8696 C   0  0  1  0  0  0  0  0  0  0  0  0
   19.7492   -8.8804  -15.7963 C   0  0  0  0  0  0  0  0  0  0  0  0
   20.5886   -7.9685  -14.9229 C   0  0  0  0  0  0  0  0  0  0  0  0
   21.9819   -8.4673  -14.8810 C   0  0  0  0  0  0  0  0  0  0  0  0
   22.2158   -9.5830  -14.3211 O   0  0  0  0  0  0  0  0  0  0  0  0
   18.2956   -7.0447  -16.4248 C   0  0  0  0  0  0  0  0  0  0  0  0
   18.8006   -6.8032  -17.5425 O   0  0  0  0  0  0  0  0  0  0  0  0
   22.9470   -7.6740  -15.4610 O   0  0  0  0  0  0  0  0  0  0  0  0
   15.2907   -4.5730  -16.4927 C   0  0  0  0  0  0  0  0  0  0  0  0
   16.4890   -3.8659  -15.8920 C   0  0  1  0  0  0  0  0  0  0  0  0
   16.3762   -4.0312  -14.4922 O   0  0  0  0  0  0  0  0  0  0  0  0
   17.7295   -4.6446  -16.3052 C   0  0  2  0  0  0  0  0  0  0  0  0
   17.6961   -5.9754  -15.7155 N   0  0  0  0  0  0  0  0  0  0  0  0
   18.9830   -3.9382  -15.9395 C   0  0  0  0  0  0  0  0  0  0  0  0
   19.2406   -2.6935  -16.5054 O   0  0  0  0  0  0  0  0  0  0  0  0
   19.8399   -4.3831  -15.1510 O   0  0  0  0  0  0  0  0  0  0  0  0
  2  1  1  0
  3  5  1  0
  3  2  1  0
  4  3  2  0
  6 11  1  0
  6  5  1  0
  6  7  1  6
  8  7  1  0
  9 10  2  0
  9  8  1  0
 11 18  1  0
 12 11  2  0
 13  9  1  0
 15 14  1  6
 16 15  1  0
 17 19  1  0
 17 15  1  0
 17 18  1  1
 19 20  1  0
 21 19  2  0
M  END
$$$$
