GET.pdb
     RDKit          3D

 21 20  0  0  1  0  0  0  0  0999 V2000
   21.7781  -12.3415  -18.8115 N   0  0  0  0  0  0  0  0  0  0  0  0
   22.5868  -11.1440  -18.7232 C   0  0  0  0  0  0  0  0  0  0  0  0
   21.8071  -10.0870  -18.0286 C   0  0  0  0  0  0  0  0  0  0  0  0
   21.1298   -9.2569  -18.6962 O   0  0  0  0  0  0  0  0  0  0  0  0
   21.7823   -9.9565  -16.6197 N   0  0  0  0  0  0  0  0  0  0  0  0
   20.9749   -8.9805  -15.9189 C   0  0  1  0  0  0  0  0  0  0  0  0
   20.2201   -9.5821  -14.7744 C   0  0  0  0  0  0  0  0  0  0  0  0
   18.8989  -10.1734  -15.2257 C   0  0  0  0  0  0  0  0  0  0  0  0
   17.8879   -9.0977  -15.3395 C   0  0  0  0  0  0  0  0  0  0  0  0
   17.4797   -8.7614  -16.4942 O   0  0  0  0  0  0  0  0  0  0  0  0
   21.7791   -7.8406  -15.4186 C   0  0  0  0  0  0  0  0  0  0  0  0
   22.8228   -8.0439  -14.7613 O   0  0  0  0  0  0  0  0  0  0  0  0
   17.4518   -8.5238  -14.1658 O   0  0  0  0  0  0  0  0  0  0  0  0
   23.5051   -5.3402  -17.2751 C   0  0  0  0  0  0  0  0  0  0  0  0
   22.6535   -4.5193  -16.3277 C   0  0  1  0  0  0  0  0  0  0  0  0
   21.4604   -4.2301  -17.0294 O   0  0  0  0  0  0  0  0  0  0  0  0
   22.2499   -5.4292  -15.1764 C   0  0  2  0  0  0  0  0  0  0  0  0
   21.3961   -6.5004  -15.6697 N   0  0  0  0  0  0  0  0  0  0  0  0
   21.5798   -4.6843  -14.0810 C   0  0  0  0  0  0  0  0  0  0  0  0
   22.3176   -3.7570  -13.3517 O   0  0  0  0  0  0  0  0  0  0  0  0
   20.3850   -4.8292  -13.7565 O   0  0  0  0  0  0  0  0  0  0  0  0
  2  1  1  0
  3  5  1  0
  3  2  1  0
  4  3  2  0
  6 11  1  0
  6  5  1  0
  6  7  1  1
  8  7  1  0
  9 10  2  0
  9  8  1  0
 11 18  1  0
 12 11  2  0
 13  9  1  0
 15 14  1  6
 16 15  1  0
 17 19  1  0
 17 15  1  0
 17 18  1  6
 19 20  1  0
 21 19  2  0
M  END
$$$$
