GET.pdb
     RDKit          3D

 21 20  0  0  1  0  0  0  0  0999 V2000
   12.0545  -11.7282  -10.1424 N   0  0  0  0  0  0  0  0  0  0  0  0
   13.4344  -11.5653   -9.7357 C   0  0  0  0  0  0  0  0  0  0  0  0
   14.0064  -10.3863  -10.4361 C   0  0  0  0  0  0  0  0  0  0  0  0
   13.3945   -9.8707  -11.4124 O   0  0  0  0  0  0  0  0  0  0  0  0
   15.2345   -9.7939  -10.0577 N   0  0  0  0  0  0  0  0  0  0  0  0
   15.7843   -8.6139  -10.6907 C   0  0  1  0  0  0  0  0  0  0  0  0
   16.3863   -7.6650   -9.7014 C   0  0  0  0  0  0  0  0  0  0  0  0
   15.4193   -6.5580   -9.3293 C   0  0  0  0  0  0  0  0  0  0  0  0
   16.0668   -5.6372   -8.3676 C   0  0  0  0  0  0  0  0  0  0  0  0
   17.1948   -5.9567   -7.8792 O   0  0  0  0  0  0  0  0  0  0  0  0
   16.8004   -8.9480  -11.7165 C   0  0  0  0  0  0  0  0  0  0  0  0
   17.8387   -9.5677  -11.3990 O   0  0  0  0  0  0  0  0  0  0  0  0
   15.3904   -4.4771   -8.0614 O   0  0  0  0  0  0  0  0  0  0  0  0
   16.5381  -11.0272  -14.6535 C   0  0  0  0  0  0  0  0  0  0  0  0
   17.0473   -9.7064  -15.1947 C   0  0  1  0  0  0  0  0  0  0  0  0
   15.8989   -8.9726  -15.5721 O   0  0  0  0  0  0  0  0  0  0  0  0
   17.6636   -8.9459  -14.0295 C   0  0  2  0  0  0  0  0  0  0  0  0
   16.6273   -8.5824  -13.0737 N   0  0  0  0  0  0  0  0  0  0  0  0
   18.4119   -7.7443  -14.4769 C   0  0  0  0  0  0  0  0  0  0  0  0
   19.5921   -7.9176  -15.1931 O   0  0  0  0  0  0  0  0  0  0  0  0
   18.0590   -6.5695  -14.2547 O   0  0  0  0  0  0  0  0  0  0  0  0
  2  1  1  0
  3  5  1  0
  3  2  1  0
  4  3  2  0
  6 11  1  0
  6  5  1  0
  6  7  1  1
  8  7  1  0
  9 10  2  0
  9  8  1  0
 11 18  1  0
 12 11  2  0
 13  9  1  0
 15 14  1  1
 16 15  1  0
 17 19  1  0
 17 15  1  0
 17 18  1  1
 19 20  1  0
 21 19  2  0
M  END
$$$$
