GET.pdb
     RDKit          3D

 21 20  0  0  1  0  0  0  0  0999 V2000
   23.3414  -11.0773  -19.2631 N   0  0  0  0  0  0  0  0  0  0  0  0
   22.5693  -10.0174  -19.8766 C   0  0  0  0  0  0  0  0  0  0  0  0
   21.6682   -9.4250  -18.8545 C   0  0  0  0  0  0  0  0  0  0  0  0
   20.5164   -9.0246  -19.1806 O   0  0  0  0  0  0  0  0  0  0  0  0
   22.0418   -9.2811  -17.4971 N   0  0  0  0  0  0  0  0  0  0  0  0
   21.1747   -8.7220  -16.4818 C   0  0  1  0  0  0  0  0  0  0  0  0
   20.8587   -9.7056  -15.3982 C   0  0  0  0  0  0  0  0  0  0  0  0
   19.5532  -10.4295  -15.6641 C   0  0  0  0  0  0  0  0  0  0  0  0
   18.4293   -9.6468  -15.1016 C   0  0  0  0  0  0  0  0  0  0  0  0
   17.4594   -9.3367  -15.8607 O   0  0  0  0  0  0  0  0  0  0  0  0
   21.7426   -7.4977  -15.8694 C   0  0  0  0  0  0  0  0  0  0  0  0
   22.9784   -7.3800  -15.7217 O   0  0  0  0  0  0  0  0  0  0  0  0
   18.5133   -9.3010  -13.7710 O   0  0  0  0  0  0  0  0  0  0  0  0
   21.2902   -2.8207  -14.5340 C   0  0  0  0  0  0  0  0  0  0  0  0
   20.6048   -4.0370  -15.1235 C   0  0  1  0  0  0  0  0  0  0  0  0
   20.5436   -3.8106  -16.5180 O   0  0  0  0  0  0  0  0  0  0  0  0
   21.5411   -5.2217  -14.9342 C   0  0  2  0  0  0  0  0  0  0  0  0
   20.9124   -6.4336  -15.4402 N   0  0  0  0  0  0  0  0  0  0  0  0
   21.9498   -5.3930  -13.5173 C   0  0  0  0  0  0  0  0  0  0  0  0
   23.1082   -4.7632  -13.0729 O   0  0  0  0  0  0  0  0  0  0  0  0
   21.3246   -6.0718  -12.6792 O   0  0  0  0  0  0  0  0  0  0  0  0
  2  1  1  0
  3  5  1  0
  3  2  1  0
  4  3  2  0
  6 11  1  0
  6  5  1  0
  6  7  1  1
  8  7  1  0
  9 10  2  0
  9  8  1  0
 11 18  1  0
 12 11  2  0
 13  9  1  0
 15 14  1  1
 16 15  1  0
 17 19  1  0
 17 15  1  0
 17 18  1  1
 19 20  1  0
 21 19  2  0
M  END
$$$$
