GET.pdb
     RDKit          3D

 21 20  0  0  1  0  0  0  0  0999 V2000
   16.0331  -12.7940  -16.5783 N   0  0  0  0  0  0  0  0  0  0  0  0
   17.2837  -12.7090  -15.8539 C   0  0  0  0  0  0  0  0  0  0  0  0
   17.8749  -11.3633  -16.0708 C   0  0  0  0  0  0  0  0  0  0  0  0
   18.8463  -11.2180  -16.8636 O   0  0  0  0  0  0  0  0  0  0  0  0
   17.3948  -10.2031  -15.4180 N   0  0  0  0  0  0  0  0  0  0  0  0
   17.9014   -8.8714  -15.6739 C   0  0  1  0  0  0  0  0  0  0  0  0
   16.8553   -7.8176  -15.4821 C   0  0  0  0  0  0  0  0  0  0  0  0
   17.3752   -6.4412  -15.8484 C   0  0  0  0  0  0  0  0  0  0  0  0
   16.3003   -5.4401  -15.6628 C   0  0  0  0  0  0  0  0  0  0  0  0
   16.3391   -4.6824  -14.6443 O   0  0  0  0  0  0  0  0  0  0  0  0
   19.0742   -8.5442  -14.8290 C   0  0  0  0  0  0  0  0  0  0  0  0
   19.0254   -8.7055  -13.5903 O   0  0  0  0  0  0  0  0  0  0  0  0
   15.3134   -5.3981  -16.6228 O   0  0  0  0  0  0  0  0  0  0  0  0
   22.3420  -10.0418  -14.8666 C   0  0  0  0  0  0  0  0  0  0  0  0
   22.6278   -8.5618  -15.0242 C   0  0  1  0  0  0  0  0  0  0  0  0
   22.6757   -8.3216  -16.4169 O   0  0  0  0  0  0  0  0  0  0  0  0
   21.4092   -7.8074  -14.5126 C   0  0  2  0  0  0  0  0  0  0  0  0
   20.2746   -8.0473  -15.3929 N   0  0  0  0  0  0  0  0  0  0  0  0
   21.6683   -6.3523  -14.3726 C   0  0  0  0  0  0  0  0  0  0  0  0
   22.5732   -5.9224  -13.4071 O   0  0  0  0  0  0  0  0  0  0  0  0
   21.1262   -5.4688  -15.0650 O   0  0  0  0  0  0  0  0  0  0  0  0
  2  1  1  0
  3  5  1  0
  3  2  1  0
  4  3  2  0
  6 11  1  0
  6  5  1  0
  6  7  1  1
  8  7  1  0
  9 10  2  0
  9  8  1  0
 11 18  1  0
 12 11  2  0
 13  9  1  0
 15 14  1  6
 16 15  1  0
 17 19  1  0
 17 15  1  0
 17 18  1  6
 19 20  1  0
 21 19  2  0
M  END
$$$$
