GET.pdb
     RDKit          3D

 21 20  0  0  1  0  0  0  0  0999 V2000
   11.6902  -12.6621  -10.1679 N   0  0  0  0  0  0  0  0  0  0  0  0
   12.0195  -11.7250  -11.2212 C   0  0  0  0  0  0  0  0  0  0  0  0
   13.2697  -11.0102  -10.8556 C   0  0  0  0  0  0  0  0  0  0  0  0
   13.6386  -10.9545   -9.6497 O   0  0  0  0  0  0  0  0  0  0  0  0
   14.0922  -10.3700  -11.8129 N   0  0  0  0  0  0  0  0  0  0  0  0
   15.3334   -9.7013  -11.4847 C   0  0  1  0  0  0  0  0  0  0  0  0
   16.3434   -9.8034  -12.5851 C   0  0  0  0  0  0  0  0  0  0  0  0
   17.6829   -9.2273  -12.1692 C   0  0  0  0  0  0  0  0  0  0  0  0
   18.6352   -9.3222  -13.2988 C   0  0  0  0  0  0  0  0  0  0  0  0
   19.8146   -8.8772  -13.1438 O   0  0  0  0  0  0  0  0  0  0  0  0
   15.1304   -8.2721  -11.1492 C   0  0  0  0  0  0  0  0  0  0  0  0
   14.3110   -7.5820  -11.7935 O   0  0  0  0  0  0  0  0  0  0  0  0
   18.1698   -9.8953  -14.4616 O   0  0  0  0  0  0  0  0  0  0  0  0
   15.5743   -4.5796   -7.9758 C   0  0  0  0  0  0  0  0  0  0  0  0
   16.0349   -5.9776   -8.3365 C   0  0  1  0  0  0  0  0  0  0  0  0
   15.3569   -6.8499   -7.4539 O   0  0  0  0  0  0  0  0  0  0  0  0
   15.4964   -6.2885   -9.7255 C   0  0  2  0  0  0  0  0  0  0  0  0
   15.8480   -7.6514  -10.0977 N   0  0  0  0  0  0  0  0  0  0  0  0
   15.9806   -5.3232  -10.7441 C   0  0  0  0  0  0  0  0  0  0  0  0
   15.1561   -4.2634  -11.1087 O   0  0  0  0  0  0  0  0  0  0  0  0
   17.0892   -5.3908  -11.3101 O   0  0  0  0  0  0  0  0  0  0  0  0
  2  1  1  0
  3  5  1  0
  3  2  1  0
  4  3  2  0
  6 11  1  0
  6  5  1  0
  6  7  1  6
  8  7  1  0
  9 10  2  0
  9  8  1  0
 11 18  1  0
 12 11  2  0
 13  9  1  0
 15 14  1  1
 16 15  1  0
 17 19  1  0
 17 15  1  0
 17 18  1  6
 19 20  1  0
 21 19  2  0
M  END
$$$$
