HYC.pdb
     RDKit          3D

 29 30  0  0  1  0  0  0  0  0999 V2000
   10.0114  -17.4965   19.0209 N   0  0  0  0  0  0  0  0  0  0  0  0
    8.8152  -17.4355   19.8217 C   0  0  1  0  0  0  0  0  0  0  0  0
    8.3869  -18.8554   20.1272 C   0  0  0  0  0  0  0  0  0  0  0  0
    7.8065  -19.4300   18.8857 C   0  0  0  0  0  0  0  0  0  0  0  0
    8.4855  -19.7841   17.7262 C   0  0  0  0  0  0  0  0  0  0  0  0
    7.5976  -20.2722   16.8221 N   0  0  0  0  0  0  0  0  0  0  0  0
    6.3777  -20.2257   17.4047 C   0  0  0  0  0  0  0  0  0  0  0  0
    6.5187  -19.7218   18.6335 N   0  0  0  0  0  0  0  0  0  0  0  0
    9.0398  -16.6619   21.0842 C   0  0  0  0  0  0  0  0  0  0  0  0
   10.1492  -16.7106   21.6692 O   0  0  0  0  0  0  0  0  0  0  0  0
    7.2862  -11.8783   28.3619 O   0  0  0  0  0  0  0  0  0  0  0  0
    7.2287  -12.4276   27.0846 C   0  0  0  0  0  0  0  0  0  0  0  0
    6.4041  -13.5015   26.8299 C   0  0  0  0  0  0  0  0  0  0  0  0
    6.3552  -14.0372   25.5619 C   0  0  0  0  0  0  0  0  0  0  0  0
    7.1193  -13.5303   24.5027 C   0  0  0  0  0  0  0  0  0  0  0  0
    6.9843  -14.1756   23.1780 C   0  0  0  0  0  0  0  0  0  0  0  0
    8.0771  -15.2020   22.9048 C   0  0  2  0  0  0  0  0  0  0  0  0
    8.0196  -15.8568   21.6566 N   0  0  0  0  0  0  0  0  0  0  0  0
    8.3920  -16.0405   24.0757 C   0  0  0  0  0  0  0  0  0  0  0  0
    7.5697  -16.9393   24.4685 O   0  0  0  0  0  0  0  0  0  0  0  0
    7.9249  -12.4608   24.8045 C   0  0  0  0  0  0  0  0  0  0  0  0
    7.9897  -11.9074   26.0699 C   0  0  0  0  0  0  0  0  0  0  0  0
    9.5745  -15.9380   24.8402 N   0  0  0  0  0  0  0  0  0  0  0  0
    9.8578  -16.8328   25.9285 C   0  0  1  0  0  0  0  0  0  0  0  0
   11.1763  -17.5522   25.7642 C   0  0  0  0  0  0  0  0  0  0  0  0
   11.3860  -18.2986   24.1534 S   0  0  0  0  0  0  0  0  0  0  0  0
    9.9384  -16.0980   27.2366 C   0  0  0  0  0  0  0  0  0  0  0  0
    9.8321  -14.8439   27.2652 O   0  0  0  0  0  0  0  0  0  0  0  0
   10.1294  -16.7778   28.4277 O   0  0  0  0  0  0  0  0  0  0  0  0
  2  1  1  1
  2  3  1  0
  2  9  1  0
  3  4  1  0
  4  5  2  0
  6  5  1  0
  7  6  1  0
  8  7  2  0
  8  4  1  0
  9 10  2  0
  9 18  1  0
 12 11  1  0
 12 22  2  0
 13 12  1  0
 14 13  2  0
 14 15  1  0
 15 21  2  0
 16 15  1  0
 17 16  1  1
 18 17  1  0
 19 17  1  0
 19 20  2  0
 21 22  1  0
 23 19  1  0
 24 23  1  0
 24 25  1  6
 26 25  1  0
 27 24  1  0
 28 27  2  0
 29 27  1  0
M  END
$$$$
