HYC.pdb
     RDKit          3D

 29 30  0  0  1  0  0  0  0  0999 V2000
   10.3724  -15.7237   18.7514 N   0  0  0  0  0  0  0  0  0  0  0  0
    9.1888  -15.1095   19.2970 C   0  0  1  0  0  0  0  0  0  0  0  0
    7.9854  -15.8279   18.7237 C   0  0  0  0  0  0  0  0  0  0  0  0
    7.8730  -15.4499   17.2909 C   0  0  0  0  0  0  0  0  0  0  0  0
    7.7957  -14.1665   16.7639 C   0  0  0  0  0  0  0  0  0  0  0  0
    7.7033  -14.2458   15.4115 N   0  0  0  0  0  0  0  0  0  0  0  0
    7.7222  -15.5602   15.0925 C   0  0  0  0  0  0  0  0  0  0  0  0
    7.8236  -16.2645   16.2227 N   0  0  0  0  0  0  0  0  0  0  0  0
    9.1820  -15.1664   20.7935 C   0  0  0  0  0  0  0  0  0  0  0  0
    9.8413  -16.0469   21.3979 O   0  0  0  0  0  0  0  0  0  0  0  0
    7.4300  -13.0658   29.2595 O   0  0  0  0  0  0  0  0  0  0  0  0
    7.4704  -13.0683   27.8685 C   0  0  0  0  0  0  0  0  0  0  0  0
    6.3697  -13.4726   27.1452 C   0  0  0  0  0  0  0  0  0  0  0  0
    6.4209  -13.4712   25.7688 C   0  0  0  0  0  0  0  0  0  0  0  0
    7.5612  -13.0704   25.0604 C   0  0  0  0  0  0  0  0  0  0  0  0
    7.5060  -13.0993   23.5820 C   0  0  0  0  0  0  0  0  0  0  0  0
    8.3511  -14.2148   22.9791 C   0  0  2  0  0  0  0  0  0  0  0  0
    8.4396  -14.2389   21.5714 N   0  0  0  0  0  0  0  0  0  0  0  0
    8.1626  -15.5137   23.6505 C   0  0  0  0  0  0  0  0  0  0  0  0
    7.1004  -16.1987   23.4487 O   0  0  0  0  0  0  0  0  0  0  0  0
    8.6318  -12.6762   25.8235 C   0  0  0  0  0  0  0  0  0  0  0  0
    8.6024  -12.6698   27.2058 C   0  0  0  0  0  0  0  0  0  0  0  0
    9.0910  -16.0993   24.5384 N   0  0  0  0  0  0  0  0  0  0  0  0
    8.8228  -17.3404   25.2113 C   0  0  1  0  0  0  0  0  0  0  0  0
    9.5150  -18.5168   24.5633 C   0  0  0  0  0  0  0  0  0  0  0  0
    9.4037  -20.0245   25.5176 S   0  0  0  0  0  0  0  0  0  0  0  0
    9.2962  -17.3054   26.6369 C   0  0  0  0  0  0  0  0  0  0  0  0
   10.2415  -16.5440   26.9709 O   0  0  0  0  0  0  0  0  0  0  0  0
    8.7085  -18.1022   27.6049 O   0  0  0  0  0  0  0  0  0  0  0  0
  2  1  1  6
  2  3  1  0
  2  9  1  0
  3  4  1  0
  4  5  2  0
  6  5  1  0
  7  6  1  0
  8  7  2  0
  8  4  1  0
  9 10  2  0
  9 18  1  0
 12 11  1  0
 12 22  2  0
 13 12  1  0
 14 13  2  0
 14 15  1  0
 15 21  2  0
 16 15  1  0
 17 16  1  6
 18 17  1  0
 19 17  1  0
 19 20  2  0
 21 22  1  0
 23 19  1  0
 24 23  1  0
 24 25  1  6
 26 25  1  0
 27 24  1  0
 28 27  2  0
 29 27  1  0
M  END
$$$$
