HYC.pdb
     RDKit          3D

 29 30  0  0  1  0  0  0  0  0999 V2000
    9.8209  -17.4312   18.8754 N   0  0  0  0  0  0  0  0  0  0  0  0
    8.6175  -17.2217   19.6394 C   0  0  1  0  0  0  0  0  0  0  0  0
    7.9871  -18.5745   19.8950 C   0  0  0  0  0  0  0  0  0  0  0  0
    7.4576  -19.0787   18.6013 C   0  0  0  0  0  0  0  0  0  0  0  0
    7.5006  -18.4384   17.3688 C   0  0  0  0  0  0  0  0  0  0  0  0
    6.9102  -19.2290   16.4359 N   0  0  0  0  0  0  0  0  0  0  0  0
    6.5018  -20.3504   17.0725 C   0  0  0  0  0  0  0  0  0  0  0  0
    6.8350  -20.2458   18.3616 N   0  0  0  0  0  0  0  0  0  0  0  0
    8.9026  -16.5132   20.9277 C   0  0  0  0  0  0  0  0  0  0  0  0
   10.0393  -16.5877   21.4546 O   0  0  0  0  0  0  0  0  0  0  0  0
    7.5038  -12.0129   28.4692 O   0  0  0  0  0  0  0  0  0  0  0  0
    7.4103  -12.4970   27.1678 C   0  0  0  0  0  0  0  0  0  0  0  0
    6.4148  -13.3878   26.8311 C   0  0  0  0  0  0  0  0  0  0  0  0
    6.3317  -13.8605   25.5401 C   0  0  0  0  0  0  0  0  0  0  0  0
    7.2292  -13.4692   24.5380 C   0  0  0  0  0  0  0  0  0  0  0  0
    7.0441  -14.0314   23.1819 C   0  0  0  0  0  0  0  0  0  0  0  0
    8.0295  -15.1496   22.8645 C   0  0  2  0  0  0  0  0  0  0  0  0
    7.9106  -15.7425   21.5899 N   0  0  0  0  0  0  0  0  0  0  0  0
    8.2554  -16.0639   23.9987 C   0  0  0  0  0  0  0  0  0  0  0  0
    7.3394  -16.8791   24.3656 O   0  0  0  0  0  0  0  0  0  0  0  0
    8.2028  -12.5807   24.9208 C   0  0  0  0  0  0  0  0  0  0  0  0
    8.3049  -12.0935   26.2107 C   0  0  0  0  0  0  0  0  0  0  0  0
    9.4469  -16.1255   24.7536 N   0  0  0  0  0  0  0  0  0  0  0  0
    9.6120  -17.0491   25.8422 C   0  0  1  0  0  0  0  0  0  0  0  0
   10.7139  -18.0525   25.5939 C   0  0  0  0  0  0  0  0  0  0  0  0
   10.7312  -18.6953   23.9258 S   0  0  0  0  0  0  0  0  0  0  0  0
    9.9686  -16.3375   27.1165 C   0  0  0  0  0  0  0  0  0  0  0  0
   10.1571  -15.0927   27.1144 O   0  0  0  0  0  0  0  0  0  0  0  0
   10.0965  -17.0287   28.3095 O   0  0  0  0  0  0  0  0  0  0  0  0
  2  1  1  1
  2  3  1  0
  2  9  1  0
  3  4  1  0
  4  5  2  0
  6  5  1  0
  7  6  1  0
  8  7  2  0
  8  4  1  0
  9 10  2  0
  9 18  1  0
 12 11  1  0
 12 22  2  0
 13 12  1  0
 14 13  2  0
 14 15  1  0
 15 21  2  0
 16 15  1  0
 17 16  1  1
 18 17  1  0
 19 17  1  0
 19 20  2  0
 21 22  1  0
 23 19  1  0
 24 23  1  0
 24 25  1  6
 26 25  1  0
 27 24  1  0
 28 27  2  0
 29 27  1  0
M  END
$$$$
