HYC.pdb
     RDKit          3D

 29 30  0  0  1  0  0  0  0  0999 V2000
    8.8621  -18.4743   19.9173 N   0  0  0  0  0  0  0  0  0  0  0  0
   10.1897  -17.9149   19.9340 C   0  0  1  0  0  0  0  0  0  0  0  0
   10.4929  -17.3944   18.5448 C   0  0  0  0  0  0  0  0  0  0  0  0
   10.5405  -18.5607   17.6251 C   0  0  0  0  0  0  0  0  0  0  0  0
   10.7086  -19.8963   17.9695 C   0  0  0  0  0  0  0  0  0  0  0  0
   10.6960  -20.6518   16.8413 N   0  0  0  0  0  0  0  0  0  0  0  0
   10.5225  -19.8034   15.8021 C   0  0  0  0  0  0  0  0  0  0  0  0
   10.4316  -18.5616   16.2851 N   0  0  0  0  0  0  0  0  0  0  0  0
   10.3114  -16.8230   20.9519 C   0  0  0  0  0  0  0  0  0  0  0  0
   11.3997  -16.2169   21.1050 O   0  0  0  0  0  0  0  0  0  0  0  0
    7.3947  -13.1226   17.0264 O   0  0  0  0  0  0  0  0  0  0  0  0
    7.5910  -13.4181   18.3720 C   0  0  0  0  0  0  0  0  0  0  0  0
    8.6026  -12.8014   19.0753 C   0  0  0  0  0  0  0  0  0  0  0  0
    8.7878  -13.1016   20.4067 C   0  0  0  0  0  0  0  0  0  0  0  0
    7.9801  -14.0212   21.0884 C   0  0  0  0  0  0  0  0  0  0  0  0
    8.2606  -14.2635   22.5209 C   0  0  0  0  0  0  0  0  0  0  0  0
    9.2206  -15.4248   22.7485 C   0  0  2  0  0  0  0  0  0  0  0  0
    9.2149  -16.4398   21.7688 N   0  0  0  0  0  0  0  0  0  0  0  0
    9.2761  -15.8653   24.1543 C   0  0  0  0  0  0  0  0  0  0  0  0
    9.4434  -15.0125   25.0940 O   0  0  0  0  0  0  0  0  0  0  0  0
    6.9862  -14.6093   20.3467 C   0  0  0  0  0  0  0  0  0  0  0  0
    6.7824  -14.3231   19.0095 C   0  0  0  0  0  0  0  0  0  0  0  0
    9.1558  -17.2063   24.5794 N   0  0  0  0  0  0  0  0  0  0  0  0
    9.2062  -17.5725   25.9682 C   0  0  1  0  0  0  0  0  0  0  0  0
    7.9602  -18.2934   26.4270 C   0  0  0  0  0  0  0  0  0  0  0  0
    6.4448  -17.5098   25.8927 S   0  0  0  0  0  0  0  0  0  0  0  0
   10.3566  -18.4968   26.2507 C   0  0  0  0  0  0  0  0  0  0  0  0
   11.1501  -18.8195   25.3281 O   0  0  0  0  0  0  0  0  0  0  0  0
   10.5669  -19.0089   27.5199 O   0  0  0  0  0  0  0  0  0  0  0  0
  2  1  1  6
  2  3  1  0
  2  9  1  0
  3  4  1  0
  4  5  2  0
  6  5  1  0
  7  6  1  0
  8  7  2  0
  8  4  1  0
  9 10  2  0
  9 18  1  0
 12 11  1  0
 12 22  2  0
 13 12  1  0
 14 13  2  0
 14 15  1  0
 15 21  2  0
 16 15  1  0
 17 16  1  1
 18 17  1  0
 19 17  1  0
 19 20  2  0
 21 22  1  0
 23 19  1  0
 24 23  1  0
 24 25  1  6
 26 25  1  0
 27 24  1  0
 28 27  2  0
 29 27  1  0
M  END
$$$$
