HYC.pdb
     RDKit          3D

 29 30  0  0  1  0  0  0  0  0999 V2000
   10.9606  -16.5491   19.5801 N   0  0  0  0  0  0  0  0  0  0  0  0
    9.7605  -15.7969   19.8438 C   0  0  1  0  0  0  0  0  0  0  0  0
    8.6068  -16.5102   19.1707 C   0  0  0  0  0  0  0  0  0  0  0  0
    8.2729  -15.7612   17.9314 C   0  0  0  0  0  0  0  0  0  0  0  0
    8.9335  -14.6529   17.4155 C   0  0  0  0  0  0  0  0  0  0  0  0
    8.3198  -14.2633   16.2685 N   0  0  0  0  0  0  0  0  0  0  0  0
    7.2881  -15.1142   16.0661 C   0  0  0  0  0  0  0  0  0  0  0  0
    7.2733  -16.0006   17.0649 N   0  0  0  0  0  0  0  0  0  0  0  0
    9.5153  -15.6541   21.3144 C   0  0  0  0  0  0  0  0  0  0  0  0
   10.1683  -16.3422   22.1362 O   0  0  0  0  0  0  0  0  0  0  0  0
    6.8736  -12.2903   29.0543 O   0  0  0  0  0  0  0  0  0  0  0  0
    7.0002  -12.5333   27.6899 C   0  0  0  0  0  0  0  0  0  0  0  0
    8.0405  -11.9733   26.9812 C   0  0  0  0  0  0  0  0  0  0  0  0
    8.1560  -12.2205   25.6312 C   0  0  0  0  0  0  0  0  0  0  0  0
    7.2479  -13.0293   24.9355 C   0  0  0  0  0  0  0  0  0  0  0  0
    7.4701  -13.2361   23.4873 C   0  0  0  0  0  0  0  0  0  0  0  0
    8.2888  -14.4856   23.1860 C   0  0  2  0  0  0  0  0  0  0  0  0
    8.5486  -14.7475   21.8243 N   0  0  0  0  0  0  0  0  0  0  0  0
    7.9124  -15.6415   24.0199 C   0  0  0  0  0  0  0  0  0  0  0  0
    6.8046  -16.2508   23.8200 O   0  0  0  0  0  0  0  0  0  0  0  0
    6.2292  -13.5648   25.6834 C   0  0  0  0  0  0  0  0  0  0  0  0
    6.0940  -13.3299   27.0392 C   0  0  0  0  0  0  0  0  0  0  0  0
    8.6998  -16.1631   25.0693 N   0  0  0  0  0  0  0  0  0  0  0  0
    8.2888  -17.3091   25.8329 C   0  0  1  0  0  0  0  0  0  0  0  0
    8.5821  -18.6141   25.1302 C   0  0  0  0  0  0  0  0  0  0  0  0
    7.4870  -18.9470   23.7569 S   0  0  0  0  0  0  0  0  0  0  0  0
    9.0007  -17.3722   27.1544 C   0  0  0  0  0  0  0  0  0  0  0  0
    9.8425  -16.4882   27.4623 O   0  0  0  0  0  0  0  0  0  0  0  0
    8.7489  -18.3945   28.0539 O   0  0  0  0  0  0  0  0  0  0  0  0
  2  1  1  1
  2  3  1  0
  2  9  1  0
  3  4  1  0
  4  5  2  0
  6  5  1  0
  7  6  1  0
  8  7  2  0
  8  4  1  0
  9 10  2  0
  9 18  1  0
 12 11  1  0
 12 22  2  0
 13 12  1  0
 14 13  2  0
 14 15  1  0
 15 21  2  0
 16 15  1  0
 17 16  1  6
 18 17  1  0
 19 17  1  0
 19 20  2  0
 21 22  1  0
 23 19  1  0
 24 23  1  0
 24 25  1  6
 26 25  1  0
 27 24  1  0
 28 27  2  0
 29 27  1  0
M  END
$$$$
