TNT.pdb
     RDKit          3D

 23 22  0  0  1  0  0  0  0  0999 V2000
   23.5660  -11.5505  -18.9525 C   0  0  0  0  0  0  0  0  0  0  0  0
   22.3173  -10.7340  -18.5975 C   0  0  1  0  0  0  0  0  0  0  0  0
   21.3207  -11.2334  -19.4542 O   0  0  0  0  0  0  0  0  0  0  0  0
   21.8994  -11.0665  -17.1784 C   0  0  2  0  0  0  0  0  0  0  0  0
   20.9028  -12.1182  -17.2658 N   0  0  0  0  0  0  0  0  0  0  0  0
   21.2269   -9.8243  -16.6467 C   0  0  0  0  0  0  0  0  0  0  0  0
   20.8549   -8.9046  -17.4137 O   0  0  0  0  0  0  0  0  0  0  0  0
   17.8958   -9.4308  -15.4565 N   0  0  0  0  0  0  0  0  0  0  0  0
   18.0942   -9.2862  -14.0644 C   0  0  0  0  0  0  0  0  0  0  0  0
   17.1409   -9.5712  -13.2999 O   0  0  0  0  0  0  0  0  0  0  0  0
   19.4054   -8.8102  -13.5875 C   0  0  0  0  0  0  0  0  0  0  0  0
   20.3511   -8.4904  -14.7190 C   0  0  2  0  0  0  0  0  0  0  0  0
   20.9935   -9.6585  -15.2539 N   0  0  0  0  0  0  0  0  0  0  0  0
   21.3457   -7.4691  -14.2638 C   0  0  0  0  0  0  0  0  0  0  0  0
   22.2202   -7.8816  -13.4634 O   0  0  0  0  0  0  0  0  0  0  0  0
   23.8227   -5.4721  -16.2887 C   0  0  0  0  0  0  0  0  0  0  0  0
   23.0182   -4.5173  -15.4616 C   0  0  1  0  0  0  0  0  0  0  0  0
   22.1240   -3.8781  -16.3090 O   0  0  0  0  0  0  0  0  0  0  0  0
   22.3207   -5.1469  -14.2893 C   0  0  2  0  0  0  0  0  0  0  0  0
   21.3236   -6.1153  -14.6938 N   0  0  0  0  0  0  0  0  0  0  0  0
   21.7895   -4.1689  -13.3201 C   0  0  0  0  0  0  0  0  0  0  0  0
   22.7031   -3.3177  -12.7072 O   0  0  0  0  0  0  0  0  0  0  0  0
   20.5989   -4.0457  -13.0087 O   0  0  0  0  0  0  0  0  0  0  0  0
  2  1  1  6
  2  4  1  0
  3  2  1  0
  4  6  1  0
  4  5  1  6
  6 13  1  0
  6  7  2  0
  8  9  1  0
  9 11  1  0
 10  9  2  0
 12 11  1  1
 12 14  1  0
 13 12  1  0
 14 20  1  0
 14 15  2  0
 17 16  1  6
 17 19  1  0
 17 18  1  0
 19 21  1  0
 19 20  1  6
 21 22  1  0
 23 21  2  0
M  END
$$$$
