TNT.pdb
     RDKit          3D

 23 22  0  0  1  0  0  0  0  0999 V2000
   27.8435  -22.3215  -16.5216 C   0  0  0  0  0  0  0  0  0  0  0  0
   28.6973  -21.1450  -17.0102 C   0  0  1  0  0  0  0  0  0  0  0  0
   29.5968  -21.7240  -17.9225 O   0  0  0  0  0  0  0  0  0  0  0  0
   27.8166  -20.1890  -17.7910 C   0  0  2  0  0  0  0  0  0  0  0  0
   28.6560  -19.0775  -18.1994 N   0  0  0  0  0  0  0  0  0  0  0  0
   26.7976  -19.6715  -16.8052 C   0  0  0  0  0  0  0  0  0  0  0  0
   27.0829  -18.7651  -15.9871 O   0  0  0  0  0  0  0  0  0  0  0  0
   21.9872  -17.6189  -15.3083 N   0  0  0  0  0  0  0  0  0  0  0  0
   22.1367  -19.0073  -15.5278 C   0  0  0  0  0  0  0  0  0  0  0  0
   21.3928  -19.7892  -14.8877 O   0  0  0  0  0  0  0  0  0  0  0  0
   23.1545  -19.4602  -16.4933 C   0  0  0  0  0  0  0  0  0  0  0  0
   24.4885  -19.7319  -15.8425 C   0  0  2  0  0  0  0  0  0  0  0  0
   25.4772  -20.1983  -16.7743 N   0  0  0  0  0  0  0  0  0  0  0  0
   24.3030  -20.6870  -14.7055 C   0  0  0  0  0  0  0  0  0  0  0  0
   24.0505  -21.8735  -15.0282 O   0  0  0  0  0  0  0  0  0  0  0  0
   25.3877  -19.7220  -10.6036 C   0  0  0  0  0  0  0  0  0  0  0  0
   25.2741  -21.0948  -11.1914 C   0  0  1  0  0  0  0  0  0  0  0  0
   25.0742  -21.9843  -10.1448 O   0  0  0  0  0  0  0  0  0  0  0  0
   24.2149  -21.2320  -12.2480 C   0  0  2  0  0  0  0  0  0  0  0  0
   24.4007  -20.3018  -13.3415 N   0  0  0  0  0  0  0  0  0  0  0  0
   22.8388  -21.2017  -11.7156 C   0  0  0  0  0  0  0  0  0  0  0  0
   22.0305  -20.1360  -12.0976 O   0  0  0  0  0  0  0  0  0  0  0  0
   22.3470  -22.0461  -10.9575 O   0  0  0  0  0  0  0  0  0  0  0  0
  2  1  1  6
  2  4  1  0
  3  2  1  0
  4  6  1  0
  4  5  1  1
  6 13  1  0
  6  7  2  0
  8  9  1  0
  9 11  1  0
 10  9  2  0
 12 11  1  6
 12 14  1  0
 13 12  1  0
 14 20  1  0
 14 15  2  0
 17 16  1  1
 17 19  1  0
 17 18  1  0
 19 21  1  0
 19 20  1  6
 21 22  1  0
 23 21  2  0
M  END
$$$$
