TNT.pdb
     RDKit          3D

 23 22  0  0  1  0  0  0  0  0999 V2000
   16.8629  -11.2599  -18.5799 C   0  0  0  0  0  0  0  0  0  0  0  0
   17.8365  -10.7534  -17.5087 C   0  0  1  0  0  0  0  0  0  0  0  0
   18.7825  -11.7858  -17.3833 O   0  0  0  0  0  0  0  0  0  0  0  0
   18.5661   -9.5363  -18.0433 C   0  0  2  0  0  0  0  0  0  0  0  0
   19.3087   -9.9679  -19.2134 N   0  0  0  0  0  0  0  0  0  0  0  0
   19.5576   -9.1493  -16.9732 C   0  0  0  0  0  0  0  0  0  0  0  0
   19.2068   -9.0128  -15.7771 O   0  0  0  0  0  0  0  0  0  0  0  0
   22.1915  -11.1381  -15.5052 N   0  0  0  0  0  0  0  0  0  0  0  0
   23.3314  -10.5517  -16.1009 C   0  0  0  0  0  0  0  0  0  0  0  0
   24.3600  -11.2591  -16.2287 O   0  0  0  0  0  0  0  0  0  0  0  0
   23.2508   -9.1464  -16.5385 C   0  0  0  0  0  0  0  0  0  0  0  0
   21.8892   -8.5425  -16.2967 C   0  0  2  0  0  0  0  0  0  0  0  0
   20.9258   -8.9270  -17.2903 N   0  0  0  0  0  0  0  0  0  0  0  0
   22.0152   -7.0550  -16.1918 C   0  0  0  0  0  0  0  0  0  0  0  0
   22.5066   -6.4795  -17.1934 O   0  0  0  0  0  0  0  0  0  0  0  0
   19.5088   -4.6986  -16.3870 C   0  0  0  0  0  0  0  0  0  0  0  0
   20.2286   -4.2962  -15.1368 C   0  0  1  0  0  0  0  0  0  0  0  0
   19.4230   -4.6388  -14.0598 O   0  0  0  0  0  0  0  0  0  0  0  0
   21.6101   -4.8716  -15.0034 C   0  0  2  0  0  0  0  0  0  0  0  0
   21.6130   -6.3185  -15.0455 N   0  0  0  0  0  0  0  0  0  0  0  0
   22.3632   -4.3442  -13.8490 C   0  0  0  0  0  0  0  0  0  0  0  0
   22.5628   -2.9687  -13.7922 O   0  0  0  0  0  0  0  0  0  0  0  0
   22.8312   -5.0259  -12.9292 O   0  0  0  0  0  0  0  0  0  0  0  0
  2  1  1  6
  2  4  1  0
  3  2  1  0
  4  6  1  0
  4  5  1  6
  6 13  1  0
  6  7  2  0
  8  9  1  0
  9 11  1  0
 10  9  2  0
 12 11  1  6
 12 14  1  0
 13 12  1  0
 14 20  1  0
 14 15  2  0
 17 16  1  6
 17 19  1  0
 17 18  1  0
 19 21  1  0
 19 20  1  1
 21 22  1  0
 23 21  2  0
M  END
$$$$
