TNT.pdb
     RDKit          3D

 23 22  0  0  1  0  0  0  0  0999 V2000
   28.9827  -18.8452  -17.6719 C   0  0  0  0  0  0  0  0  0  0  0  0
   27.7521  -19.3762  -16.9266 C   0  0  1  0  0  0  0  0  0  0  0  0
   26.8222  -19.6525  -17.9442 O   0  0  0  0  0  0  0  0  0  0  0  0
   28.1065  -20.6961  -16.2698 C   0  0  2  0  0  0  0  0  0  0  0  0
   28.3152  -21.6576  -17.3369 N   0  0  0  0  0  0  0  0  0  0  0  0
   26.8795  -21.1119  -15.4954 C   0  0  0  0  0  0  0  0  0  0  0  0
   26.1268  -22.0263  -15.9073 O   0  0  0  0  0  0  0  0  0  0  0  0
   23.5961  -22.1088  -11.8264 N   0  0  0  0  0  0  0  0  0  0  0  0
   24.5092  -21.2295  -11.2010 C   0  0  0  0  0  0  0  0  0  0  0  0
   24.3436  -20.9754   -9.9834 O   0  0  0  0  0  0  0  0  0  0  0  0
   25.6027  -20.6607  -12.0095 C   0  0  0  0  0  0  0  0  0  0  0  0
   25.4022  -20.8796  -13.4890 C   0  0  2  0  0  0  0  0  0  0  0  0
   26.5385  -20.4766  -14.2699 N   0  0  0  0  0  0  0  0  0  0  0  0
   24.1514  -20.1868  -13.9304 C   0  0  0  0  0  0  0  0  0  0  0  0
   24.1318  -18.9427  -13.7641 O   0  0  0  0  0  0  0  0  0  0  0  0
   22.7081  -19.9412  -17.3551 C   0  0  0  0  0  0  0  0  0  0  0  0
   21.6201  -20.4328  -16.4510 C   0  0  1  0  0  0  0  0  0  0  0  0
   21.4312  -21.7819  -16.7166 O   0  0  0  0  0  0  0  0  0  0  0  0
   21.8665  -20.1827  -14.9902 C   0  0  2  0  0  0  0  0  0  0  0  0
   23.0442  -20.8687  -14.5025 N   0  0  0  0  0  0  0  0  0  0  0  0
   20.6853  -20.4256  -14.1395 C   0  0  0  0  0  0  0  0  0  0  0  0
   19.5434  -19.6768  -14.4047 O   0  0  0  0  0  0  0  0  0  0  0  0
   20.6290  -21.2400  -13.2103 O   0  0  0  0  0  0  0  0  0  0  0  0
  2  1  1  6
  2  4  1  0
  3  2  1  0
  4  6  1  0
  4  5  1  6
  6 13  1  0
  6  7  2  0
  8  9  1  0
  9 11  1  0
 10  9  2  0
 12 11  1  1
 12 14  1  0
 13 12  1  0
 14 20  1  0
 14 15  2  0
 17 16  1  6
 17 19  1  0
 17 18  1  0
 19 21  1  0
 19 20  1  1
 21 22  1  0
 23 21  2  0
M  END
$$$$
