TNT.pdb
     RDKit          3D

 23 22  0  0  1  0  0  0  0  0999 V2000
   16.1474  -13.0622  -10.8411 C   0  0  0  0  0  0  0  0  0  0  0  0
   16.1864  -11.5310  -10.9166 C   0  0  1  0  0  0  0  0  0  0  0  0
   16.3646  -11.2551  -12.2835 O   0  0  0  0  0  0  0  0  0  0  0  0
   14.8288  -10.9843  -10.5199 C   0  0  2  0  0  0  0  0  0  0  0  0
   13.8940  -11.3780  -11.5582 N   0  0  0  0  0  0  0  0  0  0  0  0
   14.9652   -9.4816  -10.5549 C   0  0  0  0  0  0  0  0  0  0  0  0
   14.5270   -8.8088  -11.5182 O   0  0  0  0  0  0  0  0  0  0  0  0
   15.9312   -4.6310   -9.1971 N   0  0  0  0  0  0  0  0  0  0  0  0
   15.3931   -5.3035   -8.0763 C   0  0  0  0  0  0  0  0  0  0  0  0
   14.9844   -4.6109   -7.1131 O   0  0  0  0  0  0  0  0  0  0  0  0
   15.3411   -6.7765   -8.0992 C   0  0  0  0  0  0  0  0  0  0  0  0
   15.6696   -7.3458   -9.4575 C   0  0  2  0  0  0  0  0  0  0  0  0
   15.5973   -8.7799   -9.4919 N   0  0  0  0  0  0  0  0  0  0  0  0
   17.0106   -6.8469   -9.8959 C   0  0  0  0  0  0  0  0  0  0  0  0
   17.8616   -6.7035   -8.9843 O   0  0  0  0  0  0  0  0  0  0  0  0
   19.7260   -8.3724  -11.4476 C   0  0  0  0  0  0  0  0  0  0  0  0
   19.4257   -7.2023  -12.3329 C   0  0  1  0  0  0  0  0  0  0  0  0
   18.7813   -7.6856  -13.4632 O   0  0  0  0  0  0  0  0  0  0  0  0
   18.6391   -6.1076  -11.6695 C   0  0  2  0  0  0  0  0  0  0  0  0
   17.3258   -6.5474  -11.2485 N   0  0  0  0  0  0  0  0  0  0  0  0
   18.5860   -4.8576  -12.4522 C   0  0  0  0  0  0  0  0  0  0  0  0
   17.3277   -4.3540  -12.7652 O   0  0  0  0  0  0  0  0  0  0  0  0
   19.5691   -4.2227  -12.8524 O   0  0  0  0  0  0  0  0  0  0  0  0
  2  1  1  6
  2  4  1  0
  3  2  1  0
  4  6  1  0
  4  5  1  6
  6 13  1  0
  6  7  2  0
  8  9  1  0
  9 11  1  0
 10  9  2  0
 12 11  1  1
 12 14  1  0
 13 12  1  0
 14 20  1  0
 14 15  2  0
 17 16  1  1
 17 19  1  0
 17 18  1  0
 19 21  1  0
 19 20  1  6
 21 22  1  0
 23 21  2  0
M  END
$$$$
