TNT.pdb
     RDKit          3D

 23 22  0  0  1  0  0  0  0  0999 V2000
   20.7637   -8.9310  -19.0709 C   0  0  0  0  0  0  0  0  0  0  0  0
   19.9191  -10.1780  -18.7819 C   0  0  1  0  0  0  0  0  0  0  0  0
   20.1549  -11.0200  -19.8828 O   0  0  0  0  0  0  0  0  0  0  0  0
   20.4745  -10.8745  -17.5549 C   0  0  2  0  0  0  0  0  0  0  0  0
   19.6640  -12.0588  -17.3370 N   0  0  0  0  0  0  0  0  0  0  0  0
   20.2412   -9.9266  -16.4038 C   0  0  0  0  0  0  0  0  0  0  0  0
   19.0847   -9.6764  -15.9887 O   0  0  0  0  0  0  0  0  0  0  0  0
   20.4089   -7.6607  -11.5712 N   0  0  0  0  0  0  0  0  0  0  0  0
   21.5452   -7.5817  -12.4082 C   0  0  0  0  0  0  0  0  0  0  0  0
   22.3325   -6.6183  -12.2448 O   0  0  0  0  0  0  0  0  0  0  0  0
   21.7436   -8.6313  -13.4241 C   0  0  0  0  0  0  0  0  0  0  0  0
   21.1360   -8.2686  -14.7568 C   0  0  2  0  0  0  0  0  0  0  0  0
   21.3305   -9.2858  -15.7522 N   0  0  0  0  0  0  0  0  0  0  0  0
   21.6705   -6.9444  -15.2044 C   0  0  0  0  0  0  0  0  0  0  0  0
   22.8174   -6.9657  -15.7142 O   0  0  0  0  0  0  0  0  0  0  0  0
   19.1585   -3.3707  -15.4966 C   0  0  0  0  0  0  0  0  0  0  0  0
   20.3532   -3.7108  -16.3333 C   0  0  1  0  0  0  0  0  0  0  0  0
   20.8377   -2.5277  -16.8737 O   0  0  0  0  0  0  0  0  0  0  0  0
   21.4257   -4.4698  -15.6047 C   0  0  2  0  0  0  0  0  0  0  0  0
   20.9481   -5.7283  -15.0722 N   0  0  0  0  0  0  0  0  0  0  0  0
   22.1354   -3.6666  -14.5901 C   0  0  0  0  0  0  0  0  0  0  0  0
   22.9076   -2.6027  -15.0448 O   0  0  0  0  0  0  0  0  0  0  0  0
   22.0996   -3.8635  -13.3696 O   0  0  0  0  0  0  0  0  0  0  0  0
  2  1  1  6
  2  4  1  0
  3  2  1  0
  4  6  1  0
  4  5  1  1
  6 13  1  0
  6  7  2  0
  8  9  1  0
  9 11  1  0
 10  9  2  0
 12 11  1  1
 12 14  1  0
 13 12  1  0
 14 20  1  0
 14 15  2  0
 17 16  1  1
 17 19  1  0
 17 18  1  0
 19 21  1  0
 19 20  1  1
 21 22  1  0
 23 21  2  0
M  END
$$$$
