PSR.pdb
     RDKit          3D

 25 25  0  0  1  0  0  0  0  0999 V2000
    9.1103  -14.5165   17.3012 N   0  0  0  0  0  0  0  0  0  0  0  0
    8.6430  -13.4806   16.3699 C   0  0  0  0  0  0  0  0  0  0  0  0
    7.3106  -13.0473   16.9738 C   0  0  0  0  0  0  0  0  0  0  0  0
    7.3332  -13.5302   18.3976 C   0  0  0  0  0  0  0  0  0  0  0  0
    8.7910  -13.9429   18.5718 C   0  0  1  0  0  0  0  0  0  0  0  0
    8.8156  -14.9099   19.6979 C   0  0  0  0  0  0  0  0  0  0  0  0
    8.4884  -14.4818   20.8231 O   0  0  0  0  0  0  0  0  0  0  0  0
    9.8543  -19.4307   21.3031 O   0  0  0  0  0  0  0  0  0  0  0  0
    9.9433  -18.4948   20.2797 C   0  0  0  0  0  0  0  0  0  0  0  0
    9.2160  -17.2128   20.6111 C   0  0  2  0  0  0  0  0  0  0  0  0
    9.1921  -16.2702   19.5252 N   0  0  0  0  0  0  0  0  0  0  0  0
    9.8112  -16.5496   21.8164 C   0  0  0  0  0  0  0  0  0  0  0  0
   10.8941  -15.9029   21.7549 O   0  0  0  0  0  0  0  0  0  0  0  0
    6.4328  -12.5835   28.0680 N   0  0  0  0  0  0  0  0  0  0  0  0
    6.3979  -11.8538   26.8227 C   0  0  0  0  0  0  0  0  0  0  0  0
    6.2927  -10.5747   26.8006 N   0  0  0  0  0  0  0  0  0  0  0  0
    6.4790  -12.5441   25.5771 N   0  0  0  0  0  0  0  0  0  0  0  0
    6.6455  -13.9651   25.4818 C   0  0  0  0  0  0  0  0  0  0  0  0
    7.7577  -14.4593   24.6472 C   0  0  0  0  0  0  0  0  0  0  0  0
    8.6736  -15.4790   25.1824 C   0  0  0  0  0  0  0  0  0  0  0  0
    9.7227  -16.0326   24.2933 C   0  0  2  0  0  0  0  0  0  0  0  0
    9.1577  -16.6338   23.0858 N   0  0  0  0  0  0  0  0  0  0  0  0
   10.6871  -16.9417   24.9352 C   0  0  0  0  0  0  0  0  0  0  0  0
   10.6854  -18.1888   24.8308 O   0  0  0  0  0  0  0  0  0  0  0  0
   11.6972  -16.3787   25.7332 O   0  0  0  0  0  0  0  0  0  0  0  0
  1  2  1  0
  2  3  1  0
  4  3  1  0
  5  4  1  0
  5  1  1  0
  5  6  1  1
  6 11  1  0
  6  7  2  0
 10  9  1  6
  9  8  1  0
 10 12  1  0
 11 10  1  0
 12 13  2  0
 15 16  2  0
 15 14  1  0
 17 15  1  0
 18 17  1  0
 19 18  1  0
 20 19  1  0
 21 20  1  1
 21 23  1  0
 22 12  1  0
 22 21  1  0
 23 25  1  0
 24 23  2  0
M  END
$$$$
