PSR.pdb
     RDKit          3D

 25 25  0  0  1  0  0  0  0  0999 V2000
    8.3067  -15.3570   17.3341 N   0  0  0  0  0  0  0  0  0  0  0  0
    8.6583  -14.7412   16.0473 C   0  0  0  0  0  0  0  0  0  0  0  0
    8.3597  -13.2629   16.2776 C   0  0  0  0  0  0  0  0  0  0  0  0
    8.2922  -13.0892   17.7696 C   0  0  0  0  0  0  0  0  0  0  0  0
    8.8436  -14.4197   18.2713 C   0  0  1  0  0  0  0  0  0  0  0  0
    8.3323  -14.5841   19.6552 C   0  0  0  0  0  0  0  0  0  0  0  0
    8.8742  -13.9010   20.5474 O   0  0  0  0  0  0  0  0  0  0  0  0
    5.5504  -17.6321   20.9688 O   0  0  0  0  0  0  0  0  0  0  0  0
    5.3580  -16.2955   21.2966 C   0  0  0  0  0  0  0  0  0  0  0  0
    6.6468  -15.5077   21.2689 C   0  0  2  0  0  0  0  0  0  0  0  0
    7.2713  -15.4757   19.9739 N   0  0  0  0  0  0  0  0  0  0  0  0
    7.6284  -16.0416   22.2680 C   0  0  0  0  0  0  0  0  0  0  0  0
    8.5958  -16.7770   21.9248 O   0  0  0  0  0  0  0  0  0  0  0  0
   10.1603  -13.5278   30.3946 N   0  0  0  0  0  0  0  0  0  0  0  0
   10.7983  -14.7878   30.0953 C   0  0  0  0  0  0  0  0  0  0  0  0
   11.7167  -15.2682   30.8526 N   0  0  0  0  0  0  0  0  0  0  0  0
   10.4200  -15.5340   28.9399 N   0  0  0  0  0  0  0  0  0  0  0  0
    9.1526  -15.3745   28.2885 C   0  0  0  0  0  0  0  0  0  0  0  0
    8.8501  -16.2876   27.1692 C   0  0  0  0  0  0  0  0  0  0  0  0
    8.0480  -15.8075   26.0330 C   0  0  0  0  0  0  0  0  0  0  0  0
    8.3346  -16.3429   24.6807 C   0  0  2  0  0  0  0  0  0  0  0  0
    7.4920  -15.7266   23.6565 N   0  0  0  0  0  0  0  0  0  0  0  0
    8.3241  -17.8106   24.5612 C   0  0  0  0  0  0  0  0  0  0  0  0
    7.3320  -18.5033   24.2416 O   0  0  0  0  0  0  0  0  0  0  0  0
    9.5172  -18.5045   24.8245 O   0  0  0  0  0  0  0  0  0  0  0  0
  1  2  1  0
  2  3  1  0
  4  3  1  0
  5  4  1  0
  5  1  1  0
  5  6  1  1
  6 11  1  0
  6  7  2  0
 10  9  1  6
  9  8  1  0
 10 12  1  0
 11 10  1  0
 12 13  2  0
 15 16  2  0
 15 14  1  0
 17 15  1  0
 18 17  1  0
 19 18  1  0
 20 19  1  0
 21 20  1  1
 21 23  1  0
 22 12  1  0
 22 21  1  0
 23 25  1  0
 24 23  2  0
M  END
$$$$
