PSR.pdb
     RDKit          3D

 25 25  0  0  1  0  0  0  0  0999 V2000
    8.0222  -16.8861   16.1900 N   0  0  0  0  0  0  0  0  0  0  0  0
    7.6129  -18.0079   15.3339 C   0  0  0  0  0  0  0  0  0  0  0  0
    7.9598  -19.2314   16.1767 C   0  0  0  0  0  0  0  0  0  0  0  0
    8.1164  -18.7249   17.5838 C   0  0  0  0  0  0  0  0  0  0  0  0
    7.5624  -17.3081   17.4767 C   0  0  1  0  0  0  0  0  0  0  0  0
    8.1476  -16.5482   18.6098 C   0  0  0  0  0  0  0  0  0  0  0  0
    9.2815  -16.0564   18.4403 O   0  0  0  0  0  0  0  0  0  0  0  0
    6.3408  -16.4691   22.4940 O   0  0  0  0  0  0  0  0  0  0  0  0
    7.0731  -15.3697   22.0624 C   0  0  0  0  0  0  0  0  0  0  0  0
    8.0644  -15.7306   20.9809 C   0  0  2  0  0  0  0  0  0  0  0  0
    7.4635  -16.3750   19.8444 N   0  0  0  0  0  0  0  0  0  0  0  0
    9.1536  -16.6095   21.5174 C   0  0  0  0  0  0  0  0  0  0  0  0
    9.1566  -17.8581   21.3286 O   0  0  0  0  0  0  0  0  0  0  0  0
   16.7672  -16.1136   24.8159 N   0  0  0  0  0  0  0  0  0  0  0  0
   17.1285  -17.0948   23.8203 C   0  0  0  0  0  0  0  0  0  0  0  0
   18.1373  -17.8717   23.9831 N   0  0  0  0  0  0  0  0  0  0  0  0
   16.3664  -17.2237   22.6215 N   0  0  0  0  0  0  0  0  0  0  0  0
   15.2063  -16.4276   22.3449 C   0  0  0  0  0  0  0  0  0  0  0  0
   13.8917  -17.0181   22.6630 C   0  0  0  0  0  0  0  0  0  0  0  0
   12.6638  -16.2567   22.3846 C   0  0  0  0  0  0  0  0  0  0  0  0
   11.3561  -16.8567   22.7416 C   0  0  2  0  0  0  0  0  0  0  0  0
   10.2335  -16.0476   22.2682 N   0  0  0  0  0  0  0  0  0  0  0  0
   11.1867  -17.2183   24.1590 C   0  0  0  0  0  0  0  0  0  0  0  0
   10.4795  -16.5978   24.9843 O   0  0  0  0  0  0  0  0  0  0  0  0
   11.8681  -18.3493   24.6394 O   0  0  0  0  0  0  0  0  0  0  0  0
  1  2  1  0
  2  3  1  0
  4  3  1  0
  5  4  1  0
  5  1  1  0
  5  6  1  1
  6 11  1  0
  6  7  2  0
 10  9  1  1
  9  8  1  0
 10 12  1  0
 11 10  1  0
 12 13  2  0
 15 16  2  0
 15 14  1  0
 17 15  1  0
 18 17  1  0
 19 18  1  0
 20 19  1  0
 21 20  1  1
 21 23  1  0
 22 12  1  0
 22 21  1  0
 23 25  1  0
 24 23  2  0
M  END
$$$$
