PSR.pdb
     RDKit          3D

 25 25  0  0  1  0  0  0  0  0999 V2000
    8.4804  -13.2431   19.7210 N   0  0  0  0  0  0  0  0  0  0  0  0
    8.0251  -12.5525   18.5067 C   0  0  0  0  0  0  0  0  0  0  0  0
    7.6918  -13.7010   17.5593 C   0  0  0  0  0  0  0  0  0  0  0  0
    7.5568  -14.9198   18.4293 C   0  0  0  0  0  0  0  0  0  0  0  0
    7.5376  -14.3130   19.8283 C   0  0  1  0  0  0  0  0  0  0  0  0
    7.9516  -15.3964   20.7550 C   0  0  0  0  0  0  0  0  0  0  0  0
    7.2253  -16.4095   20.8072 O   0  0  0  0  0  0  0  0  0  0  0  0
   11.8806  -15.5215   22.4718 O   0  0  0  0  0  0  0  0  0  0  0  0
   11.1398  -16.6269   22.0712 C   0  0  0  0  0  0  0  0  0  0  0  0
    9.6567  -16.4286   22.2797 C   0  0  2  0  0  0  0  0  0  0  0  0
    9.1215  -15.3056   21.5581 N   0  0  0  0  0  0  0  0  0  0  0  0
    9.3317  -16.2702   23.7344 C   0  0  0  0  0  0  0  0  0  0  0  0
    9.2689  -15.1350   24.2838 O   0  0  0  0  0  0  0  0  0  0  0  0
    5.9260  -23.3571   26.6250 N   0  0  0  0  0  0  0  0  0  0  0  0
    5.3368  -22.5417   25.5895 C   0  0  0  0  0  0  0  0  0  0  0  0
    4.4364  -23.0085   24.8027 N   0  0  0  0  0  0  0  0  0  0  0  0
    5.7465  -21.1866   25.4147 N   0  0  0  0  0  0  0  0  0  0  0  0
    6.8001  -20.5851   26.1791 C   0  0  0  0  0  0  0  0  0  0  0  0
    7.2661  -19.2515   25.7523 C   0  0  0  0  0  0  0  0  0  0  0  0
    8.2633  -18.5340   26.5620 C   0  0  0  0  0  0  0  0  0  0  0  0
    8.9015  -17.3210   25.9974 C   0  0  2  0  0  0  0  0  0  0  0  0
    9.0805  -17.4185   24.5492 N   0  0  0  0  0  0  0  0  0  0  0  0
   10.1461  -16.8906   26.6563 C   0  0  0  0  0  0  0  0  0  0  0  0
   11.2768  -16.8650   26.1204 O   0  0  0  0  0  0  0  0  0  0  0  0
   10.0753  -16.4719   27.9957 O   0  0  0  0  0  0  0  0  0  0  0  0
  1  2  1  0
  2  3  1  0
  4  3  1  0
  5  4  1  0
  5  1  1  0
  5  6  1  1
  6 11  1  0
  6  7  2  0
 10  9  1  1
  9  8  1  0
 10 12  1  0
 11 10  1  0
 12 13  2  0
 15 16  2  0
 15 14  1  0
 17 15  1  0
 18 17  1  0
 19 18  1  0
 20 19  1  0
 21 20  1  1
 21 23  1  0
 22 12  1  0
 22 21  1  0
 23 25  1  0
 24 23  2  0
M  END
$$$$
