PSR.pdb
     RDKit          3D

 25 25  0  0  1  0  0  0  0  0999 V2000
    8.8293  -14.3759   17.5002 N   0  0  0  0  0  0  0  0  0  0  0  0
    8.4799  -13.1935   16.7011 C   0  0  0  0  0  0  0  0  0  0  0  0
    7.2683  -12.6257   17.4342 C   0  0  0  0  0  0  0  0  0  0  0  0
    7.2939  -13.2460   18.8036 C   0  0  0  0  0  0  0  0  0  0  0  0
    8.6758  -13.8902   18.8365 C   0  0  1  0  0  0  0  0  0  0  0  0
    8.6105  -14.9573   19.8666 C   0  0  0  0  0  0  0  0  0  0  0  0
    8.3611  -14.6045   21.0369 O   0  0  0  0  0  0  0  0  0  0  0  0
   10.0889  -18.8446   19.2142 O   0  0  0  0  0  0  0  0  0  0  0  0
    8.9295  -18.7570   19.9752 C   0  0  0  0  0  0  0  0  0  0  0  0
    8.7189  -17.3721   20.5409 C   0  0  2  0  0  0  0  0  0  0  0  0
    8.8196  -16.3291   19.5559 N   0  0  0  0  0  0  0  0  0  0  0  0
    9.6871  -17.0879   21.6493 C   0  0  0  0  0  0  0  0  0  0  0  0
   10.8359  -16.6136   21.4259 O   0  0  0  0  0  0  0  0  0  0  0  0
   10.3974  -16.0827   29.5312 N   0  0  0  0  0  0  0  0  0  0  0  0
   10.2870  -14.6816   29.2009 C   0  0  0  0  0  0  0  0  0  0  0  0
   10.6800  -13.7702   30.0150 N   0  0  0  0  0  0  0  0  0  0  0  0
    9.7324  -14.2743   27.9514 N   0  0  0  0  0  0  0  0  0  0  0  0
    9.1825  -15.1988   27.0032 C   0  0  0  0  0  0  0  0  0  0  0  0
   10.0941  -16.2187   26.4493 C   0  0  0  0  0  0  0  0  0  0  0  0
    9.6037  -17.1570   25.4276 C   0  0  0  0  0  0  0  0  0  0  0  0
   10.2796  -17.1928   24.1087 C   0  0  2  0  0  0  0  0  0  0  0  0
    9.3288  -17.3507   23.0088 N   0  0  0  0  0  0  0  0  0  0  0  0
   11.3914  -18.1509   23.9884 C   0  0  0  0  0  0  0  0  0  0  0  0
   11.3008  -19.3094   23.5240 O   0  0  0  0  0  0  0  0  0  0  0  0
   12.6637  -17.7466   24.4265 O   0  0  0  0  0  0  0  0  0  0  0  0
  1  2  1  0
  2  3  1  0
  4  3  1  0
  5  4  1  0
  5  1  1  0
  5  6  1  1
  6 11  1  0
  6  7  2  0
 10  9  1  6
  9  8  1  0
 10 12  1  0
 11 10  1  0
 12 13  2  0
 15 16  2  0
 15 14  1  0
 17 15  1  0
 18 17  1  0
 19 18  1  0
 20 19  1  0
 21 20  1  1
 21 23  1  0
 22 12  1  0
 22 21  1  0
 23 25  1  0
 24 23  2  0
M  END
$$$$
