PSR.pdb
     RDKit          3D

 25 25  0  0  1  0  0  0  0  0999 V2000
    7.5399  -18.5758   19.4625 N   0  0  0  0  0  0  0  0  0  0  0  0
    6.7456  -19.0043   18.3031 C   0  0  0  0  0  0  0  0  0  0  0  0
    6.9553  -17.8722   17.3021 C   0  0  0  0  0  0  0  0  0  0  0  0
    8.1729  -17.1292   17.7775 C   0  0  0  0  0  0  0  0  0  0  0  0
    8.7254  -18.0701   18.8430 C   0  0  1  0  0  0  0  0  0  0  0  0
    9.5681  -17.2352   19.7356 C   0  0  0  0  0  0  0  0  0  0  0  0
   10.7979  -17.2398   19.5258 O   0  0  0  0  0  0  0  0  0  0  0  0
    8.1167  -15.2296   23.2824 O   0  0  0  0  0  0  0  0  0  0  0  0
    9.0122  -14.6060   22.4221 C   0  0  0  0  0  0  0  0  0  0  0  0
    9.8220  -15.5981   21.6205 C   0  0  2  0  0  0  0  0  0  0  0  0
    9.0194  -16.4554   20.7905 N   0  0  0  0  0  0  0  0  0  0  0  0
   10.6745  -16.4475   22.5141 C   0  0  0  0  0  0  0  0  0  0  0  0
   10.2166  -17.4690   23.0984 O   0  0  0  0  0  0  0  0  0  0  0  0
   13.6271  -23.3072   22.6868 N   0  0  0  0  0  0  0  0  0  0  0  0
   14.8723  -22.7307   22.2379 C   0  0  0  0  0  0  0  0  0  0  0  0
   15.7604  -23.4402   21.6414 N   0  0  0  0  0  0  0  0  0  0  0  0
   15.1472  -21.3472   22.4498 N   0  0  0  0  0  0  0  0  0  0  0  0
   14.2407  -20.3040   22.0675 C   0  0  0  0  0  0  0  0  0  0  0  0
   14.6036  -18.9239   22.4438 C   0  0  0  0  0  0  0  0  0  0  0  0
   13.6930  -17.8155   22.1164 C   0  0  0  0  0  0  0  0  0  0  0  0
   13.0167  -17.0974   23.2229 C   0  0  2  0  0  0  0  0  0  0  0  0
   12.0492  -16.1173   22.7308 N   0  0  0  0  0  0  0  0  0  0  0  0
   13.9066  -16.5007   24.2332 C   0  0  0  0  0  0  0  0  0  0  0  0
   14.6582  -17.1400   25.0031 O   0  0  0  0  0  0  0  0  0  0  0  0
   13.9248  -15.1011   24.3552 O   0  0  0  0  0  0  0  0  0  0  0  0
  1  2  1  0
  2  3  1  0
  4  3  1  0
  5  4  1  0
  5  1  1  0
  5  6  1  1
  6 11  1  0
  6  7  2  0
 10  9  1  1
  9  8  1  0
 10 12  1  0
 11 10  1  0
 12 13  2  0
 15 16  2  0
 15 14  1  0
 17 15  1  0
 18 17  1  0
 19 18  1  0
 20 19  1  0
 21 20  1  6
 21 23  1  0
 22 12  1  0
 22 21  1  0
 23 25  1  0
 24 23  2  0
M  END
$$$$
