YVF.pdb
     RDKit          3D

 31 32  0  0  1  0  0  0  0  0999 V2000
   17.8205  -18.3608  -14.7559 O   0  0  0  0  0  0  0  0  0  0  0  0
   18.9764  -18.9136  -14.1713 C   0  0  0  0  0  0  0  0  0  0  0  0
   20.1440  -18.1793  -14.0949 C   0  0  0  0  0  0  0  0  0  0  0  0
   21.2836  -18.7351  -13.5144 C   0  0  0  0  0  0  0  0  0  0  0  0
   21.2659  -20.0121  -13.0121 C   0  0  0  0  0  0  0  0  0  0  0  0
   22.4598  -20.6280  -12.3912 C   0  0  0  0  0  0  0  0  0  0  0  0
   23.5568  -20.8993  -13.3959 C   0  0  2  0  0  0  0  0  0  0  0  0
   23.0762  -21.8992  -14.3440 N   0  0  0  0  0  0  0  0  0  0  0  0
   24.7346  -21.4084  -12.6490 C   0  0  0  0  0  0  0  0  0  0  0  0
   24.5681  -22.4288  -11.9360 O   0  0  0  0  0  0  0  0  0  0  0  0
   20.0970  -20.7348  -13.0935 C   0  0  0  0  0  0  0  0  0  0  0  0
   18.9485  -20.1934  -13.6711 C   0  0  0  0  0  0  0  0  0  0  0  0
   28.8154  -20.9582  -13.4485 C   0  0  0  0  0  0  0  0  0  0  0  0
   28.3608  -20.3687  -12.1468 C   0  0  2  0  0  0  0  0  0  0  0  0
   29.4239  -20.6201  -11.0990 C   0  0  0  0  0  0  0  0  0  0  0  0
   27.0148  -20.9272  -11.6955 C   0  0  2  0  0  0  0  0  0  0  0  0
   26.0138  -20.7924  -12.7134 N   0  0  0  0  0  0  0  0  0  0  0  0
   26.6117  -20.4223  -10.3837 C   0  0  0  0  0  0  0  0  0  0  0  0
   25.9832  -19.3215  -10.2166 O   0  0  0  0  0  0  0  0  0  0  0  0
   26.8940  -21.1301   -9.1823 N   0  0  0  0  0  0  0  0  0  0  0  0
   26.5384  -20.6033   -7.8767 C   0  0  1  0  0  0  0  0  0  0  0  0
   27.1152  -21.6044   -6.8647 C   0  0  0  0  0  0  0  0  0  0  0  0
   28.0797  -20.9412   -5.9644 C   0  0  0  0  0  0  0  0  0  0  0  0
   28.7526  -21.6453   -4.9805 C   0  0  0  0  0  0  0  0  0  0  0  0
   29.6563  -21.0222   -4.1368 C   0  0  0  0  0  0  0  0  0  0  0  0
   29.8557  -19.6746   -4.3193 C   0  0  0  0  0  0  0  0  0  0  0  0
   29.1833  -18.9584   -5.3065 C   0  0  0  0  0  0  0  0  0  0  0  0
   28.2856  -19.5887   -6.1409 C   0  0  0  0  0  0  0  0  0  0  0  0
   27.0424  -19.2544   -7.6496 C   0  0  0  0  0  0  0  0  0  0  0  0
   26.3791  -18.3701   -6.8234 O   0  0  0  0  0  0  0  0  0  0  0  0
   28.0964  -18.8779   -8.2086 O   0  0  0  0  0  0  0  0  0  0  0  0
  2 12  2  0
  2  1  1  0
  3  2  1  0
  4  5  1  0
  4  3  2  0
  5 11  2  0
  6  5  1  0
  7  6  1  0
  7  8  1  6
  9  7  1  0
 10  9  2  0
 11 12  1  0
 14 13  1  6
 14 16  1  0
 15 14  1  0
 16 18  1  0
 16 17  1  6
 17  9  1  0
 18 20  1  0
 19 18  2  0
 20 21  1  0
 21 29  1  0
 21 22  1  1
 23 22  1  0
 24 23  2  0
 25 24  1  0
 26 25  2  0
 26 27  1  0
 27 28  2  0
 28 23  1  0
 29 31  2  0
 29 30  1  0
M  END
$$$$
