YVF.pdb
     RDKit          3D

 31 32  0  0  1  0  0  0  0  0999 V2000
   17.9802  -10.0176  -24.8028 O   0  0  0  0  0  0  0  0  0  0  0  0
   18.3843   -9.8724  -23.4615 C   0  0  0  0  0  0  0  0  0  0  0  0
   19.6501  -10.2578  -23.0644 C   0  0  0  0  0  0  0  0  0  0  0  0
   20.0414  -10.1104  -21.7341 C   0  0  0  0  0  0  0  0  0  0  0  0
   19.1825   -9.5836  -20.8022 C   0  0  0  0  0  0  0  0  0  0  0  0
   19.5701   -9.4159  -19.3838 C   0  0  0  0  0  0  0  0  0  0  0  0
   19.8900  -10.7333  -18.7142 C   0  0  2  0  0  0  0  0  0  0  0  0
   18.6617  -11.5166  -18.6279 N   0  0  0  0  0  0  0  0  0  0  0  0
   20.4162  -10.4325  -17.3588 C   0  0  0  0  0  0  0  0  0  0  0  0
   19.5774  -10.2142  -16.4501 O   0  0  0  0  0  0  0  0  0  0  0  0
   17.9237   -9.2028  -21.2090 C   0  0  0  0  0  0  0  0  0  0  0  0
   17.5168   -9.3437  -22.5359 C   0  0  0  0  0  0  0  0  0  0  0  0
   23.2277  -12.3841  -15.4555 C   0  0  0  0  0  0  0  0  0  0  0  0
   23.5430  -10.9186  -15.4192 C   0  0  2  0  0  0  0  0  0  0  0  0
   24.0693  -10.5661  -14.0444 C   0  0  0  0  0  0  0  0  0  0  0  0
   22.3352  -10.0563  -15.7726 C   0  0  2  0  0  0  0  0  0  0  0  0
   21.8058  -10.3847  -17.0642 N   0  0  0  0  0  0  0  0  0  0  0  0
   22.5880   -8.6303  -15.5701 C   0  0  0  0  0  0  0  0  0  0  0  0
   23.1466   -7.8839  -16.4451 O   0  0  0  0  0  0  0  0  0  0  0  0
   22.2252   -7.9620  -14.3677 N   0  0  0  0  0  0  0  0  0  0  0  0
   22.3515   -6.5231  -14.2184 C   0  0  1  0  0  0  0  0  0  0  0  0
   21.4645   -5.9219  -15.3187 C   0  0  0  0  0  0  0  0  0  0  0  0
   21.4486   -4.4479  -15.2307 C   0  0  0  0  0  0  0  0  0  0  0  0
   20.3251   -3.7609  -14.8039 C   0  0  0  0  0  0  0  0  0  0  0  0
   20.3113   -2.3789  -14.7222 C   0  0  0  0  0  0  0  0  0  0  0  0
   21.4621   -1.7197  -15.0834 C   0  0  0  0  0  0  0  0  0  0  0  0
   22.5969   -2.4025  -15.5138 C   0  0  0  0  0  0  0  0  0  0  0  0
   22.5996   -3.7785  -15.5913 C   0  0  0  0  0  0  0  0  0  0  0  0
   21.9649   -6.0511  -12.8944 C   0  0  0  0  0  0  0  0  0  0  0  0
   22.5761   -4.9576  -12.3156 O   0  0  0  0  0  0  0  0  0  0  0  0
   21.0622   -6.6400  -12.2593 O   0  0  0  0  0  0  0  0  0  0  0  0
  2 12  2  0
  2  1  1  0
  3  2  1  0
  4  5  1  0
  4  3  2  0
  5 11  2  0
  6  5  1  0
  7  6  1  0
  7  8  1  1
  9  7  1  0
 10  9  2  0
 11 12  1  0
 14 13  1  1
 14 16  1  0
 15 14  1  0
 16 18  1  0
 16 17  1  6
 17  9  1  0
 18 20  1  0
 19 18  2  0
 20 21  1  0
 21 29  1  0
 21 22  1  6
 23 22  1  0
 24 23  2  0
 25 24  1  0
 26 25  2  0
 26 27  1  0
 27 28  2  0
 28 23  1  0
 29 31  2  0
 29 30  1  0
M  END
$$$$
