YVF.pdb
     RDKit          3D

 31 32  0  0  1  0  0  0  0  0999 V2000
   17.9820  -16.9967  -15.3806 O   0  0  0  0  0  0  0  0  0  0  0  0
   18.9372  -17.7356  -14.6560 C   0  0  0  0  0  0  0  0  0  0  0  0
   18.6010  -18.9476  -14.0847 C   0  0  0  0  0  0  0  0  0  0  0  0
   19.5535  -19.6722  -13.3690 C   0  0  0  0  0  0  0  0  0  0  0  0
   20.8328  -19.1979  -13.2203 C   0  0  0  0  0  0  0  0  0  0  0  0
   21.8641  -19.9446  -12.4659 C   0  0  0  0  0  0  0  0  0  0  0  0
   22.8803  -20.6001  -13.3735 C   0  0  2  0  0  0  0  0  0  0  0  0
   22.2361  -21.7183  -14.0550 N   0  0  0  0  0  0  0  0  0  0  0  0
   23.9996  -21.0788  -12.5234 C   0  0  0  0  0  0  0  0  0  0  0  0
   23.8217  -22.1438  -11.8820 O   0  0  0  0  0  0  0  0  0  0  0  0
   21.1568  -17.9890  -13.7938 C   0  0  0  0  0  0  0  0  0  0  0  0
   20.2158  -17.2520  -14.5128 C   0  0  0  0  0  0  0  0  0  0  0  0
   27.6279  -21.5922  -13.6239 C   0  0  0  0  0  0  0  0  0  0  0  0
   27.6554  -20.7784  -12.3647 C   0  0  2  0  0  0  0  0  0  0  0  0
   28.7934  -21.2652  -11.4934 C   0  0  0  0  0  0  0  0  0  0  0  0
   26.3324  -20.8364  -11.6073 C   0  0  2  0  0  0  0  0  0  0  0  0
   25.2361  -20.3865  -12.4149 N   0  0  0  0  0  0  0  0  0  0  0  0
   26.4126  -20.2010  -10.2927 C   0  0  0  0  0  0  0  0  0  0  0  0
   26.2365  -18.9486  -10.1051 O   0  0  0  0  0  0  0  0  0  0  0  0
   26.6962  -20.9417   -9.1116 N   0  0  0  0  0  0  0  0  0  0  0  0
   27.1231  -20.2970   -7.8824 C   0  0  1  0  0  0  0  0  0  0  0  0
   27.0185  -21.3804   -6.7989 C   0  0  0  0  0  0  0  0  0  0  0  0
   27.5778  -20.8974   -5.5204 C   0  0  0  0  0  0  0  0  0  0  0  0
   28.9389  -20.9271   -5.2694 C   0  0  0  0  0  0  0  0  0  0  0  0
   29.4620  -20.4743   -4.0702 C   0  0  0  0  0  0  0  0  0  0  0  0
   28.5706  -19.9942   -3.1406 C   0  0  0  0  0  0  0  0  0  0  0  0
   27.1999  -19.9605   -3.3846 C   0  0  0  0  0  0  0  0  0  0  0  0
   26.6899  -20.4138   -4.5820 C   0  0  0  0  0  0  0  0  0  0  0  0
   28.4696  -19.7446   -7.9661 C   0  0  0  0  0  0  0  0  0  0  0  0
   29.5125  -20.4738   -8.5000 O   0  0  0  0  0  0  0  0  0  0  0  0
   28.6981  -18.5875   -7.5492 O   0  0  0  0  0  0  0  0  0  0  0  0
  2 12  2  0
  2  1  1  0
  3  2  1  0
  4  5  1  0
  4  3  2  0
  5 11  2  0
  6  5  1  0
  7  6  1  0
  7  8  1  1
  9  7  1  0
 10  9  2  0
 11 12  1  0
 14 13  1  6
 14 16  1  0
 15 14  1  0
 16 18  1  0
 16 17  1  6
 17  9  1  0
 18 20  1  0
 19 18  2  0
 20 21  1  0
 21 29  1  0
 21 22  1  1
 23 22  1  0
 24 23  2  0
 25 24  1  0
 26 25  2  0
 26 27  1  0
 27 28  2  0
 28 23  1  0
 29 31  2  0
 29 30  1  0
M  END
$$$$
