YVF.pdb
     RDKit          3D

 31 32  0  0  1  0  0  0  0  0999 V2000
   30.6804  -16.8444  -18.6169 O   0  0  0  0  0  0  0  0  0  0  0  0
   29.3542  -16.8372  -18.1432 C   0  0  0  0  0  0  0  0  0  0  0  0
   28.8399  -15.7201  -17.5139 C   0  0  0  0  0  0  0  0  0  0  0  0
   27.5256  -15.7221  -17.0481 C   0  0  0  0  0  0  0  0  0  0  0  0
   26.7251  -16.8258  -17.2052 C   0  0  0  0  0  0  0  0  0  0  0  0
   25.3270  -16.8568  -16.7205 C   0  0  0  0  0  0  0  0  0  0  0  0
   24.3240  -16.7957  -17.8503 C   0  0  2  0  0  0  0  0  0  0  0  0
   24.3155  -15.4383  -18.3861 N   0  0  0  0  0  0  0  0  0  0  0  0
   22.9944  -17.1466  -17.2904 C   0  0  0  0  0  0  0  0  0  0  0  0
   22.4563  -16.3151  -16.5182 O   0  0  0  0  0  0  0  0  0  0  0  0
   27.2479  -17.9334  -17.8336 C   0  0  0  0  0  0  0  0  0  0  0  0
   28.5605  -17.9475  -18.3053 C   0  0  0  0  0  0  0  0  0  0  0  0
   19.6652  -17.4487  -18.5915 C   0  0  0  0  0  0  0  0  0  0  0  0
   19.9508  -18.8001  -18.0078 C   0  0  2  0  0  0  0  0  0  0  0  0
   18.6845  -19.3368  -17.3758 C   0  0  0  0  0  0  0  0  0  0  0  0
   21.0884  -18.7647  -16.9920 C   0  0  2  0  0  0  0  0  0  0  0  0
   22.3273  -18.3646  -17.5932 N   0  0  0  0  0  0  0  0  0  0  0  0
   21.1710  -19.9928  -16.2024 C   0  0  0  0  0  0  0  0  0  0  0  0
   21.9323  -20.9740  -16.5059 O   0  0  0  0  0  0  0  0  0  0  0  0
   20.3992  -20.1860  -15.0230 N   0  0  0  0  0  0  0  0  0  0  0  0
   20.4948  -21.3991  -14.2305 C   0  0  1  0  0  0  0  0  0  0  0  0
   21.6941  -21.1797  -13.2965 C   0  0  0  0  0  0  0  0  0  0  0  0
   21.3389  -20.2615  -12.1959 C   0  0  0  0  0  0  0  0  0  0  0  0
   20.7734  -20.7259  -11.0207 C   0  0  0  0  0  0  0  0  0  0  0  0
   20.4404  -19.8639   -9.9897 C   0  0  0  0  0  0  0  0  0  0  0  0
   20.6961  -18.5275  -10.1847 C   0  0  0  0  0  0  0  0  0  0  0  0
   21.2646  -18.0515  -11.3635 C   0  0  0  0  0  0  0  0  0  0  0  0
   21.5922  -18.9186  -12.3834 C   0  0  0  0  0  0  0  0  0  0  0  0
   19.2761  -21.6911  -13.4857 C   0  0  0  0  0  0  0  0  0  0  0  0
   19.0606  -22.9314  -12.9201 O   0  0  0  0  0  0  0  0  0  0  0  0
   18.3999  -20.8088  -13.3489 O   0  0  0  0  0  0  0  0  0  0  0  0
  2 12  2  0
  2  1  1  0
  3  2  1  0
  4  5  1  0
  4  3  2  0
  5 11  2  0
  6  5  1  0
  7  6  1  0
  7  8  1  1
  9  7  1  0
 10  9  2  0
 11 12  1  0
 14 13  1  1
 14 16  1  0
 15 14  1  0
 16 18  1  0
 16 17  1  6
 17  9  1  0
 18 20  1  0
 19 18  2  0
 20 21  1  0
 21 29  1  0
 21 22  1  1
 23 22  1  0
 24 23  2  0
 25 24  1  0
 26 25  2  0
 26 27  1  0
 27 28  2  0
 28 23  1  0
 29 31  2  0
 29 30  1  0
M  END
$$$$
