YVF.pdb
     RDKit          3D

 31 32  0  0  1  0  0  0  0  0999 V2000
   18.3187  -17.3430  -15.6763 O   0  0  0  0  0  0  0  0  0  0  0  0
   19.2507  -18.0682  -14.9091 C   0  0  0  0  0  0  0  0  0  0  0  0
   18.9331  -19.3198  -14.4183 C   0  0  0  0  0  0  0  0  0  0  0  0
   19.8625  -20.0305  -13.6595 C   0  0  0  0  0  0  0  0  0  0  0  0
   21.1003  -19.5033  -13.3885 C   0  0  0  0  0  0  0  0  0  0  0  0
   22.1062  -20.2341  -12.5858 C   0  0  0  0  0  0  0  0  0  0  0  0
   23.2313  -20.7836  -13.4334 C   0  0  2  0  0  0  0  0  0  0  0  0
   22.7168  -21.9067  -14.2103 N   0  0  0  0  0  0  0  0  0  0  0  0
   24.3086  -21.2312  -12.5150 C   0  0  0  0  0  0  0  0  0  0  0  0
   24.1805  -22.3619  -11.9837 O   0  0  0  0  0  0  0  0  0  0  0  0
   21.4061  -18.2553  -13.8827 C   0  0  0  0  0  0  0  0  0  0  0  0
   20.4878  -17.5315  -14.6433 C   0  0  0  0  0  0  0  0  0  0  0  0
   27.9287  -21.4434  -13.3547 C   0  0  0  0  0  0  0  0  0  0  0  0
   27.8785  -20.7374  -12.0328 C   0  0  2  0  0  0  0  0  0  0  0  0
   28.9693  -21.2913  -11.1415 C   0  0  0  0  0  0  0  0  0  0  0  0
   26.5153  -20.8626  -11.3595 C   0  0  2  0  0  0  0  0  0  0  0  0
   25.4529  -20.4396  -12.2248 N   0  0  0  0  0  0  0  0  0  0  0  0
   26.4896  -20.2517  -10.0312 C   0  0  0  0  0  0  0  0  0  0  0  0
   26.1962  -19.0241   -9.8273 O   0  0  0  0  0  0  0  0  0  0  0  0
   26.7936  -20.9904   -8.8539 N   0  0  0  0  0  0  0  0  0  0  0  0
   27.0765  -20.3384   -7.5875 C   0  0  1  0  0  0  0  0  0  0  0  0
   27.3599  -21.4790   -6.5987 C   0  0  0  0  0  0  0  0  0  0  0  0
   27.8127  -20.9440   -5.2989 C   0  0  0  0  0  0  0  0  0  0  0  0
   26.9112  -20.5688   -4.3176 C   0  0  0  0  0  0  0  0  0  0  0  0
   27.3371  -20.0670   -3.0996 C   0  0  0  0  0  0  0  0  0  0  0  0
   28.6938  -19.9580   -2.9081 C   0  0  0  0  0  0  0  0  0  0  0  0
   29.6079  -20.3330   -3.8895 C   0  0  0  0  0  0  0  0  0  0  0  0
   29.1729  -20.8314   -5.0986 C   0  0  0  0  0  0  0  0  0  0  0  0
   28.1905  -19.4012   -7.6651 C   0  0  0  0  0  0  0  0  0  0  0  0
   28.1206  -18.1535   -7.0796 O   0  0  0  0  0  0  0  0  0  0  0  0
   29.2367  -19.7217   -8.2715 O   0  0  0  0  0  0  0  0  0  0  0  0
  2 12  2  0
  2  1  1  0
  3  2  1  0
  4  5  1  0
  4  3  2  0
  5 11  2  0
  6  5  1  0
  7  6  1  0
  7  8  1  1
  9  7  1  0
 10  9  2  0
 11 12  1  0
 14 13  1  6
 14 16  1  0
 15 14  1  0
 16 18  1  0
 16 17  1  6
 17  9  1  0
 18 20  1  0
 19 18  2  0
 20 21  1  0
 21 29  1  0
 21 22  1  1
 23 22  1  0
 24 23  2  0
 25 24  1  0
 26 25  2  0
 26 27  1  0
 27 28  2  0
 28 23  1  0
 29 31  2  0
 29 30  1  0
M  END
$$$$
