YVF.pdb
     RDKit          3D

 31 32  0  0  1  0  0  0  0  0999 V2000
   18.7179  -19.4040  -14.0273 O   0  0  0  0  0  0  0  0  0  0  0  0
   18.7694  -18.0755  -14.4919 C   0  0  0  0  0  0  0  0  0  0  0  0
   17.6162  -17.4242  -14.8843 C   0  0  0  0  0  0  0  0  0  0  0  0
   17.6769  -16.1087  -15.3430 C   0  0  0  0  0  0  0  0  0  0  0  0
   18.8747  -15.4423  -15.4125 C   0  0  0  0  0  0  0  0  0  0  0  0
   18.9696  -14.0466  -15.8956 C   0  0  0  0  0  0  0  0  0  0  0  0
   18.5027  -13.8990  -17.3261 C   0  0  2  0  0  0  0  0  0  0  0  0
   19.3882  -14.6810  -18.1830 N   0  0  0  0  0  0  0  0  0  0  0  0
   18.5733  -12.4577  -17.6756 C   0  0  0  0  0  0  0  0  0  0  0  0
   19.6253  -12.0490  -18.2265 O   0  0  0  0  0  0  0  0  0  0  0  0
   20.0176  -16.1010  -15.0189 C   0  0  0  0  0  0  0  0  0  0  0  0
   19.9739  -17.4168  -14.5576 C   0  0  0  0  0  0  0  0  0  0  0  0
   15.8998  -10.4860  -19.6613 C   0  0  0  0  0  0  0  0  0  0  0  0
   16.2243   -9.7192  -18.4142 C   0  0  2  0  0  0  0  0  0  0  0  0
   16.2590   -8.2423  -18.7440 C   0  0  0  0  0  0  0  0  0  0  0  0
   17.5417  -10.1634  -17.7863 C   0  0  2  0  0  0  0  0  0  0  0  0
   17.5138  -11.5476  -17.4126 N   0  0  0  0  0  0  0  0  0  0  0  0
   17.9870   -9.2618  -16.7246 C   0  0  0  0  0  0  0  0  0  0  0  0
   17.3291   -9.0667  -15.6459 O   0  0  0  0  0  0  0  0  0  0  0  0
   19.2016   -8.5268  -16.8175 N   0  0  0  0  0  0  0  0  0  0  0  0
   19.6481   -7.6405  -15.7575 C   0  0  1  0  0  0  0  0  0  0  0  0
   21.1377   -7.3921  -16.0373 C   0  0  0  0  0  0  0  0  0  0  0  0
   21.7016   -6.4391  -15.0603 C   0  0  0  0  0  0  0  0  0  0  0  0
   21.7737   -5.0834  -15.3311 C   0  0  0  0  0  0  0  0  0  0  0  0
   22.3030   -4.1911  -14.4144 C   0  0  0  0  0  0  0  0  0  0  0  0
   22.7534   -4.7106  -13.2243 C   0  0  0  0  0  0  0  0  0  0  0  0
   22.6848   -6.0729  -12.9433 C   0  0  0  0  0  0  0  0  0  0  0  0
   22.1560   -6.9524  -13.8632 C   0  0  0  0  0  0  0  0  0  0  0  0
   18.8938   -6.3943  -15.7007 C   0  0  0  0  0  0  0  0  0  0  0  0
   18.5207   -5.8355  -14.4952 O   0  0  0  0  0  0  0  0  0  0  0  0
   18.5716   -5.8092  -16.7585 O   0  0  0  0  0  0  0  0  0  0  0  0
  2 12  2  0
  2  1  1  0
  3  2  1  0
  4  5  1  0
  4  3  2  0
  5 11  2  0
  6  5  1  0
  7  6  1  0
  7  8  1  6
  9  7  1  0
 10  9  2  0
 11 12  1  0
 14 13  1  6
 14 16  1  0
 15 14  1  0
 16 18  1  0
 16 17  1  1
 17  9  1  0
 18 20  1  0
 19 18  2  0
 20 21  1  0
 21 29  1  0
 21 22  1  6
 23 22  1  0
 24 23  2  0
 25 24  1  0
 26 25  2  0
 26 27  1  0
 27 28  2  0
 28 23  1  0
 29 31  2  0
 29 30  1  0
M  END
$$$$
