YVF.pdb
     RDKit          3D

 31 32  0  0  1  0  0  0  0  0999 V2000
   17.8540  -18.5527  -15.6373 O   0  0  0  0  0  0  0  0  0  0  0  0
   18.8793  -19.1136  -14.8516 C   0  0  0  0  0  0  0  0  0  0  0  0
   18.9939  -20.4842  -14.7220 C   0  0  0  0  0  0  0  0  0  0  0  0
   20.0124  -21.0306  -13.9417 C   0  0  0  0  0  0  0  0  0  0  0  0
   20.9126  -20.2227  -13.2933 C   0  0  0  0  0  0  0  0  0  0  0  0
   22.0029  -20.7743  -12.4583 C   0  0  0  0  0  0  0  0  0  0  0  0
   23.3467  -20.7087  -13.1483 C   0  0  2  0  0  0  0  0  0  0  0  0
   23.2815  -21.5162  -14.3621 N   0  0  0  0  0  0  0  0  0  0  0  0
   24.3607  -21.2532  -12.2103 C   0  0  0  0  0  0  0  0  0  0  0  0
   24.1606  -22.4042  -11.7496 O   0  0  0  0  0  0  0  0  0  0  0  0
   20.7889  -18.8584  -13.4295 C   0  0  0  0  0  0  0  0  0  0  0  0
   19.7759  -18.2960  -14.2062 C   0  0  0  0  0  0  0  0  0  0  0  0
   28.1644  -19.2574  -11.4330 C   0  0  0  0  0  0  0  0  0  0  0  0
   27.8854  -20.7120  -11.1991 C   0  0  2  0  0  0  0  0  0  0  0  0
   28.2496  -21.4862  -12.4477 C   0  0  0  0  0  0  0  0  0  0  0  0
   26.4332  -20.9688  -10.8088 C   0  0  2  0  0  0  0  0  0  0  0  0
   25.5226  -20.5303  -11.8261 N   0  0  0  0  0  0  0  0  0  0  0  0
   26.1197  -20.4778   -9.4675 C   0  0  0  0  0  0  0  0  0  0  0  0
   24.9272  -20.2711   -9.0552 O   0  0  0  0  0  0  0  0  0  0  0  0
   27.1338  -20.1910   -8.5118 N   0  0  0  0  0  0  0  0  0  0  0  0
   26.8256  -19.6395   -7.2043 C   0  0  1  0  0  0  0  0  0  0  0  0
   26.8671  -20.8345   -6.2402 C   0  0  0  0  0  0  0  0  0  0  0  0
   28.2049  -20.9676   -5.6295 C   0  0  0  0  0  0  0  0  0  0  0  0
   29.2318  -21.6342   -6.2757 C   0  0  0  0  0  0  0  0  0  0  0  0
   30.4856  -21.7588   -5.7018 C   0  0  0  0  0  0  0  0  0  0  0  0
   30.6654  -21.1915   -4.4628 C   0  0  0  0  0  0  0  0  0  0  0  0
   29.6382  -20.5191   -3.8055 C   0  0  0  0  0  0  0  0  0  0  0  0
   28.3938  -20.4011   -4.3860 C   0  0  0  0  0  0  0  0  0  0  0  0
   27.7473  -18.5855   -6.7984 C   0  0  0  0  0  0  0  0  0  0  0  0
   27.4673  -17.7602   -5.7283 O   0  0  0  0  0  0  0  0  0  0  0  0
   28.8171  -18.4148   -7.4240 O   0  0  0  0  0  0  0  0  0  0  0  0
  2 12  2  0
  2  1  1  0
  3  2  1  0
  4  5  1  0
  4  3  2  0
  5 11  2  0
  6  5  1  0
  7  6  1  0
  7  8  1  6
  9  7  1  0
 10  9  2  0
 11 12  1  0
 14 13  1  6
 14 16  1  0
 15 14  1  0
 16 18  1  0
 16 17  1  6
 17  9  1  0
 18 20  1  0
 19 18  2  0
 20 21  1  0
 21 29  1  0
 21 22  1  1
 23 22  1  0
 24 23  2  0
 25 24  1  0
 26 25  2  0
 26 27  1  0
 27 28  2  0
 28 23  1  0
 29 31  2  0
 29 30  1  0
M  END
$$$$
