YVF.pdb
     RDKit          3D

 31 32  0  0  1  0  0  0  0  0999 V2000
   16.9770  -15.7223  -13.2975 O   0  0  0  0  0  0  0  0  0  0  0  0
   17.9575  -16.6351  -12.8633 C   0  0  0  0  0  0  0  0  0  0  0  0
   19.2969  -16.2998  -12.9069 C   0  0  0  0  0  0  0  0  0  0  0  0
   20.2607  -17.2102  -12.4748 C   0  0  0  0  0  0  0  0  0  0  0  0
   19.8988  -18.4467  -12.0019 C   0  0  0  0  0  0  0  0  0  0  0  0
   20.8995  -19.4332  -11.5374 C   0  0  0  0  0  0  0  0  0  0  0  0
   21.7414  -19.9769  -12.6696 C   0  0  2  0  0  0  0  0  0  0  0  0
   20.9024  -20.8403  -13.4944 N   0  0  0  0  0  0  0  0  0  0  0  0
   22.8578  -20.7496  -12.0687 C   0  0  0  0  0  0  0  0  0  0  0  0
   22.5814  -21.8684  -11.5696 O   0  0  0  0  0  0  0  0  0  0  0  0
   18.5613  -18.7704  -11.9629 C   0  0  0  0  0  0  0  0  0  0  0  0
   17.5849  -17.8710  -12.3913 C   0  0  0  0  0  0  0  0  0  0  0  0
   25.7133  -22.0768  -13.7847 C   0  0  0  0  0  0  0  0  0  0  0  0
   26.3224  -21.3478  -12.6245 C   0  0  2  0  0  0  0  0  0  0  0  0
   27.4617  -22.1764  -12.0707 C   0  0  0  0  0  0  0  0  0  0  0  0
   25.3017  -21.0362  -11.5345 C   0  0  2  0  0  0  0  0  0  0  0  0
   24.1971  -20.2748  -12.0409 N   0  0  0  0  0  0  0  0  0  0  0  0
   25.9197  -20.4754  -10.3337 C   0  0  0  0  0  0  0  0  0  0  0  0
   25.5180  -19.3987   -9.7735 O   0  0  0  0  0  0  0  0  0  0  0  0
   27.0281  -21.0968   -9.6939 N   0  0  0  0  0  0  0  0  0  0  0  0
   27.7360  -20.4650   -8.5946 C   0  0  1  0  0  0  0  0  0  0  0  0
   26.6919  -20.3032   -7.4798 C   0  0  0  0  0  0  0  0  0  0  0  0
   27.3124  -19.7531   -6.2579 C   0  0  0  0  0  0  0  0  0  0  0  0
   27.6054  -18.4053   -6.1394 C   0  0  0  0  0  0  0  0  0  0  0  0
   28.1876  -17.8910   -4.9933 C   0  0  0  0  0  0  0  0  0  0  0  0
   28.4615  -18.7774   -3.9792 C   0  0  0  0  0  0  0  0  0  0  0  0
   28.1702  -20.1347   -4.0897 C   0  0  0  0  0  0  0  0  0  0  0  0
   27.5906  -20.6360   -5.2352 C   0  0  0  0  0  0  0  0  0  0  0  0
   28.8919  -21.2313   -8.1453 C   0  0  0  0  0  0  0  0  0  0  0  0
   30.0322  -20.6058   -7.6838 O   0  0  0  0  0  0  0  0  0  0  0  0
   28.8629  -22.4816   -8.1734 O   0  0  0  0  0  0  0  0  0  0  0  0
  2 12  2  0
  2  1  1  0
  3  2  1  0
  4  5  1  0
  4  3  2  0
  5 11  2  0
  6  5  1  0
  7  6  1  0
  7  8  1  6
  9  7  1  0
 10  9  2  0
 11 12  1  0
 14 13  1  6
 14 16  1  0
 15 14  1  0
 16 18  1  0
 16 17  1  6
 17  9  1  0
 18 20  1  0
 19 18  2  0
 20 21  1  0
 21 29  1  0
 21 22  1  1
 23 22  1  0
 24 23  2  0
 25 24  1  0
 26 25  2  0
 26 27  1  0
 27 28  2  0
 28 23  1  0
 29 31  2  0
 29 30  1  0
M  END
$$$$
