YVF.pdb
     RDKit          3D

 31 32  0  0  1  0  0  0  0  0999 V2000
   24.0247  -13.2777  -34.5209 O   0  0  0  0  0  0  0  0  0  0  0  0
   24.5349  -13.9854  -33.4154 C   0  0  0  0  0  0  0  0  0  0  0  0
   24.1754  -13.6321  -32.1293 C   0  0  0  0  0  0  0  0  0  0  0  0
   24.6858  -14.3387  -31.0408 C   0  0  0  0  0  0  0  0  0  0  0  0
   25.5481  -15.3902  -31.2262 C   0  0  0  0  0  0  0  0  0  0  0  0
   26.1058  -16.1577  -30.0903 C   0  0  0  0  0  0  0  0  0  0  0  0
   27.5572  -15.8253  -29.8275 C   0  0  2  0  0  0  0  0  0  0  0  0
   28.3599  -16.3736  -30.9160 N   0  0  0  0  0  0  0  0  0  0  0  0
   27.9337  -16.4478  -28.5333 C   0  0  0  0  0  0  0  0  0  0  0  0
   28.5288  -17.5529  -28.5767 O   0  0  0  0  0  0  0  0  0  0  0  0
   25.8995  -15.7337  -32.5122 C   0  0  0  0  0  0  0  0  0  0  0  0
   25.3979  -15.0370  -33.6116 C   0  0  0  0  0  0  0  0  0  0  0  0
   29.7060  -14.9065  -25.1383 C   0  0  0  0  0  0  0  0  0  0  0  0
   28.3146  -15.4343  -24.9542 C   0  0  2  0  0  0  0  0  0  0  0  0
   28.1969  -16.0275  -23.5666 C   0  0  0  0  0  0  0  0  0  0  0  0
   27.9396  -16.4641  -26.0154 C   0  0  2  0  0  0  0  0  0  0  0  0
   27.6489  -15.8474  -27.2769 N   0  0  0  0  0  0  0  0  0  0  0  0
   26.9144  -17.3976  -25.5508 C   0  0  0  0  0  0  0  0  0  0  0  0
   25.7749  -17.0261  -25.1055 O   0  0  0  0  0  0  0  0  0  0  0  0
   27.1145  -18.8061  -25.5613 N   0  0  0  0  0  0  0  0  0  0  0  0
   26.0909  -19.7325  -25.1110 C   0  0  1  0  0  0  0  0  0  0  0  0
   25.6102  -20.4534  -26.3792 C   0  0  0  0  0  0  0  0  0  0  0  0
   26.6934  -21.2745  -26.9564 C   0  0  0  0  0  0  0  0  0  0  0  0
   26.8293  -22.6161  -26.6433 C   0  0  0  0  0  0  0  0  0  0  0  0
   27.8455  -23.3847  -27.1849 C   0  0  0  0  0  0  0  0  0  0  0  0
   28.7129  -22.7569  -28.0467 C   0  0  0  0  0  0  0  0  0  0  0  0
   28.5838  -21.4079  -28.3674 C   0  0  0  0  0  0  0  0  0  0  0  0
   27.5684  -20.6521  -27.8225 C   0  0  0  0  0  0  0  0  0  0  0  0
   26.5739  -20.6714  -24.1059 C   0  0  0  0  0  0  0  0  0  0  0  0
   25.7634  -21.6728  -23.6109 O   0  0  0  0  0  0  0  0  0  0  0  0
   27.7446  -20.5788  -23.6746 O   0  0  0  0  0  0  0  0  0  0  0  0
  2 12  2  0
  2  1  1  0
  3  2  1  0
  4  5  1  0
  4  3  2  0
  5 11  2  0
  6  5  1  0
  7  6  1  0
  7  8  1  6
  9  7  1  0
 10  9  2  0
 11 12  1  0
 14 13  1  6
 14 16  1  0
 15 14  1  0
 16 18  1  0
 16 17  1  6
 17  9  1  0
 18 20  1  0
 19 18  2  0
 20 21  1  0
 21 29  1  0
 21 22  1  6
 23 22  1  0
 24 23  2  0
 25 24  1  0
 26 25  2  0
 26 27  1  0
 27 28  2  0
 28 23  1  0
 29 31  2  0
 29 30  1  0
M  END
$$$$
