FKQ.pdb
     RDKit          3D

 30 30  0  0  1  0  0  0  0  0999 V2000
   28.4526  -21.0298   -8.8968 N   0  0  0  0  0  0  0  0  0  0  0  0
   27.0516  -20.7012   -8.7421 C   0  0  1  0  0  0  0  0  0  0  0  0
   26.9652  -19.4469   -7.9071 C   0  0  0  0  0  0  0  0  0  0  0  0
   27.6265  -19.6417   -6.6117 C   0  0  0  0  0  0  0  0  0  0  0  0
   27.0000  -20.4382   -5.6658 C   0  0  0  0  0  0  0  0  0  0  0  0
   27.5668  -20.6659   -4.4193 C   0  0  0  0  0  0  0  0  0  0  0  0
   28.7632  -20.1063   -4.0948 C   0  0  0  0  0  0  0  0  0  0  0  0
   29.4134  -19.3006   -5.0302 C   0  0  0  0  0  0  0  0  0  0  0  0
   28.8334  -19.0883   -6.2596 C   0  0  0  0  0  0  0  0  0  0  0  0
   26.4515  -20.5423  -10.0749 C   0  0  0  0  0  0  0  0  0  0  0  0
   26.6795  -19.4930  -10.7234 O   0  0  0  0  0  0  0  0  0  0  0  0
   25.6177  -21.5230  -10.6763 N   0  0  0  0  0  0  0  0  0  0  0  0
   25.1021  -21.4956  -12.0074 C   0  0  1  0  0  0  0  0  0  0  0  0
   25.2038  -22.8401  -12.7028 C   0  0  0  0  0  0  0  0  0  0  0  0
   24.9401  -22.7129  -14.1791 C   0  0  0  0  0  0  0  0  0  0  0  0
   26.0329  -22.0422  -14.9434 C   0  0  0  0  0  0  0  0  0  0  0  0
   25.7484  -22.0206  -16.4303 C   0  0  0  0  0  0  0  0  0  0  0  0
   26.7765  -21.1955  -17.0467 N   0  0  0  0  0  0  0  0  0  0  0  0
   23.7050  -20.9964  -11.9822 C   0  0  0  0  0  0  0  0  0  0  0  0
   22.9351  -21.3384  -11.0322 O   0  0  0  0  0  0  0  0  0  0  0  0
   18.5965  -16.8566  -15.3467 N   0  0  0  0  0  0  0  0  0  0  0  0
   19.9319  -17.2022  -15.0125 C   0  0  0  0  0  0  0  0  0  0  0  0
   20.9188  -16.6912  -15.5816 O   0  0  0  0  0  0  0  0  0  0  0  0
   20.0976  -18.2274  -13.9248 C   0  0  0  0  0  0  0  0  0  0  0  0
   21.5170  -18.7231  -13.9791 C   0  0  0  0  0  0  0  0  0  0  0  0
   21.7624  -19.7188  -12.8852 C   0  0  2  0  0  0  0  0  0  0  0  0
   23.1686  -20.1510  -12.9651 N   0  0  0  0  0  0  0  0  0  0  0  0
   20.9048  -20.8967  -13.0602 C   0  0  0  0  0  0  0  0  0  0  0  0
   19.6869  -20.9455  -12.3533 O   0  0  0  0  0  0  0  0  0  0  0  0
   21.1361  -21.8816  -13.7792 O   0  0  0  0  0  0  0  0  0  0  0  0
  2  1  1  6
  2 10  1  0
  2  3  1  0
  3  4  1  0
  4  5  2  0
  4  9  1  0
  5  6  1  0
  6  7  2  0
  8  7  1  0
  9  8  2  0
 10 11  2  0
 12 13  1  0
 12 10  1  0
 13 14  1  1
 14 15  1  0
 16 17  1  0
 16 15  1  0
 18 17  1  0
 19 20  2  0
 19 13  1  0
 21 22  1  0
 22 24  1  0
 23 22  2  0
 24 25  1  0
 26 25  1  6
 26 28  1  0
 26 27  1  0
 27 19  1  0
 28 29  1  0
 30 28  2  0
M  END
$$$$
