FKQ.pdb
     RDKit          3D

 30 30  0  0  1  0  0  0  0  0999 V2000
   27.9891  -20.3756  -11.1364 N   0  0  0  0  0  0  0  0  0  0  0  0
   26.6983  -20.7861  -10.6264 C   0  0  1  0  0  0  0  0  0  0  0  0
   26.3677  -19.8991   -9.4509 C   0  0  0  0  0  0  0  0  0  0  0  0
   27.3880  -20.0267   -8.4039 C   0  0  0  0  0  0  0  0  0  0  0  0
   27.1535  -19.4219   -7.1788 C   0  0  0  0  0  0  0  0  0  0  0  0
   28.0744  -19.5007   -6.1431 C   0  0  0  0  0  0  0  0  0  0  0  0
   29.2404  -20.1808   -6.3094 C   0  0  0  0  0  0  0  0  0  0  0  0
   29.4994  -20.7981   -7.5336 C   0  0  0  0  0  0  0  0  0  0  0  0
   28.5726  -20.7072   -8.5464 C   0  0  0  0  0  0  0  0  0  0  0  0
   25.7084  -20.6914  -11.7093 C   0  0  0  0  0  0  0  0  0  0  0  0
   25.6609  -19.6456  -12.4003 O   0  0  0  0  0  0  0  0  0  0  0  0
   24.7915  -21.7313  -12.0203 N   0  0  0  0  0  0  0  0  0  0  0  0
   23.9158  -21.7797  -13.1470 C   0  0  1  0  0  0  0  0  0  0  0  0
   23.8953  -23.1417  -13.8148 C   0  0  0  0  0  0  0  0  0  0  0  0
   25.0999  -23.3363  -14.6958 C   0  0  0  0  0  0  0  0  0  0  0  0
   25.0936  -24.6104  -15.4735 C   0  0  0  0  0  0  0  0  0  0  0  0
   26.3488  -24.7683  -16.3052 C   0  0  0  0  0  0  0  0  0  0  0  0
   26.2430  -26.0457  -16.9941 N   0  0  0  0  0  0  0  0  0  0  0  0
   22.5569  -21.3532  -12.7308 C   0  0  0  0  0  0  0  0  0  0  0  0
   22.0191  -21.8843  -11.7106 O   0  0  0  0  0  0  0  0  0  0  0  0
   20.4904  -18.0328  -16.1436 N   0  0  0  0  0  0  0  0  0  0  0  0
   19.2362  -18.6866  -16.0268 C   0  0  0  0  0  0  0  0  0  0  0  0
   18.4556  -18.8165  -16.9926 O   0  0  0  0  0  0  0  0  0  0  0  0
   18.8930  -19.2209  -14.6635 C   0  0  0  0  0  0  0  0  0  0  0  0
   20.0009  -18.8230  -13.7267 C   0  0  0  0  0  0  0  0  0  0  0  0
   20.4654  -20.0099  -12.9367 C   0  0  2  0  0  0  0  0  0  0  0  0
   21.8113  -20.3777  -13.4098 N   0  0  0  0  0  0  0  0  0  0  0  0
   19.5702  -21.1528  -13.1514 C   0  0  0  0  0  0  0  0  0  0  0  0
   19.8778  -22.0547  -14.1893 O   0  0  0  0  0  0  0  0  0  0  0  0
   18.5453  -21.4228  -12.5056 O   0  0  0  0  0  0  0  0  0  0  0  0
  2  1  1  6
  2 10  1  0
  2  3  1  0
  3  4  1  0
  4  5  2  0
  4  9  1  0
  5  6  1  0
  6  7  2  0
  8  7  1  0
  9  8  2  0
 10 11  2  0
 12 13  1  0
 12 10  1  0
 13 14  1  1
 14 15  1  0
 16 17  1  0
 16 15  1  0
 18 17  1  0
 19 20  2  0
 19 13  1  0
 21 22  1  0
 22 24  1  0
 23 22  2  0
 24 25  1  0
 26 25  1  6
 26 28  1  0
 26 27  1  0
 27 19  1  0
 28 29  1  0
 30 28  2  0
M  END
$$$$
