FKQ.pdb
     RDKit          3D

 30 30  0  0  1  0  0  0  0  0999 V2000
   26.4282  -19.2282  -18.6757 N   0  0  0  0  0  0  0  0  0  0  0  0
   25.1655  -18.5373  -18.5241 C   0  0  1  0  0  0  0  0  0  0  0  0
   24.5664  -18.3719  -19.8995 C   0  0  0  0  0  0  0  0  0  0  0  0
   25.3625  -17.4351  -20.7008 C   0  0  0  0  0  0  0  0  0  0  0  0
   25.2142  -16.0770  -20.4661 C   0  0  0  0  0  0  0  0  0  0  0  0
   25.9343  -15.1337  -21.1864 C   0  0  0  0  0  0  0  0  0  0  0  0
   26.8112  -15.5257  -22.1493 C   0  0  0  0  0  0  0  0  0  0  0  0
   26.9779  -16.8874  -22.4040 C   0  0  0  0  0  0  0  0  0  0  0  0
   26.2540  -17.8050  -21.6782 C   0  0  0  0  0  0  0  0  0  0  0  0
   24.3066  -19.3123  -17.6167 C   0  0  0  0  0  0  0  0  0  0  0  0
   24.6440  -20.4808  -17.3097 O   0  0  0  0  0  0  0  0  0  0  0  0
   23.1012  -18.8049  -17.0615 N   0  0  0  0  0  0  0  0  0  0  0  0
   22.2436  -19.4787  -16.1400 C   0  0  1  0  0  0  0  0  0  0  0  0
   21.8565  -18.6104  -14.9578 C   0  0  0  0  0  0  0  0  0  0  0  0
   20.9331  -19.3425  -14.0215 C   0  0  0  0  0  0  0  0  0  0  0  0
   20.3264  -18.4851  -12.9609 C   0  0  0  0  0  0  0  0  0  0  0  0
   19.3874  -19.2711  -12.0706 C   0  0  0  0  0  0  0  0  0  0  0  0
   18.8878  -18.3486  -11.0621 N   0  0  0  0  0  0  0  0  0  0  0  0
   21.0499  -19.9855  -16.8614 C   0  0  0  0  0  0  0  0  0  0  0  0
   20.3963  -19.2025  -17.6175 O   0  0  0  0  0  0  0  0  0  0  0  0
   19.8276  -24.5872  -19.0034 N   0  0  0  0  0  0  0  0  0  0  0  0
   18.4177  -24.4261  -18.9830 C   0  0  0  0  0  0  0  0  0  0  0  0
   17.6755  -24.9063  -19.8649 O   0  0  0  0  0  0  0  0  0  0  0  0
   17.8583  -23.6381  -17.8307 C   0  0  0  0  0  0  0  0  0  0  0  0
   19.0200  -23.1124  -17.0324 C   0  0  0  0  0  0  0  0  0  0  0  0
   19.3748  -21.7263  -17.4812 C   0  0  2  0  0  0  0  0  0  0  0  0
   20.5873  -21.3060  -16.7577 N   0  0  0  0  0  0  0  0  0  0  0  0
   18.2933  -20.7885  -17.1578 C   0  0  0  0  0  0  0  0  0  0  0  0
   18.0567  -20.4859  -15.8021 O   0  0  0  0  0  0  0  0  0  0  0  0
   17.5430  -20.2161  -17.9638 O   0  0  0  0  0  0  0  0  0  0  0  0
  2  1  1  6
  2 10  1  0
  2  3  1  0
  3  4  1  0
  4  5  2  0
  4  9  1  0
  5  6  1  0
  6  7  2  0
  8  7  1  0
  9  8  2  0
 10 11  2  0
 12 13  1  0
 12 10  1  0
 13 14  1  1
 14 15  1  0
 16 17  1  0
 16 15  1  0
 18 17  1  0
 19 20  2  0
 19 13  1  0
 21 22  1  0
 22 24  1  0
 23 22  2  0
 24 25  1  0
 26 25  1  1
 26 28  1  0
 26 27  1  0
 27 19  1  0
 28 29  1  0
 30 28  2  0
M  END
$$$$
