FKQ.pdb
     RDKit          3D

 30 30  0  0  1  0  0  0  0  0999 V2000
   28.2935  -20.3594   -9.0103 N   0  0  0  0  0  0  0  0  0  0  0  0
   26.9093  -20.6755   -8.7295 C   0  0  1  0  0  0  0  0  0  0  0  0
   26.4811  -19.8440   -7.5450 C   0  0  0  0  0  0  0  0  0  0  0  0
   27.4933  -19.8964   -6.4838 C   0  0  0  0  0  0  0  0  0  0  0  0
   27.5565  -21.0309   -5.6897 C   0  0  0  0  0  0  0  0  0  0  0  0
   28.4878  -21.1493   -4.6672 C   0  0  0  0  0  0  0  0  0  0  0  0
   29.3689  -20.1433   -4.4189 C   0  0  0  0  0  0  0  0  0  0  0  0
   29.3250  -18.9912   -5.2047 C   0  0  0  0  0  0  0  0  0  0  0  0
   28.3937  -18.8950   -6.2129 C   0  0  0  0  0  0  0  0  0  0  0  0
   26.1082  -20.4094   -9.9334 C   0  0  0  0  0  0  0  0  0  0  0  0
   25.6241  -19.2644  -10.1010 O   0  0  0  0  0  0  0  0  0  0  0  0
   25.8489  -21.3890  -10.9293 N   0  0  0  0  0  0  0  0  0  0  0  0
   25.1059  -21.1969  -12.1333 C   0  0  1  0  0  0  0  0  0  0  0  0
   25.6379  -22.0243  -13.2882 C   0  0  0  0  0  0  0  0  0  0  0  0
   26.7142  -21.2868  -14.0384 C   0  0  0  0  0  0  0  0  0  0  0  0
   27.4118  -22.1038  -15.0747 C   0  0  0  0  0  0  0  0  0  0  0  0
   28.5850  -21.3627  -15.6799 C   0  0  0  0  0  0  0  0  0  0  0  0
   29.3058  -22.3158  -16.5103 N   0  0  0  0  0  0  0  0  0  0  0  0
   23.6717  -21.4760  -11.8745 C   0  0  0  0  0  0  0  0  0  0  0  0
   23.3491  -22.3153  -10.9781 O   0  0  0  0  0  0  0  0  0  0  0  0
   20.1758  -17.0527  -11.6055 N   0  0  0  0  0  0  0  0  0  0  0  0
   19.3540  -17.8588  -12.4356 C   0  0  0  0  0  0  0  0  0  0  0  0
   18.1846  -17.5389  -12.7342 O   0  0  0  0  0  0  0  0  0  0  0  0
   19.9725  -19.1326  -12.9423 C   0  0  0  0  0  0  0  0  0  0  0  0
   20.6025  -19.8310  -11.7681 C   0  0  0  0  0  0  0  0  0  0  0  0
   21.2246  -21.1236  -12.2044 C   0  0  2  0  0  0  0  0  0  0  0  0
   22.6253  -20.8568  -12.5747 N   0  0  0  0  0  0  0  0  0  0  0  0
   20.5280  -21.6585  -13.3801 C   0  0  0  0  0  0  0  0  0  0  0  0
   21.1104  -21.4597  -14.6476 O   0  0  0  0  0  0  0  0  0  0  0  0
   19.4554  -22.2829  -13.3855 O   0  0  0  0  0  0  0  0  0  0  0  0
  2  1  1  6
  2 10  1  0
  2  3  1  0
  3  4  1  0
  4  5  2  0
  4  9  1  0
  5  6  1  0
  6  7  2  0
  8  7  1  0
  9  8  2  0
 10 11  2  0
 12 13  1  0
 12 10  1  0
 13 14  1  6
 14 15  1  0
 16 17  1  0
 16 15  1  0
 18 17  1  0
 19 20  2  0
 19 13  1  0
 21 22  1  0
 22 24  1  0
 23 22  2  0
 24 25  1  0
 26 25  1  6
 26 28  1  0
 26 27  1  0
 27 19  1  0
 28 29  1  0
 30 28  2  0
M  END
$$$$
