FKQ.pdb
     RDKit          3D

 30 30  0  0  1  0  0  0  0  0999 V2000
   28.1692  -19.0031   -8.3121 N   0  0  0  0  0  0  0  0  0  0  0  0
   27.2482  -20.1191   -8.3427 C   0  0  1  0  0  0  0  0  0  0  0  0
   26.5653  -20.1859   -6.9984 C   0  0  0  0  0  0  0  0  0  0  0  0
   27.5523  -20.1287   -5.9139 C   0  0  0  0  0  0  0  0  0  0  0  0
   27.4834  -19.0749   -5.0158 C   0  0  0  0  0  0  0  0  0  0  0  0
   28.3841  -18.9566   -3.9662 C   0  0  0  0  0  0  0  0  0  0  0  0
   29.3654  -19.8824   -3.7938 C   0  0  0  0  0  0  0  0  0  0  0  0
   29.4553  -20.9524   -4.6848 C   0  0  0  0  0  0  0  0  0  0  0  0
   28.5521  -21.0500   -5.7180 C   0  0  0  0  0  0  0  0  0  0  0  0
   26.3045  -19.9252   -9.4533 C   0  0  0  0  0  0  0  0  0  0  0  0
   25.4620  -18.9986   -9.3810 O   0  0  0  0  0  0  0  0  0  0  0  0
   26.2937  -20.7388  -10.6181 N   0  0  0  0  0  0  0  0  0  0  0  0
   25.6026  -20.4642  -11.8369 C   0  0  1  0  0  0  0  0  0  0  0  0
   26.5398  -20.3102  -13.0198 C   0  0  0  0  0  0  0  0  0  0  0  0
   26.2863  -21.3689  -14.0591 C   0  0  0  0  0  0  0  0  0  0  0  0
   27.1345  -21.2466  -15.2812 C   0  0  0  0  0  0  0  0  0  0  0  0
   26.6907  -22.1983  -16.3718 C   0  0  0  0  0  0  0  0  0  0  0  0
   27.5417  -21.9476  -17.5253 N   0  0  0  0  0  0  0  0  0  0  0  0
   24.5891  -21.5216  -12.0752 C   0  0  0  0  0  0  0  0  0  0  0  0
   24.9158  -22.7419  -11.9475 O   0  0  0  0  0  0  0  0  0  0  0  0
   18.5662  -20.9321  -11.8661 N   0  0  0  0  0  0  0  0  0  0  0  0
   19.4868  -19.9056  -12.2024 C   0  0  0  0  0  0  0  0  0  0  0  0
   19.1609  -18.7011  -12.2462 O   0  0  0  0  0  0  0  0  0  0  0  0
   20.8910  -20.3498  -12.5066 C   0  0  0  0  0  0  0  0  0  0  0  0
   20.9308  -21.8487  -12.3840 C   0  0  0  0  0  0  0  0  0  0  0  0
   22.3136  -22.3569  -12.6628 C   0  0  2  0  0  0  0  0  0  0  0  0
   23.2620  -21.2514  -12.4417 N   0  0  0  0  0  0  0  0  0  0  0  0
   22.4290  -22.7943  -14.0589 C   0  0  0  0  0  0  0  0  0  0  0  0
   23.1353  -21.9719  -14.9590 O   0  0  0  0  0  0  0  0  0  0  0  0
   21.9627  -23.8341  -14.5506 O   0  0  0  0  0  0  0  0  0  0  0  0
  2  1  1  1
  2 10  1  0
  2  3  1  0
  3  4  1  0
  4  5  2  0
  4  9  1  0
  5  6  1  0
  6  7  2  0
  8  7  1  0
  9  8  2  0
 10 11  2  0
 12 13  1  0
 12 10  1  0
 13 14  1  6
 14 15  1  0
 16 17  1  0
 16 15  1  0
 18 17  1  0
 19 20  2  0
 19 13  1  0
 21 22  1  0
 22 24  1  0
 23 22  2  0
 24 25  1  0
 26 25  1  6
 26 28  1  0
 26 27  1  0
 27 19  1  0
 28 29  1  0
 30 28  2  0
M  END
$$$$
