FKQ.pdb
     RDKit          3D

 30 30  0  0  1  0  0  0  0  0999 V2000
   21.2975    0.0237  -15.6787 N   0  0  0  0  0  0  0  0  0  0  0  0
   21.4560    1.3810  -16.1556 C   0  0  1  0  0  0  0  0  0  0  0  0
   20.2322    2.1589  -15.7372 C   0  0  0  0  0  0  0  0  0  0  0  0
   19.1088    1.8798  -16.6392 C   0  0  0  0  0  0  0  0  0  0  0  0
   18.1334    0.9886  -16.2197 C   0  0  0  0  0  0  0  0  0  0  0  0
   17.0433    0.6769  -17.0206 C   0  0  0  0  0  0  0  0  0  0  0  0
   16.9066    1.2454  -18.2486 C   0  0  0  0  0  0  0  0  0  0  0  0
   17.8755    2.1457  -18.6931 C   0  0  0  0  0  0  0  0  0  0  0  0
   18.9478    2.4402  -17.8829 C   0  0  0  0  0  0  0  0  0  0  0  0
   22.7011    1.9353  -15.6042 C   0  0  0  0  0  0  0  0  0  0  0  0
   23.1461    1.4757  -14.5251 O   0  0  0  0  0  0  0  0  0  0  0  0
   23.4371    2.9753  -16.2331 N   0  0  0  0  0  0  0  0  0  0  0  0
   24.6613    3.5460  -15.7705 C   0  0  1  0  0  0  0  0  0  0  0  0
   25.6558    3.7862  -16.8907 C   0  0  0  0  0  0  0  0  0  0  0  0
   26.9863    4.2389  -16.3522 C   0  0  0  0  0  0  0  0  0  0  0  0
   27.9972    4.5615  -17.4021 C   0  0  0  0  0  0  0  0  0  0  0  0
   29.3330    4.9414  -16.7994 C   0  0  0  0  0  0  0  0  0  0  0  0
   30.2250    5.2509  -17.9067 N   0  0  0  0  0  0  0  0  0  0  0  0
   24.3690    4.7929  -15.0210 C   0  0  0  0  0  0  0  0  0  0  0  0
   23.4106    5.5374  -15.3941 O   0  0  0  0  0  0  0  0  0  0  0  0
   24.7995    8.2441   -8.5815 N   0  0  0  0  0  0  0  0  0  0  0  0
   24.9753    7.1572   -9.4771 C   0  0  0  0  0  0  0  0  0  0  0  0
   25.4223    6.0511   -9.1088 O   0  0  0  0  0  0  0  0  0  0  0  0
   24.5906    7.4106  -10.9087 C   0  0  0  0  0  0  0  0  0  0  0  0
   25.0218    6.2153  -11.7141 C   0  0  0  0  0  0  0  0  0  0  0  0
   24.7068    6.4246  -13.1650 C   0  0  2  0  0  0  0  0  0  0  0  0
   25.1024    5.2107  -13.9002 N   0  0  0  0  0  0  0  0  0  0  0  0
   25.4698    7.5590  -13.6985 C   0  0  0  0  0  0  0  0  0  0  0  0
   24.8007    8.7855  -13.8813 O   0  0  0  0  0  0  0  0  0  0  0  0
   26.6697    7.5614  -14.0156 O   0  0  0  0  0  0  0  0  0  0  0  0
  2  1  1  1
  2 10  1  0
  2  3  1  0
  3  4  1  0
  4  5  2  0
  4  9  1  0
  5  6  1  0
  6  7  2  0
  8  7  1  0
  9  8  2  0
 10 11  2  0
 12 13  1  0
 12 10  1  0
 13 14  1  6
 14 15  1  0
 16 17  1  0
 16 15  1  0
 18 17  1  0
 19 20  2  0
 19 13  1  0
 21 22  1  0
 22 24  1  0
 23 22  2  0
 24 25  1  0
 26 25  1  1
 26 28  1  0
 26 27  1  0
 27 19  1  0
 28 29  1  0
 30 28  2  0
M  END
$$$$
