FKQ.pdb
     RDKit          3D

 30 30  0  0  1  0  0  0  0  0999 V2000
   25.1586  -20.8539   -9.8126 N   0  0  0  0  0  0  0  0  0  0  0  0
   25.5125  -20.5489  -11.1824 C   0  0  1  0  0  0  0  0  0  0  0  0
   26.3877  -21.6693  -11.6892 C   0  0  0  0  0  0  0  0  0  0  0  0
   27.8040  -21.2924  -11.6155 C   0  0  0  0  0  0  0  0  0  0  0  0
   28.2871  -20.3662  -12.5268 C   0  0  0  0  0  0  0  0  0  0  0  0
   29.6155  -19.9635  -12.5164 C   0  0  0  0  0  0  0  0  0  0  0  0
   30.4824  -20.4747  -11.6014 C   0  0  0  0  0  0  0  0  0  0  0  0
   30.0198  -21.4086  -10.6737 C   0  0  0  0  0  0  0  0  0  0  0  0
   28.6992  -21.7935  -10.7021 C   0  0  0  0  0  0  0  0  0  0  0  0
   24.2792  -20.3886  -11.9666 C   0  0  0  0  0  0  0  0  0  0  0  0
   23.1779  -20.6601  -11.4308 O   0  0  0  0  0  0  0  0  0  0  0  0
   24.2653  -19.9376  -13.3139 N   0  0  0  0  0  0  0  0  0  0  0  0
   23.1087  -19.6271  -14.0914 C   0  0  1  0  0  0  0  0  0  0  0  0
   23.4316  -18.7844  -15.3109 C   0  0  0  0  0  0  0  0  0  0  0  0
   22.1798  -18.3777  -16.0408 C   0  0  0  0  0  0  0  0  0  0  0  0
   22.4148  -17.4877  -17.2159 C   0  0  0  0  0  0  0  0  0  0  0  0
   21.1217  -17.1261  -17.9155 C   0  0  0  0  0  0  0  0  0  0  0  0
   21.4731  -16.2752  -19.0424 N   0  0  0  0  0  0  0  0  0  0  0  0
   22.4151  -20.8852  -14.4631 C   0  0  0  0  0  0  0  0  0  0  0  0
   23.0817  -21.8434  -14.9626 O   0  0  0  0  0  0  0  0  0  0  0  0
   16.7873  -24.2582  -15.0458 N   0  0  0  0  0  0  0  0  0  0  0  0
   17.4114  -23.8772  -13.8294 C   0  0  0  0  0  0  0  0  0  0  0  0
   16.7764  -23.3746  -12.8791 O   0  0  0  0  0  0  0  0  0  0  0  0
   18.8943  -24.1133  -13.7442 C   0  0  0  0  0  0  0  0  0  0  0  0
   19.5505  -22.7889  -13.4640 C   0  0  0  0  0  0  0  0  0  0  0  0
   20.4341  -22.3936  -14.6091 C   0  0  2  0  0  0  0  0  0  0  0  0
   21.0370  -21.0869  -14.2937 N   0  0  0  0  0  0  0  0  0  0  0  0
   19.6487  -22.2563  -15.8411 C   0  0  0  0  0  0  0  0  0  0  0  0
   19.7180  -23.2914  -16.7947 O   0  0  0  0  0  0  0  0  0  0  0  0
   18.9104  -21.3068  -16.1474 O   0  0  0  0  0  0  0  0  0  0  0  0
  2  1  1  1
  2 10  1  0
  2  3  1  0
  3  4  1  0
  4  5  2  0
  4  9  1  0
  5  6  1  0
  6  7  2  0
  8  7  1  0
  9  8  2  0
 10 11  2  0
 12 13  1  0
 12 10  1  0
 13 14  1  6
 14 15  1  0
 16 17  1  0
 16 15  1  0
 18 17  1  0
 19 20  2  0
 19 13  1  0
 21 22  1  0
 22 24  1  0
 23 22  2  0
 24 25  1  0
 26 25  1  1
 26 28  1  0
 26 27  1  0
 27 19  1  0
 28 29  1  0
 30 28  2  0
M  END
$$$$
