FKQ.pdb
     RDKit          3D

 30 30  0  0  1  0  0  0  0  0999 V2000
   26.6863  -16.7448  -17.8925 N   0  0  0  0  0  0  0  0  0  0  0  0
   26.3612  -16.6760  -16.4839 C   0  0  1  0  0  0  0  0  0  0  0  0
   25.4632  -15.4802  -16.2794 C   0  0  0  0  0  0  0  0  0  0  0  0
   26.2238  -14.2329  -16.4177 C   0  0  0  0  0  0  0  0  0  0  0  0
   27.1833  -13.9374  -15.4618 C   0  0  0  0  0  0  0  0  0  0  0  0
   27.9398  -12.7755  -15.5288 C   0  0  0  0  0  0  0  0  0  0  0  0
   27.7544  -11.8912  -16.5454 C   0  0  0  0  0  0  0  0  0  0  0  0
   26.7944  -12.1664  -17.5198 C   0  0  0  0  0  0  0  0  0  0  0  0
   26.0558  -13.3240  -17.4338 C   0  0  0  0  0  0  0  0  0  0  0  0
   25.7287  -17.9405  -16.0806 C   0  0  0  0  0  0  0  0  0  0  0  0
   24.9296  -18.4997  -16.8694 O   0  0  0  0  0  0  0  0  0  0  0  0
   25.9754  -18.5719  -14.8319 N   0  0  0  0  0  0  0  0  0  0  0  0
   25.3283  -19.7424  -14.3321 C   0  0  1  0  0  0  0  0  0  0  0  0
   26.0950  -20.3965  -13.1981 C   0  0  0  0  0  0  0  0  0  0  0  0
   25.4269  -21.6682  -12.7492 C   0  0  0  0  0  0  0  0  0  0  0  0
   25.1568  -22.6420  -13.8478 C   0  0  0  0  0  0  0  0  0  0  0  0
   24.4226  -23.8672  -13.3460 C   0  0  0  0  0  0  0  0  0  0  0  0
   24.1563  -24.7061  -14.5049 N   0  0  0  0  0  0  0  0  0  0  0  0
   23.9409  -19.4023  -13.9305 C   0  0  0  0  0  0  0  0  0  0  0  0
   23.7462  -18.6570  -12.9213 O   0  0  0  0  0  0  0  0  0  0  0  0
   20.8485  -16.9598  -17.0482 N   0  0  0  0  0  0  0  0  0  0  0  0
   20.6352  -18.2927  -17.4866 C   0  0  0  0  0  0  0  0  0  0  0  0
   20.4576  -18.5827  -18.6880 O   0  0  0  0  0  0  0  0  0  0  0  0
   20.6344  -19.3492  -16.4163 C   0  0  0  0  0  0  0  0  0  0  0  0
   20.7790  -18.6536  -15.0902 C   0  0  0  0  0  0  0  0  0  0  0  0
   21.4572  -19.5542  -14.1016 C   0  0  2  0  0  0  0  0  0  0  0  0
   22.8043  -19.8637  -14.6116 N   0  0  0  0  0  0  0  0  0  0  0  0
   20.7152  -20.8123  -13.9590 C   0  0  0  0  0  0  0  0  0  0  0  0
   21.2735  -21.9819  -14.5121 O   0  0  0  0  0  0  0  0  0  0  0  0
   19.6225  -20.9680  -13.3914 O   0  0  0  0  0  0  0  0  0  0  0  0
  2  1  1  6
  2 10  1  0
  2  3  1  0
  3  4  1  0
  4  5  2  0
  4  9  1  0
  5  6  1  0
  6  7  2  0
  8  7  1  0
  9  8  2  0
 10 11  2  0
 12 13  1  0
 12 10  1  0
 13 14  1  1
 14 15  1  0
 16 17  1  0
 16 15  1  0
 18 17  1  0
 19 20  2  0
 19 13  1  0
 21 22  1  0
 22 24  1  0
 23 22  2  0
 24 25  1  0
 26 25  1  6
 26 28  1  0
 26 27  1  0
 27 19  1  0
 28 29  1  0
 30 28  2  0
M  END
$$$$
