FKQ.pdb
     RDKit          3D

 30 30  0  0  1  0  0  0  0  0999 V2000
   26.9708  -18.0752  -16.8852 N   0  0  0  0  0  0  0  0  0  0  0  0
   26.4307  -17.9256  -15.5508 C   0  0  1  0  0  0  0  0  0  0  0  0
   25.5268  -16.7169  -15.5558 C   0  0  0  0  0  0  0  0  0  0  0  0
   26.3113  -15.4853  -15.7009 C   0  0  0  0  0  0  0  0  0  0  0  0
   26.2020  -14.7705  -16.8836 C   0  0  0  0  0  0  0  0  0  0  0  0
   26.9147  -13.5974  -17.0905 C   0  0  0  0  0  0  0  0  0  0  0  0
   27.7456  -13.1179  -16.1263 C   0  0  0  0  0  0  0  0  0  0  0  0
   27.8725  -13.8197  -14.9270 C   0  0  0  0  0  0  0  0  0  0  0  0
   27.1567  -14.9802  -14.7433 C   0  0  0  0  0  0  0  0  0  0  0  0
   25.7274  -19.1629  -15.1821 C   0  0  0  0  0  0  0  0  0  0  0  0
   25.0250  -19.7434  -16.0443 O   0  0  0  0  0  0  0  0  0  0  0  0
   25.8000  -19.7447  -13.8879 N   0  0  0  0  0  0  0  0  0  0  0  0
   25.0959  -20.9029  -13.4391 C   0  0  1  0  0  0  0  0  0  0  0  0
   25.6385  -21.4482  -12.1315 C   0  0  0  0  0  0  0  0  0  0  0  0
   25.5374  -20.4275  -11.0301 C   0  0  0  0  0  0  0  0  0  0  0  0
   26.2238  -20.8192   -9.7637 C   0  0  0  0  0  0  0  0  0  0  0  0
   26.0503  -19.7733   -8.6829 C   0  0  0  0  0  0  0  0  0  0  0  0
   26.8420  -20.2076   -7.5418 N   0  0  0  0  0  0  0  0  0  0  0  0
   23.6484  -20.5905  -13.3435 C   0  0  0  0  0  0  0  0  0  0  0  0
   23.2709  -19.5625  -12.7011 O   0  0  0  0  0  0  0  0  0  0  0  0
   21.2744  -20.3916  -17.5838 N   0  0  0  0  0  0  0  0  0  0  0  0
   20.7972  -19.2424  -16.9013 C   0  0  0  0  0  0  0  0  0  0  0  0
   20.7188  -18.1226  -17.4480 O   0  0  0  0  0  0  0  0  0  0  0  0
   20.3862  -19.4465  -15.4691 C   0  0  0  0  0  0  0  0  0  0  0  0
   20.6173  -20.8942  -15.1313 C   0  0  0  0  0  0  0  0  0  0  0  0
   21.2281  -21.0190  -13.7676 C   0  0  2  0  0  0  0  0  0  0  0  0
   22.6474  -21.3784  -13.9317 N   0  0  0  0  0  0  0  0  0  0  0  0
   20.5661  -22.0824  -13.0030 C   0  0  0  0  0  0  0  0  0  0  0  0
   21.2902  -23.2613  -12.7360 O   0  0  0  0  0  0  0  0  0  0  0  0
   19.4098  -22.0613  -12.5524 O   0  0  0  0  0  0  0  0  0  0  0  0
  2  1  1  6
  2 10  1  0
  2  3  1  0
  3  4  1  0
  4  5  2  0
  4  9  1  0
  5  6  1  0
  6  7  2  0
  8  7  1  0
  9  8  2  0
 10 11  2  0
 12 13  1  0
 12 10  1  0
 13 14  1  1
 14 15  1  0
 16 17  1  0
 16 15  1  0
 18 17  1  0
 19 20  2  0
 19 13  1  0
 21 22  1  0
 22 24  1  0
 23 22  2  0
 24 25  1  0
 26 25  1  6
 26 28  1  0
 26 27  1  0
 27 19  1  0
 28 29  1  0
 30 28  2  0
M  END
$$$$
