FKQ.pdb
     RDKit          3D

 30 30  0  0  1  0  0  0  0  0999 V2000
   26.4009  -21.4749   -7.9237 N   0  0  0  0  0  0  0  0  0  0  0  0
   26.4254  -20.0708   -8.2737 C   0  0  1  0  0  0  0  0  0  0  0  0
   27.7990  -19.5404   -7.9422 C   0  0  0  0  0  0  0  0  0  0  0  0
   28.0564  -19.6373   -6.5008 C   0  0  0  0  0  0  0  0  0  0  0  0
   29.3727  -19.6875   -6.0690 C   0  0  0  0  0  0  0  0  0  0  0  0
   29.6907  -19.7801   -4.7209 C   0  0  0  0  0  0  0  0  0  0  0  0
   28.7065  -19.8239   -3.7832 C   0  0  0  0  0  0  0  0  0  0  0  0
   27.3737  -19.7748   -4.1931 C   0  0  0  0  0  0  0  0  0  0  0  0
   27.0813  -19.6832   -5.5344 C   0  0  0  0  0  0  0  0  0  0  0  0
   26.0877  -19.9309   -9.6978 C   0  0  0  0  0  0  0  0  0  0  0  0
   26.1947  -18.8050  -10.2406 O   0  0  0  0  0  0  0  0  0  0  0  0
   25.6416  -21.0131  -10.5031 N   0  0  0  0  0  0  0  0  0  0  0  0
   25.4396  -20.9904  -11.9163 C   0  0  1  0  0  0  0  0  0  0  0  0
   26.1374  -22.1352  -12.6263 C   0  0  0  0  0  0  0  0  0  0  0  0
   26.0775  -21.9687  -14.1209 C   0  0  0  0  0  0  0  0  0  0  0  0
   27.0044  -20.9311  -14.6618 C   0  0  0  0  0  0  0  0  0  0  0  0
   26.8934  -20.8067  -16.1665 C   0  0  0  0  0  0  0  0  0  0  0  0
   27.6031  -21.9408  -16.7391 N   0  0  0  0  0  0  0  0  0  0  0  0
   23.9839  -20.9739  -12.2036 C   0  0  0  0  0  0  0  0  0  0  0  0
   23.2298  -21.8423  -11.6657 O   0  0  0  0  0  0  0  0  0  0  0  0
   18.2955  -18.6369  -12.5204 N   0  0  0  0  0  0  0  0  0  0  0  0
   19.3529  -17.9920  -13.2133 C   0  0  0  0  0  0  0  0  0  0  0  0
   19.6941  -16.8157  -12.9704 O   0  0  0  0  0  0  0  0  0  0  0  0
   20.0486  -18.8087  -14.2672 C   0  0  0  0  0  0  0  0  0  0  0  0
   21.5203  -18.7956  -13.9551 C   0  0  0  0  0  0  0  0  0  0  0  0
   21.9162  -20.0647  -13.2617 C   0  0  2  0  0  0  0  0  0  0  0  0
   23.3743  -20.0375  -13.0523 N   0  0  0  0  0  0  0  0  0  0  0  0
   21.5890  -21.2288  -14.0933 C   0  0  0  0  0  0  0  0  0  0  0  0
   22.4634  -21.5625  -15.1466 O   0  0  0  0  0  0  0  0  0  0  0  0
   20.6032  -21.9729  -13.9715 O   0  0  0  0  0  0  0  0  0  0  0  0
  2  1  1  6
  2 10  1  0
  2  3  1  0
  3  4  1  0
  4  5  2  0
  4  9  1  0
  5  6  1  0
  6  7  2  0
  8  7  1  0
  9  8  2  0
 10 11  2  0
 12 13  1  0
 12 10  1  0
 13 14  1  6
 14 15  1  0
 16 17  1  0
 16 15  1  0
 18 17  1  0
 19 20  2  0
 19 13  1  0
 21 22  1  0
 22 24  1  0
 23 22  2  0
 24 25  1  0
 26 25  1  6
 26 28  1  0
 26 27  1  0
 27 19  1  0
 28 29  1  0
 30 28  2  0
M  END
$$$$
