GYF.pdb
     RDKit          3D

 28 29  0  0  1  0  0  0  0  0999 V2000
    4.2091  -21.6243   21.8162 N   0  0  0  0  0  0  0  0  0  0  0  0
    5.0306  -20.4687   21.5653 C   0  0  0  0  0  0  0  0  0  0  0  0
    5.3284  -19.8221   22.8703 C   0  0  0  0  0  0  0  0  0  0  0  0
    4.4428  -19.1684   23.5097 O   0  0  0  0  0  0  0  0  0  0  0  0
    6.0276  -24.7528   28.2653 O   0  0  0  0  0  0  0  0  0  0  0  0
    6.4991  -23.6255   27.5840 C   0  0  0  0  0  0  0  0  0  0  0  0
    6.3793  -22.3690   28.1367 C   0  0  0  0  0  0  0  0  0  0  0  0
    6.8483  -21.2393   27.4610 C   0  0  0  0  0  0  0  0  0  0  0  0
    7.4448  -21.3315   26.2254 C   0  0  0  0  0  0  0  0  0  0  0  0
    7.9347  -20.1499   25.5256 C   0  0  0  0  0  0  0  0  0  0  0  0
    6.9067  -19.3361   24.8035 C   0  0  2  0  0  0  0  0  0  0  0  0
    6.6085  -19.8905   23.4841 N   0  0  0  0  0  0  0  0  0  0  0  0
    7.2030  -17.9033   24.6784 C   0  0  0  0  0  0  0  0  0  0  0  0
    7.9913  -17.5021   23.7523 O   0  0  0  0  0  0  0  0  0  0  0  0
    7.5575  -22.6036   25.6832 C   0  0  0  0  0  0  0  0  0  0  0  0
    7.0962  -23.7220   26.3460 C   0  0  0  0  0  0  0  0  0  0  0  0
    6.6885  -16.8713   25.5036 N   0  0  0  0  0  0  0  0  0  0  0  0
    7.0731  -15.4703   25.3618 C   0  0  1  0  0  0  0  0  0  0  0  0
    6.0524  -14.5554   25.9543 C   0  0  0  0  0  0  0  0  0  0  0  0
    6.4859  -13.1502   25.8951 C   0  0  0  0  0  0  0  0  0  0  0  0
    6.9125  -12.5614   27.0722 C   0  0  0  0  0  0  0  0  0  0  0  0
    7.3594  -11.2685   27.1416 C   0  0  0  0  0  0  0  0  0  0  0  0
    7.3967  -10.4942   26.0011 C   0  0  0  0  0  0  0  0  0  0  0  0
    6.9782  -11.0474   24.8042 C   0  0  0  0  0  0  0  0  0  0  0  0
    6.5279  -12.3684   24.7650 C   0  0  0  0  0  0  0  0  0  0  0  0
    8.3968  -15.1933   25.9086 C   0  0  0  0  0  0  0  0  0  0  0  0
    9.3476  -14.3486   25.3723 O   0  0  0  0  0  0  0  0  0  0  0  0
    8.7468  -15.7715   26.9858 O   0  0  0  0  0  0  0  0  0  0  0  0
  2  1  1  0
  3  2  1  0
  4  3  2  0
  6  5  1  0
  6 16  2  0
  7  6  1  0
  8  7  2  0
  8  9  1  0
  9 15  2  0
 11 10  1  6
 10  9  1  0
 11 12  1  0
 12  3  1  0
 13 17  1  0
 13 11  1  0
 14 13  2  0
 15 16  1  0
 18 17  1  0
 18 19  1  1
 20 21  2  0
 20 19  1  0
 22 21  1  0
 23 22  2  0
 24 25  2  0
 24 23  1  0
 25 20  1  0
 26 18  1  0
 27 26  1  0
 28 26  2  0
M  END
$$$$
