GYF.pdb
     RDKit          3D

 28 29  0  0  1  0  0  0  0  0999 V2000
    5.7263  -21.1169   23.1609 N   0  0  0  0  0  0  0  0  0  0  0  0
    5.3076  -19.8057   23.5837 C   0  0  0  0  0  0  0  0  0  0  0  0
    6.3060  -18.8210   23.0903 C   0  0  0  0  0  0  0  0  0  0  0  0
    7.4153  -19.1897   22.5862 O   0  0  0  0  0  0  0  0  0  0  0  0
    9.4245  -12.1081   18.4447 O   0  0  0  0  0  0  0  0  0  0  0  0
    8.6702  -12.8705   19.3430 C   0  0  0  0  0  0  0  0  0  0  0  0
    8.2244  -14.1274   18.9966 C   0  0  0  0  0  0  0  0  0  0  0  0
    7.4706  -14.8936   19.8896 C   0  0  0  0  0  0  0  0  0  0  0  0
    7.1437  -14.4306   21.1426 C   0  0  0  0  0  0  0  0  0  0  0  0
    6.3590  -15.2351   22.0716 C   0  0  0  0  0  0  0  0  0  0  0  0
    7.0478  -16.4281   22.6570 C   0  0  2  0  0  0  0  0  0  0  0  0
    6.0902  -17.4174   23.1481 N   0  0  0  0  0  0  0  0  0  0  0  0
    8.0372  -16.1410   23.7035 C   0  0  0  0  0  0  0  0  0  0  0  0
    9.1424  -15.5767   23.3870 O   0  0  0  0  0  0  0  0  0  0  0  0
    7.6004  -13.1634   21.4754 C   0  0  0  0  0  0  0  0  0  0  0  0
    8.3448  -12.4030   20.5976 C   0  0  0  0  0  0  0  0  0  0  0  0
    7.8964  -16.4298   25.0847 N   0  0  0  0  0  0  0  0  0  0  0  0
    8.9194  -16.1086   26.0750 C   0  0  1  0  0  0  0  0  0  0  0  0
    8.3414  -15.3993   27.2552 C   0  0  0  0  0  0  0  0  0  0  0  0
    7.8138  -14.0759   26.8860 C   0  0  0  0  0  0  0  0  0  0  0  0
    6.4397  -13.9317   26.8133 C   0  0  0  0  0  0  0  0  0  0  0  0
    5.8284  -12.7464   26.5012 C   0  0  0  0  0  0  0  0  0  0  0  0
    6.5931  -11.6282   26.2427 C   0  0  0  0  0  0  0  0  0  0  0  0
    7.9710  -11.7322   26.3056 C   0  0  0  0  0  0  0  0  0  0  0  0
    8.5653  -12.9543   26.6265 C   0  0  0  0  0  0  0  0  0  0  0  0
    9.6806  -17.2796   26.4960 C   0  0  0  0  0  0  0  0  0  0  0  0
   10.7586  -17.2931   27.3580 O   0  0  0  0  0  0  0  0  0  0  0  0
    9.3487  -18.4202   26.0425 O   0  0  0  0  0  0  0  0  0  0  0  0
  2  1  1  0
  3  2  1  0
  4  3  2  0
  6  5  1  0
  6 16  2  0
  7  6  1  0
  8  7  2  0
  8  9  1  0
  9 15  2  0
 11 10  1  1
 10  9  1  0
 11 12  1  0
 12  3  1  0
 13 17  1  0
 13 11  1  0
 14 13  2  0
 15 16  1  0
 18 17  1  0
 18 19  1  1
 20 21  2  0
 20 19  1  0
 22 21  1  0
 23 22  2  0
 24 25  2  0
 24 23  1  0
 25 20  1  0
 26 18  1  0
 27 26  1  0
 28 26  2  0
M  END
$$$$
