GYF.pdb
     RDKit          3D

 28 29  0  0  1  0  0  0  0  0999 V2000
   12.8284  -14.7238   19.7931 N   0  0  0  0  0  0  0  0  0  0  0  0
   12.1431  -15.8734   20.3244 C   0  0  0  0  0  0  0  0  0  0  0  0
   11.1902  -15.4028   21.3638 C   0  0  0  0  0  0  0  0  0  0  0  0
   11.3458  -14.2874   21.9573 O   0  0  0  0  0  0  0  0  0  0  0  0
    7.5589  -12.2443   17.5161 O   0  0  0  0  0  0  0  0  0  0  0  0
    7.6046  -13.0472   18.6608 C   0  0  0  0  0  0  0  0  0  0  0  0
    7.6389  -12.4803   19.9162 C   0  0  0  0  0  0  0  0  0  0  0  0
    7.6846  -13.2770   21.0633 C   0  0  0  0  0  0  0  0  0  0  0  0
    7.6972  -14.6502   20.9899 C   0  0  0  0  0  0  0  0  0  0  0  0
    7.7425  -15.4771   22.1899 C   0  0  0  0  0  0  0  0  0  0  0  0
    9.0989  -15.7189   22.7748 C   0  0  2  0  0  0  0  0  0  0  0  0
   10.0540  -16.1595   21.7596 N   0  0  0  0  0  0  0  0  0  0  0  0
    9.1428  -16.6359   23.9209 C   0  0  0  0  0  0  0  0  0  0  0  0
    9.6461  -17.8042   23.7733 O   0  0  0  0  0  0  0  0  0  0  0  0
    7.6624  -15.2048   19.7186 C   0  0  0  0  0  0  0  0  0  0  0  0
    7.6172  -14.4228   18.5831 C   0  0  0  0  0  0  0  0  0  0  0  0
    8.6716  -16.3573   25.2291 N   0  0  0  0  0  0  0  0  0  0  0  0
    8.6275  -17.3580   26.2908 C   0  0  1  0  0  0  0  0  0  0  0  0
    8.2706  -16.7500   27.6073 C   0  0  0  0  0  0  0  0  0  0  0  0
    9.1680  -15.6347   27.9493 C   0  0  0  0  0  0  0  0  0  0  0  0
    8.7759  -14.3606   27.5791 C   0  0  0  0  0  0  0  0  0  0  0  0
    9.5136  -13.2410   27.8591 C   0  0  0  0  0  0  0  0  0  0  0  0
   10.7068  -13.3593   28.5403 C   0  0  0  0  0  0  0  0  0  0  0  0
   11.1330  -14.6170   28.9276 C   0  0  0  0  0  0  0  0  0  0  0  0
   10.3590  -15.7397   28.6279 C   0  0  0  0  0  0  0  0  0  0  0  0
    7.7390  -18.4714   25.9765 C   0  0  0  0  0  0  0  0  0  0  0  0
    6.8808  -18.5594   24.8991 O   0  0  0  0  0  0  0  0  0  0  0  0
    7.7243  -19.4796   26.7512 O   0  0  0  0  0  0  0  0  0  0  0  0
  2  1  1  0
  3  2  1  0
  4  3  2  0
  6  5  1  0
  6 16  2  0
  7  6  1  0
  8  7  2  0
  8  9  1  0
  9 15  2  0
 11 10  1  6
 10  9  1  0
 11 12  1  0
 12  3  1  0
 13 17  1  0
 13 11  1  0
 14 13  2  0
 15 16  1  0
 18 17  1  0
 18 19  1  1
 20 21  2  0
 20 19  1  0
 22 21  1  0
 23 22  2  0
 24 25  2  0
 24 23  1  0
 25 20  1  0
 26 18  1  0
 27 26  1  0
 28 26  2  0
M  END
$$$$
