GYF.pdb
     RDKit          3D

 28 29  0  0  1  0  0  0  0  0999 V2000
    5.6181  -19.3443   21.4798 N   0  0  0  0  0  0  0  0  0  0  0  0
    5.6163  -18.1793   22.3260 C   0  0  0  0  0  0  0  0  0  0  0  0
    6.9625  -17.5532   22.2519 C   0  0  0  0  0  0  0  0  0  0  0  0
    7.9859  -18.2114   21.8778 O   0  0  0  0  0  0  0  0  0  0  0  0
    8.0416  -13.3262   16.4626 O   0  0  0  0  0  0  0  0  0  0  0  0
    8.1246  -13.5226   17.8453 C   0  0  0  0  0  0  0  0  0  0  0  0
    9.2894  -13.9802   18.4216 C   0  0  0  0  0  0  0  0  0  0  0  0
    9.3783  -14.1783   19.8020 C   0  0  0  0  0  0  0  0  0  0  0  0
    8.3161  -13.9272   20.6385 C   0  0  0  0  0  0  0  0  0  0  0  0
    8.4147  -14.1331   22.0786 C   0  0  0  0  0  0  0  0  0  0  0  0
    8.5080  -15.5547   22.5377 C   0  0  2  0  0  0  0  0  0  0  0  0
    7.1936  -16.1923   22.5906 N   0  0  0  0  0  0  0  0  0  0  0  0
    9.2081  -15.7669   23.8110 C   0  0  0  0  0  0  0  0  0  0  0  0
   10.4546  -15.4864   23.8982 O   0  0  0  0  0  0  0  0  0  0  0  0
    7.1509  -13.4670   20.0421 C   0  0  0  0  0  0  0  0  0  0  0  0
    7.0579  -13.2698   18.6800 C   0  0  0  0  0  0  0  0  0  0  0  0
    8.6308  -16.2671   25.0057 N   0  0  0  0  0  0  0  0  0  0  0  0
    9.3691  -16.3864   26.2592 C   0  0  1  0  0  0  0  0  0  0  0  0
    9.6527  -15.0498   26.8617 C   0  0  0  0  0  0  0  0  0  0  0  0
    8.4400  -14.2187   26.9299 C   0  0  0  0  0  0  0  0  0  0  0  0
    7.2736  -14.7433   26.4022 C   0  0  0  0  0  0  0  0  0  0  0  0
    6.0774  -14.0765   26.4249 C   0  0  0  0  0  0  0  0  0  0  0  0
    6.0025  -12.8224   26.9937 C   0  0  0  0  0  0  0  0  0  0  0  0
    7.1477  -12.2639   27.5323 C   0  0  0  0  0  0  0  0  0  0  0  0
    8.3527  -12.9681   27.4943 C   0  0  0  0  0  0  0  0  0  0  0  0
    8.7043  -17.2579   27.2216 C   0  0  0  0  0  0  0  0  0  0  0  0
    7.5373  -17.9668   27.0197 O   0  0  0  0  0  0  0  0  0  0  0  0
    9.2210  -17.4026   28.3745 O   0  0  0  0  0  0  0  0  0  0  0  0
  2  1  1  0
  3  2  1  0
  4  3  2  0
  6  5  1  0
  6 16  2  0
  7  6  1  0
  8  7  2  0
  8  9  1  0
  9 15  2  0
 11 10  1  1
 10  9  1  0
 11 12  1  0
 12  3  1  0
 13 17  1  0
 13 11  1  0
 14 13  2  0
 15 16  1  0
 18 17  1  0
 18 19  1  1
 20 21  2  0
 20 19  1  0
 22 21  1  0
 23 22  2  0
 24 25  2  0
 24 23  1  0
 25 20  1  0
 26 18  1  0
 27 26  1  0
 28 26  2  0
M  END
$$$$
