GYF.pdb
     RDKit          3D

 28 29  0  0  1  0  0  0  0  0999 V2000
    7.7955  -18.6380   17.7348 N   0  0  0  0  0  0  0  0  0  0  0  0
    7.7616  -19.3518   18.9849 C   0  0  0  0  0  0  0  0  0  0  0  0
    7.2240  -18.4356   20.0249 C   0  0  0  0  0  0  0  0  0  0  0  0
    6.9255  -17.2266   19.7607 O   0  0  0  0  0  0  0  0  0  0  0  0
    1.0980  -20.0759   19.1720 O   0  0  0  0  0  0  0  0  0  0  0  0
    2.0936  -19.7414   20.0962 C   0  0  0  0  0  0  0  0  0  0  0  0
    2.2176  -18.4495   20.5591 C   0  0  0  0  0  0  0  0  0  0  0  0
    3.2101  -18.1094   21.4821 C   0  0  0  0  0  0  0  0  0  0  0  0
    4.0987  -19.0412   21.9649 C   0  0  0  0  0  0  0  0  0  0  0  0
    5.1309  -18.6817   22.9299 C   0  0  0  0  0  0  0  0  0  0  0  0
    6.3503  -18.0142   22.3750 C   0  0  2  0  0  0  0  0  0  0  0  0
    7.0099  -18.8447   21.3690 N   0  0  0  0  0  0  0  0  0  0  0  0
    7.3370  -17.5671   23.3664 C   0  0  0  0  0  0  0  0  0  0  0  0
    8.3472  -18.3096   23.6280 O   0  0  0  0  0  0  0  0  0  0  0  0
    3.9600  -20.3370   21.4887 C   0  0  0  0  0  0  0  0  0  0  0  0
    2.9821  -20.6780   20.5774 C   0  0  0  0  0  0  0  0  0  0  0  0
    7.2940  -16.3513   24.0948 N   0  0  0  0  0  0  0  0  0  0  0  0
    8.1914  -16.0558   25.2074 C   0  0  1  0  0  0  0  0  0  0  0  0
    7.9833  -14.6731   25.7318 C   0  0  0  0  0  0  0  0  0  0  0  0
    8.8444  -14.3998   26.8936 C   0  0  0  0  0  0  0  0  0  0  0  0
   10.2097  -14.3371   26.6782 C   0  0  0  0  0  0  0  0  0  0  0  0
   11.1115  -14.0691   27.6737 C   0  0  0  0  0  0  0  0  0  0  0  0
   10.6664  -13.8472   28.9599 C   0  0  0  0  0  0  0  0  0  0  0  0
    9.3080  -13.9012   29.2154 C   0  0  0  0  0  0  0  0  0  0  0  0
    8.4130  -14.1767   28.1797 C   0  0  0  0  0  0  0  0  0  0  0  0
    8.0954  -17.0374   26.2821 C   0  0  0  0  0  0  0  0  0  0  0  0
    9.1468  -17.6088   26.9700 O   0  0  0  0  0  0  0  0  0  0  0  0
    6.9435  -17.4326   26.6484 O   0  0  0  0  0  0  0  0  0  0  0  0
  2  1  1  0
  3  2  1  0
  4  3  2  0
  6  5  1  0
  6 16  2  0
  7  6  1  0
  8  7  2  0
  8  9  1  0
  9 15  2  0
 11 10  1  1
 10  9  1  0
 11 12  1  0
 12  3  1  0
 13 17  1  0
 13 11  1  0
 14 13  2  0
 15 16  1  0
 18 17  1  0
 18 19  1  1
 20 21  2  0
 20 19  1  0
 22 21  1  0
 23 22  2  0
 24 25  2  0
 24 23  1  0
 25 20  1  0
 26 18  1  0
 27 26  1  0
 28 26  2  0
M  END
$$$$
