FNW.pdb
     RDKit          3D

 34 36  0  0  1  0  0  0  0  0999 V2000
    6.5365  -17.2742   20.8437 N   0  0  0  0  0  0  0  0  0  0  0  0
    7.3854  -16.2906   21.5149 C   0  0  1  0  0  0  0  0  0  0  0  0
    6.6377  -15.7239   22.7241 C   0  0  0  0  0  0  0  0  0  0  0  0
    7.0518  -14.3398   23.0105 C   0  0  0  0  0  0  0  0  0  0  0  0
    8.1419  -13.7805   22.3821 C   0  0  0  0  0  0  0  0  0  0  0  0
    8.5614  -12.4834   22.6208 C   0  0  0  0  0  0  0  0  0  0  0  0
    7.8522  -11.7191   23.5308 C   0  0  0  0  0  0  0  0  0  0  0  0
    6.7676  -12.2483   24.1682 C   0  0  0  0  0  0  0  0  0  0  0  0
    6.3585  -13.5570   23.9159 C   0  0  0  0  0  0  0  0  0  0  0  0
    8.6409  -16.9163   22.0001 C   0  0  0  0  0  0  0  0  0  0  0  0
    8.5390  -18.0797   22.4858 O   0  0  0  0  0  0  0  0  0  0  0  0
   13.5739  -18.3849   22.5020 N   0  0  0  0  0  0  0  0  0  0  0  0
   13.4888  -17.2637   21.5924 C   0  0  0  0  0  0  0  0  0  0  0  0
   14.5013  -16.9790   20.9315 O   0  0  0  0  0  0  0  0  0  0  0  0
   12.2274  -16.5590   21.5237 C   0  0  0  0  0  0  0  0  0  0  0  0
   11.0851  -17.0524   22.3729 C   0  0  2  0  0  0  0  0  0  0  0  0
    9.8950  -16.2657   21.9331 N   0  0  0  0  0  0  0  0  0  0  0  0
   11.2087  -16.7217   23.8138 C   0  0  0  0  0  0  0  0  0  0  0  0
   11.7346  -15.5826   24.1243 O   0  0  0  0  0  0  0  0  0  0  0  0
   10.8156  -17.4985   24.9091 N   0  0  0  0  0  0  0  0  0  0  0  0
   11.2652  -17.1842   26.2337 C   0  0  1  0  0  0  0  0  0  0  0  0
   10.8995  -15.7750   26.6450 C   0  0  0  0  0  0  0  0  0  0  0  0
    9.4690  -15.5572   26.3342 C   0  0  0  0  0  0  0  0  0  0  0  0
    8.4853  -16.4952   26.0167 C   0  0  0  0  0  0  0  0  0  0  0  0
    7.3134  -15.8497   25.8019 N   0  0  0  0  0  0  0  0  0  0  0  0
    7.4808  -14.5336   25.9629 C   0  0  0  0  0  0  0  0  0  0  0  0
    6.6124  -13.4785   25.8555 C   0  0  0  0  0  0  0  0  0  0  0  0
    7.0408  -12.1665   26.0758 C   0  0  0  0  0  0  0  0  0  0  0  0
    8.3639  -11.9652   26.4040 C   0  0  0  0  0  0  0  0  0  0  0  0
    9.2243  -13.0376   26.5076 C   0  0  0  0  0  0  0  0  0  0  0  0
    8.8007  -14.3324   26.2907 C   0  0  0  0  0  0  0  0  0  0  0  0
   10.6516  -18.1236   27.1948 C   0  0  0  0  0  0  0  0  0  0  0  0
    9.7604  -18.9225   26.7495 O   0  0  0  0  0  0  0  0  0  0  0  0
   10.9725  -18.2024   28.5415 O   0  0  0  0  0  0  0  0  0  0  0  0
  2  1  1  1
  3  2  1  0
  4  5  2  0
  4  3  1  0
  6  5  1  0
  7  6  2  0
  8  7  1  0
  8  9  2  0
  9  4  1  0
 10  2  1  0
 11 10  2  0
 13 14  2  0
 13 12  1  0
 15 13  1  0
 16 17  1  0
 16 15  1  6
 17 10  1  0
 18 16  1  0
 19 18  2  0
 20 18  1  0
 21 20  1  0
 21 22  1  1
 23 22  1  0
 23 31  1  0
 24 25  1  0
 24 23  2  0
 25 26  1  0
 26 31  2  0
 26 27  1  0
 27 28  2  0
 28 29  1  0
 30 29  2  0
 31 30  1  0
 32 21  1  0
 32 34  1  0
 33 32  2  0
M  END
$$$$
