FNW.pdb
     RDKit          3D

 34 36  0  0  1  0  0  0  0  0999 V2000
    7.3924  -18.5837   19.1948 N   0  0  0  0  0  0  0  0  0  0  0  0
    7.9321  -17.4107   19.8815 C   0  0  1  0  0  0  0  0  0  0  0  0
    6.7752  -16.5138   20.3281 C   0  0  0  0  0  0  0  0  0  0  0  0
    7.2229  -15.1269   20.5410 C   0  0  0  0  0  0  0  0  0  0  0  0
    7.9952  -14.4784   19.6035 C   0  0  0  0  0  0  0  0  0  0  0  0
    8.4333  -13.1755   19.7641 C   0  0  0  0  0  0  0  0  0  0  0  0
    8.0779  -12.4990   20.9179 C   0  0  0  0  0  0  0  0  0  0  0  0
    7.3132  -13.1177   21.8639 C   0  0  0  0  0  0  0  0  0  0  0  0
    6.8802  -14.4310   21.6862 C   0  0  0  0  0  0  0  0  0  0  0  0
    8.7002  -17.8086   21.0876 C   0  0  0  0  0  0  0  0  0  0  0  0
    8.6095  -19.0204   21.4384 O   0  0  0  0  0  0  0  0  0  0  0  0
   13.4647  -16.6348   19.3432 N   0  0  0  0  0  0  0  0  0  0  0  0
   12.9541  -16.1196   20.5944 C   0  0  0  0  0  0  0  0  0  0  0  0
   13.7756  -15.6745   21.4129 O   0  0  0  0  0  0  0  0  0  0  0  0
   11.5222  -16.1635   20.7954 C   0  0  0  0  0  0  0  0  0  0  0  0
   10.9714  -17.1341   21.8074 C   0  0  2  0  0  0  0  0  0  0  0  0
    9.4972  -16.8990   21.8210 N   0  0  0  0  0  0  0  0  0  0  0  0
   11.3818  -16.8561   23.2057 C   0  0  0  0  0  0  0  0  0  0  0  0
   12.0089  -17.7895   23.8429 O   0  0  0  0  0  0  0  0  0  0  0  0
   11.1789  -15.6841   23.9425 N   0  0  0  0  0  0  0  0  0  0  0  0
   10.0467  -15.5476   24.8114 C   0  0  1  0  0  0  0  0  0  0  0  0
    8.7485  -15.4148   24.0463 C   0  0  0  0  0  0  0  0  0  0  0  0
    7.6818  -15.0437   25.0028 C   0  0  0  0  0  0  0  0  0  0  0  0
    6.6074  -15.8075   25.4618 C   0  0  0  0  0  0  0  0  0  0  0  0
    5.8763  -15.0646   26.3278 N   0  0  0  0  0  0  0  0  0  0  0  0
    6.4190  -13.8503   26.4589 C   0  0  0  0  0  0  0  0  0  0  0  0
    6.0556  -12.7587   27.2039 C   0  0  0  0  0  0  0  0  0  0  0  0
    6.8035  -11.5786   27.1665 C   0  0  0  0  0  0  0  0  0  0  0  0
    7.9180  -11.5452   26.3568 C   0  0  0  0  0  0  0  0  0  0  0  0
    8.2694  -12.6520   25.6136 C   0  0  0  0  0  0  0  0  0  0  0  0
    7.5312  -13.8167   25.6514 C   0  0  0  0  0  0  0  0  0  0  0  0
    9.9532  -16.7362   25.6840 C   0  0  0  0  0  0  0  0  0  0  0  0
   10.3278  -16.6060   26.8979 O   0  0  0  0  0  0  0  0  0  0  0  0
    9.4884  -17.9795   25.2831 O   0  0  0  0  0  0  0  0  0  0  0  0
  2  1  1  1
  3  2  1  0
  4  5  2  0
  4  3  1  0
  6  5  1  0
  7  6  2  0
  8  7  1  0
  8  9  2  0
  9  4  1  0
 10  2  1  0
 11 10  2  0
 13 14  2  0
 13 12  1  0
 15 13  1  0
 16 17  1  0
 16 15  1  6
 17 10  1  0
 18 16  1  0
 19 18  2  0
 20 18  1  0
 21 20  1  0
 21 22  1  6
 23 22  1  0
 23 31  1  0
 24 25  1  0
 24 23  2  0
 25 26  1  0
 26 31  2  0
 26 27  1  0
 27 28  2  0
 28 29  1  0
 30 29  2  0
 31 30  1  0
 32 21  1  0
 32 34  1  0
 33 32  2  0
M  END
$$$$
