FNW.pdb
     RDKit          3D

 34 36  0  0  1  0  0  0  0  0999 V2000
    5.9901  -18.2878   21.3236 N   0  0  0  0  0  0  0  0  0  0  0  0
    6.8684  -17.1186   21.3404 C   0  0  1  0  0  0  0  0  0  0  0  0
    6.1574  -15.9666   22.0543 C   0  0  0  0  0  0  0  0  0  0  0  0
    6.8591  -14.6892   21.8419 C   0  0  0  0  0  0  0  0  0  0  0  0
    7.4551  -14.0239   22.8898 C   0  0  0  0  0  0  0  0  0  0  0  0
    8.1262  -12.8240   22.7317 C   0  0  0  0  0  0  0  0  0  0  0  0
    8.1990  -12.2723   21.4646 C   0  0  0  0  0  0  0  0  0  0  0  0
    7.6171  -12.9104   20.4078 C   0  0  0  0  0  0  0  0  0  0  0  0
    6.9447  -14.1189   20.5847 C   0  0  0  0  0  0  0  0  0  0  0  0
    8.1259  -17.4101   22.0731 C   0  0  0  0  0  0  0  0  0  0  0  0
    8.0571  -18.2855   22.9835 O   0  0  0  0  0  0  0  0  0  0  0  0
   13.3905  -18.6119   22.0705 N   0  0  0  0  0  0  0  0  0  0  0  0
   13.0523  -17.2075   22.1405 C   0  0  0  0  0  0  0  0  0  0  0  0
   13.9157  -16.4274   22.5751 O   0  0  0  0  0  0  0  0  0  0  0  0
   11.7307  -16.8202   21.6979 C   0  0  0  0  0  0  0  0  0  0  0  0
   10.5487  -17.2135   22.5450 C   0  0  2  0  0  0  0  0  0  0  0  0
    9.3470  -16.7567   21.7862 N   0  0  0  0  0  0  0  0  0  0  0  0
   10.4486  -16.4804   23.8309 C   0  0  0  0  0  0  0  0  0  0  0  0
   10.8183  -15.2420   23.8451 O   0  0  0  0  0  0  0  0  0  0  0  0
    9.9895  -16.9643   25.0609 N   0  0  0  0  0  0  0  0  0  0  0  0
   10.4275  -16.3765   26.2930 C   0  0  1  0  0  0  0  0  0  0  0  0
    9.2831  -16.1339   27.2523 C   0  0  0  0  0  0  0  0  0  0  0  0
    8.1228  -15.6427   26.4759 C   0  0  0  0  0  0  0  0  0  0  0  0
    7.1407  -16.3734   25.8050 C   0  0  0  0  0  0  0  0  0  0  0  0
    6.2709  -15.5124   25.2232 N   0  0  0  0  0  0  0  0  0  0  0  0
    6.6350  -14.2523   25.4799 C   0  0  0  0  0  0  0  0  0  0  0  0
    6.0893  -13.0481   25.1184 C   0  0  0  0  0  0  0  0  0  0  0  0
    6.6714  -11.8428   25.5204 C   0  0  0  0  0  0  0  0  0  0  0  0
    7.8119  -11.9013   26.2914 C   0  0  0  0  0  0  0  0  0  0  0  0
    8.3482  -13.1211   26.6459 C   0  0  0  0  0  0  0  0  0  0  0  0
    7.7728  -14.3105   26.2494 C   0  0  0  0  0  0  0  0  0  0  0  0
   11.3998  -17.2767   26.9465 C   0  0  0  0  0  0  0  0  0  0  0  0
   11.6085  -18.4126   26.4016 O   0  0  0  0  0  0  0  0  0  0  0  0
   12.1018  -16.9790   28.1046 O   0  0  0  0  0  0  0  0  0  0  0  0
  2  1  1  1
  3  2  1  0
  4  5  2  0
  4  3  1  0
  6  5  1  0
  7  6  2  0
  8  7  1  0
  8  9  2  0
  9  4  1  0
 10  2  1  0
 11 10  2  0
 13 14  2  0
 13 12  1  0
 15 13  1  0
 16 17  1  0
 16 15  1  6
 17 10  1  0
 18 16  1  0
 19 18  2  0
 20 18  1  0
 21 20  1  0
 21 22  1  1
 23 22  1  0
 23 31  1  0
 24 25  1  0
 24 23  2  0
 25 26  1  0
 26 31  2  0
 26 27  1  0
 27 28  2  0
 28 29  1  0
 30 29  2  0
 31 30  1  0
 32 21  1  0
 32 34  1  0
 33 32  2  0
M  END
$$$$
