FNW.pdb
     RDKit          3D

 34 36  0  0  1  0  0  0  0  0999 V2000
    6.8564  -18.7190   19.6856 N   0  0  0  0  0  0  0  0  0  0  0  0
    7.4524  -17.4100   19.9502 C   0  0  1  0  0  0  0  0  0  0  0  0
    6.4650  -16.5623   20.7557 C   0  0  0  0  0  0  0  0  0  0  0  0
    6.9830  -15.2016   20.9778 C   0  0  0  0  0  0  0  0  0  0  0  0
    6.8738  -14.5924   22.2079 C   0  0  0  0  0  0  0  0  0  0  0  0
    7.3501  -13.3173   22.4583 C   0  0  0  0  0  0  0  0  0  0  0  0
    7.9614  -12.6283   21.4254 C   0  0  0  0  0  0  0  0  0  0  0  0
    8.0830  -13.2081   20.1960 C   0  0  0  0  0  0  0  0  0  0  0  0
    7.5977  -14.4938   19.9608 C   0  0  0  0  0  0  0  0  0  0  0  0
    8.6994  -17.5454   20.7439 C   0  0  0  0  0  0  0  0  0  0  0  0
    8.6749  -18.3814   21.6927 O   0  0  0  0  0  0  0  0  0  0  0  0
   12.4006  -17.0333   17.7518 N   0  0  0  0  0  0  0  0  0  0  0  0
   12.5491  -17.6293   19.0611 C   0  0  0  0  0  0  0  0  0  0  0  0
   12.9347  -18.8087   19.1176 O   0  0  0  0  0  0  0  0  0  0  0  0
   12.2356  -16.8026   20.2061 C   0  0  0  0  0  0  0  0  0  0  0  0
   11.1274  -17.2448   21.1257 C   0  0  2  0  0  0  0  0  0  0  0  0
    9.8644  -16.7908   20.4721 N   0  0  0  0  0  0  0  0  0  0  0  0
   11.1100  -16.5518   22.4374 C   0  0  0  0  0  0  0  0  0  0  0  0
   11.3311  -15.2784   22.4454 O   0  0  0  0  0  0  0  0  0  0  0  0
   10.8740  -17.1090   23.6990 N   0  0  0  0  0  0  0  0  0  0  0  0
   10.3059  -16.3241   24.7558 C   0  0  1  0  0  0  0  0  0  0  0  0
    8.9869  -15.6977   24.3605 C   0  0  0  0  0  0  0  0  0  0  0  0
    8.4138  -15.0317   25.5515 C   0  0  0  0  0  0  0  0  0  0  0  0
    8.1642  -15.5595   26.8193 C   0  0  0  0  0  0  0  0  0  0  0  0
    7.6280  -14.5919   27.6021 N   0  0  0  0  0  0  0  0  0  0  0  0
    7.5136  -13.4550   26.9089 C   0  0  0  0  0  0  0  0  0  0  0  0
    7.0365  -12.2163   27.2506 C   0  0  0  0  0  0  0  0  0  0  0  0
    7.0212  -11.1689   26.3254 C   0  0  0  0  0  0  0  0  0  0  0  0
    7.5000  -11.4192   25.0578 C   0  0  0  0  0  0  0  0  0  0  0  0
    7.9760  -12.6711   24.7303 C   0  0  0  0  0  0  0  0  0  0  0  0
    7.9915  -13.7044   25.6441 C   0  0  0  0  0  0  0  0  0  0  0  0
   10.0781  -17.1835   25.9357 C   0  0  0  0  0  0  0  0  0  0  0  0
   10.4096  -16.7163   27.0770 O   0  0  0  0  0  0  0  0  0  0  0  0
    9.5305  -18.4568   25.8952 O   0  0  0  0  0  0  0  0  0  0  0  0
  2  1  1  1
  3  2  1  0
  4  5  2  0
  4  3  1  0
  6  5  1  0
  7  6  2  0
  8  7  1  0
  8  9  2  0
  9  4  1  0
 10  2  1  0
 11 10  2  0
 13 14  2  0
 13 12  1  0
 15 13  1  0
 16 17  1  0
 16 15  1  6
 17 10  1  0
 18 16  1  0
 19 18  2  0
 20 18  1  0
 21 20  1  0
 21 22  1  6
 23 22  1  0
 23 31  1  0
 24 25  1  0
 24 23  2  0
 25 26  1  0
 26 31  2  0
 26 27  1  0
 27 28  2  0
 28 29  1  0
 30 29  2  0
 31 30  1  0
 32 21  1  0
 32 34  1  0
 33 32  2  0
M  END
$$$$
