FNW.pdb
     RDKit          3D

 34 36  0  0  1  0  0  0  0  0999 V2000
    6.7712  -17.9272   20.3549 N   0  0  0  0  0  0  0  0  0  0  0  0
    7.6122  -16.8197   20.8077 C   0  0  1  0  0  0  0  0  0  0  0  0
    6.7269  -15.7425   21.4389 C   0  0  0  0  0  0  0  0  0  0  0  0
    7.2130  -14.3906   21.1142 C   0  0  0  0  0  0  0  0  0  0  0  0
    7.4191  -13.4540   22.1023 C   0  0  0  0  0  0  0  0  0  0  0  0
    7.8776  -12.1750   21.8394 C   0  0  0  0  0  0  0  0  0  0  0  0
    8.1388  -11.8263   20.5258 C   0  0  0  0  0  0  0  0  0  0  0  0
    7.9431  -12.7349   19.5265 C   0  0  0  0  0  0  0  0  0  0  0  0
    7.4808  -14.0195   19.8089 C   0  0  0  0  0  0  0  0  0  0  0  0
    8.5850  -17.2763   21.8315 C   0  0  0  0  0  0  0  0  0  0  0  0
    8.1972  -18.1991   22.6047 O   0  0  0  0  0  0  0  0  0  0  0  0
   13.4670  -19.0043   23.3229 N   0  0  0  0  0  0  0  0  0  0  0  0
   13.3270  -17.5735   23.1656 C   0  0  0  0  0  0  0  0  0  0  0  0
   14.1844  -16.8483   23.6963 O   0  0  0  0  0  0  0  0  0  0  0  0
   12.1954  -17.0975   22.4003 C   0  0  0  0  0  0  0  0  0  0  0  0
   10.8099  -17.3946   22.9119 C   0  0  2  0  0  0  0  0  0  0  0  0
    9.8812  -16.7239   21.9547 N   0  0  0  0  0  0  0  0  0  0  0  0
   10.4901  -16.7573   24.2128 C   0  0  0  0  0  0  0  0  0  0  0  0
   10.3017  -15.4787   24.2235 O   0  0  0  0  0  0  0  0  0  0  0  0
   10.3567  -17.3752   25.4611 N   0  0  0  0  0  0  0  0  0  0  0  0
   10.2799  -16.5974   26.6630 C   0  0  1  0  0  0  0  0  0  0  0  0
    8.9405  -16.7365   27.3523 C   0  0  0  0  0  0  0  0  0  0  0  0
    7.9311  -16.0009   26.5583 C   0  0  0  0  0  0  0  0  0  0  0  0
    6.9281  -16.5039   25.7281 C   0  0  0  0  0  0  0  0  0  0  0  0
    6.2359  -15.4679   25.1952 N   0  0  0  0  0  0  0  0  0  0  0  0
    6.7365  -14.3096   25.6356 C   0  0  0  0  0  0  0  0  0  0  0  0
    6.3889  -13.0070   25.3885 C   0  0  0  0  0  0  0  0  0  0  0  0
    7.0841  -11.9499   25.9823 C   0  0  0  0  0  0  0  0  0  0  0  0
    8.1311  -12.2568   26.8240 C   0  0  0  0  0  0  0  0  0  0  0  0
    8.4680  -13.5725   27.0615 C   0  0  0  0  0  0  0  0  0  0  0  0
    7.7809  -14.6154   26.4757 C   0  0  0  0  0  0  0  0  0  0  0  0
   11.3336  -17.0388   27.5999 C   0  0  0  0  0  0  0  0  0  0  0  0
   11.3987  -16.4510   28.7316 O   0  0  0  0  0  0  0  0  0  0  0  0
   12.2541  -18.0432   27.3417 O   0  0  0  0  0  0  0  0  0  0  0  0
  2  1  1  1
  3  2  1  0
  4  5  2  0
  4  3  1  0
  6  5  1  0
  7  6  2  0
  8  7  1  0
  8  9  2  0
  9  4  1  0
 10  2  1  0
 11 10  2  0
 13 14  2  0
 13 12  1  0
 15 13  1  0
 16 17  1  0
 16 15  1  6
 17 10  1  0
 18 16  1  0
 19 18  2  0
 20 18  1  0
 21 20  1  0
 21 22  1  1
 23 22  1  0
 23 31  1  0
 24 25  1  0
 24 23  2  0
 25 26  1  0
 26 31  2  0
 26 27  1  0
 27 28  2  0
 28 29  1  0
 30 29  2  0
 31 30  1  0
 32 21  1  0
 32 34  1  0
 33 32  2  0
M  END
$$$$
