FNW.pdb
     RDKit          3D

 34 36  0  0  1  0  0  0  0  0999 V2000
    6.2545  -17.8826   20.3344 N   0  0  0  0  0  0  0  0  0  0  0  0
    7.1894  -16.7624   20.4340 C   0  0  1  0  0  0  0  0  0  0  0  0
    6.4393  -15.5253   20.9334 C   0  0  0  0  0  0  0  0  0  0  0  0
    7.2435  -14.3038   20.7589 C   0  0  0  0  0  0  0  0  0  0  0  0
    7.6089  -13.8674   19.5051 C   0  0  0  0  0  0  0  0  0  0  0  0
    8.3606  -12.7239   19.2985 C   0  0  0  0  0  0  0  0  0  0  0  0
    8.7604  -11.9906   20.4020 C   0  0  0  0  0  0  0  0  0  0  0  0
    8.4123  -12.4002   21.6564 C   0  0  0  0  0  0  0  0  0  0  0  0
    7.6544  -13.5548   21.8467 C   0  0  0  0  0  0  0  0  0  0  0  0
    8.2772  -17.0633   21.3979 C   0  0  0  0  0  0  0  0  0  0  0  0
    7.9602  -17.7590   22.4055 O   0  0  0  0  0  0  0  0  0  0  0  0
   13.4577  -18.9716   21.8075 N   0  0  0  0  0  0  0  0  0  0  0  0
   13.1656  -17.5586   21.9063 C   0  0  0  0  0  0  0  0  0  0  0  0
   13.9834  -16.8411   22.5057 O   0  0  0  0  0  0  0  0  0  0  0  0
   11.9396  -17.0901   21.2980 C   0  0  0  0  0  0  0  0  0  0  0  0
   10.6540  -17.2456   22.0678 C   0  0  2  0  0  0  0  0  0  0  0  0
    9.6042  -16.6072   21.2201 N   0  0  0  0  0  0  0  0  0  0  0  0
   10.6017  -16.4697   23.3312 C   0  0  0  0  0  0  0  0  0  0  0  0
   10.9439  -15.2242   23.2841 O   0  0  0  0  0  0  0  0  0  0  0  0
   10.2154  -16.9191   24.5986 N   0  0  0  0  0  0  0  0  0  0  0  0
   10.7614  -16.3304   25.7864 C   0  0  1  0  0  0  0  0  0  0  0  0
   10.1746  -14.9657   26.0728 C   0  0  0  0  0  0  0  0  0  0  0  0
    8.7160  -15.1196   26.2703 C   0  0  0  0  0  0  0  0  0  0  0  0
    7.9381  -16.2771   26.2125 C   0  0  0  0  0  0  0  0  0  0  0  0
    6.6447  -15.9517   26.4529 N   0  0  0  0  0  0  0  0  0  0  0  0
    6.5366  -14.6367   26.6655 C   0  0  0  0  0  0  0  0  0  0  0  0
    5.4579  -13.8379   26.9432 C   0  0  0  0  0  0  0  0  0  0  0  0
    5.6084  -12.4604   27.1253 C   0  0  0  0  0  0  0  0  0  0  0  0
    6.8749  -11.9286   27.0165 C   0  0  0  0  0  0  0  0  0  0  0  0
    7.9492  -12.7461   26.7362 C   0  0  0  0  0  0  0  0  0  0  0  0
    7.8002  -14.1058   26.5573 C   0  0  0  0  0  0  0  0  0  0  0  0
   10.4820  -17.2087   26.9411 C   0  0  0  0  0  0  0  0  0  0  0  0
    9.7878  -18.2590   26.7272 O   0  0  0  0  0  0  0  0  0  0  0  0
   10.9184  -16.9778   28.2368 O   0  0  0  0  0  0  0  0  0  0  0  0
  2  1  1  1
  3  2  1  0
  4  5  2  0
  4  3  1  0
  6  5  1  0
  7  6  2  0
  8  7  1  0
  8  9  2  0
  9  4  1  0
 10  2  1  0
 11 10  2  0
 13 14  2  0
 13 12  1  0
 15 13  1  0
 16 17  1  0
 16 15  1  6
 17 10  1  0
 18 16  1  0
 19 18  2  0
 20 18  1  0
 21 20  1  0
 21 22  1  1
 23 22  1  0
 23 31  1  0
 24 25  1  0
 24 23  2  0
 25 26  1  0
 26 31  2  0
 26 27  1  0
 27 28  2  0
 28 29  1  0
 30 29  2  0
 31 30  1  0
 32 21  1  0
 32 34  1  0
 33 32  2  0
M  END
$$$$
