FNW.pdb
     RDKit          3D

 34 36  0  0  1  0  0  0  0  0999 V2000
    5.4049  -16.5671   21.4304 N   0  0  0  0  0  0  0  0  0  0  0  0
    6.6512  -16.9688   20.7794 C   0  0  1  0  0  0  0  0  0  0  0  0
    7.1185  -15.8444   19.8522 C   0  0  0  0  0  0  0  0  0  0  0  0
    7.3287  -14.5897   20.5943 C   0  0  0  0  0  0  0  0  0  0  0  0
    8.5887  -14.2034   20.9933 C   0  0  0  0  0  0  0  0  0  0  0  0
    8.8287  -13.0314   21.6890 C   0  0  0  0  0  0  0  0  0  0  0  0
    7.7535  -12.2155   21.9950 C   0  0  0  0  0  0  0  0  0  0  0  0
    6.4937  -12.5741   21.6118 C   0  0  0  0  0  0  0  0  0  0  0  0
    6.2696  -13.7584   20.9112 C   0  0  0  0  0  0  0  0  0  0  0  0
    7.7182  -17.2144   21.7815 C   0  0  0  0  0  0  0  0  0  0  0  0
    7.3471  -17.6859   22.8950 O   0  0  0  0  0  0  0  0  0  0  0  0
   12.1243  -19.4867   23.1042 N   0  0  0  0  0  0  0  0  0  0  0  0
   12.3215  -18.7628   21.8678 C   0  0  0  0  0  0  0  0  0  0  0  0
   13.3428  -19.0161   21.2077 O   0  0  0  0  0  0  0  0  0  0  0  0
   11.3109  -17.7969   21.4957 C   0  0  0  0  0  0  0  0  0  0  0  0
   10.0809  -17.6804   22.3576 C   0  0  2  0  0  0  0  0  0  0  0  0
    9.0829  -16.9433   21.5274 N   0  0  0  0  0  0  0  0  0  0  0  0
   10.2510  -16.8138   23.5497 C   0  0  0  0  0  0  0  0  0  0  0  0
   10.9716  -15.7489   23.4185 O   0  0  0  0  0  0  0  0  0  0  0  0
    9.7154  -16.9996   24.8289 N   0  0  0  0  0  0  0  0  0  0  0  0
   10.4738  -16.6684   25.9997 C   0  0  1  0  0  0  0  0  0  0  0  0
    9.9970  -15.3881   26.6494 C   0  0  0  0  0  0  0  0  0  0  0  0
    8.6087  -15.1313   26.2055 C   0  0  0  0  0  0  0  0  0  0  0  0
    7.6158  -16.0456   25.8498 C   0  0  0  0  0  0  0  0  0  0  0  0
    6.4953  -15.3670   25.5030 N   0  0  0  0  0  0  0  0  0  0  0  0
    6.7051  -14.0518   25.6139 C   0  0  0  0  0  0  0  0  0  0  0  0
    5.8954  -12.9708   25.3805 C   0  0  0  0  0  0  0  0  0  0  0  0
    6.3599  -11.6668   25.5732 C   0  0  0  0  0  0  0  0  0  0  0  0
    7.6579  -11.5002   26.0048 C   0  0  0  0  0  0  0  0  0  0  0  0
    8.4593  -12.5984   26.2345 C   0  0  0  0  0  0  0  0  0  0  0  0
    8.0000  -13.8853   26.0448 C   0  0  0  0  0  0  0  0  0  0  0  0
   10.3556  -17.7626   26.9853 C   0  0  0  0  0  0  0  0  0  0  0  0
    9.5184  -18.6935   26.7336 O   0  0  0  0  0  0  0  0  0  0  0  0
   11.0862  -17.8537   28.1602 O   0  0  0  0  0  0  0  0  0  0  0  0
  2  1  1  1
  3  2  1  0
  4  5  2  0
  4  3  1  0
  6  5  1  0
  7  6  2  0
  8  7  1  0
  8  9  2  0
  9  4  1  0
 10  2  1  0
 11 10  2  0
 13 14  2  0
 13 12  1  0
 15 13  1  0
 16 17  1  0
 16 15  1  6
 17 10  1  0
 18 16  1  0
 19 18  2  0
 20 18  1  0
 21 20  1  0
 21 22  1  1
 23 22  1  0
 23 31  1  0
 24 25  1  0
 24 23  2  0
 25 26  1  0
 26 31  2  0
 26 27  1  0
 27 28  2  0
 28 29  1  0
 30 29  2  0
 31 30  1  0
 32 21  1  0
 32 34  1  0
 33 32  2  0
M  END
$$$$
