FNW.pdb
     RDKit          3D

 34 36  0  0  1  0  0  0  0  0999 V2000
    7.0250  -17.8931   20.7050 N   0  0  0  0  0  0  0  0  0  0  0  0
    8.0083  -16.9056   21.1485 C   0  0  1  0  0  0  0  0  0  0  0  0
    7.2784  -15.7242   21.7920 C   0  0  0  0  0  0  0  0  0  0  0  0
    7.4452  -14.4943   20.9991 C   0  0  0  0  0  0  0  0  0  0  0  0
    6.3928  -13.6286   20.8019 C   0  0  0  0  0  0  0  0  0  0  0  0
    6.5090  -12.4619   20.0667 C   0  0  0  0  0  0  0  0  0  0  0  0
    7.7372  -12.1559   19.5071 C   0  0  0  0  0  0  0  0  0  0  0  0
    8.7975  -12.9963   19.6865 C   0  0  0  0  0  0  0  0  0  0  0  0
    8.6631  -14.1678   20.4304 C   0  0  0  0  0  0  0  0  0  0  0  0
    8.9259  -17.4876   22.1596 C   0  0  0  0  0  0  0  0  0  0  0  0
    8.5053  -18.5051   22.7821 O   0  0  0  0  0  0  0  0  0  0  0  0
   14.6844  -17.3257   24.0088 N   0  0  0  0  0  0  0  0  0  0  0  0
   13.5133  -18.1323   23.7452 C   0  0  0  0  0  0  0  0  0  0  0  0
   13.4887  -19.2831   24.2120 O   0  0  0  0  0  0  0  0  0  0  0  0
   12.4592  -17.5340   22.9556 C   0  0  0  0  0  0  0  0  0  0  0  0
   11.0387  -17.6701   23.4381 C   0  0  2  0  0  0  0  0  0  0  0  0
   10.2062  -16.9504   22.4293 N   0  0  0  0  0  0  0  0  0  0  0  0
   10.7525  -16.9507   24.7036 C   0  0  0  0  0  0  0  0  0  0  0  0
   11.2269  -15.7556   24.8340 O   0  0  0  0  0  0  0  0  0  0  0  0
   10.0128  -17.4057   25.8007 N   0  0  0  0  0  0  0  0  0  0  0  0
   10.1303  -16.7721   27.0814 C   0  0  1  0  0  0  0  0  0  0  0  0
    8.7889  -16.5878   27.7561 C   0  0  0  0  0  0  0  0  0  0  0  0
    7.8973  -15.8602   26.8255 C   0  0  0  0  0  0  0  0  0  0  0  0
    6.8959  -16.3630   25.9932 C   0  0  0  0  0  0  0  0  0  0  0  0
    6.3344  -15.3366   25.3092 N   0  0  0  0  0  0  0  0  0  0  0  0
    6.9192  -14.1850   25.6524 C   0  0  0  0  0  0  0  0  0  0  0  0
    6.7107  -12.8931   25.2448 C   0  0  0  0  0  0  0  0  0  0  0  0
    7.4713  -11.8415   25.7634 C   0  0  0  0  0  0  0  0  0  0  0  0
    8.4386  -12.1427   26.6974 C   0  0  0  0  0  0  0  0  0  0  0  0
    8.6357  -13.4477   27.0963 C   0  0  0  0  0  0  0  0  0  0  0  0
    7.8842  -14.4852   26.5845 C   0  0  0  0  0  0  0  0  0  0  0  0
   10.9836  -17.5985   27.9599 C   0  0  0  0  0  0  0  0  0  0  0  0
   11.2062  -17.1658   29.1405 O   0  0  0  0  0  0  0  0  0  0  0  0
   11.5580  -18.8076   27.5980 O   0  0  0  0  0  0  0  0  0  0  0  0
  2  1  1  1
  3  2  1  0
  4  5  2  0
  4  3  1  0
  6  5  1  0
  7  6  2  0
  8  7  1  0
  8  9  2  0
  9  4  1  0
 10  2  1  0
 11 10  2  0
 13 14  2  0
 13 12  1  0
 15 13  1  0
 16 17  1  0
 16 15  1  6
 17 10  1  0
 18 16  1  0
 19 18  2  0
 20 18  1  0
 21 20  1  0
 21 22  1  1
 23 22  1  0
 23 31  1  0
 24 25  1  0
 24 23  2  0
 25 26  1  0
 26 31  2  0
 26 27  1  0
 27 28  2  0
 28 29  1  0
 30 29  2  0
 31 30  1  0
 32 21  1  0
 32 34  1  0
 33 32  2  0
M  END
$$$$
