FNW.pdb
     RDKit          3D

 34 36  0  0  1  0  0  0  0  0999 V2000
    7.7467  -17.1083   20.3904 N   0  0  0  0  0  0  0  0  0  0  0  0
    8.5666  -16.3781   21.3565 C   0  0  1  0  0  0  0  0  0  0  0  0
    7.7909  -15.1546   21.8501 C   0  0  0  0  0  0  0  0  0  0  0  0
    7.5364  -14.2032   20.7549 C   0  0  0  0  0  0  0  0  0  0  0  0
    6.6421  -14.4993   19.7507 C   0  0  0  0  0  0  0  0  0  0  0  0
    6.3726  -13.6320   18.7065 C   0  0  0  0  0  0  0  0  0  0  0  0
    7.0325  -12.4159   18.6738 C   0  0  0  0  0  0  0  0  0  0  0  0
    7.9243  -12.0966   19.6563 C   0  0  0  0  0  0  0  0  0  0  0  0
    8.1840  -12.9821   20.7014 C   0  0  0  0  0  0  0  0  0  0  0  0
    8.8852  -17.2276   22.5312 C   0  0  0  0  0  0  0  0  0  0  0  0
    8.2794  -18.3353   22.6060 O   0  0  0  0  0  0  0  0  0  0  0  0
   14.0351  -16.9092   21.3708 N   0  0  0  0  0  0  0  0  0  0  0  0
   13.0178  -17.8218   21.8439 C   0  0  0  0  0  0  0  0  0  0  0  0
   13.3234  -19.0210   21.9508 O   0  0  0  0  0  0  0  0  0  0  0  0
   11.7197  -17.2649   22.1561 C   0  0  0  0  0  0  0  0  0  0  0  0
   11.1355  -17.5320   23.5187 C   0  0  2  0  0  0  0  0  0  0  0  0
    9.8129  -16.8398   23.5260 N   0  0  0  0  0  0  0  0  0  0  0  0
   11.8717  -16.8894   24.6349 C   0  0  0  0  0  0  0  0  0  0  0  0
   13.0262  -17.3771   24.9507 O   0  0  0  0  0  0  0  0  0  0  0  0
   11.4727  -15.7929   25.4071 N   0  0  0  0  0  0  0  0  0  0  0  0
   10.1892  -15.7703   26.0455 C   0  0  1  0  0  0  0  0  0  0  0  0
    9.0606  -16.0430   25.0757 C   0  0  0  0  0  0  0  0  0  0  0  0
    7.8525  -15.3380   25.5593 C   0  0  0  0  0  0  0  0  0  0  0  0
    6.5205  -15.7544   25.5301 C   0  0  0  0  0  0  0  0  0  0  0  0
    5.7442  -14.7879   26.0775 N   0  0  0  0  0  0  0  0  0  0  0  0
    6.5025  -13.7575   26.4641 C   0  0  0  0  0  0  0  0  0  0  0  0
    6.1920  -12.5622   27.0586 C   0  0  0  0  0  0  0  0  0  0  0  0
    7.1868  -11.6307   27.3681 C   0  0  0  0  0  0  0  0  0  0  0  0
    8.4906  -11.9499   27.0568 C   0  0  0  0  0  0  0  0  0  0  0  0
    8.7858  -13.1566   26.4585 C   0  0  0  0  0  0  0  0  0  0  0  0
    7.8035  -14.0759   26.1538 C   0  0  0  0  0  0  0  0  0  0  0  0
   10.1513  -16.7992   27.1051 C   0  0  0  0  0  0  0  0  0  0  0  0
   10.0202  -16.3982   28.3104 O   0  0  0  0  0  0  0  0  0  0  0  0
   10.2459  -18.1653   26.8873 O   0  0  0  0  0  0  0  0  0  0  0  0
  2  1  1  6
  3  2  1  0
  4  5  2  0
  4  3  1  0
  6  5  1  0
  7  6  2  0
  8  7  1  0
  8  9  2  0
  9  4  1  0
 10  2  1  0
 11 10  2  0
 13 14  2  0
 13 12  1  0
 15 13  1  0
 16 17  1  0
 16 15  1  6
 17 10  1  0
 18 16  1  0
 19 18  2  0
 20 18  1  0
 21 20  1  0
 21 22  1  6
 23 22  1  0
 23 31  1  0
 24 25  1  0
 24 23  2  0
 25 26  1  0
 26 31  2  0
 26 27  1  0
 27 28  2  0
 28 29  1  0
 30 29  2  0
 31 30  1  0
 32 21  1  0
 32 34  1  0
 33 32  2  0
M  END
$$$$
