FNW.pdb
     RDKit          3D

 34 36  0  0  1  0  0  0  0  0999 V2000
    6.5079  -15.7883   22.6930 N   0  0  0  0  0  0  0  0  0  0  0  0
    6.8754  -16.6417   21.5637 C   0  0  1  0  0  0  0  0  0  0  0  0
    6.4639  -15.9541   20.2598 C   0  0  0  0  0  0  0  0  0  0  0  0
    7.0468  -14.6054   20.1575 C   0  0  0  0  0  0  0  0  0  0  0  0
    7.7538  -14.2204   19.0404 C   0  0  0  0  0  0  0  0  0  0  0  0
    8.3140  -12.9623   18.9040 C   0  0  0  0  0  0  0  0  0  0  0  0
    8.1548  -12.0552   19.9371 C   0  0  0  0  0  0  0  0  0  0  0  0
    7.4587  -12.4103   21.0560 C   0  0  0  0  0  0  0  0  0  0  0  0
    6.9006  -13.6822   21.1771 C   0  0  0  0  0  0  0  0  0  0  0  0
    8.3420  -16.8669   21.5241 C   0  0  0  0  0  0  0  0  0  0  0  0
    8.7409  -17.8620   20.8530 O   0  0  0  0  0  0  0  0  0  0  0  0
   11.5716  -15.0290   19.7957 N   0  0  0  0  0  0  0  0  0  0  0  0
   11.7735  -16.1960   20.6258 C   0  0  0  0  0  0  0  0  0  0  0  0
   12.0429  -17.2677   20.0586 O   0  0  0  0  0  0  0  0  0  0  0  0
   11.6450  -16.0232   22.0563 C   0  0  0  0  0  0  0  0  0  0  0  0
   10.4826  -16.6793   22.7546 C   0  0  2  0  0  0  0  0  0  0  0  0
    9.2628  -16.0271   22.1930 N   0  0  0  0  0  0  0  0  0  0  0  0
   10.3981  -16.3855   24.2064 C   0  0  0  0  0  0  0  0  0  0  0  0
   10.7044  -15.1914   24.5949 O   0  0  0  0  0  0  0  0  0  0  0  0
   10.0152  -17.2518   25.2362 N   0  0  0  0  0  0  0  0  0  0  0  0
   10.1568  -16.8694   26.6107 C   0  0  1  0  0  0  0  0  0  0  0  0
    8.8355  -16.8750   27.3473 C   0  0  0  0  0  0  0  0  0  0  0  0
    7.8913  -16.0030   26.6136 C   0  0  0  0  0  0  0  0  0  0  0  0
    6.8332  -16.3606   25.7764 C   0  0  0  0  0  0  0  0  0  0  0  0
    6.2371  -15.2350   25.3137 N   0  0  0  0  0  0  0  0  0  0  0  0
    6.8532  -14.1563   25.8067 C   0  0  0  0  0  0  0  0  0  0  0  0
    6.6297  -12.8146   25.6372 C   0  0  0  0  0  0  0  0  0  0  0  0
    7.4318  -11.8638   26.2742 C   0  0  0  0  0  0  0  0  0  0  0  0
    8.4555  -12.3159   27.0782 C   0  0  0  0  0  0  0  0  0  0  0  0
    8.6669  -13.6690   27.2375 C   0  0  0  0  0  0  0  0  0  0  0  0
    7.8745  -14.6071   26.6091 C   0  0  0  0  0  0  0  0  0  0  0  0
   11.0718  -17.8105   27.2888 C   0  0  0  0  0  0  0  0  0  0  0  0
   11.3921  -17.5519   28.4977 O   0  0  0  0  0  0  0  0  0  0  0  0
   11.6060  -18.9522   26.7110 O   0  0  0  0  0  0  0  0  0  0  0  0
  2  1  1  1
  3  2  1  0
  4  5  2  0
  4  3  1  0
  6  5  1  0
  7  6  2  0
  8  7  1  0
  8  9  2  0
  9  4  1  0
 10  2  1  0
 11 10  2  0
 13 14  2  0
 13 12  1  0
 15 13  1  0
 16 17  1  0
 16 15  1  6
 17 10  1  0
 18 16  1  0
 19 18  2  0
 20 18  1  0
 21 20  1  0
 21 22  1  1
 23 22  1  0
 23 31  1  0
 24 25  1  0
 24 23  2  0
 25 26  1  0
 26 31  2  0
 26 27  1  0
 27 28  2  0
 28 29  1  0
 30 29  2  0
 31 30  1  0
 32 21  1  0
 32 34  1  0
 33 32  2  0
M  END
$$$$
