FNW.pdb
     RDKit          3D

 34 36  0  0  1  0  0  0  0  0999 V2000
    6.8974  -18.7253   21.1990 N   0  0  0  0  0  0  0  0  0  0  0  0
    7.5394  -17.4218   21.3648 C   0  0  1  0  0  0  0  0  0  0  0  0
    6.5823  -16.4806   22.1000 C   0  0  0  0  0  0  0  0  0  0  0  0
    6.9241  -15.0691   21.8546 C   0  0  0  0  0  0  0  0  0  0  0  0
    7.1864  -14.2104   22.8986 C   0  0  0  0  0  0  0  0  0  0  0  0
    7.5141  -12.8791   22.7104 C   0  0  0  0  0  0  0  0  0  0  0  0
    7.5796  -12.3938   21.4159 C   0  0  0  0  0  0  0  0  0  0  0  0
    7.3241  -13.2230   20.3624 C   0  0  0  0  0  0  0  0  0  0  0  0
    6.9955  -14.5619   20.5698 C   0  0  0  0  0  0  0  0  0  0  0  0
    8.7803  -17.5401   22.1705 C   0  0  0  0  0  0  0  0  0  0  0  0
    8.8565  -18.5381   22.9438 O   0  0  0  0  0  0  0  0  0  0  0  0
   14.3639  -15.6043   22.7219 N   0  0  0  0  0  0  0  0  0  0  0  0
   13.5826  -16.6687   22.1318 C   0  0  0  0  0  0  0  0  0  0  0  0
   14.1510  -17.7529   21.9215 O   0  0  0  0  0  0  0  0  0  0  0  0
   12.1960  -16.3862   21.8314 C   0  0  0  0  0  0  0  0  0  0  0  0
   11.1350  -16.9960   22.7098 C   0  0  2  0  0  0  0  0  0  0  0  0
    9.8341  -16.5997   22.0941 N   0  0  0  0  0  0  0  0  0  0  0  0
   11.0658  -16.4174   24.0742 C   0  0  0  0  0  0  0  0  0  0  0  0
   12.1196  -15.8214   24.5266 O   0  0  0  0  0  0  0  0  0  0  0  0
    9.9797  -16.4276   24.9563 N   0  0  0  0  0  0  0  0  0  0  0  0
   10.1812  -16.3387   26.3730 C   0  0  1  0  0  0  0  0  0  0  0  0
    8.8783  -16.3680   27.1412 C   0  0  0  0  0  0  0  0  0  0  0  0
    7.8911  -15.5402   26.4127 C   0  0  0  0  0  0  0  0  0  0  0  0
    6.8594  -15.9450   25.5642 C   0  0  0  0  0  0  0  0  0  0  0  0
    6.2042  -14.8483   25.1122 N   0  0  0  0  0  0  0  0  0  0  0  0
    6.7564  -13.7436   25.6230 C   0  0  0  0  0  0  0  0  0  0  0  0
    6.4595  -12.4143   25.4695 C   0  0  0  0  0  0  0  0  0  0  0  0
    7.2037  -11.4288   26.1239 C   0  0  0  0  0  0  0  0  0  0  0  0
    8.2464  -11.8339   26.9285 C   0  0  0  0  0  0  0  0  0  0  0  0
    8.5319  -13.1751   27.0717 C   0  0  0  0  0  0  0  0  0  0  0  0
    7.7966  -14.1475   26.4261 C   0  0  0  0  0  0  0  0  0  0  0  0
   11.0117  -17.4753   26.8216 C   0  0  0  0  0  0  0  0  0  0  0  0
   11.2911  -17.5451   28.0657 O   0  0  0  0  0  0  0  0  0  0  0  0
   11.5077  -18.4704   25.9931 O   0  0  0  0  0  0  0  0  0  0  0  0
  2  1  1  1
  3  2  1  0
  4  5  2  0
  4  3  1  0
  6  5  1  0
  7  6  2  0
  8  7  1  0
  8  9  2  0
  9  4  1  0
 10  2  1  0
 11 10  2  0
 13 14  2  0
 13 12  1  0
 15 13  1  0
 16 17  1  0
 16 15  1  6
 17 10  1  0
 18 16  1  0
 19 18  2  0
 20 18  1  0
 21 20  1  0
 21 22  1  1
 23 22  1  0
 23 31  1  0
 24 25  1  0
 24 23  2  0
 25 26  1  0
 26 31  2  0
 26 27  1  0
 27 28  2  0
 28 29  1  0
 30 29  2  0
 31 30  1  0
 32 21  1  0
 32 34  1  0
 33 32  2  0
M  END
$$$$
