YIH.pdb
     RDKit          3D

 31 32  0  0  1  0  0  0  0  0999 V2000
    7.1209  -20.0257   16.7780 O   0  0  0  0  0  0  0  0  0  0  0  0
    7.5622  -19.3811   17.9315 C   0  0  0  0  0  0  0  0  0  0  0  0
    8.9067  -19.2330   18.2033 C   0  0  0  0  0  0  0  0  0  0  0  0
    9.3401  -18.5934   19.3477 C   0  0  0  0  0  0  0  0  0  0  0  0
    8.4533  -18.0747   20.2689 C   0  0  0  0  0  0  0  0  0  0  0  0
    8.9457  -17.3941   21.4869 C   0  0  0  0  0  0  0  0  0  0  0  0
    8.8942  -15.9069   21.3949 C   0  0  2  0  0  0  0  0  0  0  0  0
    9.7371  -15.3697   20.3485 N   0  0  0  0  0  0  0  0  0  0  0  0
    9.3418  -15.3775   22.7405 C   0  0  0  0  0  0  0  0  0  0  0  0
   10.5826  -15.2819   22.8632 O   0  0  0  0  0  0  0  0  0  0  0  0
    7.1097  -18.2261   19.9912 C   0  0  0  0  0  0  0  0  0  0  0  0
    6.6699  -18.8648   18.8483 C   0  0  0  0  0  0  0  0  0  0  0  0
    6.9787  -11.7982   27.0294 C   0  0  0  0  0  0  0  0  0  0  0  0
    8.0925  -12.8478   26.8284 C   0  0  0  0  0  0  0  0  0  0  0  0
    7.8239  -13.5154   25.5106 C   0  0  2  0  0  0  0  0  0  0  0  0
    6.3659  -13.8957   25.4016 C   0  0  0  0  0  0  0  0  0  0  0  0
    8.7702  -14.5529   25.0678 C   0  0  2  0  0  0  0  0  0  0  0  0
    8.4283  -15.0339   23.7390 N   0  0  0  0  0  0  0  0  0  0  0  0
    9.1227  -15.6606   25.9330 C   0  0  0  0  0  0  0  0  0  0  0  0
    8.2810  -16.5588   26.1883 O   0  0  0  0  0  0  0  0  0  0  0  0
   10.3973  -15.8577   26.5590 N   0  0  0  0  0  0  0  0  0  0  0  0
   10.5686  -16.9833   27.4637 C   0  0  1  0  0  0  0  0  0  0  0  0
   11.8537  -17.7309   27.1743 C   0  0  0  0  0  0  0  0  0  0  0  0
   11.7225  -18.5223   25.9188 C   0  0  0  0  0  0  0  0  0  0  0  0
   10.5483  -18.5971   25.1982 C   0  0  0  0  0  0  0  0  0  0  0  0
   10.8231  -19.3920   24.1478 N   0  0  0  0  0  0  0  0  0  0  0  0
   12.1039  -19.8075   24.1877 C   0  0  0  0  0  0  0  0  0  0  0  0
   12.6482  -19.2638   25.2855 N   0  0  0  0  0  0  0  0  0  0  0  0
   10.5372  -16.4593   28.8400 C   0  0  0  0  0  0  0  0  0  0  0  0
   10.5749  -17.3888   29.8839 O   0  0  0  0  0  0  0  0  0  0  0  0
   10.4791  -15.2364   29.0973 O   0  0  0  0  0  0  0  0  0  0  0  0
  2 12  2  0
  2  1  1  0
  3  2  1  0
  4  5  1  0
  4  3  2  0
  5 11  2  0
  6  5  1  0
  7  6  1  0
  7  8  1  6
  9  7  1  0
  9 10  2  0
 11 12  1  0
 13 14  1  0
 14 15  1  0
 15 17  1  0
 15 16  1  1
 17 18  1  6
 18  9  1  0
 19 17  1  0
 19 21  1  0
 20 19  2  0
 22 21  1  0
 22 29  1  0
 22 23  1  6
 24 23  1  0
 24 25  2  0
 26 25  1  0
 27 26  1  0
 28 27  2  0
 28 24  1  0
 29 31  2  0
 29 30  1  0
M  END
$$$$
