YIH.pdb
     RDKit          3D

 31 32  0  0  1  0  0  0  0  0999 V2000
    7.5900  -14.3255   15.3339 O   0  0  0  0  0  0  0  0  0  0  0  0
    7.7196  -14.1106   16.7042 C   0  0  0  0  0  0  0  0  0  0  0  0
    8.3824  -15.0098   17.5139 C   0  0  0  0  0  0  0  0  0  0  0  0
    8.5088  -14.7933   18.8717 C   0  0  0  0  0  0  0  0  0  0  0  0
    7.9808  -13.6728   19.4798 C   0  0  0  0  0  0  0  0  0  0  0  0
    8.1311  -13.4662   20.9372 C   0  0  0  0  0  0  0  0  0  0  0  0
    7.9319  -14.7102   21.7344 C   0  0  2  0  0  0  0  0  0  0  0  0
    6.6309  -15.3124   21.5383 N   0  0  0  0  0  0  0  0  0  0  0  0
    8.1069  -14.3222   23.1870 C   0  0  0  0  0  0  0  0  0  0  0  0
    7.9578  -13.1007   23.4094 O   0  0  0  0  0  0  0  0  0  0  0  0
    7.3190  -12.7771   18.6644 C   0  0  0  0  0  0  0  0  0  0  0  0
    7.1892  -12.9880   17.3056 C   0  0  0  0  0  0  0  0  0  0  0  0
    6.1201  -12.1558   26.2145 C   0  0  0  0  0  0  0  0  0  0  0  0
    7.3264  -12.7933   25.4927 C   0  0  0  0  0  0  0  0  0  0  0  0
    7.5418  -14.1407   26.1192 C   0  0  2  0  0  0  0  0  0  0  0  0
    7.5123  -14.0306   27.6257 C   0  0  0  0  0  0  0  0  0  0  0  0
    8.6270  -14.9767   25.5796 C   0  0  2  0  0  0  0  0  0  0  0  0
    8.4082  -15.2654   24.1715 N   0  0  0  0  0  0  0  0  0  0  0  0
    9.0715  -16.1659   26.2781 C   0  0  0  0  0  0  0  0  0  0  0  0
    8.2983  -17.1477   26.4145 O   0  0  0  0  0  0  0  0  0  0  0  0
   10.3690  -16.3577   26.8570 N   0  0  0  0  0  0  0  0  0  0  0  0
   10.6671  -17.6233   27.5084 C   0  0  1  0  0  0  0  0  0  0  0  0
   11.8826  -18.2854   26.8936 C   0  0  0  0  0  0  0  0  0  0  0  0
   11.6909  -18.4629   25.4267 C   0  0  0  0  0  0  0  0  0  0  0  0
   12.1251  -17.5413   24.4964 C   0  0  0  0  0  0  0  0  0  0  0  0
   11.7743  -18.0478   23.3001 N   0  0  0  0  0  0  0  0  0  0  0  0
   11.1481  -19.2312   23.4496 C   0  0  0  0  0  0  0  0  0  0  0  0
   11.1030  -19.4762   24.7668 N   0  0  0  0  0  0  0  0  0  0  0  0
   10.8571  -17.3532   28.9439 C   0  0  0  0  0  0  0  0  0  0  0  0
   10.7829  -16.0215   29.3640 O   0  0  0  0  0  0  0  0  0  0  0  0
   11.0777  -18.2579   29.7793 O   0  0  0  0  0  0  0  0  0  0  0  0
  2 12  2  0
  2  1  1  0
  3  2  1  0
  4  5  1  0
  4  3  2  0
  5 11  2  0
  6  5  1  0
  7  6  1  0
  7  8  1  1
  9  7  1  0
  9 10  2  0
 11 12  1  0
 13 14  1  0
 14 15  1  0
 15 17  1  0
 15 16  1  1
 17 18  1  6
 18  9  1  0
 19 17  1  0
 19 21  1  0
 20 19  2  0
 22 21  1  0
 22 29  1  0
 22 23  1  6
 24 23  1  0
 24 25  2  0
 26 25  1  0
 27 26  1  0
 28 27  2  0
 28 24  1  0
 29 31  2  0
 29 30  1  0
M  END
$$$$
