YIH.pdb
     RDKit          3D

 31 32  0  0  1  0  0  0  0  0999 V2000
   15.2157  -19.0763   13.2634 O   0  0  0  0  0  0  0  0  0  0  0  0
   14.7409  -18.5286   14.4530 C   0  0  0  0  0  0  0  0  0  0  0  0
   14.5668  -19.3020   15.5822 C   0  0  0  0  0  0  0  0  0  0  0  0
   14.0960  -18.7554   16.7595 C   0  0  0  0  0  0  0  0  0  0  0  0
   13.7789  -17.4163   16.8617 C   0  0  0  0  0  0  0  0  0  0  0  0
   13.2762  -16.8571   18.1360 C   0  0  0  0  0  0  0  0  0  0  0  0
   12.9102  -15.4146   18.0451 C   0  0  2  0  0  0  0  0  0  0  0  0
   14.0504  -14.5477   17.8398 N   0  0  0  0  0  0  0  0  0  0  0  0
   12.2226  -15.0631   19.3469 C   0  0  0  0  0  0  0  0  0  0  0  0
   12.9940  -14.6253   20.2284 O   0  0  0  0  0  0  0  0  0  0  0  0
   13.9553  -16.6480   15.7287 C   0  0  0  0  0  0  0  0  0  0  0  0
   14.4258  -17.1889   14.5481 C   0  0  0  0  0  0  0  0  0  0  0  0
    7.4662  -12.6748   18.8109 C   0  0  0  0  0  0  0  0  0  0  0  0
    8.9133  -13.0201   19.2222 C   0  0  0  0  0  0  0  0  0  0  0  0
    8.8224  -14.1258   20.2339 C   0  0  2  0  0  0  0  0  0  0  0  0
    7.8879  -13.7366   21.3553 C   0  0  0  0  0  0  0  0  0  0  0  0
   10.0799  -14.7583   20.6657 C   0  0  2  0  0  0  0  0  0  0  0  0
   10.8465  -15.2234   19.5212 N   0  0  0  0  0  0  0  0  0  0  0  0
   10.0927  -15.7506   21.7217 C   0  0  0  0  0  0  0  0  0  0  0  0
    9.7513  -16.9365   21.4819 O   0  0  0  0  0  0  0  0  0  0  0  0
   10.4783  -15.5162   23.0825 N   0  0  0  0  0  0  0  0  0  0  0  0
   10.4451  -16.6251   24.0227 C   0  0  1  0  0  0  0  0  0  0  0  0
   11.2578  -16.3188   25.2634 C   0  0  0  0  0  0  0  0  0  0  0  0
   11.1845  -17.4541   26.2255 C   0  0  0  0  0  0  0  0  0  0  0  0
   10.4363  -18.5892   25.9910 C   0  0  0  0  0  0  0  0  0  0  0  0
   10.6220  -19.3699   27.0712 N   0  0  0  0  0  0  0  0  0  0  0  0
   11.4448  -18.7719   27.9546 C   0  0  0  0  0  0  0  0  0  0  0  0
   11.7850  -17.5901   27.4209 N   0  0  0  0  0  0  0  0  0  0  0  0
    9.0335  -16.8958   24.3448 C   0  0  0  0  0  0  0  0  0  0  0  0
    8.6911  -18.2077   24.6869 O   0  0  0  0  0  0  0  0  0  0  0  0
    8.1520  -16.0084   24.3222 O   0  0  0  0  0  0  0  0  0  0  0  0
  2 12  2  0
  2  1  1  0
  3  2  1  0
  4  5  1  0
  4  3  2  0
  5 11  2  0
  6  5  1  0
  7  6  1  0
  7  8  1  1
  9  7  1  0
  9 10  2  0
 11 12  1  0
 13 14  1  0
 14 15  1  0
 15 17  1  0
 15 16  1  1
 17 18  1  6
 18  9  1  0
 19 17  1  0
 19 21  1  0
 20 19  2  0
 22 21  1  0
 22 29  1  0
 22 23  1  1
 24 23  1  0
 24 25  2  0
 26 25  1  0
 27 26  1  0
 28 27  2  0
 28 24  1  0
 29 31  2  0
 29 30  1  0
M  END
$$$$
