YIH.pdb
     RDKit          3D

 31 32  0  0  1  0  0  0  0  0999 V2000
    7.3756  -14.2683   15.4694 O   0  0  0  0  0  0  0  0  0  0  0  0
    7.6493  -14.1707   16.8318 C   0  0  0  0  0  0  0  0  0  0  0  0
    8.2662  -15.1971   17.5170 C   0  0  0  0  0  0  0  0  0  0  0  0
    8.5359  -15.0966   18.8674 C   0  0  0  0  0  0  0  0  0  0  0  0
    8.2027  -13.9704   19.5918 C   0  0  0  0  0  0  0  0  0  0  0  0
    8.5036  -13.8897   21.0383 C   0  0  0  0  0  0  0  0  0  0  0  0
    8.4932  -15.2160   21.7192 C   0  0  2  0  0  0  0  0  0  0  0  0
    7.1873  -15.8389   21.7371 N   0  0  0  0  0  0  0  0  0  0  0  0
    8.9692  -14.9753   23.1358 C   0  0  0  0  0  0  0  0  0  0  0  0
   10.1603  -14.6030   23.2166 O   0  0  0  0  0  0  0  0  0  0  0  0
    7.5859  -12.9472   18.9007 C   0  0  0  0  0  0  0  0  0  0  0  0
    7.3134  -13.0417   17.5499 C   0  0  0  0  0  0  0  0  0  0  0  0
    5.9177  -12.1794   26.3006 C   0  0  0  0  0  0  0  0  0  0  0  0
    7.0746  -12.8133   25.4992 C   0  0  0  0  0  0  0  0  0  0  0  0
    7.5251  -14.0193   26.2719 C   0  0  2  0  0  0  0  0  0  0  0  0
    7.8641  -13.6361   27.6934 C   0  0  0  0  0  0  0  0  0  0  0  0
    8.4936  -14.9198   25.6246 C   0  0  2  0  0  0  0  0  0  0  0  0
    8.1312  -15.1604   24.2372 N   0  0  0  0  0  0  0  0  0  0  0  0
    8.9080  -16.1535   26.2618 C   0  0  0  0  0  0  0  0  0  0  0  0
    8.0655  -17.0524   26.5117 O   0  0  0  0  0  0  0  0  0  0  0  0
   10.2473  -16.4809   26.6546 N   0  0  0  0  0  0  0  0  0  0  0  0
   10.5063  -17.7823   27.2496 C   0  0  1  0  0  0  0  0  0  0  0  0
   11.7445  -18.4217   26.6564 C   0  0  0  0  0  0  0  0  0  0  0  0
   11.5553  -18.6657   25.1988 C   0  0  0  0  0  0  0  0  0  0  0  0
   10.5868  -19.5116   24.6991 C   0  0  0  0  0  0  0  0  0  0  0  0
   10.7294  -19.4687   23.3617 N   0  0  0  0  0  0  0  0  0  0  0  0
   11.7346  -18.6407   23.0168 C   0  0  0  0  0  0  0  0  0  0  0  0
   12.2362  -18.1514   24.1596 N   0  0  0  0  0  0  0  0  0  0  0  0
   10.6313  -17.5915   28.7048 C   0  0  0  0  0  0  0  0  0  0  0  0
   10.5649  -16.2820   29.1906 O   0  0  0  0  0  0  0  0  0  0  0  0
   10.7914  -18.5432   29.5008 O   0  0  0  0  0  0  0  0  0  0  0  0
  2 12  2  0
  2  1  1  0
  3  2  1  0
  4  5  1  0
  4  3  2  0
  5 11  2  0
  6  5  1  0
  7  6  1  0
  7  8  1  1
  9  7  1  0
  9 10  2  0
 11 12  1  0
 13 14  1  0
 14 15  1  0
 15 17  1  0
 15 16  1  1
 17 18  1  6
 18  9  1  0
 19 17  1  0
 19 21  1  0
 20 19  2  0
 22 21  1  0
 22 29  1  0
 22 23  1  6
 24 23  1  0
 24 25  2  0
 26 25  1  0
 27 26  1  0
 28 27  2  0
 28 24  1  0
 29 31  2  0
 29 30  1  0
M  END
$$$$
