YIH.pdb
     RDKit          3D

 31 32  0  0  1  0  0  0  0  0999 V2000
    7.4831  -21.2354   12.8306 O   0  0  0  0  0  0  0  0  0  0  0  0
    8.0065  -20.4093   13.8226 C   0  0  0  0  0  0  0  0  0  0  0  0
    9.3260  -20.0068   13.8017 C   0  0  0  0  0  0  0  0  0  0  0  0
    9.8410  -19.1879   14.7868 C   0  0  0  0  0  0  0  0  0  0  0  0
    9.0641  -18.7356   15.8336 C   0  0  0  0  0  0  0  0  0  0  0  0
    9.6423  -17.8588   16.8759 C   0  0  0  0  0  0  0  0  0  0  0  0
    9.2634  -16.4253   16.7194 C   0  0  2  0  0  0  0  0  0  0  0  0
    9.6490  -15.8687   15.4406 N   0  0  0  0  0  0  0  0  0  0  0  0
    9.9532  -15.6742   17.8380 C   0  0  0  0  0  0  0  0  0  0  0  0
   10.4920  -14.6050   17.4770 O   0  0  0  0  0  0  0  0  0  0  0  0
    7.7450  -19.1417   15.8489 C   0  0  0  0  0  0  0  0  0  0  0  0
    7.2239  -19.9607   14.8665 C   0  0  0  0  0  0  0  0  0  0  0  0
    7.1989  -12.7408   19.1185 C   0  0  0  0  0  0  0  0  0  0  0  0
    8.4984  -13.5659   19.0058 C   0  0  0  0  0  0  0  0  0  0  0  0
    8.4948  -14.5359   20.1520 C   0  0  2  0  0  0  0  0  0  0  0  0
    7.9820  -13.8663   21.4054 C   0  0  0  0  0  0  0  0  0  0  0  0
    9.6926  -15.3711   20.3407 C   0  0  2  0  0  0  0  0  0  0  0  0
    9.9711  -16.1555   19.1486 N   0  0  0  0  0  0  0  0  0  0  0  0
    9.8586  -16.1809   21.5308 C   0  0  0  0  0  0  0  0  0  0  0  0
    8.8614  -16.7165   22.0777 O   0  0  0  0  0  0  0  0  0  0  0  0
   11.1039  -16.4573   22.1851 N   0  0  0  0  0  0  0  0  0  0  0  0
   11.1061  -17.3223   23.3541 C   0  0  1  0  0  0  0  0  0  0  0  0
   12.4687  -17.9455   23.5747 C   0  0  0  0  0  0  0  0  0  0  0  0
   12.9366  -18.6237   22.3333 C   0  0  0  0  0  0  0  0  0  0  0  0
   12.0907  -18.9554   21.2951 C   0  0  0  0  0  0  0  0  0  0  0  0
   12.8721  -19.5430   20.3705 N   0  0  0  0  0  0  0  0  0  0  0  0
   14.1520  -19.5884   20.7885 C   0  0  0  0  0  0  0  0  0  0  0  0
   14.1785  -19.0178   22.0014 N   0  0  0  0  0  0  0  0  0  0  0  0
   10.6795  -16.5138   24.5090 C   0  0  0  0  0  0  0  0  0  0  0  0
   10.5838  -17.1583   25.7462 O   0  0  0  0  0  0  0  0  0  0  0  0
   10.4064  -15.2962   24.4189 O   0  0  0  0  0  0  0  0  0  0  0  0
  2 12  2  0
  2  1  1  0
  3  2  1  0
  4  5  1  0
  4  3  2  0
  5 11  2  0
  6  5  1  0
  7  6  1  0
  7  8  1  6
  9  7  1  0
  9 10  2  0
 11 12  1  0
 13 14  1  0
 14 15  1  0
 15 17  1  0
 15 16  1  1
 17 18  1  6
 18  9  1  0
 19 17  1  0
 19 21  1  0
 20 19  2  0
 22 21  1  0
 22 29  1  0
 22 23  1  1
 24 23  1  0
 24 25  2  0
 26 25  1  0
 27 26  1  0
 28 27  2  0
 28 24  1  0
 29 31  2  0
 29 30  1  0
M  END
$$$$
