YIH.pdb
     RDKit          3D

 31 32  0  0  1  0  0  0  0  0999 V2000
    7.3713  -14.3119   15.7337 O   0  0  0  0  0  0  0  0  0  0  0  0
    7.5732  -14.1768   17.1054 C   0  0  0  0  0  0  0  0  0  0  0  0
    7.3276  -15.2193   17.9750 C   0  0  0  0  0  0  0  0  0  0  0  0
    7.5290  -15.0814   19.3340 C   0  0  0  0  0  0  0  0  0  0  0  0
    7.9833  -13.9001   19.8838 C   0  0  0  0  0  0  0  0  0  0  0  0
    8.1903  -13.7802   21.3440 C   0  0  0  0  0  0  0  0  0  0  0  0
    8.5793  -15.0647   21.9934 C   0  0  2  0  0  0  0  0  0  0  0  0
    7.4982  -16.0245   22.0544 N   0  0  0  0  0  0  0  0  0  0  0  0
    9.0394  -14.7164   23.3927 C   0  0  0  0  0  0  0  0  0  0  0  0
   10.1094  -14.0703   23.4311 O   0  0  0  0  0  0  0  0  0  0  0  0
    8.2272  -12.8610   19.0087 C   0  0  0  0  0  0  0  0  0  0  0  0
    8.0276  -12.9927   17.6483 C   0  0  0  0  0  0  0  0  0  0  0  0
    6.0664  -12.2124   26.5118 C   0  0  0  0  0  0  0  0  0  0  0  0
    7.3419  -12.7305   25.8138 C   0  0  0  0  0  0  0  0  0  0  0  0
    7.7878  -13.9452   26.5754 C   0  0  2  0  0  0  0  0  0  0  0  0
    8.1761  -13.5679   27.9858 C   0  0  0  0  0  0  0  0  0  0  0  0
    8.7169  -14.8678   25.9020 C   0  0  2  0  0  0  0  0  0  0  0  0
    8.3137  -15.0957   24.5238 N   0  0  0  0  0  0  0  0  0  0  0  0
    9.1164  -16.1130   26.5261 C   0  0  0  0  0  0  0  0  0  0  0  0
    8.2610  -16.9991   26.7784 O   0  0  0  0  0  0  0  0  0  0  0  0
   10.4538  -16.4663   26.9026 N   0  0  0  0  0  0  0  0  0  0  0  0
   10.6869  -17.7512   27.5426 C   0  0  1  0  0  0  0  0  0  0  0  0
   11.9611  -18.3947   27.0365 C   0  0  0  0  0  0  0  0  0  0  0  0
   11.8580  -18.6726   25.5764 C   0  0  0  0  0  0  0  0  0  0  0  0
   10.6621  -18.6409   24.8892 C   0  0  0  0  0  0  0  0  0  0  0  0
   10.9735  -18.9403   23.6148 N   0  0  0  0  0  0  0  0  0  0  0  0
   12.2975  -19.1536   23.4860 C   0  0  0  0  0  0  0  0  0  0  0  0
   12.8321  -18.9853   24.7038 N   0  0  0  0  0  0  0  0  0  0  0  0
   10.7273  -17.5250   28.9976 C   0  0  0  0  0  0  0  0  0  0  0  0
   10.7708  -18.6523   29.8236 O   0  0  0  0  0  0  0  0  0  0  0  0
   10.7239  -16.3815   29.5050 O   0  0  0  0  0  0  0  0  0  0  0  0
  2 12  2  0
  2  1  1  0
  3  2  1  0
  4  5  1  0
  4  3  2  0
  5 11  2  0
  6  5  1  0
  7  6  1  0
  7  8  1  1
  9  7  1  0
  9 10  2  0
 11 12  1  0
 13 14  1  0
 14 15  1  0
 15 17  1  0
 15 16  1  1
 17 18  1  6
 18  9  1  0
 19 17  1  0
 19 21  1  0
 20 19  2  0
 22 21  1  0
 22 29  1  0
 22 23  1  6
 24 23  1  0
 24 25  2  0
 26 25  1  0
 27 26  1  0
 28 27  2  0
 28 24  1  0
 29 31  2  0
 29 30  1  0
M  END
$$$$
