YIH.pdb
     RDKit          3D

 31 32  0  0  1  0  0  0  0  0999 V2000
    9.7700  -21.7291   12.4526 O   0  0  0  0  0  0  0  0  0  0  0  0
    9.9330  -20.8967   13.5577 C   0  0  0  0  0  0  0  0  0  0  0  0
   11.1575  -20.7551   14.1774 C   0  0  0  0  0  0  0  0  0  0  0  0
   11.3149  -19.9291   15.2726 C   0  0  0  0  0  0  0  0  0  0  0  0
   10.2602  -19.2098   15.7962 C   0  0  0  0  0  0  0  0  0  0  0  0
   10.4576  -18.3319   16.9709 C   0  0  0  0  0  0  0  0  0  0  0  0
   10.2309  -16.8884   16.6748 C   0  0  2  0  0  0  0  0  0  0  0  0
   11.1390  -16.3597   15.6800 N   0  0  0  0  0  0  0  0  0  0  0  0
   10.4111  -16.1482   17.9829 C   0  0  0  0  0  0  0  0  0  0  0  0
   11.6047  -15.9255   18.2819 O   0  0  0  0  0  0  0  0  0  0  0  0
    9.0380  -19.3557   15.1718 C   0  0  0  0  0  0  0  0  0  0  0  0
    8.8740  -20.1804   14.0760 C   0  0  0  0  0  0  0  0  0  0  0  0
    6.8281  -12.3293   19.5429 C   0  0  0  0  0  0  0  0  0  0  0  0
    8.1333  -13.0794   19.2022 C   0  0  0  0  0  0  0  0  0  0  0  0
    8.2991  -14.1510   20.2408 C   0  0  2  0  0  0  0  0  0  0  0  0
    8.1841  -13.5615   21.6270 C   0  0  0  0  0  0  0  0  0  0  0  0
    9.4055  -15.1061   20.0628 C   0  0  2  0  0  0  0  0  0  0  0  0
    9.3227  -15.7601   18.7669 N   0  0  0  0  0  0  0  0  0  0  0  0
    9.7360  -16.0671   21.0957 C   0  0  0  0  0  0  0  0  0  0  0  0
    8.9931  -17.0606   21.2990 O   0  0  0  0  0  0  0  0  0  0  0  0
   10.8829  -16.0085   21.9539 N   0  0  0  0  0  0  0  0  0  0  0  0
   11.0504  -17.0323   22.9730 C   0  0  1  0  0  0  0  0  0  0  0  0
   12.3977  -17.7135   22.8522 C   0  0  0  0  0  0  0  0  0  0  0  0
   12.3708  -18.7274   21.7608 C   0  0  0  0  0  0  0  0  0  0  0  0
   11.2279  -19.0383   21.0534 C   0  0  0  0  0  0  0  0  0  0  0  0
   11.5999  -19.9815   20.1687 N   0  0  0  0  0  0  0  0  0  0  0  0
   12.9108  -20.2642   20.2976 C   0  0  0  0  0  0  0  0  0  0  0  0
   13.3751  -19.4835   21.2836 N   0  0  0  0  0  0  0  0  0  0  0  0
   10.8776  -16.3880   24.2863 C   0  0  0  0  0  0  0  0  0  0  0  0
   10.5891  -15.0199   24.2995 O   0  0  0  0  0  0  0  0  0  0  0  0
   10.9786  -17.0131   25.3653 O   0  0  0  0  0  0  0  0  0  0  0  0
  2 12  2  0
  2  1  1  0
  3  2  1  0
  4  5  1  0
  4  3  2  0
  5 11  2  0
  6  5  1  0
  7  6  1  0
  7  8  1  6
  9  7  1  0
  9 10  2  0
 11 12  1  0
 13 14  1  0
 14 15  1  0
 15 17  1  0
 15 16  1  1
 17 18  1  6
 18  9  1  0
 19 17  1  0
 19 21  1  0
 20 19  2  0
 22 21  1  0
 22 29  1  0
 22 23  1  1
 24 23  1  0
 24 25  2  0
 26 25  1  0
 27 26  1  0
 28 27  2  0
 28 24  1  0
 29 31  2  0
 29 30  1  0
M  END
$$$$
