YIH.pdb
     RDKit          3D

 31 32  0  0  1  0  0  0  0  0999 V2000
    6.1408  -10.5873   28.7682 O   0  0  0  0  0  0  0  0  0  0  0  0
    6.6118  -11.5311   27.8582 C   0  0  0  0  0  0  0  0  0  0  0  0
    7.8421  -12.1344   28.0192 C   0  0  0  0  0  0  0  0  0  0  0  0
    8.3053  -13.0694   27.1150 C   0  0  0  0  0  0  0  0  0  0  0  0
    7.5634  -13.4426   26.0131 C   0  0  0  0  0  0  0  0  0  0  0  0
    8.0845  -14.4473   25.0600 C   0  0  0  0  0  0  0  0  0  0  0  0
    7.0129  -15.2376   24.3892 C   0  0  2  0  0  0  0  0  0  0  0  0
    6.5375  -16.3476   25.1865 N   0  0  0  0  0  0  0  0  0  0  0  0
    7.6039  -15.7493   23.0931 C   0  0  0  0  0  0  0  0  0  0  0  0
    7.3790  -16.9596   22.8735 O   0  0  0  0  0  0  0  0  0  0  0  0
    6.3336  -12.8354   25.8576 C   0  0  0  0  0  0  0  0  0  0  0  0
    5.8646  -11.8995   26.7586 C   0  0  0  0  0  0  0  0  0  0  0  0
    7.7486  -11.9425   19.3888 C   0  0  0  0  0  0  0  0  0  0  0  0
    7.4461  -13.2489   20.1532 C   0  0  0  0  0  0  0  0  0  0  0  0
    8.6428  -14.1387   19.9781 C   0  0  2  0  0  0  0  0  0  0  0  0
    8.8380  -14.4757   18.5184 C   0  0  0  0  0  0  0  0  0  0  0  0
    8.7862  -15.2762   20.9018 C   0  0  2  0  0  0  0  0  0  0  0  0
    8.3320  -14.9211   22.2366 N   0  0  0  0  0  0  0  0  0  0  0  0
   10.0209  -16.0316   20.9705 C   0  0  0  0  0  0  0  0  0  0  0  0
   10.2451  -16.9566   20.1493 O   0  0  0  0  0  0  0  0  0  0  0  0
   11.0742  -15.8242   21.9207 N   0  0  0  0  0  0  0  0  0  0  0  0
   12.2628  -16.6587   21.8445 C   0  0  1  0  0  0  0  0  0  0  0  0
   13.5219  -15.8188   21.7885 C   0  0  0  0  0  0  0  0  0  0  0  0
   13.6891  -15.2236   20.4329 C   0  0  0  0  0  0  0  0  0  0  0  0
   12.8295  -15.4872   19.3865 C   0  0  0  0  0  0  0  0  0  0  0  0
   13.3038  -14.7775   18.3462 N   0  0  0  0  0  0  0  0  0  0  0  0
   14.4088  -14.0935   18.7012 C   0  0  0  0  0  0  0  0  0  0  0  0
   14.6361  -14.3773   19.9915 N   0  0  0  0  0  0  0  0  0  0  0  0
   12.2541  -17.5564   23.0123 C   0  0  0  0  0  0  0  0  0  0  0  0
   13.3735  -18.3715   23.2064 O   0  0  0  0  0  0  0  0  0  0  0  0
   11.2978  -17.6106   23.8171 O   0  0  0  0  0  0  0  0  0  0  0  0
  2 12  2  0
  2  1  1  0
  3  2  1  0
  4  5  1  0
  4  3  2  0
  5 11  2  0
  6  5  1  0
  7  6  1  0
  7  8  1  1
  9  7  1  0
  9 10  2  0
 11 12  1  0
 13 14  1  0
 14 15  1  0
 15 17  1  0
 15 16  1  6
 17 18  1  1
 18  9  1  0
 19 17  1  0
 19 21  1  0
 20 19  2  0
 22 21  1  0
 22 29  1  0
 22 23  1  1
 24 23  1  0
 24 25  2  0
 26 25  1  0
 27 26  1  0
 28 27  2  0
 28 24  1  0
 29 31  2  0
 29 30  1  0
M  END
$$$$
