CRN.pdb
     RDKit          3D

 26 25  0  0  1  0  0  0  0  0999 V2000
    7.9549  -20.7763   22.7227 N   0  0  0  0  0  0  0  0  0  0  0  0
    8.5849  -20.6265   21.4229 C   0  0  1  0  0  0  0  0  0  0  0  0
    7.6394  -20.9395   20.3086 C   0  0  0  0  0  0  0  0  0  0  0  0
    5.9596  -20.3642   20.6177 S   0  0  0  0  0  0  0  0  0  0  0  0
    9.1847  -19.2684   21.2938 C   0  0  0  0  0  0  0  0  0  0  0  0
    9.8162  -18.9720   20.2576 O   0  0  0  0  0  0  0  0  0  0  0  0
    6.8092  -12.3936   19.1020 N   0  0  0  0  0  0  0  0  0  0  0  0
    7.8579  -13.2723   18.7175 C   0  0  0  0  0  0  0  0  0  0  0  0
    8.1228  -13.4294   17.4698 N   0  0  0  0  0  0  0  0  0  0  0  0
    8.5975  -13.9660   19.7380 N   0  0  0  0  0  0  0  0  0  0  0  0
    8.1660  -13.8022   21.1031 C   0  0  0  0  0  0  0  0  0  0  0  0
    9.0660  -14.5120   22.0832 C   0  0  0  0  0  0  0  0  0  0  0  0
    8.4889  -15.8980   22.3283 C   0  0  0  0  0  0  0  0  0  0  0  0
    9.5787  -16.9556   22.1444 C   0  0  2  0  0  0  0  0  0  0  0  0
    9.0671  -18.2830   22.3171 N   0  0  0  0  0  0  0  0  0  0  0  0
   10.5928  -16.6718   23.2283 C   0  0  0  0  0  0  0  0  0  0  0  0
   10.2371  -16.8929   24.4030 O   0  0  0  0  0  0  0  0  0  0  0  0
    8.8440  -14.1136   17.1681 N   0  0  0  0  0  0  0  0  0  0  0  0
   12.7498  -17.6264   26.2503 C   0  0  0  0  0  0  0  0  0  0  0  0
   13.0413  -18.5444   25.2062 O   0  0  0  0  0  0  0  0  0  0  0  0
   13.1723  -19.7747   25.5201 C   0  0  0  0  0  0  0  0  0  0  0  0
   13.1924  -18.0926   23.7875 C   0  0  2  0  0  0  0  0  0  0  0  0
   12.9978  -16.6005   23.7698 N   0  0  0  0  0  0  0  0  0  0  0  0
   11.8794  -16.1874   22.9790 C   0  0  0  0  0  0  0  0  0  0  0  0
   14.2232  -15.9219   23.3171 O   0  0  0  0  0  0  0  0  0  0  0  0
   15.2613  -15.9590   24.0594 O   0  0  0  0  0  0  0  0  0  0  0  0
  2  1  1  1
  3  2  1  0
  4  3  1  0
  5  2  1  0
  5  6  2  0
  7  8  1  0
  8 10  1  0
  8  9  2  0
 10 11  1  0
 11 12  1  0
 12 13  1  0
 14 13  1  1
 15 14  1  0
 15  5  1  0
 16 14  1  0
 17 16  2  0
 18 19  1  0
 19 21  1  0
 19 20  2  0
 22 21  1  1
 22 23  1  0
 22 24  1  0
 23 16  1  0
 24 26  1  0
 25 24  2  0
M  END
$$$$
