CRN.pdb
     RDKit          3D

 26 25  0  0  1  0  0  0  0  0999 V2000
    7.4025  -13.6466   16.7073 N   0  0  0  0  0  0  0  0  0  0  0  0
    8.1540  -13.6122   17.9494 C   0  0  1  0  0  0  0  0  0  0  0  0
    7.3824  -12.9536   19.0469 C   0  0  0  0  0  0  0  0  0  0  0  0
    8.1137  -13.1967   20.6761 S   0  0  0  0  0  0  0  0  0  0  0  0
    8.6057  -14.9839   18.3171 C   0  0  0  0  0  0  0  0  0  0  0  0
    7.8098  -15.9411   18.2127 O   0  0  0  0  0  0  0  0  0  0  0  0
   11.0889  -16.1243   13.9364 N   0  0  0  0  0  0  0  0  0  0  0  0
   12.4888  -15.9644   14.1220 C   0  0  0  0  0  0  0  0  0  0  0  0
   13.1552  -15.2393   13.2964 N   0  0  0  0  0  0  0  0  0  0  0  0
   13.1257  -16.6212   15.2323 N   0  0  0  0  0  0  0  0  0  0  0  0
   12.2861  -17.3555   16.1446 C   0  0  0  0  0  0  0  0  0  0  0  0
   11.7569  -16.4943   17.2640 C   0  0  0  0  0  0  0  0  0  0  0  0
   10.9793  -17.3910   18.2156 C   0  0  0  0  0  0  0  0  0  0  0  0
   10.2956  -16.5420   19.2889 C   0  0  2  0  0  0  0  0  0  0  0  0
    9.9237  -15.2512   18.7899 N   0  0  0  0  0  0  0  0  0  0  0  0
   11.3299  -16.3719   20.3775 C   0  0  0  0  0  0  0  0  0  0  0  0
   12.1743  -15.4687   20.2147 O   0  0  0  0  0  0  0  0  0  0  0  0
   14.1385  -14.9758   13.5039 N   0  0  0  0  0  0  0  0  0  0  0  0
   10.2996  -15.4280   23.5854 C   0  0  0  0  0  0  0  0  0  0  0  0
   10.7546  -16.5174   24.3753 O   0  0  0  0  0  0  0  0  0  0  0  0
   10.1750  -16.7190   25.4946 C   0  0  0  0  0  0  0  0  0  0  0  0
   11.8734  -17.4004   23.9189 C   0  0  2  0  0  0  0  0  0  0  0  0
   12.3216  -16.8959   22.5739 N   0  0  0  0  0  0  0  0  0  0  0  0
   11.3794  -17.1599   21.5303 C   0  0  0  0  0  0  0  0  0  0  0  0
   13.6405  -17.4487   22.2245 O   0  0  0  0  0  0  0  0  0  0  0  0
   14.6435  -17.1711   22.9641 O   0  0  0  0  0  0  0  0  0  0  0  0
  2  1  1  6
  3  2  1  0
  4  3  1  0
  5  2  1  0
  5  6  2  0
  7  8  1  0
  8 10  1  0
  8  9  2  0
 10 11  1  0
 11 12  1  0
 12 13  1  0
 14 13  1  6
 15 14  1  0
 15  5  1  0
 16 14  1  0
 17 16  2  0
 18 19  1  0
 19 21  1  0
 19 20  2  0
 22 21  1  1
 22 23  1  0
 22 24  1  0
 23 16  1  0
 24 26  1  0
 25 24  2  0
M  END
$$$$
