CRN.pdb
     RDKit          3D

 26 25  0  0  1  0  0  0  0  0999 V2000
    7.5169  -14.9188   19.4136 N   0  0  0  0  0  0  0  0  0  0  0  0
    8.3772  -14.3382   20.4293 C   0  0  1  0  0  0  0  0  0  0  0  0
    8.0194  -12.9150   20.7123 C   0  0  0  0  0  0  0  0  0  0  0  0
    8.1315  -11.8510   19.2619 S   0  0  0  0  0  0  0  0  0  0  0  0
    8.3663  -15.1813   21.6580 C   0  0  0  0  0  0  0  0  0  0  0  0
    7.3687  -15.8909   21.9070 O   0  0  0  0  0  0  0  0  0  0  0  0
   11.9841  -18.7135   19.3988 N   0  0  0  0  0  0  0  0  0  0  0  0
   11.5354  -19.9484   19.9406 C   0  0  0  0  0  0  0  0  0  0  0  0
   12.0735  -21.0447   19.5404 N   0  0  0  0  0  0  0  0  0  0  0  0
   10.4867  -19.9393   20.9253 N   0  0  0  0  0  0  0  0  0  0  0  0
    9.7507  -18.7136   21.1054 C   0  0  0  0  0  0  0  0  0  0  0  0
   10.4102  -17.7827   22.0918 C   0  0  0  0  0  0  0  0  0  0  0  0
    9.4463  -17.5693   23.2491 C   0  0  0  0  0  0  0  0  0  0  0  0
    9.4799  -16.1052   23.6913 C   0  0  2  0  0  0  0  0  0  0  0  0
    9.4596  -15.2104   22.5722 N   0  0  0  0  0  0  0  0  0  0  0  0
   10.7888  -15.9445   24.4292 C   0  0  0  0  0  0  0  0  0  0  0  0
   11.6107  -16.8768   24.3260 O   0  0  0  0  0  0  0  0  0  0  0  0
   11.7712  -21.9548   19.9400 N   0  0  0  0  0  0  0  0  0  0  0  0
   11.1937  -14.7324   29.3201 C   0  0  0  0  0  0  0  0  0  0  0  0
    9.9736  -14.3426   28.7059 O   0  0  0  0  0  0  0  0  0  0  0  0
    9.0305  -13.9411   29.4666 C   0  0  0  0  0  0  0  0  0  0  0  0
    9.7927  -14.3994   27.2214 C   0  0  2  0  0  0  0  0  0  0  0  0
   11.0926  -14.8733   26.6298 N   0  0  0  0  0  0  0  0  0  0  0  0
   11.1121  -14.8249   25.2001 C   0  0  0  0  0  0  0  0  0  0  0  0
   11.4135  -16.2309   27.1003 O   0  0  0  0  0  0  0  0  0  0  0  0
   12.4681  -16.4112   27.7968 O   0  0  0  0  0  0  0  0  0  0  0  0
  2  1  1  6
  3  2  1  0
  4  3  1  0
  5  2  1  0
  5  6  2  0
  7  8  1  0
  8 10  1  0
  8  9  2  0
 10 11  1  0
 11 12  1  0
 12 13  1  0
 14 13  1  6
 15 14  1  0
 15  5  1  0
 16 14  1  0
 17 16  2  0
 18 19  1  0
 19 21  1  0
 19 20  2  0
 22 21  1  1
 22 23  1  0
 22 24  1  0
 23 16  1  0
 24 26  1  0
 25 24  2  0
M  END
$$$$
