KIM.pdb
     RDKit          3D

 26 25  0  0  1  0  0  0  0  0999 V2000
   26.1395  -24.0687  -17.2281 N   0  0  0  0  0  0  0  0  0  0  0  0
   25.3577  -23.7705  -16.0538 C   0  0  1  0  0  0  0  0  0  0  0  0
   24.8820  -25.0655  -15.3725 C   0  0  0  0  0  0  0  0  0  0  0  0
   23.5491  -25.4751  -15.8916 C   0  0  0  0  0  0  0  0  0  0  0  0
   22.4620  -24.4732  -15.8129 C   0  0  0  0  0  0  0  0  0  0  0  0
   21.1046  -24.9033  -16.2320 C   0  0  0  0  0  0  0  0  0  0  0  0
   20.5702  -26.0511  -15.5748 N   0  0  0  0  0  0  0  0  0  0  0  0
   26.1932  -22.9765  -15.1182 C   0  0  0  0  0  0  0  0  0  0  0  0
   27.3978  -23.2726  -14.9096 O   0  0  0  0  0  0  0  0  0  0  0  0
   25.8353  -17.4436  -14.4335 C   0  0  0  0  0  0  0  0  0  0  0  0
   25.4847  -18.8838  -14.0856 C   0  0  0  0  0  0  0  0  0  0  0  0
   26.7217  -19.7137  -13.8683 C   0  0  2  0  0  0  0  0  0  0  0  0
   27.6431  -19.6409  -15.0686 C   0  0  0  0  0  0  0  0  0  0  0  0
   26.4669  -21.1099  -13.4243 C   0  0  2  0  0  0  0  0  0  0  0  0
   25.6897  -21.8508  -14.4127 N   0  0  0  0  0  0  0  0  0  0  0  0
   25.8722  -21.2967  -12.1005 C   0  0  0  0  0  0  0  0  0  0  0  0
   24.6687  -21.6904  -12.0256 O   0  0  0  0  0  0  0  0  0  0  0  0
   29.1706  -19.7805   -6.8500 C   0  0  0  0  0  0  0  0  0  0  0  0
   27.5224  -19.5623   -6.0845 S   0  0  0  0  0  0  0  0  0  0  0  0
   26.2797  -20.0501   -7.2758 C   0  0  0  0  0  0  0  0  0  0  0  0
   26.7521  -20.4325   -8.6199 C   0  0  0  0  0  0  0  0  0  0  0  0
   25.7821  -21.0553   -9.5769 C   0  0  2  0  0  0  0  0  0  0  0  0
   26.5272  -21.0826  -10.8738 N   0  0  0  0  0  0  0  0  0  0  0  0
   24.5693  -20.2833   -9.7947 C   0  0  0  0  0  0  0  0  0  0  0  0
   24.4569  -19.1947  -10.6622 O   0  0  0  0  0  0  0  0  0  0  0  0
   23.5120  -20.6083   -9.1449 O   0  0  0  0  0  0  0  0  0  0  0  0
  2  1  1  6
  3  2  1  0
  4  5  1  0
  4  3  1  0
  6  7  1  0
  6  5  1  0
  8 15  1  0
  8  2  1  0
  9  8  2  0
 10 11  1  0
 12 11  1  0
 12 14  1  0
 12 13  1  6
 14 15  1  6
 16 14  1  0
 16 23  1  0
 17 16  2  0
 18 19  1  0
 19 20  1  0
 20 21  1  0
 22 21  1  1
 22 23  1  0
 22 24  1  0
 24 26  2  0
 24 25  1  0
M  END
$$$$
