KIM.pdb
     RDKit          3D

 26 25  0  0  1  0  0  0  0  0999 V2000
   19.7411  -20.2244  -11.1631 N   0  0  0  0  0  0  0  0  0  0  0  0
   20.4632  -21.1203  -12.0320 C   0  0  1  0  0  0  0  0  0  0  0  0
   19.6363  -21.4455  -13.2883 C   0  0  0  0  0  0  0  0  0  0  0  0
   18.6225  -22.4943  -12.9948 C   0  0  0  0  0  0  0  0  0  0  0  0
   19.1311  -23.8212  -12.5795 C   0  0  0  0  0  0  0  0  0  0  0  0
   18.1305  -24.8869  -12.3226 C   0  0  0  0  0  0  0  0  0  0  0  0
   17.1422  -24.6057  -11.3330 N   0  0  0  0  0  0  0  0  0  0  0  0
   21.7452  -20.4771  -12.4149 C   0  0  0  0  0  0  0  0  0  0  0  0
   21.8123  -19.2409  -12.6378 O   0  0  0  0  0  0  0  0  0  0  0  0
   26.3834  -21.3994   -9.8796 C   0  0  0  0  0  0  0  0  0  0  0  0
   25.2426  -20.7726  -10.6695 C   0  0  0  0  0  0  0  0  0  0  0  0
   25.3522  -21.0876  -12.1375 C   0  0  2  0  0  0  0  0  0  0  0  0
   26.6992  -20.6628  -12.6856 C   0  0  0  0  0  0  0  0  0  0  0  0
   24.2167  -20.6032  -12.9665 C   0  0  2  0  0  0  0  0  0  0  0  0
   22.9556  -21.2085  -12.5503 N   0  0  0  0  0  0  0  0  0  0  0  0
   24.3506  -20.7116  -14.4195 C   0  0  0  0  0  0  0  0  0  0  0  0
   24.3126  -21.8639  -14.9484 O   0  0  0  0  0  0  0  0  0  0  0  0
   20.5727  -18.0936  -18.3612 C   0  0  0  0  0  0  0  0  0  0  0  0
   22.0524  -17.7589  -19.3853 S   0  0  0  0  0  0  0  0  0  0  0  0
   23.3925  -18.7838  -18.7895 C   0  0  0  0  0  0  0  0  0  0  0  0
   23.5215  -18.9372  -17.3282 C   0  0  0  0  0  0  0  0  0  0  0  0
   24.5929  -19.8340  -16.7872 C   0  0  2  0  0  0  0  0  0  0  0  0
   24.5143  -19.6322  -15.3070 N   0  0  0  0  0  0  0  0  0  0  0  0
   25.9417  -19.4786  -17.1980 C   0  0  0  0  0  0  0  0  0  0  0  0
   26.7475  -18.5282  -16.5674 O   0  0  0  0  0  0  0  0  0  0  0  0
   26.4457  -20.0685  -18.2196 O   0  0  0  0  0  0  0  0  0  0  0  0
  2  1  1  1
  3  2  1  0
  4  5  1  0
  4  3  1  0
  6  7  1  0
  6  5  1  0
  8 15  1  0
  8  2  1  0
  9  8  2  0
 10 11  1  0
 12 11  1  0
 12 14  1  0
 12 13  1  6
 14 15  1  1
 16 14  1  0
 16 23  1  0
 17 16  2  0
 18 19  1  0
 19 20  1  0
 20 21  1  0
 22 21  1  6
 22 23  1  0
 22 24  1  0
 24 26  2  0
 24 25  1  0
M  END
$$$$
