KIM.pdb
     RDKit          3D

 26 25  0  0  1  0  0  0  0  0999 V2000
   28.4010  -22.0265  -15.7450 N   0  0  0  0  0  0  0  0  0  0  0  0
   27.5755  -20.8923  -15.4116 C   0  0  1  0  0  0  0  0  0  0  0  0
   27.0209  -20.2290  -16.6845 C   0  0  0  0  0  0  0  0  0  0  0  0
   28.1113  -19.5702  -17.4532 C   0  0  0  0  0  0  0  0  0  0  0  0
   28.6688  -18.3201  -16.8890 C   0  0  0  0  0  0  0  0  0  0  0  0
   29.6995  -17.6102  -17.6870 C   0  0  0  0  0  0  0  0  0  0  0  0
   29.2463  -16.9508  -18.8681 N   0  0  0  0  0  0  0  0  0  0  0  0
   26.4605  -21.3561  -14.5482 C   0  0  0  0  0  0  0  0  0  0  0  0
   25.8180  -22.4026  -14.8207 O   0  0  0  0  0  0  0  0  0  0  0  0
   26.6712  -20.5009   -9.1144 C   0  0  0  0  0  0  0  0  0  0  0  0
   26.4574  -21.1287  -10.4849 C   0  0  0  0  0  0  0  0  0  0  0  0
   25.1724  -20.6570  -11.1113 C   0  0  2  0  0  0  0  0  0  0  0  0
   23.9869  -20.9694  -10.2212 C   0  0  0  0  0  0  0  0  0  0  0  0
   24.9654  -21.0950  -12.5172 C   0  0  2  0  0  0  0  0  0  0  0  0
   26.0582  -20.6560  -13.3793 N   0  0  0  0  0  0  0  0  0  0  0  0
   23.6873  -20.7589  -13.1450 C   0  0  0  0  0  0  0  0  0  0  0  0
   23.4185  -19.5379  -13.3590 O   0  0  0  0  0  0  0  0  0  0  0  0
   21.0382  -23.6451  -18.1619 C   0  0  0  0  0  0  0  0  0  0  0  0
   19.5469  -23.5790  -17.1027 S   0  0  0  0  0  0  0  0  0  0  0  0
   19.8089  -22.3398  -15.8389 C   0  0  0  0  0  0  0  0  0  0  0  0
   21.1231  -22.3317  -15.1692 C   0  0  0  0  0  0  0  0  0  0  0  0
   21.4231  -21.2482  -14.1790 C   0  0  2  0  0  0  0  0  0  0  0  0
   22.7083  -21.6847  -13.5500 N   0  0  0  0  0  0  0  0  0  0  0  0
   20.4447  -21.1187  -13.1112 C   0  0  0  0  0  0  0  0  0  0  0  0
   19.3449  -20.2582  -13.1317 O   0  0  0  0  0  0  0  0  0  0  0  0
   20.5889  -21.8376  -12.0585 O   0  0  0  0  0  0  0  0  0  0  0  0
  2  1  1  6
  3  2  1  0
  4  5  1  0
  4  3  1  0
  6  7  1  0
  6  5  1  0
  8 15  1  0
  8  2  1  0
  9  8  2  0
 10 11  1  0
 12 11  1  0
 12 14  1  0
 12 13  1  1
 14 15  1  6
 16 14  1  0
 16 23  1  0
 17 16  2  0
 18 19  1  0
 19 20  1  0
 20 21  1  0
 22 21  1  6
 22 23  1  0
 22 24  1  0
 24 26  2  0
 24 25  1  0
M  END
$$$$
