KIM.pdb
     RDKit          3D

 26 25  0  0  1  0  0  0  0  0999 V2000
   28.0499  -21.6441  -15.8905 N   0  0  0  0  0  0  0  0  0  0  0  0
   27.3561  -20.5059  -15.3407 C   0  0  1  0  0  0  0  0  0  0  0  0
   26.7070  -19.6713  -16.4586 C   0  0  0  0  0  0  0  0  0  0  0  0
   27.7463  -19.0441  -17.3191 C   0  0  0  0  0  0  0  0  0  0  0  0
   28.5654  -17.9727  -16.7084 C   0  0  0  0  0  0  0  0  0  0  0  0
   29.5639  -17.2978  -17.5748 C   0  0  0  0  0  0  0  0  0  0  0  0
   29.0478  -16.5341  -18.6635 N   0  0  0  0  0  0  0  0  0  0  0  0
   26.3187  -20.9943  -14.3978 C   0  0  0  0  0  0  0  0  0  0  0  0
   25.5657  -21.9558  -14.6993 O   0  0  0  0  0  0  0  0  0  0  0  0
   27.1227  -20.6366   -8.9613 C   0  0  0  0  0  0  0  0  0  0  0  0
   26.7091  -21.1664  -10.3275 C   0  0  0  0  0  0  0  0  0  0  0  0
   25.4167  -20.5476  -10.7889 C   0  0  2  0  0  0  0  0  0  0  0  0
   24.2897  -20.8609   -9.8262 C   0  0  0  0  0  0  0  0  0  0  0  0
   25.0584  -20.8320  -12.2039 C   0  0  2  0  0  0  0  0  0  0  0  0
   26.1173  -20.4137  -13.1170 N   0  0  0  0  0  0  0  0  0  0  0  0
   23.7733  -20.3259  -12.6869 C   0  0  0  0  0  0  0  0  0  0  0  0
   23.6269  -19.0733  -12.8240 O   0  0  0  0  0  0  0  0  0  0  0  0
   20.9667  -21.7897  -18.0744 C   0  0  0  0  0  0  0  0  0  0  0  0
   19.5171  -21.9752  -16.9723 S   0  0  0  0  0  0  0  0  0  0  0  0
   19.8193  -21.0325  -15.4819 C   0  0  0  0  0  0  0  0  0  0  0  0
   21.0981  -21.2693  -14.7858 C   0  0  0  0  0  0  0  0  0  0  0  0
   21.3866  -20.5111  -13.5262 C   0  0  2  0  0  0  0  0  0  0  0  0
   22.6608  -21.1165  -13.0285 N   0  0  0  0  0  0  0  0  0  0  0  0
   20.3927  -20.6807  -12.4786 C   0  0  0  0  0  0  0  0  0  0  0  0
   19.2605  -19.8807  -12.3106 O   0  0  0  0  0  0  0  0  0  0  0  0
   20.5538  -21.6294  -11.6301 O   0  0  0  0  0  0  0  0  0  0  0  0
  2  1  1  6
  3  2  1  0
  4  5  1  0
  4  3  1  0
  6  7  1  0
  6  5  1  0
  8 15  1  0
  8  2  1  0
  9  8  2  0
 10 11  1  0
 12 11  1  0
 12 14  1  0
 12 13  1  1
 14 15  1  6
 16 14  1  0
 16 23  1  0
 17 16  2  0
 18 19  1  0
 19 20  1  0
 20 21  1  0
 22 21  1  6
 22 23  1  0
 22 24  1  0
 24 26  2  0
 24 25  1  0
M  END
$$$$
