KIM.pdb
     RDKit          3D

 26 25  0  0  1  0  0  0  0  0999 V2000
   13.4198  -10.6891  -13.1505 N   0  0  0  0  0  0  0  0  0  0  0  0
   14.7882  -10.6754  -12.6962 C   0  0  1  0  0  0  0  0  0  0  0  0
   15.7289  -11.2234  -13.7836 C   0  0  0  0  0  0  0  0  0  0  0  0
   15.4487  -12.6607  -14.0473 C   0  0  0  0  0  0  0  0  0  0  0  0
   15.8559  -13.6262  -13.0014 C   0  0  0  0  0  0  0  0  0  0  0  0
   15.5900  -15.0639  -13.2576 C   0  0  0  0  0  0  0  0  0  0  0  0
   16.6186  -15.7910  -13.9271 N   0  0  0  0  0  0  0  0  0  0  0  0
   15.1592   -9.2793  -12.3539 C   0  0  0  0  0  0  0  0  0  0  0  0
   14.8155   -8.3161  -13.0864 O   0  0  0  0  0  0  0  0  0  0  0  0
   13.9799   -6.9573   -7.9122 C   0  0  0  0  0  0  0  0  0  0  0  0
   14.3759   -7.1717   -9.3667 C   0  0  0  0  0  0  0  0  0  0  0  0
   15.8718   -7.1717   -9.5350 C   0  0  2  0  0  0  0  0  0  0  0  0
   16.4686   -5.8513   -9.0927 C   0  0  0  0  0  0  0  0  0  0  0  0
   16.3491   -7.5959  -10.8780 C   0  0  2  0  0  0  0  0  0  0  0  0
   15.9135   -8.9521  -11.1953 N   0  0  0  0  0  0  0  0  0  0  0  0
   17.7803   -7.4690  -11.1540 C   0  0  0  0  0  0  0  0  0  0  0  0
   18.5754   -8.3110  -10.6364 O   0  0  0  0  0  0  0  0  0  0  0  0
   22.7962  -10.6927  -13.3699 C   0  0  0  0  0  0  0  0  0  0  0  0
   21.4766   -9.8212  -14.2916 S   0  0  0  0  0  0  0  0  0  0  0  0
   21.2949   -8.1818  -13.5984 C   0  0  0  0  0  0  0  0  0  0  0  0
   19.9899   -7.8481  -12.9974 C   0  0  0  0  0  0  0  0  0  0  0  0
   19.8232   -6.5213  -12.3217 C   0  0  2  0  0  0  0  0  0  0  0  0
   18.3711   -6.4821  -11.9643 N   0  0  0  0  0  0  0  0  0  0  0  0
   20.0869   -5.3729  -13.1737 C   0  0  0  0  0  0  0  0  0  0  0  0
   21.3292   -4.7524  -13.3210 O   0  0  0  0  0  0  0  0  0  0  0  0
   19.1147   -4.8732  -13.8453 O   0  0  0  0  0  0  0  0  0  0  0  0
  2  1  1  6
  3  2  1  0
  4  5  1  0
  4  3  1  0
  6  7  1  0
  6  5  1  0
  8 15  1  0
  8  2  1  0
  9  8  2  0
 10 11  1  0
 12 11  1  0
 12 14  1  0
 12 13  1  6
 14 15  1  1
 16 14  1  0
 16 23  1  0
 17 16  2  0
 18 19  1  0
 19 20  1  0
 20 21  1  0
 22 21  1  6
 22 23  1  0
 22 24  1  0
 24 26  2  0
 24 25  1  0
M  END
$$$$
