KIM.pdb
     RDKit          3D

 26 25  0  0  1  0  0  0  0  0999 V2000
   26.6299  -21.2746  -15.2832 N   0  0  0  0  0  0  0  0  0  0  0  0
   25.6363  -20.3801  -14.7433 C   0  0  1  0  0  0  0  0  0  0  0  0
   24.6765  -19.9018  -15.8468 C   0  0  0  0  0  0  0  0  0  0  0  0
   25.3779  -19.0011  -16.8011 C   0  0  0  0  0  0  0  0  0  0  0  0
   26.2373  -19.6434  -17.8213 C   0  0  0  0  0  0  0  0  0  0  0  0
   26.9416  -18.7549  -18.7792 C   0  0  0  0  0  0  0  0  0  0  0  0
   26.1347  -17.8122  -19.4829 N   0  0  0  0  0  0  0  0  0  0  0  0
   24.8823  -21.0949  -13.6830 C   0  0  0  0  0  0  0  0  0  0  0  0
   24.5831  -22.3107  -13.8039 O   0  0  0  0  0  0  0  0  0  0  0  0
   26.1818  -20.0434   -8.6521 C   0  0  0  0  0  0  0  0  0  0  0  0
   25.6956  -20.9067   -9.8081 C   0  0  0  0  0  0  0  0  0  0  0  0
   24.2289  -20.6955  -10.0732 C   0  0  2  0  0  0  0  0  0  0  0  0
   23.3870  -21.2447   -8.9398 C   0  0  0  0  0  0  0  0  0  0  0  0
   23.7632  -21.1548  -11.4087 C   0  0  2  0  0  0  0  0  0  0  0  0
   24.4596  -20.4580  -12.4855 N   0  0  0  0  0  0  0  0  0  0  0  0
   22.3229  -21.1271  -11.6647 C   0  0  0  0  0  0  0  0  0  0  0  0
   21.7824  -20.0219  -11.9735 O   0  0  0  0  0  0  0  0  0  0  0  0
   19.2353  -25.6561  -14.6876 C   0  0  0  0  0  0  0  0  0  0  0  0
   17.8174  -25.2182  -13.6161 S   0  0  0  0  0  0  0  0  0  0  0  0
   18.1994  -23.6854  -12.7760 C   0  0  0  0  0  0  0  0  0  0  0  0
   19.6217  -23.4064  -12.5024 C   0  0  0  0  0  0  0  0  0  0  0  0
   19.9915  -22.1095  -11.8499 C   0  0  2  0  0  0  0  0  0  0  0  0
   21.4619  -22.2382  -11.6064 N   0  0  0  0  0  0  0  0  0  0  0  0
   19.3610  -21.8818  -10.5596 C   0  0  0  0  0  0  0  0  0  0  0  0
   18.1354  -21.2401  -10.3684 O   0  0  0  0  0  0  0  0  0  0  0  0
   19.9642  -22.2893   -9.5033 O   0  0  0  0  0  0  0  0  0  0  0  0
  2  1  1  6
  3  2  1  0
  4  5  1  0
  4  3  1  0
  6  7  1  0
  6  5  1  0
  8 15  1  0
  8  2  1  0
  9  8  2  0
 10 11  1  0
 12 11  1  0
 12 14  1  0
 12 13  1  1
 14 15  1  6
 16 14  1  0
 16 23  1  0
 17 16  2  0
 18 19  1  0
 19 20  1  0
 20 21  1  0
 22 21  1  1
 22 23  1  0
 22 24  1  0
 24 26  2  0
 24 25  1  0
M  END
$$$$
