KIM.pdb
     RDKit          3D

 26 25  0  0  1  0  0  0  0  0999 V2000
   16.1564  -27.0324  -11.5736 N   0  0  0  0  0  0  0  0  0  0  0  0
   15.4860  -26.0636  -10.7422 C   0  0  1  0  0  0  0  0  0  0  0  0
   13.9686  -26.3178  -10.7244 C   0  0  0  0  0  0  0  0  0  0  0  0
   13.3115  -25.6668  -11.8899 C   0  0  0  0  0  0  0  0  0  0  0  0
   13.5318  -24.2125  -12.0578 C   0  0  0  0  0  0  0  0  0  0  0  0
   12.5280  -23.4558  -12.8472 C   0  0  0  0  0  0  0  0  0  0  0  0
   12.2249  -23.9649  -14.1449 N   0  0  0  0  0  0  0  0  0  0  0  0
   16.0374  -26.1579   -9.3671 C   0  0  0  0  0  0  0  0  0  0  0  0
   16.0057  -27.2395   -8.7257 O   0  0  0  0  0  0  0  0  0  0  0  0
   20.5170  -23.6075   -8.3513 C   0  0  0  0  0  0  0  0  0  0  0  0
   19.5170  -24.7368   -8.1444 C   0  0  0  0  0  0  0  0  0  0  0  0
   18.4095  -24.3265   -7.2111 C   0  0  2  0  0  0  0  0  0  0  0  0
   18.9035  -24.2519   -5.7808 C   0  0  0  0  0  0  0  0  0  0  0  0
   17.1559  -25.1151   -7.3448 C   0  0  2  0  0  0  0  0  0  0  0  0
   16.6257  -25.0484   -8.7029 N   0  0  0  0  0  0  0  0  0  0  0  0
   16.0819  -24.8376   -6.3906 C   0  0  0  0  0  0  0  0  0  0  0  0
   15.0830  -24.1601   -6.7809 O   0  0  0  0  0  0  0  0  0  0  0  0
   11.6085  -27.1226   -6.4346 C   0  0  0  0  0  0  0  0  0  0  0  0
   11.1273  -26.6389   -4.7362 S   0  0  0  0  0  0  0  0  0  0  0  0
   12.4541  -25.6678   -4.0305 C   0  0  0  0  0  0  0  0  0  0  0  0
   13.7605  -25.7201   -4.7133 C   0  0  0  0  0  0  0  0  0  0  0  0
   14.9046  -24.9368   -4.1458 C   0  0  2  0  0  0  0  0  0  0  0  0
   16.0484  -25.2677   -5.0514 N   0  0  0  0  0  0  0  0  0  0  0  0
   15.2951  -25.3274   -2.8008 C   0  0  0  0  0  0  0  0  0  0  0  0
   14.7252  -24.8337   -1.6253 O   0  0  0  0  0  0  0  0  0  0  0  0
   16.2379  -26.1864   -2.6623 O   0  0  0  0  0  0  0  0  0  0  0  0
  2  1  1  6
  3  2  1  0
  4  5  1  0
  4  3  1  0
  6  7  1  0
  6  5  1  0
  8 15  1  0
  8  2  1  0
  9  8  2  0
 10 11  1  0
 12 11  1  0
 12 14  1  0
 12 13  1  1
 14 15  1  6
 16 14  1  0
 16 23  1  0
 17 16  2  0
 18 19  1  0
 19 20  1  0
 20 21  1  0
 22 21  1  6
 22 23  1  0
 22 24  1  0
 24 26  2  0
 24 25  1  0
M  END
$$$$
