KIM.pdb
     RDKit          3D

 26 25  0  0  1  0  0  0  0  0999 V2000
   28.3824  -20.6768  -15.9601 N   0  0  0  0  0  0  0  0  0  0  0  0
   27.6340  -19.7231  -15.1794 C   0  0  1  0  0  0  0  0  0  0  0  0
   26.9842  -18.6652  -16.0882 C   0  0  0  0  0  0  0  0  0  0  0  0
   27.9730  -18.1274  -17.0613 C   0  0  0  0  0  0  0  0  0  0  0  0
   27.4498  -17.6843  -18.3735 C   0  0  0  0  0  0  0  0  0  0  0  0
   26.0913  -17.0870  -18.4014 C   0  0  0  0  0  0  0  0  0  0  0  0
   25.6053  -16.6724  -19.6769 N   0  0  0  0  0  0  0  0  0  0  0  0
   26.5910  -20.4521  -14.4149 C   0  0  0  0  0  0  0  0  0  0  0  0
   26.1046  -21.5305  -14.8425 O   0  0  0  0  0  0  0  0  0  0  0  0
   26.9729  -21.0402   -9.0900 C   0  0  0  0  0  0  0  0  0  0  0  0
   26.6589  -21.2816  -10.5602 C   0  0  0  0  0  0  0  0  0  0  0  0
   25.3474  -20.6552  -10.9522 C   0  0  2  0  0  0  0  0  0  0  0  0
   24.2097  -21.2093  -10.1193 C   0  0  0  0  0  0  0  0  0  0  0  0
   25.0553  -20.6785  -12.4102 C   0  0  2  0  0  0  0  0  0  0  0  0
   26.0872  -19.9825  -13.1723 N   0  0  0  0  0  0  0  0  0  0  0  0
   23.7369  -20.2113  -12.8395 C   0  0  0  0  0  0  0  0  0  0  0  0
   23.4318  -18.9950  -12.6479 O   0  0  0  0  0  0  0  0  0  0  0  0
   21.7259  -21.3322  -18.3323 C   0  0  0  0  0  0  0  0  0  0  0  0
   20.0323  -20.8876  -17.7991 S   0  0  0  0  0  0  0  0  0  0  0  0
   20.0709  -20.5255  -16.0473 C   0  0  0  0  0  0  0  0  0  0  0  0
   21.3345  -20.7922  -15.3346 C   0  0  0  0  0  0  0  0  0  0  0  0
   21.4357  -20.4329  -13.8836 C   0  0  2  0  0  0  0  0  0  0  0  0
   22.7552  -21.0007  -13.4660 N   0  0  0  0  0  0  0  0  0  0  0  0
   20.4201  -21.0408  -13.0391 C   0  0  0  0  0  0  0  0  0  0  0  0
   19.1779  -20.4744  -12.7452 O   0  0  0  0  0  0  0  0  0  0  0  0
   20.6679  -22.1826  -12.5094 O   0  0  0  0  0  0  0  0  0  0  0  0
  2  1  1  6
  3  2  1  0
  4  5  1  0
  4  3  1  0
  6  7  1  0
  6  5  1  0
  8 15  1  0
  8  2  1  0
  9  8  2  0
 10 11  1  0
 12 11  1  0
 12 14  1  0
 12 13  1  1
 14 15  1  6
 16 14  1  0
 16 23  1  0
 17 16  2  0
 18 19  1  0
 19 20  1  0
 20 21  1  0
 22 21  1  6
 22 23  1  0
 22 24  1  0
 24 26  2  0
 24 25  1  0
M  END
$$$$
