KIM.pdb
     RDKit          3D

 26 25  0  0  1  0  0  0  0  0999 V2000
   26.7638  -21.5334  -13.1279 N   0  0  0  0  0  0  0  0  0  0  0  0
   26.0412  -20.4749  -12.4671 C   0  0  1  0  0  0  0  0  0  0  0  0
   24.8080  -20.0612  -13.2891 C   0  0  0  0  0  0  0  0  0  0  0  0
   25.1236  -20.0500  -14.7431 C   0  0  0  0  0  0  0  0  0  0  0  0
   25.1570  -18.7297  -15.4120 C   0  0  0  0  0  0  0  0  0  0  0  0
   25.3968  -18.7113  -16.8766 C   0  0  0  0  0  0  0  0  0  0  0  0
   25.3614  -17.4338  -17.5105 N   0  0  0  0  0  0  0  0  0  0  0  0
   25.6253  -20.9526  -11.1245 C   0  0  0  0  0  0  0  0  0  0  0  0
   25.2574  -22.1415  -10.9415 O   0  0  0  0  0  0  0  0  0  0  0  0
   28.2447  -18.9539   -6.8313 C   0  0  0  0  0  0  0  0  0  0  0  0
   27.5343  -19.8672   -7.8210 C   0  0  0  0  0  0  0  0  0  0  0  0
   26.0457  -19.8683   -7.5972 C   0  0  2  0  0  0  0  0  0  0  0  0
   25.7066  -20.3395   -6.1978 C   0  0  0  0  0  0  0  0  0  0  0  0
   25.2572  -20.5690   -8.6454 C   0  0  2  0  0  0  0  0  0  0  0  0
   25.6180  -20.1079   -9.9822 N   0  0  0  0  0  0  0  0  0  0  0  0
   23.8006  -20.5639   -8.5072 C   0  0  0  0  0  0  0  0  0  0  0  0
   23.1371  -19.6636   -9.1057 O   0  0  0  0  0  0  0  0  0  0  0  0
   20.6298  -21.3733  -12.3572 C   0  0  0  0  0  0  0  0  0  0  0  0
   19.5433  -22.4602  -11.3630 S   0  0  0  0  0  0  0  0  0  0  0  0
   19.8587  -22.1391   -9.6314 C   0  0  0  0  0  0  0  0  0  0  0  0
   21.2543  -21.8594   -9.2441 C   0  0  0  0  0  0  0  0  0  0  0  0
   21.5534  -21.5170   -7.8165 C   0  0  2  0  0  0  0  0  0  0  0  0
   23.0481  -21.4896   -7.7612 N   0  0  0  0  0  0  0  0  0  0  0  0
   21.1062  -22.5085   -6.8516 C   0  0  0  0  0  0  0  0  0  0  0  0
   19.8721  -22.4915   -6.1982 O   0  0  0  0  0  0  0  0  0  0  0  0
   21.8942  -23.4782   -6.5606 O   0  0  0  0  0  0  0  0  0  0  0  0
  2  1  1  6
  3  2  1  0
  4  5  1  0
  4  3  1  0
  6  7  1  0
  6  5  1  0
  8 15  1  0
  8  2  1  0
  9  8  2  0
 10 11  1  0
 12 11  1  0
 12 14  1  0
 12 13  1  1
 14 15  1  6
 16 14  1  0
 16 23  1  0
 17 16  2  0
 18 19  1  0
 19 20  1  0
 20 21  1  0
 22 21  1  6
 22 23  1  0
 22 24  1  0
 24 26  2  0
 24 25  1  0
M  END
$$$$
