TFK.pdb
     RDKit          3D

 28 28  0  0  1  0  0  0  0  0999 V2000
    8.0325  -18.4734   18.6325 C   0  0  0  0  0  0  0  0  0  0  0  0
    8.3186  -17.7672   19.9301 C   0  0  1  0  0  0  0  0  0  0  0  0
    9.1821  -18.4669   20.7480 O   0  0  0  0  0  0  0  0  0  0  0  0
    8.8353  -16.3735   19.7554 C   0  0  2  0  0  0  0  0  0  0  0  0
   10.0796  -16.3082   19.0439 N   0  0  0  0  0  0  0  0  0  0  0  0
    9.0606  -15.8019   21.1125 C   0  0  0  0  0  0  0  0  0  0  0  0
   10.1983  -15.9591   21.6105 O   0  0  0  0  0  0  0  0  0  0  0  0
    8.0849  -15.1132   21.8416 N   0  0  0  0  0  0  0  0  0  0  0  0
    8.2805  -14.5804   23.1888 C   0  0  1  0  0  0  0  0  0  0  0  0
    7.1382  -13.6754   23.5769 C   0  0  0  0  0  0  0  0  0  0  0  0
    7.2707  -13.1006   24.9325 C   0  0  0  0  0  0  0  0  0  0  0  0
    8.2905  -12.2619   25.3317 C   0  0  0  0  0  0  0  0  0  0  0  0
    8.3322  -11.7712   26.6170 C   0  0  0  0  0  0  0  0  0  0  0  0
    7.3666  -12.0922   27.5547 C   0  0  0  0  0  0  0  0  0  0  0  0
    6.3462  -12.9315   27.1551 C   0  0  0  0  0  0  0  0  0  0  0  0
    6.3023  -13.4246   25.8671 C   0  0  0  0  0  0  0  0  0  0  0  0
    8.5307  -15.6743   24.1582 C   0  0  0  0  0  0  0  0  0  0  0  0
    7.6861  -16.5973   24.2527 O   0  0  0  0  0  0  0  0  0  0  0  0
    9.6757  -15.7240   24.9789 N   0  0  0  0  0  0  0  0  0  0  0  0
    9.8953  -16.9271   25.8024 C   0  0  1  0  0  0  0  0  0  0  0  0
   11.2792  -17.4417   25.5874 C   0  0  0  0  0  0  0  0  0  0  0  0
   11.3475  -18.3191   24.3742 C   0  0  0  0  0  0  0  0  0  0  0  0
   12.7761  -18.8642   24.1863 C   0  0  0  0  0  0  0  0  0  0  0  0
   12.6968  -19.7551   22.9463 C   0  0  0  0  0  0  0  0  0  0  0  0
   13.9691  -20.3098   22.5962 N   0  0  0  0  0  0  0  0  0  0  0  0
    9.6585  -16.6104   27.2183 C   0  0  0  0  0  0  0  0  0  0  0  0
    8.6823  -17.1771   27.8197 O   0  0  0  0  0  0  0  0  0  0  0  0
   10.4117  -15.7430   27.9695 O   0  0  0  0  0  0  0  0  0  0  0  0
  2  1  1  6
  2  4  1  0
  3  2  1  0
  4  5  1  6
  4  6  1  0
  6  7  2  0
  8  6  1  0
  8  9  1  0
  9 10  1  1
 10 11  1  0
 11 12  2  0
 12 13  1  0
 14 13  2  0
 15 14  1  0
 16 11  1  0
 16 15  2  0
 17 19  1  0
 17  9  1  0
 18 17  2  0
 20 21  1  1
 20 19  1  0
 22 23  1  0
 22 21  1  0
 24 25  1  0
 24 23  1  0
 26 20  1  0
 26 28  1  0
 27 26  2  0
M  END
$$$$
