TFK.pdb
     RDKit          3D

 28 28  0  0  1  0  0  0  0  0999 V2000
    6.5655  -17.5592   19.3529 C   0  0  0  0  0  0  0  0  0  0  0  0
    7.4877  -17.1810   20.4802 C   0  0  1  0  0  0  0  0  0  0  0  0
    8.5997  -17.9936   20.5654 O   0  0  0  0  0  0  0  0  0  0  0  0
    7.9307  -15.7520   20.4413 C   0  0  2  0  0  0  0  0  0  0  0  0
    8.7517  -15.4367   19.3076 N   0  0  0  0  0  0  0  0  0  0  0  0
    8.7367  -15.4954   21.6677 C   0  0  0  0  0  0  0  0  0  0  0  0
    9.9814  -15.5547   21.5489 O   0  0  0  0  0  0  0  0  0  0  0  0
    8.1830  -15.1982   22.9179 N   0  0  0  0  0  0  0  0  0  0  0  0
    8.9548  -15.0479   24.1504 C   0  0  1  0  0  0  0  0  0  0  0  0
    8.1130  -14.4249   25.2356 C   0  0  0  0  0  0  0  0  0  0  0  0
    8.8225  -14.2736   26.5238 C   0  0  0  0  0  0  0  0  0  0  0  0
    9.5436  -13.1577   26.8949 C   0  0  0  0  0  0  0  0  0  0  0  0
   10.1716  -13.1038   28.1185 C   0  0  0  0  0  0  0  0  0  0  0  0
   10.1093  -14.1516   29.0200 C   0  0  0  0  0  0  0  0  0  0  0  0
    9.3877  -15.2681   28.6486 C   0  0  0  0  0  0  0  0  0  0  0  0
    8.7574  -15.3245   27.4224 C   0  0  0  0  0  0  0  0  0  0  0  0
    9.5779  -16.3348   24.5435 C   0  0  0  0  0  0  0  0  0  0  0  0
    8.8558  -17.3595   24.5977 O   0  0  0  0  0  0  0  0  0  0  0  0
   10.9460  -16.4589   24.8593 N   0  0  0  0  0  0  0  0  0  0  0  0
   11.4637  -17.7920   25.2185 C   0  0  1  0  0  0  0  0  0  0  0  0
   12.7485  -18.0452   24.5033 C   0  0  0  0  0  0  0  0  0  0  0  0
   13.2998  -19.3966   24.8440 C   0  0  0  0  0  0  0  0  0  0  0  0
   14.6073  -19.6530   24.0706 C   0  0  0  0  0  0  0  0  0  0  0  0
   15.1395  -20.9744   24.6257 C   0  0  0  0  0  0  0  0  0  0  0  0
   16.3739  -21.3609   24.0127 N   0  0  0  0  0  0  0  0  0  0  0  0
   11.6381  -17.8816   26.6754 C   0  0  0  0  0  0  0  0  0  0  0  0
   12.1518  -16.8876   27.2950 O   0  0  0  0  0  0  0  0  0  0  0  0
   11.2872  -18.9610   27.4472 O   0  0  0  0  0  0  0  0  0  0  0  0
  2  1  1  6
  2  4  1  0
  3  2  1  0
  4  5  1  6
  4  6  1  0
  6  7  2  0
  8  6  1  0
  8  9  1  0
  9 10  1  1
 10 11  1  0
 11 12  2  0
 12 13  1  0
 14 13  2  0
 15 14  1  0
 16 11  1  0
 16 15  2  0
 17 19  1  0
 17  9  1  0
 18 17  2  0
 20 21  1  6
 20 19  1  0
 22 23  1  0
 22 21  1  0
 24 25  1  0
 24 23  1  0
 26 20  1  0
 26 28  1  0
 27 26  2  0
M  END
$$$$
