TFK.pdb
     RDKit          3D

 28 28  0  0  1  0  0  0  0  0999 V2000
    7.7621  -18.2629   18.7209 C   0  0  0  0  0  0  0  0  0  0  0  0
    8.0832  -17.6446   20.0546 C   0  0  1  0  0  0  0  0  0  0  0  0
    8.7962  -18.4862   20.8837 O   0  0  0  0  0  0  0  0  0  0  0  0
    8.8028  -16.3362   19.9535 C   0  0  2  0  0  0  0  0  0  0  0  0
   10.1094  -16.4440   19.3705 N   0  0  0  0  0  0  0  0  0  0  0  0
    8.9674  -15.8033   21.3349 C   0  0  0  0  0  0  0  0  0  0  0  0
   10.0082  -16.1324   21.9477 O   0  0  0  0  0  0  0  0  0  0  0  0
    8.0365  -14.9716   21.9671 N   0  0  0  0  0  0  0  0  0  0  0  0
    8.1438  -14.5098   23.3499 C   0  0  1  0  0  0  0  0  0  0  0  0
    7.0759  -13.4903   23.6576 C   0  0  0  0  0  0  0  0  0  0  0  0
    7.1335  -12.9693   25.0399 C   0  0  0  0  0  0  0  0  0  0  0  0
    6.1566  -13.1679   25.9935 C   0  0  0  0  0  0  0  0  0  0  0  0
    6.2962  -12.6459   27.2594 C   0  0  0  0  0  0  0  0  0  0  0  0
    7.4071  -11.9082   27.6286 C   0  0  0  0  0  0  0  0  0  0  0  0
    8.3845  -11.7095   26.6744 C   0  0  0  0  0  0  0  0  0  0  0  0
    8.2467  -12.2318   25.4046 C   0  0  0  0  0  0  0  0  0  0  0  0
    8.1620  -15.6567   24.2898 C   0  0  0  0  0  0  0  0  0  0  0  0
    7.2584  -16.5223   24.1980 O   0  0  0  0  0  0  0  0  0  0  0  0
    9.1497  -15.8184   25.2825 N   0  0  0  0  0  0  0  0  0  0  0  0
    9.2761  -17.1336   25.9368 C   0  0  1  0  0  0  0  0  0  0  0  0
    9.8322  -18.1271   24.9725 C   0  0  0  0  0  0  0  0  0  0  0  0
   10.0044  -19.4690   25.6174 C   0  0  0  0  0  0  0  0  0  0  0  0
   10.6378  -20.4633   24.6257 C   0  0  0  0  0  0  0  0  0  0  0  0
   10.7371  -21.7791   25.3980 C   0  0  0  0  0  0  0  0  0  0  0  0
   11.4244  -22.7918   24.6557 N   0  0  0  0  0  0  0  0  0  0  0  0
   10.1264  -17.0155   27.1302 C   0  0  0  0  0  0  0  0  0  0  0  0
    9.9090  -17.7966   28.1193 O   0  0  0  0  0  0  0  0  0  0  0  0
   11.1585  -16.1228   27.2785 O   0  0  0  0  0  0  0  0  0  0  0  0
  2  1  1  6
  2  4  1  0
  3  2  1  0
  4  5  1  1
  4  6  1  0
  6  7  2  0
  8  6  1  0
  8  9  1  0
  9 10  1  1
 10 11  1  0
 11 12  2  0
 12 13  1  0
 14 13  2  0
 15 14  1  0
 16 11  1  0
 16 15  2  0
 17 19  1  0
 17  9  1  0
 18 17  2  0
 20 21  1  6
 20 19  1  0
 22 23  1  0
 22 21  1  0
 24 25  1  0
 24 23  1  0
 26 20  1  0
 26 28  1  0
 27 26  2  0
M  END
$$$$
