TFK.pdb
     RDKit          3D

 28 28  0  0  1  0  0  0  0  0999 V2000
    8.9448  -19.0121   19.1852 C   0  0  0  0  0  0  0  0  0  0  0  0
    9.0788  -18.1519   20.4126 C   0  0  1  0  0  0  0  0  0  0  0  0
   10.1135  -18.5434   21.2374 O   0  0  0  0  0  0  0  0  0  0  0  0
    9.2211  -16.6927   20.1119 C   0  0  2  0  0  0  0  0  0  0  0  0
   10.3842  -16.3785   19.3327 N   0  0  0  0  0  0  0  0  0  0  0  0
    9.3403  -15.9735   21.4111 C   0  0  0  0  0  0  0  0  0  0  0  0
   10.4930  -15.8426   21.8813 O   0  0  0  0  0  0  0  0  0  0  0  0
    8.2513  -15.4486   22.1158 N   0  0  0  0  0  0  0  0  0  0  0  0
    8.3479  -14.7865   23.4156 C   0  0  1  0  0  0  0  0  0  0  0  0
    7.1115  -13.9684   23.6920 C   0  0  0  0  0  0  0  0  0  0  0  0
    7.1195  -13.3096   25.0155 C   0  0  0  0  0  0  0  0  0  0  0  0
    6.4536  -13.7793   26.1286 C   0  0  0  0  0  0  0  0  0  0  0  0
    6.5195  -13.0995   27.3236 C   0  0  0  0  0  0  0  0  0  0  0  0
    7.2464  -11.9303   27.4615 C   0  0  0  0  0  0  0  0  0  0  0  0
    7.9126  -11.4604   26.3477 C   0  0  0  0  0  0  0  0  0  0  0  0
    7.8480  -12.1402   25.1486 C   0  0  0  0  0  0  0  0  0  0  0  0
    8.6674  -15.7643   24.4838 C   0  0  0  0  0  0  0  0  0  0  0  0
    8.0219  -16.8394   24.5260 O   0  0  0  0  0  0  0  0  0  0  0  0
    9.6644  -15.5400   25.4547 N   0  0  0  0  0  0  0  0  0  0  0  0
   10.0476  -16.6582   26.3361 C   0  0  1  0  0  0  0  0  0  0  0  0
   11.3001  -17.2933   25.8319 C   0  0  0  0  0  0  0  0  0  0  0  0
   11.0454  -18.6937   25.3627 C   0  0  0  0  0  0  0  0  0  0  0  0
   12.3545  -19.3418   24.8732 C   0  0  0  0  0  0  0  0  0  0  0  0
   11.9590  -20.7580   24.4541 C   0  0  0  0  0  0  0  0  0  0  0  0
   13.0553  -21.4789   23.8818 N   0  0  0  0  0  0  0  0  0  0  0  0
   10.2140  -16.1712   27.7132 C   0  0  0  0  0  0  0  0  0  0  0  0
   10.2700  -14.9098   27.9162 O   0  0  0  0  0  0  0  0  0  0  0  0
   10.3134  -16.9691   28.8257 O   0  0  0  0  0  0  0  0  0  0  0  0
  2  1  1  6
  2  4  1  0
  3  2  1  0
  4  5  1  6
  4  6  1  0
  6  7  2  0
  8  6  1  0
  8  9  1  0
  9 10  1  1
 10 11  1  0
 11 12  2  0
 12 13  1  0
 14 13  2  0
 15 14  1  0
 16 11  1  0
 16 15  2  0
 17 19  1  0
 17  9  1  0
 18 17  2  0
 20 21  1  6
 20 19  1  0
 22 23  1  0
 22 21  1  0
 24 25  1  0
 24 23  1  0
 26 20  1  0
 26 28  1  0
 27 26  2  0
M  END
$$$$
