TFK.pdb
     RDKit          3D

 28 28  0  0  1  0  0  0  0  0999 V2000
    9.0548  -18.9632   19.0812 C   0  0  0  0  0  0  0  0  0  0  0  0
    9.2181  -18.1245   20.3198 C   0  0  1  0  0  0  0  0  0  0  0  0
   10.1942  -18.6006   21.1710 O   0  0  0  0  0  0  0  0  0  0  0  0
    9.4817  -16.6787   20.0369 C   0  0  2  0  0  0  0  0  0  0  0  0
   10.7268  -16.4439   19.3636 N   0  0  0  0  0  0  0  0  0  0  0  0
    9.5335  -15.9649   21.3435 C   0  0  0  0  0  0  0  0  0  0  0  0
   10.6570  -15.8574   21.8849 O   0  0  0  0  0  0  0  0  0  0  0  0
    8.4130  -15.4209   21.9810 N   0  0  0  0  0  0  0  0  0  0  0  0
    8.4350  -14.7933   23.3011 C   0  0  1  0  0  0  0  0  0  0  0  0
    7.1817  -13.9864   23.5305 C   0  0  0  0  0  0  0  0  0  0  0  0
    7.0922  -13.4014   24.8852 C   0  0  0  0  0  0  0  0  0  0  0  0
    6.2291  -13.8346   25.8703 C   0  0  0  0  0  0  0  0  0  0  0  0
    6.2164  -13.2300   27.1068 C   0  0  0  0  0  0  0  0  0  0  0  0
    7.0570  -12.1748   27.4143 C   0  0  0  0  0  0  0  0  0  0  0  0
    7.9205  -11.7415   26.4286 C   0  0  0  0  0  0  0  0  0  0  0  0
    7.9350  -12.3460   25.1882 C   0  0  0  0  0  0  0  0  0  0  0  0
    8.6995  -15.7981   24.3591 C   0  0  0  0  0  0  0  0  0  0  0  0
    7.9524  -16.8035   24.4323 O   0  0  0  0  0  0  0  0  0  0  0  0
    9.7533  -15.6746   25.2871 N   0  0  0  0  0  0  0  0  0  0  0  0
   10.0266  -16.8068   26.1913 C   0  0  1  0  0  0  0  0  0  0  0  0
   11.3985  -17.3361   25.9386 C   0  0  0  0  0  0  0  0  0  0  0  0
   11.7426  -18.4294   26.9043 C   0  0  0  0  0  0  0  0  0  0  0  0
   12.9957  -19.1896   26.4295 C   0  0  0  0  0  0  0  0  0  0  0  0
   13.1996  -20.2963   27.4645 C   0  0  0  0  0  0  0  0  0  0  0  0
   14.2167  -21.2238   27.0718 N   0  0  0  0  0  0  0  0  0  0  0  0
    9.8703  -16.3764   27.5882 C   0  0  0  0  0  0  0  0  0  0  0  0
    9.2578  -17.1479   28.4039 O   0  0  0  0  0  0  0  0  0  0  0  0
   10.3371  -15.1943   28.1067 O   0  0  0  0  0  0  0  0  0  0  0  0
  2  1  1  6
  2  4  1  0
  3  2  1  0
  4  5  1  1
  4  6  1  0
  6  7  2  0
  8  6  1  0
  8  9  1  0
  9 10  1  1
 10 11  1  0
 11 12  2  0
 12 13  1  0
 14 13  2  0
 15 14  1  0
 16 11  1  0
 16 15  2  0
 17 19  1  0
 17  9  1  0
 18 17  2  0
 20 21  1  1
 20 19  1  0
 22 23  1  0
 22 21  1  0
 24 25  1  0
 24 23  1  0
 26 20  1  0
 26 28  1  0
 27 26  2  0
M  END
$$$$
