TFK.pdb
     RDKit          3D

 28 28  0  0  1  0  0  0  0  0999 V2000
    7.5522  -18.4676   18.6817 C   0  0  0  0  0  0  0  0  0  0  0  0
    8.0080  -17.8099   19.9561 C   0  0  1  0  0  0  0  0  0  0  0  0
    8.8698  -18.5965   20.6927 O   0  0  0  0  0  0  0  0  0  0  0  0
    8.6320  -16.4655   19.7494 C   0  0  2  0  0  0  0  0  0  0  0  0
    9.8679  -16.5126   19.0220 N   0  0  0  0  0  0  0  0  0  0  0  0
    8.9207  -15.8901   21.0929 C   0  0  0  0  0  0  0  0  0  0  0  0
   10.0345  -16.1603   21.5963 O   0  0  0  0  0  0  0  0  0  0  0  0
    8.0278  -15.0807   21.8039 N   0  0  0  0  0  0  0  0  0  0  0  0
    8.2719  -14.5616   23.1486 C   0  0  1  0  0  0  0  0  0  0  0  0
    7.2378  -13.5281   23.5186 C   0  0  0  0  0  0  0  0  0  0  0  0
    7.4019  -12.9871   24.8846 C   0  0  0  0  0  0  0  0  0  0  0  0
    8.4856  -12.2466   25.3092 C   0  0  0  0  0  0  0  0  0  0  0  0
    8.5528  -11.7804   26.6025 C   0  0  0  0  0  0  0  0  0  0  0  0
    7.5505  -12.0295   27.5234 C   0  0  0  0  0  0  0  0  0  0  0  0
    6.4663  -12.7704   27.0985 C   0  0  0  0  0  0  0  0  0  0  0  0
    6.3967  -13.2389   25.8024 C   0  0  0  0  0  0  0  0  0  0  0  0
    8.3867  -15.6683   24.1290 C   0  0  0  0  0  0  0  0  0  0  0  0
    7.4629  -16.5152   24.1890 O   0  0  0  0  0  0  0  0  0  0  0  0
    9.4878  -15.8117   24.9974 N   0  0  0  0  0  0  0  0  0  0  0  0
    9.5710  -17.0271   25.8280 C   0  0  1  0  0  0  0  0  0  0  0  0
   10.6664  -17.9078   25.3274 C   0  0  0  0  0  0  0  0  0  0  0  0
   10.8658  -19.0883   26.2289 C   0  0  0  0  0  0  0  0  0  0  0  0
   12.0441  -19.9484   25.7337 C   0  0  0  0  0  0  0  0  0  0  0  0
   12.1519  -21.0882   26.7471 C   0  0  0  0  0  0  0  0  0  0  0  0
   13.2825  -21.9297   26.4967 N   0  0  0  0  0  0  0  0  0  0  0  0
    9.7867  -16.6548   27.2337 C   0  0  0  0  0  0  0  0  0  0  0  0
   10.1865  -15.4697   27.5010 O   0  0  0  0  0  0  0  0  0  0  0  0
    9.5893  -17.4847   28.3090 O   0  0  0  0  0  0  0  0  0  0  0  0
  2  1  1  6
  2  4  1  0
  3  2  1  0
  4  5  1  6
  4  6  1  0
  6  7  2  0
  8  6  1  0
  8  9  1  0
  9 10  1  1
 10 11  1  0
 11 12  2  0
 12 13  1  0
 14 13  2  0
 15 14  1  0
 16 11  1  0
 16 15  2  0
 17 19  1  0
 17  9  1  0
 18 17  2  0
 20 21  1  6
 20 19  1  0
 22 23  1  0
 22 21  1  0
 24 25  1  0
 24 23  1  0
 26 20  1  0
 26 28  1  0
 27 26  2  0
M  END
$$$$
