TFK.pdb
     RDKit          3D

 28 28  0  0  1  0  0  0  0  0999 V2000
    7.4966  -18.4680   21.0191 C   0  0  0  0  0  0  0  0  0  0  0  0
    8.6328  -18.1545   20.0836 C   0  0  1  0  0  0  0  0  0  0  0  0
    8.5653  -18.8546   18.8965 O   0  0  0  0  0  0  0  0  0  0  0  0
    8.7779  -16.6960   19.7812 C   0  0  2  0  0  0  0  0  0  0  0  0
    9.8768  -16.3980   18.9079 N   0  0  0  0  0  0  0  0  0  0  0  0
    9.0212  -15.9895   21.0700 C   0  0  0  0  0  0  0  0  0  0  0  0
   10.1804  -16.0508   21.5384 O   0  0  0  0  0  0  0  0  0  0  0  0
    8.0395  -15.2766   21.7671 N   0  0  0  0  0  0  0  0  0  0  0  0
    8.2292  -14.6841   23.0900 C   0  0  1  0  0  0  0  0  0  0  0  0
    7.1439  -13.6797   23.3866 C   0  0  0  0  0  0  0  0  0  0  0  0
    7.2375  -13.0866   24.7375 C   0  0  0  0  0  0  0  0  0  0  0  0
    8.1776  -12.1521   25.1196 C   0  0  0  0  0  0  0  0  0  0  0  0
    8.1878  -11.6518   26.4019 C   0  0  0  0  0  0  0  0  0  0  0  0
    7.2686  -12.0576   27.3532 C   0  0  0  0  0  0  0  0  0  0  0  0
    6.3281  -12.9926   26.9708 C   0  0  0  0  0  0  0  0  0  0  0  0
    6.3159  -13.4955   25.6859 C   0  0  0  0  0  0  0  0  0  0  0  0
    8.3668  -15.7369   24.1253 C   0  0  0  0  0  0  0  0  0  0  0  0
    7.4448  -16.5784   24.2518 O   0  0  0  0  0  0  0  0  0  0  0  0
    9.4877  -15.8349   24.9743 N   0  0  0  0  0  0  0  0  0  0  0  0
    9.6101  -17.0235   25.8381 C   0  0  1  0  0  0  0  0  0  0  0  0
   10.7276  -17.8865   25.3557 C   0  0  0  0  0  0  0  0  0  0  0  0
   10.2089  -19.0604   24.5818 C   0  0  0  0  0  0  0  0  0  0  0  0
   11.3781  -19.8858   24.0115 C   0  0  0  0  0  0  0  0  0  0  0  0
   10.7144  -21.0012   23.2035 C   0  0  0  0  0  0  0  0  0  0  0  0
   11.6721  -21.8968   22.6293 N   0  0  0  0  0  0  0  0  0  0  0  0
    9.8227  -16.6057   27.2315 C   0  0  0  0  0  0  0  0  0  0  0  0
   10.3094  -15.4447   27.4573 O   0  0  0  0  0  0  0  0  0  0  0  0
    9.5354  -17.3677   28.3363 O   0  0  0  0  0  0  0  0  0  0  0  0
  2  1  1  6
  2  4  1  0
  3  2  1  0
  4  5  1  6
  4  6  1  0
  6  7  2  0
  8  6  1  0
  8  9  1  0
  9 10  1  1
 10 11  1  0
 11 12  2  0
 12 13  1  0
 14 13  2  0
 15 14  1  0
 16 11  1  0
 16 15  2  0
 17 19  1  0
 17  9  1  0
 18 17  2  0
 20 21  1  6
 20 19  1  0
 22 23  1  0
 22 21  1  0
 24 25  1  0
 24 23  1  0
 26 20  1  0
 26 28  1  0
 27 26  2  0
M  END
$$$$
