TFK.pdb
     RDKit          3D

 28 28  0  0  1  0  0  0  0  0999 V2000
    8.0503  -18.7259   19.1858 C   0  0  0  0  0  0  0  0  0  0  0  0
    8.3515  -17.9511   20.4401 C   0  0  1  0  0  0  0  0  0  0  0  0
    9.2169  -18.6105   21.2888 O   0  0  0  0  0  0  0  0  0  0  0  0
    8.8759  -16.5729   20.1844 C   0  0  2  0  0  0  0  0  0  0  0  0
   10.1553  -16.5574   19.5349 N   0  0  0  0  0  0  0  0  0  0  0  0
    9.0307  -15.8967   21.5028 C   0  0  0  0  0  0  0  0  0  0  0  0
   10.1542  -15.9741   22.0495 O   0  0  0  0  0  0  0  0  0  0  0  0
    8.0049  -15.1952   22.1458 N   0  0  0  0  0  0  0  0  0  0  0  0
    8.0957  -14.6529   23.5004 C   0  0  1  0  0  0  0  0  0  0  0  0
    7.1133  -13.5247   23.6915 C   0  0  0  0  0  0  0  0  0  0  0  0
    7.0559  -13.0165   25.0786 C   0  0  0  0  0  0  0  0  0  0  0  0
    8.0912  -12.3672   25.7187 C   0  0  0  0  0  0  0  0  0  0  0  0
    7.9471  -11.9252   27.0143 C   0  0  0  0  0  0  0  0  0  0  0  0
    6.7737  -12.1092   27.7242 C   0  0  0  0  0  0  0  0  0  0  0  0
    5.7380  -12.7589   27.0837 C   0  0  0  0  0  0  0  0  0  0  0  0
    5.8801  -13.2029   25.7849 C   0  0  0  0  0  0  0  0  0  0  0  0
    7.9696  -15.7312   24.5105 C   0  0  0  0  0  0  0  0  0  0  0  0
    6.9383  -16.4458   24.5000 O   0  0  0  0  0  0  0  0  0  0  0  0
    8.9570  -15.9899   25.4827 N   0  0  0  0  0  0  0  0  0  0  0  0
    8.8010  -17.1794   26.3400 C   0  0  1  0  0  0  0  0  0  0  0  0
    8.8742  -18.4157   25.5079 C   0  0  0  0  0  0  0  0  0  0  0  0
   10.2255  -18.5638   24.8770 C   0  0  0  0  0  0  0  0  0  0  0  0
   10.2745  -19.8335   24.0058 C   0  0  0  0  0  0  0  0  0  0  0  0
   11.7018  -19.8804   23.4596 C   0  0  0  0  0  0  0  0  0  0  0  0
   11.7321  -20.0555   22.0392 N   0  0  0  0  0  0  0  0  0  0  0  0
    9.8352  -17.1782   27.3848 C   0  0  0  0  0  0  0  0  0  0  0  0
   10.7168  -16.2517   27.3755 O   0  0  0  0  0  0  0  0  0  0  0  0
    9.9383  -18.1027   28.3941 O   0  0  0  0  0  0  0  0  0  0  0  0
  2  1  1  6
  2  4  1  0
  3  2  1  0
  4  5  1  1
  4  6  1  0
  6  7  2  0
  8  6  1  0
  8  9  1  0
  9 10  1  1
 10 11  1  0
 11 12  2  0
 12 13  1  0
 14 13  2  0
 15 14  1  0
 16 11  1  0
 16 15  2  0
 17 19  1  0
 17  9  1  0
 18 17  2  0
 20 21  1  6
 20 19  1  0
 22 23  1  0
 22 21  1  0
 24 25  1  0
 24 23  1  0
 26 20  1  0
 26 28  1  0
 27 26  2  0
M  END
$$$$
