TFK.pdb
     RDKit          3D

 28 28  0  0  1  0  0  0  0  0999 V2000
    8.5480  -19.6511   22.5033 C   0  0  0  0  0  0  0  0  0  0  0  0
    9.2075  -19.2006   21.2279 C   0  0  1  0  0  0  0  0  0  0  0  0
    9.1631  -20.1527   20.2302 O   0  0  0  0  0  0  0  0  0  0  0  0
    8.6676  -17.9107   20.6945 C   0  0  2  0  0  0  0  0  0  0  0  0
    9.3158  -17.4712   19.4923 N   0  0  0  0  0  0  0  0  0  0  0  0
    8.8862  -16.8656   21.7333 C   0  0  0  0  0  0  0  0  0  0  0  0
   10.0564  -16.4436   21.8734 O   0  0  0  0  0  0  0  0  0  0  0  0
    7.8705  -16.3440   22.5422 N   0  0  0  0  0  0  0  0  0  0  0  0
    8.0878  -15.4057   23.6420 C   0  0  1  0  0  0  0  0  0  0  0  0
    6.8536  -14.5742   23.8870 C   0  0  0  0  0  0  0  0  0  0  0  0
    6.9801  -13.6474   25.0318 C   0  0  0  0  0  0  0  0  0  0  0  0
    6.2873  -13.7688   26.2185 C   0  0  0  0  0  0  0  0  0  0  0  0
    6.4707  -12.8576   27.2337 C   0  0  0  0  0  0  0  0  0  0  0  0
    7.3461  -11.7929   27.1124 C   0  0  0  0  0  0  0  0  0  0  0  0
    8.0392  -11.6715   25.9250 C   0  0  0  0  0  0  0  0  0  0  0  0
    7.8570  -12.5838   24.9058 C   0  0  0  0  0  0  0  0  0  0  0  0
    8.5805  -16.1119   24.8492 C   0  0  0  0  0  0  0  0  0  0  0  0
    7.9359  -17.1028   25.2699 O   0  0  0  0  0  0  0  0  0  0  0  0
    9.7415  -15.7199   25.5460 N   0  0  0  0  0  0  0  0  0  0  0  0
   10.2712  -16.6202   26.5866 C   0  0  1  0  0  0  0  0  0  0  0  0
   11.5911  -17.1680   26.1574 C   0  0  0  0  0  0  0  0  0  0  0  0
   11.5667  -18.6659   26.1142 C   0  0  0  0  0  0  0  0  0  0  0  0
   12.9099  -19.2094   25.5908 C   0  0  0  0  0  0  0  0  0  0  0  0
   12.7814  -20.7301   25.6833 C   0  0  0  0  0  0  0  0  0  0  0  0
   13.6393  -21.4031   24.7559 N   0  0  0  0  0  0  0  0  0  0  0  0
   10.3837  -15.8956   27.8607 C   0  0  0  0  0  0  0  0  0  0  0  0
   10.8100  -16.5244   28.8895 O   0  0  0  0  0  0  0  0  0  0  0  0
   10.0675  -14.5729   28.0468 O   0  0  0  0  0  0  0  0  0  0  0  0
  2  1  1  1
  2  4  1  0
  3  2  1  0
  4  5  1  6
  4  6  1  0
  6  7  2  0
  8  6  1  0
  8  9  1  0
  9 10  1  1
 10 11  1  0
 11 12  2  0
 12 13  1  0
 14 13  2  0
 15 14  1  0
 16 11  1  0
 16 15  2  0
 17 19  1  0
 17  9  1  0
 18 17  2  0
 20 21  1  6
 20 19  1  0
 22 23  1  0
 22 21  1  0
 24 25  1  0
 24 23  1  0
 26 20  1  0
 26 28  1  0
 27 26  2  0
M  END
$$$$
