TFK.pdb
     RDKit          3D

 28 28  0  0  1  0  0  0  0  0999 V2000
    6.9684  -15.0050   18.6890 C   0  0  0  0  0  0  0  0  0  0  0  0
    7.5082  -15.0716   20.0920 C   0  0  1  0  0  0  0  0  0  0  0  0
    8.6833  -15.7888   20.1863 O   0  0  0  0  0  0  0  0  0  0  0  0
    7.7045  -13.7299   20.7254 C   0  0  2  0  0  0  0  0  0  0  0  0
    8.5259  -12.8446   19.9505 N   0  0  0  0  0  0  0  0  0  0  0  0
    8.3815  -13.9433   22.0351 C   0  0  0  0  0  0  0  0  0  0  0  0
    9.5846  -13.6063   22.1113 O   0  0  0  0  0  0  0  0  0  0  0  0
    7.7526  -14.4898   23.1593 N   0  0  0  0  0  0  0  0  0  0  0  0
    8.3887  -14.6554   24.4651 C   0  0  1  0  0  0  0  0  0  0  0  0
    7.3635  -14.6020   25.5698 C   0  0  0  0  0  0  0  0  0  0  0  0
    7.0731  -13.2322   26.0440 C   0  0  0  0  0  0  0  0  0  0  0  0
    5.8298  -12.7889   26.4450 C   0  0  0  0  0  0  0  0  0  0  0  0
    5.6525  -11.4934   26.8750 C   0  0  0  0  0  0  0  0  0  0  0  0
    6.6984  -10.5889   26.9241 C   0  0  0  0  0  0  0  0  0  0  0  0
    7.9423  -11.0325   26.5228 C   0  0  0  0  0  0  0  0  0  0  0  0
    8.1225  -12.3307   26.0914 C   0  0  0  0  0  0  0  0  0  0  0  0
    9.2308  -15.8758   24.4912 C   0  0  0  0  0  0  0  0  0  0  0  0
    9.5553  -16.3573   25.6035 O   0  0  0  0  0  0  0  0  0  0  0  0
    9.6835  -16.5197   23.3218 N   0  0  0  0  0  0  0  0  0  0  0  0
   10.4363  -17.7796   23.4629 C   0  0  1  0  0  0  0  0  0  0  0  0
   10.7490  -18.3358   22.1142 C   0  0  0  0  0  0  0  0  0  0  0  0
   11.5017  -19.6272   22.2229 C   0  0  0  0  0  0  0  0  0  0  0  0
   11.8478  -20.1659   20.8217 C   0  0  0  0  0  0  0  0  0  0  0  0
   12.5855  -21.4805   21.0773 C   0  0  0  0  0  0  0  0  0  0  0  0
   13.1420  -22.0306   19.8787 N   0  0  0  0  0  0  0  0  0  0  0  0
   11.6622  -17.5420   24.2387 C   0  0  0  0  0  0  0  0  0  0  0  0
   12.0805  -18.4613   25.0234 O   0  0  0  0  0  0  0  0  0  0  0  0
   12.4162  -16.3960   24.1917 O   0  0  0  0  0  0  0  0  0  0  0  0
  2  1  1  6
  2  4  1  0
  3  2  1  0
  4  5  1  6
  4  6  1  0
  6  7  2  0
  8  6  1  0
  8  9  1  0
  9 10  1  1
 10 11  1  0
 11 12  2  0
 12 13  1  0
 14 13  2  0
 15 14  1  0
 16 11  1  0
 16 15  2  0
 17 19  1  0
 17  9  1  0
 18 17  2  0
 20 21  1  6
 20 19  1  0
 22 23  1  0
 22 21  1  0
 24 25  1  0
 24 23  1  0
 26 20  1  0
 26 28  1  0
 27 26  2  0
M  END
$$$$
