TFK.pdb
     RDKit          3D

 28 28  0  0  1  0  0  0  0  0999 V2000
    8.5314  -18.7776   18.9096 C   0  0  0  0  0  0  0  0  0  0  0  0
    8.7234  -17.9994   20.1831 C   0  0  1  0  0  0  0  0  0  0  0  0
    9.6032  -18.6026   21.0585 O   0  0  0  0  0  0  0  0  0  0  0  0
    9.1501  -16.5818   19.9634 C   0  0  2  0  0  0  0  0  0  0  0  0
   10.4170  -16.4605   19.3008 N   0  0  0  0  0  0  0  0  0  0  0  0
    9.2760  -15.9357   21.2999 C   0  0  0  0  0  0  0  0  0  0  0  0
   10.4155  -15.9254   21.8179 O   0  0  0  0  0  0  0  0  0  0  0  0
    8.2069  -15.3528   21.9892 N   0  0  0  0  0  0  0  0  0  0  0  0
    8.3168  -14.7128   23.2989 C   0  0  1  0  0  0  0  0  0  0  0  0
    7.1003  -13.8687   23.5852 C   0  0  0  0  0  0  0  0  0  0  0  0
    7.1155  -13.2406   24.9235 C   0  0  0  0  0  0  0  0  0  0  0  0
    7.9958  -12.2537   25.3160 C   0  0  0  0  0  0  0  0  0  0  0  0
    7.9347  -11.7240   26.5850 C   0  0  0  0  0  0  0  0  0  0  0  0
    7.0008  -12.1511   27.5123 C   0  0  0  0  0  0  0  0  0  0  0  0
    6.1201  -13.1387   27.1195 C   0  0  0  0  0  0  0  0  0  0  0  0
    6.1794  -13.6712   25.8479 C   0  0  0  0  0  0  0  0  0  0  0  0
    8.6097  -15.7140   24.3529 C   0  0  0  0  0  0  0  0  0  0  0  0
    7.8633  -16.7177   24.4514 O   0  0  0  0  0  0  0  0  0  0  0  0
    9.6898  -15.5887   25.2500 N   0  0  0  0  0  0  0  0  0  0  0  0
   10.0285  -16.7421   26.1038 C   0  0  1  0  0  0  0  0  0  0  0  0
   11.3513  -17.3005   25.6982 C   0  0  0  0  0  0  0  0  0  0  0  0
   11.3652  -18.7949   25.8116 C   0  0  0  0  0  0  0  0  0  0  0  0
   12.7051  -19.3590   25.3019 C   0  0  0  0  0  0  0  0  0  0  0  0
   12.6491  -20.8533   25.6208 C   0  0  0  0  0  0  0  0  0  0  0  0
   13.7411  -21.5723   25.0381 N   0  0  0  0  0  0  0  0  0  0  0  0
   10.0335  -16.3313   27.5153 C   0  0  0  0  0  0  0  0  0  0  0  0
   10.0273  -15.0826   27.7918 O   0  0  0  0  0  0  0  0  0  0  0  0
   10.0412  -17.1892   28.5867 O   0  0  0  0  0  0  0  0  0  0  0  0
  2  1  1  6
  2  4  1  0
  3  2  1  0
  4  5  1  1
  4  6  1  0
  6  7  2  0
  8  6  1  0
  8  9  1  0
  9 10  1  1
 10 11  1  0
 11 12  2  0
 12 13  1  0
 14 13  2  0
 15 14  1  0
 16 11  1  0
 16 15  2  0
 17 19  1  0
 17  9  1  0
 18 17  2  0
 20 21  1  6
 20 19  1  0
 22 23  1  0
 22 21  1  0
 24 25  1  0
 24 23  1  0
 26 20  1  0
 26 28  1  0
 27 26  2  0
M  END
$$$$
