TFK.pdb
     RDKit          3D

 28 28  0  0  1  0  0  0  0  0999 V2000
    6.8829  -15.2869   19.0085 C   0  0  0  0  0  0  0  0  0  0  0  0
    7.4521  -15.3556   20.3998 C   0  0  1  0  0  0  0  0  0  0  0  0
    8.6204  -16.0864   20.4711 O   0  0  0  0  0  0  0  0  0  0  0  0
    7.6777  -14.0144   21.0243 C   0  0  2  0  0  0  0  0  0  0  0  0
    8.5107  -13.1491   20.2394 N   0  0  0  0  0  0  0  0  0  0  0  0
    8.3589  -14.2335   22.3310 C   0  0  0  0  0  0  0  0  0  0  0  0
    9.5291  -13.8019   22.4379 O   0  0  0  0  0  0  0  0  0  0  0  0
    7.7683  -14.8834   23.4203 N   0  0  0  0  0  0  0  0  0  0  0  0
    8.4013  -15.0501   24.7274 C   0  0  1  0  0  0  0  0  0  0  0  0
    7.3818  -14.9389   25.8332 C   0  0  0  0  0  0  0  0  0  0  0  0
    7.0631  -13.5450   26.2086 C   0  0  0  0  0  0  0  0  0  0  0  0
    5.7900  -13.0678   26.4418 C   0  0  0  0  0  0  0  0  0  0  0  0
    5.5874  -11.7516   26.7898 C   0  0  0  0  0  0  0  0  0  0  0  0
    6.6367  -10.8591   26.9200 C   0  0  0  0  0  0  0  0  0  0  0  0
    7.9106  -11.3366   26.6866 C   0  0  0  0  0  0  0  0  0  0  0  0
    8.1161  -12.6557   26.3375 C   0  0  0  0  0  0  0  0  0  0  0  0
    9.1971  -16.3005   24.7732 C   0  0  0  0  0  0  0  0  0  0  0  0
    9.4490  -16.8110   25.8913 O   0  0  0  0  0  0  0  0  0  0  0  0
    9.6836  -16.9420   23.6161 N   0  0  0  0  0  0  0  0  0  0  0  0
   10.4494  -18.1916   23.7778 C   0  0  1  0  0  0  0  0  0  0  0  0
   10.6139  -18.8590   22.4535 C   0  0  0  0  0  0  0  0  0  0  0  0
    9.2919  -19.0390   21.7707 C   0  0  0  0  0  0  0  0  0  0  0  0
    9.4870  -19.6863   20.3864 C   0  0  0  0  0  0  0  0  0  0  0  0
    8.0714  -19.9028   19.8508 C   0  0  0  0  0  0  0  0  0  0  0  0
    8.0700  -20.3585   18.4939 N   0  0  0  0  0  0  0  0  0  0  0  0
   11.7522  -17.9002   24.3932 C   0  0  0  0  0  0  0  0  0  0  0  0
   12.5417  -18.8730   24.6503 O   0  0  0  0  0  0  0  0  0  0  0  0
   12.2077  -16.6474   24.7208 O   0  0  0  0  0  0  0  0  0  0  0  0
  2  1  1  6
  2  4  1  0
  3  2  1  0
  4  5  1  6
  4  6  1  0
  6  7  2  0
  8  6  1  0
  8  9  1  0
  9 10  1  1
 10 11  1  0
 11 12  2  0
 12 13  1  0
 14 13  2  0
 15 14  1  0
 16 11  1  0
 16 15  2  0
 17 19  1  0
 17  9  1  0
 18 17  2  0
 20 21  1  6
 20 19  1  0
 22 23  1  0
 22 21  1  0
 24 25  1  0
 24 23  1  0
 26 20  1  0
 26 28  1  0
 27 26  2  0
M  END
$$$$
