RAP.pdb
     RDKit          3D

 24 24  0  0  1  0  0  0  0  0999 V2000
   22.1377  -20.1007   -8.6412 N   0  0  0  0  0  0  0  0  0  0  0  0
   22.9792  -20.9100   -7.8226 C   0  0  0  0  0  0  0  0  0  0  0  0
   22.4915  -21.5539   -6.7916 N   0  0  0  0  0  0  0  0  0  0  0  0
   24.3649  -21.0722   -8.0588 N   0  0  0  0  0  0  0  0  0  0  0  0
   25.0060  -20.2734   -9.1168 C   0  0  0  0  0  0  0  0  0  0  0  0
   24.8386  -21.0761  -10.3776 C   0  0  0  0  0  0  0  0  0  0  0  0
   25.3893  -20.4755  -11.6146 C   0  0  0  0  0  0  0  0  0  0  0  0
   25.1072  -21.2944  -12.8692 C   0  0  2  0  0  0  0  0  0  0  0  0
   25.9617  -22.4701  -12.8884 N   0  0  0  0  0  0  0  0  0  0  0  0
   25.5679  -20.4625  -14.0340 C   0  0  0  0  0  0  0  0  0  0  0  0
   26.8094  -20.3306  -14.1665 O   0  0  0  0  0  0  0  0  0  0  0  0
   23.1624  -22.1365   -6.2567 C   0  0  0  0  0  0  0  0  0  0  0  0
   24.3051  -19.4895  -17.2053 C   0  0  1  0  0  0  0  0  0  0  0  0
   25.1371  -19.0377  -15.9830 N   0  0  0  0  0  0  0  0  0  0  0  0
   24.6190  -19.8919  -14.8983 C   0  0  0  0  0  0  0  0  0  0  0  0
   24.8279  -17.6364  -15.6567 O   0  0  0  0  0  0  0  0  0  0  0  0
   23.7942  -17.3423  -14.9508 N   0  0  0  0  0  0  0  0  0  0  0  0
   25.5906  -16.5094  -16.0632 C   0  0  0  0  0  0  0  0  0  0  0  0
   26.8155  -16.4883  -16.8412 C   0  0  0  0  0  0  0  0  0  0  0  0
   27.4766  -15.2327  -16.2359 C   0  0  0  0  0  0  0  0  0  0  0  0
   26.3005  -14.2703  -16.3556 C   0  0  2  0  0  0  0  0  0  0  0  0
   25.1909  -15.1417  -15.7498 C   0  0  0  0  0  0  0  0  0  0  0  0
   23.9579  -14.7605  -16.4361 O   0  0  0  0  0  0  0  0  0  0  0  0
   23.1124  -13.7413  -15.9608 O   0  0  0  0  0  0  0  0  0  0  0  0
  1  2  1  0
  2  3  2  0
  4  2  1  0
  5  4  1  0
  6  5  1  0
  7  6  1  0
  8 10  1  0
  8  7  1  0
  8  9  1  1
 10 11  2  0
 10 14  1  0
 13 12  1  6
 14 13  1  0
 15 13  1  0
 16 15  2  0
 17 15  1  0
 17 18  1  0
 19 18  1  0
 20 19  1  0
 21 20  1  0
 21 17  1  0
 22 23  1  0
 21 22  1  6
 24 22  2  0
M  END
$$$$
