RAP.pdb
     RDKit          3D

 24 24  0  0  1  0  0  0  0  0999 V2000
   12.3499  -12.3945    9.4866 N   0  0  0  0  0  0  0  0  0  0  0  0
   13.3314  -13.4281    9.4475 C   0  0  0  0  0  0  0  0  0  0  0  0
   13.2961  -14.4178   10.3046 N   0  0  0  0  0  0  0  0  0  0  0  0
   14.3860  -13.4591    8.5045 N   0  0  0  0  0  0  0  0  0  0  0  0
   14.9608  -12.1870    8.0359 C   0  0  0  0  0  0  0  0  0  0  0  0
   16.0107  -12.5716    7.0301 C   0  0  0  0  0  0  0  0  0  0  0  0
   16.7741  -11.4577    6.4213 C   0  0  0  0  0  0  0  0  0  0  0  0
   17.7213  -11.9009    5.3119 C   0  0  2  0  0  0  0  0  0  0  0  0
   17.1600  -13.0487    4.6189 N   0  0  0  0  0  0  0  0  0  0  0  0
   18.9568  -12.4248    5.9900 C   0  0  0  0  0  0  0  0  0  0  0  0
   19.0779  -13.6737    6.0373 O   0  0  0  0  0  0  0  0  0  0  0  0
   14.0301  -15.1426   10.1975 C   0  0  0  0  0  0  0  0  0  0  0  0
   22.0545  -10.8811    7.2295 C   0  0  1  0  0  0  0  0  0  0  0  0
   21.1140  -12.1026    7.1112 N   0  0  0  0  0  0  0  0  0  0  0  0
   19.8942  -11.5225    6.5194 C   0  0  0  0  0  0  0  0  0  0  0  0
   20.7818  -12.6108    8.4517 O   0  0  0  0  0  0  0  0  0  0  0  0
   19.7946  -12.1177    9.1117 N   0  0  0  0  0  0  0  0  0  0  0  0
   21.4757  -13.6448    9.1349 C   0  0  0  0  0  0  0  0  0  0  0  0
   22.5994  -14.4336    8.6649 C   0  0  0  0  0  0  0  0  0  0  0  0
   22.3107  -15.7526    9.4112 C   0  0  0  0  0  0  0  0  0  0  0  0
   22.1126  -15.1877   10.8132 C   0  0  2  0  0  0  0  0  0  0  0  0
   21.1364  -14.0458   10.4960 C   0  0  0  0  0  0  0  0  0  0  0  0
   21.4217  -12.9896   11.4654 O   0  0  0  0  0  0  0  0  0  0  0  0
   21.0091  -13.0648   12.8085 O   0  0  0  0  0  0  0  0  0  0  0  0
  1  2  1  0
  2  3  2  0
  4  2  1  0
  5  4  1  0
  6  5  1  0
  7  6  1  0
  8 10  1  0
  8  7  1  0
  8  9  1  1
 10 11  2  0
 10 14  1  0
 13 12  1  6
 14 13  1  0
 15 13  1  0
 16 15  2  0
 17 15  1  0
 17 18  1  0
 19 18  1  0
 20 19  1  0
 21 20  1  0
 21 17  1  0
 22 23  1  0
 21 22  1  6
 24 22  2  0
M  END
$$$$
