RAP.pdb
     RDKit          3D

 24 24  0  0  1  0  0  0  0  0999 V2000
   30.7682  -21.5891   -8.7818 N   0  0  0  0  0  0  0  0  0  0  0  0
   31.4575  -22.0746   -9.9317 C   0  0  0  0  0  0  0  0  0  0  0  0
   32.4610  -22.9073   -9.8088 N   0  0  0  0  0  0  0  0  0  0  0  0
   31.1161  -21.7026  -11.2536 N   0  0  0  0  0  0  0  0  0  0  0  0
   30.0317  -20.7285  -11.4624 C   0  0  0  0  0  0  0  0  0  0  0  0
   28.8872  -21.5228  -12.0289 C   0  0  0  0  0  0  0  0  0  0  0  0
   27.6472  -20.7675  -12.3222 C   0  0  0  0  0  0  0  0  0  0  0  0
   27.1224  -20.9808  -13.7376 C   0  0  2  0  0  0  0  0  0  0  0  0
   27.9853  -20.2980  -14.6874 N   0  0  0  0  0  0  0  0  0  0  0  0
   25.8078  -20.2556  -13.8188 C   0  0  0  0  0  0  0  0  0  0  0  0
   25.8640  -19.0313  -14.0914 O   0  0  0  0  0  0  0  0  0  0  0  0
   32.9024  -23.2256  -10.6917 C   0  0  0  0  0  0  0  0  0  0  0  0
   23.1610  -19.8212  -15.0759 C   0  0  2  0  0  0  0  0  0  0  0  0
   23.3683  -20.1663  -13.5831 N   0  0  0  0  0  0  0  0  0  0  0  0
   24.6119  -20.9587  -13.5983 C   0  0  0  0  0  0  0  0  0  0  0  0
   22.2743  -21.0305  -13.1120 O   0  0  0  0  0  0  0  0  0  0  0  0
   22.1820  -22.2476  -13.5166 N   0  0  0  0  0  0  0  0  0  0  0  0
   21.2493  -20.6417  -12.2090 C   0  0  0  0  0  0  0  0  0  0  0  0
   21.0399  -19.3438  -11.5944 C   0  0  0  0  0  0  0  0  0  0  0  0
   20.4118  -19.7958  -10.2597 C   0  0  0  0  0  0  0  0  0  0  0  0
   19.3408  -20.7299  -10.8115 C   0  0  2  0  0  0  0  0  0  0  0  0
   20.1948  -21.5560  -11.7841 C   0  0  0  0  0  0  0  0  0  0  0  0
   19.3095  -21.9220  -12.8881 O   0  0  0  0  0  0  0  0  0  0  0  0
   18.3597  -22.9550  -12.7848 O   0  0  0  0  0  0  0  0  0  0  0  0
  1  2  1  0
  2  3  2  0
  4  2  1  0
  5  4  1  0
  6  5  1  0
  7  6  1  0
  8 10  1  0
  8  7  1  0
  8  9  1  6
 10 11  2  0
 10 14  1  0
 13 12  1  1
 14 13  1  0
 15 13  1  0
 16 15  2  0
 17 15  1  0
 17 18  1  0
 19 18  1  0
 20 19  1  0
 21 20  1  0
 21 17  1  0
 22 23  1  0
 21 22  1  6
 24 22  2  0
M  END
$$$$
