RAP.pdb
     RDKit          3D

 24 24  0  0  1  0  0  0  0  0999 V2000
   23.7262  -21.0133   -8.2967 N   0  0  0  0  0  0  0  0  0  0  0  0
   22.5007  -21.2281   -8.9934 C   0  0  0  0  0  0  0  0  0  0  0  0
   21.3583  -21.2323   -8.3528 N   0  0  0  0  0  0  0  0  0  0  0  0
   22.4318  -21.4456  -10.3899 N   0  0  0  0  0  0  0  0  0  0  0  0
   23.5017  -20.9101  -11.2483 C   0  0  0  0  0  0  0  0  0  0  0  0
   24.5235  -22.0097  -11.3428 C   0  0  0  0  0  0  0  0  0  0  0  0
   25.6992  -21.7395  -12.2023 C   0  0  0  0  0  0  0  0  0  0  0  0
   25.3820  -21.7538  -13.6934 C   0  0  2  0  0  0  0  0  0  0  0  0
   26.0040  -22.9113  -14.3148 N   0  0  0  0  0  0  0  0  0  0  0  0
   26.0878  -20.5682  -14.2910 C   0  0  0  0  0  0  0  0  0  0  0  0
   27.2318  -20.3162  -13.8390 O   0  0  0  0  0  0  0  0  0  0  0  0
   20.5136  -21.4197   -8.9247 C   0  0  0  0  0  0  0  0  0  0  0  0
   26.7623  -19.1136  -17.1392 C   0  0  1  0  0  0  0  0  0  0  0  0
   26.1764  -18.6310  -15.7922 N   0  0  0  0  0  0  0  0  0  0  0  0
   25.4582  -19.8213  -15.3004 C   0  0  0  0  0  0  0  0  0  0  0  0
   25.1933  -17.5615  -16.0279 O   0  0  0  0  0  0  0  0  0  0  0  0
   23.9966  -17.8448  -16.4033 N   0  0  0  0  0  0  0  0  0  0  0  0
   25.4392  -16.1706  -15.8794 C   0  0  0  0  0  0  0  0  0  0  0  0
   26.6587  -15.5168  -15.4417 C   0  0  0  0  0  0  0  0  0  0  0  0
   26.0473  -14.2793  -14.7524 C   0  0  0  0  0  0  0  0  0  0  0  0
   25.1174  -13.8255  -15.8719 C   0  0  2  0  0  0  0  0  0  0  0  0
   24.4348  -15.1616  -16.1982 C   0  0  0  0  0  0  0  0  0  0  0  0
   24.1327  -15.1222  -17.6279 O   0  0  0  0  0  0  0  0  0  0  0  0
   23.0503  -14.3918  -18.1519 O   0  0  0  0  0  0  0  0  0  0  0  0
  1  2  1  0
  2  3  2  0
  4  2  1  0
  5  4  1  0
  6  5  1  0
  7  6  1  0
  8 10  1  0
  8  7  1  0
  8  9  1  6
 10 11  2  0
 10 14  1  0
 13 12  1  1
 14 13  1  0
 15 13  1  0
 16 15  2  0
 17 15  1  0
 17 18  1  0
 19 18  1  0
 20 19  1  0
 21 20  1  0
 21 17  1  0
 22 23  1  0
 21 22  1  6
 24 22  2  0
M  END
$$$$
