RAP.pdb
     RDKit          3D

 24 24  0  0  1  0  0  0  0  0999 V2000
   24.1370  -24.5091  -14.0456 N   0  0  0  0  0  0  0  0  0  0  0  0
   23.1789  -25.4996  -14.4122 C   0  0  0  0  0  0  0  0  0  0  0  0
   23.4893  -26.7719  -14.3900 N   0  0  0  0  0  0  0  0  0  0  0  0
   21.8586  -25.1882  -14.8150 N   0  0  0  0  0  0  0  0  0  0  0  0
   21.0808  -24.2216  -14.0220 C   0  0  0  0  0  0  0  0  0  0  0  0
   20.7659  -23.0944  -14.9666 C   0  0  0  0  0  0  0  0  0  0  0  0
   21.4606  -21.8115  -14.7103 C   0  0  0  0  0  0  0  0  0  0  0  0
   21.6612  -21.5106  -13.2292 C   0  0  2  0  0  0  0  0  0  0  0  0
   20.6826  -20.5286  -12.7926 N   0  0  0  0  0  0  0  0  0  0  0  0
   22.9880  -20.8131  -13.1117 C   0  0  0  0  0  0  0  0  0  0  0  0
   23.0240  -19.6181  -13.4954 O   0  0  0  0  0  0  0  0  0  0  0  0
   22.7227  -27.4340  -14.6126 C   0  0  0  0  0  0  0  0  0  0  0  0
   26.2788  -21.7040  -11.7147 C   0  0  1  0  0  0  0  0  0  0  0  0
   25.3825  -20.7905  -12.5823 N   0  0  0  0  0  0  0  0  0  0  0  0
   24.0929  -21.5056  -12.5893 C   0  0  0  0  0  0  0  0  0  0  0  0
   25.8960  -20.7480  -13.9608 O   0  0  0  0  0  0  0  0  0  0  0  0
   25.5807  -21.6657  -14.8045 N   0  0  0  0  0  0  0  0  0  0  0  0
   26.7535  -19.7464  -14.4889 C   0  0  0  0  0  0  0  0  0  0  0  0
   27.2926  -18.5801  -13.8144 C   0  0  0  0  0  0  0  0  0  0  0  0
   27.3753  -17.6121  -15.0129 C   0  0  0  0  0  0  0  0  0  0  0  0
   28.1067  -18.5202  -15.9949 C   0  0  2  0  0  0  0  0  0  0  0  0
   27.2522  -19.7886  -15.8593 C   0  0  0  0  0  0  0  0  0  0  0  0
   28.1607  -20.9128  -16.0772 O   0  0  0  0  0  0  0  0  0  0  0  0
   28.6075  -21.2864  -17.3580 O   0  0  0  0  0  0  0  0  0  0  0  0
  1  2  1  0
  2  3  2  0
  4  2  1  0
  5  4  1  0
  6  5  1  0
  7  6  1  0
  8 10  1  0
  8  7  1  0
  8  9  1  6
 10 11  2  0
 10 14  1  0
 13 12  1  1
 14 13  1  0
 15 13  1  0
 16 15  2  0
 17 15  1  0
 17 18  1  0
 19 18  1  0
 20 19  1  0
 21 20  1  0
 21 17  1  0
 22 23  1  0
 21 22  1  1
 24 22  2  0
M  END
$$$$
