RAP.pdb
     RDKit          3D

 24 24  0  0  1  0  0  0  0  0999 V2000
   21.9477  -20.7770   -9.3528 N   0  0  0  0  0  0  0  0  0  0  0  0
   22.7087  -21.4040   -8.3227 C   0  0  0  0  0  0  0  0  0  0  0  0
   22.1930  -22.3683   -7.6020 N   0  0  0  0  0  0  0  0  0  0  0  0
   24.0407  -21.0400   -8.0134 N   0  0  0  0  0  0  0  0  0  0  0  0
   24.6523  -19.9039   -8.7230 C   0  0  0  0  0  0  0  0  0  0  0  0
   25.6874  -20.5118   -9.6291 C   0  0  0  0  0  0  0  0  0  0  0  0
   25.3652  -20.5263  -11.0749 C   0  0  0  0  0  0  0  0  0  0  0  0
   26.4934  -21.0662  -11.9467 C   0  0  2  0  0  0  0  0  0  0  0  0
   27.6715  -21.3052  -11.1296 N   0  0  0  0  0  0  0  0  0  0  0  0
   26.8864  -19.9504  -12.8749 C   0  0  0  0  0  0  0  0  0  0  0  0
   27.5478  -19.0117  -12.3671 O   0  0  0  0  0  0  0  0  0  0  0  0
   22.7997  -22.7568   -6.8559 C   0  0  0  0  0  0  0  0  0  0  0  0
   27.4906  -19.7133  -16.3581 C   0  0  1  0  0  0  0  0  0  0  0  0
   27.0237  -18.9382  -15.1044 N   0  0  0  0  0  0  0  0  0  0  0  0
   26.5126  -20.0081  -14.2276 C   0  0  0  0  0  0  0  0  0  0  0  0
   25.9031  -18.0502  -15.4529 O   0  0  0  0  0  0  0  0  0  0  0  0
   24.6991  -18.5001  -15.4886 N   0  0  0  0  0  0  0  0  0  0  0  0
   26.0153  -16.6714  -15.7749 C   0  0  0  0  0  0  0  0  0  0  0  0
   27.2029  -15.8378  -15.7485 C   0  0  0  0  0  0  0  0  0  0  0  0
   26.5536  -14.4863  -15.3848 C   0  0  0  0  0  0  0  0  0  0  0  0
   25.4479  -14.4700  -16.4342 C   0  0  2  0  0  0  0  0  0  0  0  0
   24.8768  -15.8805  -16.2296 C   0  0  0  0  0  0  0  0  0  0  0  0
   24.3960  -16.3155  -17.5396 O   0  0  0  0  0  0  0  0  0  0  0  0
   23.1465  -15.9237  -18.0545 O   0  0  0  0  0  0  0  0  0  0  0  0
  1  2  1  0
  2  3  2  0
  4  2  1  0
  5  4  1  0
  6  5  1  0
  7  6  1  0
  8 10  1  0
  8  7  1  0
  8  9  1  1
 10 11  2  0
 10 14  1  0
 13 12  1  1
 14 13  1  0
 15 13  1  0
 16 15  2  0
 17 15  1  0
 17 18  1  0
 19 18  1  0
 20 19  1  0
 21 20  1  0
 21 17  1  0
 22 23  1  0
 21 22  1  6
 24 22  2  0
M  END
$$$$
