RAP.pdb
     RDKit          3D

 24 24  0  0  1  0  0  0  0  0999 V2000
   31.1583  -25.7186  -15.4611 N   0  0  0  0  0  0  0  0  0  0  0  0
   30.0308  -25.8962  -16.3160 C   0  0  0  0  0  0  0  0  0  0  0  0
   29.3709  -27.0274  -16.3274 N   0  0  0  0  0  0  0  0  0  0  0  0
   29.5556  -24.8897  -17.1898 N   0  0  0  0  0  0  0  0  0  0  0  0
   30.3676  -23.6777  -17.3897 C   0  0  0  0  0  0  0  0  0  0  0  0
   29.7018  -22.6122  -16.5631 C   0  0  0  0  0  0  0  0  0  0  0  0
   28.9974  -21.5462  -17.3124 C   0  0  0  0  0  0  0  0  0  0  0  0
   27.4871  -21.7429  -17.3798 C   0  0  2  0  0  0  0  0  0  0  0  0
   26.9984  -21.3346  -18.6865 N   0  0  0  0  0  0  0  0  0  0  0  0
   26.8853  -20.7573  -16.4168 C   0  0  0  0  0  0  0  0  0  0  0  0
   27.1445  -19.5467  -16.6255 O   0  0  0  0  0  0  0  0  0  0  0  0
   28.5825  -27.0906  -16.9983 C   0  0  0  0  0  0  0  0  0  0  0  0
   24.4538  -19.5125  -15.5098 C   0  0  1  0  0  0  0  0  0  0  0  0
   25.4304  -20.1949  -14.5244 N   0  0  0  0  0  0  0  0  0  0  0  0
   26.0807  -21.2195  -15.3622 C   0  0  0  0  0  0  0  0  0  0  0  0
   24.6746  -20.8771  -13.4617 O   0  0  0  0  0  0  0  0  0  0  0  0
   23.8839  -21.8509  -13.7439 N   0  0  0  0  0  0  0  0  0  0  0  0
   24.7258  -20.5553  -12.0793 C   0  0  0  0  0  0  0  0  0  0  0  0
   25.5304  -19.5411  -11.4234 C   0  0  0  0  0  0  0  0  0  0  0  0
   25.7431  -20.2314  -10.0602 C   0  0  0  0  0  0  0  0  0  0  0  0
   24.2936  -20.5892   -9.7523 C   0  0  2  0  0  0  0  0  0  0  0  0
   23.8972  -21.2336  -11.0884 C   0  0  0  0  0  0  0  0  0  0  0  0
   22.4764  -20.9430  -11.2712 O   0  0  0  0  0  0  0  0  0  0  0  0
   22.0183  -19.9008  -12.0980 O   0  0  0  0  0  0  0  0  0  0  0  0
  1  2  1  0
  2  3  2  0
  4  2  1  0
  5  4  1  0
  6  5  1  0
  7  6  1  0
  8 10  1  0
  8  7  1  0
  8  9  1  6
 10 11  2  0
 10 14  1  0
 13 12  1  6
 14 13  1  0
 15 13  1  0
 16 15  2  0
 17 15  1  0
 17 18  1  0
 19 18  1  0
 20 19  1  0
 21 20  1  0
 21 17  1  0
 22 23  1  0
 21 22  1  6
 24 22  2  0
M  END
$$$$
