RAP.pdb
     RDKit          3D

 24 24  0  0  1  0  0  0  0  0999 V2000
   26.6044  -25.0591  -16.0209 N   0  0  0  0  0  0  0  0  0  0  0  0
   26.7705  -24.0007  -16.9620 C   0  0  0  0  0  0  0  0  0  0  0  0
   27.0926  -24.2551  -18.2057 N   0  0  0  0  0  0  0  0  0  0  0  0
   26.6031  -22.6355  -16.6294 N   0  0  0  0  0  0  0  0  0  0  0  0
   26.0544  -22.2858  -15.3084 C   0  0  0  0  0  0  0  0  0  0  0  0
   24.7836  -23.0802  -15.1827 C   0  0  0  0  0  0  0  0  0  0  0  0
   23.7561  -22.5320  -14.2674 C   0  0  0  0  0  0  0  0  0  0  0  0
   24.3368  -21.7394  -13.1017 C   0  0  2  0  0  0  0  0  0  0  0  0
   25.3791  -22.5171  -12.4524 N   0  0  0  0  0  0  0  0  0  0  0  0
   23.2431  -21.6263  -12.0760 C   0  0  0  0  0  0  0  0  0  0  0  0
   23.2074  -22.5248  -11.1998 O   0  0  0  0  0  0  0  0  0  0  0  0
   27.2144  -23.4318  -18.8246 C   0  0  0  0  0  0  0  0  0  0  0  0
   20.7844  -19.0327  -11.2146 C   0  0  1  0  0  0  0  0  0  0  0  0
   21.3243  -20.4746  -11.0730 N   0  0  0  0  0  0  0  0  0  0  0  0
   22.3411  -20.5513  -12.1383 C   0  0  0  0  0  0  0  0  0  0  0  0
   20.2580  -21.4413  -11.3801 O   0  0  0  0  0  0  0  0  0  0  0  0
   19.9904  -21.7544  -12.5982 N   0  0  0  0  0  0  0  0  0  0  0  0
   19.4445  -22.1012  -10.4210 C   0  0  0  0  0  0  0  0  0  0  0  0
   19.4722  -21.9666   -8.9763 C   0  0  0  0  0  0  0  0  0  0  0  0
   19.0375  -23.3934   -8.5822 C   0  0  0  0  0  0  0  0  0  0  0  0
   17.8011  -23.5121   -9.4661 C   0  0  2  0  0  0  0  0  0  0  0  0
   18.3917  -23.0369  -10.8013 C   0  0  0  0  0  0  0  0  0  0  0  0
   17.3003  -22.3737  -11.5124 O   0  0  0  0  0  0  0  0  0  0  0  0
   16.3239  -23.0865  -12.2324 O   0  0  0  0  0  0  0  0  0  0  0  0
  1  2  1  0
  2  3  2  0
  4  2  1  0
  5  4  1  0
  6  5  1  0
  7  6  1  0
  8 10  1  0
  8  7  1  0
  8  9  1  1
 10 11  2  0
 10 14  1  0
 13 12  1  1
 14 13  1  0
 15 13  1  0
 16 15  2  0
 17 15  1  0
 17 18  1  0
 19 18  1  0
 20 19  1  0
 21 20  1  0
 21 17  1  0
 22 23  1  0
 21 22  1  1
 24 22  2  0
M  END
$$$$
