FFN.pdb
     RDKit          3D

 31 32  0  0  1  0  0  0  0  0999 V2000
   28.5890  -20.7949  -14.3319 N   0  0  0  0  0  0  0  0  0  0  0  0
   27.4907  -20.0340  -13.8266 C   0  0  1  0  0  0  0  0  0  0  0  0
   26.6261  -19.5005  -14.9459 C   0  0  0  0  0  0  0  0  0  0  0  0
   27.3913  -18.4968  -15.7251 C   0  0  0  0  0  0  0  0  0  0  0  0
   27.4278  -17.2042  -15.2481 C   0  0  0  0  0  0  0  0  0  0  0  0
   28.1290  -16.2052  -15.9315 C   0  0  0  0  0  0  0  0  0  0  0  0
   28.7899  -16.4944  -17.0840 C   0  0  0  0  0  0  0  0  0  0  0  0
   28.7673  -17.7795  -17.5795 C   0  0  0  0  0  0  0  0  0  0  0  0
   28.0679  -18.7667  -16.8941 C   0  0  0  0  0  0  0  0  0  0  0  0
   26.6888  -20.7776  -12.8189 C   0  0  0  0  0  0  0  0  0  0  0  0
   26.4410  -22.0027  -12.9861 O   0  0  0  0  0  0  0  0  0  0  0  0
   26.1644  -20.1865  -11.6415 N   0  0  0  0  0  0  0  0  0  0  0  0
   25.1236  -20.8338  -10.8284 C   0  0  1  0  0  0  0  0  0  0  0  0
   25.2956  -20.5235   -9.3798 C   0  0  0  0  0  0  0  0  0  0  0  0
   26.6650  -20.5444   -8.8782 C   0  0  0  0  0  0  0  0  0  0  0  0
   27.6384  -21.3108   -9.4814 C   0  0  0  0  0  0  0  0  0  0  0  0
   28.9405  -21.3478   -9.0215 C   0  0  0  0  0  0  0  0  0  0  0  0
   29.3193  -20.6076   -7.9251 C   0  0  0  0  0  0  0  0  0  0  0  0
   28.3613  -19.8349   -7.3079 C   0  0  0  0  0  0  0  0  0  0  0  0
   27.0445  -19.8060   -7.7837 C   0  0  0  0  0  0  0  0  0  0  0  0
   23.8203  -20.5023  -11.4067 C   0  0  0  0  0  0  0  0  0  0  0  0
   23.7284  -19.7244  -12.4187 O   0  0  0  0  0  0  0  0  0  0  0  0
   19.7147  -19.0963  -13.9787 N   0  0  0  0  0  0  0  0  0  0  0  0
   20.3914  -20.3372  -13.8670 C   0  0  0  0  0  0  0  0  0  0  0  0
   19.9460  -21.3680  -14.4102 O   0  0  0  0  0  0  0  0  0  0  0  0
   21.6421  -20.3984  -13.0930 C   0  0  0  0  0  0  0  0  0  0  0  0
   21.3292  -20.8845  -11.6938 C   0  0  2  0  0  0  0  0  0  0  0  0
   22.5795  -20.9966  -10.9188 N   0  0  0  0  0  0  0  0  0  0  0  0
   20.5818  -22.1369  -11.6869 C   0  0  0  0  0  0  0  0  0  0  0  0
   21.1359  -23.3975  -11.8190 O   0  0  0  0  0  0  0  0  0  0  0  0
   19.3134  -22.1232  -11.5526 O   0  0  0  0  0  0  0  0  0  0  0  0
  2  1  1  6
  2  3  1  0
  3  4  1  0
  4  5  2  0
  5  6  1  0
  7  6  2  0
  8  7  1  0
  9  4  1  0
  9  8  2  0
 10 12  1  0
 10  2  1  0
 11 10  2  0
 13 12  1  0
 13 14  1  1
 15 16  2  0
 15 14  1  0
 17 16  1  0
 18 17  2  0
 19 18  1  0
 19 20  2  0
 20 15  1  0
 21 28  1  0
 21 13  1  0
 22 21  2  0
 24 23  1  0
 24 25  2  0
 27 26  1  6
 26 24  1  0
 27 28  1  0
 27 29  1  0
 29 30  1  0
 31 29  2  0
M  END
$$$$
