FFN.pdb
     RDKit          3D

 31 32  0  0  1  0  0  0  0  0999 V2000
   27.8710  -21.8280  -16.4102 N   0  0  0  0  0  0  0  0  0  0  0  0
   27.1035  -20.7281  -15.9184 C   0  0  1  0  0  0  0  0  0  0  0  0
   26.4080  -19.9932  -17.0413 C   0  0  0  0  0  0  0  0  0  0  0  0
   27.3093  -18.9443  -17.5776 C   0  0  0  0  0  0  0  0  0  0  0  0
   27.3515  -17.7345  -16.9186 C   0  0  0  0  0  0  0  0  0  0  0  0
   28.1777  -16.6992  -17.3684 C   0  0  0  0  0  0  0  0  0  0  0  0
   28.9572  -16.8703  -18.4693 C   0  0  0  0  0  0  0  0  0  0  0  0
   28.9313  -18.0711  -19.1438 C   0  0  0  0  0  0  0  0  0  0  0  0
   28.1073  -19.0950  -18.6901 C   0  0  0  0  0  0  0  0  0  0  0  0
   26.1513  -21.1227  -14.8465 C   0  0  0  0  0  0  0  0  0  0  0  0
   25.6052  -22.2591  -14.8718 O   0  0  0  0  0  0  0  0  0  0  0  0
   25.8010  -20.2825  -13.7593 N   0  0  0  0  0  0  0  0  0  0  0  0
   24.8732  -20.7066  -12.6998 C   0  0  1  0  0  0  0  0  0  0  0  0
   25.0624  -19.9015  -11.4586 C   0  0  0  0  0  0  0  0  0  0  0  0
   24.1387  -20.1826  -10.3655 C   0  0  0  0  0  0  0  0  0  0  0  0
   22.8469  -19.7031  -10.3764 C   0  0  0  0  0  0  0  0  0  0  0  0
   21.9564  -19.9548   -9.3507 C   0  0  0  0  0  0  0  0  0  0  0  0
   22.3337  -20.7066   -8.2618 C   0  0  0  0  0  0  0  0  0  0  0  0
   23.6207  -21.1952   -8.2316 C   0  0  0  0  0  0  0  0  0  0  0  0
   24.5142  -20.9330   -9.2777 C   0  0  0  0  0  0  0  0  0  0  0  0
   23.5195  -20.7206  -13.2569 C   0  0  0  0  0  0  0  0  0  0  0  0
   23.1212  -19.7908  -14.0409 O   0  0  0  0  0  0  0  0  0  0  0  0
   19.3049  -22.9212  -16.0468 N   0  0  0  0  0  0  0  0  0  0  0  0
   19.4716  -23.0276  -14.6428 C   0  0  0  0  0  0  0  0  0  0  0  0
   18.4885  -23.0830  -13.8770 O   0  0  0  0  0  0  0  0  0  0  0  0
   20.8351  -23.0728  -14.0898 C   0  0  0  0  0  0  0  0  0  0  0  0
   21.2000  -21.6975  -13.5727 C   0  0  2  0  0  0  0  0  0  0  0  0
   22.5557  -21.7320  -12.9919 N   0  0  0  0  0  0  0  0  0  0  0  0
   20.2242  -21.1762  -12.6222 C   0  0  0  0  0  0  0  0  0  0  0  0
   20.0465  -21.6344  -11.3291 O   0  0  0  0  0  0  0  0  0  0  0  0
   19.4481  -20.2227  -12.9618 O   0  0  0  0  0  0  0  0  0  0  0  0
  2  1  1  6
  2  3  1  0
  3  4  1  0
  4  5  2  0
  5  6  1  0
  7  6  2  0
  8  7  1  0
  9  4  1  0
  9  8  2  0
 10 12  1  0
 10  2  1  0
 11 10  2  0
 13 12  1  0
 13 14  1  1
 15 16  2  0
 15 14  1  0
 17 16  1  0
 18 17  2  0
 19 18  1  0
 19 20  2  0
 20 15  1  0
 21 28  1  0
 21 13  1  0
 22 21  2  0
 24 23  1  0
 24 25  2  0
 27 26  1  1
 26 24  1  0
 27 28  1  0
 27 29  1  0
 29 30  1  0
 31 29  2  0
M  END
$$$$
