FFN.pdb
     RDKit          3D

 31 32  0  0  1  0  0  0  0  0999 V2000
   18.8960  -20.7670  -13.3546 N   0  0  0  0  0  0  0  0  0  0  0  0
   19.7956  -21.5274  -14.1627 C   0  0  1  0  0  0  0  0  0  0  0  0
   19.1693  -21.8995  -15.4871 C   0  0  0  0  0  0  0  0  0  0  0  0
   17.9945  -22.7732  -15.2495 C   0  0  0  0  0  0  0  0  0  0  0  0
   18.2092  -24.1326  -15.1731 C   0  0  0  0  0  0  0  0  0  0  0  0
   17.1480  -25.0167  -14.9519 C   0  0  0  0  0  0  0  0  0  0  0  0
   15.8801  -24.5471  -14.8079 C   0  0  0  0  0  0  0  0  0  0  0  0
   15.6419  -23.1923  -14.8805 C   0  0  0  0  0  0  0  0  0  0  0  0
   16.7023  -22.3202  -15.1006 C   0  0  0  0  0  0  0  0  0  0  0  0
   21.1120  -20.8601  -14.3449 C   0  0  0  0  0  0  0  0  0  0  0  0
   21.1653  -19.6547  -14.7116 O   0  0  0  0  0  0  0  0  0  0  0  0
   22.3559  -21.5054  -14.1281 N   0  0  0  0  0  0  0  0  0  0  0  0
   23.6438  -20.8559  -14.4159 C   0  0  1  0  0  0  0  0  0  0  0  0
   24.7339  -21.4109  -13.5627 C   0  0  0  0  0  0  0  0  0  0  0  0
   26.0855  -20.9616  -13.8771 C   0  0  0  0  0  0  0  0  0  0  0  0
   26.5468  -19.7307  -13.4639 C   0  0  0  0  0  0  0  0  0  0  0  0
   27.8218  -19.2842  -13.7528 C   0  0  0  0  0  0  0  0  0  0  0  0
   28.6925  -20.0661  -14.4764 C   0  0  0  0  0  0  0  0  0  0  0  0
   28.2508  -21.2999  -14.8988 C   0  0  0  0  0  0  0  0  0  0  0  0
   26.9558  -21.7413  -14.5995 C   0  0  0  0  0  0  0  0  0  0  0  0
   23.8689  -20.9083  -15.8614 C   0  0  0  0  0  0  0  0  0  0  0  0
   23.6801  -21.9906  -16.5177 O   0  0  0  0  0  0  0  0  0  0  0  0
   24.6769  -17.7900  -21.0688 N   0  0  0  0  0  0  0  0  0  0  0  0
   24.4293  -18.9349  -20.2700 C   0  0  0  0  0  0  0  0  0  0  0  0
   24.4696  -20.0833  -20.7554 O   0  0  0  0  0  0  0  0  0  0  0  0
   24.1199  -18.7530  -18.8423 C   0  0  0  0  0  0  0  0  0  0  0  0
   24.6557  -19.9395  -18.0697 C   0  0  2  0  0  0  0  0  0  0  0  0
   24.2998  -19.8024  -16.6446 N   0  0  0  0  0  0  0  0  0  0  0  0
   26.0916  -20.1246  -18.2467 C   0  0  0  0  0  0  0  0  0  0  0  0
   27.0735  -19.3188  -17.6989 O   0  0  0  0  0  0  0  0  0  0  0  0
   26.5285  -21.0911  -18.9552 O   0  0  0  0  0  0  0  0  0  0  0  0
  2  1  1  6
  2  3  1  0
  3  4  1  0
  4  5  2  0
  5  6  1  0
  7  6  2  0
  8  7  1  0
  9  4  1  0
  9  8  2  0
 10 12  1  0
 10  2  1  0
 11 10  2  0
 13 12  1  0
 13 14  1  1
 15 16  2  0
 15 14  1  0
 17 16  1  0
 18 17  2  0
 19 18  1  0
 19 20  2  0
 20 15  1  0
 21 28  1  0
 21 13  1  0
 22 21  2  0
 24 23  1  0
 24 25  2  0
 27 26  1  6
 26 24  1  0
 27 28  1  0
 27 29  1  0
 29 30  1  0
 31 29  2  0
M  END
$$$$
