FFN.pdb
     RDKit          3D

 31 32  0  0  1  0  0  0  0  0999 V2000
   28.6563  -19.9010  -15.1385 N   0  0  0  0  0  0  0  0  0  0  0  0
   27.5212  -19.4647  -14.3889 C   0  0  1  0  0  0  0  0  0  0  0  0
   26.6143  -18.5862  -15.2200 C   0  0  0  0  0  0  0  0  0  0  0  0
   27.3567  -17.3757  -15.6485 C   0  0  0  0  0  0  0  0  0  0  0  0
   27.4308  -16.3205  -14.7649 C   0  0  0  0  0  0  0  0  0  0  0  0
   28.1136  -15.1471  -15.1019 C   0  0  0  0  0  0  0  0  0  0  0  0
   28.7190  -15.0275  -16.3136 C   0  0  0  0  0  0  0  0  0  0  0  0
   28.6580  -16.0693  -17.2127 C   0  0  0  0  0  0  0  0  0  0  0  0
   27.9772  -17.2322  -16.8698 C   0  0  0  0  0  0  0  0  0  0  0  0
   26.7757  -20.5894  -13.7639 C   0  0  0  0  0  0  0  0  0  0  0  0
   26.4587  -21.5981  -14.4511 O   0  0  0  0  0  0  0  0  0  0  0  0
   26.3819  -20.6093  -12.4018 N   0  0  0  0  0  0  0  0  0  0  0  0
   25.4937  -21.6443  -11.8511 C   0  0  1  0  0  0  0  0  0  0  0  0
   25.9881  -22.1384  -10.5336 C   0  0  0  0  0  0  0  0  0  0  0  0
   26.3302  -21.1147   -9.5526 C   0  0  0  0  0  0  0  0  0  0  0  0
   27.4435  -21.2342   -8.7494 C   0  0  0  0  0  0  0  0  0  0  0  0
   27.7847  -20.2783   -7.8122 C   0  0  0  0  0  0  0  0  0  0  0  0
   27.0117  -19.1525   -7.6439 C   0  0  0  0  0  0  0  0  0  0  0  0
   25.8947  -19.0141   -8.4369 C   0  0  0  0  0  0  0  0  0  0  0  0
   25.5593  -19.9903   -9.3835 C   0  0  0  0  0  0  0  0  0  0  0  0
   24.1238  -21.1287  -11.8715 C   0  0  0  0  0  0  0  0  0  0  0  0
   23.8789  -19.9013  -11.6043 O   0  0  0  0  0  0  0  0  0  0  0  0
   18.6940  -21.6174  -14.3322 N   0  0  0  0  0  0  0  0  0  0  0  0
   19.7909  -20.8800  -13.8191 C   0  0  0  0  0  0  0  0  0  0  0  0
   19.6641  -19.6881  -13.4735 O   0  0  0  0  0  0  0  0  0  0  0  0
   21.0991  -21.5437  -13.6963 C   0  0  0  0  0  0  0  0  0  0  0  0
   21.6306  -21.3239  -12.2959 C   0  0  2  0  0  0  0  0  0  0  0  0
   22.9785  -21.9125  -12.1812 N   0  0  0  0  0  0  0  0  0  0  0  0
   20.7338  -21.8368  -11.2664 C   0  0  0  0  0  0  0  0  0  0  0  0
   19.8612  -21.0708  -10.5145 O   0  0  0  0  0  0  0  0  0  0  0  0
   20.7152  -23.0838  -10.9990 O   0  0  0  0  0  0  0  0  0  0  0  0
  2  1  1  6
  2  3  1  0
  3  4  1  0
  4  5  2  0
  5  6  1  0
  7  6  2  0
  8  7  1  0
  9  4  1  0
  9  8  2  0
 10 12  1  0
 10  2  1  0
 11 10  2  0
 13 12  1  0
 13 14  1  1
 15 16  2  0
 15 14  1  0
 17 16  1  0
 18 17  2  0
 19 18  1  0
 19 20  2  0
 20 15  1  0
 21 28  1  0
 21 13  1  0
 22 21  2  0
 24 23  1  0
 24 25  2  0
 27 26  1  6
 26 24  1  0
 27 28  1  0
 27 29  1  0
 29 30  1  0
 31 29  2  0
M  END
$$$$
