FFN.pdb
     RDKit          3D

 31 32  0  0  1  0  0  0  0  0999 V2000
   24.9799  -19.9049  -18.1989 N   0  0  0  0  0  0  0  0  0  0  0  0
   23.7472  -19.4819  -17.6141 C   0  0  1  0  0  0  0  0  0  0  0  0
   22.5902  -19.6663  -18.5691 C   0  0  0  0  0  0  0  0  0  0  0  0
   22.8202  -18.8506  -19.7865 C   0  0  0  0  0  0  0  0  0  0  0  0
   22.4383  -17.5267  -19.7550 C   0  0  0  0  0  0  0  0  0  0  0  0
   22.6238  -16.6982  -20.8667 C   0  0  0  0  0  0  0  0  0  0  0  0
   23.1872  -17.1881  -22.0032 C   0  0  0  0  0  0  0  0  0  0  0  0
   23.5766  -18.5083  -22.0574 C   0  0  0  0  0  0  0  0  0  0  0  0
   23.3886  -19.3251  -20.9480 C   0  0  0  0  0  0  0  0  0  0  0  0
   23.4825  -20.1236  -16.2990 C   0  0  0  0  0  0  0  0  0  0  0  0
   23.7595  -21.3410  -16.1215 O   0  0  0  0  0  0  0  0  0  0  0  0
   22.9208  -19.4400  -15.1908 N   0  0  0  0  0  0  0  0  0  0  0  0
   22.7039  -20.0893  -13.8890 C   0  0  1  0  0  0  0  0  0  0  0  0
   22.9752  -19.1503  -12.7625 C   0  0  0  0  0  0  0  0  0  0  0  0
   22.7795  -19.6864  -11.4202 C   0  0  0  0  0  0  0  0  0  0  0  0
   21.5963  -19.5005  -10.7389 C   0  0  0  0  0  0  0  0  0  0  0  0
   21.3905  -19.9969   -9.4662 C   0  0  0  0  0  0  0  0  0  0  0  0
   22.3768  -20.7074   -8.8215 C   0  0  0  0  0  0  0  0  0  0  0  0
   23.5670  -20.9041   -9.4854 C   0  0  0  0  0  0  0  0  0  0  0  0
   23.7635  -20.3958  -10.7754 C   0  0  0  0  0  0  0  0  0  0  0  0
   21.3782  -20.7101  -13.9035 C   0  0  0  0  0  0  0  0  0  0  0  0
   20.3629  -20.0822  -14.3647 O   0  0  0  0  0  0  0  0  0  0  0  0
   18.2136  -25.9933  -13.1588 N   0  0  0  0  0  0  0  0  0  0  0  0
   18.4154  -24.5971  -13.3015 C   0  0  0  0  0  0  0  0  0  0  0  0
   17.4607  -23.8246  -13.5204 O   0  0  0  0  0  0  0  0  0  0  0  0
   19.7814  -24.0604  -13.1872 C   0  0  0  0  0  0  0  0  0  0  0  0
   19.7310  -22.5552  -13.3413 C   0  0  2  0  0  0  0  0  0  0  0  0
   21.1036  -22.0214  -13.4269 N   0  0  0  0  0  0  0  0  0  0  0  0
   18.9700  -21.9058  -12.2800 C   0  0  0  0  0  0  0  0  0  0  0  0
   17.7847  -21.2147  -12.4563 O   0  0  0  0  0  0  0  0  0  0  0  0
   19.3887  -21.9483  -11.0760 O   0  0  0  0  0  0  0  0  0  0  0  0
  2  1  1  6
  2  3  1  0
  3  4  1  0
  4  5  2  0
  5  6  1  0
  7  6  2  0
  8  7  1  0
  9  4  1  0
  9  8  2  0
 10 12  1  0
 10  2  1  0
 11 10  2  0
 13 12  1  0
 13 14  1  1
 15 16  2  0
 15 14  1  0
 17 16  1  0
 18 17  2  0
 19 18  1  0
 19 20  2  0
 20 15  1  0
 21 28  1  0
 21 13  1  0
 22 21  2  0
 24 23  1  0
 24 25  2  0
 27 26  1  1
 26 24  1  0
 27 28  1  0
 27 29  1  0
 29 30  1  0
 31 29  2  0
M  END
$$$$
