HTG.pdb
     RDKit          3D

 22 22  0  0  1  0  0  0  0  0999 V2000
   14.9062  -13.8773   16.8108 N   0  0  0  0  0  0  0  0  0  0  0  0
   14.1877  -15.0157   17.3423 C   0  0  1  0  0  0  0  0  0  0  0  0
   15.1220  -16.1644   17.6595 C   0  0  0  0  0  0  0  0  0  0  0  0
   15.8121  -16.6642   16.4545 C   0  0  0  0  0  0  0  0  0  0  0  0
   15.1668  -17.2131   15.3773 C   0  0  0  0  0  0  0  0  0  0  0  0
   16.1129  -17.5501   14.4802 N   0  0  0  0  0  0  0  0  0  0  0  0
   17.3252  -17.2359   14.9488 C   0  0  0  0  0  0  0  0  0  0  0  0
   17.1238  -16.6919   16.1639 N   0  0  0  0  0  0  0  0  0  0  0  0
   13.4491  -14.5762   18.5408 C   0  0  0  0  0  0  0  0  0  0  0  0
   14.0090  -13.8229   19.3678 O   0  0  0  0  0  0  0  0  0  0  0  0
    9.9537  -12.9211   18.7000 C   0  0  0  0  0  0  0  0  0  0  0  0
    9.9357  -14.2065   19.4902 C   0  0  1  0  0  0  0  0  0  0  0  0
    9.3132  -15.2434   18.8151 O   0  0  0  0  0  0  0  0  0  0  0  0
   11.3231  -14.6394   19.9105 C   0  0  2  0  0  0  0  0  0  0  0  0
   12.1172  -15.0143   18.7363 N   0  0  0  0  0  0  0  0  0  0  0  0
   11.2999  -15.7666   20.8837 C   0  0  0  0  0  0  0  0  0  0  0  0
   11.5869  -16.9555   20.5028 O   0  0  0  0  0  0  0  0  0  0  0  0
   10.9762  -15.6421   22.2554 N   0  0  0  0  0  0  0  0  0  0  0  0
   10.9760  -16.8142   23.1474 C   0  0  0  0  0  0  0  0  0  0  0  0
   10.5881  -16.4633   24.5076 C   0  0  0  0  0  0  0  0  0  0  0  0
   10.4469  -17.4402   25.4680 O   0  0  0  0  0  0  0  0  0  0  0  0
   10.3796  -15.2722   24.8165 O   0  0  0  0  0  0  0  0  0  0  0  0
  2  1  1  1
  2  9  1  0
  3  2  1  0
  3  4  1  0
  4  5  2  0
  5  6  1  0
  7  6  1  0
  8  4  1  0
  8  7  2  0
  9 10  2  0
 12 11  1  6
 12 13  1  0
 12 14  1  0
 14 16  1  0
 14 15  1  6
 15  9  1  0
 16 17  2  0
 16 18  1  0
 18 19  1  0
 19 20  1  0
 20 22  2  0
 20 21  1  0
M  END
$$$$
