HTG.pdb
     RDKit          3D

 22 22  0  0  1  0  0  0  0  0999 V2000
   11.1190  -13.2804   19.2090 N   0  0  0  0  0  0  0  0  0  0  0  0
    9.9416  -13.9648   19.6988 C   0  0  1  0  0  0  0  0  0  0  0  0
    9.5953  -15.1615   18.8376 C   0  0  0  0  0  0  0  0  0  0  0  0
    9.0677  -14.7593   17.5194 C   0  0  0  0  0  0  0  0  0  0  0  0
    9.0386  -13.4645   17.0710 C   0  0  0  0  0  0  0  0  0  0  0  0
    8.4943  -13.4855   15.8395 N   0  0  0  0  0  0  0  0  0  0  0  0
    8.1802  -14.7390   15.4957 C   0  0  0  0  0  0  0  0  0  0  0  0
    8.5388  -15.5109   16.5389 N   0  0  0  0  0  0  0  0  0  0  0  0
   10.1873  -14.3617   21.0977 C   0  0  0  0  0  0  0  0  0  0  0  0
   11.3635  -14.4811   21.5067 O   0  0  0  0  0  0  0  0  0  0  0  0
    7.8328  -12.8998   23.9818 C   0  0  0  0  0  0  0  0  0  0  0  0
    8.0430  -14.3838   24.1564 C   0  0  1  0  0  0  0  0  0  0  0  0
    6.9279  -15.1287   23.8104 O   0  0  0  0  0  0  0  0  0  0  0  0
    9.2442  -14.8861   23.3858 C   0  0  2  0  0  0  0  0  0  0  0  0
    9.0873  -14.6014   21.9560 N   0  0  0  0  0  0  0  0  0  0  0  0
    9.4836  -16.3424   23.5861 C   0  0  0  0  0  0  0  0  0  0  0  0
    9.1809  -17.1800   22.6653 O   0  0  0  0  0  0  0  0  0  0  0  0
   10.0414  -16.9156   24.7532 N   0  0  0  0  0  0  0  0  0  0  0  0
   10.1894  -18.3748   24.8891 C   0  0  0  0  0  0  0  0  0  0  0  0
   10.6885  -18.7511   26.2057 C   0  0  0  0  0  0  0  0  0  0  0  0
   10.8633  -20.0772   26.5338 O   0  0  0  0  0  0  0  0  0  0  0  0
   10.9629  -17.8744   27.0504 O   0  0  0  0  0  0  0  0  0  0  0  0
  2  1  1  6
  2  9  1  0
  3  2  1  0
  3  4  1  0
  4  5  2  0
  5  6  1  0
  7  6  1  0
  8  4  1  0
  8  7  2  0
  9 10  2  0
 12 11  1  6
 12 13  1  0
 12 14  1  0
 14 16  1  0
 14 15  1  6
 15  9  1  0
 16 17  2  0
 16 18  1  0
 18 19  1  0
 19 20  1  0
 20 22  2  0
 20 21  1  0
M  END
$$$$
