HTG.pdb
     RDKit          3D

 22 22  0  0  1  0  0  0  0  0999 V2000
    6.4473  -15.8599   26.0469 N   0  0  0  0  0  0  0  0  0  0  0  0
    7.1369  -15.0549   25.0614 C   0  0  1  0  0  0  0  0  0  0  0  0
    8.0279  -14.0190   25.7143 C   0  0  0  0  0  0  0  0  0  0  0  0
    7.2623  -13.0926   26.5709 C   0  0  0  0  0  0  0  0  0  0  0  0
    6.1141  -12.4581   26.1743 C   0  0  0  0  0  0  0  0  0  0  0  0
    5.7030  -11.7023   27.2100 N   0  0  0  0  0  0  0  0  0  0  0  0
    6.5447  -11.8353   28.2405 C   0  0  0  0  0  0  0  0  0  0  0  0
    7.4984  -12.6935   27.8321 N   0  0  0  0  0  0  0  0  0  0  0  0
    7.9109  -15.9571   24.1887 C   0  0  0  0  0  0  0  0  0  0  0  0
    8.3163  -17.0517   24.6386 O   0  0  0  0  0  0  0  0  0  0  0  0
    7.0576  -16.1793   20.3185 C   0  0  0  0  0  0  0  0  0  0  0  0
    8.5543  -16.1247   20.5020 C   0  0  1  0  0  0  0  0  0  0  0  0
    9.1031  -14.9233   20.0853 O   0  0  0  0  0  0  0  0  0  0  0  0
    8.9659  -16.3981   21.9320 C   0  0  2  0  0  0  0  0  0  0  0  0
    8.1829  -15.5698   22.8545 N   0  0  0  0  0  0  0  0  0  0  0  0
   10.4198  -16.1712   22.1617 C   0  0  0  0  0  0  0  0  0  0  0  0
   10.8341  -15.0509   22.6246 O   0  0  0  0  0  0  0  0  0  0  0  0
   11.4355  -17.1223   21.9054 N   0  0  0  0  0  0  0  0  0  0  0  0
   12.8492  -16.8226   22.1908 C   0  0  0  0  0  0  0  0  0  0  0  0
   13.7167  -17.9552   21.8930 C   0  0  0  0  0  0  0  0  0  0  0  0
   15.0824  -17.8448   22.0320 O   0  0  0  0  0  0  0  0  0  0  0  0
   13.2302  -19.0382   21.5083 O   0  0  0  0  0  0  0  0  0  0  0  0
  2  1  1  1
  2  9  1  0
  3  2  1  0
  3  4  1  0
  4  5  2  0
  5  6  1  0
  7  6  1  0
  8  4  1  0
  8  7  2  0
  9 10  2  0
 12 11  1  1
 12 13  1  0
 12 14  1  0
 14 16  1  0
 14 15  1  1
 15  9  1  0
 16 17  2  0
 16 18  1  0
 18 19  1  0
 19 20  1  0
 20 22  2  0
 20 21  1  0
M  END
$$$$
