HTG.pdb
     RDKit          3D

 22 22  0  0  1  0  0  0  0  0999 V2000
   12.9470  -13.7072   17.1751 N   0  0  0  0  0  0  0  0  0  0  0  0
   12.4414  -14.8479   17.9086 C   0  0  1  0  0  0  0  0  0  0  0  0
   13.5352  -15.8564   18.1913 C   0  0  0  0  0  0  0  0  0  0  0  0
   14.0534  -16.4709   16.9537 C   0  0  0  0  0  0  0  0  0  0  0  0
   13.5642  -16.1983   15.7028 C   0  0  0  0  0  0  0  0  0  0  0  0
   14.2762  -16.9373   14.8309 N   0  0  0  0  0  0  0  0  0  0  0  0
   15.1920  -17.6626   15.4816 C   0  0  0  0  0  0  0  0  0  0  0  0
   15.0425  -17.3649   16.7862 N   0  0  0  0  0  0  0  0  0  0  0  0
   11.8257  -14.3581   19.1559 C   0  0  0  0  0  0  0  0  0  0  0  0
   12.4153  -13.4873   19.8336 O   0  0  0  0  0  0  0  0  0  0  0  0
    8.2485  -12.9990   19.5510 C   0  0  0  0  0  0  0  0  0  0  0  0
    8.4329  -14.1600   20.4971 C   0  0  1  0  0  0  0  0  0  0  0  0
    7.8222  -15.3198   20.0497 O   0  0  0  0  0  0  0  0  0  0  0  0
    9.8921  -14.4371   20.7852 C   0  0  2  0  0  0  0  0  0  0  0  0
   10.5762  -14.8815   19.5669 N   0  0  0  0  0  0  0  0  0  0  0  0
   10.0799  -15.4458   21.8648 C   0  0  0  0  0  0  0  0  0  0  0  0
   10.6587  -16.5608   21.6142 O   0  0  0  0  0  0  0  0  0  0  0  0
    9.6601  -15.2805   23.2058 N   0  0  0  0  0  0  0  0  0  0  0  0
    9.8816  -16.3361   24.2089 C   0  0  0  0  0  0  0  0  0  0  0  0
    9.3173  -15.9824   25.5052 C   0  0  0  0  0  0  0  0  0  0  0  0
    9.4237  -16.8460   26.5727 O   0  0  0  0  0  0  0  0  0  0  0  0
    8.7311  -14.8918   25.6615 O   0  0  0  0  0  0  0  0  0  0  0  0
  2  1  1  1
  2  9  1  0
  3  2  1  0
  3  4  1  0
  4  5  2  0
  5  6  1  0
  7  6  1  0
  8  4  1  0
  8  7  2  0
  9 10  2  0
 12 11  1  6
 12 13  1  0
 12 14  1  0
 14 16  1  0
 14 15  1  6
 15  9  1  0
 16 17  2  0
 16 18  1  0
 18 19  1  0
 19 20  1  0
 20 22  2  0
 20 21  1  0
M  END
$$$$
