HTG.pdb
     RDKit          3D

 22 22  0  0  1  0  0  0  0  0999 V2000
    8.6810  -17.5547   16.9501 N   0  0  0  0  0  0  0  0  0  0  0  0
    9.1471  -16.6555   17.9839 C   0  0  1  0  0  0  0  0  0  0  0  0
    8.1007  -15.6173   18.3313 C   0  0  0  0  0  0  0  0  0  0  0  0
    7.8687  -14.6736   17.2206 C   0  0  0  0  0  0  0  0  0  0  0  0
    8.3707  -13.3989   17.1841 C   0  0  0  0  0  0  0  0  0  0  0  0
    7.9550  -12.8440   16.0297 N   0  0  0  0  0  0  0  0  0  0  0  0
    7.2131  -13.7166   15.3397 C   0  0  0  0  0  0  0  0  0  0  0  0
    7.1691  -14.8371   16.0850 N   0  0  0  0  0  0  0  0  0  0  0  0
    9.5183  -17.4605   19.1624 C   0  0  0  0  0  0  0  0  0  0  0  0
    8.7068  -18.2965   19.6180 O   0  0  0  0  0  0  0  0  0  0  0  0
   13.1124  -19.5214   21.7467 C   0  0  0  0  0  0  0  0  0  0  0  0
   12.5564  -18.7556   20.5715 C   0  0  1  0  0  0  0  0  0  0  0  0
   12.3889  -19.5455   19.4463 O   0  0  0  0  0  0  0  0  0  0  0  0
   11.2507  -18.0670   20.9034 C   0  0  2  0  0  0  0  0  0  0  0  0
   10.7881  -17.2742   19.7599 N   0  0  0  0  0  0  0  0  0  0  0  0
   11.3526  -17.1993   22.1096 C   0  0  0  0  0  0  0  0  0  0  0  0
   12.0963  -16.1563   22.0948 O   0  0  0  0  0  0  0  0  0  0  0  0
   10.6721  -17.4287   23.3286 N   0  0  0  0  0  0  0  0  0  0  0  0
   10.7917  -16.4886   24.4563 C   0  0  0  0  0  0  0  0  0  0  0  0
   11.4141  -17.1093   25.6188 C   0  0  0  0  0  0  0  0  0  0  0  0
   11.7774  -18.4374   25.5912 O   0  0  0  0  0  0  0  0  0  0  0  0
   11.6245  -16.4427   26.6527 O   0  0  0  0  0  0  0  0  0  0  0  0
  2  1  1  6
  2  9  1  0
  3  2  1  0
  3  4  1  0
  4  5  2  0
  5  6  1  0
  7  6  1  0
  8  4  1  0
  8  7  2  0
  9 10  2  0
 12 11  1  1
 12 13  1  0
 12 14  1  0
 14 16  1  0
 14 15  1  6
 15  9  1  0
 16 17  2  0
 16 18  1  0
 18 19  1  0
 19 20  1  0
 20 22  2  0
 20 21  1  0
M  END
$$$$
