HTG.pdb
     RDKit          3D

 22 22  0  0  1  0  0  0  0  0999 V2000
   14.2031  -14.1856   17.5310 N   0  0  0  0  0  0  0  0  0  0  0  0
   12.8484  -14.6876   17.4452 C   0  0  1  0  0  0  0  0  0  0  0  0
   12.8205  -16.1466   17.0403 C   0  0  0  0  0  0  0  0  0  0  0  0
   13.2342  -16.3385   15.6368 C   0  0  0  0  0  0  0  0  0  0  0  0
   12.3560  -16.4634   14.5920 C   0  0  0  0  0  0  0  0  0  0  0  0
   13.0913  -16.6223   13.4752 N   0  0  0  0  0  0  0  0  0  0  0  0
   14.3944  -16.6023   13.7746 C   0  0  0  0  0  0  0  0  0  0  0  0
   14.4662  -16.4271   15.1076 N   0  0  0  0  0  0  0  0  0  0  0  0
   12.1957  -14.4790   18.7510 C   0  0  0  0  0  0  0  0  0  0  0  0
   12.8829  -14.5130   19.7958 O   0  0  0  0  0  0  0  0  0  0  0  0
    7.9941  -13.5954   18.7188 C   0  0  0  0  0  0  0  0  0  0  0  0
    8.9102  -13.0417   19.7824 C   0  0  1  0  0  0  0  0  0  0  0  0
    8.2531  -12.7757   20.9721 O   0  0  0  0  0  0  0  0  0  0  0  0
   10.0905  -13.9497   20.0502 C   0  0  2  0  0  0  0  0  0  0  0  0
   10.8007  -14.2434   18.8015 N   0  0  0  0  0  0  0  0  0  0  0  0
    9.6936  -15.2220   20.7151 C   0  0  0  0  0  0  0  0  0  0  0  0
    9.1883  -16.1792   20.0300 O   0  0  0  0  0  0  0  0  0  0  0  0
    9.8292  -15.4861   22.0984 N   0  0  0  0  0  0  0  0  0  0  0  0
    9.5724  -16.8292   22.6461 C   0  0  0  0  0  0  0  0  0  0  0  0
    9.8417  -16.8943   24.0770 C   0  0  0  0  0  0  0  0  0  0  0  0
    9.5978  -18.0520   24.7818 O   0  0  0  0  0  0  0  0  0  0  0  0
   10.2966  -15.9002   24.6790 O   0  0  0  0  0  0  0  0  0  0  0  0
  2  1  1  1
  2  9  1  0
  3  2  1  0
  3  4  1  0
  4  5  2  0
  5  6  1  0
  7  6  1  0
  8  4  1  0
  8  7  2  0
  9 10  2  0
 12 11  1  6
 12 13  1  0
 12 14  1  0
 14 16  1  0
 14 15  1  6
 15  9  1  0
 16 17  2  0
 16 18  1  0
 18 19  1  0
 19 20  1  0
 20 22  2  0
 20 21  1  0
M  END
$$$$
