HTG.pdb
     RDKit          3D

 22 22  0  0  1  0  0  0  0  0999 V2000
    6.0355  -15.5888   25.8651 N   0  0  0  0  0  0  0  0  0  0  0  0
    6.9165  -14.8261   25.0066 C   0  0  1  0  0  0  0  0  0  0  0  0
    7.8445  -13.9389   25.8098 C   0  0  0  0  0  0  0  0  0  0  0  0
    7.1109  -12.8793   26.5286 C   0  0  0  0  0  0  0  0  0  0  0  0
    6.9050  -11.6196   26.0295 C   0  0  0  0  0  0  0  0  0  0  0  0
    6.2047  -10.9377   26.9558 N   0  0  0  0  0  0  0  0  0  0  0  0
    5.9622  -11.7161   28.0156 C   0  0  0  0  0  0  0  0  0  0  0  0
    6.5258  -12.9070   27.7380 N   0  0  0  0  0  0  0  0  0  0  0  0
    7.6718  -15.7718   24.1640 C   0  0  0  0  0  0  0  0  0  0  0  0
    8.0436  -16.8649   24.6456 O   0  0  0  0  0  0  0  0  0  0  0  0
    7.1386  -15.4998   20.1509 C   0  0  0  0  0  0  0  0  0  0  0  0
    8.5670  -15.8484   20.4902 C   0  0  1  0  0  0  0  0  0  0  0  0
    9.4473  -14.8083   20.2420 O   0  0  0  0  0  0  0  0  0  0  0  0
    8.7190  -16.3066   21.9241 C   0  0  2  0  0  0  0  0  0  0  0  0
    7.9642  -15.4272   22.8224 N   0  0  0  0  0  0  0  0  0  0  0  0
   10.1429  -16.3666   22.3570 C   0  0  0  0  0  0  0  0  0  0  0  0
   10.7068  -15.3366   22.8692 O   0  0  0  0  0  0  0  0  0  0  0  0
   10.9710  -17.5089   22.2518 N   0  0  0  0  0  0  0  0  0  0  0  0
   12.3093  -17.5387   22.8664 C   0  0  0  0  0  0  0  0  0  0  0  0
   13.3635  -17.3079   21.8870 C   0  0  0  0  0  0  0  0  0  0  0  0
   14.6877  -17.3474   22.2634 O   0  0  0  0  0  0  0  0  0  0  0  0
   13.0768  -17.0719   20.6955 O   0  0  0  0  0  0  0  0  0  0  0  0
  2  1  1  1
  2  9  1  0
  3  2  1  0
  3  4  1  0
  4  5  2  0
  5  6  1  0
  7  6  1  0
  8  4  1  0
  8  7  2  0
  9 10  2  0
 12 11  1  1
 12 13  1  0
 12 14  1  0
 14 16  1  0
 14 15  1  1
 15  9  1  0
 16 17  2  0
 16 18  1  0
 18 19  1  0
 19 20  1  0
 20 22  2  0
 20 21  1  0
M  END
$$$$
