PPL.pdb
     RDKit          3D

 23 24  0  0  1  0  0  0  0  0999 V2000
   27.6591  -18.7297  -16.3777 N   0  0  0  0  0  0  0  0  0  0  0  0
   28.5231  -17.5362  -16.2368 C   0  0  0  0  0  0  0  0  0  0  0  0
   27.6077  -16.6537  -15.3950 C   0  0  0  0  0  0  0  0  0  0  0  0
   26.8302  -17.6552  -14.5349 C   0  0  0  0  0  0  0  0  0  0  0  0
   27.3874  -18.9914  -14.9974 C   0  0  1  0  0  0  0  0  0  0  0  0
   26.5373  -20.1279  -14.6818 C   0  0  0  0  0  0  0  0  0  0  0  0
   26.1939  -20.9450  -15.6302 O   0  0  0  0  0  0  0  0  0  0  0  0
   26.0621  -20.3916  -13.3894 N   0  0  0  0  0  0  0  0  0  0  0  0
   26.5923  -19.6972  -12.1910 C   0  0  0  0  0  0  0  0  0  0  0  0
   26.1560  -20.4985  -11.0068 C   0  0  0  0  0  0  0  0  0  0  0  0
   25.6124  -21.7689  -11.5749 C   0  0  0  0  0  0  0  0  0  0  0  0
   25.0682  -21.2932  -12.9226 C   0  0  1  0  0  0  0  0  0  0  0  0
   23.7654  -20.5658  -12.7013 C   0  0  0  0  0  0  0  0  0  0  0  0
   23.7975  -19.5419  -11.9771 O   0  0  0  0  0  0  0  0  0  0  0  0
   22.7095  -20.6741  -16.0984 C   0  0  0  0  0  0  0  0  0  0  0  0
   21.9577  -19.3373  -15.9803 C   0  0  2  0  0  0  0  0  0  0  0  0
   22.6852  -18.3266  -16.8178 C   0  0  0  0  0  0  0  0  0  0  0  0
   21.8869  -19.0239  -14.5348 C   0  0  0  0  0  0  0  0  0  0  0  0
   21.4812  -20.1281  -13.6194 C   0  0  2  0  0  0  0  0  0  0  0  0
   22.5527  -21.0120  -13.2821 N   0  0  0  0  0  0  0  0  0  0  0  0
   20.2798  -20.8762  -14.0671 C   0  0  0  0  0  0  0  0  0  0  0  0
   19.1286  -20.3718  -14.0859 O   0  0  0  0  0  0  0  0  0  0  0  0
   20.3784  -22.2041  -14.4967 O   0  0  0  0  0  0  0  0  0  0  0  0
  1  5  1  0
  1  2  1  0
  2  3  1  0
  4  3  1  0
  5  6  1  6
  5  4  1  0
  6  7  2  0
  6  8  1  0
  8  9  1  0
 10  9  1  0
 11 10  1  0
 11 12  1  0
 12  8  1  0
 13 20  1  0
 12 13  1  1
 14 13  2  0
 16 15  1  1
 17 16  1  0
 18 16  1  0
 19 20  1  0
 19 18  1  6
 21 19  1  0
 22 21  2  0
 23 21  1  0
M  END
$$$$
