PPL.pdb
     RDKit          3D

 23 24  0  0  1  0  0  0  0  0999 V2000
   24.4434  -19.8861  -13.2219 N   0  0  0  0  0  0  0  0  0  0  0  0
   23.3491  -19.3672  -14.0727 C   0  0  0  0  0  0  0  0  0  0  0  0
   22.4650  -20.6079  -14.1403 C   0  0  0  0  0  0  0  0  0  0  0  0
   22.6847  -21.2831  -12.7826 C   0  0  0  0  0  0  0  0  0  0  0  0
   23.6775  -20.3521  -12.1066 C   0  0  1  0  0  0  0  0  0  0  0  0
   24.3994  -20.9594  -11.0003 C   0  0  0  0  0  0  0  0  0  0  0  0
   23.7318  -21.5420  -10.0517 O   0  0  0  0  0  0  0  0  0  0  0  0
   25.7980  -20.9487  -10.9023 N   0  0  0  0  0  0  0  0  0  0  0  0
   26.6526  -20.1575  -11.8206 C   0  0  0  0  0  0  0  0  0  0  0  0
   28.0404  -20.6947  -11.6794 C   0  0  0  0  0  0  0  0  0  0  0  0
   27.8934  -21.9489  -10.8807 C   0  0  0  0  0  0  0  0  0  0  0  0
   26.6798  -21.6173  -10.0113 C   0  0  1  0  0  0  0  0  0  0  0  0
   27.1050  -20.6882   -8.9017 C   0  0  0  0  0  0  0  0  0  0  0  0
   26.8792  -19.4645   -9.0618 O   0  0  0  0  0  0  0  0  0  0  0  0
   27.3148  -19.4292   -3.9539 C   0  0  0  0  0  0  0  0  0  0  0  0
   28.4623  -20.4467   -4.0740 C   0  0  2  0  0  0  0  0  0  0  0  0
   29.7559  -19.6890   -4.0048 C   0  0  0  0  0  0  0  0  0  0  0  0
   28.2331  -21.1881   -5.3351 C   0  0  0  0  0  0  0  0  0  0  0  0
   27.8432  -20.3892   -6.5315 C   0  0  2  0  0  0  0  0  0  0  0  0
   27.7329  -21.1672   -7.7255 N   0  0  0  0  0  0  0  0  0  0  0  0
   28.6720  -19.1767   -6.7474 C   0  0  0  0  0  0  0  0  0  0  0  0
   29.7124  -19.1771   -7.4527 O   0  0  0  0  0  0  0  0  0  0  0  0
   28.3240  -17.9543   -6.1623 O   0  0  0  0  0  0  0  0  0  0  0  0
  1  5  1  0
  1  2  1  0
  2  3  1  0
  4  3  1  0
  5  6  1  1
  5  4  1  0
  6  7  2  0
  6  8  1  0
  8  9  1  0
 10  9  1  0
 11 10  1  0
 11 12  1  0
 12  8  1  0
 13 20  1  0
 12 13  1  1
 14 13  2  0
 16 15  1  6
 17 16  1  0
 18 16  1  0
 19 20  1  0
 19 18  1  1
 21 19  1  0
 22 21  2  0
 23 21  1  0
M  END
$$$$
