PPL.pdb
     RDKit          3D

 23 24  0  0  1  0  0  0  0  0999 V2000
   23.1940  -19.4223  -16.4453 N   0  0  0  0  0  0  0  0  0  0  0  0
   22.5540  -18.0894  -16.5117 C   0  0  0  0  0  0  0  0  0  0  0  0
   22.3800  -17.8129  -15.0221 C   0  0  0  0  0  0  0  0  0  0  0  0
   23.5825  -18.5134  -14.3811 C   0  0  0  0  0  0  0  0  0  0  0  0
   24.2932  -19.1161  -15.5817 C   0  0  1  0  0  0  0  0  0  0  0  0
   25.2081  -20.1954  -15.2471 C   0  0  0  0  0  0  0  0  0  0  0  0
   24.9597  -21.3937  -15.6800 O   0  0  0  0  0  0  0  0  0  0  0  0
   26.3603  -20.0079  -14.4707 N   0  0  0  0  0  0  0  0  0  0  0  0
   26.7913  -18.6695  -13.9991 C   0  0  0  0  0  0  0  0  0  0  0  0
   28.2169  -18.8076  -13.5710 C   0  0  0  0  0  0  0  0  0  0  0  0
   28.6397  -20.1568  -14.0540 C   0  0  0  0  0  0  0  0  0  0  0  0
   27.3236  -20.9326  -13.9854 C   0  0  1  0  0  0  0  0  0  0  0  0
   27.0316  -21.2855  -12.5482 C   0  0  0  0  0  0  0  0  0  0  0  0
   27.8998  -21.9516  -11.9347 O   0  0  0  0  0  0  0  0  0  0  0  0
   27.9180  -19.9029   -8.0919 C   0  0  0  0  0  0  0  0  0  0  0  0
   26.6818  -19.8317   -9.0047 C   0  0  2  0  0  0  0  0  0  0  0  0
   25.5294  -19.3406   -8.1782 C   0  0  0  0  0  0  0  0  0  0  0  0
   26.5111  -21.1840   -9.5831 C   0  0  0  0  0  0  0  0  0  0  0  0
   25.4481  -21.3526  -10.6143 C   0  0  2  0  0  0  0  0  0  0  0  0
   25.8314  -20.8864  -11.9100 N   0  0  0  0  0  0  0  0  0  0  0  0
   24.1236  -20.8154  -10.2132 C   0  0  0  0  0  0  0  0  0  0  0  0
   23.5228  -21.1857   -9.1731 O   0  0  0  0  0  0  0  0  0  0  0  0
   23.4722  -19.8529  -10.9922 O   0  0  0  0  0  0  0  0  0  0  0  0
  1  5  1  0
  1  2  1  0
  2  3  1  0
  4  3  1  0
  5  6  1  1
  5  4  1  0
  6  7  2  0
  6  8  1  0
  8  9  1  0
 10  9  1  0
 11 10  1  0
 11 12  1  0
 12  8  1  0
 13 20  1  0
 12 13  1  1
 14 13  2  0
 16 15  1  1
 17 16  1  0
 18 16  1  0
 19 20  1  0
 19 18  1  1
 21 19  1  0
 22 21  2  0
 23 21  1  0
M  END
$$$$
