PPL.pdb
     RDKit          3D

 23 24  0  0  1  0  0  0  0  0999 V2000
   22.9394  -21.3986  -13.3915 N   0  0  0  0  0  0  0  0  0  0  0  0
   22.5312  -20.4633  -14.4634 C   0  0  0  0  0  0  0  0  0  0  0  0
   22.8232  -19.1359  -13.7719 C   0  0  0  0  0  0  0  0  0  0  0  0
   24.0257  -19.4512  -12.8764 C   0  0  0  0  0  0  0  0  0  0  0  0
   24.2691  -20.9251  -13.1557 C   0  0  1  0  0  0  0  0  0  0  0  0
   25.0531  -21.5994  -12.1337 C   0  0  0  0  0  0  0  0  0  0  0  0
   24.5525  -22.6344  -11.5312 O   0  0  0  0  0  0  0  0  0  0  0  0
   26.3389  -21.1847  -11.7589 N   0  0  0  0  0  0  0  0  0  0  0  0
   27.0593  -20.0963  -12.4631 C   0  0  0  0  0  0  0  0  0  0  0  0
   28.4959  -20.2099  -12.0656 C   0  0  0  0  0  0  0  0  0  0  0  0
   28.6005  -21.5186  -11.3523 C   0  0  0  0  0  0  0  0  0  0  0  0
   27.2081  -21.6409  -10.7318 C   0  0  1  0  0  0  0  0  0  0  0  0
   27.1199  -20.7324   -9.5309 C   0  0  0  0  0  0  0  0  0  0  0  0
   26.7510  -19.5505   -9.7333 O   0  0  0  0  0  0  0  0  0  0  0  0
   28.9358  -19.1363   -4.9535 C   0  0  0  0  0  0  0  0  0  0  0  0
   27.8704  -20.1895   -4.6040 C   0  0  2  0  0  0  0  0  0  0  0  0
   28.3230  -20.9058   -3.3654 C   0  0  0  0  0  0  0  0  0  0  0  0
   27.7167  -21.0427   -5.8045 C   0  0  0  0  0  0  0  0  0  0  0  0
   27.2750  -20.3738   -7.0612 C   0  0  2  0  0  0  0  0  0  0  0  0
   27.4378  -21.1852   -8.2267 N   0  0  0  0  0  0  0  0  0  0  0  0
   27.8455  -19.0177   -7.2590 C   0  0  0  0  0  0  0  0  0  0  0  0
   28.9794  -18.8206   -7.7644 O   0  0  0  0  0  0  0  0  0  0  0  0
   27.1308  -17.8751   -6.8832 O   0  0  0  0  0  0  0  0  0  0  0  0
  1  5  1  0
  1  2  1  0
  2  3  1  0
  4  3  1  0
  5  6  1  1
  5  4  1  0
  6  7  2  0
  6  8  1  0
  8  9  1  0
 10  9  1  0
 11 10  1  0
 11 12  1  0
 12  8  1  0
 13 20  1  0
 12 13  1  1
 14 13  2  0
 16 15  1  6
 17 16  1  0
 18 16  1  0
 19 20  1  0
 19 18  1  1
 21 19  1  0
 22 21  2  0
 23 21  1  0
M  END
$$$$
