PPL.pdb
     RDKit          3D

 23 24  0  0  1  0  0  0  0  0999 V2000
   24.9404  -18.2685  -15.6854 N   0  0  0  0  0  0  0  0  0  0  0  0
   25.2993  -16.9641  -16.2856 C   0  0  0  0  0  0  0  0  0  0  0  0
   25.7343  -16.2144  -15.0308 C   0  0  0  0  0  0  0  0  0  0  0  0
   26.3350  -17.3103  -14.1445 C   0  0  0  0  0  0  0  0  0  0  0  0
   26.1605  -18.5572  -14.9956 C   0  0  1  0  0  0  0  0  0  0  0  0
   26.2322  -19.8004  -14.2452 C   0  0  0  0  0  0  0  0  0  0  0  0
   25.1904  -20.5734  -14.1984 O   0  0  0  0  0  0  0  0  0  0  0  0
   27.3831  -20.2142  -13.5596 N   0  0  0  0  0  0  0  0  0  0  0  0
   28.6106  -19.3844  -13.4948 C   0  0  0  0  0  0  0  0  0  0  0  0
   29.7137  -20.2901  -13.0501 C   0  0  0  0  0  0  0  0  0  0  0  0
   29.1409  -21.6680  -13.1257 C   0  0  0  0  0  0  0  0  0  0  0  0
   27.6638  -21.4018  -12.8320 C   0  0  1  0  0  0  0  0  0  0  0  0
   27.4887  -21.1622  -11.3530 C   0  0  0  0  0  0  0  0  0  0  0  0
   28.5129  -21.2500  -10.6338 O   0  0  0  0  0  0  0  0  0  0  0  0
   27.5313  -18.5977   -6.7269 C   0  0  0  0  0  0  0  0  0  0  0  0
   26.7658  -19.8563   -7.1699 C   0  0  2  0  0  0  0  0  0  0  0  0
   27.2857  -21.0145   -6.3695 C   0  0  0  0  0  0  0  0  0  0  0  0
   26.9554  -19.9669   -8.6343 C   0  0  0  0  0  0  0  0  0  0  0  0
   25.9889  -20.8207   -9.3818 C   0  0  2  0  0  0  0  0  0  0  0  0
   26.2261  -20.8509  -10.7910 N   0  0  0  0  0  0  0  0  0  0  0  0
   24.5647  -20.5344   -9.0763 C   0  0  0  0  0  0  0  0  0  0  0  0
   23.8022  -19.9335   -9.8747 O   0  0  0  0  0  0  0  0  0  0  0  0
   23.9968  -20.9291   -7.8601 O   0  0  0  0  0  0  0  0  0  0  0  0
  1  5  1  0
  1  2  1  0
  2  3  1  0
  4  3  1  0
  5  6  1  1
  5  4  1  0
  6  7  2  0
  6  8  1  0
  8  9  1  0
 10  9  1  0
 11 10  1  0
 11 12  1  0
 12  8  1  0
 13 20  1  0
 12 13  1  1
 14 13  2  0
 16 15  1  1
 17 16  1  0
 18 16  1  0
 19 20  1  0
 19 18  1  1
 21 19  1  0
 22 21  2  0
 23 21  1  0
M  END
$$$$
