PPL.pdb
     RDKit          3D

 23 24  0  0  1  0  0  0  0  0999 V2000
   25.8687  -21.6154  -11.6445 N   0  0  0  0  0  0  0  0  0  0  0  0
   25.7383  -20.8592  -12.9101 C   0  0  0  0  0  0  0  0  0  0  0  0
   26.2474  -19.4974  -12.4499 C   0  0  0  0  0  0  0  0  0  0  0  0
   27.2930  -19.8430  -11.3847 C   0  0  0  0  0  0  0  0  0  0  0  0
   27.2472  -21.3618  -11.3563 C   0  0  1  0  0  0  0  0  0  0  0  0
   27.8015  -21.9479  -10.1467 C   0  0  0  0  0  0  0  0  0  0  0  0
   27.0425  -22.6844   -9.3941 O   0  0  0  0  0  0  0  0  0  0  0  0
   29.1309  -21.7567   -9.7443 N   0  0  0  0  0  0  0  0  0  0  0  0
   30.1315  -21.0792  -10.6042 C   0  0  0  0  0  0  0  0  0  0  0  0
   31.4744  -21.4128  -10.0385 C   0  0  0  0  0  0  0  0  0  0  0  0
   31.2169  -22.4836   -9.0289 C   0  0  0  0  0  0  0  0  0  0  0  0
   29.8101  -22.1214   -8.5509 C   0  0  1  0  0  0  0  0  0  0  0  0
   29.8938  -20.9407   -7.6158 C   0  0  0  0  0  0  0  0  0  0  0  0
   30.0456  -19.8089   -8.1352 O   0  0  0  0  0  0  0  0  0  0  0  0
   26.7131  -19.2665   -6.0133 C   0  0  0  0  0  0  0  0  0  0  0  0
   27.0923  -20.5018   -5.1786 C   0  0  2  0  0  0  0  0  0  0  0  0
   25.9326  -20.8227   -4.2817 C   0  0  0  0  0  0  0  0  0  0  0  0
   28.3536  -20.1634   -4.4806 C   0  0  0  0  0  0  0  0  0  0  0  0
   29.5725  -19.9976   -5.3225 C   0  0  2  0  0  0  0  0  0  0  0  0
   29.8059  -21.0934   -6.2101 N   0  0  0  0  0  0  0  0  0  0  0  0
   30.7953  -19.6484   -4.5567 C   0  0  0  0  0  0  0  0  0  0  0  0
   30.9497  -18.5399   -3.9845 O   0  0  0  0  0  0  0  0  0  0  0  0
   31.8522  -20.5572   -4.4361 O   0  0  0  0  0  0  0  0  0  0  0  0
  1  5  1  0
  1  2  1  0
  2  3  1  0
  4  3  1  0
  5  6  1  1
  5  4  1  0
  6  7  2  0
  6  8  1  0
  8  9  1  0
 10  9  1  0
 11 10  1  0
 11 12  1  0
 12  8  1  0
 13 20  1  0
 12 13  1  1
 14 13  2  0
 16 15  1  1
 17 16  1  0
 18 16  1  0
 19 20  1  0
 19 18  1  1
 21 19  1  0
 22 21  2  0
 23 21  1  0
M  END
$$$$
