VLI.pdb
     RDKit          3D

 24 23  0  0  1  0  0  0  0  0999 V2000
    8.4168  -15.4496   19.5747 C   0  0  0  0  0  0  0  0  0  0  0  0
    9.5167  -16.4554   19.6284 C   0  0  2  0  0  0  0  0  0  0  0  0
    9.3511  -17.4760   18.5128 C   0  0  0  0  0  0  0  0  0  0  0  0
    9.6174  -17.1949   20.9254 C   0  0  2  0  0  0  0  0  0  0  0  0
    8.4522  -18.0202   21.1050 N   0  0  0  0  0  0  0  0  0  0  0  0
    9.7877  -16.3318   22.0980 C   0  0  0  0  0  0  0  0  0  0  0  0
   10.8107  -15.5811   22.2217 O   0  0  0  0  0  0  0  0  0  0  0  0
    5.5163  -14.0650   24.9210 C   0  0  0  0  0  0  0  0  0  0  0  0
    6.8108  -14.2675   24.1422 C   0  0  1  0  0  0  0  0  0  0  0  0
    7.4368  -12.8790   24.0139 C   0  0  0  0  0  0  0  0  0  0  0  0
    7.7041  -15.1447   24.9661 C   0  0  0  0  0  0  0  0  0  0  0  0
    9.0301  -15.4201   24.3225 C   0  0  2  0  0  0  0  0  0  0  0  0
    8.8475  -16.2643   23.1664 N   0  0  0  0  0  0  0  0  0  0  0  0
    9.8981  -16.0821   25.3496 C   0  0  0  0  0  0  0  0  0  0  0  0
   10.5019  -17.1572   25.1024 O   0  0  0  0  0  0  0  0  0  0  0  0
   10.5010  -13.1884   30.0630 C   0  0  0  0  0  0  0  0  0  0  0  0
   11.0515  -13.9438   28.8578 C   0  0  0  0  0  0  0  0  0  0  0  0
   10.8221  -15.4029   28.9802 C   0  0  2  0  0  0  0  0  0  0  0  0
   11.9071  -16.0105   29.8766 C   0  0  0  0  0  0  0  0  0  0  0  0
   10.8138  -16.1839   27.7130 C   0  0  2  0  0  0  0  0  0  0  0  0
   10.0817  -15.5326   26.6460 N   0  0  0  0  0  0  0  0  0  0  0  0
   10.4625  -17.6127   27.8481 C   0  0  0  0  0  0  0  0  0  0  0  0
    9.2990  -18.0609   27.7743 O   0  0  0  0  0  0  0  0  0  0  0  0
   11.4587  -18.5827   28.0762 O   0  0  0  0  0  0  0  0  0  0  0  0
  2  1  1  1
  2  3  1  0
  4  2  1  0
  4  5  1  1
  6  4  1  0
  6  7  2  0
  9 11  1  0
  9  8  1  1
 10  9  1  0
 12 11  1  1
 12 13  1  0
 13  6  1  0
 14 12  1  0
 15 14  2  0
 16 17  1  0
 17 18  1  0
 18 20  1  0
 18 19  1  1
 20 21  1  6
 20 22  1  0
 21 14  1  0
 22 24  1  0
 23 22  2  0
M  END
$$$$
