VLI.pdb
     RDKit          3D

 24 23  0  0  1  0  0  0  0  0999 V2000
    8.5754  -20.0949   25.0677 C   0  0  0  0  0  0  0  0  0  0  0  0
    7.1039  -19.8881   25.1949 C   0  0  2  0  0  0  0  0  0  0  0  0
    6.3815  -21.2267   25.1820 C   0  0  0  0  0  0  0  0  0  0  0  0
    6.5051  -19.0251   24.1292 C   0  0  2  0  0  0  0  0  0  0  0  0
    6.6656  -19.6568   22.8462 N   0  0  0  0  0  0  0  0  0  0  0  0
    7.0553  -17.6674   24.0753 C   0  0  0  0  0  0  0  0  0  0  0  0
    7.9790  -17.3621   23.2513 O   0  0  0  0  0  0  0  0  0  0  0  0
    6.9872  -12.3000   24.4753 C   0  0  0  0  0  0  0  0  0  0  0  0
    6.9502  -12.9793   25.8393 C   0  0  1  0  0  0  0  0  0  0  0  0
    6.0365  -12.1137   26.7067 C   0  0  0  0  0  0  0  0  0  0  0  0
    6.3319  -14.3322   25.6565 C   0  0  0  0  0  0  0  0  0  0  0  0
    7.2026  -15.2899   24.8995 C   0  0  2  0  0  0  0  0  0  0  0  0
    6.6132  -16.6071   24.9180 N   0  0  0  0  0  0  0  0  0  0  0  0
    8.5500  -15.2861   25.5561 C   0  0  0  0  0  0  0  0  0  0  0  0
    9.2814  -14.2633   25.5447 O   0  0  0  0  0  0  0  0  0  0  0  0
    9.8405  -13.2447   29.2287 C   0  0  0  0  0  0  0  0  0  0  0  0
   10.0396  -14.0609   27.9558 C   0  0  0  0  0  0  0  0  0  0  0  0
   10.1008  -15.5131   28.2457 C   0  0  2  0  0  0  0  0  0  0  0  0
   11.2897  -15.7927   29.1722 C   0  0  0  0  0  0  0  0  0  0  0  0
   10.2367  -16.4205   27.0736 C   0  0  2  0  0  0  0  0  0  0  0  0
    9.0660  -16.4302   26.2205 N   0  0  0  0  0  0  0  0  0  0  0  0
   10.7263  -17.7815   27.3756 C   0  0  0  0  0  0  0  0  0  0  0  0
   10.0086  -18.8038   27.3727 O   0  0  0  0  0  0  0  0  0  0  0  0
   12.0798  -18.0076   27.6952 O   0  0  0  0  0  0  0  0  0  0  0  0
  2  1  1  6
  2  3  1  0
  4  2  1  0
  4  5  1  6
  6  4  1  0
  6  7  2  0
  9 11  1  0
  9  8  1  6
 10  9  1  0
 12 11  1  1
 12 13  1  0
 13  6  1  0
 14 12  1  0
 15 14  2  0
 16 17  1  0
 17 18  1  0
 18 20  1  0
 18 19  1  1
 20 21  1  1
 20 22  1  0
 21 14  1  0
 22 24  1  0
 23 22  2  0
M  END
$$$$
