VLI.pdb
     RDKit          3D

 24 23  0  0  1  0  0  0  0  0999 V2000
    6.4934  -16.0352   20.1004 C   0  0  0  0  0  0  0  0  0  0  0  0
    7.6993  -16.9098   20.0290 C   0  0  2  0  0  0  0  0  0  0  0  0
    7.3727  -18.1965   19.2863 C   0  0  0  0  0  0  0  0  0  0  0  0
    8.2803  -17.2741   21.3590 C   0  0  2  0  0  0  0  0  0  0  0  0
    7.3663  -18.1287   22.0700 N   0  0  0  0  0  0  0  0  0  0  0  0
    8.6250  -16.1238   22.1999 C   0  0  0  0  0  0  0  0  0  0  0  0
    9.7134  -15.4828   22.0269 O   0  0  0  0  0  0  0  0  0  0  0  0
    7.5880  -11.7844   25.0764 C   0  0  0  0  0  0  0  0  0  0  0  0
    7.2956  -13.0272   25.9091 C   0  0  1  0  0  0  0  0  0  0  0  0
    6.0452  -12.6941   26.7226 C   0  0  0  0  0  0  0  0  0  0  0  0
    6.9921  -14.1479   24.9616 C   0  0  0  0  0  0  0  0  0  0  0  0
    8.1527  -14.5247   24.0901 C   0  0  2  0  0  0  0  0  0  0  0  0
    7.7926  -15.6423   23.2511 N   0  0  0  0  0  0  0  0  0  0  0  0
    9.2988  -14.8677   24.9932 C   0  0  0  0  0  0  0  0  0  0  0  0
   10.3902  -14.2461   24.9316 O   0  0  0  0  0  0  0  0  0  0  0  0
    9.8100  -13.4657   29.5670 C   0  0  0  0  0  0  0  0  0  0  0  0
   10.1177  -14.0538   28.1938 C   0  0  0  0  0  0  0  0  0  0  0  0
   10.0878  -15.5353   28.2183 C   0  0  2  0  0  0  0  0  0  0  0  0
   11.1982  -16.0470   29.1431 C   0  0  0  0  0  0  0  0  0  0  0  0
   10.2549  -16.2260   26.9104 C   0  0  2  0  0  0  0  0  0  0  0  0
    9.2111  -15.9057   25.9583 N   0  0  0  0  0  0  0  0  0  0  0  0
   10.5235  -17.6770   26.9864 C   0  0  0  0  0  0  0  0  0  0  0  0
    9.6842  -18.5625   26.7192 O   0  0  0  0  0  0  0  0  0  0  0  0
   11.7885  -18.1574   27.3794 O   0  0  0  0  0  0  0  0  0  0  0  0
  2  1  1  1
  2  3  1  0
  4  2  1  0
  4  5  1  1
  6  4  1  0
  6  7  2  0
  9 11  1  0
  9  8  1  6
 10  9  1  0
 12 11  1  1
 12 13  1  0
 13  6  1  0
 14 12  1  0
 15 14  2  0
 16 17  1  0
 17 18  1  0
 18 20  1  0
 18 19  1  1
 20 21  1  6
 20 22  1  0
 21 14  1  0
 22 24  1  0
 23 22  2  0
M  END
$$$$
