ATA.pdb
     RDKit          3D

 18 17  0  0  1  0  0  0  0  0999 V2000
   28.4800   -8.3489  -20.2506 C   0  0  0  0  0  0  0  0  0  0  0  0
   29.0054   -9.6792  -19.7722 C   0  0  2  0  0  0  0  0  0  0  0  0
   27.8999  -10.5561  -19.5375 N   0  0  0  0  0  0  0  0  0  0  0  0
   29.8858   -9.5338  -18.5827 C   0  0  0  0  0  0  0  0  0  0  0  0
   29.3782   -9.2476  -17.4677 O   0  0  0  0  0  0  0  0  0  0  0  0
   32.6742  -12.0429  -17.3687 C   0  0  0  0  0  0  0  0  0  0  0  0
   33.2467  -10.6488  -17.5109 C   0  0  1  0  0  0  0  0  0  0  0  0
   33.9430  -10.5389  -18.7166 O   0  0  0  0  0  0  0  0  0  0  0  0
   32.1239   -9.6043  -17.4546 C   0  0  2  0  0  0  0  0  0  0  0  0
   31.2863   -9.7012  -18.6302 N   0  0  0  0  0  0  0  0  0  0  0  0
   32.7782   -8.2801  -17.3548 C   0  0  0  0  0  0  0  0  0  0  0  0
   32.9482   -7.6463  -18.4168 O   0  0  0  0  0  0  0  0  0  0  0  0
   33.9571   -5.9325  -14.6006 C   0  0  0  0  0  0  0  0  0  0  0  0
   33.8018   -6.3936  -16.0302 C   0  0  2  0  0  0  0  0  0  0  0  0
   33.2170   -7.6975  -16.1394 N   0  0  0  0  0  0  0  0  0  0  0  0
   35.1844   -6.4772  -16.6052 C   0  0  0  0  0  0  0  0  0  0  0  0
   35.6678   -7.6118  -16.7425 O   0  0  0  0  0  0  0  0  0  0  0  0
   35.9014   -5.3448  -16.9713 O   0  0  0  0  0  0  0  0  0  0  0  0
  2  1  1  1
  3  2  1  0
  4 10  1  0
  4  2  1  0
  5  4  2  0
  7  6  1  6
  7  9  1  0
  7  8  1  0
  9 11  1  0
  9 10  1  6
 11 12  2  0
 14 13  1  1
 14 16  1  0
 15 14  1  0
 15 11  1  0
 16 18  1  0
 17 16  2  0
M  END
$$$$
