ATA.pdb
     RDKit          3D

 18 17  0  0  1  0  0  0  0  0999 V2000
   16.6275  -11.5711  -17.0574 C   0  0  0  0  0  0  0  0  0  0  0  0
   18.0068  -11.7247  -16.4669 C   0  0  2  0  0  0  0  0  0  0  0  0
   18.0634  -12.9535  -15.7367 N   0  0  0  0  0  0  0  0  0  0  0  0
   18.3927  -10.5487  -15.6428 C   0  0  0  0  0  0  0  0  0  0  0  0
   17.8619  -10.3821  -14.5143 O   0  0  0  0  0  0  0  0  0  0  0  0
   21.5956   -9.5116  -14.0149 C   0  0  0  0  0  0  0  0  0  0  0  0
   21.2122   -8.4244  -14.9959 C   0  0  1  0  0  0  0  0  0  0  0  0
   21.9004   -8.6013  -16.1983 O   0  0  0  0  0  0  0  0  0  0  0  0
   19.6987   -8.4450  -15.2481 C   0  0  2  0  0  0  0  0  0  0  0  0
   19.3386   -9.5876  -16.0592 N   0  0  0  0  0  0  0  0  0  0  0  0
   19.3606   -7.1687  -15.9177 C   0  0  0  0  0  0  0  0  0  0  0  0
   19.6069   -7.0822  -17.1385 O   0  0  0  0  0  0  0  0  0  0  0  0
   17.4942   -3.9692  -15.0898 C   0  0  0  0  0  0  0  0  0  0  0  0
   18.4308   -4.8242  -15.9096 C   0  0  2  0  0  0  0  0  0  0  0  0
   18.7811   -6.0537  -15.2618 N   0  0  0  0  0  0  0  0  0  0  0  0
   19.6946   -4.0344  -16.0772 C   0  0  0  0  0  0  0  0  0  0  0  0
   19.6216   -2.9942  -16.7499 O   0  0  0  0  0  0  0  0  0  0  0  0
   20.8976   -4.4374  -15.5109 O   0  0  0  0  0  0  0  0  0  0  0  0
  2  1  1  1
  3  2  1  0
  4 10  1  0
  4  2  1  0
  5  4  2  0
  7  6  1  1
  7  9  1  0
  7  8  1  0
  9 11  1  0
  9 10  1  6
 11 12  2  0
 14 13  1  1
 14 16  1  0
 15 14  1  0
 15 11  1  0
 16 18  1  0
 17 16  2  0
M  END
$$$$
