ATA.pdb
     RDKit          3D

 18 17  0  0  1  0  0  0  0  0999 V2000
   16.2657  -12.5336  -16.4021 C   0  0  0  0  0  0  0  0  0  0  0  0
   17.3412  -12.1154  -15.4311 C   0  0  2  0  0  0  0  0  0  0  0  0
   16.7559  -11.9461  -14.1368 N   0  0  0  0  0  0  0  0  0  0  0  0
   18.0687  -10.9045  -15.8953 C   0  0  0  0  0  0  0  0  0  0  0  0
   18.7543  -10.9596  -16.9487 O   0  0  0  0  0  0  0  0  0  0  0  0
   16.5356   -7.5501  -16.8255 C   0  0  0  0  0  0  0  0  0  0  0  0
   17.5716   -7.3268  -15.7446 C   0  0  1  0  0  0  0  0  0  0  0  0
   16.9515   -7.2596  -14.4950 O   0  0  0  0  0  0  0  0  0  0  0  0
   18.6069   -8.4594  -15.7579 C   0  0  2  0  0  0  0  0  0  0  0  0
   18.0356   -9.6707  -15.2108 N   0  0  0  0  0  0  0  0  0  0  0  0
   19.7629   -7.9897  -14.9612 C   0  0  0  0  0  0  0  0  0  0  0  0
   19.7427   -8.2222  -13.7348 O   0  0  0  0  0  0  0  0  0  0  0  0
   23.1799   -6.4533  -15.5964 C   0  0  0  0  0  0  0  0  0  0  0  0
   22.0036   -6.8538  -14.7382 C   0  0  2  0  0  0  0  0  0  0  0  0
   20.8767   -7.3003  -15.5028 N   0  0  0  0  0  0  0  0  0  0  0  0
   21.5772   -5.6225  -13.9957 C   0  0  0  0  0  0  0  0  0  0  0  0
   20.5159   -5.0893  -14.3553 O   0  0  0  0  0  0  0  0  0  0  0  0
   22.3262   -5.0933  -12.9521 O   0  0  0  0  0  0  0  0  0  0  0  0
  2  1  1  6
  3  2  1  0
  4 10  1  0
  4  2  1  0
  5  4  2  0
  7  6  1  6
  7  9  1  0
  7  8  1  0
  9 11  1  0
  9 10  1  1
 11 12  2  0
 14 13  1  6
 14 16  1  0
 15 14  1  0
 15 11  1  0
 16 18  1  0
 17 16  2  0
M  END
$$$$
