ATA.pdb
     RDKit          3D

 18 17  0  0  1  0  0  0  0  0999 V2000
   16.8353  -11.7425  -14.7985 C   0  0  0  0  0  0  0  0  0  0  0  0
   16.9342  -10.7206  -15.9033 C   0  0  2  0  0  0  0  0  0  0  0  0
   16.5638  -11.3379  -17.1394 N   0  0  0  0  0  0  0  0  0  0  0  0
   18.2793  -10.0889  -15.9572 C   0  0  0  0  0  0  0  0  0  0  0  0
   19.3056  -10.8055  -15.8310 O   0  0  0  0  0  0  0  0  0  0  0  0
   19.0120   -6.4917  -17.9692 C   0  0  0  0  0  0  0  0  0  0  0  0
   20.0399   -7.5523  -17.6378 C   0  0  1  0  0  0  0  0  0  0  0  0
   21.3260   -7.0142  -17.7223 O   0  0  0  0  0  0  0  0  0  0  0  0
   19.7942   -8.1096  -16.2293 C   0  0  2  0  0  0  0  0  0  0  0  0
   18.4781   -8.7044  -16.1454 N   0  0  0  0  0  0  0  0  0  0  0  0
   19.9445   -6.9754  -15.2898 C   0  0  0  0  0  0  0  0  0  0  0  0
   18.9777   -6.1930  -15.1808 O   0  0  0  0  0  0  0  0  0  0  0  0
   22.1750   -6.0783  -12.4036 C   0  0  0  0  0  0  0  0  0  0  0  0
   21.2099   -5.7172  -13.5075 C   0  0  2  0  0  0  0  0  0  0  0  0
   21.1069   -6.7292  -14.5170 N   0  0  0  0  0  0  0  0  0  0  0  0
   21.7558   -4.4857  -14.1669 C   0  0  0  0  0  0  0  0  0  0  0  0
   22.1755   -4.6097  -15.3281 O   0  0  0  0  0  0  0  0  0  0  0  0
   21.7955   -3.2573  -13.5190 O   0  0  0  0  0  0  0  0  0  0  0  0
  2  1  1  1
  3  2  1  0
  4 10  1  0
  4  2  1  0
  5  4  2  0
  7  6  1  1
  7  9  1  0
  7  8  1  0
  9 11  1  0
  9 10  1  6
 11 12  2  0
 14 13  1  1
 14 16  1  0
 15 14  1  0
 15 11  1  0
 16 18  1  0
 17 16  2  0
M  END
$$$$
