ATA.pdb
     RDKit          3D

 18 17  0  0  1  0  0  0  0  0999 V2000
   19.9893  -10.3648  -20.6385 C   0  0  0  0  0  0  0  0  0  0  0  0
   21.1165  -11.1869  -20.0657 C   0  0  2  0  0  0  0  0  0  0  0  0
   20.7924  -12.5738  -20.1999 N   0  0  0  0  0  0  0  0  0  0  0  0
   21.4275  -10.8029  -18.6633 C   0  0  0  0  0  0  0  0  0  0  0  0
   20.7305  -11.2678  -17.7247 O   0  0  0  0  0  0  0  0  0  0  0  0
   24.5507   -9.2556  -15.2268 C   0  0  0  0  0  0  0  0  0  0  0  0
   24.2584   -9.6782  -16.6506 C   0  0  1  0  0  0  0  0  0  0  0  0
   24.6762  -10.9953  -16.8535 O   0  0  0  0  0  0  0  0  0  0  0  0
   22.7579   -9.5508  -16.9460 C   0  0  2  0  0  0  0  0  0  0  0  0
   22.4799   -9.9297  -18.3143 N   0  0  0  0  0  0  0  0  0  0  0  0
   22.3894   -8.1416  -16.6814 C   0  0  0  0  0  0  0  0  0  0  0  0
   22.8776   -7.2733  -17.4339 O   0  0  0  0  0  0  0  0  0  0  0  0
   20.0710   -6.2219  -14.3520 C   0  0  0  0  0  0  0  0  0  0  0  0
   21.1871   -6.3617  -15.3596 C   0  0  2  0  0  0  0  0  0  0  0  0
   21.5258   -7.7263  -15.6370 N   0  0  0  0  0  0  0  0  0  0  0  0
   22.3969   -5.7186  -14.7497 C   0  0  0  0  0  0  0  0  0  0  0  0
   22.3784   -4.4831  -14.6352 O   0  0  0  0  0  0  0  0  0  0  0  0
   23.4938   -6.4600  -14.3285 O   0  0  0  0  0  0  0  0  0  0  0  0
  2  1  1  1
  3  2  1  0
  4 10  1  0
  4  2  1  0
  5  4  2  0
  7  6  1  1
  7  9  1  0
  7  8  1  0
  9 11  1  0
  9 10  1  6
 11 12  2  0
 14 13  1  1
 14 16  1  0
 15 14  1  0
 15 11  1  0
 16 18  1  0
 17 16  2  0
M  END
$$$$
