ATA.pdb
     RDKit          3D

 18 17  0  0  1  0  0  0  0  0999 V2000
   15.9139   -8.8635  -16.0757 C   0  0  0  0  0  0  0  0  0  0  0  0
   17.0226   -9.8785  -16.1990 C   0  0  2  0  0  0  0  0  0  0  0  0
   16.5274  -11.1568  -15.7904 N   0  0  0  0  0  0  0  0  0  0  0  0
   18.2387   -9.4671  -15.4487 C   0  0  0  0  0  0  0  0  0  0  0  0
   18.3589   -9.7902  -14.2387 O   0  0  0  0  0  0  0  0  0  0  0  0
   21.9383  -10.2734  -15.5664 C   0  0  0  0  0  0  0  0  0  0  0  0
   21.7326   -8.8151  -15.9166 C   0  0  1  0  0  0  0  0  0  0  0  0
   21.6690   -8.6611  -17.3033 O   0  0  0  0  0  0  0  0  0  0  0  0
   20.4447   -8.2890  -15.2691 C   0  0  2  0  0  0  0  0  0  0  0  0
   19.2886   -8.7201  -16.0245 N   0  0  0  0  0  0  0  0  0  0  0  0
   20.5575   -6.8133  -15.2335 C   0  0  0  0  0  0  0  0  0  0  0  0
   19.9857   -6.1754  -16.1416 O   0  0  0  0  0  0  0  0  0  0  0  0
   21.9604   -4.1506  -12.9064 C   0  0  0  0  0  0  0  0  0  0  0  0
   21.3825   -4.6639  -14.2037 C   0  0  2  0  0  0  0  0  0  0  0  0
   21.2676   -6.0920  -14.2413 N   0  0  0  0  0  0  0  0  0  0  0  0
   22.3415   -4.2666  -15.2860 C   0  0  0  0  0  0  0  0  0  0  0  0
   23.1765   -5.1154  -15.6358 O   0  0  0  0  0  0  0  0  0  0  0  0
   22.3075   -3.0100  -15.8778 O   0  0  0  0  0  0  0  0  0  0  0  0
  2  1  1  1
  3  2  1  0
  4 10  1  0
  4  2  1  0
  5  4  2  0
  7  6  1  6
  7  9  1  0
  7  8  1  0
  9 11  1  0
  9 10  1  6
 11 12  2  0
 14 13  1  1
 14 16  1  0
 15 14  1  0
 15 11  1  0
 16 18  1  0
 17 16  2  0
M  END
$$$$
