ATA.pdb
     RDKit          3D

 18 17  0  0  1  0  0  0  0  0999 V2000
   15.1722   -9.7947  -14.1898 C   0  0  0  0  0  0  0  0  0  0  0  0
   15.8498   -9.8088  -15.5372 C   0  0  2  0  0  0  0  0  0  0  0  0
   15.6213  -11.0777  -16.1569 N   0  0  0  0  0  0  0  0  0  0  0  0
   17.2943   -9.4706  -15.4364 C   0  0  0  0  0  0  0  0  0  0  0  0
   18.1129  -10.3530  -15.0701 O   0  0  0  0  0  0  0  0  0  0  0  0
   19.6854   -8.7874  -18.0427 C   0  0  0  0  0  0  0  0  0  0  0  0
   19.6948   -7.5548  -17.1641 C   0  0  1  0  0  0  0  0  0  0  0  0
   18.8624   -6.5740  -17.7079 O   0  0  0  0  0  0  0  0  0  0  0  0
   19.2321   -7.9097  -15.7447 C   0  0  2  0  0  0  0  0  0  0  0  0
   17.8133   -8.1922  -15.7332 N   0  0  0  0  0  0  0  0  0  0  0  0
   19.5678   -6.7522  -14.8849 C   0  0  0  0  0  0  0  0  0  0  0  0
   18.7010   -5.8621  -14.7624 O   0  0  0  0  0  0  0  0  0  0  0  0
   22.3859   -5.7286  -12.5402 C   0  0  0  0  0  0  0  0  0  0  0  0
   21.1000   -5.5214  -13.3043 C   0  0  2  0  0  0  0  0  0  0  0  0
   20.8000   -6.5978  -14.2016 N   0  0  0  0  0  0  0  0  0  0  0  0
   21.2912   -4.2889  -14.1371 C   0  0  0  0  0  0  0  0  0  0  0  0
   21.4427   -4.4538  -15.3576 O   0  0  0  0  0  0  0  0  0  0  0  0
   21.3004   -3.0159  -13.5805 O   0  0  0  0  0  0  0  0  0  0  0  0
  2  1  1  1
  3  2  1  0
  4 10  1  0
  4  2  1  0
  5  4  2  0
  7  6  1  6
  7  9  1  0
  7  8  1  0
  9 11  1  0
  9 10  1  6
 11 12  2  0
 14 13  1  6
 14 16  1  0
 15 14  1  0
 15 11  1  0
 16 18  1  0
 17 16  2  0
M  END
$$$$
