ATA.pdb
     RDKit          3D

 18 17  0  0  1  0  0  0  0  0999 V2000
   21.2509  -11.4193  -19.8325 C   0  0  0  0  0  0  0  0  0  0  0  0
   22.5528  -11.7001  -19.1247 C   0  0  2  0  0  0  0  0  0  0  0  0
   22.7557  -13.1152  -19.0730 N   0  0  0  0  0  0  0  0  0  0  0  0
   22.6040  -11.0631  -17.7821 C   0  0  0  0  0  0  0  0  0  0  0  0
   21.9088  -11.5349  -16.8457 O   0  0  0  0  0  0  0  0  0  0  0  0
   25.3744  -10.6437  -15.2991 C   0  0  0  0  0  0  0  0  0  0  0  0
   24.8807   -9.2586  -15.6586 C   0  0  1  0  0  0  0  0  0  0  0  0
   25.7121   -8.6913  -16.6269 O   0  0  0  0  0  0  0  0  0  0  0  0
   23.4383   -9.3261  -16.1778 C   0  0  2  0  0  0  0  0  0  0  0  0
   23.4027   -9.9371  -17.4886 N   0  0  0  0  0  0  0  0  0  0  0  0
   22.9300   -7.9360  -16.2066 C   0  0  0  0  0  0  0  0  0  0  0  0
   23.1550   -7.2676  -17.2367 O   0  0  0  0  0  0  0  0  0  0  0  0
   20.6170   -5.7557  -14.1389 C   0  0  0  0  0  0  0  0  0  0  0  0
   21.6751   -5.9996  -15.1884 C   0  0  2  0  0  0  0  0  0  0  0  0
   22.2122   -7.3277  -15.1465 N   0  0  0  0  0  0  0  0  0  0  0  0
   22.8009   -5.0553  -14.8883 C   0  0  0  0  0  0  0  0  0  0  0  0
   23.7354   -5.4961  -14.2011 O   0  0  0  0  0  0  0  0  0  0  0  0
   22.8093   -3.7457  -15.3520 O   0  0  0  0  0  0  0  0  0  0  0  0
  2  1  1  1
  3  2  1  0
  4 10  1  0
  4  2  1  0
  5  4  2  0
  7  6  1  6
  7  9  1  0
  7  8  1  0
  9 11  1  0
  9 10  1  6
 11 12  2  0
 14 13  1  1
 14 16  1  0
 15 14  1  0
 15 11  1  0
 16 18  1  0
 17 16  2  0
M  END
$$$$
