ATA.pdb
     RDKit          3D

 18 17  0  0  1  0  0  0  0  0999 V2000
   20.9416  -13.9574  -19.5336 C   0  0  0  0  0  0  0  0  0  0  0  0
   20.8051  -13.3764  -18.1486 C   0  0  2  0  0  0  0  0  0  0  0  0
   20.5771  -14.4408  -17.2205 N   0  0  0  0  0  0  0  0  0  0  0  0
   19.7541  -12.3262  -18.0875 C   0  0  0  0  0  0  0  0  0  0  0  0
   18.9110  -12.2389  -19.0172 O   0  0  0  0  0  0  0  0  0  0  0  0
   17.0053  -11.7882  -15.5241 C   0  0  0  0  0  0  0  0  0  0  0  0
   17.8657  -10.5440  -15.5782 C   0  0  1  0  0  0  0  0  0  0  0  0
   18.8139  -10.5738  -14.5531 O   0  0  0  0  0  0  0  0  0  0  0  0
   18.5659  -10.4401  -16.9397 C   0  0  2  0  0  0  0  0  0  0  0  0
   19.6432  -11.4018  -17.0269 N   0  0  0  0  0  0  0  0  0  0  0  0
   19.0606   -9.0499  -17.0597 C   0  0  0  0  0  0  0  0  0  0  0  0
   20.2295   -8.8258  -16.6829 O   0  0  0  0  0  0  0  0  0  0  0  0
   17.7677   -5.6931  -18.3175 C   0  0  0  0  0  0  0  0  0  0  0  0
   18.7357   -6.6097  -17.6081 C   0  0  2  0  0  0  0  0  0  0  0  0
   18.2943   -7.9727  -17.5710 N   0  0  0  0  0  0  0  0  0  0  0  0
   18.8173   -6.1302  -16.1894 C   0  0  0  0  0  0  0  0  0  0  0  0
   19.3455   -5.0233  -16.0003 O   0  0  0  0  0  0  0  0  0  0  0  0
   18.3280   -6.8804  -15.1273 O   0  0  0  0  0  0  0  0  0  0  0  0
  2  1  1  6
  3  2  1  0
  4 10  1  0
  4  2  1  0
  5  4  2  0
  7  6  1  6
  7  9  1  0
  7  8  1  0
  9 11  1  0
  9 10  1  1
 11 12  2  0
 14 13  1  6
 14 16  1  0
 15 14  1  0
 15 11  1  0
 16 18  1  0
 17 16  2  0
M  END
$$$$
