RQR.pdb
     RDKit          3D

 32 31  0  0  1  0  0  0  0  0999 V2000
   11.1570  -16.7922   13.6925 N   0  0  0  0  0  0  0  0  0  0  0  0
    9.9360  -16.2555   14.1882 C   0  0  0  0  0  0  0  0  0  0  0  0
    8.9252  -16.1022   13.3728 N   0  0  0  0  0  0  0  0  0  0  0  0
    9.7981  -15.8822   15.5534 N   0  0  0  0  0  0  0  0  0  0  0  0
    8.5313  -15.4641   16.0729 C   0  0  0  0  0  0  0  0  0  0  0  0
    8.3907  -13.9776   16.2677 C   0  0  0  0  0  0  0  0  0  0  0  0
    8.6087  -13.5016   17.6625 C   0  0  0  0  0  0  0  0  0  0  0  0
    7.4014  -13.7937   18.5432 C   0  0  2  0  0  0  0  0  0  0  0  0
    6.7278  -12.5687   18.8692 N   0  0  0  0  0  0  0  0  0  0  0  0
    7.8889  -14.5250   19.7514 C   0  0  0  0  0  0  0  0  0  0  0  0
    8.5885  -13.8817   20.5692 O   0  0  0  0  0  0  0  0  0  0  0  0
    8.0371  -15.6728   13.6859 N   0  0  0  0  0  0  0  0  0  0  0  0
    6.0991  -20.1742   21.6219 C   0  0  0  0  0  0  0  0  0  0  0  0
    5.4236  -19.0566   21.0609 O   0  0  0  0  0  0  0  0  0  0  0  0
    4.2103  -19.0975   20.7364 C   0  0  0  0  0  0  0  0  0  0  0  0
    6.1621  -17.7814   20.8409 C   0  0  0  0  0  0  0  0  0  0  0  0
    7.5785  -17.8667   21.3347 C   0  0  2  0  0  0  0  0  0  0  0  0
    8.3166  -16.5582   21.0725 N   0  0  0  0  0  0  0  0  0  0  0  0
    7.6212  -15.8697   20.0344 C   0  0  0  0  0  0  0  0  0  0  0  0
    9.7366  -16.7904   20.7846 O   0  0  0  0  0  0  0  0  0  0  0  0
   10.1649  -17.5093   19.8534 N   0  0  0  0  0  0  0  0  0  0  0  0
   16.0324  -13.0064   17.1033 C   0  0  0  0  0  0  0  0  0  0  0  0
   16.7159  -13.9569   17.9334 N   0  0  0  0  0  0  0  0  0  0  0  0
   17.9375  -14.1925   17.7151 N   0  0  0  0  0  0  0  0  0  0  0  0
   16.0614  -14.6282   18.9845 C   0  0  0  0  0  0  0  0  0  0  0  0
   14.7477  -14.4495   19.4470 C   0  0  0  0  0  0  0  0  0  0  0  0
   14.2934  -15.3137   20.5885 C   0  0  0  0  0  0  0  0  0  0  0  0
   12.7981  -15.0471   20.8803 C   0  0  2  0  0  0  0  0  0  0  0  0
   12.1252  -16.3034   21.3474 N   0  0  0  0  0  0  0  0  0  0  0  0
   10.7269  -16.1683   21.6056 C   0  0  0  0  0  0  0  0  0  0  0  0
   12.8568  -16.8938   22.5125 O   0  0  0  0  0  0  0  0  0  0  0  0
   12.3524  -16.9979   23.6568 O   0  0  0  0  0  0  0  0  0  0  0  0
  2  3  2  0
  2  1  1  0
  4  2  1  0
  5  6  1  0
  5  4  1  0
  6  7  1  0
  7  8  1  0
  8 10  1  0
  8  9  1  1
 10 18  1  0
 11 10  2  0
 13 12  1  0
 13 14  2  0
 15 13  1  0
 16 15  1  0
 17 16  1  1
 18 17  1  0
 19 20  2  0
 19 17  1  0
 22 21  1  0
 23 22  2  0
 24 22  1  0
 25 24  1  0
 26 27  1  0
 26 25  1  0
 28 27  1  6
 28 30  1  0
 28 29  1  0
 29 19  1  0
 30 32  1  0
 31 30  2  0
M  END
$$$$
