RQR.pdb
     RDKit          3D

 32 31  0  0  1  0  0  0  0  0999 V2000
    8.8598  -17.6691   14.4105 N   0  0  0  0  0  0  0  0  0  0  0  0
    9.0195  -16.4173   13.7532 C   0  0  0  0  0  0  0  0  0  0  0  0
    9.9205  -16.2970   12.8131 N   0  0  0  0  0  0  0  0  0  0  0  0
    8.2173  -15.2963   14.1028 N   0  0  0  0  0  0  0  0  0  0  0  0
    7.3371  -15.3501   15.2305 C   0  0  0  0  0  0  0  0  0  0  0  0
    7.7610  -14.5022   16.4005 C   0  0  0  0  0  0  0  0  0  0  0  0
    6.8038  -14.4801   17.5420 C   0  0  0  0  0  0  0  0  0  0  0  0
    7.3506  -13.6687   18.7086 C   0  0  2  0  0  0  0  0  0  0  0  0
    7.8586  -12.4130   18.2336 N   0  0  0  0  0  0  0  0  0  0  0  0
    8.3944  -14.4961   19.3854 C   0  0  0  0  0  0  0  0  0  0  0  0
    8.0815  -15.6676   19.7047 O   0  0  0  0  0  0  0  0  0  0  0  0
   10.1211  -15.3840   12.3689 N   0  0  0  0  0  0  0  0  0  0  0  0
   14.6260  -13.4918   19.8541 C   0  0  0  0  0  0  0  0  0  0  0  0
   14.4108  -14.6127   20.7011 O   0  0  0  0  0  0  0  0  0  0  0  0
   15.3390  -15.1477   21.3576 C   0  0  0  0  0  0  0  0  0  0  0  0
   13.0431  -15.1897   20.8292 C   0  0  0  0  0  0  0  0  0  0  0  0
   12.0090  -14.3210   20.1709 C   0  0  2  0  0  0  0  0  0  0  0  0
   10.6143  -14.9052   20.3688 N   0  0  0  0  0  0  0  0  0  0  0  0
    9.6901  -14.0594   19.6864 C   0  0  0  0  0  0  0  0  0  0  0  0
   10.3080  -15.0953   21.7912 O   0  0  0  0  0  0  0  0  0  0  0  0
   10.1609  -14.1660   22.6172 N   0  0  0  0  0  0  0  0  0  0  0  0
    7.5802  -22.3959   26.7107 C   0  0  0  0  0  0  0  0  0  0  0  0
    7.4832  -21.1623   27.4377 N   0  0  0  0  0  0  0  0  0  0  0  0
    6.8424  -21.1426   28.5261 N   0  0  0  0  0  0  0  0  0  0  0  0
    8.0863  -19.9780   26.9713 C   0  0  0  0  0  0  0  0  0  0  0  0
    8.3870  -19.6171   25.6480 C   0  0  0  0  0  0  0  0  0  0  0  0
    8.9679  -18.2510   25.4193 C   0  0  0  0  0  0  0  0  0  0  0  0
    9.2590  -18.0545   23.9130 C   0  0  1  0  0  0  0  0  0  0  0  0
    9.7982  -16.6779   23.6607 N   0  0  0  0  0  0  0  0  0  0  0  0
   10.1614  -16.4212   22.3034 C   0  0  0  0  0  0  0  0  0  0  0  0
   10.9131  -16.3642   24.6093 O   0  0  0  0  0  0  0  0  0  0  0  0
   10.7219  -15.9533   25.7794 O   0  0  0  0  0  0  0  0  0  0  0  0
  2  3  2  0
  2  1  1  0
  4  2  1  0
  5  6  1  0
  5  4  1  0
  6  7  1  0
  7  8  1  0
  8 10  1  0
  8  9  1  6
 10 18  1  0
 11 10  2  0
 13 12  1  0
 13 14  2  0
 15 13  1  0
 16 15  1  0
 17 16  1  6
 18 17  1  0
 19 20  2  0
 19 17  1  0
 22 21  1  0
 23 22  2  0
 24 22  1  0
 25 24  1  0
 26 27  1  0
 26 25  1  0
 28 27  1  6
 28 30  1  0
 28 29  1  0
 29 19  1  0
 30 32  1  0
 31 30  2  0
M  END
$$$$
