RQR.pdb
     RDKit          3D

 32 31  0  0  1  0  0  0  0  0999 V2000
    8.9148  -13.3110   17.1901 N   0  0  0  0  0  0  0  0  0  0  0  0
    8.4319  -12.9309   18.4735 C   0  0  0  0  0  0  0  0  0  0  0  0
    8.6704  -11.7239   18.9166 N   0  0  0  0  0  0  0  0  0  0  0  0
    7.6968  -13.8416   19.2812 N   0  0  0  0  0  0  0  0  0  0  0  0
    8.3554  -14.9234   19.9483 C   0  0  0  0  0  0  0  0  0  0  0  0
    9.2939  -14.5058   21.0493 C   0  0  0  0  0  0  0  0  0  0  0  0
    8.8955  -14.9437   22.4165 C   0  0  0  0  0  0  0  0  0  0  0  0
    9.6216  -16.2187   22.8240 C   0  0  2  0  0  0  0  0  0  0  0  0
    9.4373  -17.2272   21.8191 N   0  0  0  0  0  0  0  0  0  0  0  0
    9.0963  -16.6311   24.1604 C   0  0  0  0  0  0  0  0  0  0  0  0
    9.2028  -15.8068   25.0992 O   0  0  0  0  0  0  0  0  0  0  0  0
    8.3075  -11.4010   19.8304 N   0  0  0  0  0  0  0  0  0  0  0  0
    5.6006  -21.5606   25.5982 C   0  0  0  0  0  0  0  0  0  0  0  0
    5.8395  -21.0017   26.8830 O   0  0  0  0  0  0  0  0  0  0  0  0
    5.5070  -21.5876   27.9437 C   0  0  0  0  0  0  0  0  0  0  0  0
    6.5062  -19.6743   26.9986 C   0  0  0  0  0  0  0  0  0  0  0  0
    6.8713  -19.1162   25.6523 C   0  0  1  0  0  0  0  0  0  0  0  0
    8.0919  -18.2085   25.7621 N   0  0  0  0  0  0  0  0  0  0  0  0
    8.4964  -17.8653   24.4378 C   0  0  0  0  0  0  0  0  0  0  0  0
    9.1518  -18.8279   26.5660 O   0  0  0  0  0  0  0  0  0  0  0  0
    9.8712  -19.7782   26.1830 N   0  0  0  0  0  0  0  0  0  0  0  0
   13.9708  -20.7739   32.5895 C   0  0  0  0  0  0  0  0  0  0  0  0
   14.8259  -20.3074   31.5355 N   0  0  0  0  0  0  0  0  0  0  0  0
   16.0779  -20.3802   31.6862 N   0  0  0  0  0  0  0  0  0  0  0  0
   14.3053  -19.7758   30.3396 C   0  0  0  0  0  0  0  0  0  0  0  0
   12.9699  -19.7528   29.9060 C   0  0  0  0  0  0  0  0  0  0  0  0
   12.0379  -18.7933   30.5893 C   0  0  0  0  0  0  0  0  0  0  0  0
   11.2135  -18.0247   29.5302 C   0  0  1  0  0  0  0  0  0  0  0  0
   10.3347  -18.9698   28.7660 N   0  0  0  0  0  0  0  0  0  0  0  0
    9.4069  -18.3369   27.8834 C   0  0  0  0  0  0  0  0  0  0  0  0
    9.6603  -19.9323   29.6934 O   0  0  0  0  0  0  0  0  0  0  0  0
    8.4802  -19.7852   30.0939 O   0  0  0  0  0  0  0  0  0  0  0  0
  2  3  2  0
  2  1  1  0
  4  2  1  0
  5  6  1  0
  5  4  1  0
  6  7  1  0
  7  8  1  0
  8 10  1  0
  8  9  1  6
 10 18  1  0
 11 10  2  0
 13 12  1  0
 13 14  2  0
 15 13  1  0
 16 15  1  0
 17 16  1  1
 18 17  1  0
 19 20  2  0
 19 17  1  0
 22 21  1  0
 23 22  2  0
 24 22  1  0
 25 24  1  0
 26 27  1  0
 26 25  1  0
 28 27  1  6
 28 30  1  0
 28 29  1  0
 29 19  1  0
 30 32  1  0
 31 30  2  0
M  END
$$$$
