RQR.pdb
     RDKit          3D

 32 31  0  0  1  0  0  0  0  0999 V2000
   11.3853  -21.2636   14.3672 N   0  0  0  0  0  0  0  0  0  0  0  0
    9.9959  -21.5267   14.5251 C   0  0  0  0  0  0  0  0  0  0  0  0
    9.3196  -22.0243   13.5226 N   0  0  0  0  0  0  0  0  0  0  0  0
    9.3319  -21.2561   15.7532 N   0  0  0  0  0  0  0  0  0  0  0  0
    8.3740  -20.1965   15.8485 C   0  0  0  0  0  0  0  0  0  0  0  0
    8.9546  -18.8115   15.7381 C   0  0  0  0  0  0  0  0  0  0  0  0
    7.9875  -17.7026   15.9715 C   0  0  0  0  0  0  0  0  0  0  0  0
    8.6255  -16.3455   15.7070 C   0  0  2  0  0  0  0  0  0  0  0  0
    9.7285  -16.4936   14.8004 N   0  0  0  0  0  0  0  0  0  0  0  0
    9.0332  -15.7726   17.0252 C   0  0  0  0  0  0  0  0  0  0  0  0
   10.2117  -15.9775   17.4012 O   0  0  0  0  0  0  0  0  0  0  0  0
    8.2898  -22.1212   13.5591 N   0  0  0  0  0  0  0  0  0  0  0  0
    5.8672  -11.7291   20.7449 C   0  0  0  0  0  0  0  0  0  0  0  0
    7.0649  -11.9719   21.4705 O   0  0  0  0  0  0  0  0  0  0  0  0
    7.3133  -11.4093   22.5663 C   0  0  0  0  0  0  0  0  0  0  0  0
    8.0758  -12.9238   20.9299 C   0  0  0  0  0  0  0  0  0  0  0  0
    7.6547  -13.4877   19.6026 C   0  0  1  0  0  0  0  0  0  0  0  0
    8.6723  -14.5102   19.1081 N   0  0  0  0  0  0  0  0  0  0  0  0
    8.1982  -15.0267   17.8657 C   0  0  0  0  0  0  0  0  0  0  0  0
    8.9338  -15.5408   20.1196 O   0  0  0  0  0  0  0  0  0  0  0  0
    8.2280  -16.5598   20.2952 N   0  0  0  0  0  0  0  0  0  0  0  0
   14.1316  -15.9899   17.6318 C   0  0  0  0  0  0  0  0  0  0  0  0
   15.0205  -15.5086   18.6506 N   0  0  0  0  0  0  0  0  0  0  0  0
   15.8498  -14.6012   18.3600 N   0  0  0  0  0  0  0  0  0  0  0  0
   14.9884  -16.0186   19.9631 C   0  0  0  0  0  0  0  0  0  0  0  0
   13.9846  -16.7873   20.5740 C   0  0  0  0  0  0  0  0  0  0  0  0
   12.7560  -16.0664   21.0506 C   0  0  0  0  0  0  0  0  0  0  0  0
   11.7452  -17.0854   21.6270 C   0  0  1  0  0  0  0  0  0  0  0  0
   10.4363  -16.4141   21.9193 N   0  0  0  0  0  0  0  0  0  0  0  0
   10.0646  -15.4024   20.9820 C   0  0  0  0  0  0  0  0  0  0  0  0
   10.4020  -15.9130   23.3296 O   0  0  0  0  0  0  0  0  0  0  0  0
   10.6380  -16.6435   24.3222 O   0  0  0  0  0  0  0  0  0  0  0  0
  2  3  2  0
  2  1  1  0
  4  2  1  0
  5  6  1  0
  5  4  1  0
  6  7  1  0
  7  8  1  0
  8 10  1  0
  8  9  1  6
 10 18  1  0
 11 10  2  0
 13 12  1  0
 13 14  2  0
 15 13  1  0
 16 15  1  0
 17 16  1  6
 18 17  1  0
 19 20  2  0
 19 17  1  0
 22 21  1  0
 23 22  2  0
 24 22  1  0
 25 24  1  0
 26 27  1  0
 26 25  1  0
 28 27  1  6
 28 30  1  0
 28 29  1  0
 29 19  1  0
 30 32  1  0
 31 30  2  0
M  END
$$$$
