RQR.pdb
     RDKit          3D

 32 31  0  0  1  0  0  0  0  0999 V2000
   16.5494  -20.8746   16.3343 N   0  0  0  0  0  0  0  0  0  0  0  0
   16.0290  -21.4159   17.5429 C   0  0  0  0  0  0  0  0  0  0  0  0
   16.8219  -22.0839   18.3399 N   0  0  0  0  0  0  0  0  0  0  0  0
   14.6624  -21.2438   17.8966 N   0  0  0  0  0  0  0  0  0  0  0  0
   13.6820  -20.9377   16.8994 C   0  0  0  0  0  0  0  0  0  0  0  0
   13.0720  -19.5660   17.0170 C   0  0  0  0  0  0  0  0  0  0  0  0
   12.1751  -19.3739   18.1910 C   0  0  0  0  0  0  0  0  0  0  0  0
   11.0146  -18.4465   17.8564 C   0  0  2  0  0  0  0  0  0  0  0  0
   11.2981  -17.7274   16.6469 N   0  0  0  0  0  0  0  0  0  0  0  0
   10.8030  -17.5453   19.0291 C   0  0  0  0  0  0  0  0  0  0  0  0
   11.8140  -17.2257   19.6983 O   0  0  0  0  0  0  0  0  0  0  0  0
   16.4961  -22.4369   19.2566 N   0  0  0  0  0  0  0  0  0  0  0  0
    6.6009  -12.5449   19.1570 C   0  0  0  0  0  0  0  0  0  0  0  0
    6.9276  -13.3585   20.2757 O   0  0  0  0  0  0  0  0  0  0  0  0
    6.1423  -13.5180   21.2436 C   0  0  0  0  0  0  0  0  0  0  0  0
    8.2434  -14.0558   20.3226 C   0  0  0  0  0  0  0  0  0  0  0  0
    8.0823  -15.5333   20.5425 C   0  0  2  0  0  0  0  0  0  0  0  0
    9.4438  -16.2183   20.5956 N   0  0  0  0  0  0  0  0  0  0  0  0
    9.5632  -17.0344   19.4316 C   0  0  0  0  0  0  0  0  0  0  0  0
    9.6297  -16.9479   21.8551 O   0  0  0  0  0  0  0  0  0  0  0  0
    9.1339  -18.0696   22.1068 N   0  0  0  0  0  0  0  0  0  0  0  0
   16.6383  -20.3043   24.2905 C   0  0  0  0  0  0  0  0  0  0  0  0
   16.1227  -19.7691   23.0627 N   0  0  0  0  0  0  0  0  0  0  0  0
   16.8899  -19.6837   22.0629 N   0  0  0  0  0  0  0  0  0  0  0  0
   14.7858  -19.3421   22.9442 C   0  0  0  0  0  0  0  0  0  0  0  0
   14.0678  -18.4838   23.7925 C   0  0  0  0  0  0  0  0  0  0  0  0
   12.6304  -18.2157   23.4485 C   0  0  0  0  0  0  0  0  0  0  0  0
   11.9939  -17.3175   24.5349 C   0  0  2  0  0  0  0  0  0  0  0  0
   10.5792  -16.9793   24.1696 N   0  0  0  0  0  0  0  0  0  0  0  0
   10.4263  -16.3658   22.8888 C   0  0  0  0  0  0  0  0  0  0  0  0
    9.9286  -16.1806   25.2560 O   0  0  0  0  0  0  0  0  0  0  0  0
    9.8573  -16.5730   26.4458 O   0  0  0  0  0  0  0  0  0  0  0  0
  2  3  2  0
  2  1  1  0
  4  2  1  0
  5  6  1  0
  5  4  1  0
  6  7  1  0
  7  8  1  0
  8 10  1  0
  8  9  1  6
 10 18  1  0
 11 10  2  0
 13 12  1  0
 13 14  2  0
 15 13  1  0
 16 15  1  0
 17 16  1  6
 18 17  1  0
 19 20  2  0
 19 17  1  0
 22 21  1  0
 23 22  2  0
 24 22  1  0
 25 24  1  0
 26 27  1  0
 26 25  1  0
 28 27  1  6
 28 30  1  0
 28 29  1  0
 29 19  1  0
 30 32  1  0
 31 30  2  0
M  END
$$$$
