RQR.pdb
     RDKit          3D

 32 31  0  0  1  0  0  0  0  0999 V2000
    6.8004  -15.7327   15.0663 N   0  0  0  0  0  0  0  0  0  0  0  0
    7.9069  -14.8950   14.7523 C   0  0  0  0  0  0  0  0  0  0  0  0
    8.8282  -15.3302   13.9326 N   0  0  0  0  0  0  0  0  0  0  0  0
    8.0275  -13.5950   15.3160 N   0  0  0  0  0  0  0  0  0  0  0  0
    8.4288  -13.4235   16.6794 C   0  0  0  0  0  0  0  0  0  0  0  0
    7.3592  -13.7312   17.6936 C   0  0  0  0  0  0  0  0  0  0  0  0
    7.7724  -14.6600   18.7828 C   0  0  0  0  0  0  0  0  0  0  0  0
    9.0207  -14.1579   19.4958 C   0  0  2  0  0  0  0  0  0  0  0  0
   10.0853  -13.9812   18.5492 N   0  0  0  0  0  0  0  0  0  0  0  0
    9.3571  -15.1434   20.5672 C   0  0  0  0  0  0  0  0  0  0  0  0
    8.4423  -15.4611   21.3637 O   0  0  0  0  0  0  0  0  0  0  0  0
    9.5870  -14.7132   13.5939 N   0  0  0  0  0  0  0  0  0  0  0  0
   14.1912  -18.7036   18.9089 C   0  0  0  0  0  0  0  0  0  0  0  0
   13.6579  -18.7944   20.2232 O   0  0  0  0  0  0  0  0  0  0  0  0
   14.3151  -19.2663   21.1847 C   0  0  0  0  0  0  0  0  0  0  0  0
   12.2716  -18.3192   20.4922 C   0  0  0  0  0  0  0  0  0  0  0  0
   12.2424  -17.2685   21.5658 C   0  0  2  0  0  0  0  0  0  0  0  0
   10.8283  -16.7268   21.7464 N   0  0  0  0  0  0  0  0  0  0  0  0
   10.6137  -15.7349   20.7439 C   0  0  0  0  0  0  0  0  0  0  0  0
   10.6075  -16.2464   23.1153 O   0  0  0  0  0  0  0  0  0  0  0  0
   11.1084  -15.2027   23.5919 N   0  0  0  0  0  0  0  0  0  0  0  0
    5.5544  -12.2690   28.2056 C   0  0  0  0  0  0  0  0  0  0  0  0
    6.5571  -11.7982   27.2932 N   0  0  0  0  0  0  0  0  0  0  0  0
    7.2441  -10.7861   27.6083 N   0  0  0  0  0  0  0  0  0  0  0  0
    6.7961  -12.4370   26.0608 C   0  0  0  0  0  0  0  0  0  0  0  0
    6.8734  -13.8135   25.7946 C   0  0  0  0  0  0  0  0  0  0  0  0
    8.2404  -14.4350   25.7604 C   0  0  0  0  0  0  0  0  0  0  0  0
    8.1155  -15.9533   25.4928 C   0  0  2  0  0  0  0  0  0  0  0  0
    9.4734  -16.5667   25.3222 N   0  0  0  0  0  0  0  0  0  0  0  0
    9.7678  -16.9989   23.9930 C   0  0  0  0  0  0  0  0  0  0  0  0
    9.6931  -17.6539   26.3278 O   0  0  0  0  0  0  0  0  0  0  0  0
    9.9524  -18.8396   26.0091 O   0  0  0  0  0  0  0  0  0  0  0  0
  2  3  2  0
  2  1  1  0
  4  2  1  0
  5  6  1  0
  5  4  1  0
  6  7  1  0
  7  8  1  0
  8 10  1  0
  8  9  1  6
 10 18  1  0
 11 10  2  0
 13 12  1  0
 13 14  2  0
 15 13  1  0
 16 15  1  0
 17 16  1  6
 18 17  1  0
 19 20  2  0
 19 17  1  0
 22 21  1  0
 23 22  2  0
 24 22  1  0
 25 24  1  0
 26 27  1  0
 26 25  1  0
 28 27  1  6
 28 30  1  0
 28 29  1  0
 29 19  1  0
 30 32  1  0
 31 30  2  0
M  END
$$$$
