RQR.pdb
     RDKit          3D

 32 31  0  0  1  0  0  0  0  0999 V2000
    8.7591  -17.9444   17.4919 N   0  0  0  0  0  0  0  0  0  0  0  0
    8.7217  -17.2521   16.2493 C   0  0  0  0  0  0  0  0  0  0  0  0
    8.3114  -17.8796   15.1778 N   0  0  0  0  0  0  0  0  0  0  0  0
    9.1243  -15.8916   16.1537 N   0  0  0  0  0  0  0  0  0  0  0  0
    9.5034  -15.1574   17.3227 C   0  0  0  0  0  0  0  0  0  0  0  0
    8.3769  -14.8749   18.2812 C   0  0  0  0  0  0  0  0  0  0  0  0
    8.7509  -14.0580   19.4697 C   0  0  0  0  0  0  0  0  0  0  0  0
    7.5507  -13.8133   20.3743 C   0  0  2  0  0  0  0  0  0  0  0  0
    7.3401  -12.4023   20.5341 N   0  0  0  0  0  0  0  0  0  0  0  0
    7.8113  -14.5096   21.6701 C   0  0  0  0  0  0  0  0  0  0  0  0
    8.6843  -14.0157   22.4226 O   0  0  0  0  0  0  0  0  0  0  0  0
    8.2586  -17.4054   14.2594 N   0  0  0  0  0  0  0  0  0  0  0  0
    5.0723  -19.7552   23.9910 C   0  0  0  0  0  0  0  0  0  0  0  0
    6.0584  -19.4386   24.9643 O   0  0  0  0  0  0  0  0  0  0  0  0
    6.2119  -20.1161   26.0114 C   0  0  0  0  0  0  0  0  0  0  0  0
    6.9524  -18.2651   24.7553 C   0  0  0  0  0  0  0  0  0  0  0  0
    6.5780  -17.4935   23.5217 C   0  0  1  0  0  0  0  0  0  0  0  0
    7.5445  -16.3347   23.3011 N   0  0  0  0  0  0  0  0  0  0  0  0
    7.1537  -15.6675   22.1023 C   0  0  0  0  0  0  0  0  0  0  0  0
    8.9393  -16.7908   23.3003 O   0  0  0  0  0  0  0  0  0  0  0  0
    9.4485  -17.5191   22.4184 N   0  0  0  0  0  0  0  0  0  0  0  0
   15.7054  -14.2496   20.2906 C   0  0  0  0  0  0  0  0  0  0  0  0
   14.4625  -14.6880   19.7225 N   0  0  0  0  0  0  0  0  0  0  0  0
   14.2248  -14.4411   18.5068 N   0  0  0  0  0  0  0  0  0  0  0  0
   13.5061  -15.3881   20.4836 C   0  0  0  0  0  0  0  0  0  0  0  0
   13.4243  -15.5095   21.8801 C   0  0  0  0  0  0  0  0  0  0  0  0
   12.3006  -16.3358   22.4373 C   0  0  0  0  0  0  0  0  0  0  0  0
   12.2238  -16.1443   23.9701 C   0  0  2  0  0  0  0  0  0  0  0  0
   11.1040  -16.9611   24.5429 N   0  0  0  0  0  0  0  0  0  0  0  0
    9.8046  -16.3951   24.3663 C   0  0  0  0  0  0  0  0  0  0  0  0
   11.3774  -17.3037   25.9744 O   0  0  0  0  0  0  0  0  0  0  0  0
   12.4307  -17.8705   26.3540 O   0  0  0  0  0  0  0  0  0  0  0  0
  2  3  2  0
  2  1  1  0
  4  2  1  0
  5  6  1  0
  5  4  1  0
  6  7  1  0
  7  8  1  0
  8 10  1  0
  8  9  1  1
 10 18  1  0
 11 10  2  0
 13 12  1  0
 13 14  2  0
 15 13  1  0
 16 15  1  0
 17 16  1  1
 18 17  1  0
 19 20  2  0
 19 17  1  0
 22 21  1  0
 23 22  2  0
 24 22  1  0
 25 24  1  0
 26 27  1  0
 26 25  1  0
 28 27  1  6
 28 30  1  0
 28 29  1  0
 29 19  1  0
 30 32  1  0
 31 30  2  0
M  END
$$$$
