RQR.pdb
     RDKit          3D

 32 31  0  0  1  0  0  0  0  0999 V2000
    8.7401  -20.5357   17.5295 N   0  0  0  0  0  0  0  0  0  0  0  0
    9.7389  -21.0063   18.4270 C   0  0  0  0  0  0  0  0  0  0  0  0
   10.3949  -22.1004   18.1397 N   0  0  0  0  0  0  0  0  0  0  0  0
   10.0334  -20.3078   19.6302 N   0  0  0  0  0  0  0  0  0  0  0  0
    9.9450  -18.8802   19.6875 C   0  0  0  0  0  0  0  0  0  0  0  0
    8.5991  -18.3494   20.1049 C   0  0  0  0  0  0  0  0  0  0  0  0
    8.5785  -17.6483   21.4194 C   0  0  0  0  0  0  0  0  0  0  0  0
    8.5165  -16.1373   21.2410 C   0  0  2  0  0  0  0  0  0  0  0  0
    9.3959  -15.7351   20.1801 N   0  0  0  0  0  0  0  0  0  0  0  0
    8.8678  -15.5123   22.5517 C   0  0  0  0  0  0  0  0  0  0  0  0
   10.0677  -15.5670   22.9115 O   0  0  0  0  0  0  0  0  0  0  0  0
   11.1618  -22.4461   18.7427 N   0  0  0  0  0  0  0  0  0  0  0  0
    5.5436  -11.4175   26.0263 C   0  0  0  0  0  0  0  0  0  0  0  0
    6.7228  -11.6185   26.7938 O   0  0  0  0  0  0  0  0  0  0  0  0
    6.9777  -10.9456   27.8240 C   0  0  0  0  0  0  0  0  0  0  0  0
    7.7055  -12.6589   26.3793 C   0  0  0  0  0  0  0  0  0  0  0  0
    7.3301  -13.2871   25.0671 C   0  0  1  0  0  0  0  0  0  0  0  0
    8.3779  -14.3114   24.6447 N   0  0  0  0  0  0  0  0  0  0  0  0
    7.9580  -14.8726   23.4021 C   0  0  0  0  0  0  0  0  0  0  0  0
    8.6121  -15.3063   25.6976 O   0  0  0  0  0  0  0  0  0  0  0  0
    7.7322  -16.0602   26.1718 N   0  0  0  0  0  0  0  0  0  0  0  0
   13.8290  -21.3030   30.8080 C   0  0  0  0  0  0  0  0  0  0  0  0
   13.4919  -20.1986   29.9557 N   0  0  0  0  0  0  0  0  0  0  0  0
   13.8597  -19.0364   30.2863 N   0  0  0  0  0  0  0  0  0  0  0  0
   12.7669  -20.3787   28.7616 C   0  0  0  0  0  0  0  0  0  0  0  0
   12.4467  -19.4219   27.7851 C   0  0  0  0  0  0  0  0  0  0  0  0
   11.5155  -18.3127   28.1835 C   0  0  0  0  0  0  0  0  0  0  0  0
   11.2860  -17.3681   26.9805 C   0  0  2  0  0  0  0  0  0  0  0  0
   10.2147  -16.3680   27.2988 N   0  0  0  0  0  0  0  0  0  0  0  0
    9.9249  -15.4508   26.2430 C   0  0  0  0  0  0  0  0  0  0  0  0
   10.5124  -15.6656   28.5870 O   0  0  0  0  0  0  0  0  0  0  0  0
   10.8036  -14.4467   28.6512 O   0  0  0  0  0  0  0  0  0  0  0  0
  2  3  2  0
  2  1  1  0
  4  2  1  0
  5  6  1  0
  5  4  1  0
  6  7  1  0
  7  8  1  0
  8 10  1  0
  8  9  1  6
 10 18  1  0
 11 10  2  0
 13 12  1  0
 13 14  2  0
 15 13  1  0
 16 15  1  0
 17 16  1  6
 18 17  1  0
 19 20  2  0
 19 17  1  0
 22 21  1  0
 23 22  2  0
 24 22  1  0
 25 24  1  0
 26 27  1  0
 26 25  1  0
 28 27  1  6
 28 30  1  0
 28 29  1  0
 29 19  1  0
 30 32  1  0
 31 30  2  0
M  END
$$$$
