AYK.pdb
     RDKit          3D

 27 27  0  0  1  0  0  0  0  0999 V2000
    9.2072  -17.8461   18.1757 C   0  0  0  0  0  0  0  0  0  0  0  0
    9.2379  -18.4915   19.5452 C   0  0  2  0  0  0  0  0  0  0  0  0
    7.9359  -18.9495   19.9382 N   0  0  0  0  0  0  0  0  0  0  0  0
    9.7557  -17.4475   20.4957 C   0  0  0  0  0  0  0  0  0  0  0  0
   10.9263  -17.0793   20.3678 O   0  0  0  0  0  0  0  0  0  0  0  0
    6.9948  -12.1959   17.7548 O   0  0  0  0  0  0  0  0  0  0  0  0
    7.3586  -12.8206   18.9535 C   0  0  0  0  0  0  0  0  0  0  0  0
    8.5531  -12.5472   19.5827 C   0  0  0  0  0  0  0  0  0  0  0  0
    8.8948  -13.1710   20.7615 C   0  0  0  0  0  0  0  0  0  0  0  0
    8.0496  -14.1071   21.3731 C   0  0  0  0  0  0  0  0  0  0  0  0
    8.4544  -14.7971   22.6057 C   0  0  0  0  0  0  0  0  0  0  0  0
    9.4074  -15.9087   22.4889 C   0  0  2  0  0  0  0  0  0  0  0  0
    8.9210  -16.9063   21.5054 N   0  0  0  0  0  0  0  0  0  0  0  0
    9.9270  -16.5794   23.6740 C   0  0  0  0  0  0  0  0  0  0  0  0
    9.0897  -17.0186   24.5622 O   0  0  0  0  0  0  0  0  0  0  0  0
    6.8581  -14.3646   20.7237 C   0  0  0  0  0  0  0  0  0  0  0  0
    6.5207  -13.7401   19.5477 C   0  0  0  0  0  0  0  0  0  0  0  0
   11.2715  -16.8395   24.0079 N   0  0  0  0  0  0  0  0  0  0  0  0
   11.6317  -17.6493   25.2205 C   0  0  1  0  0  0  0  0  0  0  0  0
   12.1030  -18.9425   24.7210 C   0  0  0  0  0  0  0  0  0  0  0  0
   11.7470  -20.2551   25.1946 C   0  0  0  0  0  0  0  0  0  0  0  0
   12.3686  -21.4487   24.5614 C   0  0  0  0  0  0  0  0  0  0  0  0
   11.8337  -22.7561   25.1408 C   0  0  0  0  0  0  0  0  0  0  0  0
   12.5035  -23.8955   24.5621 N   0  0  0  0  0  0  0  0  0  0  0  0
   12.4933  -16.7897   26.0176 C   0  0  0  0  0  0  0  0  0  0  0  0
   12.9768  -15.6998   25.5507 O   0  0  0  0  0  0  0  0  0  0  0  0
   12.8781  -17.0166   27.3170 O   0  0  0  0  0  0  0  0  0  0  0  0
  2  1  1  6
  2  3  1  0
  4  5  2  0
  4  2  1  0
  7  6  1  0
  8  7  2  0
  9  8  1  0
 10  9  2  0
 10 16  1  0
 12 11  1  1
 11 10  1  0
 12 13  1  0
 13  4  1  0
 14 15  2  0
 14 12  1  0
 16 17  2  0
 17  7  1  0
 18 14  1  0
 19 18  1  0
 19 20  1  6
 21 22  1  0
 21 20  1  0
 22 23  1  0
 23 24  1  0
 25 19  1  0
 26 25  2  0
 27 25  1  0
M  END
$$$$
