AYK.pdb
     RDKit          3D

 27 27  0  0  1  0  0  0  0  0999 V2000
   10.1899  -16.5449   18.7661 C   0  0  0  0  0  0  0  0  0  0  0  0
    9.7059  -17.4447   19.8837 C   0  0  2  0  0  0  0  0  0  0  0  0
    8.3704  -17.9103   19.6408 N   0  0  0  0  0  0  0  0  0  0  0  0
    9.7755  -16.6301   21.1458 C   0  0  0  0  0  0  0  0  0  0  0  0
   10.8868  -16.2624   21.5357 O   0  0  0  0  0  0  0  0  0  0  0  0
    6.3545  -11.4875   27.7635 O   0  0  0  0  0  0  0  0  0  0  0  0
    6.6371  -12.2394   26.6171 C   0  0  0  0  0  0  0  0  0  0  0  0
    7.4683  -11.7681   25.6249 C   0  0  0  0  0  0  0  0  0  0  0  0
    7.7355  -12.5212   24.5039 C   0  0  0  0  0  0  0  0  0  0  0  0
    7.1785  -13.7943   24.3201 C   0  0  0  0  0  0  0  0  0  0  0  0
    7.4381  -14.5618   23.0942 C   0  0  0  0  0  0  0  0  0  0  0  0
    8.6182  -15.4361   23.0686 C   0  0  2  0  0  0  0  0  0  0  0  0
    8.5981  -16.2974   21.8617 N   0  0  0  0  0  0  0  0  0  0  0  0
    9.0001  -16.2157   24.2393 C   0  0  0  0  0  0  0  0  0  0  0  0
    8.3618  -17.3161   24.4938 O   0  0  0  0  0  0  0  0  0  0  0  0
    6.3486  -14.2452   25.3280 C   0  0  0  0  0  0  0  0  0  0  0  0
    6.0845  -13.4906   26.4450 C   0  0  0  0  0  0  0  0  0  0  0  0
   10.0159  -15.9385   25.1763 N   0  0  0  0  0  0  0  0  0  0  0  0
   10.4276  -16.9535   26.2040 C   0  0  1  0  0  0  0  0  0  0  0  0
   11.5610  -17.6797   25.6276 C   0  0  0  0  0  0  0  0  0  0  0  0
   12.0283  -18.9993   25.9656 C   0  0  0  0  0  0  0  0  0  0  0  0
   13.1897  -19.5684   25.2312 C   0  0  0  0  0  0  0  0  0  0  0  0
   13.6512  -20.8994   25.8199 C   0  0  0  0  0  0  0  0  0  0  0  0
   14.6638  -21.5116   24.9944 N   0  0  0  0  0  0  0  0  0  0  0  0
   10.5620  -16.2114   27.4482 C   0  0  0  0  0  0  0  0  0  0  0  0
   10.5389  -14.9314   27.4760 O   0  0  0  0  0  0  0  0  0  0  0  0
   10.7157  -16.7577   28.6996 O   0  0  0  0  0  0  0  0  0  0  0  0
  2  1  1  6
  2  3  1  0
  4  5  2  0
  4  2  1  0
  7  6  1  0
  8  7  2  0
  9  8  1  0
 10  9  2  0
 10 16  1  0
 12 11  1  1
 11 10  1  0
 12 13  1  0
 13  4  1  0
 14 15  2  0
 14 12  1  0
 16 17  2  0
 17  7  1  0
 18 14  1  0
 19 18  1  0
 19 20  1  6
 21 22  1  0
 21 20  1  0
 22 23  1  0
 23 24  1  0
 25 19  1  0
 26 25  2  0
 27 25  1  0
M  END
$$$$
