AYK.pdb
     RDKit          3D

 27 27  0  0  1  0  0  0  0  0999 V2000
   10.8073  -16.3660   19.3814 C   0  0  0  0  0  0  0  0  0  0  0  0
   10.3585  -17.2554   20.5217 C   0  0  2  0  0  0  0  0  0  0  0  0
    9.1440  -17.9486   20.1993 N   0  0  0  0  0  0  0  0  0  0  0  0
   10.1706  -16.3570   21.7129 C   0  0  0  0  0  0  0  0  0  0  0  0
   11.1729  -15.8312   22.2040 O   0  0  0  0  0  0  0  0  0  0  0  0
    6.0754  -11.0775   27.6544 O   0  0  0  0  0  0  0  0  0  0  0  0
    6.4187  -11.8889   26.5668 C   0  0  0  0  0  0  0  0  0  0  0  0
    5.8554  -13.1321   26.3805 C   0  0  0  0  0  0  0  0  0  0  0  0
    6.2047  -13.9170   25.3048 C   0  0  0  0  0  0  0  0  0  0  0  0
    7.1435  -13.4916   24.3548 C   0  0  0  0  0  0  0  0  0  0  0  0
    7.5380  -14.3645   23.2404 C   0  0  0  0  0  0  0  0  0  0  0  0
    8.6599  -15.2879   23.4557 C   0  0  2  0  0  0  0  0  0  0  0  0
    8.8800  -16.1245   22.2512 N   0  0  0  0  0  0  0  0  0  0  0  0
    8.7386  -16.1054   24.6598 C   0  0  0  0  0  0  0  0  0  0  0  0
    8.6499  -15.5254   25.8168 O   0  0  0  0  0  0  0  0  0  0  0  0
    7.6945  -12.2423   24.5628 C   0  0  0  0  0  0  0  0  0  0  0  0
    7.3432  -11.4621   25.6375 C   0  0  0  0  0  0  0  0  0  0  0  0
    8.8973  -17.5027   24.7544 N   0  0  0  0  0  0  0  0  0  0  0  0
    8.9107  -18.1980   26.0857 C   0  0  1  0  0  0  0  0  0  0  0  0
    8.4105  -19.5525   25.8425 C   0  0  0  0  0  0  0  0  0  0  0  0
    7.4290  -20.2815   26.6036 C   0  0  0  0  0  0  0  0  0  0  0  0
    7.0033  -21.6285   26.1383 C   0  0  0  0  0  0  0  0  0  0  0  0
    5.9114  -22.2277   27.0213 C   0  0  0  0  0  0  0  0  0  0  0  0
    5.4630  -23.4986   26.5060 N   0  0  0  0  0  0  0  0  0  0  0  0
   10.2423  -17.9721   26.6266 C   0  0  0  0  0  0  0  0  0  0  0  0
   10.4615  -17.9397   27.8877 O   0  0  0  0  0  0  0  0  0  0  0  0
   11.3882  -17.7809   25.8928 O   0  0  0  0  0  0  0  0  0  0  0  0
  2  1  1  6
  2  3  1  0
  4  5  2  0
  4  2  1  0
  7  6  1  0
  8  7  2  0
  9  8  1  0
 10  9  2  0
 10 16  1  0
 12 11  1  6
 11 10  1  0
 12 13  1  0
 13  4  1  0
 14 15  2  0
 14 12  1  0
 16 17  2  0
 17  7  1  0
 18 14  1  0
 19 18  1  0
 19 20  1  6
 21 22  1  0
 21 20  1  0
 22 23  1  0
 23 24  1  0
 25 19  1  0
 26 25  2  0
 27 25  1  0
M  END
$$$$
