AYK.pdb
     RDKit          3D

 27 27  0  0  1  0  0  0  0  0999 V2000
    8.1320  -20.0565   20.3781 C   0  0  0  0  0  0  0  0  0  0  0  0
    8.1608  -18.7531   19.6079 C   0  0  2  0  0  0  0  0  0  0  0  0
    8.7806  -18.9164   18.3239 N   0  0  0  0  0  0  0  0  0  0  0  0
    8.9227  -17.7739   20.4576 C   0  0  0  0  0  0  0  0  0  0  0  0
   10.1380  -17.6706   20.2715 O   0  0  0  0  0  0  0  0  0  0  0  0
    6.9849  -11.8891   17.6614 O   0  0  0  0  0  0  0  0  0  0  0  0
    7.2761  -12.5862   18.8398 C   0  0  0  0  0  0  0  0  0  0  0  0
    8.4250  -12.3472   19.5612 C   0  0  0  0  0  0  0  0  0  0  0  0
    8.6955  -13.0422   20.7184 C   0  0  0  0  0  0  0  0  0  0  0  0
    7.8210  -14.0190   21.2141 C   0  0  0  0  0  0  0  0  0  0  0  0
    8.1514  -14.7833   22.4249 C   0  0  0  0  0  0  0  0  0  0  0  0
    8.9704  -15.9930   22.2710 C   0  0  2  0  0  0  0  0  0  0  0  0
    8.2609  -16.9960   21.4405 N   0  0  0  0  0  0  0  0  0  0  0  0
    9.5834  -16.6362   23.4262 C   0  0  0  0  0  0  0  0  0  0  0  0
    8.8826  -17.4818   24.1168 O   0  0  0  0  0  0  0  0  0  0  0  0
    6.6762  -14.2410   20.4738 C   0  0  0  0  0  0  0  0  0  0  0  0
    6.4099  -13.5454   19.3197 C   0  0  0  0  0  0  0  0  0  0  0  0
   10.8925  -16.4708   23.9218 N   0  0  0  0  0  0  0  0  0  0  0  0
   11.5881  -17.5714   24.6707 C   0  0  1  0  0  0  0  0  0  0  0  0
   11.6806  -18.7000   23.7424 C   0  0  0  0  0  0  0  0  0  0  0  0
   12.2314  -20.0069   23.9931 C   0  0  0  0  0  0  0  0  0  0  0  0
   12.2158  -21.0220   22.9063 C   0  0  0  0  0  0  0  0  0  0  0  0
   12.7744  -22.3676   23.3628 C   0  0  0  0  0  0  0  0  0  0  0  0
   12.9197  -23.2760   22.2513 N   0  0  0  0  0  0  0  0  0  0  0  0
   12.7816  -16.9603   25.2356 C   0  0  0  0  0  0  0  0  0  0  0  0
   13.3135  -15.9162   24.7195 O   0  0  0  0  0  0  0  0  0  0  0  0
   13.4596  -17.3953   26.3488 O   0  0  0  0  0  0  0  0  0  0  0  0
  2  1  1  1
  2  3  1  0
  4  5  2  0
  4  2  1  0
  7  6  1  0
  8  7  2  0
  9  8  1  0
 10  9  2  0
 10 16  1  0
 12 11  1  1
 11 10  1  0
 12 13  1  0
 13  4  1  0
 14 15  2  0
 14 12  1  0
 16 17  2  0
 17  7  1  0
 18 14  1  0
 19 18  1  0
 19 20  1  6
 21 22  1  0
 21 20  1  0
 22 23  1  0
 23 24  1  0
 25 19  1  0
 26 25  2  0
 27 25  1  0
M  END
$$$$
