AYK.pdb
     RDKit          3D

 27 27  0  0  1  0  0  0  0  0999 V2000
    9.1887  -18.0438   18.0748 C   0  0  0  0  0  0  0  0  0  0  0  0
    9.2941  -18.6426   19.4615 C   0  0  2  0  0  0  0  0  0  0  0  0
    8.0198  -19.1076   19.9301 N   0  0  0  0  0  0  0  0  0  0  0  0
    9.8375  -17.5597   20.3522 C   0  0  0  0  0  0  0  0  0  0  0  0
   10.9719  -17.1345   20.1186 O   0  0  0  0  0  0  0  0  0  0  0  0
    6.2797  -12.0362   18.5071 O   0  0  0  0  0  0  0  0  0  0  0  0
    6.8520  -12.7918   19.5371 C   0  0  0  0  0  0  0  0  0  0  0  0
    6.2334  -13.9117   20.0475 C   0  0  0  0  0  0  0  0  0  0  0  0
    6.8107  -14.6433   21.0608 C   0  0  0  0  0  0  0  0  0  0  0  0
    8.0466  -14.2860   21.6173 C   0  0  0  0  0  0  0  0  0  0  0  0
    8.6227  -15.0525   22.7308 C   0  0  0  0  0  0  0  0  0  0  0  0
    9.6172  -16.0852   22.4112 C   0  0  2  0  0  0  0  0  0  0  0  0
    9.0667  -17.0465   21.4253 N   0  0  0  0  0  0  0  0  0  0  0  0
   10.3272  -16.7957   23.4673 C   0  0  0  0  0  0  0  0  0  0  0  0
    9.6417  -17.4705   24.3378 O   0  0  0  0  0  0  0  0  0  0  0  0
    8.6473  -13.1599   21.0894 C   0  0  0  0  0  0  0  0  0  0  0  0
    8.0679  -12.4325   20.0783 C   0  0  0  0  0  0  0  0  0  0  0  0
   11.7178  -16.8657   23.6866 N   0  0  0  0  0  0  0  0  0  0  0  0
   12.3014  -17.8087   24.6997 C   0  0  1  0  0  0  0  0  0  0  0  0
   12.7537  -18.9823   23.9500 C   0  0  0  0  0  0  0  0  0  0  0  0
   13.2507  -20.2279   24.4750 C   0  0  0  0  0  0  0  0  0  0  0  0
   13.6401  -21.3096   23.5315 C   0  0  0  0  0  0  0  0  0  0  0  0
   14.0211  -22.5993   24.2545 C   0  0  0  0  0  0  0  0  0  0  0  0
   14.4298  -23.6198   23.3201 N   0  0  0  0  0  0  0  0  0  0  0  0
   13.2320  -17.0088   25.4813 C   0  0  0  0  0  0  0  0  0  0  0  0
   13.7904  -17.4655   26.5393 O   0  0  0  0  0  0  0  0  0  0  0  0
   13.6237  -15.7226   25.1984 O   0  0  0  0  0  0  0  0  0  0  0  0
  2  1  1  6
  2  3  1  0
  4  5  2  0
  4  2  1  0
  7  6  1  0
  8  7  2  0
  9  8  1  0
 10  9  2  0
 10 16  1  0
 12 11  1  1
 11 10  1  0
 12 13  1  0
 13  4  1  0
 14 15  2  0
 14 12  1  0
 16 17  2  0
 17  7  1  0
 18 14  1  0
 19 18  1  0
 19 20  1  6
 21 22  1  0
 21 20  1  0
 22 23  1  0
 23 24  1  0
 25 19  1  0
 26 25  2  0
 27 25  1  0
M  END
$$$$
