AYK.pdb
     RDKit          3D

 27 27  0  0  1  0  0  0  0  0999 V2000
   10.7311  -16.7781   19.2083 C   0  0  0  0  0  0  0  0  0  0  0  0
    9.8777  -17.5037   20.2271 C   0  0  2  0  0  0  0  0  0  0  0  0
    8.5400  -17.7002   19.7459 N   0  0  0  0  0  0  0  0  0  0  0  0
    9.8883  -16.6577   21.4703 C   0  0  0  0  0  0  0  0  0  0  0  0
   10.9646  -16.4994   22.0523 O   0  0  0  0  0  0  0  0  0  0  0  0
    6.2694  -11.5191   27.9287 O   0  0  0  0  0  0  0  0  0  0  0  0
    6.5831  -12.1842   26.7377 C   0  0  0  0  0  0  0  0  0  0  0  0
    5.8832  -13.2940   26.3183 C   0  0  0  0  0  0  0  0  0  0  0  0
    6.2054  -13.9358   25.1438 C   0  0  0  0  0  0  0  0  0  0  0  0
    7.2534  -13.4937   24.3246 C   0  0  0  0  0  0  0  0  0  0  0  0
    7.6120  -14.2214   23.0994 C   0  0  0  0  0  0  0  0  0  0  0  0
    8.6612  -15.2453   23.1912 C   0  0  2  0  0  0  0  0  0  0  0  0
    8.6962  -16.0628   21.9545 N   0  0  0  0  0  0  0  0  0  0  0  0
    8.7742  -16.1008   24.3657 C   0  0  0  0  0  0  0  0  0  0  0  0
    7.9230  -17.0676   24.5199 O   0  0  0  0  0  0  0  0  0  0  0  0
    7.9403  -12.3796   24.7658 C   0  0  0  0  0  0  0  0  0  0  0  0
    7.6157  -11.7420   25.9384 C   0  0  0  0  0  0  0  0  0  0  0  0
    9.7241  -16.0319   25.4048 N   0  0  0  0  0  0  0  0  0  0  0  0
    9.8401  -17.1238   26.4295 C   0  0  1  0  0  0  0  0  0  0  0  0
   10.5080  -18.2415   25.7596 C   0  0  0  0  0  0  0  0  0  0  0  0
   10.3826  -19.6467   26.0486 C   0  0  0  0  0  0  0  0  0  0  0  0
   11.1036  -20.6303   25.1972 C   0  0  0  0  0  0  0  0  0  0  0  0
   10.8892  -22.0678   25.6648 C   0  0  0  0  0  0  0  0  0  0  0  0
   11.6249  -22.9985   24.8437 N   0  0  0  0  0  0  0  0  0  0  0  0
   10.4227  -16.4920   27.6035 C   0  0  0  0  0  0  0  0  0  0  0  0
   10.9906  -15.3461   27.5409 O   0  0  0  0  0  0  0  0  0  0  0  0
   10.4335  -17.0108   28.8758 O   0  0  0  0  0  0  0  0  0  0  0  0
  2  1  1  6
  2  3  1  0
  4  5  2  0
  4  2  1  0
  7  6  1  0
  8  7  2  0
  9  8  1  0
 10  9  2  0
 10 16  1  0
 12 11  1  1
 11 10  1  0
 12 13  1  0
 13  4  1  0
 14 15  2  0
 14 12  1  0
 16 17  2  0
 17  7  1  0
 18 14  1  0
 19 18  1  0
 19 20  1  6
 21 22  1  0
 21 20  1  0
 22 23  1  0
 23 24  1  0
 25 19  1  0
 26 25  2  0
 27 25  1  0
M  END
$$$$
