AYK.pdb
     RDKit          3D

 27 27  0  0  1  0  0  0  0  0999 V2000
    8.1464  -18.6501   19.1689 C   0  0  0  0  0  0  0  0  0  0  0  0
    8.6026  -17.2244   18.9411 C   0  0  2  0  0  0  0  0  0  0  0  0
    9.7590  -17.1731   18.0928 N   0  0  0  0  0  0  0  0  0  0  0  0
    8.9000  -16.6510   20.2991 C   0  0  0  0  0  0  0  0  0  0  0  0
   10.0411  -16.7894   20.7475 O   0  0  0  0  0  0  0  0  0  0  0  0
    7.0826  -11.8975   27.8040 O   0  0  0  0  0  0  0  0  0  0  0  0
    7.1101  -12.4973   26.5396 C   0  0  0  0  0  0  0  0  0  0  0  0
    7.7715  -11.9230   25.4765 C   0  0  0  0  0  0  0  0  0  0  0  0
    7.7884  -12.5270   24.2395 C   0  0  0  0  0  0  0  0  0  0  0  0
    7.1380  -13.7462   24.0046 C   0  0  0  0  0  0  0  0  0  0  0  0
    7.1276  -14.3502   22.6650 C   0  0  0  0  0  0  0  0  0  0  0  0
    8.1691  -15.3364   22.3485 C   0  0  2  0  0  0  0  0  0  0  0  0
    7.8973  -15.9735   21.0372 N   0  0  0  0  0  0  0  0  0  0  0  0
    8.5727  -16.3411   23.3242 C   0  0  0  0  0  0  0  0  0  0  0  0
    7.8797  -17.4335   23.4208 O   0  0  0  0  0  0  0  0  0  0  0  0
    6.4819  -14.3024   25.0853 C   0  0  0  0  0  0  0  0  0  0  0  0
    6.4675  -13.6966   26.3181 C   0  0  0  0  0  0  0  0  0  0  0  0
    9.6634  -16.2996   24.2160 N   0  0  0  0  0  0  0  0  0  0  0  0
    9.9475  -17.4372   25.1546 C   0  0  1  0  0  0  0  0  0  0  0  0
   11.1237  -18.1242   24.6173 C   0  0  0  0  0  0  0  0  0  0  0  0
   11.7493  -19.3231   25.1126 C   0  0  0  0  0  0  0  0  0  0  0  0
   12.9026  -19.8997   24.3715 C   0  0  0  0  0  0  0  0  0  0  0  0
   13.5180  -21.0941   25.0964 C   0  0  0  0  0  0  0  0  0  0  0  0
   14.4361  -21.8067   24.2414 N   0  0  0  0  0  0  0  0  0  0  0  0
    9.9613  -16.8471   26.4844 C   0  0  0  0  0  0  0  0  0  0  0  0
    9.9777  -15.5788   26.6594 O   0  0  0  0  0  0  0  0  0  0  0  0
    9.9506  -17.5375   27.6724 O   0  0  0  0  0  0  0  0  0  0  0  0
  2  1  1  1
  2  3  1  0
  4  5  2  0
  4  2  1  0
  7  6  1  0
  8  7  2  0
  9  8  1  0
 10  9  2  0
 10 16  1  0
 12 11  1  1
 11 10  1  0
 12 13  1  0
 13  4  1  0
 14 15  2  0
 14 12  1  0
 16 17  2  0
 17  7  1  0
 18 14  1  0
 19 18  1  0
 19 20  1  6
 21 22  1  0
 21 20  1  0
 22 23  1  0
 23 24  1  0
 25 19  1  0
 26 25  2  0
 27 25  1  0
M  END
$$$$
