NAQ.pdb
     RDKit          3D

 23 22  0  0  1  0  0  0  0  0999 V2000
   25.1768  -20.9623   -7.8678 N   0  0  0  0  0  0  0  0  0  0  0  0
   26.2842  -20.2002   -8.3295 C   0  0  0  0  0  0  0  0  0  0  0  0
   27.0432  -19.6819   -7.4713 O   0  0  0  0  0  0  0  0  0  0  0  0
   26.5670  -20.0012   -9.7771 C   0  0  0  0  0  0  0  0  0  0  0  0
   25.5597  -20.7550  -10.6058 C   0  0  2  0  0  0  0  0  0  0  0  0
   25.8098  -22.1772  -10.5147 N   0  0  0  0  0  0  0  0  0  0  0  0
   25.5249  -20.3500  -12.0056 C   0  0  0  0  0  0  0  0  0  0  0  0
   25.0016  -19.2451  -12.2985 O   0  0  0  0  0  0  0  0  0  0  0  0
   26.8134  -21.6029  -15.3640 C   0  0  0  0  0  0  0  0  0  0  0  0
   25.9621  -20.7442  -14.4660 C   0  0  2  0  0  0  0  0  0  0  0  0
   26.0414  -21.1112  -13.0864 N   0  0  0  0  0  0  0  0  0  0  0  0
   24.5355  -20.7484  -14.8752 C   0  0  0  0  0  0  0  0  0  0  0  0
   23.7609  -21.5892  -14.3697 O   0  0  0  0  0  0  0  0  0  0  0  0
   21.5621  -15.5965  -16.5434 N   0  0  0  0  0  0  0  0  0  0  0  0
   20.5582  -16.5914  -16.6327 C   0  0  0  0  0  0  0  0  0  0  0  0
   19.3844  -16.2169  -16.9417 O   0  0  0  0  0  0  0  0  0  0  0  0
   20.8195  -18.0167  -16.3927 C   0  0  0  0  0  0  0  0  0  0  0  0
   22.2146  -18.3936  -16.0826 C   0  0  0  0  0  0  0  0  0  0  0  0
   22.5700  -19.8413  -16.0710 C   0  0  2  0  0  0  0  0  0  0  0  0
   24.0406  -19.8309  -15.8145 N   0  0  0  0  0  0  0  0  0  0  0  0
   22.2978  -20.6206  -17.2733 C   0  0  0  0  0  0  0  0  0  0  0  0
   23.1896  -20.8092  -18.1385 O   0  0  0  0  0  0  0  0  0  0  0  0
   21.0600  -21.2020  -17.5496 O   0  0  0  0  0  0  0  0  0  0  0  0
  2  1  1  0
  3  2  2  0
  4  2  1  0
  5  4  1  0
  5  6  1  6
  7 11  1  0
  7  5  1  0
  8  7  2  0
 10  9  1  6
 10 11  1  0
 10 12  1  0
 12 20  1  0
 13 12  2  0
 15 17  1  0
 15 14  1  0
 16 15  2  0
 18 17  1  0
 19 18  1  6
 19 21  1  0
 20 19  1  0
 21 23  1  0
 22 21  2  0
M  END
$$$$
