NAQ.pdb
     RDKit          3D

 23 22  0  0  1  0  0  0  0  0999 V2000
   27.7268  -17.6053  -17.8112 N   0  0  0  0  0  0  0  0  0  0  0  0
   27.7779  -17.9828  -16.4418 C   0  0  0  0  0  0  0  0  0  0  0  0
   28.7629  -17.6002  -15.7602 O   0  0  0  0  0  0  0  0  0  0  0  0
   26.7156  -18.8053  -15.8015 C   0  0  0  0  0  0  0  0  0  0  0  0
   27.2778  -20.1408  -15.3895 C   0  0  2  0  0  0  0  0  0  0  0  0
   27.6090  -20.9207  -16.5623 N   0  0  0  0  0  0  0  0  0  0  0  0
   26.3965  -20.9098  -14.5196 C   0  0  0  0  0  0  0  0  0  0  0  0
   25.5160  -21.6358  -15.0469 O   0  0  0  0  0  0  0  0  0  0  0  0
   25.8548  -21.4799  -10.7892 C   0  0  0  0  0  0  0  0  0  0  0  0
   25.4457  -21.4502  -12.2385 C   0  0  2  0  0  0  0  0  0  0  0  0
   26.4487  -20.9085  -13.1014 N   0  0  0  0  0  0  0  0  0  0  0  0
   24.1841  -20.6974  -12.4489 C   0  0  0  0  0  0  0  0  0  0  0  0
   24.2044  -19.4489  -12.3891 O   0  0  0  0  0  0  0  0  0  0  0  0
   22.8140  -18.4563  -16.7508 N   0  0  0  0  0  0  0  0  0  0  0  0
   21.5409  -18.2804  -16.1558 C   0  0  0  0  0  0  0  0  0  0  0  0
   20.7083  -17.5334  -16.7576 O   0  0  0  0  0  0  0  0  0  0  0  0
   21.1506  -18.9236  -14.8944 C   0  0  0  0  0  0  0  0  0  0  0  0
   22.1508  -19.8101  -14.2631 C   0  0  0  0  0  0  0  0  0  0  0  0
   21.7804  -20.5057  -12.9976 C   0  0  2  0  0  0  0  0  0  0  0  0
   22.9735  -21.3562  -12.7125 N   0  0  0  0  0  0  0  0  0  0  0  0
   20.5852  -21.3414  -13.0027 C   0  0  0  0  0  0  0  0  0  0  0  0
   20.6290  -22.5318  -13.4035 O   0  0  0  0  0  0  0  0  0  0  0  0
   19.3338  -20.8971  -12.5748 O   0  0  0  0  0  0  0  0  0  0  0  0
  2  1  1  0
  3  2  2  0
  4  2  1  0
  5  4  1  0
  5  6  1  6
  7 11  1  0
  7  5  1  0
  8  7  2  0
 10  9  1  1
 10 11  1  0
 10 12  1  0
 12 20  1  0
 13 12  2  0
 15 17  1  0
 15 14  1  0
 16 15  2  0
 18 17  1  0
 19 18  1  6
 19 21  1  0
 20 19  1  0
 21 23  1  0
 22 21  2  0
M  END
$$$$
