NAQ.pdb
     RDKit          3D

 23 22  0  0  1  0  0  0  0  0999 V2000
   14.2617  -10.3937  -12.8803 N   0  0  0  0  0  0  0  0  0  0  0  0
   14.4034   -9.0059  -13.1527 C   0  0  0  0  0  0  0  0  0  0  0  0
   13.3848   -8.3707  -13.5271 O   0  0  0  0  0  0  0  0  0  0  0  0
   15.7026   -8.2941  -13.0097 C   0  0  0  0  0  0  0  0  0  0  0  0
   16.7070   -9.1890  -12.3317 C   0  0  2  0  0  0  0  0  0  0  0  0
   16.4341   -9.2519  -10.9121 N   0  0  0  0  0  0  0  0  0  0  0  0
   18.0928   -8.7929  -12.5495 C   0  0  0  0  0  0  0  0  0  0  0  0
   18.5185   -7.7572  -11.9781 O   0  0  0  0  0  0  0  0  0  0  0  0
   21.1751  -10.1247  -14.3559 C   0  0  0  0  0  0  0  0  0  0  0  0
   20.3768   -9.1005  -13.5927 C   0  0  2  0  0  0  0  0  0  0  0  0
   19.0198   -9.4901  -13.3672 N   0  0  0  0  0  0  0  0  0  0  0  0
   20.3836   -7.7747  -14.2597 C   0  0  0  0  0  0  0  0  0  0  0  0
   19.5158   -7.5250  -15.1241 O   0  0  0  0  0  0  0  0  0  0  0  0
   17.2426   -5.5624  -14.8964 N   0  0  0  0  0  0  0  0  0  0  0  0
   17.8527   -4.3571  -15.3214 C   0  0  0  0  0  0  0  0  0  0  0  0
   17.1836   -3.5979  -16.0892 O   0  0  0  0  0  0  0  0  0  0  0  0
   19.2039   -3.9547  -14.9098 C   0  0  0  0  0  0  0  0  0  0  0  0
   19.9601   -4.9165  -14.0804 C   0  0  0  0  0  0  0  0  0  0  0  0
   21.2271   -5.4794  -14.6283 C   0  0  2  0  0  0  0  0  0  0  0  0
   21.3409   -6.7995  -13.9407 N   0  0  0  0  0  0  0  0  0  0  0  0
   22.4563   -4.7225  -14.4207 C   0  0  0  0  0  0  0  0  0  0  0  0
   23.1435   -4.8761  -13.3797 O   0  0  0  0  0  0  0  0  0  0  0  0
   22.9520   -3.7939  -15.3364 O   0  0  0  0  0  0  0  0  0  0  0  0
  2  1  1  0
  3  2  2  0
  4  2  1  0
  5  4  1  0
  5  6  1  1
  7 11  1  0
  7  5  1  0
  8  7  2  0
 10  9  1  6
 10 11  1  0
 10 12  1  0
 12 20  1  0
 13 12  2  0
 15 17  1  0
 15 14  1  0
 16 15  2  0
 18 17  1  0
 19 18  1  1
 19 21  1  0
 20 19  1  0
 21 23  1  0
 22 21  2  0
M  END
$$$$
