NAQ.pdb
     RDKit          3D

 23 22  0  0  1  0  0  0  0  0999 V2000
   21.1351  -18.4168  -20.0960 N   0  0  0  0  0  0  0  0  0  0  0  0
   20.9833  -18.0239  -18.7384 C   0  0  0  0  0  0  0  0  0  0  0  0
   20.5298  -18.8699  -17.9261 O   0  0  0  0  0  0  0  0  0  0  0  0
   21.3404  -16.6612  -18.2582 C   0  0  0  0  0  0  0  0  0  0  0  0
   21.7822  -15.8070  -19.4178 C   0  0  2  0  0  0  0  0  0  0  0  0
   22.9177  -16.4162  -20.0760 N   0  0  0  0  0  0  0  0  0  0  0  0
   22.1044  -14.4337  -19.0508 C   0  0  0  0  0  0  0  0  0  0  0  0
   21.3992  -13.8632  -18.1804 O   0  0  0  0  0  0  0  0  0  0  0  0
   24.8547  -11.8951  -19.7471 C   0  0  0  0  0  0  0  0  0  0  0  0
   23.5228  -12.3447  -19.2062 C   0  0  2  0  0  0  0  0  0  0  0  0
   23.1666  -13.6713  -19.6028 N   0  0  0  0  0  0  0  0  0  0  0  0
   22.4232  -11.4250  -19.5904 C   0  0  0  0  0  0  0  0  0  0  0  0
   21.6966  -11.7199  -20.5640 O   0  0  0  0  0  0  0  0  0  0  0  0
   18.0638  -10.6885  -21.0109 N   0  0  0  0  0  0  0  0  0  0  0  0
   17.6834   -9.7278  -20.0424 C   0  0  0  0  0  0  0  0  0  0  0  0
   16.5192   -9.2282  -20.1350 O   0  0  0  0  0  0  0  0  0  0  0  0
   18.5658   -9.2995  -18.9493 C   0  0  0  0  0  0  0  0  0  0  0  0
   19.8562  -10.0088  -18.8201 C   0  0  0  0  0  0  0  0  0  0  0  0
   21.0780   -9.3608  -19.3767 C   0  0  2  0  0  0  0  0  0  0  0  0
   22.1834  -10.2356  -18.8855 N   0  0  0  0  0  0  0  0  0  0  0  0
   21.3525   -7.9803  -18.9951 C   0  0  0  0  0  0  0  0  0  0  0  0
   22.1715   -7.7119  -18.0804 O   0  0  0  0  0  0  0  0  0  0  0  0
   20.7441   -6.8796  -19.5990 O   0  0  0  0  0  0  0  0  0  0  0  0
  2  1  1  0
  3  2  2  0
  4  2  1  0
  5  4  1  0
  5  6  1  1
  7 11  1  0
  7  5  1  0
  8  7  2  0
 10  9  1  6
 10 11  1  0
 10 12  1  0
 12 20  1  0
 13 12  2  0
 15 17  1  0
 15 14  1  0
 16 15  2  0
 18 17  1  0
 19 18  1  1
 19 21  1  0
 20 19  1  0
 21 23  1  0
 22 21  2  0
M  END
$$$$
