NAQ.pdb
     RDKit          3D

 23 22  0  0  1  0  0  0  0  0999 V2000
   33.8436  -26.1592  -16.9559 N   0  0  0  0  0  0  0  0  0  0  0  0
   32.8614  -26.2419  -17.9800 C   0  0  0  0  0  0  0  0  0  0  0  0
   33.0555  -27.0541  -18.9201 O   0  0  0  0  0  0  0  0  0  0  0  0
   31.6288  -25.4077  -17.9717 C   0  0  0  0  0  0  0  0  0  0  0  0
   31.6923  -24.4081  -16.8463 C   0  0  2  0  0  0  0  0  0  0  0  0
   31.7329  -25.0973  -15.5747 N   0  0  0  0  0  0  0  0  0  0  0  0
   30.5984  -23.4448  -16.8495 C   0  0  0  0  0  0  0  0  0  0  0  0
   29.5791  -23.6911  -16.1561 O   0  0  0  0  0  0  0  0  0  0  0  0
   29.8869  -19.9853  -18.2895 C   0  0  0  0  0  0  0  0  0  0  0  0
   29.5639  -21.2325  -17.5093 C   0  0  2  0  0  0  0  0  0  0  0  0
   30.5858  -22.2297  -17.5826 N   0  0  0  0  0  0  0  0  0  0  0  0
   28.2782  -21.8409  -17.9330 C   0  0  0  0  0  0  0  0  0  0  0  0
   28.2888  -22.7416  -18.7999 O   0  0  0  0  0  0  0  0  0  0  0  0
   25.9686  -25.9084  -16.6804 N   0  0  0  0  0  0  0  0  0  0  0  0
   24.6545  -25.3981  -16.8158 C   0  0  0  0  0  0  0  0  0  0  0  0
   23.7037  -26.2361  -16.9001 O   0  0  0  0  0  0  0  0  0  0  0  0
   24.3533  -23.9611  -16.8547 C   0  0  0  0  0  0  0  0  0  0  0  0
   25.4985  -23.0379  -16.7097 C   0  0  0  0  0  0  0  0  0  0  0  0
   25.8237  -22.1306  -17.8471 C   0  0  2  0  0  0  0  0  0  0  0  0
   27.0557  -21.4272  -17.3824 N   0  0  0  0  0  0  0  0  0  0  0  0
   24.8254  -21.1423  -18.2389 C   0  0  0  0  0  0  0  0  0  0  0  0
   24.8906  -19.9571  -17.8260 O   0  0  0  0  0  0  0  0  0  0  0  0
   23.7492  -21.4274  -19.0797 O   0  0  0  0  0  0  0  0  0  0  0  0
  2  1  1  0
  3  2  2  0
  4  2  1  0
  5  4  1  0
  5  6  1  1
  7 11  1  0
  7  5  1  0
  8  7  2  0
 10  9  1  6
 10 11  1  0
 10 12  1  0
 12 20  1  0
 13 12  2  0
 15 17  1  0
 15 14  1  0
 16 15  2  0
 18 17  1  0
 19 18  1  1
 19 21  1  0
 20 19  1  0
 21 23  1  0
 22 21  2  0
M  END
$$$$
