NAQ.pdb
     RDKit          3D

 23 22  0  0  1  0  0  0  0  0999 V2000
   30.0265  -23.6657  -17.2104 N   0  0  0  0  0  0  0  0  0  0  0  0
   28.9691  -22.7210  -17.1113 C   0  0  0  0  0  0  0  0  0  0  0  0
   29.0486  -21.6714  -17.7992 O   0  0  0  0  0  0  0  0  0  0  0  0
   27.7887  -22.9351  -16.2304 C   0  0  0  0  0  0  0  0  0  0  0  0
   27.5117  -21.6890  -15.4304 C   0  0  2  0  0  0  0  0  0  0  0  0
   28.7038  -21.2843  -14.7171 N   0  0  0  0  0  0  0  0  0  0  0  0
   26.4004  -21.8215  -14.4965 C   0  0  0  0  0  0  0  0  0  0  0  0
   25.3996  -22.4974  -14.8458 O   0  0  0  0  0  0  0  0  0  0  0  0
   25.6399  -21.0001  -10.8653 C   0  0  0  0  0  0  0  0  0  0  0  0
   25.2728  -21.3851  -12.2744 C   0  0  2  0  0  0  0  0  0  0  0  0
   26.3510  -21.2414  -13.2022 N   0  0  0  0  0  0  0  0  0  0  0  0
   24.1085  -20.6159  -12.7797 C   0  0  0  0  0  0  0  0  0  0  0  0
   24.2897  -19.4623  -13.2260 O   0  0  0  0  0  0  0  0  0  0  0  0
   20.3653  -22.3462  -16.3970 N   0  0  0  0  0  0  0  0  0  0  0  0
   20.2788  -20.9491  -16.6121 C   0  0  0  0  0  0  0  0  0  0  0  0
   19.4642  -20.5393  -17.4964 O   0  0  0  0  0  0  0  0  0  0  0  0
   21.0764  -19.9720  -15.8597 C   0  0  0  0  0  0  0  0  0  0  0  0
   22.0407  -20.5147  -14.8798 C   0  0  0  0  0  0  0  0  0  0  0  0
   21.7356  -20.3621  -13.4285 C   0  0  2  0  0  0  0  0  0  0  0  0
   22.8132  -21.1555  -12.7668 N   0  0  0  0  0  0  0  0  0  0  0  0
   20.4372  -20.8245  -12.9517 C   0  0  0  0  0  0  0  0  0  0  0  0
   20.2462  -22.0326  -12.6627 O   0  0  0  0  0  0  0  0  0  0  0  0
   19.3357  -19.9850  -12.7837 O   0  0  0  0  0  0  0  0  0  0  0  0
  2  1  1  0
  3  2  2  0
  4  2  1  0
  5  4  1  0
  5  6  1  1
  7 11  1  0
  7  5  1  0
  8  7  2  0
 10  9  1  1
 10 11  1  0
 10 12  1  0
 12 20  1  0
 13 12  2  0
 15 17  1  0
 15 14  1  0
 16 15  2  0
 18 17  1  0
 19 18  1  6
 19 21  1  0
 20 19  1  0
 21 23  1  0
 22 21  2  0
M  END
$$$$
