QMN.pdb
     RDKit          3D

 26 25  0  0  1  0  0  0  0  0999 V2000
   18.2456  -18.8365  -16.9733 N   0  0  0  0  0  0  0  0  0  0  0  0
   19.3264  -18.1485  -16.3990 C   0  0  0  0  0  0  0  0  0  0  0  0
   19.6098  -16.9961  -16.8216 O   0  0  0  0  0  0  0  0  0  0  0  0
   20.0902  -18.7883  -15.3298 C   0  0  0  0  0  0  0  0  0  0  0  0
   20.9733  -17.8647  -14.5433 C   0  0  0  0  0  0  0  0  0  0  0  0
   22.3338  -17.8713  -15.2538 C   0  0  2  0  0  0  0  0  0  0  0  0
   23.0725  -19.0766  -14.8802 N   0  0  0  0  0  0  0  0  0  0  0  0
   23.1316  -16.6838  -14.8745 C   0  0  0  0  0  0  0  0  0  0  0  0
   23.5386  -16.5625  -13.6831 O   0  0  0  0  0  0  0  0  0  0  0  0
   29.1098  -16.6316  -17.2038 C   0  0  0  0  0  0  0  0  0  0  0  0
   27.8168  -15.4134  -17.5187 S   0  0  0  0  0  0  0  0  0  0  0  0
   26.5177  -15.5966  -16.2447 C   0  0  0  0  0  0  0  0  0  0  0  0
   25.5018  -14.5274  -16.4578 C   0  0  0  0  0  0  0  0  0  0  0  0
   24.4259  -14.5615  -15.4147 C   0  0  2  0  0  0  0  0  0  0  0  0
   23.4817  -15.6506  -15.7651 N   0  0  0  0  0  0  0  0  0  0  0  0
   23.7113  -13.2721  -15.3905 C   0  0  0  0  0  0  0  0  0  0  0  0
   22.6676  -13.2244  -16.1562 O   0  0  0  0  0  0  0  0  0  0  0  0
   21.5550   -8.6022  -14.4769 N   0  0  0  0  0  0  0  0  0  0  0  0
   22.1704   -9.1347  -13.3225 C   0  0  0  0  0  0  0  0  0  0  0  0
   22.0434   -8.5100  -12.2474 O   0  0  0  0  0  0  0  0  0  0  0  0
   22.9353  -10.3800  -13.3710 C   0  0  0  0  0  0  0  0  0  0  0  0
   23.1070  -10.9692  -14.7574 C   0  0  2  0  0  0  0  0  0  0  0  0
   24.0173  -12.1263  -14.6514 N   0  0  0  0  0  0  0  0  0  0  0  0
   23.6832  -10.0344  -15.7341 C   0  0  0  0  0  0  0  0  0  0  0  0
   22.9735   -8.9722  -16.3093 O   0  0  0  0  0  0  0  0  0  0  0  0
   24.8672  -10.1538  -16.1029 O   0  0  0  0  0  0  0  0  0  0  0  0
  1  2  1  0
  2  3  2  0
  4  5  1  0
  4  2  1  0
  6  7  1  1
  6  5  1  0
  8  6  1  0
  9  8  2  0
 11 10  1  0
 12 13  1  0
 12 11  1  0
 14 13  1  6
 14 16  1  0
 14 15  1  0
 15  8  1  0
 16 17  2  0
 18 19  1  0
 19 21  1  0
 20 19  2  0
 22 21  1  1
 23 22  1  0
 23 16  1  0
 24 25  1  0
 24 22  1  0
 26 24  2  0
M  END
$$$$
