QMN.pdb
     RDKit          3D

 26 25  0  0  1  0  0  0  0  0999 V2000
   22.4441  -11.1564  -22.4615 N   0  0  0  0  0  0  0  0  0  0  0  0
   23.3362  -11.9104  -21.6825 C   0  0  0  0  0  0  0  0  0  0  0  0
   24.1627  -12.6654  -22.2603 O   0  0  0  0  0  0  0  0  0  0  0  0
   23.2798  -11.7982  -20.2264 C   0  0  0  0  0  0  0  0  0  0  0  0
   22.1527  -10.9592  -19.6997 C   0  0  0  0  0  0  0  0  0  0  0  0
   22.7920   -9.6579  -19.1961 C   0  0  2  0  0  0  0  0  0  0  0  0
   24.1525   -9.9305  -18.7350 N   0  0  0  0  0  0  0  0  0  0  0  0
   22.0118   -9.0874  -18.0753 C   0  0  0  0  0  0  0  0  0  0  0  0
   20.7558   -8.9832  -18.1811 O   0  0  0  0  0  0  0  0  0  0  0  0
   22.5347  -12.2504  -12.4167 C   0  0  0  0  0  0  0  0  0  0  0  0
   22.7729  -10.4759  -12.6396 S   0  0  0  0  0  0  0  0  0  0  0  0
   22.0682   -9.9895  -14.2554 C   0  0  0  0  0  0  0  0  0  0  0  0
   22.3433   -8.5402  -14.4668 C   0  0  0  0  0  0  0  0  0  0  0  0
   21.7802   -8.0470  -15.7654 C   0  0  2  0  0  0  0  0  0  0  0  0
   22.5785   -8.6401  -16.8662 N   0  0  0  0  0  0  0  0  0  0  0  0
   21.8688   -6.5764  -15.8229 C   0  0  0  0  0  0  0  0  0  0  0  0
   22.9023   -6.1273  -16.4618 O   0  0  0  0  0  0  0  0  0  0  0  0
   21.5760   -3.2823  -19.4861 N   0  0  0  0  0  0  0  0  0  0  0  0
   21.6334   -3.3399  -18.0760 C   0  0  0  0  0  0  0  0  0  0  0  0
   22.3663   -2.5190  -17.4834 O   0  0  0  0  0  0  0  0  0  0  0  0
   20.8618   -4.3258  -17.3205 C   0  0  0  0  0  0  0  0  0  0  0  0
   21.0383   -4.2570  -15.8163 C   0  0  2  0  0  0  0  0  0  0  0  0
   20.9865   -5.6343  -15.2877 N   0  0  0  0  0  0  0  0  0  0  0  0
   20.0000   -3.4751  -15.1304 C   0  0  0  0  0  0  0  0  0  0  0  0
   20.2039   -2.1860  -14.6210 O   0  0  0  0  0  0  0  0  0  0  0  0
   18.8573   -3.9440  -14.9684 O   0  0  0  0  0  0  0  0  0  0  0  0
  1  2  1  0
  2  3  2  0
  4  5  1  0
  4  2  1  0
  6  7  1  1
  6  5  1  0
  8  6  1  0
  9  8  2  0
 11 10  1  0
 12 13  1  0
 12 11  1  0
 14 13  1  1
 14 16  1  0
 14 15  1  0
 15  8  1  0
 16 17  2  0
 18 19  1  0
 19 21  1  0
 20 19  2  0
 22 21  1  6
 23 22  1  0
 23 16  1  0
 24 25  1  0
 24 22  1  0
 26 24  2  0
M  END
$$$$
