QMN.pdb
     RDKit          3D

 26 25  0  0  1  0  0  0  0  0999 V2000
   27.3308  -22.5546  -17.8376 N   0  0  0  0  0  0  0  0  0  0  0  0
   28.3940  -21.6397  -17.8987 C   0  0  0  0  0  0  0  0  0  0  0  0
   28.7676  -21.2129  -19.0236 O   0  0  0  0  0  0  0  0  0  0  0  0
   29.0358  -21.2102  -16.6579 C   0  0  0  0  0  0  0  0  0  0  0  0
   28.3922  -21.7219  -15.4027 C   0  0  0  0  0  0  0  0  0  0  0  0
   27.3130  -20.6958  -15.0309 C   0  0  2  0  0  0  0  0  0  0  0  0
   27.9495  -19.4863  -14.5114 N   0  0  0  0  0  0  0  0  0  0  0  0
   26.4032  -21.2396  -13.9978 C   0  0  0  0  0  0  0  0  0  0  0  0
   25.5702  -22.1377  -14.3128 O   0  0  0  0  0  0  0  0  0  0  0  0
   26.3203  -19.1657   -7.7136 C   0  0  0  0  0  0  0  0  0  0  0  0
   25.6603  -20.8419   -7.6143 S   0  0  0  0  0  0  0  0  0  0  0  0
   24.9171  -21.2746   -9.2282 C   0  0  0  0  0  0  0  0  0  0  0  0
   25.8435  -20.8222  -10.3043 C   0  0  0  0  0  0  0  0  0  0  0  0
   25.4177  -21.3164  -11.6538 C   0  0  2  0  0  0  0  0  0  0  0  0
   26.3955  -20.8208  -12.6533 N   0  0  0  0  0  0  0  0  0  0  0  0
   24.0740  -20.8009  -11.9744 C   0  0  0  0  0  0  0  0  0  0  0  0
   24.0363  -19.5336  -12.2394 O   0  0  0  0  0  0  0  0  0  0  0  0
   22.7306  -19.3706  -14.7154 N   0  0  0  0  0  0  0  0  0  0  0  0
   21.9768  -20.5393  -14.9624 C   0  0  0  0  0  0  0  0  0  0  0  0
   21.8839  -20.9406  -16.1425 O   0  0  0  0  0  0  0  0  0  0  0  0
   21.3207  -21.2676  -13.8774 C   0  0  0  0  0  0  0  0  0  0  0  0
   21.6636  -20.7800  -12.4834 C   0  0  2  0  0  0  0  0  0  0  0  0
   22.8677  -21.5040  -12.0306 N   0  0  0  0  0  0  0  0  0  0  0  0
   20.6026  -21.0131  -11.4936 C   0  0  0  0  0  0  0  0  0  0  0  0
   20.7234  -21.8994  -10.4154 O   0  0  0  0  0  0  0  0  0  0  0  0
   19.5150  -20.4113  -11.5772 O   0  0  0  0  0  0  0  0  0  0  0  0
  1  2  1  0
  2  3  2  0
  4  5  1  0
  4  2  1  0
  6  7  1  1
  6  5  1  0
  8  6  1  0
  9  8  2  0
 11 10  1  0
 12 13  1  0
 12 11  1  0
 14 13  1  1
 14 16  1  0
 14 15  1  0
 15  8  1  0
 16 17  2  0
 18 19  1  0
 19 21  1  0
 20 19  2  0
 22 21  1  6
 23 22  1  0
 23 16  1  0
 24 25  1  0
 24 22  1  0
 26 24  2  0
M  END
$$$$
