QMN.pdb
     RDKit          3D

 26 25  0  0  1  0  0  0  0  0999 V2000
   17.2027   -9.3418  -23.4508 N   0  0  0  0  0  0  0  0  0  0  0  0
   17.5889  -10.3097  -22.5101 C   0  0  0  0  0  0  0  0  0  0  0  0
   16.8264  -11.2890  -22.2943 O   0  0  0  0  0  0  0  0  0  0  0  0
   18.8618  -10.1532  -21.8093 C   0  0  0  0  0  0  0  0  0  0  0  0
   18.7444   -9.8273  -20.3493 C   0  0  0  0  0  0  0  0  0  0  0  0
   19.3663  -11.0130  -19.5988 C   0  0  2  0  0  0  0  0  0  0  0  0
   18.3247  -11.9891  -19.2821 N   0  0  0  0  0  0  0  0  0  0  0  0
   20.0010  -10.5644  -18.3393 C   0  0  0  0  0  0  0  0  0  0  0  0
   19.2979  -10.4519  -17.2940 O   0  0  0  0  0  0  0  0  0  0  0  0
   26.7571   -9.9213  -14.3494 C   0  0  0  0  0  0  0  0  0  0  0  0
   25.8319  -10.5342  -15.7719 S   0  0  0  0  0  0  0  0  0  0  0  0
   24.1438   -9.8329  -15.7181 C   0  0  0  0  0  0  0  0  0  0  0  0
   23.4022  -10.3099  -16.9194 C   0  0  0  0  0  0  0  0  0  0  0  0
   21.9868   -9.8170  -16.9359 C   0  0  2  0  0  0  0  0  0  0  0  0
   21.3669  -10.2450  -18.2138 N   0  0  0  0  0  0  0  0  0  0  0  0
   21.9682   -8.3457  -16.8422 C   0  0  0  0  0  0  0  0  0  0  0  0
   22.4756   -7.7378  -17.8674 O   0  0  0  0  0  0  0  0  0  0  0  0
   21.3792   -3.2574  -15.8879 N   0  0  0  0  0  0  0  0  0  0  0  0
   20.2721   -4.0255  -16.3115 C   0  0  0  0  0  0  0  0  0  0  0  0
   19.2473   -3.4197  -16.6921 O   0  0  0  0  0  0  0  0  0  0  0  0
   20.3123   -5.4872  -16.3103 C   0  0  0  0  0  0  0  0  0  0  0  0
   21.6456   -6.0881  -15.9102 C   0  0  2  0  0  0  0  0  0  0  0  0
   21.4735   -7.5504  -15.8052 N   0  0  0  0  0  0  0  0  0  0  0  0
   22.1533   -5.6033  -14.6190 C   0  0  0  0  0  0  0  0  0  0  0  0
   22.3504   -6.4242  -13.5010 O   0  0  0  0  0  0  0  0  0  0  0  0
   22.4379   -4.4007  -14.4614 O   0  0  0  0  0  0  0  0  0  0  0  0
  1  2  1  0
  2  3  2  0
  4  5  1  0
  4  2  1  0
  6  7  1  1
  6  5  1  0
  8  6  1  0
  9  8  2  0
 11 10  1  0
 12 13  1  0
 12 11  1  0
 14 13  1  6
 14 16  1  0
 14 15  1  0
 15  8  1  0
 16 17  2  0
 18 19  1  0
 19 21  1  0
 20 19  2  0
 22 21  1  1
 23 22  1  0
 23 16  1  0
 24 25  1  0
 24 22  1  0
 26 24  2  0
M  END
$$$$
