QMN.pdb
     RDKit          3D

 26 25  0  0  1  0  0  0  0  0999 V2000
   18.3584  -20.9105  -15.7554 N   0  0  0  0  0  0  0  0  0  0  0  0
   18.0675  -20.9264  -14.3820 C   0  0  0  0  0  0  0  0  0  0  0  0
   16.9735  -21.4174  -13.9958 O   0  0  0  0  0  0  0  0  0  0  0  0
   19.0404  -20.3734  -13.4419 C   0  0  0  0  0  0  0  0  0  0  0  0
   20.2655  -19.7814  -14.0744 C   0  0  0  0  0  0  0  0  0  0  0  0
   21.3073  -20.9077  -14.1169 C   0  0  2  0  0  0  0  0  0  0  0  0
   20.8051  -22.0638  -13.3758 N   0  0  0  0  0  0  0  0  0  0  0  0
   22.5835  -20.4676  -13.5101 C   0  0  0  0  0  0  0  0  0  0  0  0
   23.0150  -19.3022  -13.7454 O   0  0  0  0  0  0  0  0  0  0  0  0
   27.4533  -19.5636   -8.1924 C   0  0  0  0  0  0  0  0  0  0  0  0
   25.9641  -20.3977   -8.7770 S   0  0  0  0  0  0  0  0  0  0  0  0
   26.3408  -21.2224  -10.3652 C   0  0  0  0  0  0  0  0  0  0  0  0
   25.0556  -21.6602  -10.9795 C   0  0  0  0  0  0  0  0  0  0  0  0
   24.7377  -20.8870  -12.2236 C   0  0  2  0  0  0  0  0  0  0  0  0
   23.3750  -21.2709  -12.6667 N   0  0  0  0  0  0  0  0  0  0  0  0
   25.7144  -21.2131  -13.2788 C   0  0  0  0  0  0  0  0  0  0  0  0
   25.4768  -22.3229  -13.9032 O   0  0  0  0  0  0  0  0  0  0  0  0
   29.1729  -17.5971  -15.6353 N   0  0  0  0  0  0  0  0  0  0  0  0
   28.4951  -18.6946  -16.2107 C   0  0  0  0  0  0  0  0  0  0  0  0
   29.0179  -19.2572  -17.1968 O   0  0  0  0  0  0  0  0  0  0  0  0
   27.2191  -19.1686  -15.6765 C   0  0  0  0  0  0  0  0  0  0  0  0
   27.2528  -20.5668  -15.0913 C   0  0  2  0  0  0  0  0  0  0  0  0
   26.8347  -20.4798  -13.6782 N   0  0  0  0  0  0  0  0  0  0  0  0
   28.5809  -21.1951  -15.1271 C   0  0  0  0  0  0  0  0  0  0  0  0
   29.0514  -21.9628  -16.2004 O   0  0  0  0  0  0  0  0  0  0  0  0
   29.3687  -21.0660  -14.1707 O   0  0  0  0  0  0  0  0  0  0  0  0
  1  2  1  0
  2  3  2  0
  4  5  1  0
  4  2  1  0
  6  7  1  1
  6  5  1  0
  8  6  1  0
  9  8  2  0
 11 10  1  0
 12 13  1  0
 12 11  1  0
 14 13  1  1
 14 16  1  0
 14 15  1  0
 15  8  1  0
 16 17  2  0
 18 19  1  0
 19 21  1  0
 20 19  2  0
 22 21  1  1
 23 22  1  0
 23 16  1  0
 24 25  1  0
 24 22  1  0
 26 24  2  0
M  END
$$$$
