QMN.pdb
     RDKit          3D

 26 25  0  0  1  0  0  0  0  0999 V2000
   19.0660  -15.7739  -16.5805 N   0  0  0  0  0  0  0  0  0  0  0  0
   19.6272  -16.4371  -17.6835 C   0  0  0  0  0  0  0  0  0  0  0  0
   18.9378  -17.2971  -18.2936 O   0  0  0  0  0  0  0  0  0  0  0  0
   20.9924  -16.1114  -18.0908 C   0  0  0  0  0  0  0  0  0  0  0  0
   21.6862  -15.0998  -17.2265 C   0  0  0  0  0  0  0  0  0  0  0  0
   21.6152  -13.7700  -17.9896 C   0  0  2  0  0  0  0  0  0  0  0  0
   22.2883  -13.9124  -19.2798 N   0  0  0  0  0  0  0  0  0  0  0  0
   22.2724  -12.6876  -17.2235 C   0  0  0  0  0  0  0  0  0  0  0  0
   21.9944  -12.5347  -15.9992 O   0  0  0  0  0  0  0  0  0  0  0  0
   27.7022  -12.8531  -15.1192 C   0  0  0  0  0  0  0  0  0  0  0  0
   26.4642  -11.5894  -15.4735 S   0  0  0  0  0  0  0  0  0  0  0  0
   26.1569  -11.5607  -17.2760 C   0  0  0  0  0  0  0  0  0  0  0  0
   25.2069  -10.4506  -17.5694 C   0  0  0  0  0  0  0  0  0  0  0  0
   23.8500  -10.7061  -16.9861 C   0  0  2  0  0  0  0  0  0  0  0  0
   23.2104  -11.7908  -17.7704 N   0  0  0  0  0  0  0  0  0  0  0  0
   23.0312   -9.4828  -17.0691 C   0  0  0  0  0  0  0  0  0  0  0  0
   22.5660   -9.2296  -18.2512 O   0  0  0  0  0  0  0  0  0  0  0  0
   19.5663   -5.7525  -16.8039 N   0  0  0  0  0  0  0  0  0  0  0  0
   19.3842   -7.1332  -17.0396 C   0  0  0  0  0  0  0  0  0  0  0  0
   18.2584   -7.5214  -17.4190 O   0  0  0  0  0  0  0  0  0  0  0  0
   20.4737   -8.0899  -16.8498 C   0  0  0  0  0  0  0  0  0  0  0  0
   21.7752   -7.4852  -16.3608 C   0  0  2  0  0  0  0  0  0  0  0  0
   22.7013   -8.5906  -16.0455 N   0  0  0  0  0  0  0  0  0  0  0  0
   21.6319   -6.6627  -15.1514 C   0  0  0  0  0  0  0  0  0  0  0  0
   21.3893   -5.2830  -15.1712 O   0  0  0  0  0  0  0  0  0  0  0  0
   21.7245   -7.1774  -14.0206 O   0  0  0  0  0  0  0  0  0  0  0  0
  1  2  1  0
  2  3  2  0
  4  5  1  0
  4  2  1  0
  6  7  1  6
  6  5  1  0
  8  6  1  0
  9  8  2  0
 11 10  1  0
 12 13  1  0
 12 11  1  0
 14 13  1  6
 14 16  1  0
 14 15  1  0
 15  8  1  0
 16 17  2  0
 18 19  1  0
 19 21  1  0
 20 19  2  0
 22 21  1  1
 23 22  1  0
 23 16  1  0
 24 25  1  0
 24 22  1  0
 26 24  2  0
M  END
$$$$
