QMN.pdb
     RDKit          3D

 26 25  0  0  1  0  0  0  0  0999 V2000
   26.5351  -18.9379  -17.1523 N   0  0  0  0  0  0  0  0  0  0  0  0
   27.7274  -18.2862  -16.7989 C   0  0  0  0  0  0  0  0  0  0  0  0
   28.4159  -17.7416  -17.7024 O   0  0  0  0  0  0  0  0  0  0  0  0
   28.1347  -18.2591  -15.3955 C   0  0  0  0  0  0  0  0  0  0  0  0
   27.1348  -18.8332  -14.4353 C   0  0  0  0  0  0  0  0  0  0  0  0
   27.9090  -19.8310  -13.5630 C   0  0  2  0  0  0  0  0  0  0  0  0
   28.5647  -20.8190  -14.4183 N   0  0  0  0  0  0  0  0  0  0  0  0
   26.9980  -20.5333  -12.6316 C   0  0  0  0  0  0  0  0  0  0  0  0
   26.2801  -21.4820  -13.0606 O   0  0  0  0  0  0  0  0  0  0  0  0
   28.7614  -20.2512   -5.9454 C   0  0  0  0  0  0  0  0  0  0  0  0
   27.2124  -19.7701   -6.7356 S   0  0  0  0  0  0  0  0  0  0  0  0
   27.1380  -20.5387   -8.3933 C   0  0  0  0  0  0  0  0  0  0  0  0
   25.8890  -20.0798   -9.0643 C   0  0  0  0  0  0  0  0  0  0  0  0
   25.7337  -20.6799  -10.4290 C   0  0  2  0  0  0  0  0  0  0  0  0
   26.8674  -20.2160  -11.2657 N   0  0  0  0  0  0  0  0  0  0  0  0
   24.4605  -20.2389  -11.0276 C   0  0  0  0  0  0  0  0  0  0  0  0
   24.5784  -19.2785  -11.8887 O   0  0  0  0  0  0  0  0  0  0  0  0
   20.4571  -20.9106  -14.1099 N   0  0  0  0  0  0  0  0  0  0  0  0
   21.7534  -21.4664  -14.1864 C   0  0  0  0  0  0  0  0  0  0  0  0
   22.0858  -22.0392  -15.2464 O   0  0  0  0  0  0  0  0  0  0  0  0
   22.6882  -21.3797  -13.0654 C   0  0  0  0  0  0  0  0  0  0  0  0
   22.1733  -20.6119  -11.8637 C   0  0  2  0  0  0  0  0  0  0  0  0
   23.1743  -20.7285  -10.7851 N   0  0  0  0  0  0  0  0  0  0  0  0
   20.8933  -21.1116  -11.3422 C   0  0  0  0  0  0  0  0  0  0  0  0
   19.6710  -20.4476  -11.5091 O   0  0  0  0  0  0  0  0  0  0  0  0
   20.8425  -22.1827  -10.7081 O   0  0  0  0  0  0  0  0  0  0  0  0
  1  2  1  0
  2  3  2  0
  4  5  1  0
  4  2  1  0
  6  7  1  6
  6  5  1  0
  8  6  1  0
  9  8  2  0
 11 10  1  0
 12 13  1  0
 12 11  1  0
 14 13  1  1
 14 16  1  0
 14 15  1  0
 15  8  1  0
 16 17  2  0
 18 19  1  0
 19 21  1  0
 20 19  2  0
 22 21  1  6
 23 22  1  0
 23 16  1  0
 24 25  1  0
 24 22  1  0
 26 24  2  0
M  END
$$$$
