QMN.pdb
     RDKit          3D

 26 25  0  0  1  0  0  0  0  0999 V2000
   18.5872  -16.0476  -20.3942 N   0  0  0  0  0  0  0  0  0  0  0  0
   18.8745  -15.0290  -19.4716 C   0  0  0  0  0  0  0  0  0  0  0  0
   18.1066  -14.0327  -19.4041 O   0  0  0  0  0  0  0  0  0  0  0  0
   20.0543  -15.1538  -18.6181 C   0  0  0  0  0  0  0  0  0  0  0  0
   20.2567  -14.0257  -17.6496 C   0  0  0  0  0  0  0  0  0  0  0  0
   21.6640  -14.2145  -17.0667 C   0  0  2  0  0  0  0  0  0  0  0  0
   21.7105  -15.4585  -16.2997 N   0  0  0  0  0  0  0  0  0  0  0  0
   22.0198  -13.0884  -16.1746 C   0  0  0  0  0  0  0  0  0  0  0  0
   21.5119  -13.0265  -15.0180 O   0  0  0  0  0  0  0  0  0  0  0  0
   28.2786  -12.6429  -14.5765 C   0  0  0  0  0  0  0  0  0  0  0  0
   27.2878  -11.3378  -15.3317 S   0  0  0  0  0  0  0  0  0  0  0  0
   25.5194  -11.7679  -15.1525 C   0  0  0  0  0  0  0  0  0  0  0  0
   24.7091  -10.6594  -15.7316 C   0  0  0  0  0  0  0  0  0  0  0  0
   23.2380  -10.9247  -15.6215 C   0  0  2  0  0  0  0  0  0  0  0  0
   22.9062  -12.0522  -16.5266 N   0  0  0  0  0  0  0  0  0  0  0  0
   22.4816   -9.7247  -16.0237 C   0  0  0  0  0  0  0  0  0  0  0  0
   22.5417   -9.4535  -17.2889 O   0  0  0  0  0  0  0  0  0  0  0  0
   17.8181   -9.5557  -15.0652 N   0  0  0  0  0  0  0  0  0  0  0  0
   18.7478   -8.8826  -15.8884 C   0  0  0  0  0  0  0  0  0  0  0  0
   18.8562   -9.2526  -17.0773 O   0  0  0  0  0  0  0  0  0  0  0  0
   19.5643   -7.7829  -15.3763 C   0  0  0  0  0  0  0  0  0  0  0  0
   20.9956   -7.7652  -15.8760 C   0  0  2  0  0  0  0  0  0  0  0  0
   21.7211   -8.8710  -15.2203 N   0  0  0  0  0  0  0  0  0  0  0  0
   21.7148   -6.5189  -15.5773 C   0  0  0  0  0  0  0  0  0  0  0  0
   22.8881   -6.4596  -14.8140 O   0  0  0  0  0  0  0  0  0  0  0  0
   21.2947   -5.4269  -16.0053 O   0  0  0  0  0  0  0  0  0  0  0  0
  1  2  1  0
  2  3  2  0
  4  5  1  0
  4  2  1  0
  6  7  1  1
  6  5  1  0
  8  6  1  0
  9  8  2  0
 11 10  1  0
 12 13  1  0
 12 11  1  0
 14 13  1  6
 14 16  1  0
 14 15  1  0
 15  8  1  0
 16 17  2  0
 18 19  1  0
 19 21  1  0
 20 19  2  0
 22 21  1  1
 23 22  1  0
 23 16  1  0
 24 25  1  0
 24 22  1  0
 26 24  2  0
M  END
$$$$
