QMN.pdb
     RDKit          3D

 26 25  0  0  1  0  0  0  0  0999 V2000
   29.5391  -18.2370  -15.1910 N   0  0  0  0  0  0  0  0  0  0  0  0
   28.8481  -17.8361  -16.3456 C   0  0  0  0  0  0  0  0  0  0  0  0
   29.0017  -16.6604  -16.7711 O   0  0  0  0  0  0  0  0  0  0  0  0
   27.9717  -18.7925  -17.0188 C   0  0  0  0  0  0  0  0  0  0  0  0
   28.0065  -20.1846  -16.4598 C   0  0  0  0  0  0  0  0  0  0  0  0
   26.5520  -20.5444  -16.1269 C   0  0  2  0  0  0  0  0  0  0  0  0
   25.7054  -19.3660  -16.3074 N   0  0  0  0  0  0  0  0  0  0  0  0
   26.4321  -21.0101  -14.7271 C   0  0  0  0  0  0  0  0  0  0  0  0
   27.0114  -22.0779  -14.3750 O   0  0  0  0  0  0  0  0  0  0  0  0
   27.1538  -20.3988   -8.9220 C   0  0  0  0  0  0  0  0  0  0  0  0
   25.3816  -20.6001   -8.6499 S   0  0  0  0  0  0  0  0  0  0  0  0
   24.6026  -21.1123  -10.2231 C   0  0  0  0  0  0  0  0  0  0  0  0
   25.3943  -20.5338  -11.3453 C   0  0  0  0  0  0  0  0  0  0  0  0
   24.9250  -21.0346  -12.6779 C   0  0  2  0  0  0  0  0  0  0  0  0
   25.7017  -20.3348  -13.7303 N   0  0  0  0  0  0  0  0  0  0  0  0
   23.4889  -20.7450  -12.8438 C   0  0  0  0  0  0  0  0  0  0  0  0
   23.1995  -19.4833  -12.8911 O   0  0  0  0  0  0  0  0  0  0  0  0
   19.8443  -23.6412  -12.9531 N   0  0  0  0  0  0  0  0  0  0  0  0
   19.9834  -23.1623  -14.2746 C   0  0  0  0  0  0  0  0  0  0  0  0
   19.5377  -23.8674  -15.2054 O   0  0  0  0  0  0  0  0  0  0  0  0
   20.6271  -21.8803  -14.5578 C   0  0  0  0  0  0  0  0  0  0  0  0
   21.1043  -21.1224  -13.3344 C   0  0  2  0  0  0  0  0  0  0  0  0
   22.4308  -21.6504  -12.9597 N   0  0  0  0  0  0  0  0  0  0  0  0
   20.2218  -21.2602  -12.1674 C   0  0  0  0  0  0  0  0  0  0  0  0
   18.9982  -20.5915  -12.0320 O   0  0  0  0  0  0  0  0  0  0  0  0
   20.5381  -22.0026  -11.2182 O   0  0  0  0  0  0  0  0  0  0  0  0
  1  2  1  0
  2  3  2  0
  4  5  1  0
  4  2  1  0
  6  7  1  1
  6  5  1  0
  8  6  1  0
  9  8  2  0
 11 10  1  0
 12 13  1  0
 12 11  1  0
 14 13  1  1
 14 16  1  0
 14 15  1  0
 15  8  1  0
 16 17  2  0
 18 19  1  0
 19 21  1  0
 20 19  2  0
 22 21  1  6
 23 22  1  0
 23 16  1  0
 24 25  1  0
 24 22  1  0
 26 24  2  0
M  END
$$$$
