QMN.pdb
     RDKit          3D

 26 25  0  0  1  0  0  0  0  0999 V2000
   17.4832  -12.1167  -13.6480 N   0  0  0  0  0  0  0  0  0  0  0  0
   16.8857  -12.9647  -12.7019 C   0  0  0  0  0  0  0  0  0  0  0  0
   17.0755  -14.2069  -12.7902 O   0  0  0  0  0  0  0  0  0  0  0  0
   16.0621  -12.3826  -11.6442 C   0  0  0  0  0  0  0  0  0  0  0  0
   15.9597  -10.8859  -11.6733 C   0  0  0  0  0  0  0  0  0  0  0  0
   15.1158  -10.4947  -10.4525 C   0  0  2  0  0  0  0  0  0  0  0  0
   13.7688  -11.0454  -10.5950 N   0  0  0  0  0  0  0  0  0  0  0  0
   15.0206   -9.0229  -10.3280 C   0  0  0  0  0  0  0  0  0  0  0  0
   14.3076   -8.3741  -11.1466 O   0  0  0  0  0  0  0  0  0  0  0  0
   13.8577   -2.5623   -6.8100 C   0  0  0  0  0  0  0  0  0  0  0  0
   13.8449   -4.3556   -7.0083 S   0  0  0  0  0  0  0  0  0  0  0  0
   15.4339   -4.8733   -7.7510 C   0  0  0  0  0  0  0  0  0  0  0  0
   15.4213   -6.3568   -7.8919 C   0  0  0  0  0  0  0  0  0  0  0  0
   15.6735   -6.7870   -9.3053 C   0  0  2  0  0  0  0  0  0  0  0  0
   15.6824   -8.2701   -9.3388 N   0  0  0  0  0  0  0  0  0  0  0  0
   16.9778   -6.2713   -9.7602 C   0  0  0  0  0  0  0  0  0  0  0  0
   17.9525   -6.4764   -8.9320 O   0  0  0  0  0  0  0  0  0  0  0  0
   21.3211   -4.8236  -12.1757 N   0  0  0  0  0  0  0  0  0  0  0  0
   20.7724   -6.1235  -12.2411 C   0  0  0  0  0  0  0  0  0  0  0  0
   21.4951   -7.0454  -12.6770 O   0  0  0  0  0  0  0  0  0  0  0  0
   19.4008   -6.3952  -11.8135 C   0  0  0  0  0  0  0  0  0  0  0  0
   18.6807   -5.2142  -11.1927 C   0  0  2  0  0  0  0  0  0  0  0  0
   17.2787   -5.6095  -10.9535 N   0  0  0  0  0  0  0  0  0  0  0  0
   18.6687   -4.0127  -12.0390 C   0  0  0  0  0  0  0  0  0  0  0  0
   19.7963   -3.2164  -12.2782 O   0  0  0  0  0  0  0  0  0  0  0  0
   17.6184   -3.6410  -12.5964 O   0  0  0  0  0  0  0  0  0  0  0  0
  1  2  1  0
  2  3  2  0
  4  5  1  0
  4  2  1  0
  6  7  1  6
  6  5  1  0
  8  6  1  0
  9  8  2  0
 11 10  1  0
 12 13  1  0
 12 11  1  0
 14 13  1  1
 14 16  1  0
 14 15  1  0
 15  8  1  0
 16 17  2  0
 18 19  1  0
 19 21  1  0
 20 19  2  0
 22 21  1  6
 23 22  1  0
 23 16  1  0
 24 25  1  0
 24 22  1  0
 26 24  2  0
M  END
$$$$
