QMN.pdb
     RDKit          3D

 26 25  0  0  1  0  0  0  0  0999 V2000
   29.4052  -22.8246  -17.1161 N   0  0  0  0  0  0  0  0  0  0  0  0
   29.1102  -21.4788  -17.3863 C   0  0  0  0  0  0  0  0  0  0  0  0
   29.7052  -20.9025  -18.3354 O   0  0  0  0  0  0  0  0  0  0  0  0
   28.1236  -20.7865  -16.5596 C   0  0  0  0  0  0  0  0  0  0  0  0
   27.5737  -21.5943  -15.4210 C   0  0  0  0  0  0  0  0  0  0  0  0
   26.5496  -20.6931  -14.7174 C   0  0  2  0  0  0  0  0  0  0  0  0
   27.1205  -19.3598  -14.5321 N   0  0  0  0  0  0  0  0  0  0  0  0
   26.1837  -21.2455  -13.3939 C   0  0  0  0  0  0  0  0  0  0  0  0
   25.8988  -22.4733  -13.2894 O   0  0  0  0  0  0  0  0  0  0  0  0
   27.8919  -19.8241   -7.2644 C   0  0  0  0  0  0  0  0  0  0  0  0
   26.1049  -19.5847   -7.1965 S   0  0  0  0  0  0  0  0  0  0  0  0
   25.3329  -20.5584   -8.5381 C   0  0  0  0  0  0  0  0  0  0  0  0
   25.9251  -20.1193   -9.8332 C   0  0  0  0  0  0  0  0  0  0  0  0
   25.4297  -20.9430  -10.9832 C   0  0  2  0  0  0  0  0  0  0  0  0
   26.1281  -20.4857  -12.2095 N   0  0  0  0  0  0  0  0  0  0  0  0
   23.9754  -20.7588  -11.1409 C   0  0  0  0  0  0  0  0  0  0  0  0
   23.6416  -19.8329  -11.9831 O   0  0  0  0  0  0  0  0  0  0  0  0
   20.9471  -23.0735   -8.0900 N   0  0  0  0  0  0  0  0  0  0  0  0
   20.3530  -22.3281   -9.1324 C   0  0  0  0  0  0  0  0  0  0  0  0
   19.4621  -21.5044   -8.8323 O   0  0  0  0  0  0  0  0  0  0  0  0
   20.7607  -22.5053  -10.5254 C   0  0  0  0  0  0  0  0  0  0  0  0
   21.5895  -21.3713  -11.0964 C   0  0  2  0  0  0  0  0  0  0  0  0
   22.9410  -21.4536  -10.5085 N   0  0  0  0  0  0  0  0  0  0  0  0
   21.0535  -20.0352  -10.8009 C   0  0  0  0  0  0  0  0  0  0  0  0
   19.9003  -19.5085  -11.3971 O   0  0  0  0  0  0  0  0  0  0  0  0
   21.6237  -19.2912   -9.9802 O   0  0  0  0  0  0  0  0  0  0  0  0
  1  2  1  0
  2  3  2  0
  4  5  1  0
  4  2  1  0
  6  7  1  1
  6  5  1  0
  8  6  1  0
  9  8  2  0
 11 10  1  0
 12 13  1  0
 12 11  1  0
 14 13  1  1
 14 16  1  0
 14 15  1  0
 15  8  1  0
 16 17  2  0
 18 19  1  0
 19 21  1  0
 20 19  2  0
 22 21  1  1
 23 22  1  0
 23 16  1  0
 24 25  1  0
 24 22  1  0
 26 24  2  0
M  END
$$$$
