QMN.pdb
     RDKit          3D

 26 25  0  0  1  0  0  0  0  0999 V2000
   19.6011  -19.7891  -13.3611 N   0  0  0  0  0  0  0  0  0  0  0  0
   19.3518  -21.1141  -12.9692 C   0  0  0  0  0  0  0  0  0  0  0  0
   18.1588  -21.5022  -12.8549 O   0  0  0  0  0  0  0  0  0  0  0  0
   20.4815  -22.0029  -12.7052 C   0  0  0  0  0  0  0  0  0  0  0  0
   21.8273  -21.4341  -13.0470 C   0  0  0  0  0  0  0  0  0  0  0  0
   22.5431  -21.2049  -11.7087 C   0  0  2  0  0  0  0  0  0  0  0  0
   21.7947  -20.2296  -10.9170 N   0  0  0  0  0  0  0  0  0  0  0  0
   23.9149  -20.6935  -11.9262 C   0  0  0  0  0  0  0  0  0  0  0  0
   24.0783  -19.5547  -12.4516 O   0  0  0  0  0  0  0  0  0  0  0  0
   29.0640  -20.9283   -8.0302 C   0  0  0  0  0  0  0  0  0  0  0  0
   29.7636  -21.5490   -9.5731 S   0  0  0  0  0  0  0  0  0  0  0  0
   28.7594  -20.9194  -10.9657 C   0  0  0  0  0  0  0  0  0  0  0  0
   27.3685  -21.4298  -10.8057 C   0  0  0  0  0  0  0  0  0  0  0  0
   26.4501  -20.8927  -11.8615 C   0  0  2  0  0  0  0  0  0  0  0  0
   25.0841  -21.3990  -11.5821 N   0  0  0  0  0  0  0  0  0  0  0  0
   26.8903  -21.3557  -13.1903 C   0  0  0  0  0  0  0  0  0  0  0  0
   26.4029  -22.5019  -13.5460 O   0  0  0  0  0  0  0  0  0  0  0  0
   25.1750  -19.0032  -17.6825 N   0  0  0  0  0  0  0  0  0  0  0  0
   25.5059  -20.2341  -17.0739 C   0  0  0  0  0  0  0  0  0  0  0  0
   25.3857  -21.2766  -17.7527 O   0  0  0  0  0  0  0  0  0  0  0  0
   25.9772  -20.2993  -15.6912 C   0  0  0  0  0  0  0  0  0  0  0  0
   27.4084  -20.7718  -15.5270 C   0  0  2  0  0  0  0  0  0  0  0  0
   27.7453  -20.7151  -14.0910 N   0  0  0  0  0  0  0  0  0  0  0  0
   28.3919  -19.9535  -16.2502 C   0  0  0  0  0  0  0  0  0  0  0  0
   29.0515  -20.3735  -17.4126 O   0  0  0  0  0  0  0  0  0  0  0  0
   28.6893  -18.8141  -15.8436 O   0  0  0  0  0  0  0  0  0  0  0  0
  1  2  1  0
  2  3  2  0
  4  5  1  0
  4  2  1  0
  6  7  1  1
  6  5  1  0
  8  6  1  0
  9  8  2  0
 11 10  1  0
 12 13  1  0
 12 11  1  0
 14 13  1  1
 14 16  1  0
 14 15  1  0
 15  8  1  0
 16 17  2  0
 18 19  1  0
 19 21  1  0
 20 19  2  0
 22 21  1  1
 23 22  1  0
 23 16  1  0
 24 25  1  0
 24 22  1  0
 26 24  2  0
M  END
$$$$
