RED.pdb
     RDKit          3D

 29 28  0  0  1  0  0  0  0  0999 V2000
   16.5966  -15.0050  -17.5045 N   0  0  0  0  0  0  0  0  0  0  0  0
   15.2649  -15.0698  -17.9787 C   0  0  0  0  0  0  0  0  0  0  0  0
   14.8562  -16.1311  -18.5486 N   0  0  0  0  0  0  0  0  0  0  0  0
   14.4169  -13.9455  -17.8047 N   0  0  0  0  0  0  0  0  0  0  0  0
   14.9817  -12.6951  -17.3380 C   0  0  0  0  0  0  0  0  0  0  0  0
   14.7553  -12.4733  -15.8808 C   0  0  0  0  0  0  0  0  0  0  0  0
   15.3398  -11.2309  -15.3298 C   0  0  0  0  0  0  0  0  0  0  0  0
   16.8199  -11.1639  -15.1968 C   0  0  2  0  0  0  0  0  0  0  0  0
   17.4179  -12.1837  -14.3817 N   0  0  0  0  0  0  0  0  0  0  0  0
   17.1264   -9.8357  -14.5550 C   0  0  0  0  0  0  0  0  0  0  0  0
   16.7770   -9.6467  -13.3551 O   0  0  0  0  0  0  0  0  0  0  0  0
   13.8986  -16.3056  -18.8867 N   0  0  0  0  0  0  0  0  0  0  0  0
   17.7918   -8.8333  -15.2938 C   0  0  1  0  0  0  0  0  0  0  0  0
   18.1168   -7.5849  -14.6580 C   0  0  0  0  0  0  0  0  0  0  0  0
   19.5614   -7.6767  -14.2013 C   0  0  0  0  0  0  0  0  0  0  0  0
   20.2868   -8.7663  -14.9824 C   0  0  0  0  0  0  0  0  0  0  0  0
   21.7095   -8.8506  -14.5643 O   0  0  0  0  0  0  0  0  0  0  0  0
   22.2199   -8.1159  -13.6847 C   0  0  0  0  0  0  0  0  0  0  0  0
   17.9758   -6.5022  -15.6975 O   0  0  0  0  0  0  0  0  0  0  0  0
   18.1865   -6.7348  -16.9154 O   0  0  0  0  0  0  0  0  0  0  0  0
   22.5376   -9.7916  -15.1720 N   0  0  0  0  0  0  0  0  0  0  0  0
   17.6005   -5.1856  -15.3342 C   0  0  1  0  0  0  0  0  0  0  0  0
   17.5109   -4.1622  -16.4045 C   0  0  0  0  0  0  0  0  0  0  0  0
   16.5826   -3.0593  -15.9367 C   0  0  0  0  0  0  0  0  0  0  0  0
   15.1941   -3.5046  -16.0114 O   0  0  0  0  0  0  0  0  0  0  0  0
   14.8351   -4.3919  -16.8048 C   0  0  0  0  0  0  0  0  0  0  0  0
   18.8963   -3.6530  -16.5343 O   0  0  0  0  0  0  0  0  0  0  0  0
   19.1511   -2.7679  -17.3893 O   0  0  0  0  0  0  0  0  0  0  0  0
   14.2405   -2.9311  -15.1813 O   0  0  0  0  0  0  0  0  0  0  0  0
  1  2  1  0
  2  3  2  0
  4  2  1  0
  5  4  1  0
  6  5  1  0
  7  6  1  0
  8  7  1  0
  8  9  1  1
 10  8  1  0
 10 12  1  0
 11 10  2  0
 13 12  1  0
 13 14  1  1
 15 14  1  0
 15 16  1  0
 16 17  2  0
 18 13  1  0
 19 18  2  0
 20 16  1  0
 21 18  1  0
 22 26  1  0
 22 21  1  0
 23 24  1  0
 22 23  1  6
 24 25  2  0
 26 29  1  0
 27 26  2  0
 28 24  1  0
M  END
$$$$
