RED.pdb
     RDKit          3D

 29 28  0  0  1  0  0  0  0  0999 V2000
   14.4185  -12.1453  -14.0011 N   0  0  0  0  0  0  0  0  0  0  0  0
   14.1626  -13.4165  -14.5677 C   0  0  0  0  0  0  0  0  0  0  0  0
   12.9830  -13.8911  -14.5291 N   0  0  0  0  0  0  0  0  0  0  0  0
   15.2321  -14.1308  -15.1671 N   0  0  0  0  0  0  0  0  0  0  0  0
   16.5703  -13.5765  -15.1218 C   0  0  0  0  0  0  0  0  0  0  0  0
   16.7751  -12.4925  -16.1253 C   0  0  0  0  0  0  0  0  0  0  0  0
   18.0784  -11.7964  -16.0502 C   0  0  0  0  0  0  0  0  0  0  0  0
   19.2296  -12.4068  -16.7678 C   0  0  2  0  0  0  0  0  0  0  0  0
   19.6774  -13.6736  -16.2614 N   0  0  0  0  0  0  0  0  0  0  0  0
   20.3742  -11.4364  -16.6323 C   0  0  0  0  0  0  0  0  0  0  0  0
   20.9206  -11.2971  -15.5010 O   0  0  0  0  0  0  0  0  0  0  0  0
   12.6823  -14.7964  -14.9186 N   0  0  0  0  0  0  0  0  0  0  0  0
   20.8150  -10.7055  -17.7569 C   0  0  2  0  0  0  0  0  0  0  0  0
   21.9280   -9.8047  -17.6226 C   0  0  0  0  0  0  0  0  0  0  0  0
   22.5297   -9.6256  -19.0045 C   0  0  0  0  0  0  0  0  0  0  0  0
   23.4019  -10.8263  -19.3529 C   0  0  0  0  0  0  0  0  0  0  0  0
   23.9276  -10.7069  -20.7369 O   0  0  0  0  0  0  0  0  0  0  0  0
   24.6591   -9.7638  -21.1233 C   0  0  0  0  0  0  0  0  0  0  0  0
   21.3832   -8.4896  -17.1265 O   0  0  0  0  0  0  0  0  0  0  0  0
   20.1816   -8.1682  -17.3136 O   0  0  0  0  0  0  0  0  0  0  0  0
   23.6003  -11.6873  -21.6708 N   0  0  0  0  0  0  0  0  0  0  0  0
   22.2093   -7.5721  -16.4321 C   0  0  2  0  0  0  0  0  0  0  0  0
   21.5978   -6.3143  -15.9376 C   0  0  0  0  0  0  0  0  0  0  0  0
   21.4126   -6.4287  -14.4377 C   0  0  0  0  0  0  0  0  0  0  0  0
   20.9246   -5.1650  -13.8928 O   0  0  0  0  0  0  0  0  0  0  0  0
   21.6933   -4.3397  -13.3698 C   0  0  0  0  0  0  0  0  0  0  0  0
   22.6030   -5.2738  -16.2575 O   0  0  0  0  0  0  0  0  0  0  0  0
   22.3253   -4.0646  -16.0566 O   0  0  0  0  0  0  0  0  0  0  0  0
   19.5706   -4.8649  -13.9538 O   0  0  0  0  0  0  0  0  0  0  0  0
  1  2  1  0
  2  3  2  0
  4  2  1  0
  5  4  1  0
  6  5  1  0
  7  6  1  0
  8  7  1  0
  8  9  1  1
 10  8  1  0
 10 12  1  0
 11 10  2  0
 13 12  1  0
 13 14  1  1
 15 14  1  0
 15 16  1  0
 16 17  2  0
 18 13  1  0
 19 18  2  0
 20 16  1  0
 21 18  1  0
 22 26  1  0
 22 21  1  0
 23 24  1  0
 22 23  1  1
 24 25  2  0
 26 29  1  0
 27 26  2  0
 28 24  1  0
M  END
$$$$
