RED.pdb
     RDKit          3D

 29 28  0  0  1  0  0  0  0  0999 V2000
   14.1643  -25.6187  -11.1765 N   0  0  0  0  0  0  0  0  0  0  0  0
   14.9686  -26.2804  -10.2185 C   0  0  0  0  0  0  0  0  0  0  0  0
   14.4124  -26.8866   -9.2482 N   0  0  0  0  0  0  0  0  0  0  0  0
   16.3795  -26.2511  -10.3661 N   0  0  0  0  0  0  0  0  0  0  0  0
   17.0009  -25.1241  -11.0324 C   0  0  0  0  0  0  0  0  0  0  0  0
   18.4821  -25.2646  -11.1338 C   0  0  0  0  0  0  0  0  0  0  0  0
   19.1770  -24.1647  -11.8381 C   0  0  0  0  0  0  0  0  0  0  0  0
   20.0719  -23.2878  -11.0362 C   0  0  2  0  0  0  0  0  0  0  0  0
   19.7541  -23.1853   -9.6396 N   0  0  0  0  0  0  0  0  0  0  0  0
   19.9524  -21.9077  -11.6288 C   0  0  0  0  0  0  0  0  0  0  0  0
   19.3387  -21.0175  -10.9741 O   0  0  0  0  0  0  0  0  0  0  0  0
   14.8833  -27.5044   -8.5714 N   0  0  0  0  0  0  0  0  0  0  0  0
   20.5207  -21.6316  -12.8913 C   0  0  2  0  0  0  0  0  0  0  0  0
   20.4714  -20.2915  -13.4108 C   0  0  0  0  0  0  0  0  0  0  0  0
   21.7624  -20.0584  -14.1744 C   0  0  0  0  0  0  0  0  0  0  0  0
   21.7689  -18.6559  -14.7716 C   0  0  0  0  0  0  0  0  0  0  0  0
   22.9966  -18.4363  -15.5779 O   0  0  0  0  0  0  0  0  0  0  0  0
   23.2135  -17.3955  -16.2440 C   0  0  0  0  0  0  0  0  0  0  0  0
   19.2979  -20.2191  -14.3542 O   0  0  0  0  0  0  0  0  0  0  0  0
   18.6874  -21.2570  -14.7179 O   0  0  0  0  0  0  0  0  0  0  0  0
   23.9718  -19.4306  -15.6080 N   0  0  0  0  0  0  0  0  0  0  0  0
   18.8445  -18.9770  -14.8620 C   0  0  2  0  0  0  0  0  0  0  0  0
   17.3818  -18.7636  -14.9883 C   0  0  0  0  0  0  0  0  0  0  0  0
   16.7198  -19.2062  -13.6987 C   0  0  0  0  0  0  0  0  0  0  0  0
   15.2748  -19.0141  -13.7829 O   0  0  0  0  0  0  0  0  0  0  0  0
   14.6210  -18.5554  -12.8302 C   0  0  0  0  0  0  0  0  0  0  0  0
   17.2443  -17.2990  -15.1650 O   0  0  0  0  0  0  0  0  0  0  0  0
   17.3140  -16.5467  -14.1606 O   0  0  0  0  0  0  0  0  0  0  0  0
   14.6018  -19.3477  -14.9502 O   0  0  0  0  0  0  0  0  0  0  0  0
  1  2  1  0
  2  3  2  0
  4  2  1  0
  5  4  1  0
  6  5  1  0
  7  6  1  0
  8  7  1  0
  8  9  1  1
 10  8  1  0
 10 12  1  0
 11 10  2  0
 13 12  1  0
 13 14  1  6
 15 14  1  0
 15 16  1  0
 16 17  2  0
 18 13  1  0
 19 18  2  0
 20 16  1  0
 21 18  1  0
 22 26  1  0
 22 21  1  0
 23 24  1  0
 22 23  1  1
 24 25  2  0
 26 29  1  0
 27 26  2  0
 28 24  1  0
M  END
$$$$
