RED.pdb
     RDKit          3D

 29 28  0  0  1  0  0  0  0  0999 V2000
   26.1746  -26.2161  -18.7319 N   0  0  0  0  0  0  0  0  0  0  0  0
   26.4525  -26.6247  -17.4059 C   0  0  0  0  0  0  0  0  0  0  0  0
   27.3261  -27.5264  -17.2006 N   0  0  0  0  0  0  0  0  0  0  0  0
   25.7476  -26.0151  -16.3359 N   0  0  0  0  0  0  0  0  0  0  0  0
   24.8237  -24.9348  -16.6178 C   0  0  0  0  0  0  0  0  0  0  0  0
   24.9908  -23.7812  -15.6877 C   0  0  0  0  0  0  0  0  0  0  0  0
   25.2248  -22.4722  -16.3361 C   0  0  0  0  0  0  0  0  0  0  0  0
   25.4851  -21.3020  -15.4553 C   0  0  2  0  0  0  0  0  0  0  0  0
   26.6747  -21.3783  -14.6547 N   0  0  0  0  0  0  0  0  0  0  0  0
   24.3123  -21.2132  -14.5137 C   0  0  0  0  0  0  0  0  0  0  0  0
   24.4225  -21.7143  -13.3585 O   0  0  0  0  0  0  0  0  0  0  0  0
   27.5018  -28.0055  -16.3055 N   0  0  0  0  0  0  0  0  0  0  0  0
   23.1213  -20.5792  -14.9297 C   0  0  2  0  0  0  0  0  0  0  0  0
   22.0486  -20.4024  -13.9883 C   0  0  0  0  0  0  0  0  0  0  0  0
   21.3010  -19.1443  -14.3909 C   0  0  0  0  0  0  0  0  0  0  0  0
   20.1571  -18.8837  -13.4176 C   0  0  0  0  0  0  0  0  0  0  0  0
   19.4709  -17.6082  -13.7462 O   0  0  0  0  0  0  0  0  0  0  0  0
   19.8090  -16.8622  -14.6966 C   0  0  0  0  0  0  0  0  0  0  0  0
   21.1411  -21.5997  -14.1125 O   0  0  0  0  0  0  0  0  0  0  0  0
   20.8798  -22.1075  -15.2332 O   0  0  0  0  0  0  0  0  0  0  0  0
   18.3903  -17.2020  -12.9666 N   0  0  0  0  0  0  0  0  0  0  0  0
   20.5527  -22.1920  -12.9683 C   0  0  2  0  0  0  0  0  0  0  0  0
   19.8091  -23.4639  -13.1419 C   0  0  0  0  0  0  0  0  0  0  0  0
   19.8474  -24.2242  -11.8313 C   0  0  0  0  0  0  0  0  0  0  0  0
   19.2550  -25.5480  -11.9998 O   0  0  0  0  0  0  0  0  0  0  0  0
   18.8322  -25.9382  -13.1019 C   0  0  0  0  0  0  0  0  0  0  0  0
   18.4253  -23.0340  -13.4511 O   0  0  0  0  0  0  0  0  0  0  0  0
   17.9456  -22.0301  -12.8666 O   0  0  0  0  0  0  0  0  0  0  0  0
   19.1552  -26.4025  -10.9104 O   0  0  0  0  0  0  0  0  0  0  0  0
  1  2  1  0
  2  3  2  0
  4  2  1  0
  5  4  1  0
  6  5  1  0
  7  6  1  0
  8  7  1  0
  8  9  1  1
 10  8  1  0
 10 12  1  0
 11 10  2  0
 13 12  1  0
 13 14  1  6
 15 14  1  0
 15 16  1  0
 16 17  2  0
 18 13  1  0
 19 18  2  0
 20 16  1  0
 21 18  1  0
 22 26  1  0
 22 21  1  0
 23 24  1  0
 22 23  1  1
 24 25  2  0
 26 29  1  0
 27 26  2  0
 28 24  1  0
M  END
$$$$
