RED.pdb
     RDKit          3D

 29 28  0  0  1  0  0  0  0  0999 V2000
   30.4102  -26.3854  -17.2576 N   0  0  0  0  0  0  0  0  0  0  0  0
   29.2358  -26.9839  -16.7427 C   0  0  0  0  0  0  0  0  0  0  0  0
   29.2979  -28.1525  -16.2439 N   0  0  0  0  0  0  0  0  0  0  0  0
   28.0154  -26.2620  -16.7956 N   0  0  0  0  0  0  0  0  0  0  0  0
   28.0065  -24.9208  -17.3445 C   0  0  0  0  0  0  0  0  0  0  0  0
   28.6445  -23.9259  -16.4351 C   0  0  0  0  0  0  0  0  0  0  0  0
   27.7255  -22.9336  -15.8356 C   0  0  0  0  0  0  0  0  0  0  0  0
   26.2888  -23.0056  -16.2148 C   0  0  2  0  0  0  0  0  0  0  0  0
   26.0193  -23.0558  -17.6243 N   0  0  0  0  0  0  0  0  0  0  0  0
   25.6469  -21.7531  -15.6769 C   0  0  0  0  0  0  0  0  0  0  0  0
   25.7722  -21.4872  -14.4475 O   0  0  0  0  0  0  0  0  0  0  0  0
   28.4964  -28.7216  -15.9351 N   0  0  0  0  0  0  0  0  0  0  0  0
   24.9237  -20.9045  -16.5429 C   0  0  2  0  0  0  0  0  0  0  0  0
   24.1958  -19.7911  -15.9962 C   0  0  0  0  0  0  0  0  0  0  0  0
   24.2695  -18.6649  -17.0112 C   0  0  0  0  0  0  0  0  0  0  0  0
   23.4691  -17.4651  -16.5175 C   0  0  0  0  0  0  0  0  0  0  0  0
   23.4651  -16.3841  -17.5360 O   0  0  0  0  0  0  0  0  0  0  0  0
   22.4189  -15.8653  -17.9945 C   0  0  0  0  0  0  0  0  0  0  0  0
   22.7647  -20.2323  -15.8233 O   0  0  0  0  0  0  0  0  0  0  0  0
   22.1242  -20.7569  -16.7702 O   0  0  0  0  0  0  0  0  0  0  0  0
   24.6813  -15.9079  -18.0204 N   0  0  0  0  0  0  0  0  0  0  0  0
   22.0947  -20.0697  -14.5860 C   0  0  1  0  0  0  0  0  0  0  0  0
   20.6764  -20.4951  -14.4962 C   0  0  0  0  0  0  0  0  0  0  0  0
   20.5995  -21.7237  -13.6119 C   0  0  0  0  0  0  0  0  0  0  0  0
   20.5101  -22.9288  -14.4313 O   0  0  0  0  0  0  0  0  0  0  0  0
   20.4726  -22.8726  -15.6727 C   0  0  0  0  0  0  0  0  0  0  0  0
   19.9956  -19.3485  -13.8503 O   0  0  0  0  0  0  0  0  0  0  0  0
   20.6824  -18.4000  -13.3940 O   0  0  0  0  0  0  0  0  0  0  0  0
   20.4650  -24.1752  -13.8218 O   0  0  0  0  0  0  0  0  0  0  0  0
  1  2  1  0
  2  3  2  0
  4  2  1  0
  5  4  1  0
  6  5  1  0
  7  6  1  0
  8  7  1  0
  8  9  1  6
 10  8  1  0
 10 12  1  0
 11 10  2  0
 13 12  1  0
 13 14  1  6
 15 14  1  0
 15 16  1  0
 16 17  2  0
 18 13  1  0
 19 18  2  0
 20 16  1  0
 21 18  1  0
 22 26  1  0
 22 21  1  0
 23 24  1  0
 22 23  1  6
 24 25  2  0
 26 29  1  0
 27 26  2  0
 28 24  1  0
M  END
$$$$
