RED.pdb
     RDKit          3D

 29 28  0  0  1  0  0  0  0  0999 V2000
   27.8260  -15.9601  -18.8605 N   0  0  0  0  0  0  0  0  0  0  0  0
   28.8205  -16.9489  -18.6718 C   0  0  0  0  0  0  0  0  0  0  0  0
   30.0346  -16.6705  -18.9302 N   0  0  0  0  0  0  0  0  0  0  0  0
   28.4363  -18.2295  -18.1966 N   0  0  0  0  0  0  0  0  0  0  0  0
   27.0449  -18.4817  -17.8797 C   0  0  0  0  0  0  0  0  0  0  0  0
   26.8137  -19.8674  -17.3795 C   0  0  0  0  0  0  0  0  0  0  0  0
   27.6548  -20.2768  -16.2333 C   0  0  0  0  0  0  0  0  0  0  0  0
   27.6257  -21.7090  -15.8322 C   0  0  2  0  0  0  0  0  0  0  0  0
   27.7693  -22.6574  -16.9009 N   0  0  0  0  0  0  0  0  0  0  0  0
   26.2787  -21.9428  -15.1991 C   0  0  0  0  0  0  0  0  0  0  0  0
   25.5757  -22.9102  -15.6085 O   0  0  0  0  0  0  0  0  0  0  0  0
   30.8351  -17.3126  -18.8380 N   0  0  0  0  0  0  0  0  0  0  0  0
   25.8263  -21.0888  -14.1699 C   0  0  2  0  0  0  0  0  0  0  0  0
   24.7039  -21.4866  -13.3636 C   0  0  0  0  0  0  0  0  0  0  0  0
   24.9201  -20.9084  -11.9769 C   0  0  0  0  0  0  0  0  0  0  0  0
   23.7822  -21.3287  -11.0537 C   0  0  0  0  0  0  0  0  0  0  0  0
   24.0045  -20.8098   -9.6799 O   0  0  0  0  0  0  0  0  0  0  0  0
   25.1375  -20.7066   -9.1510 C   0  0  0  0  0  0  0  0  0  0  0  0
   23.4697  -20.8827  -13.9838 O   0  0  0  0  0  0  0  0  0  0  0  0
   23.4770  -19.7133  -14.4468 O   0  0  0  0  0  0  0  0  0  0  0  0
   22.9056  -20.4113   -8.9223 N   0  0  0  0  0  0  0  0  0  0  0  0
   22.2601  -21.6152  -14.0650 C   0  0  2  0  0  0  0  0  0  0  0  0
   21.0860  -20.9613  -14.6934 C   0  0  0  0  0  0  0  0  0  0  0  0
   20.3648  -21.9870  -15.5449 C   0  0  0  0  0  0  0  0  0  0  0  0
   19.2114  -21.3763  -16.1996 O   0  0  0  0  0  0  0  0  0  0  0  0
   18.0859  -21.9031  -16.1631 C   0  0  0  0  0  0  0  0  0  0  0  0
   20.2417  -20.5549  -13.5457 O   0  0  0  0  0  0  0  0  0  0  0  0
   20.3896  -21.1279  -12.4370 O   0  0  0  0  0  0  0  0  0  0  0  0
   19.3614  -20.1777  -16.8834 O   0  0  0  0  0  0  0  0  0  0  0  0
  1  2  1  0
  2  3  2  0
  4  2  1  0
  5  4  1  0
  6  5  1  0
  7  6  1  0
  8  7  1  0
  8  9  1  6
 10  8  1  0
 10 12  1  0
 11 10  2  0
 13 12  1  0
 13 14  1  1
 15 14  1  0
 15 16  1  0
 16 17  2  0
 18 13  1  0
 19 18  2  0
 20 16  1  0
 21 18  1  0
 22 26  1  0
 22 21  1  0
 23 24  1  0
 22 23  1  1
 24 25  2  0
 26 29  1  0
 27 26  2  0
 28 24  1  0
M  END
$$$$
