RED.pdb
     RDKit          3D

 29 28  0  0  1  0  0  0  0  0999 V2000
   32.4971  -33.8301   -6.5759 N   0  0  0  0  0  0  0  0  0  0  0  0
   32.4614  -33.6095   -5.1787 C   0  0  0  0  0  0  0  0  0  0  0  0
   33.5499  -33.4175   -4.5489 N   0  0  0  0  0  0  0  0  0  0  0  0
   31.2077  -33.6072   -4.5141 N   0  0  0  0  0  0  0  0  0  0  0  0
   30.0008  -33.8672   -5.2730 C   0  0  0  0  0  0  0  0  0  0  0  0
   28.7814  -33.9017   -4.4152 C   0  0  0  0  0  0  0  0  0  0  0  0
   27.5331  -34.2988   -5.1027 C   0  0  0  0  0  0  0  0  0  0  0  0
   26.4156  -33.3171   -5.1265 C   0  0  2  0  0  0  0  0  0  0  0  0
   26.4892  -32.3155   -6.1528 N   0  0  0  0  0  0  0  0  0  0  0  0
   26.4499  -32.6062   -3.7986 C   0  0  0  0  0  0  0  0  0  0  0  0
   27.2235  -31.6161   -3.6604 O   0  0  0  0  0  0  0  0  0  0  0  0
   33.6389  -33.2169   -3.5422 N   0  0  0  0  0  0  0  0  0  0  0  0
   25.6275  -33.0501   -2.7404 C   0  0  2  0  0  0  0  0  0  0  0  0
   25.5686  -32.2869   -1.5229 C   0  0  0  0  0  0  0  0  0  0  0  0
   24.1024  -32.0368   -1.2205 C   0  0  0  0  0  0  0  0  0  0  0  0
   23.2933  -33.3024   -1.4804 C   0  0  0  0  0  0  0  0  0  0  0  0
   21.8540  -33.0706   -1.1967 O   0  0  0  0  0  0  0  0  0  0  0  0
   20.9708  -33.9531   -1.3193 C   0  0  0  0  0  0  0  0  0  0  0  0
   26.1796  -33.1316   -0.4341 O   0  0  0  0  0  0  0  0  0  0  0  0
   26.5784  -34.3025   -0.6621 O   0  0  0  0  0  0  0  0  0  0  0  0
   21.4442  -31.8095   -0.7699 N   0  0  0  0  0  0  0  0  0  0  0  0
   26.3244  -32.6321    0.8835 C   0  0  2  0  0  0  0  0  0  0  0  0
   26.9327  -33.5183    1.9058 C   0  0  0  0  0  0  0  0  0  0  0  0
   27.0282  -32.7512    3.2095 C   0  0  0  0  0  0  0  0  0  0  0  0
   28.4087  -32.3431    3.4535 O   0  0  0  0  0  0  0  0  0  0  0  0
   29.3363  -32.6997    2.7065 C   0  0  0  0  0  0  0  0  0  0  0  0
   25.9701  -34.6375    2.0326 O   0  0  0  0  0  0  0  0  0  0  0  0
   26.4004  -35.8042    2.2149 O   0  0  0  0  0  0  0  0  0  0  0  0
   28.7069  -31.5369    4.5435 O   0  0  0  0  0  0  0  0  0  0  0  0
  1  2  1  0
  2  3  2  0
  4  2  1  0
  5  4  1  0
  6  5  1  0
  7  6  1  0
  8  7  1  0
  8  9  1  6
 10  8  1  0
 10 12  1  0
 11 10  2  0
 13 12  1  0
 13 14  1  6
 15 14  1  0
 15 16  1  0
 16 17  2  0
 18 13  1  0
 19 18  2  0
 20 16  1  0
 21 18  1  0
 22 26  1  0
 22 21  1  0
 23 24  1  0
 22 23  1  6
 24 25  2  0
 26 29  1  0
 27 26  2  0
 28 24  1  0
M  END
$$$$
