DSD.pdb
     RDKit          3D

 23 22  0  0  1  0  0  0  0  0999 V2000
   19.1709  -12.4386  -16.3756 N   0  0  0  0  0  0  0  0  0  0  0  0
   18.5182  -11.1725  -16.3317 C   0  0  1  0  0  0  0  0  0  0  0  0
   17.0221  -11.4399  -16.1555 C   0  0  0  0  0  0  0  0  0  0  0  0
   16.5565  -12.1496  -17.3848 C   0  0  0  0  0  0  0  0  0  0  0  0
   16.3927  -11.5594  -18.4746 O   0  0  0  0  0  0  0  0  0  0  0  0
   19.0344  -10.2498  -15.3015 C   0  0  0  0  0  0  0  0  0  0  0  0
   18.9147  -10.6139  -14.1032 O   0  0  0  0  0  0  0  0  0  0  0  0
   16.2814  -13.5163  -17.3706 O   0  0  0  0  0  0  0  0  0  0  0  0
   22.3102   -9.0782  -14.7592 O   0  0  0  0  0  0  0  0  0  0  0  0
   21.2812   -8.9697  -13.8293 C   0  0  0  0  0  0  0  0  0  0  0  0
   20.1044   -8.2078  -14.4563 C   0  0  2  0  0  0  0  0  0  0  0  0
   19.6457   -9.0019  -15.5648 N   0  0  0  0  0  0  0  0  0  0  0  0
   20.6620   -6.8987  -14.8912 C   0  0  0  0  0  0  0  0  0  0  0  0
   21.2883   -6.8444  -15.9806 O   0  0  0  0  0  0  0  0  0  0  0  0
   20.5346   -5.6998  -14.1558 N   0  0  0  0  0  0  0  0  0  0  0  0
   21.0382   -4.4458  -14.6196 C   0  0  1  0  0  0  0  0  0  0  0  0
   20.1624   -3.2732  -14.3188 C   0  0  0  0  0  0  0  0  0  0  0  0
   18.8052   -3.3909  -14.8593 C   0  0  0  0  0  0  0  0  0  0  0  0
   18.5935   -3.4071  -16.0951 O   0  0  0  0  0  0  0  0  0  0  0  0
   22.3976   -4.1437  -14.1030 C   0  0  0  0  0  0  0  0  0  0  0  0
   22.8674   -4.8936  -13.2152 O   0  0  0  0  0  0  0  0  0  0  0  0
   17.7324   -3.4866  -13.9952 O   0  0  0  0  0  0  0  0  0  0  0  0
   23.1473   -3.0766  -14.5658 O   0  0  0  0  0  0  0  0  0  0  0  0
  2  3  1  0
  2  1  1  1
  4  3  1  0
  4  8  1  0
  5  4  2  0
  6  2  1  0
  7  6  2  0
  9 10  1  0
 11 10  1  6
 11 12  1  0
 12  6  1  0
 13 11  1  0
 13 15  1  0
 14 13  2  0
 16 15  1  0
 16 17  1  1
 16 20  1  0
 18 22  1  0
 18 17  1  0
 19 18  2  0
 20 21  2  0
 20 23  1  0
M  END
$$$$
