DSD.pdb
     RDKit          3D

 23 22  0  0  1  0  0  0  0  0999 V2000
   19.3325  -10.8222  -17.7697 N   0  0  0  0  0  0  0  0  0  0  0  0
   18.3582  -10.3569  -16.8395 C   0  0  1  0  0  0  0  0  0  0  0  0
   17.6284  -11.5863  -16.2947 C   0  0  0  0  0  0  0  0  0  0  0  0
   16.7870  -12.1240  -17.4060 C   0  0  0  0  0  0  0  0  0  0  0  0
   17.2766  -12.4918  -18.4959 O   0  0  0  0  0  0  0  0  0  0  0  0
   18.8975   -9.5148  -15.7536 C   0  0  0  0  0  0  0  0  0  0  0  0
   18.0650   -9.0348  -14.9417 O   0  0  0  0  0  0  0  0  0  0  0  0
   15.4040  -12.2407  -17.2749 O   0  0  0  0  0  0  0  0  0  0  0  0
   22.8441   -9.1434  -14.9948 O   0  0  0  0  0  0  0  0  0  0  0  0
   21.9774   -8.9162  -13.9307 C   0  0  0  0  0  0  0  0  0  0  0  0
   20.6454   -8.3692  -14.4646 C   0  0  2  0  0  0  0  0  0  0  0  0
   20.2667   -9.2145  -15.5655 N   0  0  0  0  0  0  0  0  0  0  0  0
   20.9302   -6.9737  -14.8952 C   0  0  0  0  0  0  0  0  0  0  0  0
   21.4034   -6.7845  -16.0451 O   0  0  0  0  0  0  0  0  0  0  0  0
   20.7029   -5.8348  -14.0918 N   0  0  0  0  0  0  0  0  0  0  0  0
   21.0591   -4.5124  -14.4988 C   0  0  1  0  0  0  0  0  0  0  0  0
   19.9740   -3.4978  -14.3384 C   0  0  0  0  0  0  0  0  0  0  0  0
   18.7801   -3.7724  -15.1429 C   0  0  0  0  0  0  0  0  0  0  0  0
   17.6379   -3.8048  -14.6265 O   0  0  0  0  0  0  0  0  0  0  0  0
   22.2677   -4.0008  -13.8033 C   0  0  0  0  0  0  0  0  0  0  0  0
   22.6983   -4.6506  -12.8216 O   0  0  0  0  0  0  0  0  0  0  0  0
   18.9083   -4.0010  -16.4986 O   0  0  0  0  0  0  0  0  0  0  0  0
   22.9207   -2.8476  -14.2012 O   0  0  0  0  0  0  0  0  0  0  0  0
  2  3  1  0
  2  1  1  6
  4  3  1  0
  4  8  1  0
  5  4  2  0
  6  2  1  0
  7  6  2  0
  9 10  1  0
 11 10  1  6
 11 12  1  0
 12  6  1  0
 13 11  1  0
 13 15  1  0
 14 13  2  0
 16 15  1  0
 16 17  1  1
 16 20  1  0
 18 22  1  0
 18 17  1  0
 19 18  2  0
 20 21  2  0
 20 23  1  0
M  END
$$$$
