DSD.pdb
     RDKit          3D

 23 22  0  0  1  0  0  0  0  0999 V2000
   17.2530   -7.2735  -14.0168 N   0  0  0  0  0  0  0  0  0  0  0  0
   17.6416   -8.5488  -13.5132 C   0  0  1  0  0  0  0  0  0  0  0  0
   19.1683   -8.6188  -13.5866 C   0  0  0  0  0  0  0  0  0  0  0  0
   19.5401   -8.5597  -15.0324 C   0  0  0  0  0  0  0  0  0  0  0  0
   19.4309   -9.5476  -15.7906 O   0  0  0  0  0  0  0  0  0  0  0  0
   17.1445   -8.8520  -12.1567 C   0  0  0  0  0  0  0  0  0  0  0  0
   17.4524   -9.9738  -11.6777 O   0  0  0  0  0  0  0  0  0  0  0  0
   20.0306   -7.3873  -15.6058 O   0  0  0  0  0  0  0  0  0  0  0  0
   17.2855   -7.0136   -8.8159 O   0  0  0  0  0  0  0  0  0  0  0  0
   15.9529   -7.2565   -9.1330 C   0  0  0  0  0  0  0  0  0  0  0  0
   15.8667   -8.4468  -10.0995 C   0  0  2  0  0  0  0  0  0  0  0  0
   16.3567   -7.9804  -11.3692 N   0  0  0  0  0  0  0  0  0  0  0  0
   14.4264   -8.8168  -10.1507 C   0  0  0  0  0  0  0  0  0  0  0  0
   13.6544   -8.1287  -10.8665 O   0  0  0  0  0  0  0  0  0  0  0  0
   13.8612   -9.8997   -9.4422 N   0  0  0  0  0  0  0  0  0  0  0  0
   12.5086  -10.3244   -9.6204 C   0  0  1  0  0  0  0  0  0  0  0  0
   12.2793  -11.7837   -9.3962 C   0  0  0  0  0  0  0  0  0  0  0  0
   12.9381  -12.6470  -10.3805 C   0  0  0  0  0  0  0  0  0  0  0  0
   13.4409  -12.1770  -11.4286 O   0  0  0  0  0  0  0  0  0  0  0  0
   11.5518   -9.5761   -8.7657 C   0  0  0  0  0  0  0  0  0  0  0  0
   12.0213   -8.7860   -7.9131 O   0  0  0  0  0  0  0  0  0  0  0  0
   13.0103  -14.0074  -10.1553 O   0  0  0  0  0  0  0  0  0  0  0  0
   10.1809   -9.7235   -8.8815 O   0  0  0  0  0  0  0  0  0  0  0  0
  2  3  1  0
  2  1  1  1
  4  3  1  0
  4  8  1  0
  5  4  2  0
  6  2  1  0
  7  6  2  0
  9 10  1  0
 11 10  1  1
 11 12  1  0
 12  6  1  0
 13 11  1  0
 13 15  1  0
 14 13  2  0
 16 15  1  0
 16 17  1  1
 16 20  1  0
 18 22  1  0
 18 17  1  0
 19 18  2  0
 20 21  2  0
 20 23  1  0
M  END
$$$$
