DSD.pdb
     RDKit          3D

 23 22  0  0  1  0  0  0  0  0999 V2000
   17.8347  -13.1335  -16.8013 N   0  0  0  0  0  0  0  0  0  0  0  0
   17.8819  -11.7102  -16.8560 C   0  0  1  0  0  0  0  0  0  0  0  0
   16.5527  -11.1913  -16.3039 C   0  0  0  0  0  0  0  0  0  0  0  0
   15.5186  -11.4311  -17.3552 C   0  0  0  0  0  0  0  0  0  0  0  0
   15.6740  -11.0644  -18.5402 O   0  0  0  0  0  0  0  0  0  0  0  0
   19.0360  -11.1060  -16.1618 C   0  0  0  0  0  0  0  0  0  0  0  0
   19.3430  -11.5926  -15.0430 O   0  0  0  0  0  0  0  0  0  0  0  0
   14.3219  -12.0815  -17.0577 O   0  0  0  0  0  0  0  0  0  0  0  0
   23.1477   -8.8447  -15.9616 O   0  0  0  0  0  0  0  0  0  0  0  0
   22.0881   -9.3291  -16.7218 C   0  0  0  0  0  0  0  0  0  0  0  0
   20.8473   -9.4818  -15.8297 C   0  0  2  0  0  0  0  0  0  0  0  0
   19.8100  -10.0325  -16.6607 N   0  0  0  0  0  0  0  0  0  0  0  0
   20.5236   -8.1087  -15.3568 C   0  0  0  0  0  0  0  0  0  0  0  0
   19.9181   -7.3312  -16.1384 O   0  0  0  0  0  0  0  0  0  0  0  0
   20.8537   -7.6136  -14.0762 N   0  0  0  0  0  0  0  0  0  0  0  0
   20.5598   -6.2791  -13.6588 C   0  0  1  0  0  0  0  0  0  0  0  0
   19.9520   -6.1717  -12.2981 C   0  0  0  0  0  0  0  0  0  0  0  0
   18.6006   -6.7314  -12.2049 C   0  0  0  0  0  0  0  0  0  0  0  0
   17.9308   -6.9952  -13.2316 O   0  0  0  0  0  0  0  0  0  0  0  0
   21.7470   -5.3875  -13.6993 C   0  0  0  0  0  0  0  0  0  0  0  0
   22.8648   -5.9094  -13.9219 O   0  0  0  0  0  0  0  0  0  0  0  0
   18.0473   -6.9761  -10.9637 O   0  0  0  0  0  0  0  0  0  0  0  0
   21.6560   -4.0210  -13.5017 O   0  0  0  0  0  0  0  0  0  0  0  0
  2  3  1  0
  2  1  1  1
  4  3  1  0
  4  8  1  0
  5  4  2  0
  6  2  1  0
  7  6  2  0
  9 10  1  0
 11 10  1  6
 11 12  1  0
 12  6  1  0
 13 11  1  0
 13 15  1  0
 14 13  2  0
 16 15  1  0
 16 17  1  1
 16 20  1  0
 18 22  1  0
 18 17  1  0
 19 18  2  0
 20 21  2  0
 20 23  1  0
M  END
$$$$
