DSD.pdb
     RDKit          3D

 23 22  0  0  1  0  0  0  0  0999 V2000
   19.4040  -10.7564  -16.3468 N   0  0  0  0  0  0  0  0  0  0  0  0
   18.3026   -9.9768  -15.8883 C   0  0  1  0  0  0  0  0  0  0  0  0
   17.4048  -10.9019  -15.0642 C   0  0  0  0  0  0  0  0  0  0  0  0
   17.0750  -12.0754  -15.9280 C   0  0  0  0  0  0  0  0  0  0  0  0
   16.7134  -11.9476  -17.1179 O   0  0  0  0  0  0  0  0  0  0  0  0
   18.6785   -8.7648  -15.1343 C   0  0  0  0  0  0  0  0  0  0  0  0
   17.7368   -8.0530  -14.6991 O   0  0  0  0  0  0  0  0  0  0  0  0
   17.1571  -13.3787  -15.4399 O   0  0  0  0  0  0  0  0  0  0  0  0
   21.0339   -8.1984  -12.0728 O   0  0  0  0  0  0  0  0  0  0  0  0
   21.4379   -7.4647  -13.1836 C   0  0  0  0  0  0  0  0  0  0  0  0
   20.2209   -7.1752  -14.0745 C   0  0  2  0  0  0  0  0  0  0  0  0
   20.0060   -8.3540  -14.8708 N   0  0  0  0  0  0  0  0  0  0  0  0
   20.6010   -5.9970  -14.8999 C   0  0  0  0  0  0  0  0  0  0  0  0
   21.2658   -6.1885  -15.9503 O   0  0  0  0  0  0  0  0  0  0  0  0
   20.2626   -4.6637  -14.5804 N   0  0  0  0  0  0  0  0  0  0  0  0
   20.5327   -3.5630  -15.4505 C   0  0  1  0  0  0  0  0  0  0  0  0
   19.7206   -2.3390  -15.1769 C   0  0  0  0  0  0  0  0  0  0  0  0
   18.2752   -2.5793  -15.1463 C   0  0  0  0  0  0  0  0  0  0  0  0
   17.7185   -3.3211  -15.9901 O   0  0  0  0  0  0  0  0  0  0  0  0
   21.9646   -3.1686  -15.4540 C   0  0  0  0  0  0  0  0  0  0  0  0
   22.6956   -3.6068  -14.5349 O   0  0  0  0  0  0  0  0  0  0  0  0
   17.5041   -1.9795  -14.1704 O   0  0  0  0  0  0  0  0  0  0  0  0
   22.5053   -2.3455  -16.4260 O   0  0  0  0  0  0  0  0  0  0  0  0
  2  3  1  0
  2  1  1  1
  4  3  1  0
  4  8  1  0
  5  4  2  0
  6  2  1  0
  7  6  2  0
  9 10  1  0
 11 10  1  1
 11 12  1  0
 12  6  1  0
 13 11  1  0
 13 15  1  0
 14 13  2  0
 16 15  1  0
 16 17  1  1
 16 20  1  0
 18 22  1  0
 18 17  1  0
 19 18  2  0
 20 21  2  0
 20 23  1  0
M  END
$$$$
