DSD.pdb
     RDKit          3D

 23 22  0  0  1  0  0  0  0  0999 V2000
   19.1218  -12.0796  -17.4781 N   0  0  0  0  0  0  0  0  0  0  0  0
   18.7162  -11.4466  -16.2673 C   0  0  1  0  0  0  0  0  0  0  0  0
   18.2722  -12.5507  -15.3056 C   0  0  0  0  0  0  0  0  0  0  0  0
   17.0838  -13.2152  -15.9207 C   0  0  0  0  0  0  0  0  0  0  0  0
   16.6177  -12.8599  -17.0249 O   0  0  0  0  0  0  0  0  0  0  0  0
   19.7365  -10.5696  -15.6600 C   0  0  0  0  0  0  0  0  0  0  0  0
   19.4713  -10.0915  -14.5269 O   0  0  0  0  0  0  0  0  0  0  0  0
   16.4356  -14.2722  -15.2834 O   0  0  0  0  0  0  0  0  0  0  0  0
   24.0764   -8.4753  -15.6875 O   0  0  0  0  0  0  0  0  0  0  0  0
   23.1784   -9.3253  -16.3250 C   0  0  0  0  0  0  0  0  0  0  0  0
   21.8316   -9.2912  -15.5878 C   0  0  2  0  0  0  0  0  0  0  0  0
   20.9746  -10.2342  -16.2557 N   0  0  0  0  0  0  0  0  0  0  0  0
   21.3411   -7.8923  -15.7158 C   0  0  0  0  0  0  0  0  0  0  0  0
   20.7957   -7.5431  -16.7940 O   0  0  0  0  0  0  0  0  0  0  0  0
   21.4477   -6.9194  -14.6978 N   0  0  0  0  0  0  0  0  0  0  0  0
   20.9732   -5.5802  -14.8493 C   0  0  1  0  0  0  0  0  0  0  0  0
   19.5278   -5.3907  -14.5213 C   0  0  0  0  0  0  0  0  0  0  0  0
   19.0470   -4.0212  -14.7240 C   0  0  0  0  0  0  0  0  0  0  0  0
   18.8694   -3.5550  -15.8744 O   0  0  0  0  0  0  0  0  0  0  0  0
   21.7536   -4.5984  -14.0537 C   0  0  0  0  0  0  0  0  0  0  0  0
   22.4702   -5.0356  -13.1227 O   0  0  0  0  0  0  0  0  0  0  0  0
   18.7818   -3.2219  -13.6297 O   0  0  0  0  0  0  0  0  0  0  0  0
   21.7130   -3.2386  -14.3064 O   0  0  0  0  0  0  0  0  0  0  0  0
  2  3  1  0
  2  1  1  6
  4  3  1  0
  4  8  1  0
  5  4  2  0
  6  2  1  0
  7  6  2  0
  9 10  1  0
 11 10  1  6
 11 12  1  0
 12  6  1  0
 13 11  1  0
 13 15  1  0
 14 13  2  0
 16 15  1  0
 16 17  1  1
 16 20  1  0
 18 22  1  0
 18 17  1  0
 19 18  2  0
 20 21  2  0
 20 23  1  0
M  END
$$$$
