DSD.pdb
     RDKit          3D

 23 22  0  0  1  0  0  0  0  0999 V2000
   18.2336  -12.7505  -15.6098 N   0  0  0  0  0  0  0  0  0  0  0  0
   18.6526  -11.6411  -16.4002 C   0  0  1  0  0  0  0  0  0  0  0  0
   17.3898  -10.9083  -16.8578 C   0  0  0  0  0  0  0  0  0  0  0  0
   16.6162  -11.8602  -17.7108 C   0  0  0  0  0  0  0  0  0  0  0  0
   17.0239  -12.2347  -18.8316 O   0  0  0  0  0  0  0  0  0  0  0  0
   19.6006  -10.7305  -15.7285 C   0  0  0  0  0  0  0  0  0  0  0  0
   19.2731  -10.3114  -14.5884 O   0  0  0  0  0  0  0  0  0  0  0  0
   15.3925  -12.3785  -17.2895 O   0  0  0  0  0  0  0  0  0  0  0  0
   23.1241   -9.4640  -17.3854 O   0  0  0  0  0  0  0  0  0  0  0  0
   23.1030   -9.6161  -16.0027 C   0  0  0  0  0  0  0  0  0  0  0  0
   21.6678   -9.4271  -15.4900 C   0  0  2  0  0  0  0  0  0  0  0  0
   20.8348  -10.3025  -16.2707 N   0  0  0  0  0  0  0  0  0  0  0  0
   21.3482   -7.9917  -15.7165 C   0  0  0  0  0  0  0  0  0  0  0  0
   20.7637   -7.6672  -16.7819 O   0  0  0  0  0  0  0  0  0  0  0  0
   21.6600   -6.9576  -14.8068 N   0  0  0  0  0  0  0  0  0  0  0  0
   21.4706   -5.5738  -15.1078 C   0  0  1  0  0  0  0  0  0  0  0  0
   21.1486   -4.7178  -13.9262 C   0  0  0  0  0  0  0  0  0  0  0  0
   20.9693   -3.2998  -14.2507 C   0  0  0  0  0  0  0  0  0  0  0  0
   19.9262   -2.8844  -14.8089 O   0  0  0  0  0  0  0  0  0  0  0  0
   22.6357   -4.9702  -15.8037 C   0  0  0  0  0  0  0  0  0  0  0  0
   22.4161   -4.0430  -16.6182 O   0  0  0  0  0  0  0  0  0  0  0  0
   21.9660   -2.3968  -13.9378 O   0  0  0  0  0  0  0  0  0  0  0  0
   23.9339   -5.3947  -15.5825 O   0  0  0  0  0  0  0  0  0  0  0  0
  2  3  1  0
  2  1  1  1
  4  3  1  0
  4  8  1  0
  5  4  2  0
  6  2  1  0
  7  6  2  0
  9 10  1  0
 11 10  1  6
 11 12  1  0
 12  6  1  0
 13 11  1  0
 13 15  1  0
 14 13  2  0
 16 15  1  0
 16 17  1  1
 16 20  1  0
 18 22  1  0
 18 17  1  0
 19 18  2  0
 20 21  2  0
 20 23  1  0
M  END
$$$$
