DSD.pdb
     RDKit          3D

 23 22  0  0  1  0  0  0  0  0999 V2000
   19.8147  -30.2706   -2.3370 N   0  0  0  0  0  0  0  0  0  0  0  0
   18.4195  -30.0294   -2.1747 C   0  0  1  0  0  0  0  0  0  0  0  0
   17.9393  -30.9082   -1.0180 C   0  0  0  0  0  0  0  0  0  0  0  0
   17.8309  -32.3026   -1.5433 C   0  0  0  0  0  0  0  0  0  0  0  0
   18.0995  -32.5916   -2.7295 O   0  0  0  0  0  0  0  0  0  0  0  0
   18.0599  -28.6122   -1.9712 C   0  0  0  0  0  0  0  0  0  0  0  0
   18.8901  -27.9003   -1.3494 O   0  0  0  0  0  0  0  0  0  0  0  0
   17.4212  -33.3541   -0.7248 O   0  0  0  0  0  0  0  0  0  0  0  0
   16.9079  -25.8262   -4.4683 O   0  0  0  0  0  0  0  0  0  0  0  0
   15.9701  -26.0598   -3.4678 C   0  0  0  0  0  0  0  0  0  0  0  0
   16.6810  -26.5954   -2.2163 C   0  0  2  0  0  0  0  0  0  0  0  0
   16.8629  -28.0078   -2.4209 N   0  0  0  0  0  0  0  0  0  0  0  0
   15.7660  -26.3019   -1.0803 C   0  0  0  0  0  0  0  0  0  0  0  0
   14.7250  -26.9961   -0.9525 O   0  0  0  0  0  0  0  0  0  0  0  0
   15.9893  -25.2858   -0.1254 N   0  0  0  0  0  0  0  0  0  0  0  0
   15.1550  -25.0971    1.0190 C   0  0  1  0  0  0  0  0  0  0  0  0
   15.8807  -24.6802    2.2569 C   0  0  0  0  0  0  0  0  0  0  0  0
   15.1281  -24.9110    3.4931 C   0  0  0  0  0  0  0  0  0  0  0  0
   13.9810  -25.4172    3.4746 O   0  0  0  0  0  0  0  0  0  0  0  0
   14.0617  -24.1205    0.7810 C   0  0  0  0  0  0  0  0  0  0  0  0
   13.0306  -24.2109    1.4882 O   0  0  0  0  0  0  0  0  0  0  0  0
   15.6879  -24.5663    4.7074 O   0  0  0  0  0  0  0  0  0  0  0  0
   14.1471  -23.1308   -0.1823 O   0  0  0  0  0  0  0  0  0  0  0  0
  2  3  1  0
  2  1  1  1
  4  3  1  0
  4  8  1  0
  5  4  2  0
  6  2  1  0
  7  6  2  0
  9 10  1  0
 11 10  1  6
 11 12  1  0
 12  6  1  0
 13 11  1  0
 13 15  1  0
 14 13  2  0
 16 15  1  0
 16 17  1  1
 16 20  1  0
 18 22  1  0
 18 17  1  0
 19 18  2  0
 20 21  2  0
 20 23  1  0
M  END
$$$$
