MAE.pdb
     RDKit          3D

 23 22  0  0  1  0  0  0  0  0999 V2000
    9.6320  -13.2933   28.2340 C   0  0  0  0  0  0  0  0  0  0  0  0
    8.3243  -12.1393   27.7304 S   0  0  0  0  0  0  0  0  0  0  0  0
    7.0132  -12.9993   26.8214 C   0  0  0  0  0  0  0  0  0  0  0  0
    7.6397  -13.9707   25.8387 C   0  0  0  0  0  0  0  0  0  0  0  0
    6.5973  -14.8651   25.2073 C   0  0  2  0  0  0  0  0  0  0  0  0
    6.0845  -15.7479   26.2102 N   0  0  0  0  0  0  0  0  0  0  0  0
    7.2668  -15.5887   24.0940 C   0  0  0  0  0  0  0  0  0  0  0  0
    7.3950  -16.8390   24.1367 O   0  0  0  0  0  0  0  0  0  0  0  0
    8.4737  -14.7681   20.5790 C   0  0  0  0  0  0  0  0  0  0  0  0
    8.3224  -15.6218   21.8009 C   0  0  2  0  0  0  0  0  0  0  0  0
    7.7908  -14.9353   22.9421 N   0  0  0  0  0  0  0  0  0  0  0  0
    9.5488  -16.3983   22.1283 C   0  0  0  0  0  0  0  0  0  0  0  0
    9.9808  -17.2381   21.2984 O   0  0  0  0  0  0  0  0  0  0  0  0
   10.2631  -16.2390   23.3391 N   0  0  0  0  0  0  0  0  0  0  0  0
   11.3547  -17.1303   23.7270 C   0  0  1  0  0  0  0  0  0  0  0  0
   12.6267  -16.3481   23.6054 C   0  0  0  0  0  0  0  0  0  0  0  0
   13.0588  -16.0607   22.1966 C   0  0  0  0  0  0  0  0  0  0  0  0
   14.3542  -15.3807   22.1808 C   0  0  0  0  0  0  0  0  0  0  0  0
   14.9898  -15.0275   23.1808 O   0  0  0  0  0  0  0  0  0  0  0  0
   11.1470  -17.5985   25.1414 C   0  0  0  0  0  0  0  0  0  0  0  0
   10.0914  -17.1238   25.9010 O   0  0  0  0  0  0  0  0  0  0  0  0
   14.9172  -15.1095   20.9235 O   0  0  0  0  0  0  0  0  0  0  0  0
   11.9205  -18.4313   25.6779 O   0  0  0  0  0  0  0  0  0  0  0  0
  1  2  1  0
  3  2  1  0
  4  3  1  0
  5  4  1  0
  5  7  1  0
  5  6  1  1
  7  8  2  0
 10  9  1  6
 11  7  1  0
 11 10  1  0
 12 10  1  0
 12 14  1  0
 13 12  2  0
 15 20  1  0
 15 14  1  0
 15 16  1  1
 17 16  1  0
 17 18  1  0
 18 22  1  0
 19 18  2  0
 20 21  1  0
 23 20  2  0
M  END
$$$$
