MAE.pdb
     RDKit          3D

 23 22  0  0  1  0  0  0  0  0999 V2000
    7.8243  -11.1850   25.8562 C   0  0  0  0  0  0  0  0  0  0  0  0
    6.4278  -12.0078   26.6735 S   0  0  0  0  0  0  0  0  0  0  0  0
    5.8929  -13.4642   25.7367 C   0  0  0  0  0  0  0  0  0  0  0  0
    7.1096  -14.2793   25.3406 C   0  0  0  0  0  0  0  0  0  0  0  0
    6.7240  -15.4664   24.4879 C   0  0  2  0  0  0  0  0  0  0  0  0
    5.9470  -16.3673   25.2833 N   0  0  0  0  0  0  0  0  0  0  0  0
    7.9894  -16.0768   24.0005 C   0  0  0  0  0  0  0  0  0  0  0  0
    8.6582  -16.8337   24.7497 O   0  0  0  0  0  0  0  0  0  0  0  0
   10.1529  -15.9471   20.8572 C   0  0  0  0  0  0  0  0  0  0  0  0
    9.7082  -16.4622   22.1920 C   0  0  2  0  0  0  0  0  0  0  0  0
    8.5118  -15.8523   22.6948 N   0  0  0  0  0  0  0  0  0  0  0  0
   10.7993  -16.4859   23.2036 C   0  0  0  0  0  0  0  0  0  0  0  0
   11.2154  -15.3994   23.6801 O   0  0  0  0  0  0  0  0  0  0  0  0
   11.4002  -17.6814   23.6631 N   0  0  0  0  0  0  0  0  0  0  0  0
   12.4279  -17.6918   24.7024 C   0  0  1  0  0  0  0  0  0  0  0  0
   11.8400  -18.3795   25.8966 C   0  0  0  0  0  0  0  0  0  0  0  0
   12.7982  -18.6057   27.0301 C   0  0  0  0  0  0  0  0  0  0  0  0
   12.1437  -19.3199   28.1266 C   0  0  0  0  0  0  0  0  0  0  0  0
   11.7827  -20.5021   28.0966 O   0  0  0  0  0  0  0  0  0  0  0  0
   13.6425  -18.4268   24.2052 C   0  0  0  0  0  0  0  0  0  0  0  0
   13.5379  -19.3862   23.2126 O   0  0  0  0  0  0  0  0  0  0  0  0
   11.9089  -18.5983   29.3079 O   0  0  0  0  0  0  0  0  0  0  0  0
   14.7866  -18.1959   24.6717 O   0  0  0  0  0  0  0  0  0  0  0  0
  1  2  1  0
  3  2  1  0
  4  3  1  0
  5  4  1  0
  5  7  1  0
  5  6  1  1
  7  8  2  0
 10  9  1  6
 11  7  1  0
 11 10  1  0
 12 10  1  0
 12 14  1  0
 13 12  2  0
 15 20  1  0
 15 14  1  0
 15 16  1  1
 17 16  1  0
 17 18  1  0
 18 22  1  0
 19 18  2  0
 20 21  1  0
 23 20  2  0
M  END
$$$$
