MAE.pdb
     RDKit          3D

 23 22  0  0  1  0  0  0  0  0999 V2000
    6.9636  -11.0092   27.5470 C   0  0  0  0  0  0  0  0  0  0  0  0
    5.6774  -11.5334   26.3781 S   0  0  0  0  0  0  0  0  0  0  0  0
    6.3556  -12.6532   25.1247 C   0  0  0  0  0  0  0  0  0  0  0  0
    7.4721  -13.4759   25.7400 C   0  0  0  0  0  0  0  0  0  0  0  0
    8.1194  -14.3798   24.7158 C   0  0  2  0  0  0  0  0  0  0  0  0
    7.3370  -14.3471   23.5179 N   0  0  0  0  0  0  0  0  0  0  0  0
    8.1873  -15.7370   25.3197 C   0  0  0  0  0  0  0  0  0  0  0  0
    8.7038  -15.9010   26.4545 O   0  0  0  0  0  0  0  0  0  0  0  0
    6.9342  -19.2484   24.5516 C   0  0  0  0  0  0  0  0  0  0  0  0
    7.8279  -18.2328   25.1954 C   0  0  2  0  0  0  0  0  0  0  0  0
    7.6880  -16.9042   24.6743 N   0  0  0  0  0  0  0  0  0  0  0  0
    9.2498  -18.6656   25.2670 C   0  0  0  0  0  0  0  0  0  0  0  0
    9.5260  -19.7740   25.7921 O   0  0  0  0  0  0  0  0  0  0  0  0
   10.3202  -17.8860   24.7690 N   0  0  0  0  0  0  0  0  0  0  0  0
   11.7062  -18.3491   24.7992 C   0  0  1  0  0  0  0  0  0  0  0  0
   12.4994  -17.4226   23.9290 C   0  0  0  0  0  0  0  0  0  0  0  0
   13.9839  -17.6449   23.9585 C   0  0  0  0  0  0  0  0  0  0  0  0
   14.6628  -16.7305   23.0400 C   0  0  0  0  0  0  0  0  0  0  0  0
   14.3276  -16.5108   21.8703 O   0  0  0  0  0  0  0  0  0  0  0  0
   12.2171  -18.3240   26.2137 C   0  0  0  0  0  0  0  0  0  0  0  0
   13.2012  -19.2037   26.6314 O   0  0  0  0  0  0  0  0  0  0  0  0
   15.7871  -16.0491   23.5329 O   0  0  0  0  0  0  0  0  0  0  0  0
   11.7701  -17.5084   27.0591 O   0  0  0  0  0  0  0  0  0  0  0  0
  1  2  1  0
  3  2  1  0
  4  3  1  0
  5  4  1  0
  5  7  1  0
  5  6  1  6
  7  8  2  0
 10  9  1  6
 11  7  1  0
 11 10  1  0
 12 10  1  0
 12 14  1  0
 13 12  2  0
 15 20  1  0
 15 14  1  0
 15 16  1  6
 17 16  1  0
 17 18  1  0
 18 22  1  0
 19 18  2  0
 20 21  1  0
 23 20  2  0
M  END
$$$$
