MAE.pdb
     RDKit          3D

 23 22  0  0  1  0  0  0  0  0999 V2000
    6.4931  -11.3634   18.6505 C   0  0  0  0  0  0  0  0  0  0  0  0
    7.5188  -12.4868   19.6411 S   0  0  0  0  0  0  0  0  0  0  0  0
    7.6968  -14.0949   18.8241 C   0  0  0  0  0  0  0  0  0  0  0  0
    8.6594  -14.9566   19.6195 C   0  0  0  0  0  0  0  0  0  0  0  0
    8.7387  -16.3575   19.0569 C   0  0  2  0  0  0  0  0  0  0  0  0
    7.4670  -16.9913   19.2276 N   0  0  0  0  0  0  0  0  0  0  0  0
    9.8299  -17.0548   19.7879 C   0  0  0  0  0  0  0  0  0  0  0  0
    9.6098  -17.5727   20.9126 O   0  0  0  0  0  0  0  0  0  0  0  0
   13.3594  -18.2559   19.0413 C   0  0  0  0  0  0  0  0  0  0  0  0
   12.1967  -17.9226   19.9254 C   0  0  2  0  0  0  0  0  0  0  0  0
   11.1545  -17.1788   19.2797 N   0  0  0  0  0  0  0  0  0  0  0  0
   12.6022  -17.3185   21.2233 C   0  0  0  0  0  0  0  0  0  0  0  0
   12.7835  -16.0761   21.2897 O   0  0  0  0  0  0  0  0  0  0  0  0
   12.7966  -18.0778   22.4011 N   0  0  0  0  0  0  0  0  0  0  0  0
   13.1349  -17.4618   23.6828 C   0  0  1  0  0  0  0  0  0  0  0  0
   12.8850  -18.4886   24.7448 C   0  0  0  0  0  0  0  0  0  0  0  0
   13.2983  -18.0789   26.1288 C   0  0  0  0  0  0  0  0  0  0  0  0
   13.0828  -19.1712   27.0782 C   0  0  0  0  0  0  0  0  0  0  0  0
   12.8943  -20.3554   26.7766 O   0  0  0  0  0  0  0  0  0  0  0  0
   14.5786  -17.0394   23.6754 C   0  0  0  0  0  0  0  0  0  0  0  0
   15.4859  -17.6187   22.8049 O   0  0  0  0  0  0  0  0  0  0  0  0
   13.0920  -18.8415   28.4429 O   0  0  0  0  0  0  0  0  0  0  0  0
   15.0071  -16.1515   24.4549 O   0  0  0  0  0  0  0  0  0  0  0  0
  1  2  1  0
  3  2  1  0
  4  3  1  0
  5  4  1  0
  5  7  1  0
  5  6  1  1
  7  8  2  0
 10  9  1  6
 11  7  1  0
 11 10  1  0
 12 10  1  0
 12 14  1  0
 13 12  2  0
 15 20  1  0
 15 14  1  0
 15 16  1  1
 17 16  1  0
 17 18  1  0
 18 22  1  0
 19 18  2  0
 20 21  1  0
 23 20  2  0
M  END
$$$$
