MAE.pdb
     RDKit          3D

 23 22  0  0  1  0  0  0  0  0999 V2000
    7.0882  -11.0829   26.5452 C   0  0  0  0  0  0  0  0  0  0  0  0
    6.8074  -12.4574   27.6972 S   0  0  0  0  0  0  0  0  0  0  0  0
    6.0654  -13.8761   26.8477 C   0  0  0  0  0  0  0  0  0  0  0  0
    7.0623  -14.4419   25.8538 C   0  0  0  0  0  0  0  0  0  0  0  0
    6.4456  -15.5419   25.0202 C   0  0  2  0  0  0  0  0  0  0  0  0
    6.2046  -16.6734   25.8628 N   0  0  0  0  0  0  0  0  0  0  0  0
    7.4026  -15.8385   23.9213 C   0  0  0  0  0  0  0  0  0  0  0  0
    8.3518  -16.6423   24.1066 O   0  0  0  0  0  0  0  0  0  0  0  0
    7.9890  -14.6991   20.3218 C   0  0  0  0  0  0  0  0  0  0  0  0
    8.2496  -15.4872   21.5691 C   0  0  2  0  0  0  0  0  0  0  0  0
    7.3111  -15.2510   22.6271 N   0  0  0  0  0  0  0  0  0  0  0  0
    9.6604  -15.3980   22.0340 C   0  0  0  0  0  0  0  0  0  0  0  0
    9.9961  -14.4528   22.7920 O   0  0  0  0  0  0  0  0  0  0  0  0
   10.6559  -16.3325   21.6635 N   0  0  0  0  0  0  0  0  0  0  0  0
   11.9306  -16.4401   22.3706 C   0  0  1  0  0  0  0  0  0  0  0  0
   11.6465  -17.0762   23.6969 C   0  0  0  0  0  0  0  0  0  0  0  0
   12.8590  -17.3463   24.5402 C   0  0  0  0  0  0  0  0  0  0  0  0
   12.4872  -18.0359   25.7759 C   0  0  0  0  0  0  0  0  0  0  0  0
   13.2149  -18.8064   26.4127 O   0  0  0  0  0  0  0  0  0  0  0  0
   12.8852  -17.2803   21.5671 C   0  0  0  0  0  0  0  0  0  0  0  0
   12.4383  -18.3754   20.8476 O   0  0  0  0  0  0  0  0  0  0  0  0
   11.1963  -17.7995   26.2749 O   0  0  0  0  0  0  0  0  0  0  0  0
   14.1136  -17.0178   21.5224 O   0  0  0  0  0  0  0  0  0  0  0  0
  1  2  1  0
  3  2  1  0
  4  3  1  0
  5  4  1  0
  5  7  1  0
  5  6  1  1
  7  8  2  0
 10  9  1  6
 11  7  1  0
 11 10  1  0
 12 10  1  0
 12 14  1  0
 13 12  2  0
 15 20  1  0
 15 14  1  0
 15 16  1  1
 17 16  1  0
 17 18  1  0
 18 22  1  0
 19 18  2  0
 20 21  1  0
 23 20  2  0
M  END
$$$$
