MAE.pdb
     RDKit          3D

 23 22  0  0  1  0  0  0  0  0999 V2000
    6.6770  -11.2861   26.1204 C   0  0  0  0  0  0  0  0  0  0  0  0
    6.7520  -12.9272   26.8928 S   0  0  0  0  0  0  0  0  0  0  0  0
    8.2738  -13.7952   26.4283 C   0  0  0  0  0  0  0  0  0  0  0  0
    7.9729  -15.2712   26.2477 C   0  0  0  0  0  0  0  0  0  0  0  0
    6.7528  -15.4829   25.3808 C   0  0  2  0  0  0  0  0  0  0  0  0
    5.9754  -16.5476   25.9379 N   0  0  0  0  0  0  0  0  0  0  0  0
    7.2445  -15.7877   24.0109 C   0  0  0  0  0  0  0  0  0  0  0  0
    7.4886  -16.9744   23.6740 O   0  0  0  0  0  0  0  0  0  0  0  0
    7.8453  -13.8710   20.7639 C   0  0  0  0  0  0  0  0  0  0  0  0
    7.8342  -15.0688   21.6638 C   0  0  2  0  0  0  0  0  0  0  0  0
    7.4648  -14.7882   23.0205 N   0  0  0  0  0  0  0  0  0  0  0  0
    9.0775  -15.8812   21.5724 C   0  0  0  0  0  0  0  0  0  0  0  0
    9.4202  -16.3520   20.4581 O   0  0  0  0  0  0  0  0  0  0  0  0
    9.9046  -16.1549   22.6872 N   0  0  0  0  0  0  0  0  0  0  0  0
   11.0222  -17.0946   22.6209 C   0  0  1  0  0  0  0  0  0  0  0  0
   12.2246  -16.3886   23.1689 C   0  0  0  0  0  0  0  0  0  0  0  0
   13.0052  -15.5957   22.1608 C   0  0  0  0  0  0  0  0  0  0  0  0
   14.3711  -15.3627   22.6305 C   0  0  0  0  0  0  0  0  0  0  0  0
   14.7018  -15.1769   23.8073 O   0  0  0  0  0  0  0  0  0  0  0  0
   10.7027  -18.3187   23.4346 C   0  0  0  0  0  0  0  0  0  0  0  0
   11.4750  -19.4632   23.3330 O   0  0  0  0  0  0  0  0  0  0  0  0
   15.3860  -15.3502   21.6603 O   0  0  0  0  0  0  0  0  0  0  0  0
    9.7293  -18.3434   24.2294 O   0  0  0  0  0  0  0  0  0  0  0  0
  1  2  1  0
  3  2  1  0
  4  3  1  0
  5  4  1  0
  5  7  1  0
  5  6  1  1
  7  8  2  0
 10  9  1  6
 11  7  1  0
 11 10  1  0
 12 10  1  0
 12 14  1  0
 13 12  2  0
 15 20  1  0
 15 14  1  0
 15 16  1  1
 17 16  1  0
 17 18  1  0
 18 22  1  0
 19 18  2  0
 20 21  1  0
 23 20  2  0
M  END
$$$$
