SDM.pdb
     RDKit          3D

 23 22  0  0  1  0  0  0  0  0999 V2000
   29.0502  -21.4581  -15.0058 O   0  0  0  0  0  0  0  0  0  0  0  0
   28.2583  -21.4115  -16.1285 C   0  0  0  0  0  0  0  0  0  0  0  0
   26.8217  -21.7909  -15.8534 C   0  0  2  0  0  0  0  0  0  0  0  0
   26.0588  -21.7331  -17.0653 N   0  0  0  0  0  0  0  0  0  0  0  0
   26.1878  -20.9611  -14.8256 C   0  0  0  0  0  0  0  0  0  0  0  0
   25.8958  -19.7409  -15.0097 O   0  0  0  0  0  0  0  0  0  0  0  0
   25.8774  -21.5233  -13.5622 N   0  0  0  0  0  0  0  0  0  0  0  0
   25.0581  -20.6911  -12.6010 C   0  0  1  0  0  0  0  0  0  0  0  0
   23.6637  -21.0525  -12.9761 C   0  0  0  0  0  0  0  0  0  0  0  0
   22.5592  -20.2579  -12.4706 C   0  0  0  0  0  0  0  0  0  0  0  0
   22.3787  -19.0369  -12.5278 O   0  0  0  0  0  0  0  0  0  0  0  0
   25.5019  -21.0839  -11.2604 C   0  0  0  0  0  0  0  0  0  0  0  0
   25.7202  -22.3269  -11.0422 O   0  0  0  0  0  0  0  0  0  0  0  0
   21.5265  -20.9754  -11.8110 O   0  0  0  0  0  0  0  0  0  0  0  0
   28.2974  -19.7999   -3.9438 C   0  0  0  0  0  0  0  0  0  0  0  0
   27.8405  -19.1451   -5.5611 S   0  0  0  0  0  0  0  0  0  0  0  0
   27.0257  -20.4022   -6.5772 C   0  0  0  0  0  0  0  0  0  0  0  0
   26.7751  -19.8203   -7.9636 C   0  0  0  0  0  0  0  0  0  0  0  0
   26.1116  -20.8214   -8.8513 C   0  0  2  0  0  0  0  0  0  0  0  0
   25.7338  -20.2555  -10.1425 N   0  0  0  0  0  0  0  0  0  0  0  0
   24.8422  -21.2442   -8.1793 C   0  0  0  0  0  0  0  0  0  0  0  0
   23.7649  -20.7324   -8.5726 O   0  0  0  0  0  0  0  0  0  0  0  0
   24.8113  -22.1599   -7.1606 O   0  0  0  0  0  0  0  0  0  0  0  0
  1  2  1  0
  3  2  1  0
  3  4  1  6
  3  5  1  0
  5  6  2  0
  7  5  1  0
  7  8  1  0
  8 12  1  0
  8  9  1  1
 10  9  1  0
 11 10  2  0
 12 20  1  0
 13 12  2  0
 14 10  1  0
 16 17  1  0
 16 15  1  0
 18 17  1  0
 19 18  1  1
 20 19  1  0
 21 19  1  0
 21 23  1  0
 22 21  2  0
M  END
$$$$
