SDM.pdb
     RDKit          3D

 23 22  0  0  1  0  0  0  0  0999 V2000
   11.2175  -10.6562  -13.1768 O   0  0  0  0  0  0  0  0  0  0  0  0
   12.1189   -9.9060  -12.4595 C   0  0  0  0  0  0  0  0  0  0  0  0
   13.3661   -9.5725  -13.2449 C   0  0  2  0  0  0  0  0  0  0  0  0
   14.0979  -10.7703  -13.5345 N   0  0  0  0  0  0  0  0  0  0  0  0
   14.2375   -8.6073  -12.5699 C   0  0  0  0  0  0  0  0  0  0  0  0
   14.7228   -8.8078  -11.4156 O   0  0  0  0  0  0  0  0  0  0  0  0
   14.5674   -7.3888  -13.2143 N   0  0  0  0  0  0  0  0  0  0  0  0
   15.5738   -6.4832  -12.5397 C   0  0  1  0  0  0  0  0  0  0  0  0
   16.2552   -5.8455  -13.6993 C   0  0  0  0  0  0  0  0  0  0  0  0
   17.5026   -6.4027  -14.1897 C   0  0  0  0  0  0  0  0  0  0  0  0
   18.2930   -7.1714  -13.6318 O   0  0  0  0  0  0  0  0  0  0  0  0
   14.7908   -5.6009  -11.6697 C   0  0  0  0  0  0  0  0  0  0  0  0
   13.6637   -5.1767  -12.1053 O   0  0  0  0  0  0  0  0  0  0  0  0
   17.8837   -6.0166  -15.5019 O   0  0  0  0  0  0  0  0  0  0  0  0
   11.4380   -3.3555   -5.0386 C   0  0  0  0  0  0  0  0  0  0  0  0
   12.4452   -4.4976   -6.0052 S   0  0  0  0  0  0  0  0  0  0  0  0
   12.9634   -3.7573   -7.5736 C   0  0  0  0  0  0  0  0  0  0  0  0
   13.7556   -4.7932   -8.3629 C   0  0  0  0  0  0  0  0  0  0  0  0
   14.2348   -4.2258   -9.6586 C   0  0  2  0  0  0  0  0  0  0  0  0
   15.1152   -5.1430  -10.3755 N   0  0  0  0  0  0  0  0  0  0  0  0
   15.0479   -3.0092   -9.3414 C   0  0  0  0  0  0  0  0  0  0  0  0
   16.2947   -3.0791   -9.4741 O   0  0  0  0  0  0  0  0  0  0  0  0
   14.4885   -1.8332   -8.9156 O   0  0  0  0  0  0  0  0  0  0  0  0
  1  2  1  0
  3  2  1  0
  3  4  1  1
  3  5  1  0
  5  6  2  0
  7  5  1  0
  7  8  1  0
  8 12  1  0
  8  9  1  6
 10  9  1  0
 11 10  2  0
 12 20  1  0
 13 12  2  0
 14 10  1  0
 16 17  1  0
 16 15  1  0
 18 17  1  0
 19 18  1  1
 20 19  1  0
 21 19  1  0
 21 23  1  0
 22 21  2  0
M  END
$$$$
