SDM.pdb
     RDKit          3D

 23 22  0  0  1  0  0  0  0  0999 V2000
   16.7183   -8.3617   -8.7470 O   0  0  0  0  0  0  0  0  0  0  0  0
   16.0645   -7.1529   -8.7834 C   0  0  0  0  0  0  0  0  0  0  0  0
   14.9171   -7.1322   -9.7663 C   0  0  2  0  0  0  0  0  0  0  0  0
   13.8877   -8.0325   -9.3372 N   0  0  0  0  0  0  0  0  0  0  0  0
   15.3203   -7.4539  -11.1377 C   0  0  0  0  0  0  0  0  0  0  0  0
   14.6403   -8.2094  -11.8958 O   0  0  0  0  0  0  0  0  0  0  0  0
   16.5186   -6.9093  -11.6632 N   0  0  0  0  0  0  0  0  0  0  0  0
   16.8432   -7.1860  -13.1144 C   0  0  1  0  0  0  0  0  0  0  0  0
   15.7567   -6.4603  -13.8273 C   0  0  0  0  0  0  0  0  0  0  0  0
   15.7990   -6.3532  -15.2743 C   0  0  0  0  0  0  0  0  0  0  0  0
   16.3368   -7.0966  -16.1018 O   0  0  0  0  0  0  0  0  0  0  0  0
   18.2079   -6.6906  -13.3157 C   0  0  0  0  0  0  0  0  0  0  0  0
   18.5384   -5.5954  -12.7399 O   0  0  0  0  0  0  0  0  0  0  0  0
   15.1281   -5.2348  -15.8358 O   0  0  0  0  0  0  0  0  0  0  0  0
   22.2342  -10.9940  -14.9516 C   0  0  0  0  0  0  0  0  0  0  0  0
   22.9682   -9.9223  -13.7002 S   0  0  0  0  0  0  0  0  0  0  0  0
   21.8352   -8.5948  -13.2198 C   0  0  0  0  0  0  0  0  0  0  0  0
   21.6418   -7.6644  -14.4117 C   0  0  0  0  0  0  0  0  0  0  0  0
   20.5669   -6.6639  -14.1397 C   0  0  2  0  0  0  0  0  0  0  0  0
   19.2425   -7.2741  -14.0766 N   0  0  0  0  0  0  0  0  0  0  0  0
   20.5447   -5.7063  -15.2904 C   0  0  0  0  0  0  0  0  0  0  0  0
   21.5198   -4.9275  -15.4316 O   0  0  0  0  0  0  0  0  0  0  0  0
   19.5105   -5.6476  -16.1870 O   0  0  0  0  0  0  0  0  0  0  0  0
  1  2  1  0
  3  2  1  0
  3  4  1  1
  3  5  1  0
  5  6  2  0
  7  5  1  0
  7  8  1  0
  8 12  1  0
  8  9  1  6
 10  9  1  0
 11 10  2  0
 12 20  1  0
 13 12  2  0
 14 10  1  0
 16 17  1  0
 16 15  1  0
 18 17  1  0
 19 18  1  6
 20 19  1  0
 21 19  1  0
 21 23  1  0
 22 21  2  0
M  END
$$$$
