SDM.pdb
     RDKit          3D

 23 22  0  0  1  0  0  0  0  0999 V2000
   26.7392  -15.8356  -14.0427 O   0  0  0  0  0  0  0  0  0  0  0  0
   27.5857  -16.5656  -14.8429 C   0  0  0  0  0  0  0  0  0  0  0  0
   26.8535  -17.4900  -15.7877 C   0  0  2  0  0  0  0  0  0  0  0  0
   26.0774  -16.7251  -16.7187 N   0  0  0  0  0  0  0  0  0  0  0  0
   25.9954  -18.4605  -15.1031 C   0  0  0  0  0  0  0  0  0  0  0  0
   24.7489  -18.2877  -14.9474 O   0  0  0  0  0  0  0  0  0  0  0  0
   26.5594  -19.6524  -14.5833 N   0  0  0  0  0  0  0  0  0  0  0  0
   25.6226  -20.6641  -13.9614 C   0  0  1  0  0  0  0  0  0  0  0  0
   25.9081  -21.8912  -14.7540 C   0  0  0  0  0  0  0  0  0  0  0  0
   25.2310  -23.1310  -14.4201 C   0  0  0  0  0  0  0  0  0  0  0  0
   24.2912  -23.3283  -13.6425 O   0  0  0  0  0  0  0  0  0  0  0  0
   25.9717  -20.7036  -12.5384 C   0  0  0  0  0  0  0  0  0  0  0  0
   27.1971  -20.9092  -12.2279 O   0  0  0  0  0  0  0  0  0  0  0  0
   25.7076  -24.2969  -15.0755 O   0  0  0  0  0  0  0  0  0  0  0  0
   28.0363  -19.1495   -5.5358 C   0  0  0  0  0  0  0  0  0  0  0  0
   27.4215  -18.7315   -7.1792 S   0  0  0  0  0  0  0  0  0  0  0  0
   26.5990  -20.1443   -7.9564 C   0  0  0  0  0  0  0  0  0  0  0  0
   26.3037  -19.7963   -9.4107 C   0  0  0  0  0  0  0  0  0  0  0  0
   25.5537  -20.8993  -10.0825 C   0  0  2  0  0  0  0  0  0  0  0  0
   25.1184  -20.5369  -11.4276 N   0  0  0  0  0  0  0  0  0  0  0  0
   24.3134  -21.1498   -9.2821 C   0  0  0  0  0  0  0  0  0  0  0  0
   23.2083  -20.8322   -9.7873 O   0  0  0  0  0  0  0  0  0  0  0  0
   24.3377  -21.7070   -8.0307 O   0  0  0  0  0  0  0  0  0  0  0  0
  1  2  1  0
  3  2  1  0
  3  4  1  6
  3  5  1  0
  5  6  2  0
  7  5  1  0
  7  8  1  0
  8 12  1  0
  8  9  1  6
 10  9  1  0
 11 10  2  0
 12 20  1  0
 13 12  2  0
 14 10  1  0
 16 17  1  0
 16 15  1  0
 18 17  1  0
 19 18  1  1
 20 19  1  0
 21 19  1  0
 21 23  1  0
 22 21  2  0
M  END
$$$$
