SDM.pdb
     RDKit          3D

 23 22  0  0  1  0  0  0  0  0999 V2000
   14.2724   -5.6805   -7.4406 O   0  0  0  0  0  0  0  0  0  0  0  0
   15.2322   -6.3582   -8.1542 C   0  0  0  0  0  0  0  0  0  0  0  0
   14.6486   -7.2893   -9.1914 C   0  0  2  0  0  0  0  0  0  0  0  0
   13.9727   -8.3774   -8.5483 N   0  0  0  0  0  0  0  0  0  0  0  0
   15.6442   -7.8081  -10.1329 C   0  0  0  0  0  0  0  0  0  0  0  0
   16.3887   -8.8003   -9.8701 O   0  0  0  0  0  0  0  0  0  0  0  0
   15.8011   -7.1913  -11.3993 N   0  0  0  0  0  0  0  0  0  0  0  0
   16.8176   -7.7818  -12.3512 C   0  0  1  0  0  0  0  0  0  0  0  0
   16.1235   -7.6757  -13.6636 C   0  0  0  0  0  0  0  0  0  0  0  0
   16.8629   -7.9337  -14.8857 C   0  0  0  0  0  0  0  0  0  0  0  0
   17.3169   -8.9978  -15.3197 O   0  0  0  0  0  0  0  0  0  0  0  0
   18.0315   -6.9779  -12.1818 C   0  0  0  0  0  0  0  0  0  0  0  0
   17.8930   -5.7273  -11.9430 O   0  0  0  0  0  0  0  0  0  0  0  0
   17.1082   -6.8073  -15.7147 O   0  0  0  0  0  0  0  0  0  0  0  0
   23.4394  -10.5713   -9.9887 C   0  0  0  0  0  0  0  0  0  0  0  0
   22.9210   -8.8526   -9.8140 S   0  0  0  0  0  0  0  0  0  0  0  0
   21.9423   -8.3095  -11.2366 C   0  0  0  0  0  0  0  0  0  0  0  0
   21.4018   -6.9130  -10.9512 C   0  0  0  0  0  0  0  0  0  0  0  0
   20.4733   -6.4680  -12.0330 C   0  0  2  0  0  0  0  0  0  0  0  0
   19.3743   -7.4054  -12.2428 N   0  0  0  0  0  0  0  0  0  0  0  0
   21.2564   -6.4313  -13.3085 C   0  0  0  0  0  0  0  0  0  0  0  0
   20.9973   -7.2901  -14.1875 O   0  0  0  0  0  0  0  0  0  0  0  0
   22.2363   -5.5050  -13.5512 O   0  0  0  0  0  0  0  0  0  0  0  0
  1  2  1  0
  3  2  1  0
  3  4  1  1
  3  5  1  0
  5  6  2  0
  7  5  1  0
  7  8  1  0
  8 12  1  0
  8  9  1  6
 10  9  1  0
 11 10  2  0
 12 20  1  0
 13 12  2  0
 14 10  1  0
 16 17  1  0
 16 15  1  0
 18 17  1  0
 19 18  1  1
 20 19  1  0
 21 19  1  0
 21 23  1  0
 22 21  2  0
M  END
$$$$
