SDM.pdb
     RDKit          3D

 23 22  0  0  1  0  0  0  0  0999 V2000
   32.4353  -14.5537  -18.0812 O   0  0  0  0  0  0  0  0  0  0  0  0
   32.5274  -13.1881  -18.2092 C   0  0  0  0  0  0  0  0  0  0  0  0
   31.6048  -12.6312  -19.2684 C   0  0  2  0  0  0  0  0  0  0  0  0
   32.0287  -13.0673  -20.5662 N   0  0  0  0  0  0  0  0  0  0  0  0
   31.5045  -11.1697  -19.2422 C   0  0  0  0  0  0  0  0  0  0  0  0
   32.2959  -10.4139  -19.8827 O   0  0  0  0  0  0  0  0  0  0  0  0
   30.4869  -10.5495  -18.4749 N   0  0  0  0  0  0  0  0  0  0  0  0
   30.4248   -9.0382  -18.4747 C   0  0  1  0  0  0  0  0  0  0  0  0
   28.9594   -8.7802  -18.4360 C   0  0  0  0  0  0  0  0  0  0  0  0
   28.1753   -8.9304  -19.6483 C   0  0  0  0  0  0  0  0  0  0  0  0
   28.5523   -9.0274  -20.8211 O   0  0  0  0  0  0  0  0  0  0  0  0
   31.1994   -8.6109  -17.3059 C   0  0  0  0  0  0  0  0  0  0  0  0
   30.7276   -8.8762  -16.1453 O   0  0  0  0  0  0  0  0  0  0  0  0
   26.7664   -8.9741  -19.4773 O   0  0  0  0  0  0  0  0  0  0  0  0
   36.9397  -11.4048  -16.2753 C   0  0  0  0  0  0  0  0  0  0  0  0
   36.5590   -9.6445  -16.1761 S   0  0  0  0  0  0  0  0  0  0  0  0
   34.7728   -9.3563  -16.1239 C   0  0  0  0  0  0  0  0  0  0  0  0
   34.5248   -7.8575  -15.9985 C   0  0  0  0  0  0  0  0  0  0  0  0
   33.0625   -7.5543  -16.0189 C   0  0  2  0  0  0  0  0  0  0  0  0
   32.4344   -7.9299  -17.2817 N   0  0  0  0  0  0  0  0  0  0  0  0
   32.9109   -6.0705  -15.8879 C   0  0  0  0  0  0  0  0  0  0  0  0
   33.2236   -5.5374  -14.7946 O   0  0  0  0  0  0  0  0  0  0  0  0
   32.4481   -5.2792  -16.9061 O   0  0  0  0  0  0  0  0  0  0  0  0
  1  2  1  0
  3  2  1  0
  3  4  1  6
  3  5  1  0
  5  6  2  0
  7  5  1  0
  7  8  1  0
  8 12  1  0
  8  9  1  1
 10  9  1  0
 11 10  2  0
 12 20  1  0
 13 12  2  0
 14 10  1  0
 16 17  1  0
 16 15  1  0
 18 17  1  0
 19 18  1  6
 20 19  1  0
 21 19  1  0
 21 23  1  0
 22 21  2  0
M  END
$$$$
