SDM.pdb
     RDKit          3D

 23 22  0  0  1  0  0  0  0  0999 V2000
   16.4780  -14.0384  -15.9122 O   0  0  0  0  0  0  0  0  0  0  0  0
   16.9371  -12.9046  -16.5395 C   0  0  0  0  0  0  0  0  0  0  0  0
   18.2829  -12.4494  -16.0248 C   0  0  2  0  0  0  0  0  0  0  0  0
   18.3768  -12.6933  -14.6156 N   0  0  0  0  0  0  0  0  0  0  0  0
   18.5667  -11.0398  -16.3063 C   0  0  0  0  0  0  0  0  0  0  0  0
   19.1681  -10.6547  -17.3542 O   0  0  0  0  0  0  0  0  0  0  0  0
   18.1615  -10.0440  -15.3827 N   0  0  0  0  0  0  0  0  0  0  0  0
   18.4546   -8.6006  -15.7268 C   0  0  1  0  0  0  0  0  0  0  0  0
   17.2172   -7.9081  -15.2741 C   0  0  0  0  0  0  0  0  0  0  0  0
   17.1349   -6.4616  -15.3627 C   0  0  0  0  0  0  0  0  0  0  0  0
   18.0356   -5.6319  -15.5275 O   0  0  0  0  0  0  0  0  0  0  0  0
   19.6925   -8.2682  -15.0157 C   0  0  0  0  0  0  0  0  0  0  0  0
   19.7837   -8.6040  -13.7832 O   0  0  0  0  0  0  0  0  0  0  0  0
   15.8347   -5.9035  -15.2444 O   0  0  0  0  0  0  0  0  0  0  0  0
   25.7105  -11.2854  -14.6878 C   0  0  0  0  0  0  0  0  0  0  0  0
   25.1577   -9.7222  -15.3977 S   0  0  0  0  0  0  0  0  0  0  0  0
   23.6911   -9.0908  -14.5450 C   0  0  0  0  0  0  0  0  0  0  0  0
   23.2641   -7.7877  -15.2106 C   0  0  0  0  0  0  0  0  0  0  0  0
   21.9677   -7.3015  -14.6507 C   0  0  2  0  0  0  0  0  0  0  0  0
   20.8359   -7.6125  -15.5182 N   0  0  0  0  0  0  0  0  0  0  0  0
   22.0476   -5.8087  -14.5670 C   0  0  0  0  0  0  0  0  0  0  0  0
   21.4698   -5.1340  -15.4547 O   0  0  0  0  0  0  0  0  0  0  0  0
   22.7212   -5.1566  -13.5679 O   0  0  0  0  0  0  0  0  0  0  0  0
  1  2  1  0
  3  2  1  0
  3  4  1  1
  3  5  1  0
  5  6  2  0
  7  5  1  0
  7  8  1  0
  8 12  1  0
  8  9  1  1
 10  9  1  0
 11 10  2  0
 12 20  1  0
 13 12  2  0
 14 10  1  0
 16 17  1  0
 16 15  1  0
 18 17  1  0
 19 18  1  6
 20 19  1  0
 21 19  1  0
 21 23  1  0
 22 21  2  0
M  END
$$$$
