NWY.pdb
     RDKit          3D

 35 37  0  0  1  0  0  0  0  0999 V2000
   20.1157  -22.9084   -9.8379 N   0  0  0  0  0  0  0  0  0  0  0  0
   20.5047  -22.6947  -11.1786 C   0  0  0  0  0  0  0  0  0  0  0  0
   20.0788  -23.4693  -12.0621 O   0  0  0  0  0  0  0  0  0  0  0  0
   21.3867  -21.5906  -11.5284 C   0  0  0  0  0  0  0  0  0  0  0  0
   21.8386  -20.7347  -10.3694 C   0  0  2  0  0  0  0  0  0  0  0  0
   21.0219  -19.5119  -10.4585 N   0  0  0  0  0  0  0  0  0  0  0  0
   23.2781  -20.4071  -10.3962 C   0  0  0  0  0  0  0  0  0  0  0  0
   23.6924  -19.5129  -11.1755 O   0  0  0  0  0  0  0  0  0  0  0  0
   24.2441  -21.0449   -9.5865 N   0  0  0  0  0  0  0  0  0  0  0  0
   25.6754  -20.6567   -9.5858 C   0  0  1  0  0  0  0  0  0  0  0  0
   26.1922  -21.0218   -8.2486 C   0  0  0  0  0  0  0  0  0  0  0  0
   26.8699  -19.9865   -7.4620 C   0  0  0  0  0  0  0  0  0  0  0  0
   27.0628  -18.6594   -7.7320 C   0  0  0  0  0  0  0  0  0  0  0  0
   27.7454  -18.1124   -6.7180 N   0  0  0  0  0  0  0  0  0  0  0  0
   28.0086  -19.0446   -5.7833 C   0  0  0  0  0  0  0  0  0  0  0  0
   28.6663  -18.9832   -4.5518 C   0  0  0  0  0  0  0  0  0  0  0  0
   28.7816  -20.1017   -3.7724 C   0  0  0  0  0  0  0  0  0  0  0  0
   28.2458  -21.3070   -4.2003 C   0  0  0  0  0  0  0  0  0  0  0  0
   27.6035  -21.3446   -5.4149 C   0  0  0  0  0  0  0  0  0  0  0  0
   27.4721  -20.2212   -6.2269 C   0  0  0  0  0  0  0  0  0  0  0  0
   26.2939  -21.1995  -10.7653 C   0  0  0  0  0  0  0  0  0  0  0  0
   26.3568  -22.4462  -10.9321 O   0  0  0  0  0  0  0  0  0  0  0  0
   23.3295  -25.9093  -14.8543 O   0  0  0  0  0  0  0  0  0  0  0  0
   23.8955  -24.6687  -14.5662 C   0  0  0  0  0  0  0  0  0  0  0  0
   25.1735  -24.5397  -14.0685 C   0  0  0  0  0  0  0  0  0  0  0  0
   25.6511  -23.2751  -13.8129 C   0  0  0  0  0  0  0  0  0  0  0  0
   24.8993  -22.1260  -14.0360 C   0  0  0  0  0  0  0  0  0  0  0  0
   25.4338  -20.7865  -13.7449 C   0  0  0  0  0  0  0  0  0  0  0  0
   26.8827  -20.8505  -13.2021 C   0  0  2  0  0  0  0  0  0  0  0  0
   26.8629  -20.3915  -11.8149 N   0  0  0  0  0  0  0  0  0  0  0  0
   27.7367  -19.9485  -13.9836 C   0  0  0  0  0  0  0  0  0  0  0  0
   28.4319  -20.3361  -15.1240 O   0  0  0  0  0  0  0  0  0  0  0  0
   23.6250  -22.3143  -14.5352 C   0  0  0  0  0  0  0  0  0  0  0  0
   23.0968  -23.5526  -14.8086 C   0  0  0  0  0  0  0  0  0  0  0  0
   27.8920  -18.7330  -13.6507 O   0  0  0  0  0  0  0  0  0  0  0  0
  1  2  1  0
  2  4  1  0
  3  2  2  0
  4  5  1  0
  5  7  1  0
  5  6  1  6
  7  8  2  0
  9  7  1  0
  9 10  1  0
 10 11  1  1
 12 11  1  0
 13 12  2  0
 14 13  1  0
 15 14  1  0
 15 20  2  0
 16 15  1  0
 17 16  2  0
 17 18  1  0
 18 19  2  0
 19 20  1  0
 20 12  1  0
 21 22  2  0
 21 10  1  0
 23 24  1  0
 24 25  2  0
 25 26  1  0
 27 26  2  0
 27 28  1  0
 29 28  1  6
 29 30  1  0
 30 21  1  0
 31 32  1  0
 31 29  1  0
 33 27  1  0
 34 24  1  0
 34 33  2  0
 35 31  2  0
M  END
$$$$
