NWY.pdb
     RDKit          3D

 35 37  0  0  1  0  0  0  0  0999 V2000
   27.8636  -22.1063  -19.7108 N   0  0  0  0  0  0  0  0  0  0  0  0
   27.5778  -21.2912  -18.5936 C   0  0  0  0  0  0  0  0  0  0  0  0
   27.8759  -20.0784  -18.6384 O   0  0  0  0  0  0  0  0  0  0  0  0
   26.9458  -21.8520  -17.4080 C   0  0  0  0  0  0  0  0  0  0  0  0
   27.7135  -21.6687  -16.1208 C   0  0  2  0  0  0  0  0  0  0  0  0
   28.7614  -22.7037  -16.1522 N   0  0  0  0  0  0  0  0  0  0  0  0
   26.8825  -21.8003  -14.9073 C   0  0  0  0  0  0  0  0  0  0  0  0
   26.3121  -22.8935  -14.6665 O   0  0  0  0  0  0  0  0  0  0  0  0
   26.6803  -20.7570  -13.9767 N   0  0  0  0  0  0  0  0  0  0  0  0
   25.9030  -20.9345  -12.7263 C   0  0  1  0  0  0  0  0  0  0  0  0
   26.5285  -20.0365  -11.7310 C   0  0  0  0  0  0  0  0  0  0  0  0
   27.7184  -20.5136  -11.0194 C   0  0  0  0  0  0  0  0  0  0  0  0
   28.8526  -21.1092  -11.4992 C   0  0  0  0  0  0  0  0  0  0  0  0
   29.6638  -21.3759  -10.4677 N   0  0  0  0  0  0  0  0  0  0  0  0
   29.0947  -20.9710   -9.3169 C   0  0  0  0  0  0  0  0  0  0  0  0
   29.5284  -21.0065   -7.9889 C   0  0  0  0  0  0  0  0  0  0  0  0
   28.7424  -20.4994   -6.9906 C   0  0  0  0  0  0  0  0  0  0  0  0
   27.5067  -19.9459   -7.2900 C   0  0  0  0  0  0  0  0  0  0  0  0
   27.1000  -19.9218   -8.6027 C   0  0  0  0  0  0  0  0  0  0  0  0
   27.8805  -20.4306   -9.6374 C   0  0  0  0  0  0  0  0  0  0  0  0
   24.5054  -20.7967  -13.0367 C   0  0  0  0  0  0  0  0  0  0  0  0
   24.0912  -19.7846  -13.6613 O   0  0  0  0  0  0  0  0  0  0  0  0
   15.8430  -22.4534  -13.8999 O   0  0  0  0  0  0  0  0  0  0  0  0
   17.2024  -22.5865  -13.6231 C   0  0  0  0  0  0  0  0  0  0  0  0
   17.6728  -22.8701  -12.3598 C   0  0  0  0  0  0  0  0  0  0  0  0
   19.0318  -22.9838  -12.1783 C   0  0  0  0  0  0  0  0  0  0  0  0
   19.9466  -22.8249  -13.2144 C   0  0  0  0  0  0  0  0  0  0  0  0
   21.3955  -22.9437  -12.9883 C   0  0  0  0  0  0  0  0  0  0  0  0
   22.0931  -21.5611  -12.9866 C   0  0  2  0  0  0  0  0  0  0  0  0
   23.5060  -21.7718  -12.6786 N   0  0  0  0  0  0  0  0  0  0  0  0
   21.5040  -20.7189  -11.9390 C   0  0  0  0  0  0  0  0  0  0  0  0
   20.4458  -19.8428  -12.1548 O   0  0  0  0  0  0  0  0  0  0  0  0
   19.4196  -22.5413  -14.4595 C   0  0  0  0  0  0  0  0  0  0  0  0
   18.0726  -22.4166  -14.6984 C   0  0  0  0  0  0  0  0  0  0  0  0
   21.9417  -20.7446  -10.7474 O   0  0  0  0  0  0  0  0  0  0  0  0
  1  2  1  0
  2  4  1  0
  3  2  2  0
  4  5  1  0
  5  7  1  0
  5  6  1  1
  7  8  2  0
  9  7  1  0
  9 10  1  0
 10 11  1  1
 12 11  1  0
 13 12  2  0
 14 13  1  0
 15 14  1  0
 15 20  2  0
 16 15  1  0
 17 16  2  0
 17 18  1  0
 18 19  2  0
 19 20  1  0
 20 12  1  0
 21 22  2  0
 21 10  1  0
 23 24  1  0
 24 25  2  0
 25 26  1  0
 27 26  2  0
 27 28  1  0
 29 28  1  1
 29 30  1  0
 30 21  1  0
 31 32  1  0
 31 29  1  0
 33 27  1  0
 34 24  1  0
 34 33  2  0
 35 31  2  0
M  END
$$$$
