NWY.pdb
     RDKit          3D

 35 37  0  0  1  0  0  0  0  0999 V2000
   27.6925  -19.4595  -19.4149 N   0  0  0  0  0  0  0  0  0  0  0  0
   27.1516  -19.0182  -18.1872 C   0  0  0  0  0  0  0  0  0  0  0  0
   27.8953  -18.9632  -17.1844 O   0  0  0  0  0  0  0  0  0  0  0  0
   25.7512  -18.6328  -18.0890 C   0  0  0  0  0  0  0  0  0  0  0  0
   24.9403  -18.8246  -19.3482 C   0  0  2  0  0  0  0  0  0  0  0  0
   25.5612  -17.9301  -20.3405 N   0  0  0  0  0  0  0  0  0  0  0  0
   23.5059  -18.5135  -19.1865 C   0  0  0  0  0  0  0  0  0  0  0  0
   23.1670  -17.4255  -18.6574 O   0  0  0  0  0  0  0  0  0  0  0  0
   22.4641  -19.3752  -19.5957 N   0  0  0  0  0  0  0  0  0  0  0  0
   21.0315  -19.0018  -19.5097 C   0  0  1  0  0  0  0  0  0  0  0  0
   20.4915  -19.1546  -20.8785 C   0  0  0  0  0  0  0  0  0  0  0  0
   20.7854  -18.1054  -21.8597 C   0  0  0  0  0  0  0  0  0  0  0  0
   21.9178  -17.8756  -22.5918 C   0  0  0  0  0  0  0  0  0  0  0  0
   21.7211  -16.7919  -23.3535 N   0  0  0  0  0  0  0  0  0  0  0  0
   20.4861  -16.2991  -23.1439 C   0  0  0  0  0  0  0  0  0  0  0  0
   19.8012  -15.2114  -23.6924 C   0  0  0  0  0  0  0  0  0  0  0  0
   18.5176  -14.9365  -23.3072 C   0  0  0  0  0  0  0  0  0  0  0  0
   17.8859  -15.7367  -22.3672 C   0  0  0  0  0  0  0  0  0  0  0  0
   18.5784  -16.8007  -21.8405 C   0  0  0  0  0  0  0  0  0  0  0  0
   19.8849  -17.1026  -22.2155 C   0  0  0  0  0  0  0  0  0  0  0  0
   20.4371  -19.7287  -18.4202 C   0  0  0  0  0  0  0  0  0  0  0  0
   20.7367  -20.9362  -18.2249 O   0  0  0  0  0  0  0  0  0  0  0  0
   14.4918  -15.3455  -16.6416 O   0  0  0  0  0  0  0  0  0  0  0  0
   15.4682  -16.2731  -16.2831 C   0  0  0  0  0  0  0  0  0  0  0  0
   15.1539  -17.5223  -15.7949 C   0  0  0  0  0  0  0  0  0  0  0  0
   16.1831  -18.3740  -15.4663 C   0  0  0  0  0  0  0  0  0  0  0  0
   17.5230  -18.0266  -15.6066 C   0  0  0  0  0  0  0  0  0  0  0  0
   18.6028  -18.9557  -15.2385 C   0  0  0  0  0  0  0  0  0  0  0  0
   18.9380  -19.9340  -16.3912 C   0  0  2  0  0  0  0  0  0  0  0  0
   19.4930  -19.1536  -17.4950 N   0  0  0  0  0  0  0  0  0  0  0  0
   17.7068  -20.5877  -16.8499 C   0  0  0  0  0  0  0  0  0  0  0  0
   17.0830  -21.6275  -16.1690 O   0  0  0  0  0  0  0  0  0  0  0  0
   17.7801  -16.7622  -16.1001 C   0  0  0  0  0  0  0  0  0  0  0  0
   16.7929  -15.8711  -16.4442 C   0  0  0  0  0  0  0  0  0  0  0  0
   17.1299  -20.2300  -17.9231 O   0  0  0  0  0  0  0  0  0  0  0  0
  1  2  1  0
  2  4  1  0
  3  2  2  0
  4  5  1  0
  5  7  1  0
  5  6  1  6
  7  8  2  0
  9  7  1  0
  9 10  1  0
 10 11  1  6
 12 11  1  0
 13 12  2  0
 14 13  1  0
 15 14  1  0
 15 20  2  0
 16 15  1  0
 17 16  2  0
 17 18  1  0
 18 19  2  0
 19 20  1  0
 20 12  1  0
 21 22  2  0
 21 10  1  0
 23 24  1  0
 24 25  2  0
 25 26  1  0
 27 26  2  0
 27 28  1  0
 29 28  1  1
 29 30  1  0
 30 21  1  0
 31 32  1  0
 31 29  1  0
 33 27  1  0
 34 24  1  0
 34 33  2  0
 35 31  2  0
M  END
$$$$
