NWY.pdb
     RDKit          3D

 35 37  0  0  1  0  0  0  0  0999 V2000
   27.9488  -19.7725  -17.8101 N   0  0  0  0  0  0  0  0  0  0  0  0
   27.8992  -19.3794  -16.4545 C   0  0  0  0  0  0  0  0  0  0  0  0
   28.6585  -18.4679  -16.0616 O   0  0  0  0  0  0  0  0  0  0  0  0
   26.9791  -20.0236  -15.5283 C   0  0  0  0  0  0  0  0  0  0  0  0
   27.6302  -20.8043  -14.4118 C   0  0  2  0  0  0  0  0  0  0  0  0
   28.1651  -22.0160  -15.0566 N   0  0  0  0  0  0  0  0  0  0  0  0
   26.7071  -21.1578  -13.3148 C   0  0  0  0  0  0  0  0  0  0  0  0
   26.0468  -22.2244  -13.3845 O   0  0  0  0  0  0  0  0  0  0  0  0
   26.5112  -20.3606  -12.1653 N   0  0  0  0  0  0  0  0  0  0  0  0
   25.4939  -20.6748  -11.1329 C   0  0  1  0  0  0  0  0  0  0  0  0
   26.0460  -20.1720   -9.8558 C   0  0  0  0  0  0  0  0  0  0  0  0
   27.3096  -20.7406   -9.3763 C   0  0  0  0  0  0  0  0  0  0  0  0
   28.2153  -21.5407  -10.0170 C   0  0  0  0  0  0  0  0  0  0  0  0
   29.2168  -21.8142   -9.1711 N   0  0  0  0  0  0  0  0  0  0  0  0
   28.9963  -21.2144   -7.9864 C   0  0  0  0  0  0  0  0  0  0  0  0
   29.7335  -21.1750   -6.7997 C   0  0  0  0  0  0  0  0  0  0  0  0
   29.2790  -20.4588   -5.7263 C   0  0  0  0  0  0  0  0  0  0  0  0
   28.0806  -19.7659   -5.8083 C   0  0  0  0  0  0  0  0  0  0  0  0
   27.3718  -19.8188   -6.9847 C   0  0  0  0  0  0  0  0  0  0  0  0
   27.8121  -20.5396   -8.0917 C   0  0  0  0  0  0  0  0  0  0  0  0
   24.2163  -20.2034  -11.5957 C   0  0  0  0  0  0  0  0  0  0  0  0
   24.1245  -19.0930  -12.1827 O   0  0  0  0  0  0  0  0  0  0  0  0
   17.8792  -20.0176  -17.2452 O   0  0  0  0  0  0  0  0  0  0  0  0
   18.9536  -20.3008  -16.4040 C   0  0  0  0  0  0  0  0  0  0  0  0
   19.6113  -21.5109  -16.4309 C   0  0  0  0  0  0  0  0  0  0  0  0
   20.6621  -21.7035  -15.5641 C   0  0  0  0  0  0  0  0  0  0  0  0
   21.0861  -20.7297  -14.6653 C   0  0  0  0  0  0  0  0  0  0  0  0
   22.2081  -20.9674  -13.7438 C   0  0  0  0  0  0  0  0  0  0  0  0
   21.8217  -20.6618  -12.2756 C   0  0  2  0  0  0  0  0  0  0  0  0
   22.9867  -20.9391  -11.4381 N   0  0  0  0  0  0  0  0  0  0  0  0
   20.7260  -21.5475  -11.8651 C   0  0  0  0  0  0  0  0  0  0  0  0
   19.3910  -21.1596  -11.8264 O   0  0  0  0  0  0  0  0  0  0  0  0
   20.3906  -19.5362  -14.6813 C   0  0  0  0  0  0  0  0  0  0  0  0
   19.3345  -19.2892  -15.5243 C   0  0  0  0  0  0  0  0  0  0  0  0
   20.9440  -22.7476  -11.5124 O   0  0  0  0  0  0  0  0  0  0  0  0
  1  2  1  0
  2  4  1  0
  3  2  2  0
  4  5  1  0
  5  7  1  0
  5  6  1  6
  7  8  2  0
  9  7  1  0
  9 10  1  0
 10 11  1  1
 12 11  1  0
 13 12  2  0
 14 13  1  0
 15 14  1  0
 15 20  2  0
 16 15  1  0
 17 16  2  0
 17 18  1  0
 18 19  2  0
 19 20  1  0
 20 12  1  0
 21 22  2  0
 21 10  1  0
 23 24  1  0
 24 25  2  0
 25 26  1  0
 27 26  2  0
 27 28  1  0
 29 28  1  6
 29 30  1  0
 30 21  1  0
 31 32  1  0
 31 29  1  0
 33 27  1  0
 34 24  1  0
 34 33  2  0
 35 31  2  0
M  END
$$$$
