NWY.pdb
     RDKit          3D

 35 37  0  0  1  0  0  0  0  0999 V2000
   23.7214  -22.4262  -20.8633 N   0  0  0  0  0  0  0  0  0  0  0  0
   23.3521  -22.3492  -19.5023 C   0  0  0  0  0  0  0  0  0  0  0  0
   22.9998  -23.3928  -18.9119 O   0  0  0  0  0  0  0  0  0  0  0  0
   23.3811  -21.0763  -18.7965 C   0  0  0  0  0  0  0  0  0  0  0  0
   23.6100  -19.8627  -19.6653 C   0  0  2  0  0  0  0  0  0  0  0  0
   25.0520  -19.5822  -19.5546 N   0  0  0  0  0  0  0  0  0  0  0  0
   22.8143  -18.6849  -19.2654 C   0  0  0  0  0  0  0  0  0  0  0  0
   23.3164  -17.8379  -18.4849 O   0  0  0  0  0  0  0  0  0  0  0  0
   21.4965  -18.4390  -19.7108 N   0  0  0  0  0  0  0  0  0  0  0  0
   20.7626  -17.1887  -19.3987 C   0  0  1  0  0  0  0  0  0  0  0  0
   20.3455  -16.6290  -20.7031 C   0  0  0  0  0  0  0  0  0  0  0  0
   21.3548  -15.9450  -21.5174 C   0  0  0  0  0  0  0  0  0  0  0  0
   22.3965  -16.4557  -22.2422 C   0  0  0  0  0  0  0  0  0  0  0  0
   23.0539  -15.4410  -22.8180 N   0  0  0  0  0  0  0  0  0  0  0  0
   22.4727  -14.2713  -22.4926 C   0  0  0  0  0  0  0  0  0  0  0  0
   22.7596  -12.9487  -22.8409 C   0  0  0  0  0  0  0  0  0  0  0  0
   21.9801  -11.9257  -22.3745 C   0  0  0  0  0  0  0  0  0  0  0  0
   20.8977  -12.1946  -21.5505 C   0  0  0  0  0  0  0  0  0  0  0  0
   20.6341  -13.5025  -21.2203 C   0  0  0  0  0  0  0  0  0  0  0  0
   21.4111  -14.5618  -21.6816 C   0  0  0  0  0  0  0  0  0  0  0  0
   19.7740  -17.4804  -18.3956 C   0  0  0  0  0  0  0  0  0  0  0  0
   19.3662  -18.6606  -18.2313 O   0  0  0  0  0  0  0  0  0  0  0  0
   17.2921  -10.4803  -19.7969 O   0  0  0  0  0  0  0  0  0  0  0  0
   17.2412  -11.8370  -19.4826 C   0  0  0  0  0  0  0  0  0  0  0  0
   16.9947  -12.2885  -18.2046 C   0  0  0  0  0  0  0  0  0  0  0  0
   16.9623  -13.6463  -17.9856 C   0  0  0  0  0  0  0  0  0  0  0  0
   17.1672  -14.5782  -18.9980 C   0  0  0  0  0  0  0  0  0  0  0  0
   17.1353  -16.0249  -18.7321 C   0  0  0  0  0  0  0  0  0  0  0  0
   17.7517  -16.3705  -17.3541 C   0  0  2  0  0  0  0  0  0  0  0  0
   19.1984  -16.4854  -17.5258 N   0  0  0  0  0  0  0  0  0  0  0  0
   17.2286  -17.6628  -16.8959 C   0  0  0  0  0  0  0  0  0  0  0  0
   16.4463  -17.8207  -15.7570 O   0  0  0  0  0  0  0  0  0  0  0  0
   17.4104  -14.0698  -20.2594 C   0  0  0  0  0  0  0  0  0  0  0  0
   17.4541  -12.7249  -20.5355 C   0  0  0  0  0  0  0  0  0  0  0  0
   17.4697  -18.7354  -17.5313 O   0  0  0  0  0  0  0  0  0  0  0  0
  1  2  1  0
  2  4  1  0
  3  2  2  0
  4  5  1  0
  5  7  1  0
  5  6  1  1
  7  8  2  0
  9  7  1  0
  9 10  1  0
 10 11  1  6
 12 11  1  0
 13 12  2  0
 14 13  1  0
 15 14  1  0
 15 20  2  0
 16 15  1  0
 17 16  2  0
 17 18  1  0
 18 19  2  0
 19 20  1  0
 20 12  1  0
 21 22  2  0
 21 10  1  0
 23 24  1  0
 24 25  2  0
 25 26  1  0
 27 26  2  0
 27 28  1  0
 29 28  1  6
 29 30  1  0
 30 21  1  0
 31 32  1  0
 31 29  1  0
 33 27  1  0
 34 24  1  0
 34 33  2  0
 35 31  2  0
M  END
$$$$
