NWY.pdb
     RDKit          3D

 35 37  0  0  1  0  0  0  0  0999 V2000
   24.2806  -28.0870  -16.4898 N   0  0  0  0  0  0  0  0  0  0  0  0
   23.0372  -27.4310  -16.6243 C   0  0  0  0  0  0  0  0  0  0  0  0
   22.9750  -26.3891  -17.3116 O   0  0  0  0  0  0  0  0  0  0  0  0
   21.8460  -27.9582  -15.9745 C   0  0  0  0  0  0  0  0  0  0  0  0
   22.0825  -29.1211  -15.0407 C   0  0  2  0  0  0  0  0  0  0  0  0
   21.7378  -30.3174  -15.8283 N   0  0  0  0  0  0  0  0  0  0  0  0
   21.2835  -29.0615  -13.8004 C   0  0  0  0  0  0  0  0  0  0  0  0
   20.0462  -29.2732  -13.8535 O   0  0  0  0  0  0  0  0  0  0  0  0
   21.8276  -28.7763  -12.5284 N   0  0  0  0  0  0  0  0  0  0  0  0
   21.0194  -28.7978  -11.2851 C   0  0  1  0  0  0  0  0  0  0  0  0
   21.9586  -29.1538  -10.1990 C   0  0  0  0  0  0  0  0  0  0  0  0
   22.0470  -30.5601   -9.7934 C   0  0  0  0  0  0  0  0  0  0  0  0
   21.2598  -31.6262  -10.1324 C   0  0  0  0  0  0  0  0  0  0  0  0
   21.7254  -32.7159   -9.5086 N   0  0  0  0  0  0  0  0  0  0  0  0
   22.8016  -32.3973   -8.7655 C   0  0  0  0  0  0  0  0  0  0  0  0
   23.6444  -33.1612   -7.9535 C   0  0  0  0  0  0  0  0  0  0  0  0
   24.7009  -32.5772   -7.3099 C   0  0  0  0  0  0  0  0  0  0  0  0
   24.9433  -31.2200   -7.4586 C   0  0  0  0  0  0  0  0  0  0  0  0
   24.1016  -30.4879   -8.2616 C   0  0  0  0  0  0  0  0  0  0  0  0
   23.0199  -31.0576   -8.9279 C   0  0  0  0  0  0  0  0  0  0  0  0
   20.2687  -27.5733  -11.2100 C   0  0  0  0  0  0  0  0  0  0  0  0
   20.8180  -26.4745  -11.4872 O   0  0  0  0  0  0  0  0  0  0  0  0
   15.0629  -21.0408  -12.9144 O   0  0  0  0  0  0  0  0  0  0  0  0
   15.6685  -22.2863  -12.7592 C   0  0  0  0  0  0  0  0  0  0  0  0
   14.9705  -23.3981  -12.3415 C   0  0  0  0  0  0  0  0  0  0  0  0
   15.6498  -24.5878  -12.2160 C   0  0  0  0  0  0  0  0  0  0  0  0
   17.0074  -24.7134  -12.4930 C   0  0  0  0  0  0  0  0  0  0  0  0
   17.7094  -25.9975  -12.3413 C   0  0  0  0  0  0  0  0  0  0  0  0
   18.1375  -26.2497  -10.8746 C   0  0  2  0  0  0  0  0  0  0  0  0
   18.8786  -27.5085  -10.8336 N   0  0  0  0  0  0  0  0  0  0  0  0
   16.9423  -26.3801  -10.0331 C   0  0  0  0  0  0  0  0  0  0  0  0
   16.4656  -25.3701   -9.2045 O   0  0  0  0  0  0  0  0  0  0  0  0
   17.6573  -23.5670  -12.9076 C   0  0  0  0  0  0  0  0  0  0  0  0
   17.0298  -22.3534  -13.0502 C   0  0  0  0  0  0  0  0  0  0  0  0
   16.2615  -27.4518  -10.0150 O   0  0  0  0  0  0  0  0  0  0  0  0
  1  2  1  0
  2  4  1  0
  3  2  2  0
  4  5  1  0
  5  7  1  0
  5  6  1  6
  7  8  2  0
  9  7  1  0
  9 10  1  0
 10 11  1  1
 12 11  1  0
 13 12  2  0
 14 13  1  0
 15 14  1  0
 15 20  2  0
 16 15  1  0
 17 16  2  0
 17 18  1  0
 18 19  2  0
 19 20  1  0
 20 12  1  0
 21 22  2  0
 21 10  1  0
 23 24  1  0
 24 25  2  0
 25 26  1  0
 27 26  2  0
 27 28  1  0
 29 28  1  6
 29 30  1  0
 30 21  1  0
 31 32  1  0
 31 29  1  0
 33 27  1  0
 34 24  1  0
 34 33  2  0
 35 31  2  0
M  END
$$$$
