DQI.pdb
     RDKit          3D

 26 25  0  0  1  0  0  0  0  0999 V2000
   20.9394  -19.1280  -18.3223 N   0  0  0  0  0  0  0  0  0  0  0  0
   21.8305  -18.4779  -17.3780 C   0  0  1  0  0  0  0  0  0  0  0  0
   21.0637  -17.7220  -16.3188 C   0  0  0  0  0  0  0  0  0  0  0  0
   20.5308  -16.4674  -16.8760 C   0  0  0  0  0  0  0  0  0  0  0  0
   19.3688  -16.1034  -16.6057 O   0  0  0  0  0  0  0  0  0  0  0  0
   22.6542  -19.5417  -16.7064 C   0  0  0  0  0  0  0  0  0  0  0  0
   22.1128  -20.5457  -16.1970 O   0  0  0  0  0  0  0  0  0  0  0  0
   21.3279  -15.6912  -17.7039 O   0  0  0  0  0  0  0  0  0  0  0  0
   28.9094  -20.5580  -17.1746 N   0  0  0  0  0  0  0  0  0  0  0  0
   28.5616  -21.3477  -16.0279 C   0  0  0  0  0  0  0  0  0  0  0  0
   29.4655  -22.0131  -15.4743 O   0  0  0  0  0  0  0  0  0  0  0  0
   27.1484  -21.3044  -15.5946 C   0  0  0  0  0  0  0  0  0  0  0  0
   26.3554  -20.2975  -16.3807 C   0  0  0  0  0  0  0  0  0  0  0  0
   24.9195  -20.3763  -15.9850 C   0  0  2  0  0  0  0  0  0  0  0  0
   24.0659  -19.4372  -16.6315 N   0  0  0  0  0  0  0  0  0  0  0  0
   24.8607  -20.0692  -14.5089 C   0  0  0  0  0  0  0  0  0  0  0  0
   24.6899  -18.8843  -14.1630 O   0  0  0  0  0  0  0  0  0  0  0  0
   21.9127  -19.7556   -9.9448 C   0  0  0  0  0  0  0  0  0  0  0  0
   23.3418  -20.0740  -10.3337 C   0  0  0  0  0  0  0  0  0  0  0  0
   23.4079  -20.4471  -11.7795 C   0  0  2  0  0  0  0  0  0  0  0  0
   22.4600  -21.5286  -12.1716 C   0  0  0  0  0  0  0  0  0  0  0  0
   24.8453  -20.7698  -12.1369 C   0  0  2  0  0  0  0  0  0  0  0  0
   24.9927  -21.0768  -13.5363 N   0  0  0  0  0  0  0  0  0  0  0  0
   25.3215  -21.9418  -11.3602 C   0  0  0  0  0  0  0  0  0  0  0  0
   25.5197  -23.1885  -11.9534 O   0  0  0  0  0  0  0  0  0  0  0  0
   25.5634  -21.8472  -10.1325 O   0  0  0  0  0  0  0  0  0  0  0  0
  2  1  1  6
  2  3  1  0
  4  3  1  0
  4  8  1  0
  5  4  2  0
  6  2  1  0
  7  6  2  0
  9 10  1  0
 10 12  1  0
 11 10  2  0
 12 13  1  0
 14 13  1  6
 14 15  1  0
 15  6  1  0
 16 17  2  0
 16 14  1  0
 18 19  1  0
 19 20  1  0
 20 22  1  0
 20 21  1  1
 22 23  1  6
 23 16  1  0
 24 22  1  0
 25 24  1  0
 26 24  2  0
M  END
$$$$
