DQI.pdb
     RDKit          3D

 26 25  0  0  1  0  0  0  0  0999 V2000
   14.1530   -9.6002  -13.4671 N   0  0  0  0  0  0  0  0  0  0  0  0
   15.5732   -9.7438  -13.2016 C   0  0  1  0  0  0  0  0  0  0  0  0
   16.2641  -10.5399  -14.2834 C   0  0  0  0  0  0  0  0  0  0  0  0
   15.9824  -11.9755  -14.1157 C   0  0  0  0  0  0  0  0  0  0  0  0
   15.4550  -12.3939  -13.0655 O   0  0  0  0  0  0  0  0  0  0  0  0
   16.1803   -8.3688  -13.1562 C   0  0  0  0  0  0  0  0  0  0  0  0
   16.3213   -7.6955  -14.1990 O   0  0  0  0  0  0  0  0  0  0  0  0
   16.3064  -12.8617  -15.1320 O   0  0  0  0  0  0  0  0  0  0  0  0
   15.9226   -4.5971   -8.2202 N   0  0  0  0  0  0  0  0  0  0  0  0
   14.9026   -4.7194   -9.2221 C   0  0  0  0  0  0  0  0  0  0  0  0
   13.7731   -4.2404   -8.9750 O   0  0  0  0  0  0  0  0  0  0  0  0
   15.2804   -5.4080  -10.4751 C   0  0  0  0  0  0  0  0  0  0  0  0
   16.7248   -5.8260  -10.4672 C   0  0  0  0  0  0  0  0  0  0  0  0
   17.0672   -6.4578  -11.7742 C   0  0  2  0  0  0  0  0  0  0  0  0
   16.6094   -7.7972  -11.9320 N   0  0  0  0  0  0  0  0  0  0  0  0
   18.5734   -6.5040  -11.8502 C   0  0  0  0  0  0  0  0  0  0  0  0
   19.1846   -7.1536  -10.9802 O   0  0  0  0  0  0  0  0  0  0  0  0
   21.2194   -8.9588  -15.1144 C   0  0  0  0  0  0  0  0  0  0  0  0
   20.7549   -8.1258  -13.9373 C   0  0  0  0  0  0  0  0  0  0  0  0
   21.2121   -6.7120  -14.0983 C   0  0  2  0  0  0  0  0  0  0  0  0
   22.6782   -6.5703  -14.3274 C   0  0  0  0  0  0  0  0  0  0  0  0
   20.7231   -5.9011  -12.9146 C   0  0  2  0  0  0  0  0  0  0  0  0
   19.2850   -5.8398  -12.8656 N   0  0  0  0  0  0  0  0  0  0  0  0
   21.2366   -4.5105  -12.9917 C   0  0  0  0  0  0  0  0  0  0  0  0
   22.4779   -4.1525  -12.4660 O   0  0  0  0  0  0  0  0  0  0  0  0
   20.5633   -3.6033  -13.5381 O   0  0  0  0  0  0  0  0  0  0  0  0
  2  1  1  6
  2  3  1  0
  4  3  1  0
  4  8  1  0
  5  4  2  0
  6  2  1  0
  7  6  2  0
  9 10  1  0
 10 12  1  0
 11 10  2  0
 12 13  1  0
 14 13  1  1
 14 15  1  0
 15  6  1  0
 16 17  2  0
 16 14  1  0
 18 19  1  0
 19 20  1  0
 20 22  1  0
 20 21  1  1
 22 23  1  6
 23 16  1  0
 24 22  1  0
 25 24  1  0
 26 24  2  0
M  END
$$$$
