DQI.pdb
     RDKit          3D

 26 25  0  0  1  0  0  0  0  0999 V2000
   17.5463  -11.0223  -16.3382 N   0  0  0  0  0  0  0  0  0  0  0  0
   18.1676  -10.2514  -15.2762 C   0  0  1  0  0  0  0  0  0  0  0  0
   19.0732   -9.1750  -15.8262 C   0  0  0  0  0  0  0  0  0  0  0  0
   20.2663   -9.7808  -16.4413 C   0  0  0  0  0  0  0  0  0  0  0  0
   20.8090  -10.7733  -15.9155 O   0  0  0  0  0  0  0  0  0  0  0  0
   17.0759   -9.5966  -14.4757 C   0  0  0  0  0  0  0  0  0  0  0  0
   16.1829   -8.9271  -15.0367 O   0  0  0  0  0  0  0  0  0  0  0  0
   20.7845   -9.2422  -17.6094 O   0  0  0  0  0  0  0  0  0  0  0  0
   13.9751  -12.0426   -9.8590 N   0  0  0  0  0  0  0  0  0  0  0  0
   13.4828  -10.6963   -9.7936 C   0  0  0  0  0  0  0  0  0  0  0  0
   12.4922  -10.4656   -9.0645 O   0  0  0  0  0  0  0  0  0  0  0  0
   14.1992   -9.6864  -10.6022 C   0  0  0  0  0  0  0  0  0  0  0  0
   15.3270  -10.2983  -11.3861 C   0  0  0  0  0  0  0  0  0  0  0  0
   15.9621   -9.2546  -12.2417 C   0  0  2  0  0  0  0  0  0  0  0  0
   17.0279   -9.7193  -13.0643 N   0  0  0  0  0  0  0  0  0  0  0  0
   16.5538   -8.2299  -11.3055 C   0  0  0  0  0  0  0  0  0  0  0  0
   17.6414   -8.4947  -10.7583 O   0  0  0  0  0  0  0  0  0  0  0  0
   16.2049   -3.0773  -12.6984 C   0  0  0  0  0  0  0  0  0  0  0  0
   16.5773   -4.4553  -12.1909 C   0  0  0  0  0  0  0  0  0  0  0  0
   16.1954   -4.5916  -10.7523 C   0  0  2  0  0  0  0  0  0  0  0  0
   16.7391   -3.5160   -9.8752 C   0  0  0  0  0  0  0  0  0  0  0  0
   16.5694   -5.9812  -10.2757 C   0  0  2  0  0  0  0  0  0  0  0  0
   15.9117   -7.0057  -11.0452 N   0  0  0  0  0  0  0  0  0  0  0  0
   16.1855   -6.1617   -8.8533 C   0  0  0  0  0  0  0  0  0  0  0  0
   17.0964   -5.9735   -7.8139 O   0  0  0  0  0  0  0  0  0  0  0  0
   15.0170   -6.4927   -8.5372 O   0  0  0  0  0  0  0  0  0  0  0  0
  2  1  1  6
  2  3  1  0
  4  3  1  0
  4  8  1  0
  5  4  2  0
  6  2  1  0
  7  6  2  0
  9 10  1  0
 10 12  1  0
 11 10  2  0
 12 13  1  0
 14 13  1  1
 14 15  1  0
 15  6  1  0
 16 17  2  0
 16 14  1  0
 18 19  1  0
 19 20  1  0
 20 22  1  0
 20 21  1  1
 22 23  1  6
 23 16  1  0
 24 22  1  0
 25 24  1  0
 26 24  2  0
M  END
$$$$
