DQI.pdb
     RDKit          3D

 26 25  0  0  1  0  0  0  0  0999 V2000
   28.8231  -20.1099  -17.8744 N   0  0  0  0  0  0  0  0  0  0  0  0
   27.9244  -21.1082  -17.3231 C   0  0  1  0  0  0  0  0  0  0  0  0
   28.6607  -22.1018  -16.4560 C   0  0  0  0  0  0  0  0  0  0  0  0
   29.3051  -23.1271  -17.2939 C   0  0  0  0  0  0  0  0  0  0  0  0
   29.1222  -23.1362  -18.5278 O   0  0  0  0  0  0  0  0  0  0  0  0
   26.9024  -20.3992  -16.4780 C   0  0  0  0  0  0  0  0  0  0  0  0
   27.2526  -19.6011  -15.5831 O   0  0  0  0  0  0  0  0  0  0  0  0
   30.1176  -24.0839  -16.7043 O   0  0  0  0  0  0  0  0  0  0  0  0
   20.6868  -19.7850  -17.6928 N   0  0  0  0  0  0  0  0  0  0  0  0
   20.8749  -18.9778  -16.5213 C   0  0  0  0  0  0  0  0  0  0  0  0
   19.9092  -18.2925  -16.1164 O   0  0  0  0  0  0  0  0  0  0  0  0
   22.2094  -19.0284  -15.8863 C   0  0  0  0  0  0  0  0  0  0  0  0
   23.1820  -19.8388  -16.6975 C   0  0  0  0  0  0  0  0  0  0  0  0
   24.4788  -19.9370  -15.9672 C   0  0  2  0  0  0  0  0  0  0  0  0
   25.5147  -20.6149  -16.6713 N   0  0  0  0  0  0  0  0  0  0  0  0
   24.2107  -20.7375  -14.7166 C   0  0  0  0  0  0  0  0  0  0  0  0
   23.9730  -21.9545  -14.8393 O   0  0  0  0  0  0  0  0  0  0  0  0
   25.6745  -21.2073   -8.8708 C   0  0  0  0  0  0  0  0  0  0  0  0
   24.6841  -21.4910   -9.9816 C   0  0  0  0  0  0  0  0  0  0  0  0
   24.9423  -20.5845  -11.1416 C   0  0  2  0  0  0  0  0  0  0  0  0
   24.9166  -19.1346  -10.7967 C   0  0  0  0  0  0  0  0  0  0  0  0
   23.9840  -20.9374  -12.2618 C   0  0  2  0  0  0  0  0  0  0  0  0
   24.2242  -20.1457  -13.4406 N   0  0  0  0  0  0  0  0  0  0  0  0
   22.5811  -20.7065  -11.8353 C   0  0  0  0  0  0  0  0  0  0  0  0
   21.8143  -19.6638  -12.3552 O   0  0  0  0  0  0  0  0  0  0  0  0
   22.0346  -21.4497  -10.9844 O   0  0  0  0  0  0  0  0  0  0  0  0
  2  1  1  1
  2  3  1  0
  4  3  1  0
  4  8  1  0
  5  4  2  0
  6  2  1  0
  7  6  2  0
  9 10  1  0
 10 12  1  0
 11 10  2  0
 12 13  1  0
 14 13  1  6
 14 15  1  0
 15  6  1  0
 16 17  2  0
 16 14  1  0
 18 19  1  0
 19 20  1  0
 20 22  1  0
 20 21  1  1
 22 23  1  6
 23 16  1  0
 24 22  1  0
 25 24  1  0
 26 24  2  0
M  END
$$$$
