DQI.pdb
     RDKit          3D

 26 25  0  0  1  0  0  0  0  0999 V2000
   16.3931  -12.2630  -12.3087 N   0  0  0  0  0  0  0  0  0  0  0  0
   15.7519  -10.9611  -12.3534 C   0  0  1  0  0  0  0  0  0  0  0  0
   14.2562  -11.0707  -12.1735 C   0  0  0  0  0  0  0  0  0  0  0  0
   13.6561  -11.7662  -13.3245 C   0  0  0  0  0  0  0  0  0  0  0  0
   12.8442  -12.6958  -13.1435 O   0  0  0  0  0  0  0  0  0  0  0  0
   16.3098  -10.1280  -11.2328 C   0  0  0  0  0  0  0  0  0  0  0  0
   16.4610  -10.6092  -10.0899 O   0  0  0  0  0  0  0  0  0  0  0  0
   13.9982  -11.3826  -14.6126 O   0  0  0  0  0  0  0  0  0  0  0  0
   21.1655   -6.7819  -11.4446 N   0  0  0  0  0  0  0  0  0  0  0  0
   20.1900   -6.6614  -12.4900 C   0  0  0  0  0  0  0  0  0  0  0  0
   20.5645   -6.2133  -13.5969 O   0  0  0  0  0  0  0  0  0  0  0  0
   18.8107   -7.0839  -12.1644 C   0  0  0  0  0  0  0  0  0  0  0  0
   18.6923   -7.5486  -10.7393 C   0  0  0  0  0  0  0  0  0  0  0  0
   17.2796   -7.9354  -10.4578 C   0  0  2  0  0  0  0  0  0  0  0  0
   16.6799   -8.7753  -11.4394 N   0  0  0  0  0  0  0  0  0  0  0  0
   16.4781   -6.6572  -10.4345 C   0  0  0  0  0  0  0  0  0  0  0  0
   15.9042   -6.3061  -11.4833 O   0  0  0  0  0  0  0  0  0  0  0  0
   12.4735   -6.0174   -7.4395 C   0  0  0  0  0  0  0  0  0  0  0  0
   13.5188   -5.8759   -8.5269 C   0  0  0  0  0  0  0  0  0  0  0  0
   14.4711   -4.7769   -8.1818 C   0  0  2  0  0  0  0  0  0  0  0  0
   13.8148   -3.4640   -7.9221 C   0  0  0  0  0  0  0  0  0  0  0  0
   15.5368   -4.6965   -9.2568 C   0  0  2  0  0  0  0  0  0  0  0  0
   16.3699   -5.8712   -9.2731 N   0  0  0  0  0  0  0  0  0  0  0  0
   16.4124   -3.5194   -9.0312 C   0  0  0  0  0  0  0  0  0  0  0  0
   17.7320   -3.6536   -8.5997 O   0  0  0  0  0  0  0  0  0  0  0  0
   15.9889   -2.3537   -9.2234 O   0  0  0  0  0  0  0  0  0  0  0  0
  2  1  1  1
  2  3  1  0
  4  3  1  0
  4  8  1  0
  5  4  2  0
  6  2  1  0
  7  6  2  0
  9 10  1  0
 10 12  1  0
 11 10  2  0
 12 13  1  0
 14 13  1  6
 14 15  1  0
 15  6  1  0
 16 17  2  0
 16 14  1  0
 18 19  1  0
 19 20  1  0
 20 22  1  0
 20 21  1  6
 22 23  1  1
 23 16  1  0
 24 22  1  0
 25 24  1  0
 26 24  2  0
M  END
$$$$
