DQI.pdb
     RDKit          3D

 26 25  0  0  1  0  0  0  0  0999 V2000
   17.0496  -14.5413  -17.4995 N   0  0  0  0  0  0  0  0  0  0  0  0
   16.8459  -13.7368  -16.3081 C   0  0  1  0  0  0  0  0  0  0  0  0
   17.4718  -14.3761  -15.0911 C   0  0  0  0  0  0  0  0  0  0  0  0
   16.7284  -15.5909  -14.7169 C   0  0  0  0  0  0  0  0  0  0  0  0
   15.4812  -15.5825  -14.6944 O   0  0  0  0  0  0  0  0  0  0  0  0
   17.4934  -12.3984  -16.5331 C   0  0  0  0  0  0  0  0  0  0  0  0
   18.4667  -12.2790  -17.3070 O   0  0  0  0  0  0  0  0  0  0  0  0
   17.4221  -16.7462  -14.3891 O   0  0  0  0  0  0  0  0  0  0  0  0
   15.8587   -7.5509  -17.9666 N   0  0  0  0  0  0  0  0  0  0  0  0
   16.8511   -6.8542  -17.1992 C   0  0  0  0  0  0  0  0  0  0  0  0
   17.2757   -5.7617  -17.6379 O   0  0  0  0  0  0  0  0  0  0  0  0
   17.2894   -7.4952  -15.9407 C   0  0  0  0  0  0  0  0  0  0  0  0
   16.6064   -8.8167  -15.7214 C   0  0  0  0  0  0  0  0  0  0  0  0
   17.5467   -9.9247  -16.0571 C   0  0  2  0  0  0  0  0  0  0  0  0
   17.0198  -11.2354  -15.8754 N   0  0  0  0  0  0  0  0  0  0  0  0
   18.7194   -9.7960  -15.1164 C   0  0  0  0  0  0  0  0  0  0  0  0
   18.5536  -10.1215  -13.9251 O   0  0  0  0  0  0  0  0  0  0  0  0
   24.4558  -10.9835  -14.4377 C   0  0  0  0  0  0  0  0  0  0  0  0
   23.3023  -10.0870  -14.0365 C   0  0  0  0  0  0  0  0  0  0  0  0
   22.2393  -10.1196  -15.0867 C   0  0  2  0  0  0  0  0  0  0  0  0
   22.7256   -9.7782  -16.4537 C   0  0  0  0  0  0  0  0  0  0  0  0
   21.0834   -9.2460  -14.6409 C   0  0  2  0  0  0  0  0  0  0  0  0
   19.9709   -9.3246  -15.5522 N   0  0  0  0  0  0  0  0  0  0  0  0
   21.5082   -7.8259  -14.5610 C   0  0  0  0  0  0  0  0  0  0  0  0
   22.1673   -7.3151  -13.4430 O   0  0  0  0  0  0  0  0  0  0  0  0
   21.2855   -7.0315  -15.5067 O   0  0  0  0  0  0  0  0  0  0  0  0
  2  1  1  6
  2  3  1  0
  4  3  1  0
  4  8  1  0
  5  4  2  0
  6  2  1  0
  7  6  2  0
  9 10  1  0
 10 12  1  0
 11 10  2  0
 12 13  1  0
 14 13  1  1
 14 15  1  0
 15  6  1  0
 16 17  2  0
 16 14  1  0
 18 19  1  0
 19 20  1  0
 20 22  1  0
 20 21  1  6
 22 23  1  6
 23 16  1  0
 24 22  1  0
 25 24  1  0
 26 24  2  0
M  END
$$$$
