DQI.pdb
     RDKit          3D

 26 25  0  0  1  0  0  0  0  0999 V2000
   22.0098  -11.6815  -20.7563 N   0  0  0  0  0  0  0  0  0  0  0  0
   20.9905  -10.6683  -20.5499 C   0  0  1  0  0  0  0  0  0  0  0  0
   19.7474  -11.2497  -19.9189 C   0  0  0  0  0  0  0  0  0  0  0  0
   19.0120  -12.0630  -20.9019 C   0  0  0  0  0  0  0  0  0  0  0  0
   18.9767  -11.7199  -22.1007 O   0  0  0  0  0  0  0  0  0  0  0  0
   21.5527   -9.6229  -19.6267 C   0  0  0  0  0  0  0  0  0  0  0  0
   22.5134   -9.8838  -18.8719 O   0  0  0  0  0  0  0  0  0  0  0  0
   18.3579  -13.2138  -20.4884 O   0  0  0  0  0  0  0  0  0  0  0  0
   20.3593   -3.3586  -19.8421 N   0  0  0  0  0  0  0  0  0  0  0  0
   21.4609   -3.4585  -18.9278 C   0  0  0  0  0  0  0  0  0  0  0  0
   21.9801   -2.3983  -18.5123 O   0  0  0  0  0  0  0  0  0  0  0  0
   21.8904   -4.8224  -18.5506 C   0  0  0  0  0  0  0  0  0  0  0  0
   21.1050   -5.8758  -19.2816 C   0  0  0  0  0  0  0  0  0  0  0  0
   21.5588   -7.2277  -18.8447 C   0  0  2  0  0  0  0  0  0  0  0  0
   21.0107   -8.3137  -19.5855 N   0  0  0  0  0  0  0  0  0  0  0  0
   21.0951   -7.3992  -17.4191 C   0  0  0  0  0  0  0  0  0  0  0  0
   19.8948   -7.6692  -17.2216 O   0  0  0  0  0  0  0  0  0  0  0  0
   23.5118  -10.7287  -14.5508 C   0  0  0  0  0  0  0  0  0  0  0  0
   22.5041   -9.7630  -15.1400 C   0  0  0  0  0  0  0  0  0  0  0  0
   22.4091   -8.5389  -14.2877 C   0  0  2  0  0  0  0  0  0  0  0  0
   21.9776   -8.8068  -12.8862 C   0  0  0  0  0  0  0  0  0  0  0  0
   21.5293   -7.5219  -14.9873 C   0  0  2  0  0  0  0  0  0  0  0  0
   21.9765   -7.2623  -16.3315 N   0  0  0  0  0  0  0  0  0  0  0  0
   21.5363   -6.2350  -14.2476 C   0  0  0  0  0  0  0  0  0  0  0  0
   20.6978   -6.0067  -13.1567 O   0  0  0  0  0  0  0  0  0  0  0  0
   22.3049   -5.3016  -14.5838 O   0  0  0  0  0  0  0  0  0  0  0  0
  2  1  1  1
  2  3  1  0
  4  3  1  0
  4  8  1  0
  5  4  2  0
  6  2  1  0
  7  6  2  0
  9 10  1  0
 10 12  1  0
 11 10  2  0
 12 13  1  0
 14 13  1  6
 14 15  1  0
 15  6  1  0
 16 17  2  0
 16 14  1  0
 18 19  1  0
 19 20  1  0
 20 22  1  0
 20 21  1  1
 22 23  1  6
 23 16  1  0
 24 22  1  0
 25 24  1  0
 26 24  2  0
M  END
$$$$
