DQI.pdb
     RDKit          3D

 26 25  0  0  1  0  0  0  0  0999 V2000
   22.8336  -17.7576  -17.4638 N   0  0  0  0  0  0  0  0  0  0  0  0
   23.3512  -17.5110  -16.1298 C   0  0  1  0  0  0  0  0  0  0  0  0
   22.2567  -17.0928  -15.1766 C   0  0  0  0  0  0  0  0  0  0  0  0
   21.6180  -15.8530  -15.6493 C   0  0  0  0  0  0  0  0  0  0  0  0
   22.3133  -14.8575  -15.9352 O   0  0  0  0  0  0  0  0  0  0  0  0
   23.9651  -18.7873  -15.6247 C   0  0  0  0  0  0  0  0  0  0  0  0
   23.2631  -19.6639  -15.0775 O   0  0  0  0  0  0  0  0  0  0  0  0
   20.2381  -15.7969  -15.7756 O   0  0  0  0  0  0  0  0  0  0  0  0
   29.6614  -21.0569  -17.2897 N   0  0  0  0  0  0  0  0  0  0  0  0
   29.1267  -22.1107  -16.4755 C   0  0  0  0  0  0  0  0  0  0  0  0
   29.7695  -23.1819  -16.4007 O   0  0  0  0  0  0  0  0  0  0  0  0
   27.8478  -21.8347  -15.7863 C   0  0  0  0  0  0  0  0  0  0  0  0
   27.3157  -20.4698  -16.1250 C   0  0  0  0  0  0  0  0  0  0  0  0
   25.9943  -20.2721  -15.4621 C   0  0  2  0  0  0  0  0  0  0  0  0
   25.3552  -19.0333  -15.7543 N   0  0  0  0  0  0  0  0  0  0  0  0
   26.2506  -20.2862  -13.9752 C   0  0  0  0  0  0  0  0  0  0  0  0
   26.9864  -19.4007  -13.4988 O   0  0  0  0  0  0  0  0  0  0  0  0
   26.5201  -18.4701   -9.3663 C   0  0  0  0  0  0  0  0  0  0  0  0
   26.9141  -19.6097  -10.2835 C   0  0  0  0  0  0  0  0  0  0  0  0
   25.6988  -20.1852  -10.9360 C   0  0  2  0  0  0  0  0  0  0  0  0
   24.5887  -20.4911   -9.9895 C   0  0  0  0  0  0  0  0  0  0  0  0
   26.1100  -21.3863  -11.7645 C   0  0  2  0  0  0  0  0  0  0  0  0
   25.6846  -21.2619  -13.1348 N   0  0  0  0  0  0  0  0  0  0  0  0
   25.5107  -22.6266  -11.2115 C   0  0  0  0  0  0  0  0  0  0  0  0
   24.5304  -23.3420  -11.8991 O   0  0  0  0  0  0  0  0  0  0  0  0
   25.8706  -23.0757  -10.0964 O   0  0  0  0  0  0  0  0  0  0  0  0
  2  1  1  6
  2  3  1  0
  4  3  1  0
  4  8  1  0
  5  4  2  0
  6  2  1  0
  7  6  2  0
  9 10  1  0
 10 12  1  0
 11 10  2  0
 12 13  1  0
 14 13  1  6
 14 15  1  0
 15  6  1  0
 16 17  2  0
 16 14  1  0
 18 19  1  0
 19 20  1  0
 20 22  1  0
 20 21  1  1
 22 23  1  6
 23 16  1  0
 24 22  1  0
 25 24  1  0
 26 24  2  0
M  END
$$$$
