DQI.pdb
     RDKit          3D

 26 25  0  0  1  0  0  0  0  0999 V2000
   26.5815  -38.2522   -6.1012 N   0  0  0  0  0  0  0  0  0  0  0  0
   25.8754  -38.6867   -4.9093 C   0  0  1  0  0  0  0  0  0  0  0  0
   26.4080  -40.0035   -4.3957 C   0  0  0  0  0  0  0  0  0  0  0  0
   25.4237  -40.6350   -3.5008 C   0  0  0  0  0  0  0  0  0  0  0  0
   24.3576  -40.0486   -3.2257 O   0  0  0  0  0  0  0  0  0  0  0  0
   26.0710  -37.6425   -3.8450 C   0  0  0  0  0  0  0  0  0  0  0  0
   27.2139  -37.3564   -3.4298 O   0  0  0  0  0  0  0  0  0  0  0  0
   25.6875  -41.8864   -2.9645 O   0  0  0  0  0  0  0  0  0  0  0  0
   25.6749  -32.6966   -1.8618 N   0  0  0  0  0  0  0  0  0  0  0  0
   25.5941  -32.7874   -3.2917 C   0  0  0  0  0  0  0  0  0  0  0  0
   26.2545  -31.9708   -3.9724 O   0  0  0  0  0  0  0  0  0  0  0  0
   24.7281  -33.8520   -3.8426 C   0  0  0  0  0  0  0  0  0  0  0  0
   24.1310  -34.7023   -2.7557 C   0  0  0  0  0  0  0  0  0  0  0  0
   25.0643  -35.8186   -2.4278 C   0  0  2  0  0  0  0  0  0  0  0  0
   24.9670  -36.9536   -3.2827 N   0  0  0  0  0  0  0  0  0  0  0  0
   24.7034  -36.2900   -1.0407 C   0  0  0  0  0  0  0  0  0  0  0  0
   23.7525  -37.0864   -0.9211 O   0  0  0  0  0  0  0  0  0  0  0  0
   28.3324  -37.6133    2.6103 C   0  0  0  0  0  0  0  0  0  0  0  0
   27.1152  -37.4347    1.7262 C   0  0  0  0  0  0  0  0  0  0  0  0
   26.1734  -36.4522    2.3440 C   0  0  2  0  0  0  0  0  0  0  0  0
   25.7628  -36.7967    3.7349 C   0  0  0  0  0  0  0  0  0  0  0  0
   24.9912  -36.2564    1.4156 C   0  0  2  0  0  0  0  0  0  0  0  0
   25.4075  -35.8549    0.0966 N   0  0  0  0  0  0  0  0  0  0  0  0
   24.0838  -35.2084    1.9464 C   0  0  0  0  0  0  0  0  0  0  0  0
   23.0485  -35.5085    2.8316 O   0  0  0  0  0  0  0  0  0  0  0  0
   24.2206  -34.0066    1.6121 O   0  0  0  0  0  0  0  0  0  0  0  0
  2  1  1  6
  2  3  1  0
  4  3  1  0
  4  8  1  0
  5  4  2  0
  6  2  1  0
  7  6  2  0
  9 10  1  0
 10 12  1  0
 11 10  2  0
 12 13  1  0
 14 13  1  6
 14 15  1  0
 15  6  1  0
 16 17  2  0
 16 14  1  0
 18 19  1  0
 19 20  1  0
 20 22  1  0
 20 21  1  1
 22 23  1  6
 23 16  1  0
 24 22  1  0
 25 24  1  0
 26 24  2  0
M  END
$$$$
