DQI.pdb
     RDKit          3D

 26 25  0  0  1  0  0  0  0  0999 V2000
   16.3098  -13.9880  -15.3038 N   0  0  0  0  0  0  0  0  0  0  0  0
   16.9810  -14.1084  -16.5857 C   0  0  1  0  0  0  0  0  0  0  0  0
   16.0261  -14.5323  -17.6764 C   0  0  0  0  0  0  0  0  0  0  0  0
   15.4805  -15.8682  -17.3825 C   0  0  0  0  0  0  0  0  0  0  0  0
   16.2079  -16.7470  -16.8780 O   0  0  0  0  0  0  0  0  0  0  0  0
   17.5494  -12.7626  -16.9423 C   0  0  0  0  0  0  0  0  0  0  0  0
   18.1622  -12.5898  -18.0171 O   0  0  0  0  0  0  0  0  0  0  0  0
   14.1523  -16.1452  -17.6695 O   0  0  0  0  0  0  0  0  0  0  0  0
   15.3085   -7.1236  -15.7738 N   0  0  0  0  0  0  0  0  0  0  0  0
   16.6071   -6.8011  -16.2924 C   0  0  0  0  0  0  0  0  0  0  0  0
   16.8634   -5.6005  -16.5353 O   0  0  0  0  0  0  0  0  0  0  0  0
   17.5410   -7.9296  -16.4955 C   0  0  0  0  0  0  0  0  0  0  0  0
   16.9172   -9.2441  -16.1160 C   0  0  0  0  0  0  0  0  0  0  0  0
   17.9017  -10.3433  -16.3333 C   0  0  2  0  0  0  0  0  0  0  0  0
   17.4070  -11.6530  -16.0717 N   0  0  0  0  0  0  0  0  0  0  0  0
   19.0336  -10.1072  -15.3638 C   0  0  0  0  0  0  0  0  0  0  0  0
   18.8277  -10.3337  -14.1560 O   0  0  0  0  0  0  0  0  0  0  0  0
   23.7016  -12.1377  -16.0839 C   0  0  0  0  0  0  0  0  0  0  0  0
   22.4217  -11.4939  -15.5914 C   0  0  0  0  0  0  0  0  0  0  0  0
   22.6560  -10.0469  -15.2993 C   0  0  2  0  0  0  0  0  0  0  0  0
   23.7790   -9.7926  -14.3527 C   0  0  0  0  0  0  0  0  0  0  0  0
   21.3524   -9.4220  -14.8433 C   0  0  2  0  0  0  0  0  0  0  0  0
   20.2915   -9.6453  -15.7914 N   0  0  0  0  0  0  0  0  0  0  0  0
   21.5121   -7.9559  -14.6743 C   0  0  0  0  0  0  0  0  0  0  0  0
   21.0887   -7.0509  -15.6475 O   0  0  0  0  0  0  0  0  0  0  0  0
   22.0386   -7.4791  -13.6398 O   0  0  0  0  0  0  0  0  0  0  0  0
  2  1  1  1
  2  3  1  0
  4  3  1  0
  4  8  1  0
  5  4  2  0
  6  2  1  0
  7  6  2  0
  9 10  1  0
 10 12  1  0
 11 10  2  0
 12 13  1  0
 14 13  1  1
 14 15  1  0
 15  6  1  0
 16 17  2  0
 16 14  1  0
 18 19  1  0
 19 20  1  0
 20 22  1  0
 20 21  1  1
 22 23  1  6
 23 16  1  0
 24 22  1  0
 25 24  1  0
 26 24  2  0
M  END
$$$$
