DQI.pdb
     RDKit          3D

 26 25  0  0  1  0  0  0  0  0999 V2000
   22.5729  -18.0536  -15.8038 N   0  0  0  0  0  0  0  0  0  0  0  0
   23.7061  -17.2593  -15.3643 C   0  0  1  0  0  0  0  0  0  0  0  0
   25.0176  -17.8833  -15.7792 C   0  0  0  0  0  0  0  0  0  0  0  0
   25.1202  -19.2517  -15.2451 C   0  0  0  0  0  0  0  0  0  0  0  0
   26.1560  -19.9220  -15.4290 O   0  0  0  0  0  0  0  0  0  0  0  0
   23.5985  -15.9014  -16.0012 C   0  0  0  0  0  0  0  0  0  0  0  0
   24.3278  -15.5854  -16.9649 O   0  0  0  0  0  0  0  0  0  0  0  0
   24.0585  -19.7928  -14.5356 O   0  0  0  0  0  0  0  0  0  0  0  0
   18.4870  -12.2538  -16.0854 N   0  0  0  0  0  0  0  0  0  0  0  0
   19.4379  -11.4527  -16.8019 C   0  0  0  0  0  0  0  0  0  0  0  0
   19.0273  -10.4135  -17.3655 O   0  0  0  0  0  0  0  0  0  0  0  0
   20.8374  -11.9303  -16.8102 C   0  0  0  0  0  0  0  0  0  0  0  0
   20.9780  -13.2551  -16.1131 C   0  0  0  0  0  0  0  0  0  0  0  0
   22.4052  -13.6871  -16.1486 C   0  0  2  0  0  0  0  0  0  0  0  0
   22.6684  -14.9418  -15.5280 N   0  0  0  0  0  0  0  0  0  0  0  0
   23.1890  -12.6519  -15.3800 C   0  0  0  0  0  0  0  0  0  0  0  0
   23.1701  -12.7073  -14.1354 O   0  0  0  0  0  0  0  0  0  0  0  0
   28.1493  -11.5495  -16.2572 C   0  0  0  0  0  0  0  0  0  0  0  0
   26.7517  -11.7122  -15.6955 C   0  0  0  0  0  0  0  0  0  0  0  0
   26.0209  -10.4099  -15.7555 C   0  0  2  0  0  0  0  0  0  0  0  0
   26.7087   -9.2943  -15.0452 C   0  0  0  0  0  0  0  0  0  0  0  0
   24.5995  -10.6230  -15.2738 C   0  0  2  0  0  0  0  0  0  0  0  0
   23.9257  -11.6460  -16.0312 N   0  0  0  0  0  0  0  0  0  0  0  0
   23.8155   -9.3692  -15.4024 C   0  0  0  0  0  0  0  0  0  0  0  0
   23.5615   -8.5427  -14.3079 O   0  0  0  0  0  0  0  0  0  0  0  0
   23.3515   -9.0091  -16.5114 O   0  0  0  0  0  0  0  0  0  0  0  0
  2  1  1  6
  2  3  1  0
  4  3  1  0
  4  8  1  0
  5  4  2  0
  6  2  1  0
  7  6  2  0
  9 10  1  0
 10 12  1  0
 11 10  2  0
 12 13  1  0
 14 13  1  1
 14 15  1  0
 15  6  1  0
 16 17  2  0
 16 14  1  0
 18 19  1  0
 19 20  1  0
 20 22  1  0
 20 21  1  1
 22 23  1  6
 23 16  1  0
 24 22  1  0
 25 24  1  0
 26 24  2  0
M  END
$$$$
