DQI.pdb
     RDKit          3D

 26 25  0  0  1  0  0  0  0  0999 V2000
   24.7080  -18.3687  -17.0166 N   0  0  0  0  0  0  0  0  0  0  0  0
   24.4394  -17.2470  -16.1346 C   0  0  1  0  0  0  0  0  0  0  0  0
   23.3760  -16.3359  -16.7008 C   0  0  0  0  0  0  0  0  0  0  0  0
   23.3587  -16.4279  -18.1705 C   0  0  0  0  0  0  0  0  0  0  0  0
   23.2334  -15.3980  -18.8631 O   0  0  0  0  0  0  0  0  0  0  0  0
   23.9530  -17.7932  -14.8208 C   0  0  0  0  0  0  0  0  0  0  0  0
   23.7616  -17.0384  -13.8440 O   0  0  0  0  0  0  0  0  0  0  0  0
   23.4824  -17.6664  -18.7820 O   0  0  0  0  0  0  0  0  0  0  0  0
   20.8234  -23.1846  -13.8191 N   0  0  0  0  0  0  0  0  0  0  0  0
   20.8855  -22.5967  -12.5114 C   0  0  0  0  0  0  0  0  0  0  0  0
   20.2096  -23.1197  -11.5973 O   0  0  0  0  0  0  0  0  0  0  0  0
   21.7548  -21.4105  -12.3564 C   0  0  0  0  0  0  0  0  0  0  0  0
   22.3686  -20.9948  -13.6646 C   0  0  0  0  0  0  0  0  0  0  0  0
   23.2017  -19.7750  -13.4582 C   0  0  2  0  0  0  0  0  0  0  0  0
   23.6977  -19.1774  -14.6521 N   0  0  0  0  0  0  0  0  0  0  0  0
   24.4061  -20.2049  -12.6574 C   0  0  0  0  0  0  0  0  0  0  0  0
   25.4406  -20.5184  -13.2771 O   0  0  0  0  0  0  0  0  0  0  0  0
   27.8466  -18.9746   -8.0220 C   0  0  0  0  0  0  0  0  0  0  0  0
   27.2970  -20.0639   -8.9201 C   0  0  0  0  0  0  0  0  0  0  0  0
   26.0192  -19.6119   -9.5499 C   0  0  2  0  0  0  0  0  0  0  0  0
   24.9694  -19.2085   -8.5716 C   0  0  0  0  0  0  0  0  0  0  0  0
   25.5426  -20.6813  -10.5129 C   0  0  2  0  0  0  0  0  0  0  0  0
   24.3816  -20.2568  -11.2519 N   0  0  0  0  0  0  0  0  0  0  0  0
   25.1868  -21.9200   -9.7765 C   0  0  0  0  0  0  0  0  0  0  0  0
   26.1405  -22.8846   -9.4516 O   0  0  0  0  0  0  0  0  0  0  0  0
   24.0043  -22.1413   -9.4190 O   0  0  0  0  0  0  0  0  0  0  0  0
  2  1  1  6
  2  3  1  0
  4  3  1  0
  4  8  1  0
  5  4  2  0
  6  2  1  0
  7  6  2  0
  9 10  1  0
 10 12  1  0
 11 10  2  0
 12 13  1  0
 14 13  1  6
 14 15  1  0
 15  6  1  0
 16 17  2  0
 16 14  1  0
 18 19  1  0
 19 20  1  0
 20 22  1  0
 20 21  1  1
 22 23  1  1
 23 16  1  0
 24 22  1  0
 25 24  1  0
 26 24  2  0
M  END
$$$$
