RTN.pdb
     RDKit          3D

 27 26  0  0  1  0  0  0  0  0999 V2000
   22.4618  -22.0631   -6.7972 N   0  0  0  0  0  0  0  0  0  0  0  0
   21.7247  -21.5530   -7.9249 C   0  0  0  0  0  0  0  0  0  0  0  0
   20.4453  -21.4793   -7.8195 N   0  0  0  0  0  0  0  0  0  0  0  0
   22.3999  -21.1546   -9.0892 N   0  0  0  0  0  0  0  0  0  0  0  0
   23.8580  -21.2427   -9.1697 C   0  0  0  0  0  0  0  0  0  0  0  0
   24.3560  -20.6677  -10.4655 C   0  0  0  0  0  0  0  0  0  0  0  0
   23.7147  -21.2448  -11.6753 C   0  0  0  0  0  0  0  0  0  0  0  0
   24.5323  -21.2325  -12.9248 C   0  0  2  0  0  0  0  0  0  0  0  0
   25.8258  -21.8351  -12.8262 N   0  0  0  0  0  0  0  0  0  0  0  0
   24.5959  -19.8347  -13.4388 C   0  0  0  0  0  0  0  0  0  0  0  0
   23.8780  -18.9161  -12.9905 O   0  0  0  0  0  0  0  0  0  0  0  0
   19.8434  -21.1208   -8.5835 C   0  0  0  0  0  0  0  0  0  0  0  0
   27.9407  -17.8943  -14.2562 C   0  0  2  0  0  0  0  0  0  0  0  0
   27.0335  -17.9931  -15.4637 O   0  0  0  0  0  0  0  0  0  0  0  0
   27.5339  -18.9100  -16.3988 C   0  0  2  0  0  0  0  0  0  0  0  0
   25.6113  -18.2526  -15.1189 N   0  0  0  0  0  0  0  0  0  0  0  0
   25.5036  -19.5422  -14.4729 C   0  0  0  0  0  0  0  0  0  0  0  0
   24.6543  -18.1089  -16.2396 O   0  0  0  0  0  0  0  0  0  0  0  0
   24.0021  -19.1004  -16.6560 N   0  0  0  0  0  0  0  0  0  0  0  0
   19.7992  -16.7258  -17.4564 C   0  0  0  0  0  0  0  0  0  0  0  0
   20.9311  -15.8514  -17.5064 O   0  0  0  0  0  0  0  0  0  0  0  0
   20.7720  -14.7692  -18.0980 C   0  0  0  0  0  0  0  0  0  0  0  0
   22.1684  -16.2639  -16.8812 C   0  0  1  0  0  0  0  0  0  0  0  0
   23.3285  -16.5732  -17.7677 N   0  0  0  0  0  0  0  0  0  0  0  0
   24.4601  -16.8446  -16.8615 C   0  0  0  0  0  0  0  0  0  0  0  0
   23.6797  -15.4357  -18.6112 O   0  0  0  0  0  0  0  0  0  0  0  0
   24.2078  -14.3955  -18.0743 O   0  0  0  0  0  0  0  0  0  0  0  0
  2  1  1  0
  3  2  2  0
  4  2  1  0
  5  4  1  0
  6  5  1  0
  7  6  1  0
  8  9  1  1
  8 10  1  0
  8  7  1  0
 10 16  1  0
 10 11  2  0
 13 12  1  6
 14 13  1  0
 15 13  1  0
 15 16  1  6
 17 24  1  0
 17 15  1  0
 18 17  2  0
 19 20  1  0
 20 21  2  0
 20 22  1  0
 23 22  1  1
 23 25  1  0
 23 24  1  0
 25 27  1  0
 26 25  2  0
M  END
$$$$
