RTN.pdb
     RDKit          3D

 27 26  0  0  1  0  0  0  0  0999 V2000
   20.5414  -18.9644  -20.5892 N   0  0  0  0  0  0  0  0  0  0  0  0
   21.8517  -19.1160  -21.1682 C   0  0  0  0  0  0  0  0  0  0  0  0
   22.3292  -20.3060  -21.2644 N   0  0  0  0  0  0  0  0  0  0  0  0
   22.5654  -17.9898  -21.6070 N   0  0  0  0  0  0  0  0  0  0  0  0
   23.8443  -18.1444  -22.3006 C   0  0  0  0  0  0  0  0  0  0  0  0
   24.9749  -17.6319  -21.4540 C   0  0  0  0  0  0  0  0  0  0  0  0
   24.8821  -18.0080  -20.0195 C   0  0  0  0  0  0  0  0  0  0  0  0
   25.9736  -17.5047  -19.1335 C   0  0  2  0  0  0  0  0  0  0  0  0
   27.1451  -17.0279  -19.8014 N   0  0  0  0  0  0  0  0  0  0  0  0
   26.2859  -18.5523  -18.1200 C   0  0  0  0  0  0  0  0  0  0  0  0
   27.3945  -19.1245  -18.0586 O   0  0  0  0  0  0  0  0  0  0  0  0
   23.2354  -20.5067  -21.7258 C   0  0  0  0  0  0  0  0  0  0  0  0
   27.6876  -18.2400  -15.8042 C   0  0  2  0  0  0  0  0  0  0  0  0
   26.4150  -18.6614  -15.1015 O   0  0  0  0  0  0  0  0  0  0  0  0
   25.7243  -17.5508  -14.5965 C   0  0  2  0  0  0  0  0  0  0  0  0
   25.5469  -19.5446  -15.9232 N   0  0  0  0  0  0  0  0  0  0  0  0
   25.2869  -18.9091  -17.1962 C   0  0  0  0  0  0  0  0  0  0  0  0
   24.3021  -19.9977  -15.2618 O   0  0  0  0  0  0  0  0  0  0  0  0
   23.2128  -19.4054  -15.4724 N   0  0  0  0  0  0  0  0  0  0  0  0
   25.8545  -23.2301  -11.8593 C   0  0  0  0  0  0  0  0  0  0  0  0
   24.6338  -23.2887  -12.6043 O   0  0  0  0  0  0  0  0  0  0  0  0
   24.5014  -24.2518  -13.3797 C   0  0  0  0  0  0  0  0  0  0  0  0
   23.6447  -22.2497  -12.4191 C   0  0  2  0  0  0  0  0  0  0  0  0
   23.1278  -21.5544  -13.6343 N   0  0  0  0  0  0  0  0  0  0  0  0
   24.3223  -21.1114  -14.3773 C   0  0  0  0  0  0  0  0  0  0  0  0
   22.3413  -20.3758  -13.2864 O   0  0  0  0  0  0  0  0  0  0  0  0
   22.9310  -19.3564  -12.7743 O   0  0  0  0  0  0  0  0  0  0  0  0
  2  1  1  0
  3  2  2  0
  4  2  1  0
  5  4  1  0
  6  5  1  0
  7  6  1  0
  8  9  1  6
  8 10  1  0
  8  7  1  0
 10 16  1  0
 10 11  2  0
 13 12  1  1
 14 13  1  0
 15 13  1  0
 15 16  1  1
 17 24  1  0
 17 15  1  0
 18 17  2  0
 19 20  1  0
 20 21  2  0
 20 22  1  0
 23 22  1  6
 23 25  1  0
 23 24  1  0
 25 27  1  0
 26 25  2  0
M  END
$$$$
