RTN.pdb
     RDKit          3D

 27 26  0  0  1  0  0  0  0  0999 V2000
   29.4238  -21.0696  -17.6645 N   0  0  0  0  0  0  0  0  0  0  0  0
   28.9335  -22.3411  -17.1975 C   0  0  0  0  0  0  0  0  0  0  0  0
   29.6833  -23.3713  -17.3700 N   0  0  0  0  0  0  0  0  0  0  0  0
   27.6775  -22.4299  -16.5770 N   0  0  0  0  0  0  0  0  0  0  0  0
   26.9443  -21.2193  -16.2067 C   0  0  0  0  0  0  0  0  0  0  0  0
   25.5675  -21.2250  -16.8084 C   0  0  0  0  0  0  0  0  0  0  0  0
   24.4674  -21.1178  -15.8154 C   0  0  0  0  0  0  0  0  0  0  0  0
   24.6406  -21.8954  -14.5524 C   0  0  2  0  0  0  0  0  0  0  0  0
   25.2725  -23.1711  -14.6905 N   0  0  0  0  0  0  0  0  0  0  0  0
   23.3210  -21.9880  -13.8651 C   0  0  0  0  0  0  0  0  0  0  0  0
   22.6547  -23.0435  -13.8202 O   0  0  0  0  0  0  0  0  0  0  0  0
   29.4082  -24.3194  -17.0538 C   0  0  0  0  0  0  0  0  0  0  0  0
   20.4481  -19.6864  -10.5429 C   0  0  2  0  0  0  0  0  0  0  0  0
   21.6968  -19.8095  -11.3894 O   0  0  0  0  0  0  0  0  0  0  0  0
   22.8283  -20.0335  -10.5924 C   0  0  1  0  0  0  0  0  0  0  0  0
   21.5729  -20.7997  -12.4908 N   0  0  0  0  0  0  0  0  0  0  0  0
   22.8080  -20.8355  -13.2427 C   0  0  0  0  0  0  0  0  0  0  0  0
   20.3920  -20.6241  -13.3667 O   0  0  0  0  0  0  0  0  0  0  0  0
   20.4040  -19.7763  -14.2956 N   0  0  0  0  0  0  0  0  0  0  0  0
   15.7250  -21.8742  -15.6030 C   0  0  0  0  0  0  0  0  0  0  0  0
   16.0677  -22.7800  -14.5492 O   0  0  0  0  0  0  0  0  0  0  0  0
   15.3927  -23.8214  -14.4696 C   0  0  0  0  0  0  0  0  0  0  0  0
   17.1541  -22.4429  -13.6558 C   0  0  2  0  0  0  0  0  0  0  0  0
   18.0342  -21.2969  -14.0292 N   0  0  0  0  0  0  0  0  0  0  0  0
   19.2259  -21.4138  -13.1681 C   0  0  0  0  0  0  0  0  0  0  0  0
   17.3942  -20.0149  -13.7542 O   0  0  0  0  0  0  0  0  0  0  0  0
   17.2939  -19.6111  -12.5393 O   0  0  0  0  0  0  0  0  0  0  0  0
  2  1  1  0
  3  2  2  0
  4  2  1  0
  5  4  1  0
  6  5  1  0
  7  6  1  0
  8  9  1  6
  8 10  1  0
  8  7  1  0
 10 16  1  0
 10 11  2  0
 13 12  1  1
 14 13  1  0
 15 13  1  0
 15 16  1  6
 17 24  1  0
 17 15  1  0
 18 17  2  0
 19 20  1  0
 20 21  2  0
 20 22  1  0
 23 22  1  6
 23 25  1  0
 23 24  1  0
 25 27  1  0
 26 25  2  0
M  END
$$$$
