RTN.pdb
     RDKit          3D

 27 26  0  0  1  0  0  0  0  0999 V2000
   29.3438  -23.2946  -16.1441 N   0  0  0  0  0  0  0  0  0  0  0  0
   28.1896  -23.8217  -16.8261 C   0  0  0  0  0  0  0  0  0  0  0  0
   27.8284  -25.0243  -16.5489 N   0  0  0  0  0  0  0  0  0  0  0  0
   27.4966  -23.0322  -17.7571 N   0  0  0  0  0  0  0  0  0  0  0  0
   27.4334  -21.5792  -17.5983 C   0  0  0  0  0  0  0  0  0  0  0  0
   27.2540  -21.2084  -16.1533 C   0  0  0  0  0  0  0  0  0  0  0  0
   25.8369  -21.0506  -15.7354 C   0  0  0  0  0  0  0  0  0  0  0  0
   25.0893  -19.9152  -16.3533 C   0  0  2  0  0  0  0  0  0  0  0  0
   25.8600  -18.7428  -16.6317 N   0  0  0  0  0  0  0  0  0  0  0  0
   23.8922  -19.6207  -15.5152 C   0  0  0  0  0  0  0  0  0  0  0  0
   23.9240  -19.6226  -14.2665 O   0  0  0  0  0  0  0  0  0  0  0  0
   27.0665  -25.5083  -17.0586 C   0  0  0  0  0  0  0  0  0  0  0  0
   22.0610  -16.5326  -15.4930 C   0  0  2  0  0  0  0  0  0  0  0  0
   21.0543  -17.5957  -15.8769 O   0  0  0  0  0  0  0  0  0  0  0  0
   20.7232  -17.5115  -17.2365 C   0  0  2  0  0  0  0  0  0  0  0  0
   21.4571  -18.9685  -15.4743 N   0  0  0  0  0  0  0  0  0  0  0  0
   22.6773  -19.3297  -16.1618 C   0  0  0  0  0  0  0  0  0  0  0  0
   20.4074  -20.0024  -15.6215 O   0  0  0  0  0  0  0  0  0  0  0  0
   20.5105  -20.8997  -16.4968 N   0  0  0  0  0  0  0  0  0  0  0  0
   16.0700  -22.7994  -12.7029 C   0  0  0  0  0  0  0  0  0  0  0  0
   16.9285  -22.7410  -13.8466 O   0  0  0  0  0  0  0  0  0  0  0  0
   16.6823  -23.5389  -14.7681 C   0  0  0  0  0  0  0  0  0  0  0  0
   18.0096  -21.7803  -13.8678 C   0  0  2  0  0  0  0  0  0  0  0  0
   18.0854  -20.8411  -15.0252 N   0  0  0  0  0  0  0  0  0  0  0  0
   19.2660  -19.9939  -14.7730 C   0  0  0  0  0  0  0  0  0  0  0  0
   16.9101  -19.9795  -15.0971 O   0  0  0  0  0  0  0  0  0  0  0  0
   16.0483  -20.1698  -16.0300 O   0  0  0  0  0  0  0  0  0  0  0  0
  2  1  1  0
  3  2  2  0
  4  2  1  0
  5  4  1  0
  6  5  1  0
  7  6  1  0
  8  9  1  1
  8 10  1  0
  8  7  1  0
 10 16  1  0
 10 11  2  0
 13 12  1  1
 14 13  1  0
 15 13  1  0
 15 16  1  1
 17 24  1  0
 17 15  1  0
 18 17  2  0
 19 20  1  0
 20 21  2  0
 20 22  1  0
 23 22  1  6
 23 25  1  0
 23 24  1  0
 25 27  1  0
 26 25  2  0
M  END
$$$$
