RTN.pdb
     RDKit          3D

 27 26  0  0  1  0  0  0  0  0999 V2000
   28.5582  -28.5683  -16.0199 N   0  0  0  0  0  0  0  0  0  0  0  0
   29.1453  -28.5387  -17.3350 C   0  0  0  0  0  0  0  0  0  0  0  0
   29.3312  -29.6620  -17.9326 N   0  0  0  0  0  0  0  0  0  0  0  0
   29.4942  -27.3143  -17.9263 N   0  0  0  0  0  0  0  0  0  0  0  0
   29.0471  -26.0513  -17.3387 C   0  0  0  0  0  0  0  0  0  0  0  0
   27.7297  -25.6279  -17.9242 C   0  0  0  0  0  0  0  0  0  0  0  0
   27.1971  -24.3557  -17.3713 C   0  0  0  0  0  0  0  0  0  0  0  0
   28.2055  -23.3015  -17.0526 C   0  0  2  0  0  0  0  0  0  0  0  0
   29.4449  -23.7705  -16.5142 N   0  0  0  0  0  0  0  0  0  0  0  0
   27.5629  -22.2744  -16.1842 C   0  0  0  0  0  0  0  0  0  0  0  0
   27.6120  -22.3170  -14.9368 O   0  0  0  0  0  0  0  0  0  0  0  0
   29.7350  -29.7258  -18.8851 C   0  0  0  0  0  0  0  0  0  0  0  0
   28.1513  -18.5953  -16.4384 C   0  0  2  0  0  0  0  0  0  0  0  0
   26.6678  -18.8384  -16.6146 O   0  0  0  0  0  0  0  0  0  0  0  0
   26.2770  -18.6390  -17.9461 C   0  0  2  0  0  0  0  0  0  0  0  0
   26.2125  -20.1479  -16.0790 N   0  0  0  0  0  0  0  0  0  0  0  0
   26.8722  -21.2145  -16.7994 C   0  0  0  0  0  0  0  0  0  0  0  0
   24.7442  -20.3332  -16.0302 O   0  0  0  0  0  0  0  0  0  0  0  0
   24.1664  -21.0893  -16.8525 N   0  0  0  0  0  0  0  0  0  0  0  0
   20.1882  -21.3357  -12.8952 C   0  0  0  0  0  0  0  0  0  0  0  0
   20.7777  -20.0612  -13.1721 O   0  0  0  0  0  0  0  0  0  0  0  0
   20.0336  -19.0702  -13.0685 C   0  0  0  0  0  0  0  0  0  0  0  0
   22.1728  -19.9968  -13.5483 C   0  0  1  0  0  0  0  0  0  0  0  0
   22.4973  -19.7716  -14.9875 N   0  0  0  0  0  0  0  0  0  0  0  0
   23.9664  -19.6564  -15.0505 C   0  0  0  0  0  0  0  0  0  0  0  0
   21.9186  -18.5266  -15.4814 O   0  0  0  0  0  0  0  0  0  0  0  0
   22.6136  -17.4480  -15.4311 O   0  0  0  0  0  0  0  0  0  0  0  0
  2  1  1  0
  3  2  2  0
  4  2  1  0
  5  4  1  0
  6  5  1  0
  7  6  1  0
  8  9  1  1
  8 10  1  0
  8  7  1  0
 10 16  1  0
 10 11  2  0
 13 12  1  1
 14 13  1  0
 15 13  1  0
 15 16  1  1
 17 24  1  0
 17 15  1  0
 18 17  2  0
 19 20  1  0
 20 21  2  0
 20 22  1  0
 23 22  1  6
 23 25  1  0
 23 24  1  0
 25 27  1  0
 26 25  2  0
M  END
$$$$
