RTN.pdb
     RDKit          3D

 27 26  0  0  1  0  0  0  0  0999 V2000
   29.9739  -28.6092  -16.5900 N   0  0  0  0  0  0  0  0  0  0  0  0
   29.8103  -28.6418  -18.0209 C   0  0  0  0  0  0  0  0  0  0  0  0
   29.7899  -29.7923  -18.5946 N   0  0  0  0  0  0  0  0  0  0  0  0
   29.6785  -27.4465  -18.7449 N   0  0  0  0  0  0  0  0  0  0  0  0
   29.3171  -26.2022  -18.0655 C   0  0  0  0  0  0  0  0  0  0  0  0
   27.9419  -26.3010  -17.4685 C   0  0  0  0  0  0  0  0  0  0  0  0
   27.0285  -25.1941  -17.8539 C   0  0  0  0  0  0  0  0  0  0  0  0
   26.9941  -24.0172  -16.9355 C   0  0  2  0  0  0  0  0  0  0  0  0
   27.2165  -24.3028  -15.5517 N   0  0  0  0  0  0  0  0  0  0  0  0
   25.7232  -23.2721  -17.1633 C   0  0  0  0  0  0  0  0  0  0  0  0
   25.3194  -22.9563  -18.3023 O   0  0  0  0  0  0  0  0  0  0  0  0
   29.7201  -29.9005  -19.6231 C   0  0  0  0  0  0  0  0  0  0  0  0
   22.4166  -24.3406  -16.3565 C   0  0  2  0  0  0  0  0  0  0  0  0
   22.6058  -23.0509  -15.5872 O   0  0  0  0  0  0  0  0  0  0  0  0
   22.7433  -23.2966  -14.2138 C   0  0  2  0  0  0  0  0  0  0  0  0
   23.6955  -22.1939  -16.1229 N   0  0  0  0  0  0  0  0  0  0  0  0
   24.9493  -22.9107  -16.0456 C   0  0  0  0  0  0  0  0  0  0  0  0
   23.7878  -20.8431  -15.5235 O   0  0  0  0  0  0  0  0  0  0  0  0
   24.8257  -20.4839  -14.9106 N   0  0  0  0  0  0  0  0  0  0  0  0
   23.4002  -15.8237  -14.6173 C   0  0  0  0  0  0  0  0  0  0  0  0
   24.1340  -16.4949  -15.6466 O   0  0  0  0  0  0  0  0  0  0  0  0
   24.9861  -15.8210  -16.2518 C   0  0  0  0  0  0  0  0  0  0  0  0
   23.8513  -17.8867  -15.9203 C   0  0  1  0  0  0  0  0  0  0  0  0
   22.7735  -18.5484  -15.1278 N   0  0  0  0  0  0  0  0  0  0  0  0
   22.7010  -19.9321  -15.6331 C   0  0  0  0  0  0  0  0  0  0  0  0
   21.4782  -17.9129  -15.3452 O   0  0  0  0  0  0  0  0  0  0  0  0
   20.8125  -18.1918  -16.4074 O   0  0  0  0  0  0  0  0  0  0  0  0
  2  1  1  0
  3  2  2  0
  4  2  1  0
  5  4  1  0
  6  5  1  0
  7  6  1  0
  8  9  1  1
  8 10  1  0
  8  7  1  0
 10 16  1  0
 10 11  2  0
 13 12  1  1
 14 13  1  0
 15 13  1  0
 15 16  1  6
 17 24  1  0
 17 15  1  0
 18 17  2  0
 19 20  1  0
 20 21  2  0
 20 22  1  0
 23 22  1  1
 23 25  1  0
 23 24  1  0
 25 27  1  0
 26 25  2  0
M  END
$$$$
