WST.pdb
     RDKit          3D

 28 29  0  0  1  0  0  0  0  0999 V2000
    6.0773  -17.5181   24.1785 N   0  0  0  0  0  0  0  0  0  0  0  0
    6.9720  -16.4992   23.6924 C   0  0  1  0  0  0  0  0  0  0  0  0
    7.8704  -16.0487   24.8015 C   0  0  0  0  0  0  0  0  0  0  0  0
    7.1554  -15.0120   25.6035 C   0  0  0  0  0  0  0  0  0  0  0  0
    6.1621  -15.2572   26.5272 C   0  0  0  0  0  0  0  0  0  0  0  0
    5.7831  -14.1088   27.0750 N   0  0  0  0  0  0  0  0  0  0  0  0
    6.4915  -13.1012   26.5461 C   0  0  0  0  0  0  0  0  0  0  0  0
    6.4815  -11.7380   26.7587 C   0  0  0  0  0  0  0  0  0  0  0  0
    7.3084  -10.8924   26.0761 C   0  0  0  0  0  0  0  0  0  0  0  0
    8.1679  -11.4459   25.1533 C   0  0  0  0  0  0  0  0  0  0  0  0
    8.2135  -12.8110   24.9063 C   0  0  0  0  0  0  0  0  0  0  0  0
    7.3598  -13.6358   25.6198 C   0  0  0  0  0  0  0  0  0  0  0  0
    7.7377  -17.0660   22.5468 C   0  0  0  0  0  0  0  0  0  0  0  0
    8.2204  -18.2104   22.6553 O   0  0  0  0  0  0  0  0  0  0  0  0
    7.8652  -15.9307   18.5325 O   0  0  0  0  0  0  0  0  0  0  0  0
    9.0150  -15.6743   19.3140 C   0  0  0  0  0  0  0  0  0  0  0  0
    8.9657  -16.7359   20.4232 C   0  0  2  0  0  0  0  0  0  0  0  0
    7.9303  -16.3238   21.3254 N   0  0  0  0  0  0  0  0  0  0  0  0
   10.3134  -16.6880   21.0609 C   0  0  0  0  0  0  0  0  0  0  0  0
   10.5014  -15.8575   21.9766 O   0  0  0  0  0  0  0  0  0  0  0  0
   14.4519  -18.9768   22.2573 C   0  0  0  0  0  0  0  0  0  0  0  0
   13.0160  -18.9898   21.7624 C   0  0  1  0  0  0  0  0  0  0  0  0
   12.1835  -19.3547   22.8140 O   0  0  0  0  0  0  0  0  0  0  0  0
   12.6578  -17.5861   21.3056 C   0  0  2  0  0  0  0  0  0  0  0  0
   11.3700  -17.5396   20.6684 N   0  0  0  0  0  0  0  0  0  0  0  0
   13.6801  -17.1229   20.3502 C   0  0  0  0  0  0  0  0  0  0  0  0
   14.7331  -16.3601   20.7876 O   0  0  0  0  0  0  0  0  0  0  0  0
   13.5917  -17.4222   19.1417 O   0  0  0  0  0  0  0  0  0  0  0  0
  2  1  1  1
  2  3  1  0
  3  4  1  0
  4 12  1  0
  4  5  2  0
  5  6  1  0
  7  8  2  0
  7  6  1  0
  9  8  1  0
 10  9  2  0
 11 10  1  0
 11 12  2  0
 12  7  1  0
 13 18  1  0
 13  2  1  0
 14 13  2  0
 15 16  1  0
 17 16  1  6
 17 18  1  0
 19 17  1  0
 19 25  1  0
 20 19  2  0
 22 24  1  0
 22 21  1  1
 23 22  1  0
 24 25  1  6
 24 26  1  0
 26 28  2  0
 26 27  1  0
M  END
$$$$
