WST.pdb
     RDKit          3D

 28 29  0  0  1  0  0  0  0  0999 V2000
    6.2265  -17.9851   23.7063 N   0  0  0  0  0  0  0  0  0  0  0  0
    7.2120  -16.9976   24.0650 C   0  0  1  0  0  0  0  0  0  0  0  0
    7.0475  -16.6236   25.5048 C   0  0  0  0  0  0  0  0  0  0  0  0
    6.4012  -15.2797   25.5778 C   0  0  0  0  0  0  0  0  0  0  0  0
    5.1466  -15.0201   26.0866 C   0  0  0  0  0  0  0  0  0  0  0  0
    4.9141  -13.7143   26.0280 N   0  0  0  0  0  0  0  0  0  0  0  0
    5.9741  -13.0907   25.4949 C   0  0  0  0  0  0  0  0  0  0  0  0
    6.2355  -11.7658   25.2122 C   0  0  0  0  0  0  0  0  0  0  0  0
    7.4114  -11.3644   24.6458 C   0  0  0  0  0  0  0  0  0  0  0  0
    8.3462  -12.3342   24.3587 C   0  0  0  0  0  0  0  0  0  0  0  0
    8.1274  -13.6787   24.6256 C   0  0  0  0  0  0  0  0  0  0  0  0
    6.9227  -14.0458   25.2016 C   0  0  0  0  0  0  0  0  0  0  0  0
    8.5597  -17.5682   23.7852 C   0  0  0  0  0  0  0  0  0  0  0  0
    8.8113  -18.7280   24.1670 O   0  0  0  0  0  0  0  0  0  0  0  0
   11.2010  -15.1066   22.1633 O   0  0  0  0  0  0  0  0  0  0  0  0
   11.7520  -16.4062   22.2389 C   0  0  0  0  0  0  0  0  0  0  0  0
   10.9507  -17.0950   23.3540 C   0  0  2  0  0  0  0  0  0  0  0  0
    9.5704  -16.8120   23.0877 N   0  0  0  0  0  0  0  0  0  0  0  0
   11.4186  -16.4524   24.6163 C   0  0  0  0  0  0  0  0  0  0  0  0
   11.0340  -15.2881   24.8611 O   0  0  0  0  0  0  0  0  0  0  0  0
   10.5253  -15.4025   27.2064 C   0  0  0  0  0  0  0  0  0  0  0  0
   11.4640  -16.4632   27.7546 C   0  0  1  0  0  0  0  0  0  0  0  0
   10.7910  -17.6788   27.7948 O   0  0  0  0  0  0  0  0  0  0  0  0
   12.6507  -16.5801   26.8136 C   0  0  2  0  0  0  0  0  0  0  0  0
   12.2712  -17.1087   25.5318 N   0  0  0  0  0  0  0  0  0  0  0  0
   13.6517  -17.4750   27.4216 C   0  0  0  0  0  0  0  0  0  0  0  0
   14.2724  -17.1168   28.5914 O   0  0  0  0  0  0  0  0  0  0  0  0
   13.9380  -18.5602   26.8755 O   0  0  0  0  0  0  0  0  0  0  0  0
  2  1  1  1
  2  3  1  0
  3  4  1  0
  4 12  1  0
  4  5  2  0
  5  6  1  0
  7  8  2  0
  7  6  1  0
  9  8  1  0
 10  9  2  0
 11 10  1  0
 11 12  2  0
 12  7  1  0
 13 18  1  0
 13  2  1  0
 14 13  2  0
 15 16  1  0
 17 16  1  6
 17 18  1  0
 19 17  1  0
 19 25  1  0
 20 19  2  0
 22 24  1  0
 22 21  1  6
 23 22  1  0
 24 25  1  6
 24 26  1  0
 26 28  2  0
 26 27  1  0
M  END
$$$$
