WST.pdb
     RDKit          3D

 28 29  0  0  1  0  0  0  0  0999 V2000
    6.2175  -17.8184   24.2786 N   0  0  0  0  0  0  0  0  0  0  0  0
    6.9165  -16.7029   23.6938 C   0  0  1  0  0  0  0  0  0  0  0  0
    7.7798  -16.0524   24.7289 C   0  0  0  0  0  0  0  0  0  0  0  0
    6.9624  -15.0447   25.4674 C   0  0  0  0  0  0  0  0  0  0  0  0
    5.7531  -15.2887   26.0824 C   0  0  0  0  0  0  0  0  0  0  0  0
    5.3321  -14.1766   26.6728 N   0  0  0  0  0  0  0  0  0  0  0  0
    6.2218  -13.1944   26.4717 C   0  0  0  0  0  0  0  0  0  0  0  0
    6.2568  -11.8703   26.8580 C   0  0  0  0  0  0  0  0  0  0  0  0
    7.2880  -11.0431   26.5159 C   0  0  0  0  0  0  0  0  0  0  0  0
    8.3103  -11.5746   25.7615 C   0  0  0  0  0  0  0  0  0  0  0  0
    8.3181  -12.9004   25.3504 C   0  0  0  0  0  0  0  0  0  0  0  0
    7.2548  -13.7078   25.7186 C   0  0  0  0  0  0  0  0  0  0  0  0
    7.7112  -17.2102   22.5400 C   0  0  0  0  0  0  0  0  0  0  0  0
    8.1854  -18.3617   22.5982 O   0  0  0  0  0  0  0  0  0  0  0  0
    8.0882  -14.7023   19.8180 O   0  0  0  0  0  0  0  0  0  0  0  0
    9.0727  -15.6371   19.4238 C   0  0  0  0  0  0  0  0  0  0  0  0
    9.1006  -16.6645   20.5656 C   0  0  2  0  0  0  0  0  0  0  0  0
    7.9411  -16.4027   21.3675 N   0  0  0  0  0  0  0  0  0  0  0  0
   10.3654  -16.3831   21.3047 C   0  0  0  0  0  0  0  0  0  0  0  0
   10.4759  -15.2796   21.8822 O   0  0  0  0  0  0  0  0  0  0  0  0
   12.1454  -18.0994   24.2506 C   0  0  0  0  0  0  0  0  0  0  0  0
   13.0075  -18.2291   23.0068 C   0  0  1  0  0  0  0  0  0  0  0  0
   12.7130  -19.4354   22.3821 O   0  0  0  0  0  0  0  0  0  0  0  0
   12.6647  -17.0842   22.0692 C   0  0  2  0  0  0  0  0  0  0  0  0
   11.4283  -17.3113   21.3719 N   0  0  0  0  0  0  0  0  0  0  0  0
   13.7496  -16.9385   21.0822 C   0  0  0  0  0  0  0  0  0  0  0  0
   13.5419  -17.3003   19.7753 O   0  0  0  0  0  0  0  0  0  0  0  0
   14.8595  -16.4864   21.4310 O   0  0  0  0  0  0  0  0  0  0  0  0
  2  1  1  1
  2  3  1  0
  3  4  1  0
  4 12  1  0
  4  5  2  0
  5  6  1  0
  7  8  2  0
  7  6  1  0
  9  8  1  0
 10  9  2  0
 11 10  1  0
 11 12  2  0
 12  7  1  0
 13 18  1  0
 13  2  1  0
 14 13  2  0
 15 16  1  0
 17 16  1  6
 17 18  1  0
 19 17  1  0
 19 25  1  0
 20 19  2  0
 22 24  1  0
 22 21  1  1
 23 22  1  0
 24 25  1  6
 24 26  1  0
 26 28  2  0
 26 27  1  0
M  END
$$$$
