WST.pdb
     RDKit          3D

 28 29  0  0  1  0  0  0  0  0999 V2000
    6.4619  -17.6438   24.5032 N   0  0  0  0  0  0  0  0  0  0  0  0
    7.3449  -16.7389   23.8129 C   0  0  1  0  0  0  0  0  0  0  0  0
    8.1233  -15.9384   24.8096 C   0  0  0  0  0  0  0  0  0  0  0  0
    7.2191  -14.9120   25.4080 C   0  0  0  0  0  0  0  0  0  0  0  0
    6.0302  -15.1708   26.0557 C   0  0  0  0  0  0  0  0  0  0  0  0
    5.5134  -14.0282   26.4913 N   0  0  0  0  0  0  0  0  0  0  0  0
    6.3191  -13.0112   26.1547 C   0  0  0  0  0  0  0  0  0  0  0  0
    6.2404  -11.6487   26.3574 C   0  0  0  0  0  0  0  0  0  0  0  0
    7.2011  -10.7920   25.9015 C   0  0  0  0  0  0  0  0  0  0  0  0
    8.2696  -11.3333   25.2219 C   0  0  0  0  0  0  0  0  0  0  0  0
    8.3913  -12.6972   24.9947 C   0  0  0  0  0  0  0  0  0  0  0  0
    7.3968  -13.5335   25.4738 C   0  0  0  0  0  0  0  0  0  0  0  0
    8.2313  -17.5451   22.9273 C   0  0  0  0  0  0  0  0  0  0  0  0
    8.5823  -18.6808   23.3031 O   0  0  0  0  0  0  0  0  0  0  0  0
    9.7300  -15.7166   19.8602 O   0  0  0  0  0  0  0  0  0  0  0  0
    9.8245  -17.0969   19.5696 C   0  0  0  0  0  0  0  0  0  0  0  0
    9.6821  -17.7840   20.9362 C   0  0  2  0  0  0  0  0  0  0  0  0
    8.6876  -17.0422   21.6550 N   0  0  0  0  0  0  0  0  0  0  0  0
   11.0291  -17.6678   21.5667 C   0  0  0  0  0  0  0  0  0  0  0  0
   11.2178  -16.7405   22.3839 O   0  0  0  0  0  0  0  0  0  0  0  0
   15.3553  -19.7876   22.6528 C   0  0  0  0  0  0  0  0  0  0  0  0
   13.9591  -19.9237   22.0706 C   0  0  1  0  0  0  0  0  0  0  0  0
   13.1725  -20.6479   22.9588 O   0  0  0  0  0  0  0  0  0  0  0  0
   13.3746  -18.5313   21.9065 C   0  0  2  0  0  0  0  0  0  0  0  0
   12.0843  -18.5603   21.2736 N   0  0  0  0  0  0  0  0  0  0  0  0
   14.2928  -17.7257   21.0817 C   0  0  0  0  0  0  0  0  0  0  0  0
   15.2008  -16.8904   21.6814 O   0  0  0  0  0  0  0  0  0  0  0  0
   14.2477  -17.8000   19.8365 O   0  0  0  0  0  0  0  0  0  0  0  0
  2  1  1  1
  2  3  1  0
  3  4  1  0
  4 12  1  0
  4  5  2  0
  5  6  1  0
  7  8  2  0
  7  6  1  0
  9  8  1  0
 10  9  2  0
 11 10  1  0
 11 12  2  0
 12  7  1  0
 13 18  1  0
 13  2  1  0
 14 13  2  0
 15 16  1  0
 17 16  1  6
 17 18  1  0
 19 17  1  0
 19 25  1  0
 20 19  2  0
 22 24  1  0
 22 21  1  1
 23 22  1  0
 24 25  1  6
 24 26  1  0
 26 28  2  0
 26 27  1  0
M  END
$$$$
