WST.pdb
     RDKit          3D

 28 29  0  0  1  0  0  0  0  0999 V2000
    6.8566  -16.7913   23.5691 N   0  0  0  0  0  0  0  0  0  0  0  0
    8.1716  -16.4385   23.0987 C   0  0  1  0  0  0  0  0  0  0  0  0
    8.5806  -15.1252   23.6886 C   0  0  0  0  0  0  0  0  0  0  0  0
    7.4336  -14.5754   24.4705 C   0  0  0  0  0  0  0  0  0  0  0  0
    6.5268  -15.3196   25.1944 C   0  0  0  0  0  0  0  0  0  0  0  0
    5.6691  -14.5010   25.7915 N   0  0  0  0  0  0  0  0  0  0  0  0
    5.9726  -13.2309   25.4894 C   0  0  0  0  0  0  0  0  0  0  0  0
    5.4018  -12.0242   25.8383 C   0  0  0  0  0  0  0  0  0  0  0  0
    5.8938  -10.8329   25.3873 C   0  0  0  0  0  0  0  0  0  0  0  0
    6.9944  -10.8681   24.5601 C   0  0  0  0  0  0  0  0  0  0  0  0
    7.6020  -12.0577   24.1828 C   0  0  0  0  0  0  0  0  0  0  0  0
    7.0741  -13.2450   24.6620 C   0  0  0  0  0  0  0  0  0  0  0  0
    9.1060  -17.5365   23.4746 C   0  0  0  0  0  0  0  0  0  0  0  0
    9.1905  -18.5334   22.7306 O   0  0  0  0  0  0  0  0  0  0  0  0
   12.7806  -16.2740   24.2720 O   0  0  0  0  0  0  0  0  0  0  0  0
   11.9842  -17.1930   23.5511 C   0  0  0  0  0  0  0  0  0  0  0  0
   11.2440  -17.9885   24.6370 C   0  0  2  0  0  0  0  0  0  0  0  0
    9.9075  -17.4700   24.6715 N   0  0  0  0  0  0  0  0  0  0  0  0
   11.9871  -17.7005   25.8980 C   0  0  0  0  0  0  0  0  0  0  0  0
   13.2367  -17.6964   25.8562 O   0  0  0  0  0  0  0  0  0  0  0  0
   11.7337  -14.6278   28.0239 C   0  0  0  0  0  0  0  0  0  0  0  0
   11.4061  -15.7939   28.9403 C   0  0  1  0  0  0  0  0  0  0  0  0
   10.0248  -15.9299   29.0152 O   0  0  0  0  0  0  0  0  0  0  0  0
   12.0002  -17.0547   28.3363 C   0  0  2  0  0  0  0  0  0  0  0  0
   11.3325  -17.4358   27.1216 N   0  0  0  0  0  0  0  0  0  0  0  0
   11.8774  -18.1518   29.3129 C   0  0  0  0  0  0  0  0  0  0  0  0
   12.4733  -18.0450   30.5439 O   0  0  0  0  0  0  0  0  0  0  0  0
   11.2320  -19.1804   29.0242 O   0  0  0  0  0  0  0  0  0  0  0  0
  2  1  1  1
  2  3  1  0
  3  4  1  0
  4 12  1  0
  4  5  2  0
  5  6  1  0
  7  8  2  0
  7  6  1  0
  9  8  1  0
 10  9  2  0
 11 10  1  0
 11 12  2  0
 12  7  1  0
 13 18  1  0
 13  2  1  0
 14 13  2  0
 15 16  1  0
 17 16  1  6
 17 18  1  0
 19 17  1  0
 19 25  1  0
 20 19  2  0
 22 24  1  0
 22 21  1  6
 23 22  1  0
 24 25  1  6
 24 26  1  0
 26 28  2  0
 26 27  1  0
M  END
$$$$
