FYK.pdb
     RDKit          3D

 33 34  0  0  1  0  0  0  0  0999 V2000
    6.8484  -14.2406   22.2545 N   0  0  0  0  0  0  0  0  0  0  0  0
    7.8595  -15.2873   22.0265 C   0  0  1  0  0  0  0  0  0  0  0  0
    8.7951  -14.7187   20.9896 C   0  0  0  0  0  0  0  0  0  0  0  0
    8.1553  -14.0893   19.8459 C   0  0  0  0  0  0  0  0  0  0  0  0
    7.4816  -14.8572   18.9235 C   0  0  0  0  0  0  0  0  0  0  0  0
    6.8554  -14.2896   17.8220 C   0  0  0  0  0  0  0  0  0  0  0  0
    6.9006  -12.9274   17.6340 C   0  0  0  0  0  0  0  0  0  0  0  0
    7.5724  -12.1578   18.5528 C   0  0  0  0  0  0  0  0  0  0  0  0
    8.1956  -12.7382   19.6521 C   0  0  0  0  0  0  0  0  0  0  0  0
    8.5884  -15.4907   23.2994 C   0  0  0  0  0  0  0  0  0  0  0  0
    9.4429  -14.6525   23.7051 O   0  0  0  0  0  0  0  0  0  0  0  0
    6.6580  -11.1244   26.9482 O   0  0  0  0  0  0  0  0  0  0  0  0
    7.0395  -12.4710   26.8475 C   0  0  0  0  0  0  0  0  0  0  0  0
    8.2300  -12.8824   27.3751 C   0  0  0  0  0  0  0  0  0  0  0  0
    8.6525  -14.2163   27.2985 C   0  0  0  0  0  0  0  0  0  0  0  0
    7.8430  -15.1329   26.6741 C   0  0  0  0  0  0  0  0  0  0  0  0
    8.2524  -16.5439   26.5754 C   0  0  0  0  0  0  0  0  0  0  0  0
    9.1081  -16.8356   25.3774 C   0  0  2  0  0  0  0  0  0  0  0  0
    8.3671  -16.6426   24.1381 N   0  0  0  0  0  0  0  0  0  0  0  0
    9.8026  -18.1312   25.4101 C   0  0  0  0  0  0  0  0  0  0  0  0
    9.1384  -19.2200   25.5160 O   0  0  0  0  0  0  0  0  0  0  0  0
    6.6514  -14.7219   26.1459 C   0  0  0  0  0  0  0  0  0  0  0  0
    6.2230  -13.4056   26.2155 C   0  0  0  0  0  0  0  0  0  0  0  0
   11.2005  -18.2855   25.3291 N   0  0  0  0  0  0  0  0  0  0  0  0
   11.8768  -19.5572   25.3498 C   0  0  1  0  0  0  0  0  0  0  0  0
   13.0312  -19.5000   24.3737 C   0  0  0  0  0  0  0  0  0  0  0  0
   12.7014  -20.0714   23.0286 C   0  0  0  0  0  0  0  0  0  0  0  0
   13.0512  -19.0220   21.9943 C   0  0  0  0  0  0  0  0  0  0  0  0
   12.6571  -19.4553   20.6002 C   0  0  0  0  0  0  0  0  0  0  0  0
   12.9452  -18.3515   19.6952 N   0  0  0  0  0  0  0  0  0  0  0  0
   12.2713  -20.0175   26.6797 C   0  0  0  0  0  0  0  0  0  0  0  0
   12.3197  -19.2128   27.6468 O   0  0  0  0  0  0  0  0  0  0  0  0
   12.6125  -21.3284   26.9789 O   0  0  0  0  0  0  0  0  0  0  0  0
  2  1  1  1
  2  3  1  0
  4  3  1  0
  5  4  2  0
  6  5  1  0
  7  6  2  0
  7  8  1  0
  8  9  2  0
  9  4  1  0
 10 19  1  0
 10  2  1  0
 11 10  2  0
 13 12  1  0
 14 13  2  0
 15 14  1  0
 16 22  1  0
 16 15  2  0
 17 16  1  0
 18 19  1  0
 18 17  1  1
 20 21  2  0
 20 18  1  0
 22 23  2  0
 23 13  1  0
 24 20  1  0
 25 24  1  0
 25 31  1  0
 25 26  1  6
 27 26  1  0
 28 27  1  0
 28 29  1  0
 29 30  1  0
 31 33  1  0
 32 31  2  0
M  END
$$$$
