FYK.pdb
     RDKit          3D

 33 34  0  0  1  0  0  0  0  0999 V2000
    6.1344  -18.2915   26.1128 N   0  0  0  0  0  0  0  0  0  0  0  0
    6.3409  -16.8402   25.9683 C   0  0  1  0  0  0  0  0  0  0  0  0
    7.2693  -16.4558   27.0927 C   0  0  0  0  0  0  0  0  0  0  0  0
    7.5940  -15.0415   27.1816 C   0  0  0  0  0  0  0  0  0  0  0  0
    8.9087  -14.6379   27.2369 C   0  0  0  0  0  0  0  0  0  0  0  0
    9.2555  -13.2959   27.3177 C   0  0  0  0  0  0  0  0  0  0  0  0
    8.2722  -12.3340   27.3442 C   0  0  0  0  0  0  0  0  0  0  0  0
    6.9587  -12.7334   27.2893 C   0  0  0  0  0  0  0  0  0  0  0  0
    6.6240  -14.0807   27.2084 C   0  0  0  0  0  0  0  0  0  0  0  0
    7.0098  -16.6103   24.6672 C   0  0  0  0  0  0  0  0  0  0  0  0
    7.8256  -17.4514   24.1934 O   0  0  0  0  0  0  0  0  0  0  0  0
    8.9228  -13.3402   16.6583 O   0  0  0  0  0  0  0  0  0  0  0  0
    8.4479  -13.4808   17.9712 C   0  0  0  0  0  0  0  0  0  0  0  0
    7.5415  -14.4587   18.2661 C   0  0  0  0  0  0  0  0  0  0  0  0
    7.0395  -14.6367   19.5623 C   0  0  0  0  0  0  0  0  0  0  0  0
    7.4743  -13.8016   20.5617 C   0  0  0  0  0  0  0  0  0  0  0  0
    6.9706  -13.9589   21.9364 C   0  0  0  0  0  0  0  0  0  0  0  0
    7.4629  -15.2041   22.6145 C   0  0  2  0  0  0  0  0  0  0  0  0
    6.7710  -15.4283   23.8767 N   0  0  0  0  0  0  0  0  0  0  0  0
    8.9231  -15.2965   22.7606 C   0  0  0  0  0  0  0  0  0  0  0  0
    9.5205  -14.6738   23.7057 O   0  0  0  0  0  0  0  0  0  0  0  0
    8.3815  -12.8227   20.2674 C   0  0  0  0  0  0  0  0  0  0  0  0
    8.8850  -12.6370   18.9895 C   0  0  0  0  0  0  0  0  0  0  0  0
    9.7604  -16.0475   21.9124 N   0  0  0  0  0  0  0  0  0  0  0  0
   11.1916  -16.1291   22.0535 C   0  0  1  0  0  0  0  0  0  0  0  0
   11.6141  -17.5620   21.8143 C   0  0  0  0  0  0  0  0  0  0  0  0
   13.0891  -17.7793   21.9609 C   0  0  0  0  0  0  0  0  0  0  0  0
   13.3506  -19.2564   21.7527 C   0  0  0  0  0  0  0  0  0  0  0  0
   14.8073  -19.6031   21.9631 C   0  0  0  0  0  0  0  0  0  0  0  0
   14.9778  -21.0132   21.6419 N   0  0  0  0  0  0  0  0  0  0  0  0
   11.9406  -15.1672   21.2474 C   0  0  0  0  0  0  0  0  0  0  0  0
   12.9067  -14.5311   21.7445 O   0  0  0  0  0  0  0  0  0  0  0  0
   11.6625  -14.8837   19.9183 O   0  0  0  0  0  0  0  0  0  0  0  0
  2  1  1  1
  2  3  1  0
  4  3  1  0
  5  4  2  0
  6  5  1  0
  7  6  2  0
  7  8  1  0
  8  9  2  0
  9  4  1  0
 10 19  1  0
 10  2  1  0
 11 10  2  0
 13 12  1  0
 14 13  2  0
 15 14  1  0
 16 22  1  0
 16 15  2  0
 17 16  1  0
 18 19  1  0
 18 17  1  1
 20 21  2  0
 20 18  1  0
 22 23  2  0
 23 13  1  0
 24 20  1  0
 25 24  1  0
 25 31  1  0
 25 26  1  6
 27 26  1  0
 28 27  1  0
 28 29  1  0
 29 30  1  0
 31 33  1  0
 32 31  2  0
M  END
$$$$
