FYK.pdb
     RDKit          3D

 33 34  0  0  1  0  0  0  0  0999 V2000
    8.9744  -17.4725   20.2997 N   0  0  0  0  0  0  0  0  0  0  0  0
    8.8717  -16.2039   21.0412 C   0  0  1  0  0  0  0  0  0  0  0  0
    7.4923  -15.6755   20.7380 C   0  0  0  0  0  0  0  0  0  0  0  0
    7.2398  -14.3061   21.1559 C   0  0  0  0  0  0  0  0  0  0  0  0
    6.5876  -14.0562   22.3419 C   0  0  0  0  0  0  0  0  0  0  0  0
    6.3336  -12.7614   22.7742 C   0  0  0  0  0  0  0  0  0  0  0  0
    6.7376  -11.6915   22.0094 C   0  0  0  0  0  0  0  0  0  0  0  0
    7.3888  -11.9374   20.8249 C   0  0  0  0  0  0  0  0  0  0  0  0
    7.6375  -13.2388   20.4026 C   0  0  0  0  0  0  0  0  0  0  0  0
    8.9802  -16.5185   22.4842 C   0  0  0  0  0  0  0  0  0  0  0  0
    9.2586  -17.6860   22.8801 O   0  0  0  0  0  0  0  0  0  0  0  0
   11.1583  -15.0274   30.9478 O   0  0  0  0  0  0  0  0  0  0  0  0
   10.5826  -14.9352   29.6714 C   0  0  0  0  0  0  0  0  0  0  0  0
    9.7069  -15.8941   29.2489 C   0  0  0  0  0  0  0  0  0  0  0  0
    9.1076  -15.8438   27.9832 C   0  0  0  0  0  0  0  0  0  0  0  0
    9.4125  -14.7984   27.1469 C   0  0  0  0  0  0  0  0  0  0  0  0
    8.8014  -14.7106   25.8100 C   0  0  0  0  0  0  0  0  0  0  0  0
    9.4502  -15.6071   24.7962 C   0  0  2  0  0  0  0  0  0  0  0  0
    8.7772  -15.5225   23.5070 N   0  0  0  0  0  0  0  0  0  0  0  0
    9.6416  -16.9992   25.2293 C   0  0  0  0  0  0  0  0  0  0  0  0
   10.3597  -17.2660   26.2545 O   0  0  0  0  0  0  0  0  0  0  0  0
   10.2887  -13.8383   27.5691 C   0  0  0  0  0  0  0  0  0  0  0  0
   10.8876  -13.8774   28.8184 C   0  0  0  0  0  0  0  0  0  0  0  0
    9.0751  -18.1166   24.5852 N   0  0  0  0  0  0  0  0  0  0  0  0
    9.2462  -19.4774   25.0256 C   0  0  1  0  0  0  0  0  0  0  0  0
    8.5330  -20.3881   24.0505 C   0  0  0  0  0  0  0  0  0  0  0  0
    7.0644  -20.5132   24.3190 C   0  0  0  0  0  0  0  0  0  0  0  0
    6.4781  -21.3817   23.2257 C   0  0  0  0  0  0  0  0  0  0  0  0
    4.9772  -21.5111   23.3566 C   0  0  0  0  0  0  0  0  0  0  0  0
    4.5070  -22.3444   22.2588 N   0  0  0  0  0  0  0  0  0  0  0  0
   10.6326  -19.8704   25.2700 C   0  0  0  0  0  0  0  0  0  0  0  0
   10.9340  -20.5564   26.2819 O   0  0  0  0  0  0  0  0  0  0  0  0
   11.6932  -19.5350   24.4412 O   0  0  0  0  0  0  0  0  0  0  0  0
  2  1  1  6
  2  3  1  0
  4  3  1  0
  5  4  2  0
  6  5  1  0
  7  6  2  0
  7  8  1  0
  8  9  2  0
  9  4  1  0
 10 19  1  0
 10  2  1  0
 11 10  2  0
 13 12  1  0
 14 13  2  0
 15 14  1  0
 16 22  1  0
 16 15  2  0
 17 16  1  0
 18 19  1  0
 18 17  1  1
 20 21  2  0
 20 18  1  0
 22 23  2  0
 23 13  1  0
 24 20  1  0
 25 24  1  0
 25 31  1  0
 25 26  1  6
 27 26  1  0
 28 27  1  0
 28 29  1  0
 29 30  1  0
 31 33  1  0
 32 31  2  0
M  END
$$$$
