FYK.pdb
     RDKit          3D

 33 34  0  0  1  0  0  0  0  0999 V2000
    6.9101  -18.1913   26.1480 N   0  0  0  0  0  0  0  0  0  0  0  0
    6.9342  -16.7498   25.8458 C   0  0  1  0  0  0  0  0  0  0  0  0
    7.9324  -16.1573   26.8082 C   0  0  0  0  0  0  0  0  0  0  0  0
    7.7429  -14.7502   27.1205 C   0  0  0  0  0  0  0  0  0  0  0  0
    7.0696  -13.9331   26.2411 C   0  0  0  0  0  0  0  0  0  0  0  0
    6.8664  -12.5860   26.5089 C   0  0  0  0  0  0  0  0  0  0  0  0
    7.3440  -12.0396   27.6777 C   0  0  0  0  0  0  0  0  0  0  0  0
    8.0167  -12.8523   28.5578 C   0  0  0  0  0  0  0  0  0  0  0  0
    8.2138  -14.2002   28.2784 C   0  0  0  0  0  0  0  0  0  0  0  0
    7.4240  -16.5914   24.4573 C   0  0  0  0  0  0  0  0  0  0  0  0
    8.0789  -17.5090   23.8860 O   0  0  0  0  0  0  0  0  0  0  0  0
    8.8853  -13.3423   16.3305 O   0  0  0  0  0  0  0  0  0  0  0  0
    8.4864  -13.4812   17.6687 C   0  0  0  0  0  0  0  0  0  0  0  0
    7.7133  -14.5433   18.0417 C   0  0  0  0  0  0  0  0  0  0  0  0
    7.2911  -14.7233   19.3657 C   0  0  0  0  0  0  0  0  0  0  0  0
    7.6680  -13.8027   20.3122 C   0  0  0  0  0  0  0  0  0  0  0  0
    7.2451  -13.9590   21.7140 C   0  0  0  0  0  0  0  0  0  0  0  0
    7.7226  -15.2349   22.3437 C   0  0  2  0  0  0  0  0  0  0  0  0
    7.1841  -15.3958   23.6877 N   0  0  0  0  0  0  0  0  0  0  0  0
    9.1778  -15.4416   22.3029 C   0  0  0  0  0  0  0  0  0  0  0  0
    9.9444  -14.8148   23.1138 O   0  0  0  0  0  0  0  0  0  0  0  0
    8.4418  -12.7395   19.9397 C   0  0  0  0  0  0  0  0  0  0  0  0
    8.8653  -12.5511   18.6335 C   0  0  0  0  0  0  0  0  0  0  0  0
    9.8320  -16.3115   21.4087 N   0  0  0  0  0  0  0  0  0  0  0  0
   11.2549  -16.5355   21.3925 C   0  0  1  0  0  0  0  0  0  0  0  0
   11.5538  -17.6358   20.3981 C   0  0  0  0  0  0  0  0  0  0  0  0
   11.4038  -17.2045   18.9712 C   0  0  0  0  0  0  0  0  0  0  0  0
   11.6611  -18.4186   18.1033 C   0  0  0  0  0  0  0  0  0  0  0  0
   11.5267  -18.0951   16.6324 C   0  0  0  0  0  0  0  0  0  0  0  0
   11.7781  -19.3193   15.8848 N   0  0  0  0  0  0  0  0  0  0  0  0
   12.0598  -15.3343   21.1794 C   0  0  0  0  0  0  0  0  0  0  0  0
   13.3081  -15.3639   21.3409 O   0  0  0  0  0  0  0  0  0  0  0  0
   11.5385  -14.1073   20.7962 O   0  0  0  0  0  0  0  0  0  0  0  0
  2  1  1  1
  2  3  1  0
  4  3  1  0
  5  4  2  0
  6  5  1  0
  7  6  2  0
  7  8  1  0
  8  9  2  0
  9  4  1  0
 10 19  1  0
 10  2  1  0
 11 10  2  0
 13 12  1  0
 14 13  2  0
 15 14  1  0
 16 22  1  0
 16 15  2  0
 17 16  1  0
 18 19  1  0
 18 17  1  1
 20 21  2  0
 20 18  1  0
 22 23  2  0
 23 13  1  0
 24 20  1  0
 25 24  1  0
 25 31  1  0
 25 26  1  6
 27 26  1  0
 28 27  1  0
 28 29  1  0
 29 30  1  0
 31 33  1  0
 32 31  2  0
M  END
$$$$
