FYK.pdb
     RDKit          3D

 33 34  0  0  1  0  0  0  0  0999 V2000
    5.5610  -17.7551   24.2208 N   0  0  0  0  0  0  0  0  0  0  0  0
    6.1880  -16.4360   24.4123 C   0  0  1  0  0  0  0  0  0  0  0  0
    6.2558  -16.2399   25.9059 C   0  0  0  0  0  0  0  0  0  0  0  0
    6.6988  -14.9272   26.3463 C   0  0  0  0  0  0  0  0  0  0  0  0
    7.9153  -14.7844   26.9739 C   0  0  0  0  0  0  0  0  0  0  0  0
    8.3720  -13.5457   27.4036 C   0  0  0  0  0  0  0  0  0  0  0  0
    7.6008  -12.4238   27.2044 C   0  0  0  0  0  0  0  0  0  0  0  0
    6.3857  -12.5627   26.5784 C   0  0  0  0  0  0  0  0  0  0  0  0
    5.9393  -13.8089   26.1524 C   0  0  0  0  0  0  0  0  0  0  0  0
    7.5581  -16.5061   23.8548 C   0  0  0  0  0  0  0  0  0  0  0  0
    8.1664  -17.6091   23.7506 O   0  0  0  0  0  0  0  0  0  0  0  0
    6.4270  -14.1636   17.1348 O   0  0  0  0  0  0  0  0  0  0  0  0
    7.2279  -14.1665   18.2870 C   0  0  0  0  0  0  0  0  0  0  0  0
    8.2107  -15.1038   18.4304 C   0  0  0  0  0  0  0  0  0  0  0  0
    9.0346  -15.1456   19.5631 C   0  0  0  0  0  0  0  0  0  0  0  0
    8.8450  -14.2153   20.5551 C   0  0  0  0  0  0  0  0  0  0  0  0
    9.6922  -14.2265   21.7594 C   0  0  0  0  0  0  0  0  0  0  0  0
    9.4907  -15.4390   22.6207 C   0  0  2  0  0  0  0  0  0  0  0  0
    8.2673  -15.3341   23.4045 N   0  0  0  0  0  0  0  0  0  0  0  0
   10.6471  -15.8127   23.4484 C   0  0  0  0  0  0  0  0  0  0  0  0
   10.9443  -15.1329   24.4912 O   0  0  0  0  0  0  0  0  0  0  0  0
    7.8617  -13.2769   20.4122 C   0  0  0  0  0  0  0  0  0  0  0  0
    7.0407  -13.2257   19.2967 C   0  0  0  0  0  0  0  0  0  0  0  0
   11.4945  -16.9061   23.1822 N   0  0  0  0  0  0  0  0  0  0  0  0
   12.7617  -17.1246   23.8312 C   0  0  1  0  0  0  0  0  0  0  0  0
   13.3408  -18.4263   23.3221 C   0  0  0  0  0  0  0  0  0  0  0  0
   14.6019  -18.8304   24.0227 C   0  0  0  0  0  0  0  0  0  0  0  0
   15.0744  -20.1234   23.3916 C   0  0  0  0  0  0  0  0  0  0  0  0
   16.2710  -20.6968   24.1166 C   0  0  0  0  0  0  0  0  0  0  0  0
   16.5626  -21.9976   23.5305 N   0  0  0  0  0  0  0  0  0  0  0  0
   13.6965  -16.0049   23.7386 C   0  0  0  0  0  0  0  0  0  0  0  0
   14.2528  -15.5490   24.7720 O   0  0  0  0  0  0  0  0  0  0  0  0
   14.0376  -15.3733   22.5516 O   0  0  0  0  0  0  0  0  0  0  0  0
  2  1  1  1
  2  3  1  0
  4  3  1  0
  5  4  2  0
  6  5  1  0
  7  6  2  0
  7  8  1  0
  8  9  2  0
  9  4  1  0
 10 19  1  0
 10  2  1  0
 11 10  2  0
 13 12  1  0
 14 13  2  0
 15 14  1  0
 16 22  1  0
 16 15  2  0
 17 16  1  0
 18 19  1  0
 18 17  1  1
 20 21  2  0
 20 18  1  0
 22 23  2  0
 23 13  1  0
 24 20  1  0
 25 24  1  0
 25 31  1  0
 25 26  1  6
 27 26  1  0
 28 27  1  0
 28 29  1  0
 29 30  1  0
 31 33  1  0
 32 31  2  0
M  END
$$$$
