CRY.pdb
     RDKit          3D

 30 30  0  0  1  0  0  0  0  0999 V2000
    7.5140  -13.3238   18.4039 N   0  0  0  0  0  0  0  0  0  0  0  0
    8.6214  -13.5627   19.3122 C   0  0  1  0  0  0  0  0  0  0  0  0
    8.9140  -12.2739   20.0349 C   0  0  0  0  0  0  0  0  0  0  0  0
    7.5982  -12.0033   21.2539 S   0  0  0  0  0  0  0  0  0  0  0  0
    8.2165  -14.6484   20.2536 C   0  0  0  0  0  0  0  0  0  0  0  0
    7.1199  -15.2626   20.1136 O   0  0  0  0  0  0  0  0  0  0  0  0
   11.9176  -21.5209   22.7214 N   0  0  0  0  0  0  0  0  0  0  0  0
   10.8823  -21.5874   21.7358 C   0  0  0  0  0  0  0  0  0  0  0  0
    9.9718  -22.4667   21.8366 N   0  0  0  0  0  0  0  0  0  0  0  0
   10.9284  -20.6507   20.6809 N   0  0  0  0  0  0  0  0  0  0  0  0
   11.2646  -19.2824   20.9027 C   0  0  0  0  0  0  0  0  0  0  0  0
   10.2716  -18.5351   21.7804 C   0  0  0  0  0  0  0  0  0  0  0  0
    9.9859  -17.1890   21.2186 C   0  0  0  0  0  0  0  0  0  0  0  0
    8.9599  -16.3705   21.9668 C   0  0  2  0  0  0  0  0  0  0  0  0
    9.0307  -15.0389   21.3370 N   0  0  0  0  0  0  0  0  0  0  0  0
    9.3454  -16.1949   23.4072 C   0  0  0  0  0  0  0  0  0  0  0  0
   10.5156  -15.7374   23.6686 O   0  0  0  0  0  0  0  0  0  0  0  0
    9.2246  -22.5419   21.1142 O   0  0  0  0  0  0  0  0  0  0  0  0
    6.0948  -10.6356   25.8101 C   0  0  0  0  0  0  0  0  0  0  0  0
    6.5379  -11.9326   26.0550 C   0  0  0  0  0  0  0  0  0  0  0  0
    7.8488  -12.1949   26.3564 C   0  0  0  0  0  0  0  0  0  0  0  0
    8.2883  -13.4787   26.5989 C   0  0  0  0  0  0  0  0  0  0  0  0
    7.4166  -14.5725   26.5484 C   0  0  0  0  0  0  0  0  0  0  0  0
    7.8843  -15.9454   26.7855 C   0  0  2  0  0  0  0  0  0  0  0  0
    9.0178  -16.2773   25.8748 N   0  0  0  0  0  0  0  0  0  0  0  0
    8.5317  -16.4876   24.4991 C   0  0  0  0  0  0  0  0  0  0  0  0
    9.7284  -17.4935   26.3188 O   0  0  0  0  0  0  0  0  0  0  0  0
   10.5919  -17.5721   27.3887 C   0  0  0  0  0  0  0  0  0  0  0  0
    6.0962  -14.2714   26.2400 C   0  0  0  0  0  0  0  0  0  0  0  0
    5.6628  -13.0022   26.0006 O   0  0  0  0  0  0  0  0  0  0  0  0
  2  1  1  6
  2  3  1  0
  4  3  1  0
  5  2  1  0
  6  5  2  0
  8  7  1  0
  9  8  2  0
 10  8  1  0
 11 12  1  0
 11 10  1  0
 12 13  1  0
 14 13  1  6
 14 15  1  0
 15  5  1  0
 16 14  1  0
 16 17  2  0
 18 19  1  0
 19 29  2  0
 20 21  2  0
 20 19  1  0
 21 22  1  0
 22 23  1  0
 22 28  2  0
 24 23  1  6
 24 25  1  0
 25 16  1  0
 26 24  1  0
 27 26  1  0
 29 28  1  0
 30 26  2  0
M  END
$$$$
