CRY.pdb
     RDKit          3D

 30 30  0  0  1  0  0  0  0  0999 V2000
    7.1365  -13.6606   18.1553 N   0  0  0  0  0  0  0  0  0  0  0  0
    8.1638  -13.4986   19.1686 C   0  0  1  0  0  0  0  0  0  0  0  0
    7.9080  -12.1978   19.8838 C   0  0  0  0  0  0  0  0  0  0  0  0
    9.1923  -11.9907   21.1479 S   0  0  0  0  0  0  0  0  0  0  0  0
    8.0832  -14.6671   20.0945 C   0  0  0  0  0  0  0  0  0  0  0  0
    6.9682  -15.1222   20.4805 O   0  0  0  0  0  0  0  0  0  0  0  0
    8.9847  -21.2603   17.0410 N   0  0  0  0  0  0  0  0  0  0  0  0
    7.9767  -20.2913   16.7370 C   0  0  0  0  0  0  0  0  0  0  0  0
    7.2693  -20.4247   15.6910 N   0  0  0  0  0  0  0  0  0  0  0  0
    7.8178  -19.2151   17.6364 N   0  0  0  0  0  0  0  0  0  0  0  0
    8.6629  -19.0531   18.7741 C   0  0  0  0  0  0  0  0  0  0  0  0
    8.3698  -17.8028   19.5901 C   0  0  0  0  0  0  0  0  0  0  0  0
    9.3432  -17.6653   20.7049 C   0  0  0  0  0  0  0  0  0  0  0  0
    9.1979  -16.4233   21.5527 C   0  0  2  0  0  0  0  0  0  0  0  0
    9.2378  -15.3153   20.5804 N   0  0  0  0  0  0  0  0  0  0  0  0
   10.3748  -16.2454   22.4680 C   0  0  0  0  0  0  0  0  0  0  0  0
   11.2094  -17.2144   22.5752 O   0  0  0  0  0  0  0  0  0  0  0  0
    6.5391  -19.7210   15.4511 O   0  0  0  0  0  0  0  0  0  0  0  0
   10.3365  -15.4570   31.0056 C   0  0  0  0  0  0  0  0  0  0  0  0
   10.1359  -15.3557   29.6315 C   0  0  0  0  0  0  0  0  0  0  0  0
    9.9239  -16.4660   28.8566 C   0  0  0  0  0  0  0  0  0  0  0  0
    9.7253  -16.3667   27.4962 C   0  0  0  0  0  0  0  0  0  0  0  0
    9.7309  -15.1283   26.8443 C   0  0  0  0  0  0  0  0  0  0  0  0
    9.5406  -15.0187   25.3912 C   0  0  1  0  0  0  0  0  0  0  0  0
   10.8385  -15.1947   24.6780 N   0  0  0  0  0  0  0  0  0  0  0  0
   10.6440  -15.1041   23.2195 C   0  0  0  0  0  0  0  0  0  0  0  0
   11.4560  -16.4982   24.9950 O   0  0  0  0  0  0  0  0  0  0  0  0
   12.6170  -16.6822   25.7125 C   0  0  0  0  0  0  0  0  0  0  0  0
    9.9487  -14.0244   27.6588 C   0  0  0  0  0  0  0  0  0  0  0  0
   10.1448  -14.1237   29.0033 O   0  0  0  0  0  0  0  0  0  0  0  0
  2  1  1  6
  2  3  1  0
  4  3  1  0
  5  2  1  0
  6  5  2  0
  8  7  1  0
  9  8  2  0
 10  8  1  0
 11 12  1  0
 11 10  1  0
 12 13  1  0
 14 13  1  6
 14 15  1  0
 15  5  1  0
 16 14  1  0
 16 17  2  0
 18 19  1  0
 19 29  2  0
 20 21  2  0
 20 19  1  0
 21 22  1  0
 22 23  1  0
 22 28  2  0
 24 23  1  1
 24 25  1  0
 25 16  1  0
 26 24  1  0
 27 26  1  0
 29 28  1  0
 30 26  2  0
M  END
$$$$
