CRY.pdb
     RDKit          3D

 30 30  0  0  1  0  0  0  0  0999 V2000
    5.5050  -19.9941   21.7998 N   0  0  0  0  0  0  0  0  0  0  0  0
    6.0722  -19.2943   22.9386 C   0  0  1  0  0  0  0  0  0  0  0  0
    6.6437  -20.3243   23.8774 C   0  0  0  0  0  0  0  0  0  0  0  0
    5.3242  -20.8470   25.0070 S   0  0  0  0  0  0  0  0  0  0  0  0
    7.1224  -18.3637   22.4285 C   0  0  0  0  0  0  0  0  0  0  0  0
    8.3361  -18.7138   22.3690 O   0  0  0  0  0  0  0  0  0  0  0  0
    8.3262  -15.0556   17.1934 N   0  0  0  0  0  0  0  0  0  0  0  0
    7.9827  -13.7325   16.7700 C   0  0  0  0  0  0  0  0  0  0  0  0
    8.4193  -13.2921   15.6619 N   0  0  0  0  0  0  0  0  0  0  0  0
    7.1577  -12.9705   17.6250 N   0  0  0  0  0  0  0  0  0  0  0  0
    6.6913  -13.4802   18.8729 C   0  0  0  0  0  0  0  0  0  0  0  0
    7.6103  -14.5179   19.5004 C   0  0  0  0  0  0  0  0  0  0  0  0
    7.0049  -15.0723   20.7395 C   0  0  0  0  0  0  0  0  0  0  0  0
    7.8208  -16.1241   21.4539 C   0  0  2  0  0  0  0  0  0  0  0  0
    6.8145  -17.0585   21.9916 N   0  0  0  0  0  0  0  0  0  0  0  0
    8.5520  -15.5435   22.6297 C   0  0  0  0  0  0  0  0  0  0  0  0
    8.0497  -14.5121   23.2050 O   0  0  0  0  0  0  0  0  0  0  0  0
    8.1765  -12.3312   15.3403 O   0  0  0  0  0  0  0  0  0  0  0  0
   10.9753  -14.4860   30.7249 C   0  0  0  0  0  0  0  0  0  0  0  0
   10.5335  -14.8210   29.4478 C   0  0  0  0  0  0  0  0  0  0  0  0
   10.0115  -13.8775   28.6018 C   0  0  0  0  0  0  0  0  0  0  0  0
    9.5739  -14.2083   27.3373 C   0  0  0  0  0  0  0  0  0  0  0  0
    9.6425  -15.5219   26.8594 C   0  0  0  0  0  0  0  0  0  0  0  0
    9.1579  -15.8836   25.5200 C   0  0  1  0  0  0  0  0  0  0  0  0
   10.2037  -15.6089   24.4927 N   0  0  0  0  0  0  0  0  0  0  0  0
    9.7431  -16.0348   23.1587 C   0  0  0  0  0  0  0  0  0  0  0  0
   11.4652  -16.3099   24.8061 O   0  0  0  0  0  0  0  0  0  0  0  0
   12.5671  -15.7462   25.4099 C   0  0  0  0  0  0  0  0  0  0  0  0
   10.1760  -16.4525   27.7420 C   0  0  0  0  0  0  0  0  0  0  0  0
   10.6084  -16.1244   28.9915 O   0  0  0  0  0  0  0  0  0  0  0  0
  2  1  1  6
  2  3  1  0
  4  3  1  0
  5  2  1  0
  6  5  2  0
  8  7  1  0
  9  8  2  0
 10  8  1  0
 11 12  1  0
 11 10  1  0
 12 13  1  0
 14 13  1  1
 14 15  1  0
 15  5  1  0
 16 14  1  0
 16 17  2  0
 18 19  1  0
 19 29  2  0
 20 21  2  0
 20 19  1  0
 21 22  1  0
 22 23  1  0
 22 28  2  0
 24 23  1  6
 24 25  1  0
 25 16  1  0
 26 24  1  0
 27 26  1  0
 29 28  1  0
 30 26  2  0
M  END
$$$$
