CRY.pdb
     RDKit          3D

 30 30  0  0  1  0  0  0  0  0999 V2000
    7.5244  -14.0176   18.9219 N   0  0  0  0  0  0  0  0  0  0  0  0
    8.3904  -13.7435   20.0547 C   0  0  1  0  0  0  0  0  0  0  0  0
    7.8051  -12.5825   20.8151 C   0  0  0  0  0  0  0  0  0  0  0  0
    8.2397  -11.0581   19.9333 S   0  0  0  0  0  0  0  0  0  0  0  0
    8.4568  -14.9788   20.8907 C   0  0  0  0  0  0  0  0  0  0  0  0
    7.4703  -15.7652   20.9781 O   0  0  0  0  0  0  0  0  0  0  0  0
   12.9089  -21.1150   19.7205 N   0  0  0  0  0  0  0  0  0  0  0  0
   12.4844  -20.3127   18.6143 C   0  0  0  0  0  0  0  0  0  0  0  0
   12.2524  -20.8592   17.4918 N   0  0  0  0  0  0  0  0  0  0  0  0
   12.3417  -18.9258   18.8345 N   0  0  0  0  0  0  0  0  0  0  0  0
   12.3071  -18.3713   20.1482 C   0  0  0  0  0  0  0  0  0  0  0  0
   10.9661  -17.7606   20.5274 C   0  0  0  0  0  0  0  0  0  0  0  0
   11.0178  -17.1964   21.9016 C   0  0  0  0  0  0  0  0  0  0  0  0
    9.7373  -16.5696   22.4016 C   0  0  2  0  0  0  0  0  0  0  0  0
    9.6139  -15.3261   21.6185 N   0  0  0  0  0  0  0  0  0  0  0  0
    9.8516  -16.1694   23.8442 C   0  0  0  0  0  0  0  0  0  0  0  0
   10.7314  -15.2901   24.1600 O   0  0  0  0  0  0  0  0  0  0  0  0
   11.8918  -20.2966   16.6923 O   0  0  0  0  0  0  0  0  0  0  0  0
    5.4866  -11.1578   25.3965 C   0  0  0  0  0  0  0  0  0  0  0  0
    6.0929  -12.3500   25.7831 C   0  0  0  0  0  0  0  0  0  0  0  0
    7.3951  -12.3841   26.2089 C   0  0  0  0  0  0  0  0  0  0  0  0
    7.9962  -13.5640   26.5918 C   0  0  0  0  0  0  0  0  0  0  0  0
    7.3048  -14.7804   26.5633 C   0  0  0  0  0  0  0  0  0  0  0  0
    7.9473  -16.0442   26.9505 C   0  0  2  0  0  0  0  0  0  0  0  0
    9.2628  -16.1949   26.2641 N   0  0  0  0  0  0  0  0  0  0  0  0
    9.0738  -16.6750   24.8831 C   0  0  0  0  0  0  0  0  0  0  0  0
   10.1400  -17.1424   26.9808 O   0  0  0  0  0  0  0  0  0  0  0  0
   10.9002  -16.8488   28.0909 C   0  0  0  0  0  0  0  0  0  0  0  0
    5.9881  -14.7101   26.1267 C   0  0  0  0  0  0  0  0  0  0  0  0
    5.3949  -13.5434   25.7486 O   0  0  0  0  0  0  0  0  0  0  0  0
  2  1  1  6
  2  3  1  0
  4  3  1  0
  5  2  1  0
  6  5  2  0
  8  7  1  0
  9  8  2  0
 10  8  1  0
 11 12  1  0
 11 10  1  0
 12 13  1  0
 14 13  1  6
 14 15  1  0
 15  5  1  0
 16 14  1  0
 16 17  2  0
 18 19  1  0
 19 29  2  0
 20 21  2  0
 20 19  1  0
 21 22  1  0
 22 23  1  0
 22 28  2  0
 24 23  1  6
 24 25  1  0
 25 16  1  0
 26 24  1  0
 27 26  1  0
 29 28  1  0
 30 26  2  0
M  END
$$$$
