CRY.pdb
     RDKit          3D

 30 30  0  0  1  0  0  0  0  0999 V2000
    7.7371  -14.5994   18.1756 N   0  0  0  0  0  0  0  0  0  0  0  0
    8.8425  -14.2850   19.0630 C   0  0  1  0  0  0  0  0  0  0  0  0
    8.5168  -12.9953   19.7698 C   0  0  0  0  0  0  0  0  0  0  0  0
    8.6648  -11.6444   18.5684 S   0  0  0  0  0  0  0  0  0  0  0  0
    8.9988  -15.4196   20.0207 C   0  0  0  0  0  0  0  0  0  0  0  0
    8.0038  -16.1061   20.3921 O   0  0  0  0  0  0  0  0  0  0  0  0
   11.1887  -18.3454   17.0222 N   0  0  0  0  0  0  0  0  0  0  0  0
   12.5682  -18.0876   16.7424 C   0  0  0  0  0  0  0  0  0  0  0  0
   12.9258  -17.7838   15.5625 N   0  0  0  0  0  0  0  0  0  0  0  0
   13.4783  -18.1857   17.8168 N   0  0  0  0  0  0  0  0  0  0  0  0
   13.0404  -18.3895   19.1589 C   0  0  0  0  0  0  0  0  0  0  0  0
   11.8953  -17.4811   19.5813 C   0  0  0  0  0  0  0  0  0  0  0  0
   11.5889  -17.6615   21.0245 C   0  0  0  0  0  0  0  0  0  0  0  0
   10.4352  -16.8444   21.5570 C   0  0  2  0  0  0  0  0  0  0  0  0
   10.2542  -15.7783   20.5543 N   0  0  0  0  0  0  0  0  0  0  0  0
   10.7927  -16.1724   22.8512 C   0  0  0  0  0  0  0  0  0  0  0  0
   11.5229  -15.1181   22.8037 O   0  0  0  0  0  0  0  0  0  0  0  0
   13.9326  -17.6439   15.3328 O   0  0  0  0  0  0  0  0  0  0  0  0
    5.7153  -11.6244   27.8902 C   0  0  0  0  0  0  0  0  0  0  0  0
    6.3795  -12.4857   27.0211 C   0  0  0  0  0  0  0  0  0  0  0  0
    5.7948  -13.6426   26.5760 C   0  0  0  0  0  0  0  0  0  0  0  0
    6.4517  -14.4960   25.7156 C   0  0  0  0  0  0  0  0  0  0  0  0
    7.7451  -14.2205   25.2573 C   0  0  0  0  0  0  0  0  0  0  0  0
    8.4578  -15.1373   24.3567 C   0  0  2  0  0  0  0  0  0  0  0  0
    9.6743  -15.6858   25.0228 N   0  0  0  0  0  0  0  0  0  0  0  0
   10.3937  -16.5985   24.1158 C   0  0  0  0  0  0  0  0  0  0  0  0
    9.3294  -16.4176   26.2582 O   0  0  0  0  0  0  0  0  0  0  0  0
    9.6103  -16.0028   27.5410 C   0  0  0  0  0  0  0  0  0  0  0  0
    8.3079  -13.0410   25.7279 C   0  0  0  0  0  0  0  0  0  0  0  0
    7.6577  -12.1982   26.5782 O   0  0  0  0  0  0  0  0  0  0  0  0
  2  1  1  6
  2  3  1  0
  4  3  1  0
  5  2  1  0
  6  5  2  0
  8  7  1  0
  9  8  2  0
 10  8  1  0
 11 12  1  0
 11 10  1  0
 12 13  1  0
 14 13  1  6
 14 15  1  0
 15  5  1  0
 16 14  1  0
 16 17  2  0
 18 19  1  0
 19 29  2  0
 20 21  2  0
 20 19  1  0
 21 22  1  0
 22 23  1  0
 22 28  2  0
 24 23  1  6
 24 25  1  0
 25 16  1  0
 26 24  1  0
 27 26  1  0
 29 28  1  0
 30 26  2  0
M  END
$$$$
