CRY.pdb
     RDKit          3D

 30 30  0  0  1  0  0  0  0  0999 V2000
    6.6179  -14.7101   18.4499 N   0  0  0  0  0  0  0  0  0  0  0  0
    7.7617  -14.2310   19.2052 C   0  0  1  0  0  0  0  0  0  0  0  0
    7.3857  -12.9126   19.8289 C   0  0  0  0  0  0  0  0  0  0  0  0
    8.8691  -12.2169   20.6074 S   0  0  0  0  0  0  0  0  0  0  0  0
    8.0939  -15.2589   20.2358 C   0  0  0  0  0  0  0  0  0  0  0  0
    7.2312  -15.6503   21.0735 O   0  0  0  0  0  0  0  0  0  0  0  0
   11.5363  -19.1965   16.9915 N   0  0  0  0  0  0  0  0  0  0  0  0
   11.3533  -20.5066   17.5374 C   0  0  0  0  0  0  0  0  0  0  0  0
   11.3897  -21.5190   16.7718 N   0  0  0  0  0  0  0  0  0  0  0  0
   11.1382  -20.6064   18.9288 N   0  0  0  0  0  0  0  0  0  0  0  0
   10.1553  -19.8181   19.5976 C   0  0  0  0  0  0  0  0  0  0  0  0
   10.3428  -18.3180   19.4257 C   0  0  0  0  0  0  0  0  0  0  0  0
   10.7767  -17.6950   20.7036 C   0  0  0  0  0  0  0  0  0  0  0  0
    9.7610  -16.8005   21.3749 C   0  0  2  0  0  0  0  0  0  0  0  0
    9.3765  -15.8388   20.3251 N   0  0  0  0  0  0  0  0  0  0  0  0
   10.3821  -16.0080   22.4888 C   0  0  0  0  0  0  0  0  0  0  0  0
   11.0828  -14.9780   22.1804 O   0  0  0  0  0  0  0  0  0  0  0  0
   11.2622  -22.4793   17.1558 O   0  0  0  0  0  0  0  0  0  0  0  0
   10.3150  -15.8587   31.1640 C   0  0  0  0  0  0  0  0  0  0  0  0
   10.2330  -15.5679   29.8049 C   0  0  0  0  0  0  0  0  0  0  0  0
   10.3164  -16.5541   28.8569 C   0  0  0  0  0  0  0  0  0  0  0  0
   10.2353  -16.2671   27.5111 C   0  0  0  0  0  0  0  0  0  0  0  0
   10.0643  -14.9564   27.0513 C   0  0  0  0  0  0  0  0  0  0  0  0
    9.9983  -14.6426   25.6171 C   0  0  1  0  0  0  0  0  0  0  0  0
   10.9654  -15.4817   24.8522 N   0  0  0  0  0  0  0  0  0  0  0  0
   10.2606  -16.2964   23.8459 C   0  0  0  0  0  0  0  0  0  0  0  0
   11.7238  -16.3808   25.7452 O   0  0  0  0  0  0  0  0  0  0  0  0
   11.5688  -17.7467   25.8278 C   0  0  0  0  0  0  0  0  0  0  0  0
    9.9841  -13.9820   28.0380 C   0  0  0  0  0  0  0  0  0  0  0  0
   10.0642  -14.2667   29.3678 O   0  0  0  0  0  0  0  0  0  0  0  0
  2  1  1  1
  2  3  1  0
  4  3  1  0
  5  2  1  0
  6  5  2  0
  8  7  1  0
  9  8  2  0
 10  8  1  0
 11 12  1  0
 11 10  1  0
 12 13  1  0
 14 13  1  6
 14 15  1  0
 15  5  1  0
 16 14  1  0
 16 17  2  0
 18 19  1  0
 19 29  2  0
 20 21  2  0
 20 19  1  0
 21 22  1  0
 22 23  1  0
 22 28  2  0
 24 23  1  6
 24 25  1  0
 25 16  1  0
 26 24  1  0
 27 26  1  0
 29 28  1  0
 30 26  2  0
M  END
$$$$
