CRY.pdb
     RDKit          3D

 30 30  0  0  1  0  0  0  0  0999 V2000
    5.7685  -20.3737   23.9802 N   0  0  0  0  0  0  0  0  0  0  0  0
    6.2513  -19.1126   24.5137 C   0  0  1  0  0  0  0  0  0  0  0  0
    6.9672  -19.4005   25.8073 C   0  0  0  0  0  0  0  0  0  0  0  0
    5.8688  -18.9318   27.1726 S   0  0  0  0  0  0  0  0  0  0  0  0
    7.1610  -18.5033   23.4986 C   0  0  0  0  0  0  0  0  0  0  0  0
    8.2334  -19.0765   23.1511 O   0  0  0  0  0  0  0  0  0  0  0  0
    8.7138  -15.1501   17.9290 N   0  0  0  0  0  0  0  0  0  0  0  0
    8.0162  -13.9822   17.4852 C   0  0  0  0  0  0  0  0  0  0  0  0
    7.9283  -13.7346   16.2428 N   0  0  0  0  0  0  0  0  0  0  0  0
    7.4494  -13.1492   18.4737 N   0  0  0  0  0  0  0  0  0  0  0  0
    6.8880  -13.6784   19.6734 C   0  0  0  0  0  0  0  0  0  0  0  0
    7.8250  -14.5980   20.4424 C   0  0  0  0  0  0  0  0  0  0  0  0
    7.0560  -15.4866   21.3526 C   0  0  0  0  0  0  0  0  0  0  0  0
    7.8755  -16.4669   22.1586 C   0  0  2  0  0  0  0  0  0  0  0  0
    6.8712  -17.2681   22.8827 N   0  0  0  0  0  0  0  0  0  0  0  0
    8.7050  -15.7643   23.1944 C   0  0  0  0  0  0  0  0  0  0  0  0
    8.2430  -14.6823   23.7071 O   0  0  0  0  0  0  0  0  0  0  0  0
    7.4439  -12.8757   15.9061 O   0  0  0  0  0  0  0  0  0  0  0  0
    5.6031  -12.1424   26.5441 C   0  0  0  0  0  0  0  0  0  0  0  0
    6.7237  -12.9577   26.4107 C   0  0  0  0  0  0  0  0  0  0  0  0
    7.9753  -12.4285   26.2326 C   0  0  0  0  0  0  0  0  0  0  0  0
    9.0853  -13.2350   26.1004 C   0  0  0  0  0  0  0  0  0  0  0  0
    8.9853  -14.6303   26.1419 C   0  0  0  0  0  0  0  0  0  0  0  0
   10.1627  -15.4949   25.9804 C   0  0  2  0  0  0  0  0  0  0  0  0
   10.7205  -15.3686   24.6030 N   0  0  0  0  0  0  0  0  0  0  0  0
    9.9482  -16.1916   23.6546 C   0  0  0  0  0  0  0  0  0  0  0  0
   12.1356  -15.7882   24.5534 O   0  0  0  0  0  0  0  0  0  0  0  0
   13.1785  -15.1705   25.2071 C   0  0  0  0  0  0  0  0  0  0  0  0
    7.7033  -15.1330   26.3232 C   0  0  0  0  0  0  0  0  0  0  0  0
    6.6068  -14.3351   26.4539 O   0  0  0  0  0  0  0  0  0  0  0  0
  2  1  1  6
  2  3  1  0
  4  3  1  0
  5  2  1  0
  6  5  2  0
  8  7  1  0
  9  8  2  0
 10  8  1  0
 11 12  1  0
 11 10  1  0
 12 13  1  0
 14 13  1  6
 14 15  1  0
 15  5  1  0
 16 14  1  0
 16 17  2  0
 18 19  1  0
 19 29  2  0
 20 21  2  0
 20 19  1  0
 21 22  1  0
 22 23  1  0
 22 28  2  0
 24 23  1  6
 24 25  1  0
 25 16  1  0
 26 24  1  0
 27 26  1  0
 29 28  1  0
 30 26  2  0
M  END
$$$$
