CRY.pdb
     RDKit          3D

 30 30  0  0  1  0  0  0  0  0999 V2000
    8.0524  -15.5173   17.1273 N   0  0  0  0  0  0  0  0  0  0  0  0
    8.5324  -14.7803   18.2827 C   0  0  1  0  0  0  0  0  0  0  0  0
    8.0924  -13.3475   18.1338 C   0  0  0  0  0  0  0  0  0  0  0  0
    8.6047  -12.4458   19.6220 S   0  0  0  0  0  0  0  0  0  0  0  0
    7.9545  -15.4153   19.5041 C   0  0  0  0  0  0  0  0  0  0  0  0
    6.7194  -15.6743   19.5867 O   0  0  0  0  0  0  0  0  0  0  0  0
    7.7984  -23.0137   21.1933 N   0  0  0  0  0  0  0  0  0  0  0  0
    6.6317  -22.1861   21.1541 C   0  0  0  0  0  0  0  0  0  0  0  0
    5.5340  -22.6639   20.7308 N   0  0  0  0  0  0  0  0  0  0  0  0
    6.7655  -20.8532   21.5989 N   0  0  0  0  0  0  0  0  0  0  0  0
    8.0259  -20.3129   21.9912 C   0  0  0  0  0  0  0  0  0  0  0  0
    7.9536  -18.8827   22.5051 C   0  0  0  0  0  0  0  0  0  0  0  0
    8.3143  -17.9213   21.4304 C   0  0  0  0  0  0  0  0  0  0  0  0
    8.2313  -16.4597   21.8032 C   0  0  2  0  0  0  0  0  0  0  0  0
    8.7515  -15.7541   20.6173 N   0  0  0  0  0  0  0  0  0  0  0  0
    9.1503  -16.1337   22.9450 C   0  0  0  0  0  0  0  0  0  0  0  0
   10.4009  -16.3858   22.8056 O   0  0  0  0  0  0  0  0  0  0  0  0
    4.6849  -22.0636   20.6638 O   0  0  0  0  0  0  0  0  0  0  0  0
    4.6605  -11.8224   26.8434 C   0  0  0  0  0  0  0  0  0  0  0  0
    5.9200  -12.3255   26.5289 C   0  0  0  0  0  0  0  0  0  0  0  0
    6.8096  -12.6868   27.5068 C   0  0  0  0  0  0  0  0  0  0  0  0
    8.0569  -13.1850   27.1964 C   0  0  0  0  0  0  0  0  0  0  0  0
    8.4717  -13.3445   25.8693 C   0  0  0  0  0  0  0  0  0  0  0  0
    9.8080  -13.8554   25.5332 C   0  0  1  0  0  0  0  0  0  0  0  0
    9.7482  -15.3121   25.2189 N   0  0  0  0  0  0  0  0  0  0  0  0
    8.7584  -15.5723   24.1579 C   0  0  0  0  0  0  0  0  0  0  0  0
    9.3878  -16.1068   26.4103 O   0  0  0  0  0  0  0  0  0  0  0  0
   10.1322  -16.2036   27.5649 C   0  0  0  0  0  0  0  0  0  0  0  0
    7.5464  -12.9685   24.9040 C   0  0  0  0  0  0  0  0  0  0  0  0
    6.3139  -12.4764   25.2119 O   0  0  0  0  0  0  0  0  0  0  0  0
  2  1  1  6
  2  3  1  0
  4  3  1  0
  5  2  1  0
  6  5  2  0
  8  7  1  0
  9  8  2  0
 10  8  1  0
 11 12  1  0
 11 10  1  0
 12 13  1  0
 14 13  1  6
 14 15  1  0
 15  5  1  0
 16 14  1  0
 16 17  2  0
 18 19  1  0
 19 29  2  0
 20 21  2  0
 20 19  1  0
 21 22  1  0
 22 23  1  0
 22 28  2  0
 24 23  1  6
 24 25  1  0
 25 16  1  0
 26 24  1  0
 27 26  1  0
 29 28  1  0
 30 26  2  0
M  END
$$$$
