CRY.pdb
     RDKit          3D

 30 30  0  0  1  0  0  0  0  0999 V2000
   13.8398  -18.3528   10.1800 N   0  0  0  0  0  0  0  0  0  0  0  0
   13.8421  -19.1511   11.3929 C   0  0  1  0  0  0  0  0  0  0  0  0
   15.0199  -20.0878   11.3287 C   0  0  0  0  0  0  0  0  0  0  0  0
   14.9900  -21.1292   12.8136 S   0  0  0  0  0  0  0  0  0  0  0  0
   13.9358  -18.2190   12.5554 C   0  0  0  0  0  0  0  0  0  0  0  0
   14.6015  -17.1461   12.4836 O   0  0  0  0  0  0  0  0  0  0  0  0
    7.5050  -15.5315   16.4254 N   0  0  0  0  0  0  0  0  0  0  0  0
    8.5130  -14.5410   16.2005 C   0  0  0  0  0  0  0  0  0  0  0  0
    8.1752  -13.3376   15.9766 N   0  0  0  0  0  0  0  0  0  0  0  0
    9.8592  -14.9633   16.2414 N   0  0  0  0  0  0  0  0  0  0  0  0
   10.2305  -16.2504   16.7314 C   0  0  0  0  0  0  0  0  0  0  0  0
   11.7103  -16.5685   16.5771 C   0  0  0  0  0  0  0  0  0  0  0  0
   11.9347  -17.4628   15.4112 C   0  0  0  0  0  0  0  0  0  0  0  0
   13.3677  -17.5928   14.9509 C   0  0  2  0  0  0  0  0  0  0  0  0
   13.2918  -18.4875   13.7811 N   0  0  0  0  0  0  0  0  0  0  0  0
   14.2116  -18.2879   15.9800 C   0  0  0  0  0  0  0  0  0  0  0  0
   14.0075  -19.5382   16.1852 O   0  0  0  0  0  0  0  0  0  0  0  0
    8.8981  -12.6066   15.8066 O   0  0  0  0  0  0  0  0  0  0  0  0
   19.7379  -20.7173   13.2610 C   0  0  0  0  0  0  0  0  0  0  0  0
   19.1653  -20.0945   14.3667 C   0  0  0  0  0  0  0  0  0  0  0  0
   19.0651  -20.7340   15.5747 C   0  0  0  0  0  0  0  0  0  0  0  0
   18.4983  -20.1182   16.6700 C   0  0  0  0  0  0  0  0  0  0  0  0
   17.9993  -18.8126   16.5987 C   0  0  0  0  0  0  0  0  0  0  0  0
   17.3751  -18.1592   17.7577 C   0  0  2  0  0  0  0  0  0  0  0  0
   15.9114  -18.4430   17.7938 N   0  0  0  0  0  0  0  0  0  0  0  0
   15.2114  -17.6859   16.7402 C   0  0  0  0  0  0  0  0  0  0  0  0
   15.3253  -18.0894   19.1023 O   0  0  0  0  0  0  0  0  0  0  0  0
   15.7069  -18.6099   20.3189 C   0  0  0  0  0  0  0  0  0  0  0  0
   18.1164  -18.1942   15.3605 C   0  0  0  0  0  0  0  0  0  0  0  0
   18.6769  -18.8036   14.2786 O   0  0  0  0  0  0  0  0  0  0  0  0
  2  1  1  6
  2  3  1  0
  4  3  1  0
  5  2  1  0
  6  5  2  0
  8  7  1  0
  9  8  2  0
 10  8  1  0
 11 12  1  0
 11 10  1  0
 12 13  1  0
 14 13  1  1
 14 15  1  0
 15  5  1  0
 16 14  1  0
 16 17  2  0
 18 19  1  0
 19 29  2  0
 20 21  2  0
 20 19  1  0
 21 22  1  0
 22 23  1  0
 22 28  2  0
 24 23  1  6
 24 25  1  0
 25 16  1  0
 26 24  1  0
 27 26  1  0
 29 28  1  0
 30 26  2  0
M  END
$$$$
