CRY.pdb
     RDKit          3D

 30 30  0  0  1  0  0  0  0  0999 V2000
    3.2776  -20.2513   21.8414 N   0  0  0  0  0  0  0  0  0  0  0  0
    3.4528  -18.9029   22.3509 C   0  0  1  0  0  0  0  0  0  0  0  0
    2.4832  -18.7073   23.4869 C   0  0  0  0  0  0  0  0  0  0  0  0
    0.8063  -18.6858   22.7956 S   0  0  0  0  0  0  0  0  0  0  0  0
    4.8700  -18.7627   22.7993 C   0  0  0  0  0  0  0  0  0  0  0  0
    5.4145  -19.6354   23.5349 O   0  0  0  0  0  0  0  0  0  0  0  0
    8.9806  -13.4424   20.1175 N   0  0  0  0  0  0  0  0  0  0  0  0
    8.3686  -13.7075   18.8515 C   0  0  0  0  0  0  0  0  0  0  0  0
    8.2375  -12.7692   18.0059 N   0  0  0  0  0  0  0  0  0  0  0  0
    7.9343  -15.0275   18.6035 N   0  0  0  0  0  0  0  0  0  0  0  0
    8.2672  -16.1063   19.4752 C   0  0  0  0  0  0  0  0  0  0  0  0
    7.4959  -16.1034   20.7868 C   0  0  0  0  0  0  0  0  0  0  0  0
    7.8403  -17.2994   21.5992 C   0  0  0  0  0  0  0  0  0  0  0  0
    7.0558  -17.4708   22.8789 C   0  0  2  0  0  0  0  0  0  0  0  0
    5.6645  -17.6582   22.4275 N   0  0  0  0  0  0  0  0  0  0  0  0
    7.0826  -16.2194   23.7082 C   0  0  0  0  0  0  0  0  0  0  0  0
    6.2295  -15.2986   23.4411 O   0  0  0  0  0  0  0  0  0  0  0  0
    7.7573  -12.9378   17.0967 O   0  0  0  0  0  0  0  0  0  0  0  0
   10.3206  -17.6283   30.4401 C   0  0  0  0  0  0  0  0  0  0  0  0
    9.6538  -16.8451   29.5019 C   0  0  0  0  0  0  0  0  0  0  0  0
   10.0034  -15.5378   29.2844 C   0  0  0  0  0  0  0  0  0  0  0  0
    9.3437  -14.7616   28.3558 C   0  0  0  0  0  0  0  0  0  0  0  0
    8.2873  -15.2724   27.5929 C   0  0  0  0  0  0  0  0  0  0  0  0
    7.5671  -14.4430   26.6167 C   0  0  1  0  0  0  0  0  0  0  0  0
    8.1629  -14.5964   25.2581 N   0  0  0  0  0  0  0  0  0  0  0  0
    7.9634  -15.9686   24.7576 C   0  0  0  0  0  0  0  0  0  0  0  0
    9.6094  -14.2993   25.2665 O   0  0  0  0  0  0  0  0  0  0  0  0
   10.1783  -13.0933   25.6109 C   0  0  0  0  0  0  0  0  0  0  0  0
    7.9589  -16.5995   27.8387 C   0  0  0  0  0  0  0  0  0  0  0  0
    8.6117  -17.3658   28.7566 O   0  0  0  0  0  0  0  0  0  0  0  0
  2  1  1  1
  2  3  1  0
  4  3  1  0
  5  2  1  0
  6  5  2  0
  8  7  1  0
  9  8  2  0
 10  8  1  0
 11 12  1  0
 11 10  1  0
 12 13  1  0
 14 13  1  6
 14 15  1  0
 15  5  1  0
 16 14  1  0
 16 17  2  0
 18 19  1  0
 19 29  2  0
 20 21  2  0
 20 19  1  0
 21 22  1  0
 22 23  1  0
 22 28  2  0
 24 23  1  6
 24 25  1  0
 25 16  1  0
 26 24  1  0
 27 26  1  0
 29 28  1  0
 30 26  2  0
M  END
$$$$
