CTT.pdb
     RDKit          3D

 21 20  0  0  1  0  0  0  0  0999 V2000
   25.6618  -20.2929  -15.3158 N   0  0  0  0  0  0  0  0  0  0  0  0
   24.4016  -19.7103  -15.7206 C   0  0  1  0  0  0  0  0  0  0  0  0
   23.2697  -20.1865  -14.8279 C   0  0  0  0  0  0  0  0  0  0  0  0
   23.3882  -21.9805  -14.5847 S   0  0  0  0  0  0  0  0  0  0  0  0
   24.4898  -18.2413  -15.5711 C   0  0  0  0  0  0  0  0  0  0  0  0
   25.0697  -17.7301  -14.5648 O   0  0  0  0  0  0  0  0  0  0  0  0
   25.0045  -13.9356  -17.5743 C   0  0  0  0  0  0  0  0  0  0  0  0
   24.9517  -15.4294  -17.6531 C   0  0  1  0  0  0  0  0  0  0  0  0
   26.2199  -16.0077  -17.4591 O   0  0  0  0  0  0  0  0  0  0  0  0
   24.0724  -15.9526  -16.5373 C   0  0  2  0  0  0  0  0  0  0  0  0
   23.9305  -17.3750  -16.5450 N   0  0  0  0  0  0  0  0  0  0  0  0
   22.7212  -15.3194  -16.7147 C   0  0  0  0  0  0  0  0  0  0  0  0
   21.9063  -15.7025  -17.5865 O   0  0  0  0  0  0  0  0  0  0  0  0
   19.0435  -13.0165  -14.5597 C   0  0  0  0  0  0  0  0  0  0  0  0
   20.3311  -13.7690  -14.6333 C   0  0  1  0  0  0  0  0  0  0  0  0
   20.2181  -15.1033  -14.2969 O   0  0  0  0  0  0  0  0  0  0  0  0
   20.9910  -13.6942  -15.9938 C   0  0  2  0  0  0  0  0  0  0  0  0
   22.3150  -14.2352  -15.8746 N   0  0  0  0  0  0  0  0  0  0  0  0
   21.0606  -12.3199  -16.5118 C   0  0  0  0  0  0  0  0  0  0  0  0
   22.0481  -11.5733  -16.3157 O   0  0  0  0  0  0  0  0  0  0  0  0
   19.9963  -11.8261  -17.2455 O   0  0  0  0  0  0  0  0  0  0  0  0
  2  3  1  0
  2  1  1  1
  4  3  1  0
  5 11  1  0
  5  2  1  0
  6  5  2  0
  8  7  1  1
  9  8  1  0
 10  8  1  0
 10 11  1  6
 12 10  1  0
 12 18  1  0
 13 12  2  0
 15 14  1  6
 16 15  1  0
 17 18  1  1
 17 15  1  0
 19 17  1  0
 20 19  2  0
 21 19  1  0
M  END
$$$$
