CTT.pdb
     RDKit          3D

 21 20  0  0  1  0  0  0  0  0999 V2000
   18.2376  -13.6770  -18.6438 N   0  0  0  0  0  0  0  0  0  0  0  0
   18.1676  -12.8805  -17.4388 C   0  0  1  0  0  0  0  0  0  0  0  0
   18.9461  -13.5314  -16.3096 C   0  0  0  0  0  0  0  0  0  0  0  0
   18.1664  -15.1031  -15.8478 S   0  0  0  0  0  0  0  0  0  0  0  0
   18.7938  -11.5667  -17.7030 C   0  0  0  0  0  0  0  0  0  0  0  0
   19.8205  -11.4801  -18.4438 O   0  0  0  0  0  0  0  0  0  0  0  0
   17.3241   -8.5692  -19.3122 C   0  0  0  0  0  0  0  0  0  0  0  0
   17.7236   -8.1175  -17.9423 C   0  0  1  0  0  0  0  0  0  0  0  0
   16.6422   -8.1587  -17.0428 O   0  0  0  0  0  0  0  0  0  0  0  0
   18.7675   -9.0668  -17.3935 C   0  0  2  0  0  0  0  0  0  0  0  0
   18.2632  -10.3795  -17.1368 N   0  0  0  0  0  0  0  0  0  0  0  0
   19.2673   -8.4685  -16.1088 C   0  0  0  0  0  0  0  0  0  0  0  0
   18.6717   -8.6224  -15.0168 O   0  0  0  0  0  0  0  0  0  0  0  0
   22.0294   -9.3087  -14.1613 C   0  0  0  0  0  0  0  0  0  0  0  0
   22.2361   -7.8701  -14.5040 C   0  0  1  0  0  0  0  0  0  0  0  0
   23.1273   -7.6650  -15.5384 O   0  0  0  0  0  0  0  0  0  0  0  0
   20.9526   -7.1481  -14.8554 C   0  0  2  0  0  0  0  0  0  0  0  0
   20.4655   -7.6872  -16.0932 N   0  0  0  0  0  0  0  0  0  0  0  0
   21.1403   -5.6957  -14.9857 C   0  0  0  0  0  0  0  0  0  0  0  0
   21.0900   -5.1045  -16.0898 O   0  0  0  0  0  0  0  0  0  0  0  0
   21.3825   -4.9470  -13.8474 O   0  0  0  0  0  0  0  0  0  0  0  0
  2  3  1  0
  2  1  1  6
  4  3  1  0
  5 11  1  0
  5  2  1  0
  6  5  2  0
  8  7  1  6
  9  8  1  0
 10  8  1  0
 10 11  1  1
 12 10  1  0
 12 18  1  0
 13 12  2  0
 15 14  1  6
 16 15  1  0
 17 18  1  6
 17 15  1  0
 19 17  1  0
 20 19  2  0
 21 19  1  0
M  END
$$$$
