CTT.pdb
     RDKit          3D

 21 20  0  0  1  0  0  0  0  0999 V2000
   19.8641  -13.1919  -17.6984 N   0  0  0  0  0  0  0  0  0  0  0  0
   19.4440  -11.8206  -17.5129 C   0  0  1  0  0  0  0  0  0  0  0  0
   17.9731  -11.7467  -17.1448 C   0  0  0  0  0  0  0  0  0  0  0  0
   16.9624  -12.3878  -18.5082 S   0  0  0  0  0  0  0  0  0  0  0  0
   20.2077  -11.2401  -16.3868 C   0  0  0  0  0  0  0  0  0  0  0  0
   20.6938  -11.9886  -15.4848 O   0  0  0  0  0  0  0  0  0  0  0  0
   22.8700  -11.0989  -15.3459 C   0  0  0  0  0  0  0  0  0  0  0  0
   22.7469   -9.6203  -15.5423 C   0  0  1  0  0  0  0  0  0  0  0  0
   23.1008   -9.2359  -16.8490 O   0  0  0  0  0  0  0  0  0  0  0  0
   21.2996   -9.2158  -15.3592 C   0  0  2  0  0  0  0  0  0  0  0  0
   20.4128   -9.8400  -16.2906 N   0  0  0  0  0  0  0  0  0  0  0  0
   21.2380   -7.7253  -15.5398 C   0  0  0  0  0  0  0  0  0  0  0  0
   21.1810   -7.1847  -16.6692 O   0  0  0  0  0  0  0  0  0  0  0  0
   19.9378   -5.5048  -12.3085 C   0  0  0  0  0  0  0  0  0  0  0  0
   19.8284   -5.0582  -13.7291 C   0  0  1  0  0  0  0  0  0  0  0  0
   19.6437   -3.6976  -13.8740 O   0  0  0  0  0  0  0  0  0  0  0  0
   21.0222   -5.4506  -14.5734 C   0  0  2  0  0  0  0  0  0  0  0  0
   21.2428   -6.8584  -14.4019 N   0  0  0  0  0  0  0  0  0  0  0  0
   22.2385   -4.7091  -14.2092 C   0  0  0  0  0  0  0  0  0  0  0  0
   23.1506   -5.2093  -13.5099 O   0  0  0  0  0  0  0  0  0  0  0  0
   22.3872   -3.4070  -14.6534 O   0  0  0  0  0  0  0  0  0  0  0  0
  2  3  1  0
  2  1  1  1
  4  3  1  0
  5 11  1  0
  5  2  1  0
  6  5  2  0
  8  7  1  6
  9  8  1  0
 10  8  1  0
 10 11  1  6
 12 10  1  0
 12 18  1  0
 13 12  2  0
 15 14  1  1
 16 15  1  0
 17 18  1  1
 17 15  1  0
 19 17  1  0
 20 19  2  0
 21 19  1  0
M  END
$$$$
