CTT.pdb
     RDKit          3D

 21 20  0  0  1  0  0  0  0  0999 V2000
   18.5766  -12.6649  -16.0037 N   0  0  0  0  0  0  0  0  0  0  0  0
   18.8423  -11.3604  -16.5685 C   0  0  1  0  0  0  0  0  0  0  0  0
   17.5495  -10.6356  -16.8973 C   0  0  0  0  0  0  0  0  0  0  0  0
   16.6141  -11.5732  -18.1373 S   0  0  0  0  0  0  0  0  0  0  0  0
   19.5581  -10.5460  -15.5623 C   0  0  0  0  0  0  0  0  0  0  0  0
   19.3432  -10.7183  -14.3236 O   0  0  0  0  0  0  0  0  0  0  0  0
   22.8579  -10.7719  -14.5944 C   0  0  0  0  0  0  0  0  0  0  0  0
   22.8041   -9.3728  -15.1234 C   0  0  1  0  0  0  0  0  0  0  0  0
   23.1842   -9.3113  -16.4770 O   0  0  0  0  0  0  0  0  0  0  0  0
   21.3757   -8.8753  -15.0615 C   0  0  2  0  0  0  0  0  0  0  0  0
   20.4964   -9.5587  -15.9577 N   0  0  0  0  0  0  0  0  0  0  0  0
   21.4075   -7.4154  -15.4164 C   0  0  0  0  0  0  0  0  0  0  0  0
   21.5287   -7.0110  -16.5965 O   0  0  0  0  0  0  0  0  0  0  0  0
   18.7783   -5.0932  -15.2623 C   0  0  0  0  0  0  0  0  0  0  0  0
   19.8555   -4.5195  -14.4019 C   0  0  1  0  0  0  0  0  0  0  0  0
   19.6619   -4.7287  -13.0509 O   0  0  0  0  0  0  0  0  0  0  0  0
   21.2367   -5.0315  -14.7512 C   0  0  2  0  0  0  0  0  0  0  0  0
   21.2979   -6.4204  -14.3945 N   0  0  0  0  0  0  0  0  0  0  0  0
   22.3033   -4.2933  -14.0588 C   0  0  0  0  0  0  0  0  0  0  0  0
   22.5932   -3.1061  -14.3369 O   0  0  0  0  0  0  0  0  0  0  0  0
   23.0186   -4.9299  -13.0599 O   0  0  0  0  0  0  0  0  0  0  0  0
  2  3  1  0
  2  1  1  1
  4  3  1  0
  5 11  1  0
  5  2  1  0
  6  5  2  0
  8  7  1  6
  9  8  1  0
 10  8  1  0
 10 11  1  6
 12 10  1  0
 12 18  1  0
 13 12  2  0
 15 14  1  6
 16 15  1  0
 17 18  1  1
 17 15  1  0
 19 17  1  0
 20 19  2  0
 21 19  1  0
M  END
$$$$
