CTT.pdb
     RDKit          3D

 21 20  0  0  1  0  0  0  0  0999 V2000
   23.6977  -13.9281  -17.9293 N   0  0  0  0  0  0  0  0  0  0  0  0
   23.7808  -13.0290  -16.7997 C   0  0  1  0  0  0  0  0  0  0  0  0
   25.2022  -12.9465  -16.2727 C   0  0  0  0  0  0  0  0  0  0  0  0
   25.7041  -14.5533  -15.5960 S   0  0  0  0  0  0  0  0  0  0  0  0
   23.3992  -11.6715  -17.2464 C   0  0  0  0  0  0  0  0  0  0  0  0
   23.8346  -11.2090  -18.3449 O   0  0  0  0  0  0  0  0  0  0  0  0
   20.1167  -10.3120  -18.1863 C   0  0  0  0  0  0  0  0  0  0  0  0
   20.5391   -9.5285  -16.9830 C   0  0  1  0  0  0  0  0  0  0  0  0
   20.0303  -10.0830  -15.7939 O   0  0  0  0  0  0  0  0  0  0  0  0
   22.0473   -9.5806  -16.8633 C   0  0  2  0  0  0  0  0  0  0  0  0
   22.5417  -10.8600  -16.4604 N   0  0  0  0  0  0  0  0  0  0  0  0
   22.4383   -8.5537  -15.8383 C   0  0  0  0  0  0  0  0  0  0  0  0
   22.7205   -8.8556  -14.6550 O   0  0  0  0  0  0  0  0  0  0  0  0
   23.3782   -4.5756  -17.1037 C   0  0  0  0  0  0  0  0  0  0  0  0
   23.9696   -5.3038  -15.9420 C   0  0  1  0  0  0  0  0  0  0  0  0
   24.5296   -4.4753  -14.9900 O   0  0  0  0  0  0  0  0  0  0  0  0
   22.9816   -6.2089  -15.2372 C   0  0  2  0  0  0  0  0  0  0  0  0
   22.5016   -7.1686  -16.1903 N   0  0  0  0  0  0  0  0  0  0  0  0
   21.8481   -5.4682  -14.6640 C   0  0  0  0  0  0  0  0  0  0  0  0
   20.6817   -5.5654  -15.1123 O   0  0  0  0  0  0  0  0  0  0  0  0
   22.0726   -4.6291  -13.5868 O   0  0  0  0  0  0  0  0  0  0  0  0
  2  3  1  0
  2  1  1  6
  4  3  1  0
  5 11  1  0
  5  2  1  0
  6  5  2  0
  8  7  1  6
  9  8  1  0
 10  8  1  0
 10 11  1  1
 12 10  1  0
 12 18  1  0
 13 12  2  0
 15 14  1  6
 16 15  1  0
 17 18  1  6
 17 15  1  0
 19 17  1  0
 20 19  2  0
 21 19  1  0
M  END
$$$$
