CTT.pdb
     RDKit          3D

 21 20  0  0  1  0  0  0  0  0999 V2000
   25.5559  -12.0319  -18.1585 N   0  0  0  0  0  0  0  0  0  0  0  0
   25.3221  -11.3103  -16.9272 C   0  0  1  0  0  0  0  0  0  0  0  0
   26.6197  -10.7598  -16.3637 C   0  0  0  0  0  0  0  0  0  0  0  0
   27.7282  -12.1253  -15.9186 S   0  0  0  0  0  0  0  0  0  0  0  0
   24.4439  -10.1553  -17.2152 C   0  0  0  0  0  0  0  0  0  0  0  0
   24.4822   -9.5841  -18.3477 O   0  0  0  0  0  0  0  0  0  0  0  0
   20.7695  -10.2659  -17.0808 C   0  0  0  0  0  0  0  0  0  0  0  0
   21.1385   -9.1470  -16.1578 C   0  0  1  0  0  0  0  0  0  0  0  0
   21.1688   -9.5663  -14.8148 O   0  0  0  0  0  0  0  0  0  0  0  0
   22.5394   -8.6764  -16.4863 C   0  0  2  0  0  0  0  0  0  0  0  0
   23.5435   -9.6626  -16.2364 N   0  0  0  0  0  0  0  0  0  0  0  0
   22.8056   -7.4708  -15.6297 C   0  0  0  0  0  0  0  0  0  0  0  0
   23.6386   -7.4797  -14.6932 O   0  0  0  0  0  0  0  0  0  0  0  0
   21.8667   -2.6312  -14.9564 C   0  0  0  0  0  0  0  0  0  0  0  0
   21.7026   -3.8994  -15.7274 C   0  0  1  0  0  0  0  0  0  0  0  0
   22.0904   -3.8035  -17.0491 O   0  0  0  0  0  0  0  0  0  0  0  0
   22.4425   -5.0708  -15.1170 C   0  0  2  0  0  0  0  0  0  0  0  0
   22.1000   -6.2484  -15.8625 N   0  0  0  0  0  0  0  0  0  0  0  0
   22.1131   -5.2679  -13.6977 C   0  0  0  0  0  0  0  0  0  0  0  0
   22.8340   -4.8312  -12.7701 O   0  0  0  0  0  0  0  0  0  0  0  0
   20.9627   -5.9624  -13.3675 O   0  0  0  0  0  0  0  0  0  0  0  0
  2  3  1  0
  2  1  1  6
  4  3  1  0
  5 11  1  0
  5  2  1  0
  6  5  2  0
  8  7  1  6
  9  8  1  0
 10  8  1  0
 10 11  1  1
 12 10  1  0
 12 18  1  0
 13 12  2  0
 15 14  1  1
 16 15  1  0
 17 18  1  6
 17 15  1  0
 19 17  1  0
 20 19  2  0
 21 19  1  0
M  END
$$$$
