CTT.pdb
     RDKit          3D

 21 20  0  0  1  0  0  0  0  0999 V2000
   17.0874  -12.8939  -15.4964 N   0  0  0  0  0  0  0  0  0  0  0  0
   16.8534  -11.4996  -15.8003 C   0  0  1  0  0  0  0  0  0  0  0  0
   16.0776  -10.8218  -14.6853 C   0  0  0  0  0  0  0  0  0  0  0  0
   14.3305  -11.3041  -14.7670 S   0  0  0  0  0  0  0  0  0  0  0  0
   18.1593  -10.8129  -15.9063 C   0  0  0  0  0  0  0  0  0  0  0  0
   19.1944  -11.3112  -15.3673 O   0  0  0  0  0  0  0  0  0  0  0  0
   21.0099   -7.5328  -18.1496 C   0  0  0  0  0  0  0  0  0  0  0  0
   19.7914   -8.4020  -18.1512 C   0  0  1  0  0  0  0  0  0  0  0  0
   19.9890   -9.5769  -18.9001 O   0  0  0  0  0  0  0  0  0  0  0  0
   19.4996   -8.8471  -16.7339 C   0  0  2  0  0  0  0  0  0  0  0  0
   18.2832   -9.5875  -16.6097 N   0  0  0  0  0  0  0  0  0  0  0  0
   19.4092   -7.6024  -15.8968 C   0  0  0  0  0  0  0  0  0  0  0  0
   18.3900   -6.8731  -15.8809 O   0  0  0  0  0  0  0  0  0  0  0  0
   22.6988   -6.5675  -13.3846 C   0  0  0  0  0  0  0  0  0  0  0  0
   21.2813   -6.2821  -13.0124 C   0  0  1  0  0  0  0  0  0  0  0  0
   21.1320   -5.1949  -12.1745 O   0  0  0  0  0  0  0  0  0  0  0  0
   20.3804   -6.0646  -14.2096 C   0  0  2  0  0  0  0  0  0  0  0  0
   20.5091   -7.2032  -15.0738 N   0  0  0  0  0  0  0  0  0  0  0  0
   20.7129   -4.8386  -14.9500 C   0  0  0  0  0  0  0  0  0  0  0  0
   21.4879   -4.8337  -15.9350 O   0  0  0  0  0  0  0  0  0  0  0  0
   20.1506   -3.6399  -14.5476 O   0  0  0  0  0  0  0  0  0  0  0  0
  2  3  1  0
  2  1  1  1
  4  3  1  0
  5 11  1  0
  5  2  1  0
  6  5  2  0
  8  7  1  1
  9  8  1  0
 10  8  1  0
 10 11  1  6
 12 10  1  0
 12 18  1  0
 13 12  2  0
 15 14  1  6
 16 15  1  0
 17 18  1  6
 17 15  1  0
 19 17  1  0
 20 19  2  0
 21 19  1  0
M  END
$$$$
