CTT.pdb
     RDKit          3D

 21 20  0  0  1  0  0  0  0  0999 V2000
   22.3931  -20.9046   -8.3230 N   0  0  0  0  0  0  0  0  0  0  0  0
   23.3294  -20.3938   -9.2996 C   0  0  1  0  0  0  0  0  0  0  0  0
   24.7389  -20.8759   -9.0070 C   0  0  0  0  0  0  0  0  0  0  0  0
   25.3979  -20.0120   -7.5541 S   0  0  0  0  0  0  0  0  0  0  0  0
   22.9551  -20.9157  -10.6321 C   0  0  0  0  0  0  0  0  0  0  0  0
   22.3736  -22.0380  -10.7439 O   0  0  0  0  0  0  0  0  0  0  0  0
   20.5383  -20.0899  -13.1985 C   0  0  0  0  0  0  0  0  0  0  0  0
   21.8674  -19.7881  -13.8172 C   0  0  1  0  0  0  0  0  0  0  0  0
   22.2377  -18.4435  -13.6290 O   0  0  0  0  0  0  0  0  0  0  0  0
   22.9315  -20.6202  -13.1337 C   0  0  2  0  0  0  0  0  0  0  0  0
   23.2365  -20.1766  -11.8095 N   0  0  0  0  0  0  0  0  0  0  0  0
   24.1676  -20.5291  -13.9833 C   0  0  0  0  0  0  0  0  0  0  0  0
   25.0992  -19.7284  -13.7344 O   0  0  0  0  0  0  0  0  0  0  0  0
   27.2750  -22.7751  -16.9276 C   0  0  0  0  0  0  0  0  0  0  0  0
   26.1513  -22.6656  -15.9504 C   0  0  1  0  0  0  0  0  0  0  0  0
   26.5038  -22.9898  -14.6554 O   0  0  0  0  0  0  0  0  0  0  0  0
   25.5151  -21.2921  -15.9215 C   0  0  2  0  0  0  0  0  0  0  0  0
   24.3219  -21.3728  -15.1280 N   0  0  0  0  0  0  0  0  0  0  0  0
   25.1855  -20.7951  -17.2654 C   0  0  0  0  0  0  0  0  0  0  0  0
   24.0657  -20.9788  -17.7977 O   0  0  0  0  0  0  0  0  0  0  0  0
   26.1461  -20.0961  -17.9752 O   0  0  0  0  0  0  0  0  0  0  0  0
  2  3  1  0
  2  1  1  1
  4  3  1  0
  5 11  1  0
  5  2  1  0
  6  5  2  0
  8  7  1  1
  9  8  1  0
 10  8  1  0
 10 11  1  1
 12 10  1  0
 12 18  1  0
 13 12  2  0
 15 14  1  6
 16 15  1  0
 17 18  1  1
 17 15  1  0
 19 17  1  0
 20 19  2  0
 21 19  1  0
M  END
$$$$
