CTT.pdb
     RDKit          3D

 21 20  0  0  1  0  0  0  0  0999 V2000
   19.0865  -13.5788  -16.9514 N   0  0  0  0  0  0  0  0  0  0  0  0
   18.6503  -12.2866  -16.4707 C   0  0  1  0  0  0  0  0  0  0  0  0
   18.0840  -12.3907  -15.0660 C   0  0  0  0  0  0  0  0  0  0  0  0
   16.4326  -13.1400  -15.1201 S   0  0  0  0  0  0  0  0  0  0  0  0
   19.8219  -11.3859  -16.4056 C   0  0  0  0  0  0  0  0  0  0  0  0
   20.9711  -11.8437  -16.1227 O   0  0  0  0  0  0  0  0  0  0  0  0
   21.6675   -9.7843  -18.8996 C   0  0  0  0  0  0  0  0  0  0  0  0
   21.1030   -8.6286  -18.1341 C   0  0  1  0  0  0  0  0  0  0  0  0
   19.8914   -8.1765  -18.6891 O   0  0  0  0  0  0  0  0  0  0  0  0
   20.7815   -9.0787  -16.7249 C   0  0  2  0  0  0  0  0  0  0  0  0
   19.6876   -9.9965  -16.6569 N   0  0  0  0  0  0  0  0  0  0  0  0
   20.4404   -7.8430  -15.9406 C   0  0  0  0  0  0  0  0  0  0  0  0
   19.2583   -7.4892  -15.7203 O   0  0  0  0  0  0  0  0  0  0  0  0
   22.1962   -4.1052  -13.1769 C   0  0  0  0  0  0  0  0  0  0  0  0
   22.3798   -5.3951  -13.9063 C   0  0  1  0  0  0  0  0  0  0  0  0
   22.7769   -6.4419  -13.0983 O   0  0  0  0  0  0  0  0  0  0  0  0
   21.1422   -5.8398  -14.6564 C   0  0  2  0  0  0  0  0  0  0  0  0
   21.4784   -7.0144  -15.4095 N   0  0  0  0  0  0  0  0  0  0  0  0
   20.6269   -4.8007  -15.5601 C   0  0  0  0  0  0  0  0  0  0  0  0
   19.6973   -4.0247  -15.2367 O   0  0  0  0  0  0  0  0  0  0  0  0
   21.1871   -4.6700  -16.8187 O   0  0  0  0  0  0  0  0  0  0  0  0
  2  3  1  0
  2  1  1  1
  4  3  1  0
  5 11  1  0
  5  2  1  0
  6  5  2  0
  8  7  1  6
  9  8  1  0
 10  8  1  0
 10 11  1  6
 12 10  1  0
 12 18  1  0
 13 12  2  0
 15 14  1  1
 16 15  1  0
 17 18  1  6
 17 15  1  0
 19 17  1  0
 20 19  2  0
 21 19  1  0
M  END
$$$$
