CTT.pdb
     RDKit          3D

 21 20  0  0  1  0  0  0  0  0999 V2000
   16.2897  -12.6742  -16.2571 N   0  0  0  0  0  0  0  0  0  0  0  0
   17.4129  -12.1093  -15.5425 C   0  0  1  0  0  0  0  0  0  0  0  0
   18.5151  -13.1372  -15.3602 C   0  0  0  0  0  0  0  0  0  0  0  0
   18.0257  -14.3510  -14.1037 S   0  0  0  0  0  0  0  0  0  0  0  0
   17.9751  -11.0010  -16.3447 C   0  0  0  0  0  0  0  0  0  0  0  0
   18.1800  -11.1459  -17.5886 O   0  0  0  0  0  0  0  0  0  0  0  0
   16.8218   -8.2693  -17.8989 C   0  0  0  0  0  0  0  0  0  0  0  0
   17.6812   -7.6436  -16.8453 C   0  0  1  0  0  0  0  0  0  0  0  0
   16.9558   -7.3791  -15.6688 O   0  0  0  0  0  0  0  0  0  0  0  0
   18.7758   -8.6152  -16.4585 C   0  0  2  0  0  0  0  0  0  0  0  0
   18.2963   -9.7568  -15.7443 N   0  0  0  0  0  0  0  0  0  0  0  0
   19.7426   -7.8590  -15.5916 C   0  0  0  0  0  0  0  0  0  0  0  0
   19.7746   -7.9889  -14.3453 O   0  0  0  0  0  0  0  0  0  0  0  0
   23.8381   -5.0651  -15.5227 C   0  0  0  0  0  0  0  0  0  0  0  0
   22.8064   -5.8719  -16.2399 C   0  0  1  0  0  0  0  0  0  0  0  0
   23.3080   -7.0044  -16.8500 O   0  0  0  0  0  0  0  0  0  0  0  0
   21.6581   -6.3009  -15.3514 C   0  0  2  0  0  0  0  0  0  0  0  0
   20.6772   -6.9473  -16.1759 N   0  0  0  0  0  0  0  0  0  0  0  0
   21.0427   -5.1706  -14.6403 C   0  0  0  0  0  0  0  0  0  0  0  0
   21.3461   -4.8678  -13.4625 O   0  0  0  0  0  0  0  0  0  0  0  0
   20.0904   -4.4076  -15.2928 O   0  0  0  0  0  0  0  0  0  0  0  0
  2  3  1  0
  2  1  1  6
  4  3  1  0
  5 11  1  0
  5  2  1  0
  6  5  2  0
  8  7  1  6
  9  8  1  0
 10  8  1  0
 10 11  1  1
 12 10  1  0
 12 18  1  0
 13 12  2  0
 15 14  1  1
 16 15  1  0
 17 18  1  6
 17 15  1  0
 19 17  1  0
 20 19  2  0
 21 19  1  0
M  END
$$$$
