CTT.pdb
     RDKit          3D

 21 20  0  0  1  0  0  0  0  0999 V2000
   17.1379  -13.9327  -15.6392 N   0  0  0  0  0  0  0  0  0  0  0  0
   16.7152  -12.7083  -16.2823 C   0  0  1  0  0  0  0  0  0  0  0  0
   15.2008  -12.6148  -16.3337 C   0  0  0  0  0  0  0  0  0  0  0  0
   14.5449  -13.8484  -17.4910 S   0  0  0  0  0  0  0  0  0  0  0  0
   17.1985  -11.5622  -15.4819 C   0  0  0  0  0  0  0  0  0  0  0  0
   17.2384  -11.6324  -14.2155 O   0  0  0  0  0  0  0  0  0  0  0  0
   20.4006  -10.3242  -15.0383 C   0  0  0  0  0  0  0  0  0  0  0  0
   19.7155   -9.1452  -15.6554 C   0  0  1  0  0  0  0  0  0  0  0  0
   19.8945   -9.1087  -17.0508 O   0  0  0  0  0  0  0  0  0  0  0  0
   18.2242   -9.2621  -15.4225 C   0  0  2  0  0  0  0  0  0  0  0  0
   17.6264  -10.3642  -16.1091 N   0  0  0  0  0  0  0  0  0  0  0  0
   17.6061   -7.9817  -15.9090 C   0  0  0  0  0  0  0  0  0  0  0  0
   17.1085   -7.8654  -17.0534 O   0  0  0  0  0  0  0  0  0  0  0  0
   15.9115   -5.5057  -13.2253 C   0  0  0  0  0  0  0  0  0  0  0  0
   15.6759   -5.4200  -14.6973 C   0  0  1  0  0  0  0  0  0  0  0  0
   15.1034   -4.2308  -15.1029 O   0  0  0  0  0  0  0  0  0  0  0  0
   16.9317   -5.6266  -15.5174 C   0  0  2  0  0  0  0  0  0  0  0  0
   17.5661   -6.8304  -15.0609 N   0  0  0  0  0  0  0  0  0  0  0  0
   17.8687   -4.4987  -15.4075 C   0  0  0  0  0  0  0  0  0  0  0  0
   18.8969   -4.5420  -14.6921 O   0  0  0  0  0  0  0  0  0  0  0  0
   17.6097   -3.3412  -16.1202 O   0  0  0  0  0  0  0  0  0  0  0  0
  2  3  1  0
  2  1  1  1
  4  3  1  0
  5 11  1  0
  5  2  1  0
  6  5  2  0
  8  7  1  6
  9  8  1  0
 10  8  1  0
 10 11  1  6
 12 10  1  0
 12 18  1  0
 13 12  2  0
 15 14  1  1
 16 15  1  0
 17 18  1  1
 17 15  1  0
 19 17  1  0
 20 19  2  0
 21 19  1  0
M  END
$$$$
