RSQ.pdb
     RDKit          3D

 27 26  0  0  1  0  0  0  0  0999 V2000
   25.0031  -15.0408  -20.5709 N   0  0  0  0  0  0  0  0  0  0  0  0
   23.6225  -15.0540  -20.8998 C   0  0  0  0  0  0  0  0  0  0  0  0
   23.1306  -14.4611  -21.9149 N   0  0  0  0  0  0  0  0  0  0  0  0
   22.7729  -15.7928  -20.0056 N   0  0  0  0  0  0  0  0  0  0  0  0
   23.3167  -16.4773  -18.8510 C   0  0  0  0  0  0  0  0  0  0  0  0
   22.8378  -17.8995  -18.8937 C   0  0  0  0  0  0  0  0  0  0  0  0
   23.2646  -18.7565  -17.7610 C   0  0  0  0  0  0  0  0  0  0  0  0
   24.3464  -18.2467  -16.8887 C   0  0  2  0  0  0  0  0  0  0  0  0
   25.3809  -17.5352  -17.5655 N   0  0  0  0  0  0  0  0  0  0  0  0
   24.8824  -19.3165  -16.0016 C   0  0  0  0  0  0  0  0  0  0  0  0
   24.1564  -20.2219  -15.5232 O   0  0  0  0  0  0  0  0  0  0  0  0
   22.1482  -14.3502  -22.1603 O   0  0  0  0  0  0  0  0  0  0  0  0
   28.7352  -20.9042  -13.4272 C   0  0  0  0  0  0  0  0  0  0  0  0
   28.2839  -20.0529  -14.4492 C   0  0  2  0  0  0  0  0  0  0  0  0
   26.7940  -20.1235  -14.5666 N   0  0  0  0  0  0  0  0  0  0  0  0
   26.2671  -19.3503  -15.6570 C   0  0  0  0  0  0  0  0  0  0  0  0
   26.0795  -19.8085  -13.3177 O   0  0  0  0  0  0  0  0  0  0  0  0
   25.4800  -18.7208  -13.2396 N   0  0  0  0  0  0  0  0  0  0  0  0
   21.0734  -20.2239  -12.2868 C   0  0  0  0  0  0  0  0  0  0  0  0
   21.3494  -20.1685  -10.8908 O   0  0  0  0  0  0  0  0  0  0  0  0
   20.3765  -20.0063  -10.1153 C   0  0  0  0  0  0  0  0  0  0  0  0
   22.7421  -20.3024  -10.4438 C   0  0  0  0  0  0  0  0  0  0  0  0
   23.7537  -20.4254  -11.5263 C   0  0  2  0  0  0  0  0  0  0  0  0
   25.1559  -20.6122  -11.0880 N   0  0  0  0  0  0  0  0  0  0  0  0
   26.0471  -20.6902  -12.2067 C   0  0  0  0  0  0  0  0  0  0  0  0
   25.3585  -21.6724  -10.0689 O   0  0  0  0  0  0  0  0  0  0  0  0
   26.1732  -22.7719  -10.2813 O   0  0  0  0  0  0  0  0  0  0  0  0
  2  1  1  0
  3  2  2  0
  4  2  1  0
  5  4  1  0
  6  5  1  0
  7  6  1  0
  8  9  1  6
  8  7  1  0
 10  8  1  0
 11 10  2  0
 12 13  1  0
 14 13  1  6
 14 15  1  0
 15 10  1  0
 16 14  1  0
 16 17  2  0
 19 20  2  0
 19 18  1  0
 21 19  1  0
 23 22  1  1
 22 21  1  0
 23 24  1  0
 24 16  1  0
 25 23  1  0
 26 25  1  0
 27 25  2  0
M  END
$$$$
