RSQ.pdb
     RDKit          3D

 27 26  0  0  1  0  0  0  0  0999 V2000
   25.3922  -23.9835  -14.4356 N   0  0  0  0  0  0  0  0  0  0  0  0
   24.5767  -24.2806  -15.5585 C   0  0  0  0  0  0  0  0  0  0  0  0
   24.9022  -24.0120  -16.7610 N   0  0  0  0  0  0  0  0  0  0  0  0
   23.3225  -24.9215  -15.2695 N   0  0  0  0  0  0  0  0  0  0  0  0
   22.1347  -24.1453  -14.9798 C   0  0  0  0  0  0  0  0  0  0  0  0
   22.3219  -23.5057  -13.6346 C   0  0  0  0  0  0  0  0  0  0  0  0
   21.1614  -23.5897  -12.7149 C   0  0  0  0  0  0  0  0  0  0  0  0
   19.9094  -24.1735  -13.2469 C   0  0  2  0  0  0  0  0  0  0  0  0
   19.2707  -23.4041  -14.2641 N   0  0  0  0  0  0  0  0  0  0  0  0
   18.9737  -24.5501  -12.1508 C   0  0  0  0  0  0  0  0  0  0  0  0
   18.1680  -23.7331  -11.6419 O   0  0  0  0  0  0  0  0  0  0  0  0
   24.3861  -24.2271  -17.6124 O   0  0  0  0  0  0  0  0  0  0  0  0
   19.2186  -28.2771   -9.9511 C   0  0  0  0  0  0  0  0  0  0  0  0
   17.9989  -27.8186  -10.4753 C   0  0  1  0  0  0  0  0  0  0  0  0
   18.0267  -26.3313  -10.6359 N   0  0  0  0  0  0  0  0  0  0  0  0
   18.9603  -25.8789  -11.6299 C   0  0  0  0  0  0  0  0  0  0  0  0
   18.2192  -25.5964   -9.3741 O   0  0  0  0  0  0  0  0  0  0  0  0
   19.3590  -25.1757   -9.1048 N   0  0  0  0  0  0  0  0  0  0  0  0
   13.4758  -23.4255   -5.7209 C   0  0  0  0  0  0  0  0  0  0  0  0
   14.6193  -23.0568   -4.9563 O   0  0  0  0  0  0  0  0  0  0  0  0
   14.4226  -22.4230   -3.8915 C   0  0  0  0  0  0  0  0  0  0  0  0
   15.9488  -23.4349   -5.4532 C   0  0  0  0  0  0  0  0  0  0  0  0
   15.9706  -24.1029   -6.7812 C   0  0  1  0  0  0  0  0  0  0  0  0
   17.2722  -24.6699   -7.2026 N   0  0  0  0  0  0  0  0  0  0  0  0
   17.1638  -25.3499   -8.4587 C   0  0  0  0  0  0  0  0  0  0  0  0
   17.9929  -25.4336   -6.1534 O   0  0  0  0  0  0  0  0  0  0  0  0
   18.8455  -24.8346   -5.2412 O   0  0  0  0  0  0  0  0  0  0  0  0
  2  1  1  0
  3  2  2  0
  4  2  1  0
  5  4  1  0
  6  5  1  0
  7  6  1  0
  8  9  1  6
  8  7  1  0
 10  8  1  0
 11 10  2  0
 12 13  1  0
 14 13  1  6
 14 15  1  0
 15 10  1  0
 16 14  1  0
 16 17  2  0
 19 20  2  0
 19 18  1  0
 21 19  1  0
 23 22  1  6
 22 21  1  0
 23 24  1  0
 24 16  1  0
 25 23  1  0
 26 25  1  0
 27 25  2  0
M  END
$$$$
