RSQ.pdb
     RDKit          3D

 27 26  0  0  1  0  0  0  0  0999 V2000
   19.1451  -13.6451  -14.7587 N   0  0  0  0  0  0  0  0  0  0  0  0
   17.9508  -14.2513  -15.2281 C   0  0  0  0  0  0  0  0  0  0  0  0
   17.8459  -15.4918  -15.5003 N   0  0  0  0  0  0  0  0  0  0  0  0
   16.8238  -13.3729  -15.3883 N   0  0  0  0  0  0  0  0  0  0  0  0
   16.9163  -11.9676  -15.0509 C   0  0  0  0  0  0  0  0  0  0  0  0
   15.9960  -11.7128  -13.8926 C   0  0  0  0  0  0  0  0  0  0  0  0
   16.0129  -10.3331  -13.3486 C   0  0  0  0  0  0  0  0  0  0  0  0
   15.2505  -10.0799  -12.1053 C   0  0  2  0  0  0  0  0  0  0  0  0
   13.8993  -10.5364  -12.1238 N   0  0  0  0  0  0  0  0  0  0  0  0
   15.3615   -8.6577  -11.6768 C   0  0  0  0  0  0  0  0  0  0  0  0
   14.8262   -7.7180  -12.3141 O   0  0  0  0  0  0  0  0  0  0  0  0
   17.0320  -15.9873  -15.8603 O   0  0  0  0  0  0  0  0  0  0  0  0
   15.0348   -7.2842   -8.0850 C   0  0  0  0  0  0  0  0  0  0  0  0
   16.2441   -6.7785   -8.5897 C   0  0  2  0  0  0  0  0  0  0  0  0
   16.3017   -6.9505  -10.0748 N   0  0  0  0  0  0  0  0  0  0  0  0
   16.0950   -8.3061  -10.5039 C   0  0  0  0  0  0  0  0  0  0  0  0
   17.5150   -6.3918  -10.6955 O   0  0  0  0  0  0  0  0  0  0  0  0
   18.5577   -7.0705  -10.6674 N   0  0  0  0  0  0  0  0  0  0  0  0
   22.6680   -5.4758  -14.5578 C   0  0  0  0  0  0  0  0  0  0  0  0
   21.5457   -5.9316  -13.8091 O   0  0  0  0  0  0  0  0  0  0  0  0
   21.6968   -6.9632  -13.1113 C   0  0  0  0  0  0  0  0  0  0  0  0
   20.2889   -5.1763  -13.8964 C   0  0  0  0  0  0  0  0  0  0  0  0
   19.2047   -5.6286  -12.9852 C   0  0  1  0  0  0  0  0  0  0  0  0
   18.6088   -4.5877  -12.1165 N   0  0  0  0  0  0  0  0  0  0  0  0
   17.5426   -5.1187  -11.3209 C   0  0  0  0  0  0  0  0  0  0  0  0
   18.2851   -3.3103  -12.7999 O   0  0  0  0  0  0  0  0  0  0  0  0
   19.2489   -2.3762  -13.1408 O   0  0  0  0  0  0  0  0  0  0  0  0
  2  1  1  0
  3  2  2  0
  4  2  1  0
  5  4  1  0
  6  5  1  0
  7  6  1  0
  8  9  1  6
  8  7  1  0
 10  8  1  0
 11 10  2  0
 12 13  1  0
 14 13  1  6
 14 15  1  0
 15 10  1  0
 16 14  1  0
 16 17  2  0
 19 20  2  0
 19 18  1  0
 21 19  1  0
 23 22  1  1
 22 21  1  0
 23 24  1  0
 24 16  1  0
 25 23  1  0
 26 25  1  0
 27 25  2  0
M  END
$$$$
