RSQ.pdb
     RDKit          3D

 27 26  0  0  1  0  0  0  0  0999 V2000
   31.6880  -22.2403  -11.0773 N   0  0  0  0  0  0  0  0  0  0  0  0
   31.1304  -21.4668  -10.0262 C   0  0  0  0  0  0  0  0  0  0  0  0
   31.7365  -21.2148   -8.9339 N   0  0  0  0  0  0  0  0  0  0  0  0
   29.8042  -20.9612  -10.2564 N   0  0  0  0  0  0  0  0  0  0  0  0
   29.0607  -21.3240  -11.4450 C   0  0  0  0  0  0  0  0  0  0  0  0
   28.8151  -20.0699  -12.2326 C   0  0  0  0  0  0  0  0  0  0  0  0
   27.5366  -20.0211  -12.9829 C   0  0  0  0  0  0  0  0  0  0  0  0
   27.0690  -21.2741  -13.6174 C   0  0  2  0  0  0  0  0  0  0  0  0
   27.7867  -21.6608  -14.7879 N   0  0  0  0  0  0  0  0  0  0  0  0
   25.5958  -21.2585  -13.8363 C   0  0  0  0  0  0  0  0  0  0  0  0
   25.0846  -21.2644  -14.9827 O   0  0  0  0  0  0  0  0  0  0  0  0
   31.4042  -20.6600   -8.1469 O   0  0  0  0  0  0  0  0  0  0  0  0
   22.7756  -20.4755  -10.6939 C   0  0  0  0  0  0  0  0  0  0  0  0
   22.5567  -21.5519  -11.5693 C   0  0  1  0  0  0  0  0  0  0  0  0
   23.2681  -21.3228  -12.8654 N   0  0  0  0  0  0  0  0  0  0  0  0
   24.6957  -21.2354  -12.7287 C   0  0  0  0  0  0  0  0  0  0  0  0
   22.7524  -20.1794  -13.6374 O   0  0  0  0  0  0  0  0  0  0  0  0
   23.3784  -19.1049  -13.5891 N   0  0  0  0  0  0  0  0  0  0  0  0
   19.7002  -16.0623  -12.4792 C   0  0  0  0  0  0  0  0  0  0  0  0
   19.5121  -15.8436  -13.8737 O   0  0  0  0  0  0  0  0  0  0  0  0
   19.0384  -14.7367  -14.2264 C   0  0  0  0  0  0  0  0  0  0  0  0
   19.8788  -16.9153  -14.8089 C   0  0  0  0  0  0  0  0  0  0  0  0
   20.4593  -18.1357  -14.1895 C   0  0  1  0  0  0  0  0  0  0  0  0
   20.9565  -19.1678  -15.1280 N   0  0  0  0  0  0  0  0  0  0  0  0
   21.5779  -20.2532  -14.4297 C   0  0  0  0  0  0  0  0  0  0  0  0
   21.7432  -18.6468  -16.2739 O   0  0  0  0  0  0  0  0  0  0  0  0
   21.2354  -17.7280  -17.1770 O   0  0  0  0  0  0  0  0  0  0  0  0
  2  1  1  0
  3  2  2  0
  4  2  1  0
  5  4  1  0
  6  5  1  0
  7  6  1  0
  8  9  1  6
  8  7  1  0
 10  8  1  0
 11 10  2  0
 12 13  1  0
 14 13  1  6
 14 15  1  0
 15 10  1  0
 16 14  1  0
 16 17  2  0
 19 20  2  0
 19 18  1  0
 21 19  1  0
 23 22  1  1
 22 21  1  0
 23 24  1  0
 24 16  1  0
 25 23  1  0
 26 25  1  0
 27 25  2  0
M  END
$$$$
