RSQ.pdb
     RDKit          3D

 27 26  0  0  1  0  0  0  0  0999 V2000
   19.9550  -13.3585  -19.2838 N   0  0  0  0  0  0  0  0  0  0  0  0
   18.7656  -14.0642  -19.6025 C   0  0  0  0  0  0  0  0  0  0  0  0
   18.7342  -15.1017  -20.3419 N   0  0  0  0  0  0  0  0  0  0  0  0
   17.5542  -13.5387  -19.0337 N   0  0  0  0  0  0  0  0  0  0  0  0
   17.5222  -13.0333  -17.6769 C   0  0  0  0  0  0  0  0  0  0  0  0
   17.6954  -11.5434  -17.7385 C   0  0  0  0  0  0  0  0  0  0  0  0
   17.6741  -10.8385  -16.4338 C   0  0  0  0  0  0  0  0  0  0  0  0
   18.2431  -11.5473  -15.2653 C   0  0  2  0  0  0  0  0  0  0  0  0
   17.2939  -12.2539  -14.4688 N   0  0  0  0  0  0  0  0  0  0  0  0
   19.1089  -10.6497  -14.4508 C   0  0  0  0  0  0  0  0  0  0  0  0
   18.6805  -10.0278  -13.4482 O   0  0  0  0  0  0  0  0  0  0  0  0
   17.9292  -15.6808  -20.5744 O   0  0  0  0  0  0  0  0  0  0  0  0
   22.9941   -9.4550  -15.8138 C   0  0  0  0  0  0  0  0  0  0  0  0
   22.7974   -9.7212  -14.4488 C   0  0  1  0  0  0  0  0  0  0  0  0
   21.3544   -9.5585  -14.0884 N   0  0  0  0  0  0  0  0  0  0  0  0
   20.4829  -10.4612  -14.7884 C   0  0  0  0  0  0  0  0  0  0  0  0
   20.8620   -8.1748  -14.1998 O   0  0  0  0  0  0  0  0  0  0  0  0
   20.3212   -7.8253  -15.2647 N   0  0  0  0  0  0  0  0  0  0  0  0
   17.7568   -4.7324  -10.2603 C   0  0  0  0  0  0  0  0  0  0  0  0
   18.1997   -3.7136  -11.1512 O   0  0  0  0  0  0  0  0  0  0  0  0
   17.7134   -2.5663  -11.0048 C   0  0  0  0  0  0  0  0  0  0  0  0
   19.1892   -4.0607  -12.1798 C   0  0  0  0  0  0  0  0  0  0  0  0
   19.6205   -5.4833  -12.1999 C   0  0  2  0  0  0  0  0  0  0  0  0
   20.6380   -5.8401  -13.2151 N   0  0  0  0  0  0  0  0  0  0  0  0
   20.9783   -7.2299  -13.1480 C   0  0  0  0  0  0  0  0  0  0  0  0
   21.8061   -4.9264  -13.2804 O   0  0  0  0  0  0  0  0  0  0  0  0
   21.8370   -3.8045  -14.0916 O   0  0  0  0  0  0  0  0  0  0  0  0
  2  1  1  0
  3  2  2  0
  4  2  1  0
  5  4  1  0
  6  5  1  0
  7  6  1  0
  8  9  1  1
  8  7  1  0
 10  8  1  0
 11 10  2  0
 12 13  1  0
 14 13  1  1
 14 15  1  0
 15 10  1  0
 16 14  1  0
 16 17  2  0
 19 20  2  0
 19 18  1  0
 21 19  1  0
 23 22  1  6
 22 21  1  0
 23 24  1  0
 24 16  1  0
 25 23  1  0
 26 25  1  0
 27 25  2  0
M  END
$$$$
