RSQ.pdb
     RDKit          3D

 27 26  0  0  1  0  0  0  0  0999 V2000
   30.8037  -26.0148  -16.2973 N   0  0  0  0  0  0  0  0  0  0  0  0
   30.0784  -26.3568  -17.4683 C   0  0  0  0  0  0  0  0  0  0  0  0
   29.9340  -27.5513  -17.8884 N   0  0  0  0  0  0  0  0  0  0  0  0
   29.4920  -25.2570  -18.1851 N   0  0  0  0  0  0  0  0  0  0  0  0
   29.6292  -23.8958  -17.7101 C   0  0  0  0  0  0  0  0  0  0  0  0
   29.0445  -23.8312  -16.3290 C   0  0  0  0  0  0  0  0  0  0  0  0
   27.7781  -23.0700  -16.2012 C   0  0  0  0  0  0  0  0  0  0  0  0
   27.7158  -21.7359  -16.8398 C   0  0  2  0  0  0  0  0  0  0  0  0
   28.9356  -20.9970  -16.8113 N   0  0  0  0  0  0  0  0  0  0  0  0
   26.5613  -20.9420  -16.3344 C   0  0  0  0  0  0  0  0  0  0  0  0
   26.5557  -20.4090  -15.1979 O   0  0  0  0  0  0  0  0  0  0  0  0
   29.4890  -27.8625  -18.7502 O   0  0  0  0  0  0  0  0  0  0  0  0
   23.1636  -20.0639  -18.8439 C   0  0  0  0  0  0  0  0  0  0  0  0
   23.6638  -19.1820  -17.8718 C   0  0  1  0  0  0  0  0  0  0  0  0
   24.2796  -19.9459  -16.7424 N   0  0  0  0  0  0  0  0  0  0  0  0
   25.3977  -20.7560  -17.1399 C   0  0  0  0  0  0  0  0  0  0  0  0
   23.3165  -20.7419  -15.9626 O   0  0  0  0  0  0  0  0  0  0  0  0
   23.2226  -21.9586  -16.2068 N   0  0  0  0  0  0  0  0  0  0  0  0
   21.5045  -19.0941  -10.2664 C   0  0  0  0  0  0  0  0  0  0  0  0
   20.8002  -18.4163  -11.3020 O   0  0  0  0  0  0  0  0  0  0  0  0
   20.2156  -17.3481  -10.9998 C   0  0  0  0  0  0  0  0  0  0  0  0
   20.7981  -19.0007  -12.6496 C   0  0  0  0  0  0  0  0  0  0  0  0
   21.4708  -20.3203  -12.7770 C   0  0  1  0  0  0  0  0  0  0  0  0
   21.5431  -20.8841  -14.1445 N   0  0  0  0  0  0  0  0  0  0  0  0
   22.4966  -20.1810  -14.9498 C   0  0  0  0  0  0  0  0  0  0  0  0
   20.2308  -21.1048  -14.8021 O   0  0  0  0  0  0  0  0  0  0  0  0
   19.3785  -22.1376  -14.4489 O   0  0  0  0  0  0  0  0  0  0  0  0
  2  1  1  0
  3  2  2  0
  4  2  1  0
  5  4  1  0
  6  5  1  0
  7  6  1  0
  8  9  1  1
  8  7  1  0
 10  8  1  0
 11 10  2  0
 12 13  1  0
 14 13  1  1
 14 15  1  0
 15 10  1  0
 16 14  1  0
 16 17  2  0
 19 20  2  0
 19 18  1  0
 21 19  1  0
 23 22  1  1
 22 21  1  0
 23 24  1  0
 24 16  1  0
 25 23  1  0
 26 25  1  0
 27 25  2  0
M  END
$$$$
