RSQ.pdb
     RDKit          3D

 27 26  0  0  1  0  0  0  0  0999 V2000
   29.3382  -19.7540  -18.0186 N   0  0  0  0  0  0  0  0  0  0  0  0
   29.0282  -18.4136  -18.3672 C   0  0  0  0  0  0  0  0  0  0  0  0
   29.0934  -17.9577  -19.5555 N   0  0  0  0  0  0  0  0  0  0  0  0
   28.6223  -17.5622  -17.2820 N   0  0  0  0  0  0  0  0  0  0  0  0
   28.4998  -18.0756  -15.9334 C   0  0  0  0  0  0  0  0  0  0  0  0
   27.0591  -18.4318  -15.7076 C   0  0  0  0  0  0  0  0  0  0  0  0
   26.7403  -19.0138  -14.3813 C   0  0  0  0  0  0  0  0  0  0  0  0
   27.0875  -20.4354  -14.1580 C   0  0  2  0  0  0  0  0  0  0  0  0
   27.4839  -21.1494  -15.3275 N   0  0  0  0  0  0  0  0  0  0  0  0
   26.0221  -21.1445  -13.3959 C   0  0  0  0  0  0  0  0  0  0  0  0
   25.2476  -21.9737  -13.9329 O   0  0  0  0  0  0  0  0  0  0  0  0
   28.9061  -17.0082  -19.8730 O   0  0  0  0  0  0  0  0  0  0  0  0
   24.9481  -19.8134   -9.4488 C   0  0  0  0  0  0  0  0  0  0  0  0
   24.8236  -21.1715   -9.7847 C   0  0  1  0  0  0  0  0  0  0  0  0
   24.6835  -21.3315  -11.2657 N   0  0  0  0  0  0  0  0  0  0  0  0
   25.8403  -20.9012  -12.0013 C   0  0  0  0  0  0  0  0  0  0  0  0
   23.4627  -20.7227  -11.8208 O   0  0  0  0  0  0  0  0  0  0  0  0
   23.5741  -19.6711  -12.4768 N   0  0  0  0  0  0  0  0  0  0  0  0
   21.4007  -19.5862  -16.9870 C   0  0  0  0  0  0  0  0  0  0  0  0
   21.2223  -20.5536  -15.9573 O   0  0  0  0  0  0  0  0  0  0  0  0
   21.2455  -21.7630  -16.2903 C   0  0  0  0  0  0  0  0  0  0  0  0
   21.0228  -20.0851  -14.5796 C   0  0  0  0  0  0  0  0  0  0  0  0
   20.7488  -21.1462  -13.5751 C   0  0  2  0  0  0  0  0  0  0  0  0
   20.9416  -20.7649  -12.1571 N   0  0  0  0  0  0  0  0  0  0  0  0
   22.1723  -21.2837  -11.6393 C   0  0  0  0  0  0  0  0  0  0  0  0
   19.7649  -20.9917  -11.2810 O   0  0  0  0  0  0  0  0  0  0  0  0
   18.6326  -20.1957  -11.3242 O   0  0  0  0  0  0  0  0  0  0  0  0
  2  1  1  0
  3  2  2  0
  4  2  1  0
  5  4  1  0
  6  5  1  0
  7  6  1  0
  8  9  1  6
  8  7  1  0
 10  8  1  0
 11 10  2  0
 12 13  1  0
 14 13  1  1
 14 15  1  0
 15 10  1  0
 16 14  1  0
 16 17  2  0
 19 20  2  0
 19 18  1  0
 21 19  1  0
 23 22  1  6
 22 21  1  0
 23 24  1  0
 24 16  1  0
 25 23  1  0
 26 25  1  0
 27 25  2  0
M  END
$$$$
