RSQ.pdb
     RDKit          3D

 27 26  0  0  1  0  0  0  0  0999 V2000
   27.5882  -23.8377  -16.7507 N   0  0  0  0  0  0  0  0  0  0  0  0
   27.2880  -25.0014  -17.5057 C   0  0  0  0  0  0  0  0  0  0  0  0
   27.9786  -25.3977  -18.5007 N   0  0  0  0  0  0  0  0  0  0  0  0
   26.1293  -25.7403  -17.0831 N   0  0  0  0  0  0  0  0  0  0  0  0
   25.4530  -25.4261  -15.8416 C   0  0  0  0  0  0  0  0  0  0  0  0
   24.1849  -24.6984  -16.1820 C   0  0  0  0  0  0  0  0  0  0  0  0
   22.9658  -25.1665  -15.4789 C   0  0  0  0  0  0  0  0  0  0  0  0
   22.6766  -26.6180  -15.5062 C   0  0  2  0  0  0  0  0  0  0  0  0
   22.3767  -27.1482  -16.7960 N   0  0  0  0  0  0  0  0  0  0  0  0
   21.6535  -26.9901  -14.4896 C   0  0  0  0  0  0  0  0  0  0  0  0
   20.4252  -26.8050  -14.6703 O   0  0  0  0  0  0  0  0  0  0  0  0
   27.8261  -26.2211  -19.0806 O   0  0  0  0  0  0  0  0  0  0  0  0
   20.7980  -28.7693  -10.0051 C   0  0  0  0  0  0  0  0  0  0  0  0
   21.7591  -28.5078  -10.9953 C   0  0  2  0  0  0  0  0  0  0  0  0
   21.1266  -27.8304  -12.1699 N   0  0  0  0  0  0  0  0  0  0  0  0
   22.0412  -27.5813  -13.2496 C   0  0  0  0  0  0  0  0  0  0  0  0
   20.3865  -26.6041  -11.8267 O   0  0  0  0  0  0  0  0  0  0  0  0
   20.9503  -25.5079  -11.9976 N   0  0  0  0  0  0  0  0  0  0  0  0
   17.0904  -23.3647  -14.3599 C   0  0  0  0  0  0  0  0  0  0  0  0
   16.9681  -22.6498  -13.1344 O   0  0  0  0  0  0  0  0  0  0  0  0
   16.3337  -21.5677  -13.1574 C   0  0  0  0  0  0  0  0  0  0  0  0
   17.5857  -23.2140  -11.9270 C   0  0  0  0  0  0  0  0  0  0  0  0
   18.3521  -24.4721  -12.1271 C   0  0  2  0  0  0  0  0  0  0  0  0
   18.2423  -25.4794  -11.0471 N   0  0  0  0  0  0  0  0  0  0  0  0
   19.0644  -26.6219  -11.3126 C   0  0  0  0  0  0  0  0  0  0  0  0
   16.8548  -25.8064  -10.6331 O   0  0  0  0  0  0  0  0  0  0  0  0
   16.3507  -27.0961  -10.6503 O   0  0  0  0  0  0  0  0  0  0  0  0
  2  1  1  0
  3  2  2  0
  4  2  1  0
  5  4  1  0
  6  5  1  0
  7  6  1  0
  8  9  1  6
  8  7  1  0
 10  8  1  0
 11 10  2  0
 12 13  1  0
 14 13  1  6
 14 15  1  0
 15 10  1  0
 16 14  1  0
 16 17  2  0
 19 20  2  0
 19 18  1  0
 21 19  1  0
 23 22  1  1
 22 21  1  0
 23 24  1  0
 24 16  1  0
 25 23  1  0
 26 25  1  0
 27 25  2  0
M  END
$$$$
