RSQ.pdb
     RDKit          3D

 27 26  0  0  1  0  0  0  0  0999 V2000
   12.3914  -10.7697  -15.5232 N   0  0  0  0  0  0  0  0  0  0  0  0
   12.9086  -11.8815  -14.8087 C   0  0  0  0  0  0  0  0  0  0  0  0
   12.1886  -12.6835  -14.1287 N   0  0  0  0  0  0  0  0  0  0  0  0
   14.3317  -12.0704  -14.8892 N   0  0  0  0  0  0  0  0  0  0  0  0
   15.0810  -11.6289  -16.0472 C   0  0  0  0  0  0  0  0  0  0  0  0
   16.5156  -12.0206  -15.8415 C   0  0  0  0  0  0  0  0  0  0  0  0
   17.4614  -11.5753  -16.8935 C   0  0  0  0  0  0  0  0  0  0  0  0
   18.8631  -12.0408  -16.7930 C   0  0  2  0  0  0  0  0  0  0  0  0
   19.0200  -13.4499  -16.6367 N   0  0  0  0  0  0  0  0  0  0  0  0
   19.6223  -11.2699  -15.7693 C   0  0  0  0  0  0  0  0  0  0  0  0
   19.3776  -11.3572  -14.5413 O   0  0  0  0  0  0  0  0  0  0  0  0
   12.4928  -13.4843  -13.5776 O   0  0  0  0  0  0  0  0  0  0  0  0
   23.4825   -9.7593  -16.4933 C   0  0  0  0  0  0  0  0  0  0  0  0
   22.9200  -10.0257  -15.2342 C   0  0  1  0  0  0  0  0  0  0  0  0
   21.4729   -9.6460  -15.2187 N   0  0  0  0  0  0  0  0  0  0  0  0
   20.6752  -10.3871  -16.1561 C   0  0  0  0  0  0  0  0  0  0  0  0
   21.2317   -8.2004  -15.3649 O   0  0  0  0  0  0  0  0  0  0  0  0
   20.6364   -7.8019  -16.3825 N   0  0  0  0  0  0  0  0  0  0  0  0
   17.6362   -4.6422  -15.8406 C   0  0  0  0  0  0  0  0  0  0  0  0
   18.5510   -3.6062  -15.4972 O   0  0  0  0  0  0  0  0  0  0  0  0
   18.1446   -2.4228  -15.5883 C   0  0  0  0  0  0  0  0  0  0  0  0
   19.9034   -3.9787  -15.0614 C   0  0  0  0  0  0  0  0  0  0  0  0
   20.1593   -5.4384  -14.9428 C   0  0  1  0  0  0  0  0  0  0  0  0
   21.5172   -5.8265  -14.4969 N   0  0  0  0  0  0  0  0  0  0  0  0
   21.6478   -7.2495  -14.3978 C   0  0  0  0  0  0  0  0  0  0  0  0
   22.0272   -5.0814  -13.3186 O   0  0  0  0  0  0  0  0  0  0  0  0
   22.3850   -3.7447  -13.3732 O   0  0  0  0  0  0  0  0  0  0  0  0
  2  1  1  0
  3  2  2  0
  4  2  1  0
  5  4  1  0
  6  5  1  0
  7  6  1  0
  8  9  1  1
  8  7  1  0
 10  8  1  0
 11 10  2  0
 12 13  1  0
 14 13  1  1
 14 15  1  0
 15 10  1  0
 16 14  1  0
 16 17  2  0
 19 20  2  0
 19 18  1  0
 21 19  1  0
 23 22  1  6
 22 21  1  0
 23 24  1  0
 24 16  1  0
 25 23  1  0
 26 25  1  0
 27 25  2  0
M  END
$$$$
