RSQ.pdb
     RDKit          3D

 27 26  0  0  1  0  0  0  0  0999 V2000
   28.2537  -18.9216  -13.6570 N   0  0  0  0  0  0  0  0  0  0  0  0
   27.2410  -19.8920  -13.8738 C   0  0  0  0  0  0  0  0  0  0  0  0
   27.1439  -20.9749  -13.2090 N   0  0  0  0  0  0  0  0  0  0  0  0
   26.2952  -19.5885  -14.9133 N   0  0  0  0  0  0  0  0  0  0  0  0
   26.5728  -18.5687  -15.9034 C   0  0  0  0  0  0  0  0  0  0  0  0
   25.6047  -17.4424  -15.6851 C   0  0  0  0  0  0  0  0  0  0  0  0
   24.1693  -17.7946  -15.8078 C   0  0  0  0  0  0  0  0  0  0  0  0
   23.7692  -18.6398  -16.9554 C   0  0  2  0  0  0  0  0  0  0  0  0
   24.1786  -18.1542  -18.2326 N   0  0  0  0  0  0  0  0  0  0  0  0
   22.3165  -18.9660  -16.9130 C   0  0  0  0  0  0  0  0  0  0  0  0
   21.5203  -18.6157  -17.8181 O   0  0  0  0  0  0  0  0  0  0  0  0
   26.5303  -21.7677  -13.3896 O   0  0  0  0  0  0  0  0  0  0  0  0
   20.5383  -20.6756  -13.4178 C   0  0  0  0  0  0  0  0  0  0  0  0
   20.0879  -21.0834  -14.6842 C   0  0  1  0  0  0  0  0  0  0  0  0
   20.3726  -20.0264  -15.7041 N   0  0  0  0  0  0  0  0  0  0  0  0
   21.7675  -19.7023  -15.8204 C   0  0  0  0  0  0  0  0  0  0  0  0
   19.5702  -18.8025  -15.5380 O   0  0  0  0  0  0  0  0  0  0  0  0
   20.0831  -17.8375  -14.9427 N   0  0  0  0  0  0  0  0  0  0  0  0
   18.7810  -14.1828  -19.1513 C   0  0  0  0  0  0  0  0  0  0  0  0
   17.8372  -15.1491  -18.7002 O   0  0  0  0  0  0  0  0  0  0  0  0
   16.8034  -15.3137  -19.3917 C   0  0  0  0  0  0  0  0  0  0  0  0
   18.1248  -15.8890  -17.4644 C   0  0  0  0  0  0  0  0  0  0  0  0
   17.0647  -16.8322  -17.0206 C   0  0  2  0  0  0  0  0  0  0  0  0
   17.3468  -17.5909  -15.7804 N   0  0  0  0  0  0  0  0  0  0  0  0
   18.2440  -18.6799  -16.0267 C   0  0  0  0  0  0  0  0  0  0  0  0
   16.1498  -17.9528  -14.9806 O   0  0  0  0  0  0  0  0  0  0  0  0
   15.3161  -17.0072  -14.4075 O   0  0  0  0  0  0  0  0  0  0  0  0
  2  1  1  0
  3  2  2  0
  4  2  1  0
  5  4  1  0
  6  5  1  0
  7  6  1  0
  8  9  1  6
  8  7  1  0
 10  8  1  0
 11 10  2  0
 12 13  1  0
 14 13  1  6
 14 15  1  0
 15 10  1  0
 16 14  1  0
 16 17  2  0
 19 20  2  0
 19 18  1  0
 21 19  1  0
 23 22  1  1
 22 21  1  0
 23 24  1  0
 24 16  1  0
 25 23  1  0
 26 25  1  0
 27 25  2  0
M  END
$$$$
