RSQ.pdb
     RDKit          3D

 27 26  0  0  1  0  0  0  0  0999 V2000
   28.3249  -22.3604  -15.1214 N   0  0  0  0  0  0  0  0  0  0  0  0
   28.5773  -21.9620  -16.4599 C   0  0  0  0  0  0  0  0  0  0  0  0
   29.6850  -22.1556  -17.0595 N   0  0  0  0  0  0  0  0  0  0  0  0
   27.4892  -21.3072  -17.1341 N   0  0  0  0  0  0  0  0  0  0  0  0
   27.2369  -19.8931  -16.9498 C   0  0  0  0  0  0  0  0  0  0  0  0
   27.0295  -19.6519  -15.4827 C   0  0  0  0  0  0  0  0  0  0  0  0
   25.6172  -19.5843  -15.0350 C   0  0  0  0  0  0  0  0  0  0  0  0
   24.5858  -19.3264  -16.0652 C   0  0  2  0  0  0  0  0  0  0  0  0
   24.8546  -18.2184  -16.9223 N   0  0  0  0  0  0  0  0  0  0  0  0
   23.2224  -19.2629  -15.4689 C   0  0  0  0  0  0  0  0  0  0  0  0
   22.6241  -18.1777  -15.2686 O   0  0  0  0  0  0  0  0  0  0  0  0
   29.9055  -21.9828  -18.0389 O   0  0  0  0  0  0  0  0  0  0  0  0
   20.3581  -22.4288  -15.6549 C   0  0  0  0  0  0  0  0  0  0  0  0
   20.1930  -21.0387  -15.5409 C   0  0  1  0  0  0  0  0  0  0  0  0
   21.1928  -20.4716  -14.5832 N   0  0  0  0  0  0  0  0  0  0  0  0
   22.5347  -20.4570  -15.0964 C   0  0  0  0  0  0  0  0  0  0  0  0
   21.1580  -21.0888  -13.2463 O   0  0  0  0  0  0  0  0  0  0  0  0
   21.9286  -22.0380  -13.0148 N   0  0  0  0  0  0  0  0  0  0  0  0
   15.6468  -20.7340  -14.0664 C   0  0  0  0  0  0  0  0  0  0  0  0
   15.5217  -21.5769  -12.9253 O   0  0  0  0  0  0  0  0  0  0  0  0
   14.3989  -22.0929  -12.7084 C   0  0  0  0  0  0  0  0  0  0  0  0
   16.7014  -21.7907  -12.0767 C   0  0  0  0  0  0  0  0  0  0  0  0
   17.9436  -21.1053  -12.5214 C   0  0  2  0  0  0  0  0  0  0  0  0
   19.1528  -21.3558  -11.7040 N   0  0  0  0  0  0  0  0  0  0  0  0
   20.2867  -20.6469  -12.2175 C   0  0  0  0  0  0  0  0  0  0  0  0
   19.4136  -22.7833  -11.3910 O   0  0  0  0  0  0  0  0  0  0  0  0
   19.6281  -23.2419  -10.1021 O   0  0  0  0  0  0  0  0  0  0  0  0
  2  1  1  0
  3  2  2  0
  4  2  1  0
  5  4  1  0
  6  5  1  0
  7  6  1  0
  8  9  1  1
  8  7  1  0
 10  8  1  0
 11 10  2  0
 12 13  1  0
 14 13  1  6
 14 15  1  0
 15 10  1  0
 16 14  1  0
 16 17  2  0
 19 20  2  0
 19 18  1  0
 21 19  1  0
 23 22  1  1
 22 21  1  0
 23 24  1  0
 24 16  1  0
 25 23  1  0
 26 25  1  0
 27 25  2  0
M  END
$$$$
