RSQ.pdb
     RDKit          3D

 27 26  0  0  1  0  0  0  0  0999 V2000
   21.3772  -30.1862  -10.6268 N   0  0  0  0  0  0  0  0  0  0  0  0
   20.9445  -30.8129   -9.4292 C   0  0  0  0  0  0  0  0  0  0  0  0
   21.4528  -31.8867   -8.9681 N   0  0  0  0  0  0  0  0  0  0  0  0
   19.8691  -30.1593   -8.7337 N   0  0  0  0  0  0  0  0  0  0  0  0
   19.5084  -28.7888   -9.0321 C   0  0  0  0  0  0  0  0  0  0  0  0
   18.3057  -28.4407   -8.2039 C   0  0  0  0  0  0  0  0  0  0  0  0
   17.7549  -27.0791   -8.4095 C   0  0  0  0  0  0  0  0  0  0  0  0
   18.6452  -25.9318   -8.1226 C   0  0  2  0  0  0  0  0  0  0  0  0
   18.6373  -25.4875   -6.7672 N   0  0  0  0  0  0  0  0  0  0  0  0
   18.4257  -24.8163   -9.0850 C   0  0  0  0  0  0  0  0  0  0  0  0
   17.5464  -23.9379   -8.9095 O   0  0  0  0  0  0  0  0  0  0  0  0
   21.1712  -32.4072   -8.1391 O   0  0  0  0  0  0  0  0  0  0  0  0
   20.4244  -24.8922  -12.7752 C   0  0  0  0  0  0  0  0  0  0  0  0
   20.1236  -23.6167  -12.2699 C   0  0  1  0  0  0  0  0  0  0  0  0
   19.0139  -23.7005  -11.2698 N   0  0  0  0  0  0  0  0  0  0  0  0
   19.2227  -24.7049  -10.2639 C   0  0  0  0  0  0  0  0  0  0  0  0
   17.6763  -23.8413  -11.8702 O   0  0  0  0  0  0  0  0  0  0  0  0
   16.9635  -24.7939  -11.5054 N   0  0  0  0  0  0  0  0  0  0  0  0
   13.1842  -21.4063  -10.4531 C   0  0  0  0  0  0  0  0  0  0  0  0
   12.5710  -22.0120  -11.5867 O   0  0  0  0  0  0  0  0  0  0  0  0
   11.3257  -21.9056  -11.6959 C   0  0  0  0  0  0  0  0  0  0  0  0
   13.4224  -22.7195  -12.5522 C   0  0  0  0  0  0  0  0  0  0  0  0
   14.8585  -22.8261  -12.1828 C   0  0  1  0  0  0  0  0  0  0  0  0
   15.8185  -22.8679  -13.3096 N   0  0  0  0  0  0  0  0  0  0  0  0
   17.1705  -22.9396  -12.8418 C   0  0  0  0  0  0  0  0  0  0  0  0
   15.5896  -21.8512  -14.3667 O   0  0  0  0  0  0  0  0  0  0  0  0
   14.5994  -21.9763  -15.3266 O   0  0  0  0  0  0  0  0  0  0  0  0
  2  1  1  0
  3  2  2  0
  4  2  1  0
  5  4  1  0
  6  5  1  0
  7  6  1  0
  8  9  1  1
  8  7  1  0
 10  8  1  0
 11 10  2  0
 12 13  1  0
 14 13  1  1
 14 15  1  0
 15 10  1  0
 16 14  1  0
 16 17  2  0
 19 20  2  0
 19 18  1  0
 21 19  1  0
 23 22  1  6
 22 21  1  0
 23 24  1  0
 24 16  1  0
 25 23  1  0
 26 25  1  0
 27 25  2  0
M  END
$$$$
