RSQ.pdb
     RDKit          3D

 27 26  0  0  1  0  0  0  0  0999 V2000
    9.5391  -22.8296   -2.2506 N   0  0  0  0  0  0  0  0  0  0  0  0
    9.4457  -21.4769   -2.6696 C   0  0  0  0  0  0  0  0  0  0  0  0
    8.6036  -20.6455   -2.1966 N   0  0  0  0  0  0  0  0  0  0  0  0
   10.3766  -21.0709   -3.6874 N   0  0  0  0  0  0  0  0  0  0  0  0
   11.3427  -22.0020   -4.2324 C   0  0  0  0  0  0  0  0  0  0  0  0
   12.3880  -22.2446   -3.1826 C   0  0  0  0  0  0  0  0  0  0  0  0
   13.4691  -23.1884   -3.5570 C   0  0  0  0  0  0  0  0  0  0  0  0
   14.5197  -23.4578   -2.5494 C   0  0  2  0  0  0  0  0  0  0  0  0
   14.8139  -22.3663   -1.6795 N   0  0  0  0  0  0  0  0  0  0  0  0
   15.7446  -24.0275   -3.1768 C   0  0  0  0  0  0  0  0  0  0  0  0
   16.6318  -23.3084   -3.6979 O   0  0  0  0  0  0  0  0  0  0  0  0
    8.5070  -19.6564   -2.4199 O   0  0  0  0  0  0  0  0  0  0  0  0
   16.8199  -28.0662   -2.5989 C   0  0  0  0  0  0  0  0  0  0  0  0
   17.7518  -27.0997   -3.0115 C   0  0  1  0  0  0  0  0  0  0  0  0
   17.0841  -26.0564   -3.8507 N   0  0  0  0  0  0  0  0  0  0  0  0
   15.9568  -25.4387   -3.2088 C   0  0  0  0  0  0  0  0  0  0  0  0
   16.7204  -26.5173   -5.2015 O   0  0  0  0  0  0  0  0  0  0  0  0
   15.5423  -26.8592   -5.4106 N   0  0  0  0  0  0  0  0  0  0  0  0
   20.6486  -25.8045  -10.0117 C   0  0  0  0  0  0  0  0  0  0  0  0
   19.4528  -25.0315  -10.0366 O   0  0  0  0  0  0  0  0  0  0  0  0
   19.4321  -24.0229  -10.7825 C   0  0  0  0  0  0  0  0  0  0  0  0
   18.3248  -25.4544   -9.1961 C   0  0  0  0  0  0  0  0  0  0  0  0
   18.4876  -26.7675   -8.5183 C   0  0  2  0  0  0  0  0  0  0  0  0
   17.4182  -27.1448   -7.5658 N   0  0  0  0  0  0  0  0  0  0  0  0
   17.6535  -26.5863   -6.2679 C   0  0  0  0  0  0  0  0  0  0  0  0
   17.0661  -28.5868   -7.5571 O   0  0  0  0  0  0  0  0  0  0  0  0
   16.0577  -29.1180   -8.3436 O   0  0  0  0  0  0  0  0  0  0  0  0
  2  1  1  0
  3  2  2  0
  4  2  1  0
  5  4  1  0
  6  5  1  0
  7  6  1  0
  8  9  1  6
  8  7  1  0
 10  8  1  0
 11 10  2  0
 12 13  1  0
 14 13  1  1
 14 15  1  0
 15 10  1  0
 16 14  1  0
 16 17  2  0
 19 20  2  0
 19 18  1  0
 21 19  1  0
 23 22  1  6
 22 21  1  0
 23 24  1  0
 24 16  1  0
 25 23  1  0
 26 25  1  0
 27 25  2  0
M  END
$$$$
