RSQ.pdb
     RDKit          3D

 27 26  0  0  1  0  0  0  0  0999 V2000
   26.1239  -19.9728  -11.3403 N   0  0  0  0  0  0  0  0  0  0  0  0
   26.2995  -21.3131  -11.7728 C   0  0  0  0  0  0  0  0  0  0  0  0
   26.0627  -22.3299  -11.0419 N   0  0  0  0  0  0  0  0  0  0  0  0
   26.7729  -21.4794  -13.1202 N   0  0  0  0  0  0  0  0  0  0  0  0
   27.2206  -20.3452  -13.9015 C   0  0  0  0  0  0  0  0  0  0  0  0
   26.0531  -19.4172  -14.0730 C   0  0  0  0  0  0  0  0  0  0  0  0
   26.3228  -18.1791  -14.8437 C   0  0  0  0  0  0  0  0  0  0  0  0
   26.3338  -18.2827  -16.3203 C   0  0  2  0  0  0  0  0  0  0  0  0
   27.3359  -17.5037  -16.9712 N   0  0  0  0  0  0  0  0  0  0  0  0
   24.9782  -18.0543  -16.8938 C   0  0  0  0  0  0  0  0  0  0  0  0
   24.4173  -16.9316  -16.8715 O   0  0  0  0  0  0  0  0  0  0  0  0
   26.1350  -23.3138  -11.2953 O   0  0  0  0  0  0  0  0  0  0  0  0
   22.6018  -21.2982  -18.5822 C   0  0  0  0  0  0  0  0  0  0  0  0
   22.4567  -19.9507  -18.9511 C   0  0  1  0  0  0  0  0  0  0  0  0
   22.8561  -19.0549  -17.8213 N   0  0  0  0  0  0  0  0  0  0  0  0
   24.2549  -19.1249  -17.5005 C   0  0  0  0  0  0  0  0  0  0  0  0
   22.0390  -19.2218  -16.6073 O   0  0  0  0  0  0  0  0  0  0  0  0
   22.6233  -19.3993  -15.5230 N   0  0  0  0  0  0  0  0  0  0  0  0
   18.7487  -17.6527  -12.1659 C   0  0  0  0  0  0  0  0  0  0  0  0
   20.0146  -18.2905  -12.0288 O   0  0  0  0  0  0  0  0  0  0  0  0
   20.4078  -18.5505  -10.8660 C   0  0  0  0  0  0  0  0  0  0  0  0
   20.7793  -18.6033  -13.2432 C   0  0  0  0  0  0  0  0  0  0  0  0
   20.1912  -18.1089  -14.5161 C   0  0  2  0  0  0  0  0  0  0  0  0
   19.7600  -19.1474  -15.4798 N   0  0  0  0  0  0  0  0  0  0  0  0
   20.6208  -19.1882  -16.6240 C   0  0  0  0  0  0  0  0  0  0  0  0
   18.3113  -19.1397  -15.8035 O   0  0  0  0  0  0  0  0  0  0  0  0
   17.8320  -19.0212  -17.0973 O   0  0  0  0  0  0  0  0  0  0  0  0
  2  1  1  0
  3  2  2  0
  4  2  1  0
  5  4  1  0
  6  5  1  0
  7  6  1  0
  8  9  1  6
  8  7  1  0
 10  8  1  0
 11 10  2  0
 12 13  1  0
 14 13  1  6
 14 15  1  0
 15 10  1  0
 16 14  1  0
 16 17  2  0
 19 20  2  0
 19 18  1  0
 21 19  1  0
 23 22  1  1
 22 21  1  0
 23 24  1  0
 24 16  1  0
 25 23  1  0
 26 25  1  0
 27 25  2  0
M  END
$$$$
