PQI.pdb
     RDKit          3D

 25 25  0  0  1  0  0  0  0  0999 V2000
   17.5872  -14.6574  -15.9201 N   0  0  0  0  0  0  0  0  0  0  0  0
   17.2404  -16.0589  -16.0620 C   0  0  0  0  0  0  0  0  0  0  0  0
   17.6818  -16.4894  -17.4359 C   0  0  0  0  0  0  0  0  0  0  0  0
   18.3448  -15.2303  -18.0099 C   0  0  0  0  0  0  0  0  0  0  0  0
   18.7744  -14.5423  -16.7255 C   0  0  1  0  0  0  0  0  0  0  0  0
   19.1561  -13.1265  -16.9619 C   0  0  0  0  0  0  0  0  0  0  0  0
   20.2844  -12.9098  -17.4753 O   0  0  0  0  0  0  0  0  0  0  0  0
   14.7301  -10.2617  -17.1946 N   0  0  0  0  0  0  0  0  0  0  0  0
   15.3482  -10.3113  -18.4599 C   0  0  0  0  0  0  0  0  0  0  0  0
   14.6781  -10.4885  -19.4928 O   0  0  0  0  0  0  0  0  0  0  0  0
   16.8351  -10.1505  -18.5877 C   0  0  0  0  0  0  0  0  0  0  0  0
   17.4532   -9.9215  -17.2556 C   0  0  0  0  0  0  0  0  0  0  0  0
   18.7463  -10.6358  -16.9840 C   0  0  2  0  0  0  0  0  0  0  0  0
   18.3383  -12.0333  -16.6481 N   0  0  0  0  0  0  0  0  0  0  0  0
   19.5490  -10.0919  -15.8801 C   0  0  0  0  0  0  0  0  0  0  0  0
   19.1539  -10.2225  -14.6645 O   0  0  0  0  0  0  0  0  0  0  0  0
   24.3239  -11.3639  -15.2008 C   0  0  0  0  0  0  0  0  0  0  0  0
   22.9427  -10.7851  -15.0427 C   0  0  0  0  0  0  0  0  0  0  0  0
   22.9488   -9.2734  -15.0302 C   0  0  2  0  0  0  0  0  0  0  0  0
   23.7094   -8.6905  -13.8849 C   0  0  0  0  0  0  0  0  0  0  0  0
   21.4778   -8.8499  -14.8830 C   0  0  2  0  0  0  0  0  0  0  0  0
   20.7786   -9.4089  -16.0309 N   0  0  0  0  0  0  0  0  0  0  0  0
   21.3596   -7.3833  -14.8918 C   0  0  0  0  0  0  0  0  0  0  0  0
   21.2107   -6.7477  -15.9785 O   0  0  0  0  0  0  0  0  0  0  0  0
   21.4101   -6.6813  -13.7038 O   0  0  0  0  0  0  0  0  0  0  0  0
  1  2  1  0
  1  5  1  0
  2  3  1  0
  3  4  1  0
  5  4  1  0
  5  6  1  6
  6 14  1  0
  7  6  2  0
  9 11  1  0
  9  8  1  0
 10  9  2  0
 13 12  1  1
 12 11  1  0
 14 13  1  0
 15 16  2  0
 15 13  1  0
 18 17  1  0
 18 19  1  0
 19 21  1  0
 19 20  1  1
 21 22  1  6
 21 23  1  0
 22 15  1  0
 23 25  1  0
 24 23  2  0
M  END
$$$$
