PQI.pdb
     RDKit          3D

 25 25  0  0  1  0  0  0  0  0999 V2000
   28.6100  -21.0964  -15.3669 N   0  0  0  0  0  0  0  0  0  0  0  0
   29.0120  -21.4226  -16.7221 C   0  0  0  0  0  0  0  0  0  0  0  0
   28.3733  -20.4070  -17.6322 C   0  0  0  0  0  0  0  0  0  0  0  0
   27.6382  -19.4708  -16.6639 C   0  0  0  0  0  0  0  0  0  0  0  0
   28.4774  -19.6640  -15.4125 C   0  0  1  0  0  0  0  0  0  0  0  0
   27.7975  -19.1255  -14.2067 C   0  0  0  0  0  0  0  0  0  0  0  0
   27.3779  -17.9404  -14.2603 O   0  0  0  0  0  0  0  0  0  0  0  0
   24.3385  -22.9099  -13.1891 N   0  0  0  0  0  0  0  0  0  0  0  0
   23.4789  -21.9092  -12.6941 C   0  0  0  0  0  0  0  0  0  0  0  0
   22.3550  -22.1960  -12.2448 O   0  0  0  0  0  0  0  0  0  0  0  0
   23.9041  -20.4697  -12.6989 C   0  0  0  0  0  0  0  0  0  0  0  0
   25.2888  -20.3346  -13.2219 C   0  0  0  0  0  0  0  0  0  0  0  0
   26.3137  -19.7822  -12.2730 C   0  0  2  0  0  0  0  0  0  0  0  0
   27.6008  -19.8565  -13.0279 N   0  0  0  0  0  0  0  0  0  0  0  0
   26.4583  -20.5102  -11.0051 C   0  0  0  0  0  0  0  0  0  0  0  0
   26.8722  -21.7266  -10.9986 O   0  0  0  0  0  0  0  0  0  0  0  0
   28.5580  -19.8164   -5.4507 C   0  0  0  0  0  0  0  0  0  0  0  0
   27.6640  -20.5783   -6.3930 C   0  0  0  0  0  0  0  0  0  0  0  0
   27.3137  -19.7799   -7.6280 C   0  0  2  0  0  0  0  0  0  0  0  0
   26.4868  -18.5701   -7.3403 C   0  0  0  0  0  0  0  0  0  0  0  0
   26.4795  -20.7212   -8.5126 C   0  0  2  0  0  0  0  0  0  0  0  0
   26.1778  -19.9754   -9.7259 N   0  0  0  0  0  0  0  0  0  0  0  0
   25.2295  -21.0956   -7.8327 C   0  0  0  0  0  0  0  0  0  0  0  0
   24.1279  -20.5534   -8.1483 O   0  0  0  0  0  0  0  0  0  0  0  0
   25.2475  -22.0507   -6.8356 O   0  0  0  0  0  0  0  0  0  0  0  0
  1  2  1  0
  1  5  1  0
  2  3  1  0
  3  4  1  0
  5  4  1  0
  5  6  1  1
  6 14  1  0
  7  6  2  0
  9 11  1  0
  9  8  1  0
 10  9  2  0
 13 12  1  6
 12 11  1  0
 14 13  1  0
 15 16  2  0
 15 13  1  0
 18 17  1  0
 18 19  1  0
 19 21  1  0
 19 20  1  1
 21 22  1  6
 21 23  1  0
 22 15  1  0
 23 25  1  0
 24 23  2  0
M  END
$$$$
