PQI.pdb
     RDKit          3D

 25 25  0  0  1  0  0  0  0  0999 V2000
   27.9663  -22.0849  -15.9849 N   0  0  0  0  0  0  0  0  0  0  0  0
   28.5961  -22.2639  -17.2796 C   0  0  0  0  0  0  0  0  0  0  0  0
   28.5924  -20.9231  -17.9652 C   0  0  0  0  0  0  0  0  0  0  0  0
   27.9626  -19.9897  -16.9227 C   0  0  0  0  0  0  0  0  0  0  0  0
   28.3193  -20.7315  -15.6460 C   0  0  1  0  0  0  0  0  0  0  0  0
   27.5468  -20.2255  -14.4827 C   0  0  0  0  0  0  0  0  0  0  0  0
   27.7823  -19.0503  -14.0991 O   0  0  0  0  0  0  0  0  0  0  0  0
   21.8889  -21.7392  -14.0178 N   0  0  0  0  0  0  0  0  0  0  0  0
   21.8875  -20.8489  -12.9256 C   0  0  0  0  0  0  0  0  0  0  0  0
   20.8490  -20.6365  -12.2747 O   0  0  0  0  0  0  0  0  0  0  0  0
   23.1453  -20.1353  -12.5233 C   0  0  0  0  0  0  0  0  0  0  0  0
   24.2883  -20.5739  -13.3661 C   0  0  0  0  0  0  0  0  0  0  0  0
   25.6627  -20.3412  -12.8067 C   0  0  2  0  0  0  0  0  0  0  0  0
   26.5825  -20.9764  -13.7980 N   0  0  0  0  0  0  0  0  0  0  0  0
   25.9118  -20.9219  -11.4803 C   0  0  0  0  0  0  0  0  0  0  0  0
   25.9043  -22.1965  -11.3179 O   0  0  0  0  0  0  0  0  0  0  0  0
   28.1827  -19.8523   -5.8536 C   0  0  0  0  0  0  0  0  0  0  0  0
   27.3072  -20.6152   -6.8124 C   0  0  0  0  0  0  0  0  0  0  0  0
   27.1198  -19.8889   -8.1250 C   0  0  2  0  0  0  0  0  0  0  0  0
   26.3736  -18.6022   -7.9923 C   0  0  0  0  0  0  0  0  0  0  0  0
   26.2833  -20.8296   -9.0083 C   0  0  2  0  0  0  0  0  0  0  0  0
   26.1779  -20.1790  -10.3063 N   0  0  0  0  0  0  0  0  0  0  0  0
   24.9418  -21.0195   -8.4344 C   0  0  0  0  0  0  0  0  0  0  0  0
   23.9500  -20.3554   -8.8613 O   0  0  0  0  0  0  0  0  0  0  0  0
   24.7516  -21.9324   -7.4160 O   0  0  0  0  0  0  0  0  0  0  0  0
  1  2  1  0
  1  5  1  0
  2  3  1  0
  3  4  1  0
  5  4  1  0
  5  6  1  1
  6 14  1  0
  7  6  2  0
  9 11  1  0
  9  8  1  0
 10  9  2  0
 13 12  1  6
 12 11  1  0
 14 13  1  0
 15 16  2  0
 15 13  1  0
 18 17  1  0
 18 19  1  0
 19 21  1  0
 19 20  1  1
 21 22  1  6
 21 23  1  0
 22 15  1  0
 23 25  1  0
 24 23  2  0
M  END
$$$$
