PQI.pdb
     RDKit          3D

 25 25  0  0  1  0  0  0  0  0999 V2000
   28.2074  -20.5728  -14.1558 N   0  0  0  0  0  0  0  0  0  0  0  0
   29.0407  -20.1642  -15.2709 C   0  0  0  0  0  0  0  0  0  0  0  0
   28.5971  -18.7831  -15.6750 C   0  0  0  0  0  0  0  0  0  0  0  0
   27.4962  -18.4493  -14.6595 C   0  0  0  0  0  0  0  0  0  0  0  0
   27.9282  -19.3248  -13.4958 C   0  0  1  0  0  0  0  0  0  0  0  0
   26.8533  -19.4568  -12.4792 C   0  0  0  0  0  0  0  0  0  0  0  0
   26.4375  -18.4002  -11.9367 O   0  0  0  0  0  0  0  0  0  0  0  0
   21.5554  -20.3839  -11.5363 N   0  0  0  0  0  0  0  0  0  0  0  0
   22.3835  -20.1246  -12.6465 C   0  0  0  0  0  0  0  0  0  0  0  0
   22.2610  -19.0764  -13.3049 O   0  0  0  0  0  0  0  0  0  0  0  0
   23.4353  -21.1127  -13.0590 C   0  0  0  0  0  0  0  0  0  0  0  0
   24.1390  -21.6561  -11.8680 C   0  0  0  0  0  0  0  0  0  0  0  0
   25.1054  -20.7341  -11.1809 C   0  0  2  0  0  0  0  0  0  0  0  0
   26.2848  -20.6786  -12.0965 N   0  0  0  0  0  0  0  0  0  0  0  0
   25.5517  -21.1648   -9.8491 C   0  0  0  0  0  0  0  0  0  0  0  0
   25.0834  -22.2399   -9.3238 O   0  0  0  0  0  0  0  0  0  0  0  0
   29.1072  -19.4572   -5.0380 C   0  0  0  0  0  0  0  0  0  0  0  0
   28.0587  -20.3103   -5.7018 C   0  0  0  0  0  0  0  0  0  0  0  0
   27.7447  -19.8494   -7.1069 C   0  0  2  0  0  0  0  0  0  0  0  0
   27.1009  -18.5030   -7.1620 C   0  0  0  0  0  0  0  0  0  0  0  0
   26.7448  -20.8730   -7.6699 C   0  0  2  0  0  0  0  0  0  0  0  0
   26.4978  -20.4811   -9.0500 N   0  0  0  0  0  0  0  0  0  0  0  0
   25.4865  -20.8384   -6.9081 C   0  0  0  0  0  0  0  0  0  0  0  0
   25.3513  -21.5101   -5.8415 O   0  0  0  0  0  0  0  0  0  0  0  0
   24.4327  -20.0654   -7.3541 O   0  0  0  0  0  0  0  0  0  0  0  0
  1  2  1  0
  1  5  1  0
  2  3  1  0
  3  4  1  0
  5  4  1  0
  5  6  1  1
  6 14  1  0
  7  6  2  0
  9 11  1  0
  9  8  1  0
 10  9  2  0
 13 12  1  6
 12 11  1  0
 14 13  1  0
 15 16  2  0
 15 13  1  0
 18 17  1  0
 18 19  1  0
 19 21  1  0
 19 20  1  1
 21 22  1  6
 21 23  1  0
 22 15  1  0
 23 25  1  0
 24 23  2  0
M  END
$$$$
