PQI.pdb
     RDKit          3D

 25 25  0  0  1  0  0  0  0  0999 V2000
   25.8847  -20.2959  -17.0211 N   0  0  0  0  0  0  0  0  0  0  0  0
   25.9956  -20.1568  -18.4609 C   0  0  0  0  0  0  0  0  0  0  0  0
   25.0415  -19.0687  -18.8774 C   0  0  0  0  0  0  0  0  0  0  0  0
   24.4436  -18.5887  -17.5482 C   0  0  0  0  0  0  0  0  0  0  0  0
   25.5694  -18.9571  -16.5974 C   0  0  1  0  0  0  0  0  0  0  0  0
   25.1295  -18.9071  -15.1796 C   0  0  0  0  0  0  0  0  0  0  0  0
   24.8337  -17.7796  -14.7054 O   0  0  0  0  0  0  0  0  0  0  0  0
   20.5139  -21.5171  -13.6461 N   0  0  0  0  0  0  0  0  0  0  0  0
   20.7858  -20.2722  -14.2477 C   0  0  0  0  0  0  0  0  0  0  0  0
   19.9179  -19.6804  -14.9138 O   0  0  0  0  0  0  0  0  0  0  0  0
   22.1349  -19.6319  -14.0962 C   0  0  0  0  0  0  0  0  0  0  0  0
   22.9996  -20.4395  -13.1968 C   0  0  0  0  0  0  0  0  0  0  0  0
   24.4046  -19.9476  -12.9969 C   0  0  2  0  0  0  0  0  0  0  0  0
   25.0272  -20.0331  -14.3523 N   0  0  0  0  0  0  0  0  0  0  0  0
   25.2158  -20.7208  -12.0467 C   0  0  0  0  0  0  0  0  0  0  0  0
   25.5233  -21.9424  -12.2996 O   0  0  0  0  0  0  0  0  0  0  0  0
   27.7004  -18.4377   -7.5550 C   0  0  0  0  0  0  0  0  0  0  0  0
   26.7539  -19.1436   -8.4897 C   0  0  0  0  0  0  0  0  0  0  0  0
   27.3557  -20.3979   -9.0810 C   0  0  2  0  0  0  0  0  0  0  0  0
   28.4114  -20.1277  -10.1021 C   0  0  0  0  0  0  0  0  0  0  0  0
   26.1979  -21.1276   -9.7823 C   0  0  2  0  0  0  0  0  0  0  0  0
   25.7215  -20.2263  -10.8216 N   0  0  0  0  0  0  0  0  0  0  0  0
   25.1126  -21.4091   -8.8295 C   0  0  0  0  0  0  0  0  0  0  0  0
   24.0270  -20.7555   -8.8660 O   0  0  0  0  0  0  0  0  0  0  0  0
   25.2704  -22.3980   -7.8787 O   0  0  0  0  0  0  0  0  0  0  0  0
  1  2  1  0
  1  5  1  0
  2  3  1  0
  3  4  1  0
  5  4  1  0
  5  6  1  1
  6 14  1  0
  7  6  2  0
  9 11  1  0
  9  8  1  0
 10  9  2  0
 13 12  1  6
 12 11  1  0
 14 13  1  0
 15 16  2  0
 15 13  1  0
 18 17  1  0
 18 19  1  0
 19 21  1  0
 19 20  1  6
 21 22  1  6
 21 23  1  0
 22 15  1  0
 23 25  1  0
 24 23  2  0
M  END
$$$$
