PQI.pdb
     RDKit          3D

 25 25  0  0  1  0  0  0  0  0999 V2000
   27.2444  -20.6681  -15.0146 N   0  0  0  0  0  0  0  0  0  0  0  0
   27.7044  -20.3518  -16.3536 C   0  0  0  0  0  0  0  0  0  0  0  0
   28.0725  -18.8917  -16.3642 C   0  0  0  0  0  0  0  0  0  0  0  0
   27.8300  -18.4509  -14.9145 C   0  0  0  0  0  0  0  0  0  0  0  0
   28.0198  -19.7749  -14.1946 C   0  0  1  0  0  0  0  0  0  0  0  0
   27.5173  -19.7178  -12.7981 C   0  0  0  0  0  0  0  0  0  0  0  0
   28.0939  -18.9261  -12.0080 O   0  0  0  0  0  0  0  0  0  0  0  0
   21.6753  -21.0701  -12.2371 N   0  0  0  0  0  0  0  0  0  0  0  0
   21.8417  -20.5428  -10.9411 C   0  0  0  0  0  0  0  0  0  0  0  0
   20.8717  -20.4150  -10.1730 O   0  0  0  0  0  0  0  0  0  0  0  0
   23.1995  -20.1225  -10.4587 C   0  0  0  0  0  0  0  0  0  0  0  0
   24.2329  -20.4110  -11.4874 C   0  0  0  0  0  0  0  0  0  0  0  0
   25.6487  -20.0547  -11.1346 C   0  0  2  0  0  0  0  0  0  0  0  0
   26.4497  -20.4881  -12.3191 N   0  0  0  0  0  0  0  0  0  0  0  0
   26.1828  -20.7052   -9.9303 C   0  0  0  0  0  0  0  0  0  0  0  0
   26.3980  -21.9719   -9.9181 O   0  0  0  0  0  0  0  0  0  0  0  0
   29.3994  -19.7933   -4.7813 C   0  0  0  0  0  0  0  0  0  0  0  0
   28.4560  -20.6017   -5.6323 C   0  0  0  0  0  0  0  0  0  0  0  0
   27.9406  -19.8231   -6.8212 C   0  0  2  0  0  0  0  0  0  0  0  0
   27.1687  -18.6017   -6.4439 C   0  0  0  0  0  0  0  0  0  0  0  0
   26.9854  -20.7737   -7.5621 C   0  0  2  0  0  0  0  0  0  0  0  0
   26.5046  -20.0402   -8.7240 N   0  0  0  0  0  0  0  0  0  0  0  0
   25.8516  -21.1418   -6.6995 C   0  0  0  0  0  0  0  0  0  0  0  0
   24.7185  -20.5916   -6.8420 O   0  0  0  0  0  0  0  0  0  0  0  0
   26.0155  -22.0996   -5.7185 O   0  0  0  0  0  0  0  0  0  0  0  0
  1  2  1  0
  1  5  1  0
  2  3  1  0
  3  4  1  0
  5  4  1  0
  5  6  1  1
  6 14  1  0
  7  6  2  0
  9 11  1  0
  9  8  1  0
 10  9  2  0
 13 12  1  6
 12 11  1  0
 14 13  1  0
 15 16  2  0
 15 13  1  0
 18 17  1  0
 18 19  1  0
 19 21  1  0
 19 20  1  1
 21 22  1  6
 21 23  1  0
 22 15  1  0
 23 25  1  0
 24 23  2  0
M  END
$$$$
