PQI.pdb
     RDKit          3D

 25 25  0  0  1  0  0  0  0  0999 V2000
   27.3770  -20.9668  -14.7117 N   0  0  0  0  0  0  0  0  0  0  0  0
   27.8219  -20.7224  -16.0708 C   0  0  0  0  0  0  0  0  0  0  0  0
   28.2248  -19.2738  -16.1532 C   0  0  0  0  0  0  0  0  0  0  0  0
   28.0174  -18.7625  -14.7213 C   0  0  0  0  0  0  0  0  0  0  0  0
   28.1874  -20.0573  -13.9453 C   0  0  1  0  0  0  0  0  0  0  0  0
   27.7099  -19.9251  -12.5451 C   0  0  0  0  0  0  0  0  0  0  0  0
   28.3068  -19.0997  -11.8061 O   0  0  0  0  0  0  0  0  0  0  0  0
   21.8514  -20.9935  -12.1537 N   0  0  0  0  0  0  0  0  0  0  0  0
   21.9784  -20.4031  -10.8805 C   0  0  0  0  0  0  0  0  0  0  0  0
   20.9775  -20.1781  -10.1770 O   0  0  0  0  0  0  0  0  0  0  0  0
   23.3305  -20.0319  -10.3449 C   0  0  0  0  0  0  0  0  0  0  0  0
   24.3950  -20.3856  -11.3200 C   0  0  0  0  0  0  0  0  0  0  0  0
   25.8106  -20.1200  -10.8939 C   0  0  2  0  0  0  0  0  0  0  0  0
   26.6446  -20.6604  -12.0094 N   0  0  0  0  0  0  0  0  0  0  0  0
   26.2217  -20.7569   -9.6353 C   0  0  0  0  0  0  0  0  0  0  0  0
   26.4555  -22.0196   -9.5929 O   0  0  0  0  0  0  0  0  0  0  0  0
   29.3331  -19.7072   -4.5012 C   0  0  0  0  0  0  0  0  0  0  0  0
   28.3912  -20.5469   -5.3231 C   0  0  0  0  0  0  0  0  0  0  0  0
   27.8348  -19.7949   -6.5106 C   0  0  2  0  0  0  0  0  0  0  0  0
   27.0362  -18.5912   -6.1322 C   0  0  0  0  0  0  0  0  0  0  0  0
   26.8939  -20.7786   -7.2259 C   0  0  2  0  0  0  0  0  0  0  0  0
   26.3999  -20.0820   -8.4049 N   0  0  0  0  0  0  0  0  0  0  0  0
   25.7673  -21.1431   -6.3525 C   0  0  0  0  0  0  0  0  0  0  0  0
   24.5941  -20.7278   -6.5940 O   0  0  0  0  0  0  0  0  0  0  0  0
   25.9821  -21.9488   -5.2518 O   0  0  0  0  0  0  0  0  0  0  0  0
  1  2  1  0
  1  5  1  0
  2  3  1  0
  3  4  1  0
  5  4  1  0
  5  6  1  1
  6 14  1  0
  7  6  2  0
  9 11  1  0
  9  8  1  0
 10  9  2  0
 13 12  1  6
 12 11  1  0
 14 13  1  0
 15 16  2  0
 15 13  1  0
 18 17  1  0
 18 19  1  0
 19 21  1  0
 19 20  1  1
 21 22  1  6
 21 23  1  0
 22 15  1  0
 23 25  1  0
 24 23  2  0
M  END
$$$$
