PQI.pdb
     RDKit          3D

 25 25  0  0  1  0  0  0  0  0999 V2000
   27.4311  -21.1044  -15.7243 N   0  0  0  0  0  0  0  0  0  0  0  0
   28.0669  -20.9494  -17.0190 C   0  0  0  0  0  0  0  0  0  0  0  0
   28.3621  -19.4836  -17.1970 C   0  0  0  0  0  0  0  0  0  0  0  0
   27.8886  -18.8602  -15.8772 C   0  0  0  0  0  0  0  0  0  0  0  0
   28.0340  -20.0531  -14.9481 C   0  0  1  0  0  0  0  0  0  0  0  0
   27.3298  -19.8341  -13.6588 C   0  0  0  0  0  0  0  0  0  0  0  0
   27.7500  -18.9054  -12.9209 O   0  0  0  0  0  0  0  0  0  0  0  0
   21.5012  -21.4745  -13.2453 N   0  0  0  0  0  0  0  0  0  0  0  0
   21.5403  -20.4651  -12.2630 C   0  0  0  0  0  0  0  0  0  0  0  0
   20.4934  -20.0282  -11.7526 O   0  0  0  0  0  0  0  0  0  0  0  0
   22.8524  -19.8938  -11.8102 C   0  0  0  0  0  0  0  0  0  0  0  0
   23.9831  -20.5715  -12.4966 C   0  0  0  0  0  0  0  0  0  0  0  0
   25.3655  -20.1361  -12.1023 C   0  0  2  0  0  0  0  0  0  0  0  0
   26.2370  -20.5960  -13.2254 N   0  0  0  0  0  0  0  0  0  0  0  0
   25.8700  -20.6985  -10.8422 C   0  0  0  0  0  0  0  0  0  0  0  0
   26.1500  -21.9495  -10.7558 O   0  0  0  0  0  0  0  0  0  0  0  0
   29.2062  -19.5214   -5.9053 C   0  0  0  0  0  0  0  0  0  0  0  0
   28.1686  -20.3452   -6.6212 C   0  0  0  0  0  0  0  0  0  0  0  0
   27.5674  -19.6167   -7.8015 C   0  0  2  0  0  0  0  0  0  0  0  0
   26.8030  -18.3921   -7.4190 C   0  0  0  0  0  0  0  0  0  0  0  0
   26.5814  -20.6053   -8.4459 C   0  0  2  0  0  0  0  0  0  0  0  0
   26.0942  -19.9602   -9.6566 N   0  0  0  0  0  0  0  0  0  0  0  0
   25.4562  -20.8779   -7.5378 C   0  0  0  0  0  0  0  0  0  0  0  0
   24.3424  -20.2908   -7.6851 O   0  0  0  0  0  0  0  0  0  0  0  0
   25.6070  -21.7852   -6.5078 O   0  0  0  0  0  0  0  0  0  0  0  0
  1  2  1  0
  1  5  1  0
  2  3  1  0
  3  4  1  0
  5  4  1  0
  5  6  1  1
  6 14  1  0
  7  6  2  0
  9 11  1  0
  9  8  1  0
 10  9  2  0
 13 12  1  6
 12 11  1  0
 14 13  1  0
 15 16  2  0
 15 13  1  0
 18 17  1  0
 18 19  1  0
 19 21  1  0
 19 20  1  1
 21 22  1  6
 21 23  1  0
 22 15  1  0
 23 25  1  0
 24 23  2  0
M  END
$$$$
