PQI.pdb
     RDKit          3D

 25 25  0  0  1  0  0  0  0  0999 V2000
   15.2910  -11.6716  -13.0055 N   0  0  0  0  0  0  0  0  0  0  0  0
   14.4624  -12.7291  -13.5532 C   0  0  0  0  0  0  0  0  0  0  0  0
   13.4358  -12.0756  -14.4400 C   0  0  0  0  0  0  0  0  0  0  0  0
   13.8033  -10.5871  -14.3766 C   0  0  0  0  0  0  0  0  0  0  0  0
   15.2848  -10.6886  -14.0566 C   0  0  1  0  0  0  0  0  0  0  0  0
   15.8405   -9.3859  -13.6088 C   0  0  0  0  0  0  0  0  0  0  0  0
   15.9324   -8.4706  -14.4675 O   0  0  0  0  0  0  0  0  0  0  0  0
   15.1021   -7.2218   -8.0125 N   0  0  0  0  0  0  0  0  0  0  0  0
   14.2390   -6.9461   -9.0917 C   0  0  0  0  0  0  0  0  0  0  0  0
   13.0687   -6.5727   -8.8956 O   0  0  0  0  0  0  0  0  0  0  0  0
   14.7165   -7.0980  -10.5065 C   0  0  0  0  0  0  0  0  0  0  0  0
   16.1327   -7.5479  -10.5355 C   0  0  0  0  0  0  0  0  0  0  0  0
   16.7392   -7.7684  -11.8918 C   0  0  2  0  0  0  0  0  0  0  0  0
   16.2624   -9.1246  -12.2988 N   0  0  0  0  0  0  0  0  0  0  0  0
   18.2074   -7.7418  -11.9395 C   0  0  0  0  0  0  0  0  0  0  0  0
   18.8971   -8.3658  -11.0530 O   0  0  0  0  0  0  0  0  0  0  0  0
   22.8086   -9.6503  -14.5278 C   0  0  0  0  0  0  0  0  0  0  0  0
   22.2966   -8.4420  -13.7891 C   0  0  0  0  0  0  0  0  0  0  0  0
   20.7883   -8.3446  -13.8179 C   0  0  2  0  0  0  0  0  0  0  0  0
   20.2345   -8.0814  -15.1795 C   0  0  0  0  0  0  0  0  0  0  0  0
   20.4289   -7.1465  -12.9235 C   0  0  2  0  0  0  0  0  0  0  0  0
   18.9753   -7.0672  -12.9175 N   0  0  0  0  0  0  0  0  0  0  0  0
   20.9945   -5.9042  -13.4728 C   0  0  0  0  0  0  0  0  0  0  0  0
   22.2370   -5.6643  -13.3973 O   0  0  0  0  0  0  0  0  0  0  0  0
   20.1671   -4.9811  -14.0813 O   0  0  0  0  0  0  0  0  0  0  0  0
  1  2  1  0
  1  5  1  0
  2  3  1  0
  3  4  1  0
  5  4  1  0
  5  6  1  1
  6 14  1  0
  7  6  2  0
  9 11  1  0
  9  8  1  0
 10  9  2  0
 13 12  1  1
 12 11  1  0
 14 13  1  0
 15 16  2  0
 15 13  1  0
 18 17  1  0
 18 19  1  0
 19 21  1  0
 19 20  1  6
 21 22  1  6
 21 23  1  0
 22 15  1  0
 23 25  1  0
 24 23  2  0
M  END
$$$$
