PQI.pdb
     RDKit          3D

 25 25  0  0  1  0  0  0  0  0999 V2000
   34.5688  -28.9361  -19.7870 N   0  0  0  0  0  0  0  0  0  0  0  0
   35.6560  -29.5646  -19.0606 C   0  0  0  0  0  0  0  0  0  0  0  0
   35.2716  -29.5734  -17.6046 C   0  0  0  0  0  0  0  0  0  0  0  0
   33.8687  -28.9518  -17.6010 C   0  0  0  0  0  0  0  0  0  0  0  0
   33.4151  -29.3014  -19.0080 C   0  0  1  0  0  0  0  0  0  0  0  0
   32.2067  -28.5331  -19.4023 C   0  0  0  0  0  0  0  0  0  0  0  0
   32.3841  -27.3884  -19.8939 O   0  0  0  0  0  0  0  0  0  0  0  0
   27.2234  -30.8803  -21.5832 N   0  0  0  0  0  0  0  0  0  0  0  0
   26.7929  -29.5389  -21.6101 C   0  0  0  0  0  0  0  0  0  0  0  0
   25.6453  -29.2428  -21.9878 O   0  0  0  0  0  0  0  0  0  0  0  0
   27.7147  -28.4347  -21.1814 C   0  0  0  0  0  0  0  0  0  0  0  0
   28.9956  -28.9903  -20.6717 C   0  0  0  0  0  0  0  0  0  0  0  0
   29.7200  -28.1712  -19.6420 C   0  0  2  0  0  0  0  0  0  0  0  0
   30.8966  -29.0081  -19.2584 N   0  0  0  0  0  0  0  0  0  0  0  0
   28.9478  -27.8470  -18.4349 C   0  0  0  0  0  0  0  0  0  0  0  0
   28.8414  -28.7033  -17.4828 O   0  0  0  0  0  0  0  0  0  0  0  0
   28.3450  -22.7574  -16.8123 C   0  0  0  0  0  0  0  0  0  0  0  0
   28.4482  -24.2593  -16.7730 C   0  0  0  0  0  0  0  0  0  0  0  0
   27.1105  -24.9348  -16.9719 C   0  0  2  0  0  0  0  0  0  0  0  0
   26.1592  -24.7161  -15.8418 C   0  0  0  0  0  0  0  0  0  0  0  0
   27.4097  -26.4412  -17.0509 C   0  0  2  0  0  0  0  0  0  0  0  0
   28.2807  -26.6212  -18.2034 N   0  0  0  0  0  0  0  0  0  0  0  0
   26.1665  -27.2051  -17.2401 C   0  0  0  0  0  0  0  0  0  0  0  0
   25.6366  -27.3145  -18.3865 O   0  0  0  0  0  0  0  0  0  0  0  0
   25.5619  -27.8151  -16.1588 O   0  0  0  0  0  0  0  0  0  0  0  0
  1  2  1  0
  1  5  1  0
  2  3  1  0
  3  4  1  0
  5  4  1  0
  5  6  1  6
  6 14  1  0
  7  6  2  0
  9 11  1  0
  9  8  1  0
 10  9  2  0
 13 12  1  6
 12 11  1  0
 14 13  1  0
 15 16  2  0
 15 13  1  0
 18 17  1  0
 18 19  1  0
 19 21  1  0
 19 20  1  1
 21 22  1  6
 21 23  1  0
 22 15  1  0
 23 25  1  0
 24 23  2  0
M  END
$$$$
