SEH.pdb
     RDKit          3D

 26 26  0  0  1  0  0  0  0  0999 V2000
    8.8729  -17.4572   20.0889 O   0  0  0  0  0  0  0  0  0  0  0  0
    9.4931  -17.3023   18.8625 C   0  0  0  0  0  0  0  0  0  0  0  0
   10.0328  -18.6189   18.3255 C   0  0  2  0  0  0  0  0  0  0  0  0
    9.1470  -19.6595   18.8562 N   0  0  0  0  0  0  0  0  0  0  0  0
   11.3585  -18.8261   18.9594 C   0  0  0  0  0  0  0  0  0  0  0  0
   11.4102  -19.6320   19.9216 O   0  0  0  0  0  0  0  0  0  0  0  0
   12.5424  -18.1846   18.5544 N   0  0  0  0  0  0  0  0  0  0  0  0
   13.7647  -18.4093   19.2730 C   0  0  1  0  0  0  0  0  0  0  0  0
   14.9878  -18.2210   18.4001 C   0  0  0  0  0  0  0  0  0  0  0  0
   16.2581  -18.5995   19.1558 C   0  0  0  0  0  0  0  0  0  0  0  0
   17.4655  -18.3260   18.3464 C   0  0  0  0  0  0  0  0  0  0  0  0
   18.5475  -17.9263   18.8118 O   0  0  0  0  0  0  0  0  0  0  0  0
   13.8387  -17.5719   20.4973 C   0  0  0  0  0  0  0  0  0  0  0  0
   14.0569  -16.3536   20.3595 O   0  0  0  0  0  0  0  0  0  0  0  0
   17.3707  -18.5336   16.9778 O   0  0  0  0  0  0  0  0  0  0  0  0
   13.6723  -18.1018   21.7962 N   0  0  0  0  0  0  0  0  0  0  0  0
   13.7884  -17.3560   23.0314 C   0  0  1  0  0  0  0  0  0  0  0  0
   12.6598  -17.6513   23.9696 C   0  0  0  0  0  0  0  0  0  0  0  0
   11.4534  -16.9157   23.5311 C   0  0  0  0  0  0  0  0  0  0  0  0
   10.9870  -16.8326   22.2437 C   0  0  0  0  0  0  0  0  0  0  0  0
    9.8751  -16.0752   22.2804 N   0  0  0  0  0  0  0  0  0  0  0  0
    9.6476  -15.6934   23.5484 C   0  0  0  0  0  0  0  0  0  0  0  0
   10.6157  -16.2119   24.2990 N   0  0  0  0  0  0  0  0  0  0  0  0
   15.1264  -17.4401   23.6492 C   0  0  0  0  0  0  0  0  0  0  0  0
   16.0629  -18.2934   23.1009 O   0  0  0  0  0  0  0  0  0  0  0  0
   15.4208  -16.7642   24.6423 O   0  0  0  0  0  0  0  0  0  0  0  0
  2  1  1  0
  3  2  1  0
  3  4  1  1
  5  7  1  0
  5  3  1  0
  6  5  2  0
  8  7  1  0
  8  9  1  6
  9 10  1  0
 10 11  1  0
 11 15  1  0
 12 11  2  0
 13  8  1  0
 14 13  2  0
 16 13  1  0
 17 16  1  0
 17 18  1  1
 19 18  1  0
 20 19  2  0
 21 22  1  0
 21 20  1  0
 22 23  2  0
 23 19  1  0
 24 17  1  0
 25 24  1  0
 26 24  2  0
M  END
$$$$
