SEH.pdb
     RDKit          3D

 26 26  0  0  1  0  0  0  0  0999 V2000
   11.0289  -15.6519   15.8495 O   0  0  0  0  0  0  0  0  0  0  0  0
   11.1901  -16.9652   15.4471 C   0  0  0  0  0  0  0  0  0  0  0  0
    9.8991  -17.7605   15.5641 C   0  0  2  0  0  0  0  0  0  0  0  0
    8.8635  -16.9354   14.9349 N   0  0  0  0  0  0  0  0  0  0  0  0
    9.5690  -17.8266   17.0095 C   0  0  0  0  0  0  0  0  0  0  0  0
    8.6021  -17.1294   17.4055 O   0  0  0  0  0  0  0  0  0  0  0  0
   10.2627  -18.6106   17.9483 N   0  0  0  0  0  0  0  0  0  0  0  0
    9.8020  -18.6829   19.3060 C   0  0  1  0  0  0  0  0  0  0  0  0
   10.1949  -19.9820   19.9781 C   0  0  0  0  0  0  0  0  0  0  0  0
    9.3242  -21.1338   19.4853 C   0  0  0  0  0  0  0  0  0  0  0  0
    9.7085  -22.4097   20.1271 C   0  0  0  0  0  0  0  0  0  0  0  0
    8.8999  -23.2487   20.5623 O   0  0  0  0  0  0  0  0  0  0  0  0
   10.2488  -17.5074   20.0962 C   0  0  0  0  0  0  0  0  0  0  0  0
   11.4070  -17.0875   19.9148 O   0  0  0  0  0  0  0  0  0  0  0  0
   11.0651  -22.6757   20.2450 O   0  0  0  0  0  0  0  0  0  0  0  0
    9.4167  -16.8571   21.0345 N   0  0  0  0  0  0  0  0  0  0  0  0
    9.8130  -15.7635   21.8961 C   0  0  1  0  0  0  0  0  0  0  0  0
    8.7030  -14.7787   22.0941 C   0  0  0  0  0  0  0  0  0  0  0  0
    8.4033  -14.1134   20.8070 C   0  0  0  0  0  0  0  0  0  0  0  0
    9.0812  -14.3007   19.6292 C   0  0  0  0  0  0  0  0  0  0  0  0
    8.4921  -13.5123   18.7112 N   0  0  0  0  0  0  0  0  0  0  0  0
    7.4767  -12.8499   19.2904 C   0  0  0  0  0  0  0  0  0  0  0  0
    7.4340  -13.2252   20.5659 N   0  0  0  0  0  0  0  0  0  0  0  0
   10.4630  -16.2020   23.1469 C   0  0  0  0  0  0  0  0  0  0  0  0
   10.5126  -17.5509   23.4365 O   0  0  0  0  0  0  0  0  0  0  0  0
   10.9601  -15.3878   23.9340 O   0  0  0  0  0  0  0  0  0  0  0  0
  2  1  1  0
  3  2  1  0
  3  4  1  6
  5  7  1  0
  5  3  1  0
  6  5  2  0
  8  7  1  0
  8  9  1  1
  9 10  1  0
 10 11  1  0
 11 15  1  0
 12 11  2  0
 13  8  1  0
 14 13  2  0
 16 13  1  0
 17 16  1  0
 17 18  1  1
 19 18  1  0
 20 19  2  0
 21 22  1  0
 21 20  1  0
 22 23  2  0
 23 19  1  0
 24 17  1  0
 25 24  1  0
 26 24  2  0
M  END
$$$$
