SEH.pdb
     RDKit          3D

 26 26  0  0  1  0  0  0  0  0999 V2000
    8.7492  -12.1000   19.7365 O   0  0  0  0  0  0  0  0  0  0  0  0
    9.4250  -12.7734   18.7353 C   0  0  0  0  0  0  0  0  0  0  0  0
    8.8142  -14.1370   18.4516 C   0  0  2  0  0  0  0  0  0  0  0  0
    7.3937  -13.8905   18.1857 N   0  0  0  0  0  0  0  0  0  0  0  0
    8.8815  -14.9058   19.7192 C   0  0  0  0  0  0  0  0  0  0  0  0
    7.8428  -14.9325   20.4252 O   0  0  0  0  0  0  0  0  0  0  0  0
   10.0203  -15.5958   20.1710 N   0  0  0  0  0  0  0  0  0  0  0  0
    9.9550  -16.3868   21.3672 C   0  0  1  0  0  0  0  0  0  0  0  0
   11.1706  -17.2740   21.5370 C   0  0  0  0  0  0  0  0  0  0  0  0
   11.0088  -18.1920   22.7449 C   0  0  0  0  0  0  0  0  0  0  0  0
   12.2216  -19.0099   22.9635 C   0  0  0  0  0  0  0  0  0  0  0  0
   12.5604  -19.9692   22.2478 O   0  0  0  0  0  0  0  0  0  0  0  0
    9.7292  -15.5417   22.5674 C   0  0  0  0  0  0  0  0  0  0  0  0
   10.4556  -14.5423   22.7233 O   0  0  0  0  0  0  0  0  0  0  0  0
   13.0262  -18.6735   24.0426 O   0  0  0  0  0  0  0  0  0  0  0  0
    8.7320  -15.8279   23.5263 N   0  0  0  0  0  0  0  0  0  0  0  0
    8.4189  -15.0167   24.6836 C   0  0  1  0  0  0  0  0  0  0  0  0
    7.1868  -14.1934   24.4710 C   0  0  0  0  0  0  0  0  0  0  0  0
    6.9340  -13.3708   25.6745 C   0  0  0  0  0  0  0  0  0  0  0  0
    6.0480  -13.6679   26.6788 C   0  0  0  0  0  0  0  0  0  0  0  0
    6.1259  -12.6672   27.5754 N   0  0  0  0  0  0  0  0  0  0  0  0
    7.0305  -11.7691   27.1510 C   0  0  0  0  0  0  0  0  0  0  0  0
    7.5145  -12.2097   25.9930 N   0  0  0  0  0  0  0  0  0  0  0  0
    8.4321  -15.7689   25.9538 C   0  0  0  0  0  0  0  0  0  0  0  0
    8.9566  -15.1679   27.0805 O   0  0  0  0  0  0  0  0  0  0  0  0
    7.9846  -16.9197   26.0254 O   0  0  0  0  0  0  0  0  0  0  0  0
  2  1  1  0
  3  2  1  0
  3  4  1  1
  5  7  1  0
  5  3  1  0
  6  5  2  0
  8  7  1  0
  8  9  1  1
  9 10  1  0
 10 11  1  0
 11 15  1  0
 12 11  2  0
 13  8  1  0
 14 13  2  0
 16 13  1  0
 17 16  1  0
 17 18  1  6
 19 18  1  0
 20 19  2  0
 21 22  1  0
 21 20  1  0
 22 23  2  0
 23 19  1  0
 24 17  1  0
 25 24  1  0
 26 24  2  0
M  END
$$$$
