SEH.pdb
     RDKit          3D

 26 26  0  0  1  0  0  0  0  0999 V2000
    9.6741  -11.5769   18.6229 O   0  0  0  0  0  0  0  0  0  0  0  0
    9.1720  -12.5715   19.4422 C   0  0  0  0  0  0  0  0  0  0  0  0
    9.1570  -13.9264   18.7516 C   0  0  2  0  0  0  0  0  0  0  0  0
    8.0122  -13.8953   17.8364 N   0  0  0  0  0  0  0  0  0  0  0  0
    8.8390  -14.9327   19.7950 C   0  0  0  0  0  0  0  0  0  0  0  0
    7.6310  -15.2489   19.9322 O   0  0  0  0  0  0  0  0  0  0  0  0
    9.7935  -15.5444   20.6268 N   0  0  0  0  0  0  0  0  0  0  0  0
    9.4140  -16.6405   21.4726 C   0  0  1  0  0  0  0  0  0  0  0  0
   10.0891  -17.9359   21.0727 C   0  0  0  0  0  0  0  0  0  0  0  0
   11.5897  -17.7317   20.8868 C   0  0  0  0  0  0  0  0  0  0  0  0
   12.2512  -18.9809   20.4513 C   0  0  0  0  0  0  0  0  0  0  0  0
   13.1926  -19.0312   19.6398 O   0  0  0  0  0  0  0  0  0  0  0  0
    9.6465  -16.3284   22.9059 C   0  0  0  0  0  0  0  0  0  0  0  0
   10.6490  -15.6513   23.2012 O   0  0  0  0  0  0  0  0  0  0  0  0
   11.7802  -20.1685   20.9921 O   0  0  0  0  0  0  0  0  0  0  0  0
    8.7814  -16.7670   23.9330 N   0  0  0  0  0  0  0  0  0  0  0  0
    8.9939  -16.5758   25.3520 C   0  0  1  0  0  0  0  0  0  0  0  0
    7.7129  -16.2993   26.0757 C   0  0  0  0  0  0  0  0  0  0  0  0
    7.3673  -14.8681   25.9298 C   0  0  0  0  0  0  0  0  0  0  0  0
    8.1215  -13.9215   25.2839 C   0  0  0  0  0  0  0  0  0  0  0  0
    7.4529  -12.7577   25.3819 N   0  0  0  0  0  0  0  0  0  0  0  0
    6.3153  -12.9630   26.0665 C   0  0  0  0  0  0  0  0  0  0  0  0
    6.2759  -14.2517   26.3939 N   0  0  0  0  0  0  0  0  0  0  0  0
    9.8243  -17.6270   25.9723 C   0  0  0  0  0  0  0  0  0  0  0  0
   10.1596  -17.5128   27.3066 O   0  0  0  0  0  0  0  0  0  0  0  0
   10.2220  -18.6010   25.3220 O   0  0  0  0  0  0  0  0  0  0  0  0
  2  1  1  0
  3  2  1  0
  3  4  1  6
  5  7  1  0
  5  3  1  0
  6  5  2  0
  8  7  1  0
  8  9  1  6
  9 10  1  0
 10 11  1  0
 11 15  1  0
 12 11  2  0
 13  8  1  0
 14 13  2  0
 16 13  1  0
 17 16  1  0
 17 18  1  1
 19 18  1  0
 20 19  2  0
 21 22  1  0
 21 20  1  0
 22 23  2  0
 23 19  1  0
 24 17  1  0
 25 24  1  0
 26 24  2  0
M  END
$$$$
