SEH.pdb
     RDKit          3D

 26 26  0  0  1  0  0  0  0  0999 V2000
    8.1503  -13.0917   21.2122 O   0  0  0  0  0  0  0  0  0  0  0  0
    8.1834  -13.6788   19.9604 C   0  0  0  0  0  0  0  0  0  0  0  0
    7.4952  -15.0349   19.9476 C   0  0  2  0  0  0  0  0  0  0  0  0
    6.1667  -14.8138   20.5268 N   0  0  0  0  0  0  0  0  0  0  0  0
    8.2358  -15.8974   20.9015 C   0  0  0  0  0  0  0  0  0  0  0  0
    7.6437  -16.2110   21.9640 O   0  0  0  0  0  0  0  0  0  0  0  0
    9.5405  -16.3777   20.6911 N   0  0  0  0  0  0  0  0  0  0  0  0
   10.1458  -17.2597   21.6484 C   0  0  1  0  0  0  0  0  0  0  0  0
   11.3087  -18.0332   21.0628 C   0  0  0  0  0  0  0  0  0  0  0  0
   11.9366  -18.9468   22.1112 C   0  0  0  0  0  0  0  0  0  0  0  0
   13.1188  -19.6516   21.5698 C   0  0  0  0  0  0  0  0  0  0  0  0
   14.0683  -20.0633   22.2600 O   0  0  0  0  0  0  0  0  0  0  0  0
   10.5437  -16.5345   22.8819 C   0  0  0  0  0  0  0  0  0  0  0  0
   11.2454  -15.5132   22.7584 O   0  0  0  0  0  0  0  0  0  0  0  0
   13.1584  -19.8608   20.1988 O   0  0  0  0  0  0  0  0  0  0  0  0
   10.1592  -16.9571   24.1739 N   0  0  0  0  0  0  0  0  0  0  0  0
   10.5464  -16.3244   25.4170 C   0  0  1  0  0  0  0  0  0  0  0  0
    9.3810  -16.1482   26.3400 C   0  0  0  0  0  0  0  0  0  0  0  0
    9.8045  -15.3599   27.5182 C   0  0  0  0  0  0  0  0  0  0  0  0
   11.0536  -14.8313   27.7241 C   0  0  0  0  0  0  0  0  0  0  0  0
   11.0159  -14.1931   28.9084 N   0  0  0  0  0  0  0  0  0  0  0  0
    9.7846  -14.3150   29.4321 C   0  0  0  0  0  0  0  0  0  0  0  0
    9.0576  -15.0274   28.5757 N   0  0  0  0  0  0  0  0  0  0  0  0
   11.7311  -16.9382   26.0488 C   0  0  0  0  0  0  0  0  0  0  0  0
   11.9786  -18.2804   25.8414 O   0  0  0  0  0  0  0  0  0  0  0  0
   12.5000  -16.2755   26.7554 O   0  0  0  0  0  0  0  0  0  0  0  0
  2  1  1  0
  3  2  1  0
  3  4  1  1
  5  7  1  0
  5  3  1  0
  6  5  2  0
  8  7  1  0
  8  9  1  6
  9 10  1  0
 10 11  1  0
 11 15  1  0
 12 11  2  0
 13  8  1  0
 14 13  2  0
 16 13  1  0
 17 16  1  0
 17 18  1  1
 19 18  1  0
 20 19  2  0
 21 22  1  0
 21 20  1  0
 22 23  2  0
 23 19  1  0
 24 17  1  0
 25 24  1  0
 26 24  2  0
M  END
$$$$
