SEH.pdb
     RDKit          3D

 26 26  0  0  1  0  0  0  0  0999 V2000
    7.5666  -12.5772   21.1916 O   0  0  0  0  0  0  0  0  0  0  0  0
    8.0807  -12.8807   19.9441 C   0  0  0  0  0  0  0  0  0  0  0  0
    7.7876  -14.3173   19.5400 C   0  0  2  0  0  0  0  0  0  0  0  0
    6.3295  -14.4584   19.5969 N   0  0  0  0  0  0  0  0  0  0  0  0
    8.3399  -15.1823   20.6119 C   0  0  0  0  0  0  0  0  0  0  0  0
    7.5196  -15.6750   21.4257 O   0  0  0  0  0  0  0  0  0  0  0  0
    9.7052  -15.4794   20.7694 N   0  0  0  0  0  0  0  0  0  0  0  0
   10.1246  -16.4354   21.7548 C   0  0  1  0  0  0  0  0  0  0  0  0
   11.5545  -16.8883   21.5446 C   0  0  0  0  0  0  0  0  0  0  0  0
   11.9457  -17.9467   22.5715 C   0  0  0  0  0  0  0  0  0  0  0  0
   13.3370  -18.4047   22.3665 C   0  0  0  0  0  0  0  0  0  0  0  0
   14.3389  -17.8447   22.8461 O   0  0  0  0  0  0  0  0  0  0  0  0
    9.9155  -15.9242   23.1335 C   0  0  0  0  0  0  0  0  0  0  0  0
    9.9325  -14.6913   23.3082 O   0  0  0  0  0  0  0  0  0  0  0  0
   13.5226  -19.5359   21.5849 O   0  0  0  0  0  0  0  0  0  0  0  0
    9.7006  -16.7763   24.2395 N   0  0  0  0  0  0  0  0  0  0  0  0
    9.0438  -16.4039   25.4745 C   0  0  1  0  0  0  0  0  0  0  0  0
    7.5790  -16.1658   25.2776 C   0  0  0  0  0  0  0  0  0  0  0  0
    7.2761  -14.7403   25.5328 C   0  0  0  0  0  0  0  0  0  0  0  0
    8.1832  -13.7803   25.9037 C   0  0  0  0  0  0  0  0  0  0  0  0
    7.5001  -12.6278   26.0315 N   0  0  0  0  0  0  0  0  0  0  0  0
    6.2057  -12.8530   25.7508 C   0  0  0  0  0  0  0  0  0  0  0  0
    6.0834  -14.1427   25.4489 N   0  0  0  0  0  0  0  0  0  0  0  0
    9.3649  -17.2950   26.6069 C   0  0  0  0  0  0  0  0  0  0  0  0
    9.5868  -16.7401   27.8514 O   0  0  0  0  0  0  0  0  0  0  0  0
    9.4380  -18.5210   26.4610 O   0  0  0  0  0  0  0  0  0  0  0  0
  2  1  1  0
  3  2  1  0
  3  4  1  1
  5  7  1  0
  5  3  1  0
  6  5  2  0
  8  7  1  0
  8  9  1  6
  9 10  1  0
 10 11  1  0
 11 15  1  0
 12 11  2  0
 13  8  1  0
 14 13  2  0
 16 13  1  0
 17 16  1  0
 17 18  1  6
 19 18  1  0
 20 19  2  0
 21 22  1  0
 21 20  1  0
 22 23  2  0
 23 19  1  0
 24 17  1  0
 25 24  1  0
 26 24  2  0
M  END
$$$$
