QNA.pdb
     RDKit          3D

 23 22  0  0  1  0  0  0  0  0999 V2000
   16.0053  -14.1863  -18.0985 N   0  0  0  0  0  0  0  0  0  0  0  0
   17.3267  -14.6981  -18.1853 C   0  0  0  0  0  0  0  0  0  0  0  0
   17.5275  -15.8839  -18.5512 O   0  0  0  0  0  0  0  0  0  0  0  0
   18.4779  -13.8578  -17.8516 C   0  0  0  0  0  0  0  0  0  0  0  0
   18.0746  -12.4773  -17.3751 C   0  0  0  0  0  0  0  0  0  0  0  0
   19.3514  -11.7760  -16.9736 C   0  0  2  0  0  0  0  0  0  0  0  0
   19.9041  -12.5265  -15.8619 N   0  0  0  0  0  0  0  0  0  0  0  0
   19.1490  -10.3765  -16.5911 C   0  0  0  0  0  0  0  0  0  0  0  0
   18.7533   -9.4797  -17.3830 O   0  0  0  0  0  0  0  0  0  0  0  0
   16.3577   -9.0489  -15.0125 N   0  0  0  0  0  0  0  0  0  0  0  0
   16.9337   -8.8563  -13.7195 C   0  0  0  0  0  0  0  0  0  0  0  0
   16.1373   -8.9187  -12.7584 O   0  0  0  0  0  0  0  0  0  0  0  0
   18.3681   -8.6006  -13.5185 C   0  0  0  0  0  0  0  0  0  0  0  0
   19.1962   -8.6077  -14.7674 C   0  0  2  0  0  0  0  0  0  0  0  0
   19.4062   -9.9765  -15.2537 N   0  0  0  0  0  0  0  0  0  0  0  0
   20.4506   -7.8593  -14.6963 C   0  0  0  0  0  0  0  0  0  0  0  0
   21.5375   -8.2599  -14.2247 O   0  0  0  0  0  0  0  0  0  0  0  0
   21.3660   -4.4905  -16.0992 C   0  0  0  0  0  0  0  0  0  0  0  0
   21.6417   -5.6930  -15.2150 C   0  0  2  0  0  0  0  0  0  0  0  0
   20.4597   -6.5295  -15.2143 N   0  0  0  0  0  0  0  0  0  0  0  0
   21.9233   -5.2979  -13.8206 C   0  0  0  0  0  0  0  0  0  0  0  0
   23.1833   -4.9127  -13.3906 O   0  0  0  0  0  0  0  0  0  0  0  0
   21.0029   -5.3032  -12.9754 O   0  0  0  0  0  0  0  0  0  0  0  0
  2  1  1  0
  2  4  1  0
  3  2  2  0
  5  4  1  0
  6  5  1  0
  6  7  1  1
  8  6  1  0
  8  9  2  0
 10 11  1  0
 11 13  1  0
 11 12  2  0
 14 13  1  1
 14 16  1  0
 14 15  1  0
 15  8  1  0
 16 20  1  0
 17 16  2  0
 19 18  1  6
 19 21  1  0
 20 19  1  0
 21 23  2  0
 21 22  1  0
M  END
$$$$
