QNA.pdb
     RDKit          3D

 23 22  0  0  1  0  0  0  0  0999 V2000
   25.9335  -22.6661  -14.4101 N   0  0  0  0  0  0  0  0  0  0  0  0
   26.6563  -21.7265  -15.1911 C   0  0  0  0  0  0  0  0  0  0  0  0
   27.6478  -22.0927  -15.8717 O   0  0  0  0  0  0  0  0  0  0  0  0
   26.2627  -20.3168  -15.2194 C   0  0  0  0  0  0  0  0  0  0  0  0
   25.0912  -20.0193  -14.3058 C   0  0  0  0  0  0  0  0  0  0  0  0
   23.8604  -20.5447  -15.0076 C   0  0  2  0  0  0  0  0  0  0  0  0
   24.0836  -20.3598  -16.4290 N   0  0  0  0  0  0  0  0  0  0  0  0
   22.6261  -19.8722  -14.5955 C   0  0  0  0  0  0  0  0  0  0  0  0
   22.3018  -19.6680  -13.3950 O   0  0  0  0  0  0  0  0  0  0  0  0
   22.3259  -16.6378  -15.7799 N   0  0  0  0  0  0  0  0  0  0  0  0
   21.1027  -16.6883  -16.5160 C   0  0  0  0  0  0  0  0  0  0  0  0
   20.9414  -15.7801  -17.3591 O   0  0  0  0  0  0  0  0  0  0  0  0
   20.0910  -17.7350  -16.3053 C   0  0  0  0  0  0  0  0  0  0  0  0
   20.4432  -18.7606  -15.2711 C   0  0  2  0  0  0  0  0  0  0  0  0
   21.7205  -19.4112  -15.5866 N   0  0  0  0  0  0  0  0  0  0  0  0
   19.3973  -19.7373  -14.9700 C   0  0  0  0  0  0  0  0  0  0  0  0
   19.0316  -20.6914  -15.6913 O   0  0  0  0  0  0  0  0  0  0  0  0
   17.3322  -20.2279  -11.8599 C   0  0  0  0  0  0  0  0  0  0  0  0
   17.6480  -20.5066  -13.3181 C   0  0  2  0  0  0  0  0  0  0  0  0
   18.7078  -19.6086  -13.7271 N   0  0  0  0  0  0  0  0  0  0  0  0
   16.4814  -20.2644  -14.1900 C   0  0  0  0  0  0  0  0  0  0  0  0
   15.4878  -21.2094  -14.3922 O   0  0  0  0  0  0  0  0  0  0  0  0
   16.3634  -19.1694  -14.7802 O   0  0  0  0  0  0  0  0  0  0  0  0
  2  1  1  0
  2  4  1  0
  3  2  2  0
  5  4  1  0
  6  5  1  0
  6  7  1  6
  8  6  1  0
  8  9  2  0
 10 11  1  0
 11 13  1  0
 11 12  2  0
 14 13  1  6
 14 16  1  0
 14 15  1  0
 15  8  1  0
 16 20  1  0
 17 16  2  0
 19 18  1  1
 19 21  1  0
 20 19  1  0
 21 23  2  0
 21 22  1  0
M  END
$$$$
