QNA.pdb
     RDKit          3D

 23 22  0  0  1  0  0  0  0  0999 V2000
   18.8500  -23.8249   -7.8889 N   0  0  0  0  0  0  0  0  0  0  0  0
   18.9283  -25.1041   -8.4996 C   0  0  0  0  0  0  0  0  0  0  0  0
   19.6632  -25.9992   -8.0108 O   0  0  0  0  0  0  0  0  0  0  0  0
   18.1573  -25.4051   -9.7070 C   0  0  0  0  0  0  0  0  0  0  0  0
   17.2484  -24.2650  -10.1188 C   0  0  0  0  0  0  0  0  0  0  0  0
   17.3556  -24.1573  -11.6222 C   0  0  2  0  0  0  0  0  0  0  0  0
   18.1632  -25.2797  -12.0612 N   0  0  0  0  0  0  0  0  0  0  0  0
   17.9503  -22.8967  -12.0726 C   0  0  0  0  0  0  0  0  0  0  0  0
   17.4490  -21.7621  -11.8507 O   0  0  0  0  0  0  0  0  0  0  0  0
   23.1453  -20.0914  -12.4313 N   0  0  0  0  0  0  0  0  0  0  0  0
   21.8175  -20.5900  -12.2604 C   0  0  0  0  0  0  0  0  0  0  0  0
   21.1114  -19.9745  -11.4332 O   0  0  0  0  0  0  0  0  0  0  0  0
   21.3027  -21.7507  -13.0029 C   0  0  0  0  0  0  0  0  0  0  0  0
   19.8346  -21.7144  -13.3009 C   0  0  2  0  0  0  0  0  0  0  0  0
   19.1655  -22.9233  -12.8058 N   0  0  0  0  0  0  0  0  0  0  0  0
   19.4804  -21.4295  -14.6909 C   0  0  0  0  0  0  0  0  0  0  0  0
   19.4829  -22.2366  -15.6463 O   0  0  0  0  0  0  0  0  0  0  0  0
   18.1859  -18.2681  -16.2829 C   0  0  0  0  0  0  0  0  0  0  0  0
   18.7138  -19.6893  -16.3537 C   0  0  2  0  0  0  0  0  0  0  0  0
   19.0862  -20.0966  -15.0149 N   0  0  0  0  0  0  0  0  0  0  0  0
   19.9109  -19.7899  -17.2120 C   0  0  0  0  0  0  0  0  0  0  0  0
   19.8374  -19.8794  -18.5932 O   0  0  0  0  0  0  0  0  0  0  0  0
   21.0480  -19.7961  -16.6941 O   0  0  0  0  0  0  0  0  0  0  0  0
  2  1  1  0
  2  4  1  0
  3  2  2  0
  5  4  1  0
  6  5  1  0
  6  7  1  1
  8  6  1  0
  8  9  2  0
 10 11  1  0
 11 13  1  0
 11 12  2  0
 14 13  1  6
 14 16  1  0
 14 15  1  0
 15  8  1  0
 16 20  1  0
 17 16  2  0
 19 18  1  1
 19 21  1  0
 20 19  1  0
 21 23  2  0
 21 22  1  0
M  END
$$$$
