QNA.pdb
     RDKit          3D

 23 22  0  0  1  0  0  0  0  0999 V2000
   14.5484  -12.2665  -12.0225 N   0  0  0  0  0  0  0  0  0  0  0  0
   14.4004  -12.4700  -10.6254 C   0  0  0  0  0  0  0  0  0  0  0  0
   13.9610  -13.5619  -10.1839 O   0  0  0  0  0  0  0  0  0  0  0  0
   14.7553  -11.4155   -9.6740 C   0  0  0  0  0  0  0  0  0  0  0  0
   15.3154  -10.1818  -10.3519 C   0  0  0  0  0  0  0  0  0  0  0  0
   14.8188   -8.9969   -9.5565 C   0  0  2  0  0  0  0  0  0  0  0  0
   13.3705   -9.0224   -9.6363 N   0  0  0  0  0  0  0  0  0  0  0  0
   15.3318   -7.7146  -10.0444 C   0  0  0  0  0  0  0  0  0  0  0  0
   14.7660   -7.0205  -10.9309 O   0  0  0  0  0  0  0  0  0  0  0  0
   18.4964   -2.9035   -8.5841 N   0  0  0  0  0  0  0  0  0  0  0  0
   17.6824   -3.5942   -9.5334 C   0  0  0  0  0  0  0  0  0  0  0  0
   17.6630   -3.1075  -10.6842 O   0  0  0  0  0  0  0  0  0  0  0  0
   16.9125   -4.8001   -9.1917 C   0  0  0  0  0  0  0  0  0  0  0  0
   17.2110   -6.0041  -10.0324 C   0  0  2  0  0  0  0  0  0  0  0  0
   16.5380   -7.1968   -9.5041 N   0  0  0  0  0  0  0  0  0  0  0  0
   18.6277   -6.2534  -10.2960 C   0  0  0  0  0  0  0  0  0  0  0  0
   19.5130   -6.5159   -9.4525 O   0  0  0  0  0  0  0  0  0  0  0  0
   20.4961   -6.8440  -13.4710 C   0  0  0  0  0  0  0  0  0  0  0  0
   20.4573   -6.3549  -12.0347 C   0  0  2  0  0  0  0  0  0  0  0  0
   19.0697   -6.1971  -11.6519 N   0  0  0  0  0  0  0  0  0  0  0  0
   21.1259   -5.0476  -11.8800 C   0  0  0  0  0  0  0  0  0  0  0  0
   22.4907   -4.9237  -11.6729 O   0  0  0  0  0  0  0  0  0  0  0  0
   20.4538   -3.9957  -11.9349 O   0  0  0  0  0  0  0  0  0  0  0  0
  2  1  1  0
  2  4  1  0
  3  2  2  0
  5  4  1  0
  6  5  1  0
  6  7  1  6
  8  6  1  0
  8  9  2  0
 10 11  1  0
 11 13  1  0
 11 12  2  0
 14 13  1  1
 14 16  1  0
 14 15  1  0
 15  8  1  0
 16 20  1  0
 17 16  2  0
 19 18  1  6
 19 21  1  0
 20 19  1  0
 21 23  2  0
 21 22  1  0
M  END
$$$$
