QNA.pdb
     RDKit          3D

 23 22  0  0  1  0  0  0  0  0999 V2000
   28.4650  -18.1619  -17.2730 N   0  0  0  0  0  0  0  0  0  0  0  0
   28.4343  -19.5652  -17.4853 C   0  0  0  0  0  0  0  0  0  0  0  0
   29.1914  -20.0973  -18.3363 O   0  0  0  0  0  0  0  0  0  0  0  0
   27.5232  -20.4179  -16.7200 C   0  0  0  0  0  0  0  0  0  0  0  0
   26.7156  -19.6416  -15.6998 C   0  0  0  0  0  0  0  0  0  0  0  0
   25.2667  -19.7902  -16.1021 C   0  0  2  0  0  0  0  0  0  0  0  0
   25.1080  -19.0709  -17.3518 N   0  0  0  0  0  0  0  0  0  0  0  0
   24.3306  -19.2778  -15.0987 C   0  0  0  0  0  0  0  0  0  0  0  0
   23.8469  -18.1144  -15.1153 O   0  0  0  0  0  0  0  0  0  0  0  0
   20.8367  -18.2021  -11.4106 N   0  0  0  0  0  0  0  0  0  0  0  0
   20.6321  -18.8834  -12.6495 C   0  0  0  0  0  0  0  0  0  0  0  0
   19.4582  -19.2448  -12.8800 O   0  0  0  0  0  0  0  0  0  0  0  0
   21.7227  -19.1486  -13.6002 C   0  0  0  0  0  0  0  0  0  0  0  0
   22.9744  -19.7049  -12.9926 C   0  0  2  0  0  0  0  0  0  0  0  0
   23.9255  -20.1203  -14.0305 N   0  0  0  0  0  0  0  0  0  0  0  0
   22.7773  -20.7497  -11.9886 C   0  0  0  0  0  0  0  0  0  0  0  0
   22.2544  -21.8719  -12.1662 O   0  0  0  0  0  0  0  0  0  0  0  0
   24.0280  -21.0545   -8.4711 C   0  0  0  0  0  0  0  0  0  0  0  0
   23.0434  -21.4185   -9.5673 C   0  0  2  0  0  0  0  0  0  0  0  0
   23.2215  -20.4836  -10.6586 N   0  0  0  0  0  0  0  0  0  0  0  0
   21.6445  -21.3213   -9.1053 C   0  0  0  0  0  0  0  0  0  0  0  0
   21.0571  -22.2742   -8.2880 O   0  0  0  0  0  0  0  0  0  0  0  0
   20.9417  -20.3482   -9.4526 O   0  0  0  0  0  0  0  0  0  0  0  0
  2  1  1  0
  2  4  1  0
  3  2  2  0
  5  4  1  0
  6  5  1  0
  6  7  1  6
  8  6  1  0
  8  9  2  0
 10 11  1  0
 11 13  1  0
 11 12  2  0
 14 13  1  6
 14 16  1  0
 14 15  1  0
 15  8  1  0
 16 20  1  0
 17 16  2  0
 19 18  1  1
 19 21  1  0
 20 19  1  0
 21 23  2  0
 21 22  1  0
M  END
$$$$
