NRE.pdb
     RDKit          3D

 29 28  0  0  1  0  0  0  0  0999 V2000
   18.7722  -12.6541  -16.9267 N   0  0  0  0  0  0  0  0  0  0  0  0
   17.3734  -12.8584  -17.0569 C   0  0  0  0  0  0  0  0  0  0  0  0
   16.9019  -13.4012  -18.0638 O   0  0  0  0  0  0  0  0  0  0  0  0
   16.4770  -12.4115  -15.9659 C   0  0  0  0  0  0  0  0  0  0  0  0
   17.2758  -11.7443  -14.8885 C   0  0  2  0  0  0  0  0  0  0  0  0
   17.1815  -12.5644  -13.6937 N   0  0  0  0  0  0  0  0  0  0  0  0
   16.6899  -10.3891  -14.5997 C   0  0  0  0  0  0  0  0  0  0  0  0
   16.7418   -9.4636  -15.4500 O   0  0  0  0  0  0  0  0  0  0  0  0
   14.2262   -5.6942   -8.7395 N   0  0  0  0  0  0  0  0  0  0  0  0
   14.4165   -7.0336   -8.3040 C   0  0  0  0  0  0  0  0  0  0  0  0
   15.0186   -7.2471   -7.1780 N   0  0  0  0  0  0  0  0  0  0  0  0
   13.9804   -8.1577   -9.0396 N   0  0  0  0  0  0  0  0  0  0  0  0
   13.1914   -8.0162  -10.2279 C   0  0  0  0  0  0  0  0  0  0  0  0
   14.0328   -7.6144  -11.4291 C   0  0  0  0  0  0  0  0  0  0  0  0
   14.6989   -8.8856  -11.8865 C   0  0  0  0  0  0  0  0  0  0  0  0
   15.5803   -8.7313  -13.0991 C   0  0  2  0  0  0  0  0  0  0  0  0
   16.0596  -10.0967  -13.3704 N   0  0  0  0  0  0  0  0  0  0  0  0
   16.7059   -7.8354  -12.7895 C   0  0  0  0  0  0  0  0  0  0  0  0
   17.5888   -8.0970  -11.9573 O   0  0  0  0  0  0  0  0  0  0  0  0
   15.2333   -8.2110   -6.8535 N   0  0  0  0  0  0  0  0  0  0  0  0
   16.8253   -6.5850  -13.4623 C   0  0  1  0  0  0  0  0  0  0  0  0
   18.0294   -5.7428  -13.3115 C   0  0  0  0  0  0  0  0  0  0  0  0
   19.1607   -6.5939  -13.8111 C   0  0  0  0  0  0  0  0  0  0  0  0
   20.4546   -5.9008  -14.0139 C   0  0  0  0  0  0  0  0  0  0  0  0
   21.5033   -6.7683  -14.5756 O   0  0  0  0  0  0  0  0  0  0  0  0
   22.6544   -6.3686  -14.8516 C   0  0  0  0  0  0  0  0  0  0  0  0
   17.8233   -4.5330  -14.1240 O   0  0  0  0  0  0  0  0  0  0  0  0
   18.5198   -3.3630  -13.8848 O   0  0  0  0  0  0  0  0  0  0  0  0
   21.2410   -8.1156  -14.8292 O   0  0  0  0  0  0  0  0  0  0  0  0
  2  1  1  0
  2  3  2  0
  4  5  1  0
  4  2  1  0
  5  7  1  0
  5  6  1  1
  7  8  2  0
 10  9  1  0
 11 10  2  0
 12 10  1  0
 13 14  1  0
 13 12  1  0
 16 15  1  1
 15 14  1  0
 16 17  1  0
 17  7  1  0
 18 19  2  0
 18 16  1  0
 20 18  1  0
 21 22  1  1
 21 20  1  0
 22 23  1  0
 23 24  1  0
 24 25  2  0
 26 21  1  0
 27 26  1  0
 28 24  1  0
 29 26  2  0
M  END
$$$$
