NRE.pdb
     RDKit          3D

 29 28  0  0  1  0  0  0  0  0999 V2000
   45.9238  -10.0790   -5.6556 N   0  0  0  0  0  0  0  0  0  0  0  0
   44.9869   -9.4639   -4.7843 C   0  0  0  0  0  0  0  0  0  0  0  0
   45.3611   -8.6951   -3.8899 O   0  0  0  0  0  0  0  0  0  0  0  0
   43.5450   -9.7544   -4.9583 C   0  0  0  0  0  0  0  0  0  0  0  0
   43.3578  -10.8008   -6.0136 C   0  0  2  0  0  0  0  0  0  0  0  0
   44.6684  -11.1417   -6.5381 N   0  0  0  0  0  0  0  0  0  0  0  0
   42.5152  -10.2410   -7.1272 C   0  0  0  0  0  0  0  0  0  0  0  0
   43.0063   -9.4662   -7.9879 O   0  0  0  0  0  0  0  0  0  0  0  0
   35.7851  -13.5310   -8.0168 N   0  0  0  0  0  0  0  0  0  0  0  0
   36.0936  -12.4906   -7.0990 C   0  0  0  0  0  0  0  0  0  0  0  0
   35.9621  -12.7142   -5.8307 N   0  0  0  0  0  0  0  0  0  0  0  0
   36.5406  -11.2117   -7.4981 N   0  0  0  0  0  0  0  0  0  0  0  0
   36.7081  -10.8736   -8.8810 C   0  0  0  0  0  0  0  0  0  0  0  0
   37.9390  -10.0117   -9.1143 C   0  0  0  0  0  0  0  0  0  0  0  0
   39.0001  -10.5883   -8.2143 C   0  0  0  0  0  0  0  0  0  0  0  0
   40.3296   -9.8816   -8.2785 C   0  0  2  0  0  0  0  0  0  0  0  0
   41.1451  -10.5577   -7.2559 N   0  0  0  0  0  0  0  0  0  0  0  0
   40.1564   -8.4578   -7.9498 C   0  0  0  0  0  0  0  0  0  0  0  0
   40.2442   -7.9981   -6.8001 O   0  0  0  0  0  0  0  0  0  0  0  0
   36.1706  -11.9781   -5.1270 N   0  0  0  0  0  0  0  0  0  0  0  0
   39.8698   -7.5191   -8.9830 C   0  0  1  0  0  0  0  0  0  0  0  0
   39.8148   -6.0685   -8.7102 C   0  0  0  0  0  0  0  0  0  0  0  0
   41.1986   -5.7092   -8.2521 C   0  0  0  0  0  0  0  0  0  0  0  0
   41.4332   -4.2763   -7.9561 C   0  0  0  0  0  0  0  0  0  0  0  0
   42.7926   -3.9932   -7.4665 O   0  0  0  0  0  0  0  0  0  0  0  0
   43.8040   -3.9938   -8.2001 C   0  0  0  0  0  0  0  0  0  0  0  0
   39.4376   -5.3999   -9.9659 O   0  0  0  0  0  0  0  0  0  0  0  0
   39.3068   -6.0941  -11.1544 O   0  0  0  0  0  0  0  0  0  0  0  0
   43.0089   -3.7037   -6.1182 O   0  0  0  0  0  0  0  0  0  0  0  0
  2  1  1  0
  2  3  2  0
  4  5  1  0
  4  2  1  0
  5  7  1  0
  5  6  1  6
  7  8  2  0
 10  9  1  0
 11 10  2  0
 12 10  1  0
 13 14  1  0
 13 12  1  0
 16 15  1  1
 15 14  1  0
 16 17  1  0
 17  7  1  0
 18 19  2  0
 18 16  1  0
 20 18  1  0
 21 22  1  1
 21 20  1  0
 22 23  1  0
 23 24  1  0
 24 25  2  0
 26 21  1  0
 27 26  1  0
 28 24  1  0
 29 26  2  0
M  END
$$$$
