NRE.pdb
     RDKit          3D

 29 28  0  0  1  0  0  0  0  0999 V2000
   20.9502  -14.1709  -19.8950 N   0  0  0  0  0  0  0  0  0  0  0  0
   21.6449  -13.0200  -19.4389 C   0  0  0  0  0  0  0  0  0  0  0  0
   22.8686  -12.9156  -19.5893 O   0  0  0  0  0  0  0  0  0  0  0  0
   20.8835  -11.9366  -18.7754 C   0  0  0  0  0  0  0  0  0  0  0  0
   21.7727  -11.1939  -17.8259 C   0  0  2  0  0  0  0  0  0  0  0  0
   22.1337  -12.1031  -16.7526 N   0  0  0  0  0  0  0  0  0  0  0  0
   21.0202  -10.0270  -17.2470 C   0  0  0  0  0  0  0  0  0  0  0  0
   20.5471   -9.1265  -17.9870 O   0  0  0  0  0  0  0  0  0  0  0  0
   16.0009  -10.4085  -10.5383 N   0  0  0  0  0  0  0  0  0  0  0  0
   15.8295  -10.3946  -11.9491 C   0  0  0  0  0  0  0  0  0  0  0  0
   14.8496  -11.0627  -12.4681 N   0  0  0  0  0  0  0  0  0  0  0  0
   16.6784   -9.6844  -12.8265 N   0  0  0  0  0  0  0  0  0  0  0  0
   17.7905   -8.9217  -12.3404 C   0  0  0  0  0  0  0  0  0  0  0  0
   18.5031   -8.1740  -13.4565 C   0  0  0  0  0  0  0  0  0  0  0  0
   19.3147   -9.2195  -14.1755 C   0  0  0  0  0  0  0  0  0  0  0  0
   20.1276   -8.6974  -15.3321 C   0  0  2  0  0  0  0  0  0  0  0  0
   20.8122   -9.8905  -15.8569 N   0  0  0  0  0  0  0  0  0  0  0  0
   21.1027   -7.7056  -14.8517 C   0  0  0  0  0  0  0  0  0  0  0  0
   22.1422   -7.9985  -14.2397 O   0  0  0  0  0  0  0  0  0  0  0  0
   14.6683  -11.0501  -13.4916 N   0  0  0  0  0  0  0  0  0  0  0  0
   20.8775   -6.3175  -15.0819 C   0  0  2  0  0  0  0  0  0  0  0  0
   21.8686   -5.3002  -14.6764 C   0  0  0  0  0  0  0  0  0  0  0  0
   21.4125   -4.0318  -15.3376 C   0  0  0  0  0  0  0  0  0  0  0  0
   22.1702   -2.8077  -14.9870 C   0  0  0  0  0  0  0  0  0  0  0  0
   21.6512   -1.5909  -15.6336 O   0  0  0  0  0  0  0  0  0  0  0  0
   20.7082   -1.5941  -16.4532 C   0  0  0  0  0  0  0  0  0  0  0  0
   21.8395   -5.2203  -13.2071 O   0  0  0  0  0  0  0  0  0  0  0  0
   22.8882   -4.6855  -12.4820 O   0  0  0  0  0  0  0  0  0  0  0  0
   22.2131   -0.3463  -15.3448 O   0  0  0  0  0  0  0  0  0  0  0  0
  2  1  1  0
  2  3  2  0
  4  5  1  0
  4  2  1  0
  5  7  1  0
  5  6  1  1
  7  8  2  0
 10  9  1  0
 11 10  2  0
 12 10  1  0
 13 14  1  0
 13 12  1  0
 16 15  1  1
 15 14  1  0
 16 17  1  0
 17  7  1  0
 18 19  2  0
 18 16  1  0
 20 18  1  0
 21 22  1  6
 21 20  1  0
 22 23  1  0
 23 24  1  0
 24 25  2  0
 26 21  1  0
 27 26  1  0
 28 24  1  0
 29 26  2  0
M  END
$$$$
