NRE.pdb
     RDKit          3D

 29 28  0  0  1  0  0  0  0  0999 V2000
   26.3052  -18.7369  -21.2571 N   0  0  0  0  0  0  0  0  0  0  0  0
   26.1710  -20.1437  -21.1233 C   0  0  0  0  0  0  0  0  0  0  0  0
   26.1716  -20.8792  -22.1183 O   0  0  0  0  0  0  0  0  0  0  0  0
   26.0290  -20.7269  -19.7693 C   0  0  0  0  0  0  0  0  0  0  0  0
   25.9302  -19.6342  -18.7496 C   0  0  2  0  0  0  0  0  0  0  0  0
   27.1873  -18.9072  -18.7548 N   0  0  0  0  0  0  0  0  0  0  0  0
   25.7202  -20.2395  -17.3884 C   0  0  0  0  0  0  0  0  0  0  0  0
   24.9176  -21.1929  -17.2175 O   0  0  0  0  0  0  0  0  0  0  0  0
   28.5739  -21.3025   -9.4530 N   0  0  0  0  0  0  0  0  0  0  0  0
   29.4277  -21.5217  -10.5679 C   0  0  0  0  0  0  0  0  0  0  0  0
   30.3208  -22.4563  -10.4993 N   0  0  0  0  0  0  0  0  0  0  0  0
   29.3555  -20.7678  -11.7601 N   0  0  0  0  0  0  0  0  0  0  0  0
   28.3696  -19.7431  -11.9409 C   0  0  0  0  0  0  0  0  0  0  0  0
   27.1082  -20.2732  -12.6042 C   0  0  0  0  0  0  0  0  0  0  0  0
   27.2535  -19.9250  -14.0623 C   0  0  0  0  0  0  0  0  0  0  0  0
   26.0689  -20.2948  -14.9172 C   0  0  2  0  0  0  0  0  0  0  0  0
   26.4095  -19.7687  -16.2494 N   0  0  0  0  0  0  0  0  0  0  0  0
   24.8540  -19.6484  -14.3963 C   0  0  0  0  0  0  0  0  0  0  0  0
   24.6882  -18.4190  -14.3561 O   0  0  0  0  0  0  0  0  0  0  0  0
   31.0354  -22.5776  -11.2443 N   0  0  0  0  0  0  0  0  0  0  0  0
   23.7819  -20.4449  -13.8993 C   0  0  1  0  0  0  0  0  0  0  0  0
   22.5078  -19.8356  -13.4667 C   0  0  0  0  0  0  0  0  0  0  0  0
   21.9039  -19.2726  -14.7206 C   0  0  0  0  0  0  0  0  0  0  0  0
   21.3811  -20.2627  -15.6911 C   0  0  0  0  0  0  0  0  0  0  0  0
   20.7500  -19.6502  -16.8720 O   0  0  0  0  0  0  0  0  0  0  0  0
   20.5866  -18.4188  -17.0059 C   0  0  0  0  0  0  0  0  0  0  0  0
   21.6908  -20.9042  -12.8696 O   0  0  0  0  0  0  0  0  0  0  0  0
   20.5232  -20.6346  -12.1799 O   0  0  0  0  0  0  0  0  0  0  0  0
   20.2952  -20.4504  -17.9213 O   0  0  0  0  0  0  0  0  0  0  0  0
  2  1  1  0
  2  3  2  0
  4  5  1  0
  4  2  1  0
  5  7  1  0
  5  6  1  1
  7  8  2  0
 10  9  1  0
 11 10  2  0
 12 10  1  0
 13 14  1  0
 13 12  1  0
 16 15  1  1
 15 14  1  0
 16 17  1  0
 17  7  1  0
 18 19  2  0
 18 16  1  0
 20 18  1  0
 21 22  1  1
 21 20  1  0
 22 23  1  0
 23 24  1  0
 24 25  2  0
 26 21  1  0
 27 26  1  0
 28 24  1  0
 29 26  2  0
M  END
$$$$
