NRE.pdb
     RDKit          3D

 29 28  0  0  1  0  0  0  0  0999 V2000
   23.3575  -11.4890  -14.4269 N   0  0  0  0  0  0  0  0  0  0  0  0
   23.1799  -10.1517  -13.9849 C   0  0  0  0  0  0  0  0  0  0  0  0
   24.0163   -9.6085  -13.2526 O   0  0  0  0  0  0  0  0  0  0  0  0
   21.9731   -9.4074  -14.4129 C   0  0  0  0  0  0  0  0  0  0  0  0
   21.0344  -10.3259  -15.1333 C   0  0  2  0  0  0  0  0  0  0  0  0
   21.5980  -10.5981  -16.4437 N   0  0  0  0  0  0  0  0  0  0  0  0
   19.7036   -9.6453  -15.3043 C   0  0  0  0  0  0  0  0  0  0  0  0
   19.5690   -8.6669  -16.0833 O   0  0  0  0  0  0  0  0  0  0  0  0
   12.6814  -12.3913  -11.3247 N   0  0  0  0  0  0  0  0  0  0  0  0
   12.6292  -10.9724  -11.3886 C   0  0  0  0  0  0  0  0  0  0  0  0
   11.8268  -10.3382  -10.5948 N   0  0  0  0  0  0  0  0  0  0  0  0
   13.4127  -10.2069  -12.2802 N   0  0  0  0  0  0  0  0  0  0  0  0
   14.0221  -10.7943  -13.4370 C   0  0  0  0  0  0  0  0  0  0  0  0
   14.8384   -9.7848  -14.2287 C   0  0  0  0  0  0  0  0  0  0  0  0
   16.2691  -10.2315  -14.0800 C   0  0  0  0  0  0  0  0  0  0  0  0
   17.2737   -9.3715  -14.8026 C   0  0  2  0  0  0  0  0  0  0  0  0
   18.5539  -10.0708  -14.6035 N   0  0  0  0  0  0  0  0  0  0  0  0
   17.3123   -8.0306  -14.1977 C   0  0  0  0  0  0  0  0  0  0  0  0
   17.7872   -7.7918  -13.0761 O   0  0  0  0  0  0  0  0  0  0  0  0
   11.7198   -9.3056  -10.6456 N   0  0  0  0  0  0  0  0  0  0  0  0
   16.7837   -6.9144  -14.9084 C   0  0  2  0  0  0  0  0  0  0  0  0
   16.8110   -5.5540  -14.3336 C   0  0  0  0  0  0  0  0  0  0  0  0
   17.8513   -4.8198  -15.1289 C   0  0  0  0  0  0  0  0  0  0  0  0
   17.9797   -3.3703  -14.8491 C   0  0  0  0  0  0  0  0  0  0  0  0
   19.0120   -2.7050  -15.6613 O   0  0  0  0  0  0  0  0  0  0  0  0
   19.7579   -3.3108  -16.4599 C   0  0  0  0  0  0  0  0  0  0  0  0
   15.4636   -4.9835  -14.4919 O   0  0  0  0  0  0  0  0  0  0  0  0
   15.0456   -3.8814  -13.7694 O   0  0  0  0  0  0  0  0  0  0  0  0
   19.2017   -1.3254  -15.5657 O   0  0  0  0  0  0  0  0  0  0  0  0
  2  1  1  0
  2  3  2  0
  4  5  1  0
  4  2  1  0
  5  7  1  0
  5  6  1  6
  7  8  2  0
 10  9  1  0
 11 10  2  0
 12 10  1  0
 13 14  1  0
 13 12  1  0
 16 15  1  1
 15 14  1  0
 16 17  1  0
 17  7  1  0
 18 19  2  0
 18 16  1  0
 20 18  1  0
 21 22  1  6
 21 20  1  0
 22 23  1  0
 23 24  1  0
 24 25  2  0
 26 21  1  0
 27 26  1  0
 28 24  1  0
 29 26  2  0
M  END
$$$$
