NRE.pdb
     RDKit          3D

 29 28  0  0  1  0  0  0  0  0999 V2000
   29.4115  -18.8475  -19.2171 N   0  0  0  0  0  0  0  0  0  0  0  0
   28.1089  -18.2833  -19.2034 C   0  0  0  0  0  0  0  0  0  0  0  0
   27.8572  -17.2512  -19.8378 O   0  0  0  0  0  0  0  0  0  0  0  0
   27.0456  -18.9482  -18.4155 C   0  0  0  0  0  0  0  0  0  0  0  0
   27.6016  -20.1532  -17.7208 C   0  0  2  0  0  0  0  0  0  0  0  0
   27.7689  -21.2000  -18.7133 N   0  0  0  0  0  0  0  0  0  0  0  0
   26.6259  -20.6209  -16.6755 C   0  0  0  0  0  0  0  0  0  0  0  0
   25.6257  -21.3181  -16.9851 O   0  0  0  0  0  0  0  0  0  0  0  0
   23.5938  -20.2167  -10.1686 N   0  0  0  0  0  0  0  0  0  0  0  0
   24.4581  -20.7068   -9.1523 C   0  0  0  0  0  0  0  0  0  0  0  0
   23.9851  -20.8884   -7.9610 N   0  0  0  0  0  0  0  0  0  0  0  0
   25.8199  -21.0100   -9.3721 N   0  0  0  0  0  0  0  0  0  0  0  0
   26.4778  -20.6607  -10.5968 C   0  0  0  0  0  0  0  0  0  0  0  0
   25.5834  -20.8739  -11.8079 C   0  0  0  0  0  0  0  0  0  0  0  0
   26.4421  -20.5316  -12.9971 C   0  0  0  0  0  0  0  0  0  0  0  0
   25.7710  -20.7253  -14.3325 C   0  0  2  0  0  0  0  0  0  0  0  0
   26.7874  -20.3010  -15.3096 N   0  0  0  0  0  0  0  0  0  0  0  0
   24.5750  -19.8726  -14.4205 C   0  0  0  0  0  0  0  0  0  0  0  0
   24.5968  -18.6871  -14.7877 O   0  0  0  0  0  0  0  0  0  0  0  0
   24.6036  -21.1481   -7.1670 N   0  0  0  0  0  0  0  0  0  0  0  0
   23.2981  -20.4005  -14.0723 C   0  0  2  0  0  0  0  0  0  0  0  0
   22.0538  -19.8364  -14.6339 C   0  0  0  0  0  0  0  0  0  0  0  0
   22.1738  -20.0374  -16.1168 C   0  0  0  0  0  0  0  0  0  0  0  0
   21.0032  -19.6230  -16.9253 C   0  0  0  0  0  0  0  0  0  0  0  0
   21.1850  -19.8324  -18.3713 O   0  0  0  0  0  0  0  0  0  0  0  0
   21.5409  -20.9207  -18.8713 C   0  0  0  0  0  0  0  0  0  0  0  0
   20.9294  -20.5822  -14.0459 O   0  0  0  0  0  0  0  0  0  0  0  0
   19.6801  -20.0135  -13.8811 O   0  0  0  0  0  0  0  0  0  0  0  0
   20.9586  -18.7866  -19.2677 O   0  0  0  0  0  0  0  0  0  0  0  0
  2  1  1  0
  2  3  2  0
  4  5  1  0
  4  2  1  0
  5  7  1  0
  5  6  1  6
  7  8  2  0
 10  9  1  0
 11 10  2  0
 12 10  1  0
 13 14  1  0
 13 12  1  0
 16 15  1  1
 15 14  1  0
 16 17  1  0
 17  7  1  0
 18 19  2  0
 18 16  1  0
 20 18  1  0
 21 22  1  6
 21 20  1  0
 22 23  1  0
 23 24  1  0
 24 25  2  0
 26 21  1  0
 27 26  1  0
 28 24  1  0
 29 26  2  0
M  END
$$$$
