NRE.pdb
     RDKit          3D

 29 28  0  0  1  0  0  0  0  0999 V2000
   16.6555  -21.4039  -12.6409 N   0  0  0  0  0  0  0  0  0  0  0  0
   17.8162  -21.7988  -11.9254 C   0  0  0  0  0  0  0  0  0  0  0  0
   17.7780  -22.7396  -11.1226 O   0  0  0  0  0  0  0  0  0  0  0  0
   19.0839  -21.0670  -12.1515 C   0  0  0  0  0  0  0  0  0  0  0  0
   19.6223  -21.3853  -13.5126 C   0  0  2  0  0  0  0  0  0  0  0  0
   19.9758  -22.7937  -13.5320 N   0  0  0  0  0  0  0  0  0  0  0  0
   20.8591  -20.5665  -13.7638 C   0  0  0  0  0  0  0  0  0  0  0  0
   20.8223  -19.3093  -13.7422 O   0  0  0  0  0  0  0  0  0  0  0  0
   28.9441  -21.1322  -12.8185 N   0  0  0  0  0  0  0  0  0  0  0  0
   28.2757  -21.4511  -11.6054 C   0  0  0  0  0  0  0  0  0  0  0  0
   28.8794  -21.2333  -10.4811 N   0  0  0  0  0  0  0  0  0  0  0  0
   26.9747  -21.9986  -11.5576 N   0  0  0  0  0  0  0  0  0  0  0  0
   26.1711  -22.1270  -12.7377 C   0  0  0  0  0  0  0  0  0  0  0  0
   25.0264  -21.1264  -12.7621 C   0  0  0  0  0  0  0  0  0  0  0  0
   24.4543  -21.2160  -14.1526 C   0  0  0  0  0  0  0  0  0  0  0  0
   23.2615  -20.3285  -14.3990 C   0  0  2  0  0  0  0  0  0  0  0  0
   22.1083  -21.1675  -14.0330 N   0  0  0  0  0  0  0  0  0  0  0  0
   23.2023  -19.9521  -15.8203 C   0  0  0  0  0  0  0  0  0  0  0  0
   22.8401  -20.7214  -16.7246 O   0  0  0  0  0  0  0  0  0  0  0  0
   28.4102  -21.4135   -9.5713 N   0  0  0  0  0  0  0  0  0  0  0  0
   23.5747  -18.6372  -16.2239 C   0  0  2  0  0  0  0  0  0  0  0  0
   23.4114  -18.1866  -17.6210 C   0  0  0  0  0  0  0  0  0  0  0  0
   22.8027  -16.8182  -17.5165 C   0  0  0  0  0  0  0  0  0  0  0  0
   22.6077  -16.0946  -18.7949 C   0  0  0  0  0  0  0  0  0  0  0  0
   21.9810  -14.7723  -18.6311 O   0  0  0  0  0  0  0  0  0  0  0  0
   20.7922  -14.6110  -18.2824 C   0  0  0  0  0  0  0  0  0  0  0  0
   24.7483  -18.1712  -18.2362 O   0  0  0  0  0  0  0  0  0  0  0  0
   24.9447  -18.4836  -19.5687 O   0  0  0  0  0  0  0  0  0  0  0  0
   22.7175  -13.6105  -18.8677 O   0  0  0  0  0  0  0  0  0  0  0  0
  2  1  1  0
  2  3  2  0
  4  5  1  0
  4  2  1  0
  5  7  1  0
  5  6  1  1
  7  8  2  0
 10  9  1  0
 11 10  2  0
 12 10  1  0
 13 14  1  0
 13 12  1  0
 16 15  1  6
 15 14  1  0
 16 17  1  0
 17  7  1  0
 18 19  2  0
 18 16  1  0
 20 18  1  0
 21 22  1  1
 21 20  1  0
 22 23  1  0
 23 24  1  0
 24 25  2  0
 26 21  1  0
 27 26  1  0
 28 24  1  0
 29 26  2  0
M  END
$$$$
