NRE.pdb
     RDKit          3D

 29 28  0  0  1  0  0  0  0  0999 V2000
   22.4525  -19.9592   -8.6301 N   0  0  0  0  0  0  0  0  0  0  0  0
   21.4378  -19.4953   -9.5077 C   0  0  0  0  0  0  0  0  0  0  0  0
   20.2486  -19.5068   -9.1661 O   0  0  0  0  0  0  0  0  0  0  0  0
   21.8204  -18.9934  -10.8476 C   0  0  0  0  0  0  0  0  0  0  0  0
   20.7994  -19.4111  -11.8610 C   0  0  2  0  0  0  0  0  0  0  0  0
   20.6938  -20.8587  -11.8140 N   0  0  0  0  0  0  0  0  0  0  0  0
   21.2596  -18.9979  -13.2324 C   0  0  0  0  0  0  0  0  0  0  0  0
   21.4257  -17.7859  -13.5249 O   0  0  0  0  0  0  0  0  0  0  0  0
   26.2850  -21.8276  -16.9839 N   0  0  0  0  0  0  0  0  0  0  0  0
   25.2878  -22.7350  -16.5340 C   0  0  0  0  0  0  0  0  0  0  0  0
   25.6021  -23.6209  -15.6439 N   0  0  0  0  0  0  0  0  0  0  0  0
   23.9579  -22.7241  -17.0095 N   0  0  0  0  0  0  0  0  0  0  0  0
   23.5474  -21.8499  -18.0688 C   0  0  0  0  0  0  0  0  0  0  0  0
   23.1565  -20.4730  -17.5554 C   0  0  0  0  0  0  0  0  0  0  0  0
   22.3900  -20.7293  -16.2844 C   0  0  0  0  0  0  0  0  0  0  0  0
   21.8739  -19.4890  -15.6016 C   0  0  2  0  0  0  0  0  0  0  0  0
   21.5241  -19.9449  -14.2460 N   0  0  0  0  0  0  0  0  0  0  0  0
   20.6835  -18.9877  -16.3065 C   0  0  0  0  0  0  0  0  0  0  0  0
   19.5249  -19.1066  -15.8775 O   0  0  0  0  0  0  0  0  0  0  0  0
   24.9433  -24.3806  -15.3805 N   0  0  0  0  0  0  0  0  0  0  0  0
   20.8262  -18.3212  -17.5579 C   0  0  1  0  0  0  0  0  0  0  0  0
   19.8937  -17.2526  -17.9706 C   0  0  0  0  0  0  0  0  0  0  0  0
   19.1982  -16.8378  -16.7064 C   0  0  0  0  0  0  0  0  0  0  0  0
   18.2188  -15.7334  -16.8362 C   0  0  0  0  0  0  0  0  0  0  0  0
   17.4977  -15.4388  -15.5867 O   0  0  0  0  0  0  0  0  0  0  0  0
   16.3924  -15.9421  -15.2933 C   0  0  0  0  0  0  0  0  0  0  0  0
   20.6990  -16.1711  -18.5603 O   0  0  0  0  0  0  0  0  0  0  0  0
   20.2502  -15.4270  -19.6358 O   0  0  0  0  0  0  0  0  0  0  0  0
   18.0410  -14.5560  -14.6521 O   0  0  0  0  0  0  0  0  0  0  0  0
  2  1  1  0
  2  3  2  0
  4  5  1  0
  4  2  1  0
  5  7  1  0
  5  6  1  6
  7  8  2  0
 10  9  1  0
 11 10  2  0
 12 10  1  0
 13 14  1  0
 13 12  1  0
 16 15  1  6
 15 14  1  0
 16 17  1  0
 17  7  1  0
 18 19  2  0
 18 16  1  0
 20 18  1  0
 21 22  1  6
 21 20  1  0
 22 23  1  0
 23 24  1  0
 24 25  2  0
 26 21  1  0
 27 26  1  0
 28 24  1  0
 29 26  2  0
M  END
$$$$
