NRE.pdb
     RDKit          3D

 29 28  0  0  1  0  0  0  0  0999 V2000
   22.8578  -26.1372  -17.0177 N   0  0  0  0  0  0  0  0  0  0  0  0
   21.9083  -25.7471  -16.0371 C   0  0  0  0  0  0  0  0  0  0  0  0
   20.8431  -26.3624  -15.9044 O   0  0  0  0  0  0  0  0  0  0  0  0
   22.2084  -24.5864  -15.1674 C   0  0  0  0  0  0  0  0  0  0  0  0
   21.4286  -23.3912  -15.6225 C   0  0  2  0  0  0  0  0  0  0  0  0
   22.3652  -22.2992  -15.8206 N   0  0  0  0  0  0  0  0  0  0  0  0
   20.4424  -23.0029  -14.5547 C   0  0  0  0  0  0  0  0  0  0  0  0
   20.0528  -21.8133  -14.4309 O   0  0  0  0  0  0  0  0  0  0  0  0
   13.7725  -20.2492  -13.1417 N   0  0  0  0  0  0  0  0  0  0  0  0
   14.6688  -20.2567  -14.2447 C   0  0  0  0  0  0  0  0  0  0  0  0
   14.6872  -19.2388  -15.0444 N   0  0  0  0  0  0  0  0  0  0  0  0
   15.5506  -21.3250  -14.5203 N   0  0  0  0  0  0  0  0  0  0  0  0
   15.3829  -22.6119  -13.9115 C   0  0  0  0  0  0  0  0  0  0  0  0
   16.4218  -22.8744  -12.8326 C   0  0  0  0  0  0  0  0  0  0  0  0
   17.6955  -23.1772  -13.5774 C   0  0  0  0  0  0  0  0  0  0  0  0
   18.8633  -23.5468  -12.6995 C   0  0  2  0  0  0  0  0  0  0  0  0
   19.9134  -23.9491  -13.6498 N   0  0  0  0  0  0  0  0  0  0  0  0
   18.4952  -24.6698  -11.8228 C   0  0  0  0  0  0  0  0  0  0  0  0
   18.1355  -25.7825  -12.2390 O   0  0  0  0  0  0  0  0  0  0  0  0
   15.3333  -19.2013  -15.8578 N   0  0  0  0  0  0  0  0  0  0  0  0
   18.5408  -24.5116  -10.4073 C   0  0  2  0  0  0  0  0  0  0  0  0
   18.2714  -25.6441   -9.4981 C   0  0  0  0  0  0  0  0  0  0  0  0
   18.4829  -25.0903   -8.1187 C   0  0  0  0  0  0  0  0  0  0  0  0
   18.3005  -26.0452   -7.0005 C   0  0  0  0  0  0  0  0  0  0  0  0
   18.5291  -25.4468   -5.6747 O   0  0  0  0  0  0  0  0  0  0  0  0
   18.4667  -26.0921   -4.6067 C   0  0  0  0  0  0  0  0  0  0  0  0
   16.8841  -26.0754   -9.7335 O   0  0  0  0  0  0  0  0  0  0  0  0
   16.5009  -27.3995   -9.6266 O   0  0  0  0  0  0  0  0  0  0  0  0
   18.8343  -24.0897   -5.5583 O   0  0  0  0  0  0  0  0  0  0  0  0
  2  1  1  0
  2  3  2  0
  4  5  1  0
  4  2  1  0
  5  7  1  0
  5  6  1  1
  7  8  2  0
 10  9  1  0
 11 10  2  0
 12 10  1  0
 13 14  1  0
 13 12  1  0
 16 15  1  6
 15 14  1  0
 16 17  1  0
 17  7  1  0
 18 19  2  0
 18 16  1  0
 20 18  1  0
 21 22  1  1
 21 20  1  0
 22 23  1  0
 23 24  1  0
 24 25  2  0
 26 21  1  0
 27 26  1  0
 28 24  1  0
 29 26  2  0
M  END
$$$$
