KWA.pdb
     RDKit          3D

 29 30  0  0  1  0  0  0  0  0999 V2000
   28.5897  -21.1269  -14.3687 N   0  0  0  0  0  0  0  0  0  0  0  0
   27.6734  -20.1553  -13.8173 C   0  0  1  0  0  0  0  0  0  0  0  0
   26.8956  -19.3792  -14.8055 C   0  0  0  0  0  0  0  0  0  0  0  0
   27.4122  -18.0638  -15.2368 C   0  0  0  0  0  0  0  0  0  0  0  0
   28.5267  -18.1632  -16.2419 C   0  0  0  0  0  0  0  0  0  0  0  0
   29.0901  -16.7562  -16.4587 C   0  0  0  0  0  0  0  0  0  0  0  0
   30.2092  -16.9173  -17.3776 N   0  0  0  0  0  0  0  0  0  0  0  0
   26.8429  -20.8319  -12.7931 C   0  0  0  0  0  0  0  0  0  0  0  0
   26.3300  -21.9499  -13.0676 O   0  0  0  0  0  0  0  0  0  0  0  0
   26.6509  -20.2015  -11.5313 N   0  0  0  0  0  0  0  0  0  0  0  0
   25.8087  -20.7554  -10.5334 C   0  0  1  0  0  0  0  0  0  0  0  0
   26.1032  -20.3044   -9.1341 C   0  0  0  0  0  0  0  0  0  0  0  0
   27.4323  -20.6237   -8.6396 C   0  0  0  0  0  0  0  0  0  0  0  0
   28.4200  -21.3782   -9.2394 C   0  0  0  0  0  0  0  0  0  0  0  0
   29.4902  -21.4126   -8.4245 N   0  0  0  0  0  0  0  0  0  0  0  0
   29.2025  -20.6908   -7.3109 C   0  0  0  0  0  0  0  0  0  0  0  0
   29.9419  -20.4112   -6.1801 C   0  0  0  0  0  0  0  0  0  0  0  0
   29.4604  -19.6427   -5.1378 C   0  0  0  0  0  0  0  0  0  0  0  0
   28.1776  -19.1402   -5.2515 C   0  0  0  0  0  0  0  0  0  0  0  0
   27.4425  -19.4224   -6.3837 C   0  0  0  0  0  0  0  0  0  0  0  0
   27.9225  -20.1899   -7.4255 C   0  0  0  0  0  0  0  0  0  0  0  0
   24.3899  -20.4202  -10.7905 C   0  0  0  0  0  0  0  0  0  0  0  0
   24.0182  -19.2650  -11.1402 O   0  0  0  0  0  0  0  0  0  0  0  0
   21.9705  -21.9841  -12.4971 C   0  0  0  0  0  0  0  0  0  0  0  0
   22.0925  -21.2189  -11.1919 C   0  0  2  0  0  0  0  0  0  0  0  0
   23.4138  -21.4444  -10.6361 N   0  0  0  0  0  0  0  0  0  0  0  0
   21.0796  -21.6122  -10.2045 C   0  0  0  0  0  0  0  0  0  0  0  0
   21.4366  -22.2778   -9.0580 O   0  0  0  0  0  0  0  0  0  0  0  0
   19.8507  -21.3530  -10.3741 O   0  0  0  0  0  0  0  0  0  0  0  0
  2  1  1  6
  2  3  1  0
  3  4  1  0
  4  5  1  0
  5  6  1  0
  7  6  1  0
  8  9  2  0
  8  2  1  0
 10  8  1  0
 11 22  1  0
 11 10  1  0
 11 12  1  1
 13 12  1  0
 13 21  1  0
 14 15  1  0
 14 13  2  0
 15 16  1  0
 16 17  1  0
 16 21  2  0
 17 18  2  0
 18 19  1  0
 20 19  2  0
 21 20  1  0
 22 23  2  0
 25 24  1  6
 26 25  1  0
 26 22  1  0
 27 25  1  0
 28 27  1  0
 29 27  2  0
M  END
$$$$
