KWA.pdb
     RDKit          3D

 29 30  0  0  1  0  0  0  0  0999 V2000
   28.1612  -21.2863  -15.0552 N   0  0  0  0  0  0  0  0  0  0  0  0
   27.9096  -20.1491  -14.2002 C   0  0  1  0  0  0  0  0  0  0  0  0
   27.3481  -18.9581  -14.8713 C   0  0  0  0  0  0  0  0  0  0  0  0
   27.7086  -18.7053  -16.2817 C   0  0  0  0  0  0  0  0  0  0  0  0
   26.6031  -19.0363  -17.2464 C   0  0  0  0  0  0  0  0  0  0  0  0
   27.0360  -18.5628  -18.6366 C   0  0  0  0  0  0  0  0  0  0  0  0
   25.9668  -18.9660  -19.5406 N   0  0  0  0  0  0  0  0  0  0  0  0
   27.1206  -20.6124  -13.0343 C   0  0  0  0  0  0  0  0  0  0  0  0
   26.4081  -21.6451  -13.1538 O   0  0  0  0  0  0  0  0  0  0  0  0
   27.1921  -19.8802  -11.8156 N   0  0  0  0  0  0  0  0  0  0  0  0
   26.5315  -20.3131  -10.6375 C   0  0  1  0  0  0  0  0  0  0  0  0
   26.9444  -19.6037   -9.3827 C   0  0  0  0  0  0  0  0  0  0  0  0
   26.5449  -20.2441   -8.1405 C   0  0  0  0  0  0  0  0  0  0  0  0
   25.5030  -21.1207   -7.9155 C   0  0  0  0  0  0  0  0  0  0  0  0
   25.5021  -21.4637   -6.6144 N   0  0  0  0  0  0  0  0  0  0  0  0
   26.5287  -20.8194   -6.0022 C   0  0  0  0  0  0  0  0  0  0  0  0
   26.9652  -20.8211   -4.6933 C   0  0  0  0  0  0  0  0  0  0  0  0
   28.0504  -20.0830   -4.2616 C   0  0  0  0  0  0  0  0  0  0  0  0
   28.7160  -19.3143   -5.1981 C   0  0  0  0  0  0  0  0  0  0  0  0
   28.2759  -19.3160   -6.5051 C   0  0  0  0  0  0  0  0  0  0  0  0
   27.1920  -20.0529   -6.9375 C   0  0  0  0  0  0  0  0  0  0  0  0
   25.0665  -20.1358  -10.7548 C   0  0  0  0  0  0  0  0  0  0  0  0
   24.5163  -18.9993  -10.7287 O   0  0  0  0  0  0  0  0  0  0  0  0
   22.5004  -22.2987  -12.2276 C   0  0  0  0  0  0  0  0  0  0  0  0
   22.8867  -21.1182  -11.3550 C   0  0  2  0  0  0  0  0  0  0  0  0
   24.2542  -21.2950  -10.9030 N   0  0  0  0  0  0  0  0  0  0  0  0
   22.0089  -20.9611  -10.1886 C   0  0  0  0  0  0  0  0  0  0  0  0
   20.6768  -20.6689  -10.3456 O   0  0  0  0  0  0  0  0  0  0  0  0
   22.4463  -21.0892   -9.0060 O   0  0  0  0  0  0  0  0  0  0  0  0
  2  1  1  6
  2  3  1  0
  3  4  1  0
  4  5  1  0
  5  6  1  0
  7  6  1  0
  8  9  2  0
  8  2  1  0
 10  8  1  0
 11 22  1  0
 11 10  1  0
 11 12  1  1
 13 12  1  0
 13 21  1  0
 14 15  1  0
 14 13  2  0
 15 16  1  0
 16 17  1  0
 16 21  2  0
 17 18  2  0
 18 19  1  0
 20 19  2  0
 21 20  1  0
 22 23  2  0
 25 24  1  1
 26 25  1  0
 26 22  1  0
 27 25  1  0
 28 27  1  0
 29 27  2  0
M  END
$$$$
