KWA.pdb
     RDKit          3D

 29 30  0  0  1  0  0  0  0  0999 V2000
   27.7309  -21.6144  -15.2122 N   0  0  0  0  0  0  0  0  0  0  0  0
   28.2055  -20.7901  -14.1244 C   0  0  1  0  0  0  0  0  0  0  0  0
   28.3864  -19.3580  -14.4412 C   0  0  0  0  0  0  0  0  0  0  0  0
   27.7474  -18.8165  -15.6583 C   0  0  0  0  0  0  0  0  0  0  0  0
   26.7240  -17.7528  -15.3695 C   0  0  0  0  0  0  0  0  0  0  0  0
   27.1277  -16.4920  -16.1386 C   0  0  0  0  0  0  0  0  0  0  0  0
   26.3989  -16.5493  -17.3990 N   0  0  0  0  0  0  0  0  0  0  0  0
   27.3462  -21.0427  -12.9436 C   0  0  0  0  0  0  0  0  0  0  0  0
   26.2674  -21.6750  -13.1007 O   0  0  0  0  0  0  0  0  0  0  0  0
   27.7648  -20.5668  -11.6690 N   0  0  0  0  0  0  0  0  0  0  0  0
   26.9721  -20.7356  -10.5049 C   0  0  1  0  0  0  0  0  0  0  0  0
   27.6432  -20.3510   -9.2204 C   0  0  0  0  0  0  0  0  0  0  0  0
   26.8437  -20.5256   -8.0191 C   0  0  0  0  0  0  0  0  0  0  0  0
   25.5655  -21.0314   -7.8968 C   0  0  0  0  0  0  0  0  0  0  0  0
   25.2163  -21.0100   -6.5976 N   0  0  0  0  0  0  0  0  0  0  0  0
   26.2525  -20.4976   -5.8852 C   0  0  0  0  0  0  0  0  0  0  0  0
   26.4127  -20.2618   -4.5352 C   0  0  0  0  0  0  0  0  0  0  0  0
   27.5658  -19.7236   -3.9975 C   0  0  0  0  0  0  0  0  0  0  0  0
   28.5946  -19.4136   -4.8673 C   0  0  0  0  0  0  0  0  0  0  0  0
   28.4298  -19.6511   -6.2158 C   0  0  0  0  0  0  0  0  0  0  0  0
   27.2783  -20.1888   -6.7541 C   0  0  0  0  0  0  0  0  0  0  0  0
   25.7322  -19.9310  -10.5858 C   0  0  0  0  0  0  0  0  0  0  0  0
   25.7453  -18.6796  -10.7554 O   0  0  0  0  0  0  0  0  0  0  0  0
   23.4600  -19.7100  -12.4678 C   0  0  0  0  0  0  0  0  0  0  0  0
   23.2980  -19.9324  -10.9750 C   0  0  2  0  0  0  0  0  0  0  0  0
   24.4819  -20.6006  -10.4677 N   0  0  0  0  0  0  0  0  0  0  0  0
   22.1125  -20.7327  -10.6439 C   0  0  0  0  0  0  0  0  0  0  0  0
   20.8496  -20.2216  -10.8131 O   0  0  0  0  0  0  0  0  0  0  0  0
   22.2124  -21.9136  -10.1947 O   0  0  0  0  0  0  0  0  0  0  0  0
  2  1  1  6
  2  3  1  0
  3  4  1  0
  4  5  1  0
  5  6  1  0
  7  6  1  0
  8  9  2  0
  8  2  1  0
 10  8  1  0
 11 22  1  0
 11 10  1  0
 11 12  1  1
 13 12  1  0
 13 21  1  0
 14 15  1  0
 14 13  2  0
 15 16  1  0
 16 17  1  0
 16 21  2  0
 17 18  2  0
 18 19  1  0
 20 19  2  0
 21 20  1  0
 22 23  2  0
 25 24  1  6
 26 25  1  0
 26 22  1  0
 27 25  1  0
 28 27  1  0
 29 27  2  0
M  END
$$$$
