KWA.pdb
     RDKit          3D

 29 30  0  0  1  0  0  0  0  0999 V2000
   26.8460  -19.3424  -14.2080 N   0  0  0  0  0  0  0  0  0  0  0  0
   26.8646  -20.7800  -14.3523 C   0  0  1  0  0  0  0  0  0  0  0  0
   28.1690  -21.3671  -14.7234 C   0  0  0  0  0  0  0  0  0  0  0  0
   28.8073  -20.9330  -15.9832 C   0  0  0  0  0  0  0  0  0  0  0  0
   28.5905  -21.8924  -17.1210 C   0  0  0  0  0  0  0  0  0  0  0  0
   29.7356  -22.9085  -17.1029 C   0  0  0  0  0  0  0  0  0  0  0  0
   29.5111  -23.7755  -18.2522 N   0  0  0  0  0  0  0  0  0  0  0  0
   26.2593  -21.3748  -13.1372 C   0  0  0  0  0  0  0  0  0  0  0  0
   26.1614  -22.6288  -13.0582 O   0  0  0  0  0  0  0  0  0  0  0  0
   25.8092  -20.5142  -12.0964 N   0  0  0  0  0  0  0  0  0  0  0  0
   25.1973  -21.0139  -10.9184 C   0  0  1  0  0  0  0  0  0  0  0  0
   25.6890  -20.4021   -9.6408 C   0  0  0  0  0  0  0  0  0  0  0  0
   27.0685  -20.7008   -9.2935 C   0  0  0  0  0  0  0  0  0  0  0  0
   28.0083  -21.4083  -10.0150 C   0  0  0  0  0  0  0  0  0  0  0  0
   29.1559  -21.4396   -9.3132 N   0  0  0  0  0  0  0  0  0  0  0  0
   28.9651  -20.7623   -8.1520 C   0  0  0  0  0  0  0  0  0  0  0  0
   29.8081  -20.4991   -7.0919 C   0  0  0  0  0  0  0  0  0  0  0  0
   29.4161  -19.7780   -5.9805 C   0  0  0  0  0  0  0  0  0  0  0  0
   28.1168  -19.3073   -5.9475 C   0  0  0  0  0  0  0  0  0  0  0  0
   27.2779  -19.5729   -7.0095 C   0  0  0  0  0  0  0  0  0  0  0  0
   27.6684  -20.2931   -8.1202 C   0  0  0  0  0  0  0  0  0  0  0  0
   23.7331  -20.7982  -10.9484 C   0  0  0  0  0  0  0  0  0  0  0  0
   23.0047  -20.9437   -9.9270 O   0  0  0  0  0  0  0  0  0  0  0  0
   21.3927  -19.2661  -13.4049 C   0  0  0  0  0  0  0  0  0  0  0  0
   21.7137  -20.1005  -12.1781 C   0  0  2  0  0  0  0  0  0  0  0  0
   23.1310  -20.4119  -12.1787 N   0  0  0  0  0  0  0  0  0  0  0  0
   20.9447  -21.3499  -12.1222 C   0  0  0  0  0  0  0  0  0  0  0  0
   19.6857  -21.3767  -11.5755 O   0  0  0  0  0  0  0  0  0  0  0  0
   21.4119  -22.4383  -12.5732 O   0  0  0  0  0  0  0  0  0  0  0  0
  2  1  1  1
  2  3  1  0
  3  4  1  0
  4  5  1  0
  5  6  1  0
  7  6  1  0
  8  9  2  0
  8  2  1  0
 10  8  1  0
 11 22  1  0
 11 10  1  0
 11 12  1  1
 13 12  1  0
 13 21  1  0
 14 15  1  0
 14 13  2  0
 15 16  1  0
 16 17  1  0
 16 21  2  0
 17 18  2  0
 18 19  1  0
 20 19  2  0
 21 20  1  0
 22 23  2  0
 25 24  1  6
 26 25  1  0
 26 22  1  0
 27 25  1  0
 28 27  1  0
 29 27  2  0
M  END
$$$$
