KWA.pdb
     RDKit          3D

 29 30  0  0  1  0  0  0  0  0999 V2000
   29.5705  -22.4833  -14.5086 N   0  0  0  0  0  0  0  0  0  0  0  0
   28.4192  -21.6420  -14.7424 C   0  0  1  0  0  0  0  0  0  0  0  0
   27.7057  -21.8764  -16.0151 C   0  0  0  0  0  0  0  0  0  0  0  0
   28.0854  -21.0749  -17.1969 C   0  0  0  0  0  0  0  0  0  0  0  0
   27.7780  -19.6104  -17.0457 C   0  0  0  0  0  0  0  0  0  0  0  0
   27.5300  -19.0361  -18.4431 C   0  0  0  0  0  0  0  0  0  0  0  0
   26.0929  -19.1368  -18.6610 N   0  0  0  0  0  0  0  0  0  0  0  0
   27.5501  -21.7037  -13.5435 C   0  0  0  0  0  0  0  0  0  0  0  0
   26.4038  -22.2168  -13.6492 O   0  0  0  0  0  0  0  0  0  0  0  0
   28.0351  -21.1846  -12.3100 N   0  0  0  0  0  0  0  0  0  0  0  0
   27.2355  -21.1562  -11.1388 C   0  0  1  0  0  0  0  0  0  0  0  0
   27.8303  -20.4076   -9.9837 C   0  0  0  0  0  0  0  0  0  0  0  0
   27.0345  -20.3970   -8.7675 C   0  0  0  0  0  0  0  0  0  0  0  0
   25.6825  -20.6290   -8.6166 C   0  0  0  0  0  0  0  0  0  0  0  0
   25.3692  -20.5170   -7.3128 N   0  0  0  0  0  0  0  0  0  0  0  0
   26.5012  -20.2165   -6.6258 C   0  0  0  0  0  0  0  0  0  0  0  0
   26.7312  -19.9981   -5.2830 C   0  0  0  0  0  0  0  0  0  0  0  0
   27.9797  -19.6988   -4.7728 C   0  0  0  0  0  0  0  0  0  0  0  0
   29.0337  -19.6189   -5.6637 C   0  0  0  0  0  0  0  0  0  0  0  0
   28.7989  -19.8380   -7.0049 C   0  0  0  0  0  0  0  0  0  0  0  0
   27.5521  -20.1370   -7.5157 C   0  0  0  0  0  0  0  0  0  0  0  0
   25.9208  -20.5318  -11.4088 C   0  0  0  0  0  0  0  0  0  0  0  0
   25.7890  -19.2946  -11.6258 O   0  0  0  0  0  0  0  0  0  0  0  0
   22.8717  -21.8194  -12.8518 C   0  0  0  0  0  0  0  0  0  0  0  0
   23.5274  -20.8056  -11.9317 C   0  0  2  0  0  0  0  0  0  0  0  0
   24.7664  -21.3641  -11.4233 N   0  0  0  0  0  0  0  0  0  0  0  0
   22.6704  -20.4238  -10.8024 C   0  0  0  0  0  0  0  0  0  0  0  0
   21.6872  -19.4778  -10.9543 O   0  0  0  0  0  0  0  0  0  0  0  0
   22.8067  -20.9499   -9.6575 O   0  0  0  0  0  0  0  0  0  0  0  0
  2  1  1  1
  2  3  1  0
  3  4  1  0
  4  5  1  0
  5  6  1  0
  7  6  1  0
  8  9  2  0
  8  2  1  0
 10  8  1  0
 11 22  1  0
 11 10  1  0
 11 12  1  1
 13 12  1  0
 13 21  1  0
 14 15  1  0
 14 13  2  0
 15 16  1  0
 16 17  1  0
 16 21  2  0
 17 18  2  0
 18 19  1  0
 20 19  2  0
 21 20  1  0
 22 23  2  0
 25 24  1  6
 26 25  1  0
 26 22  1  0
 27 25  1  0
 28 27  1  0
 29 27  2  0
M  END
$$$$
