KWA.pdb
     RDKit          3D

 29 30  0  0  1  0  0  0  0  0999 V2000
   32.9571  -32.4588  -15.8444 N   0  0  0  0  0  0  0  0  0  0  0  0
   31.8940  -32.6158  -16.8103 C   0  0  1  0  0  0  0  0  0  0  0  0
   31.7534  -33.9679  -17.3901 C   0  0  0  0  0  0  0  0  0  0  0  0
   32.8748  -34.5199  -18.1780 C   0  0  0  0  0  0  0  0  0  0  0  0
   32.9304  -33.9904  -19.5847 C   0  0  0  0  0  0  0  0  0  0  0  0
   34.0244  -34.7577  -20.3321 C   0  0  0  0  0  0  0  0  0  0  0  0
   34.0039  -34.2446  -21.6956 N   0  0  0  0  0  0  0  0  0  0  0  0
   30.6460  -32.0818  -16.2156 C   0  0  0  0  0  0  0  0  0  0  0  0
   30.4382  -32.2514  -14.9842 O   0  0  0  0  0  0  0  0  0  0  0  0
   29.7216  -31.3927  -17.0504 N   0  0  0  0  0  0  0  0  0  0  0  0
   28.4903  -30.8908  -16.5564 C   0  0  1  0  0  0  0  0  0  0  0  0
   27.8843  -29.7866  -17.3698 C   0  0  0  0  0  0  0  0  0  0  0  0
   28.5817  -28.5124  -17.3146 C   0  0  0  0  0  0  0  0  0  0  0  0
   29.9322  -28.2594  -17.4431 C   0  0  0  0  0  0  0  0  0  0  0  0
   30.1352  -26.9345  -17.3256 N   0  0  0  0  0  0  0  0  0  0  0  0
   28.9340  -26.3346  -17.1235 C   0  0  0  0  0  0  0  0  0  0  0  0
   28.5858  -25.0118  -16.9426 C   0  0  0  0  0  0  0  0  0  0  0  0
   27.2823  -24.5972  -16.7482 C   0  0  0  0  0  0  0  0  0  0  0  0
   26.2964  -25.5662  -16.7378 C   0  0  0  0  0  0  0  0  0  0  0  0
   26.6494  -26.8869  -16.9191 C   0  0  0  0  0  0  0  0  0  0  0  0
   27.9512  -27.3023  -17.1133 C   0  0  0  0  0  0  0  0  0  0  0  0
   27.4719  -31.9625  -16.4823 C   0  0  0  0  0  0  0  0  0  0  0  0
   27.2991  -32.7997  -17.4119 O   0  0  0  0  0  0  0  0  0  0  0  0
   25.8374  -33.8043  -13.8775 C   0  0  0  0  0  0  0  0  0  0  0  0
   25.6974  -33.1276  -15.2290 C   0  0  2  0  0  0  0  0  0  0  0  0
   26.6610  -32.0461  -15.3157 N   0  0  0  0  0  0  0  0  0  0  0  0
   24.3497  -32.5935  -15.4614 C   0  0  0  0  0  0  0  0  0  0  0  0
   23.3112  -32.9170  -14.6238 O   0  0  0  0  0  0  0  0  0  0  0  0
   24.0999  -31.8212  -16.4347 O   0  0  0  0  0  0  0  0  0  0  0  0
  2  1  1  1
  2  3  1  0
  3  4  1  0
  4  5  1  0
  5  6  1  0
  7  6  1  0
  8  9  2  0
  8  2  1  0
 10  8  1  0
 11 22  1  0
 11 10  1  0
 11 12  1  6
 13 12  1  0
 13 21  1  0
 14 15  1  0
 14 13  2  0
 15 16  1  0
 16 17  1  0
 16 21  2  0
 17 18  2  0
 18 19  1  0
 20 19  2  0
 21 20  1  0
 22 23  2  0
 25 24  1  1
 26 25  1  0
 26 22  1  0
 27 25  1  0
 28 27  1  0
 29 27  2  0
M  END
$$$$
