KWA.pdb
     RDKit          3D

 29 30  0  0  1  0  0  0  0  0999 V2000
   28.4051  -22.2643  -15.5799 N   0  0  0  0  0  0  0  0  0  0  0  0
   27.7780  -21.0809  -15.0376 C   0  0  1  0  0  0  0  0  0  0  0  0
   27.1707  -20.1691  -16.0295 C   0  0  0  0  0  0  0  0  0  0  0  0
   28.0370  -19.5774  -17.0699 C   0  0  0  0  0  0  0  0  0  0  0  0
   28.1968  -20.4554  -18.2806 C   0  0  0  0  0  0  0  0  0  0  0  0
   29.0185  -19.6825  -19.3157 C   0  0  0  0  0  0  0  0  0  0  0  0
   30.4134  -19.9177  -18.9666 N   0  0  0  0  0  0  0  0  0  0  0  0
   26.8529  -21.5007  -13.9586 C   0  0  0  0  0  0  0  0  0  0  0  0
   26.2625  -22.6095  -14.0610 O   0  0  0  0  0  0  0  0  0  0  0  0
   26.6602  -20.6422  -12.8396 N   0  0  0  0  0  0  0  0  0  0  0  0
   25.7543  -20.9587  -11.7950 C   0  0  1  0  0  0  0  0  0  0  0  0
   26.0453  -20.2962  -10.4818 C   0  0  0  0  0  0  0  0  0  0  0  0
   27.3099  -20.6587   -9.8638 C   0  0  0  0  0  0  0  0  0  0  0  0
   28.3260  -21.4440  -10.3694 C   0  0  0  0  0  0  0  0  0  0  0  0
   29.3115  -21.5137   -9.4560 N   0  0  0  0  0  0  0  0  0  0  0  0
   28.9417  -20.7844   -8.3720 C   0  0  0  0  0  0  0  0  0  0  0  0
   29.5780  -20.5299   -7.1744 C   0  0  0  0  0  0  0  0  0  0  0  0
   29.0237  -19.7476   -6.1798 C   0  0  0  0  0  0  0  0  0  0  0  0
   27.7744  -19.2038   -6.4136 C   0  0  0  0  0  0  0  0  0  0  0  0
   27.1424  -19.4610   -7.6122 C   0  0  0  0  0  0  0  0  0  0  0  0
   27.6953  -20.2423   -8.6065 C   0  0  0  0  0  0  0  0  0  0  0  0
   24.3710  -20.5768  -12.1583 C   0  0  0  0  0  0  0  0  0  0  0  0
   24.0221  -19.3755  -12.3313 O   0  0  0  0  0  0  0  0  0  0  0  0
   21.5895  -22.2854  -13.7624 C   0  0  0  0  0  0  0  0  0  0  0  0
   22.0787  -21.2381  -12.7786 C   0  0  2  0  0  0  0  0  0  0  0  0
   23.4036  -21.6085  -12.3172 N   0  0  0  0  0  0  0  0  0  0  0  0
   21.1892  -21.0853  -11.6206 C   0  0  0  0  0  0  0  0  0  0  0  0
   20.0664  -20.2988  -11.6954 O   0  0  0  0  0  0  0  0  0  0  0  0
   21.4242  -21.6695  -10.5207 O   0  0  0  0  0  0  0  0  0  0  0  0
  2  1  1  6
  2  3  1  0
  3  4  1  0
  4  5  1  0
  5  6  1  0
  7  6  1  0
  8  9  2  0
  8  2  1  0
 10  8  1  0
 11 22  1  0
 11 10  1  0
 11 12  1  1
 13 12  1  0
 13 21  1  0
 14 15  1  0
 14 13  2  0
 15 16  1  0
 16 17  1  0
 16 21  2  0
 17 18  2  0
 18 19  1  0
 20 19  2  0
 21 20  1  0
 22 23  2  0
 25 24  1  6
 26 25  1  0
 26 22  1  0
 27 25  1  0
 28 27  1  0
 29 27  2  0
M  END
$$$$
