KWA.pdb
     RDKit          3D

 29 30  0  0  1  0  0  0  0  0999 V2000
   29.3225  -23.4402  -16.3575 N   0  0  0  0  0  0  0  0  0  0  0  0
   28.0597  -23.7056  -17.0076 C   0  0  1  0  0  0  0  0  0  0  0  0
   27.5501  -25.0862  -16.8722 C   0  0  0  0  0  0  0  0  0  0  0  0
   28.4833  -26.2097  -17.0953 C   0  0  0  0  0  0  0  0  0  0  0  0
   27.8373  -27.5591  -16.9402 C   0  0  0  0  0  0  0  0  0  0  0  0
   28.9188  -28.6235  -17.1436 C   0  0  0  0  0  0  0  0  0  0  0  0
   28.2330  -29.9053  -17.0471 N   0  0  0  0  0  0  0  0  0  0  0  0
   27.0945  -22.6626  -16.5870 C   0  0  0  0  0  0  0  0  0  0  0  0
   27.0721  -22.3068  -15.3782 O   0  0  0  0  0  0  0  0  0  0  0  0
   26.2244  -22.0929  -17.5590 N   0  0  0  0  0  0  0  0  0  0  0  0
   25.2615  -21.1074  -17.2219 C   0  0  1  0  0  0  0  0  0  0  0  0
   25.0040  -20.0831  -18.2862 C   0  0  0  0  0  0  0  0  0  0  0  0
   23.9809  -19.0990  -17.9743 C   0  0  0  0  0  0  0  0  0  0  0  0
   24.0003  -18.1047  -17.0175 C   0  0  0  0  0  0  0  0  0  0  0  0
   22.8404  -17.4255  -17.0786 N   0  0  0  0  0  0  0  0  0  0  0  0
   22.0777  -17.9703  -18.0611 C   0  0  0  0  0  0  0  0  0  0  0  0
   20.8184  -17.6553  -18.5288 C   0  0  0  0  0  0  0  0  0  0  0  0
   20.2043  -18.3439  -19.5571 C   0  0  0  0  0  0  0  0  0  0  0  0
   20.8987  -19.3926  -20.1307 C   0  0  0  0  0  0  0  0  0  0  0  0
   22.1571  -19.7035  -19.6598 C   0  0  0  0  0  0  0  0  0  0  0  0
   22.7716  -19.0164  -18.6326 C   0  0  0  0  0  0  0  0  0  0  0  0
   23.9532  -21.7273  -16.9134 C   0  0  0  0  0  0  0  0  0  0  0  0
   23.4881  -22.6960  -17.5769 O   0  0  0  0  0  0  0  0  0  0  0  0
   22.0366  -23.0603  -14.7988 C   0  0  0  0  0  0  0  0  0  0  0  0
   21.8817  -21.7667  -15.5777 C   0  0  2  0  0  0  0  0  0  0  0  0
   23.1971  -21.2066  -15.8259 N   0  0  0  0  0  0  0  0  0  0  0  0
   21.0588  -20.7741  -14.8751 C   0  0  0  0  0  0  0  0  0  0  0  0
   21.5970  -19.5808  -14.4615 O   0  0  0  0  0  0  0  0  0  0  0  0
   19.8333  -20.9822  -14.6283 O   0  0  0  0  0  0  0  0  0  0  0  0
  2  1  1  1
  2  3  1  0
  3  4  1  0
  4  5  1  0
  5  6  1  0
  7  6  1  0
  8  9  2  0
  8  2  1  0
 10  8  1  0
 11 22  1  0
 11 10  1  0
 11 12  1  6
 13 12  1  0
 13 21  1  0
 14 15  1  0
 14 13  2  0
 15 16  1  0
 16 17  1  0
 16 21  2  0
 17 18  2  0
 18 19  1  0
 20 19  2  0
 21 20  1  0
 22 23  2  0
 25 24  1  1
 26 25  1  0
 26 22  1  0
 27 25  1  0
 28 27  1  0
 29 27  2  0
M  END
$$$$
