KWA.pdb
     RDKit          3D

 29 30  0  0  1  0  0  0  0  0999 V2000
   28.9453  -22.3897  -15.1075 N   0  0  0  0  0  0  0  0  0  0  0  0
   27.7044  -21.7217  -15.4265 C   0  0  1  0  0  0  0  0  0  0  0  0
   27.1423  -22.0228  -16.7597 C   0  0  0  0  0  0  0  0  0  0  0  0
   27.9777  -21.7730  -17.9525 C   0  0  0  0  0  0  0  0  0  0  0  0
   29.3751  -22.3142  -17.8236 C   0  0  0  0  0  0  0  0  0  0  0  0
   30.1182  -22.0104  -19.1273 C   0  0  0  0  0  0  0  0  0  0  0  0
   30.4357  -20.5893  -19.0778 N   0  0  0  0  0  0  0  0  0  0  0  0
   26.7578  -21.9452  -14.3084 C   0  0  0  0  0  0  0  0  0  0  0  0
   26.1563  -23.0502  -14.2325 O   0  0  0  0  0  0  0  0  0  0  0  0
   26.5576  -20.9085  -13.3537 N   0  0  0  0  0  0  0  0  0  0  0  0
   25.6915  -21.0662  -12.2415 C   0  0  1  0  0  0  0  0  0  0  0  0
   26.1000  -20.3160  -11.0092 C   0  0  0  0  0  0  0  0  0  0  0  0
   27.3469  -20.7459  -10.3984 C   0  0  0  0  0  0  0  0  0  0  0  0
   28.3692  -21.4902  -10.9511 C   0  0  0  0  0  0  0  0  0  0  0  0
   29.3321  -21.6535  -10.0256 N   0  0  0  0  0  0  0  0  0  0  0  0
   28.9415  -21.0245   -8.8874 C   0  0  0  0  0  0  0  0  0  0  0  0
   29.5506  -20.8882   -7.6569 C   0  0  0  0  0  0  0  0  0  0  0  0
   28.9782  -20.1964   -6.6069 C   0  0  0  0  0  0  0  0  0  0  0  0
   27.7387  -19.6218   -6.8181 C   0  0  0  0  0  0  0  0  0  0  0  0
   27.1339  -19.7607   -8.0497 C   0  0  0  0  0  0  0  0  0  0  0  0
   27.7049  -20.4516   -9.0992 C   0  0  0  0  0  0  0  0  0  0  0  0
   24.3198  -20.6165  -12.5690 C   0  0  0  0  0  0  0  0  0  0  0  0
   24.0697  -19.4519  -12.9888 O   0  0  0  0  0  0  0  0  0  0  0  0
   21.2914  -22.3231  -13.5830 C   0  0  0  0  0  0  0  0  0  0  0  0
   21.9310  -21.1456  -12.8698 C   0  0  2  0  0  0  0  0  0  0  0  0
   23.2476  -21.5375  -12.4024 N   0  0  0  0  0  0  0  0  0  0  0  0
   21.1360  -20.6698  -11.7308 C   0  0  0  0  0  0  0  0  0  0  0  0
   19.9376  -20.0299  -11.9284 O   0  0  0  0  0  0  0  0  0  0  0  0
   21.5246  -20.8320  -10.5355 O   0  0  0  0  0  0  0  0  0  0  0  0
  2  1  1  1
  2  3  1  0
  3  4  1  0
  4  5  1  0
  5  6  1  0
  7  6  1  0
  8  9  2  0
  8  2  1  0
 10  8  1  0
 11 22  1  0
 11 10  1  0
 11 12  1  1
 13 12  1  0
 13 21  1  0
 14 15  1  0
 14 13  2  0
 15 16  1  0
 16 17  1  0
 16 21  2  0
 17 18  2  0
 18 19  1  0
 20 19  2  0
 21 20  1  0
 22 23  2  0
 25 24  1  1
 26 25  1  0
 26 22  1  0
 27 25  1  0
 28 27  1  0
 29 27  2  0
M  END
$$$$
