DVR.pdb
     RDKit          3D

 27 26  0  0  1  0  0  0  0  0999 V2000
   12.4042  -11.4868  -10.6021 N   0  0  0  0  0  0  0  0  0  0  0  0
   13.8170  -11.1634  -10.6380 C   0  0  1  0  0  0  0  0  0  0  0  0
   14.5113  -11.9395  -11.7386 C   0  0  0  0  0  0  0  0  0  0  0  0
   14.5450  -13.3833  -11.4685 C   0  0  0  0  0  0  0  0  0  0  0  0
   13.9648  -13.8335  -10.4541 O   0  0  0  0  0  0  0  0  0  0  0  0
   14.0066   -9.7069  -10.9828 C   0  0  0  0  0  0  0  0  0  0  0  0
   13.3623   -9.1729  -11.9178 O   0  0  0  0  0  0  0  0  0  0  0  0
   15.1989  -14.2682  -12.3005 O   0  0  0  0  0  0  0  0  0  0  0  0
   13.3179   -6.8302   -8.7371 C   0  0  0  0  0  0  0  0  0  0  0  0
   14.7501   -6.7700   -9.1475 C   0  0  1  0  0  0  0  0  0  0  0  0
   15.7392   -7.1508   -8.1015 C   0  0  0  0  0  0  0  0  0  0  0  0
   15.0444   -7.4496  -10.4636 C   0  0  2  0  0  0  0  0  0  0  0  0
   14.9288   -8.9039  -10.2456 N   0  0  0  0  0  0  0  0  0  0  0  0
   16.3620   -7.1877  -11.0225 C   0  0  0  0  0  0  0  0  0  0  0  0
   17.3937   -7.4736  -10.3228 O   0  0  0  0  0  0  0  0  0  0  0  0
   18.1666  -10.4902  -17.8707 N   0  0  0  0  0  0  0  0  0  0  0  0
   17.5540  -11.1717  -16.7864 C   0  0  0  0  0  0  0  0  0  0  0  0
   17.0940  -12.3664  -16.9539 N   0  0  0  0  0  0  0  0  0  0  0  0
   17.4613  -10.5226  -15.5383 N   0  0  0  0  0  0  0  0  0  0  0  0
   17.9508   -9.1680  -15.4594 C   0  0  0  0  0  0  0  0  0  0  0  0
   17.8028   -8.5545  -14.0973 C   0  0  0  0  0  0  0  0  0  0  0  0
   18.1810   -7.0907  -14.1487 C   0  0  0  0  0  0  0  0  0  0  0  0
   17.9983   -6.4630  -12.7740 C   0  0  2  0  0  0  0  0  0  0  0  0
   16.6477   -6.6319  -12.2988 N   0  0  0  0  0  0  0  0  0  0  0  0
   18.3239   -5.0218  -12.7910 C   0  0  0  0  0  0  0  0  0  0  0  0
   17.4104   -4.1808  -12.6715 O   0  0  0  0  0  0  0  0  0  0  0  0
   19.6247   -4.5813  -12.9366 O   0  0  0  0  0  0  0  0  0  0  0  0
  2  1  1  6
  3  2  1  0
  4  3  1  0
  5  4  2  0
  6  7  2  0
  6  2  1  0
  8  4  1  0
 10  9  1  1
 10 11  1  0
 12 13  1  1
 12 10  1  0
 13  6  1  0
 14 12  1  0
 15 14  2  0
 17 19  1  0
 17 16  1  0
 18 17  2  0
 20 19  1  0
 21 20  1  0
 22 21  1  0
 23 22  1  6
 23 24  1  0
 24 14  1  0
 25 27  1  0
 25 23  1  0
 26 25  2  0
M  END
$$$$
