DVR.pdb
     RDKit          3D

 27 26  0  0  1  0  0  0  0  0999 V2000
   29.8613  -23.4039  -16.8038 N   0  0  0  0  0  0  0  0  0  0  0  0
   28.6504  -22.8050  -17.3301 C   0  0  1  0  0  0  0  0  0  0  0  0
   27.5642  -23.8503  -17.4823 C   0  0  0  0  0  0  0  0  0  0  0  0
   27.8690  -24.8231  -18.5403 C   0  0  0  0  0  0  0  0  0  0  0  0
   27.8224  -26.0477  -18.2826 O   0  0  0  0  0  0  0  0  0  0  0  0
   28.1076  -21.7906  -16.3542 C   0  0  0  0  0  0  0  0  0  0  0  0
   28.1625  -21.9879  -15.1163 O   0  0  0  0  0  0  0  0  0  0  0  0
   28.2077  -24.4313  -19.8188 O   0  0  0  0  0  0  0  0  0  0  0  0
   26.5991  -17.0280  -16.0395 C   0  0  0  0  0  0  0  0  0  0  0  0
   27.2893  -18.1876  -16.6735 C   0  0  1  0  0  0  0  0  0  0  0  0
   28.6971  -17.9500  -17.0965 C   0  0  0  0  0  0  0  0  0  0  0  0
   27.1505  -19.4824  -15.9088 C   0  0  2  0  0  0  0  0  0  0  0  0
   27.5179  -20.5785  -16.8251 N   0  0  0  0  0  0  0  0  0  0  0  0
   25.8203  -19.7638  -15.3906 C   0  0  0  0  0  0  0  0  0  0  0  0
   24.9116  -20.1447  -16.2059 O   0  0  0  0  0  0  0  0  0  0  0  0
   21.9624  -20.6651   -7.5085 N   0  0  0  0  0  0  0  0  0  0  0  0
   21.0513  -21.3356   -8.3662 C   0  0  0  0  0  0  0  0  0  0  0  0
   20.0319  -21.9516   -7.8679 N   0  0  0  0  0  0  0  0  0  0  0  0
   21.2818  -21.3129   -9.7569 N   0  0  0  0  0  0  0  0  0  0  0  0
   22.4809  -20.6569  -10.2180 C   0  0  0  0  0  0  0  0  0  0  0  0
   22.5777  -20.5644  -11.7132 C   0  0  0  0  0  0  0  0  0  0  0  0
   23.9423  -20.0455  -12.1092 C   0  0  0  0  0  0  0  0  0  0  0  0
   24.0608  -20.0133  -13.6265 C   0  0  2  0  0  0  0  0  0  0  0  0
   25.3970  -19.6615  -14.0379 N   0  0  0  0  0  0  0  0  0  0  0  0
   23.1076  -19.0543  -14.2222 C   0  0  0  0  0  0  0  0  0  0  0  0
   23.3974  -17.8418  -14.2660 O   0  0  0  0  0  0  0  0  0  0  0  0
   21.8952  -19.4720  -14.7354 O   0  0  0  0  0  0  0  0  0  0  0  0
  2  1  1  1
  3  2  1  0
  4  3  1  0
  5  4  2  0
  6  7  2  0
  6  2  1  0
  8  4  1  0
 10  9  1  1
 10 11  1  0
 12 13  1  6
 12 10  1  0
 13  6  1  0
 14 12  1  0
 15 14  2  0
 17 19  1  0
 17 16  1  0
 18 17  2  0
 20 19  1  0
 21 20  1  0
 22 21  1  0
 23 22  1  1
 23 24  1  0
 24 14  1  0
 25 27  1  0
 25 23  1  0
 26 25  2  0
M  END
$$$$
