DVR.pdb
     RDKit          3D

 27 26  0  0  1  0  0  0  0  0999 V2000
   17.5259  -13.1694    7.3195 N   0  0  0  0  0  0  0  0  0  0  0  0
   17.2996  -14.4954    7.8604 C   0  0  1  0  0  0  0  0  0  0  0  0
   15.8152  -14.7847    7.9526 C   0  0  0  0  0  0  0  0  0  0  0  0
   15.1641  -14.0275    9.0303 C   0  0  0  0  0  0  0  0  0  0  0  0
   15.8689  -13.4164    9.8659 O   0  0  0  0  0  0  0  0  0  0  0  0
   17.8622  -15.5387    6.9271 C   0  0  0  0  0  0  0  0  0  0  0  0
   17.7699  -15.4123    5.6821 O   0  0  0  0  0  0  0  0  0  0  0  0
   13.7918  -13.9656    9.1551 O   0  0  0  0  0  0  0  0  0  0  0  0
   20.1159  -18.6857    8.6911 C   0  0  0  0  0  0  0  0  0  0  0  0
   20.4305  -18.1498    7.3358 C   0  0  1  0  0  0  0  0  0  0  0  0
   21.2973  -19.0112    6.4849 C   0  0  0  0  0  0  0  0  0  0  0  0
   19.2258  -17.6502    6.5743 C   0  0  2  0  0  0  0  0  0  0  0  0
   18.5152  -16.6970    7.4474 N   0  0  0  0  0  0  0  0  0  0  0  0
   18.2747  -18.6729    6.1664 C   0  0  0  0  0  0  0  0  0  0  0  0
   17.5336  -19.2128    7.0580 O   0  0  0  0  0  0  0  0  0  0  0  0
   15.0634  -22.0294   -1.3217 N   0  0  0  0  0  0  0  0  0  0  0  0
   14.3237  -22.7575   -0.3531 C   0  0  0  0  0  0  0  0  0  0  0  0
   13.4087  -23.5862   -0.7310 N   0  0  0  0  0  0  0  0  0  0  0  0
   14.6082  -22.5578    1.0132 N   0  0  0  0  0  0  0  0  0  0  0  0
   15.5767  -21.5418    1.3456 C   0  0  0  0  0  0  0  0  0  0  0  0
   15.8586  -21.4392    2.8165 C   0  0  0  0  0  0  0  0  0  0  0  0
   16.8426  -20.3197    3.0748 C   0  0  0  0  0  0  0  0  0  0  0  0
   17.1363  -20.2258    4.5655 C   0  0  2  0  0  0  0  0  0  0  0  0
   18.0650  -19.1599    4.8479 N   0  0  0  0  0  0  0  0  0  0  0  0
   17.6876  -21.4931    5.0881 C   0  0  0  0  0  0  0  0  0  0  0  0
   18.8970  -21.7533    4.9273 O   0  0  0  0  0  0  0  0  0  0  0  0
   16.8900  -22.4022    5.7551 O   0  0  0  0  0  0  0  0  0  0  0  0
  2  1  1  6
  3  2  1  0
  4  3  1  0
  5  4  2  0
  6  7  2  0
  6  2  1  0
  8  4  1  0
 10  9  1  1
 10 11  1  0
 12 13  1  1
 12 10  1  0
 13  6  1  0
 14 12  1  0
 15 14  2  0
 17 19  1  0
 17 16  1  0
 18 17  2  0
 20 19  1  0
 21 20  1  0
 22 21  1  0
 23 22  1  6
 23 24  1  0
 24 14  1  0
 25 27  1  0
 25 23  1  0
 26 25  2  0
M  END
$$$$
