DVR.pdb
     RDKit          3D

 27 26  0  0  1  0  0  0  0  0999 V2000
   28.7460  -21.5824  -16.2822 N   0  0  0  0  0  0  0  0  0  0  0  0
   27.8321  -20.6437  -15.6612 C   0  0  1  0  0  0  0  0  0  0  0  0
   26.9296  -20.0137  -16.7026 C   0  0  0  0  0  0  0  0  0  0  0  0
   27.6375  -19.0312  -17.5347 C   0  0  0  0  0  0  0  0  0  0  0  0
   28.8808  -18.9206  -17.4334 O   0  0  0  0  0  0  0  0  0  0  0  0
   26.9134  -21.3679  -14.7086 C   0  0  0  0  0  0  0  0  0  0  0  0
   26.5743  -22.5584  -14.9139 O   0  0  0  0  0  0  0  0  0  0  0  0
   26.9747  -18.2193  -18.4316 O   0  0  0  0  0  0  0  0  0  0  0  0
   24.9467  -21.2065  -10.1170 C   0  0  0  0  0  0  0  0  0  0  0  0
   25.8788  -20.7842  -11.2013 C   0  0  1  0  0  0  0  0  0  0  0  0
   27.3290  -20.8497  -10.8696 C   0  0  0  0  0  0  0  0  0  0  0  0
   25.5878  -21.4101  -12.5445 C   0  0  2  0  0  0  0  0  0  0  0  0
   26.4100  -20.7071  -13.5473 N   0  0  0  0  0  0  0  0  0  0  0  0
   24.2012  -21.3413  -12.9800 C   0  0  0  0  0  0  0  0  0  0  0  0
   23.7041  -20.1986  -13.2682 O   0  0  0  0  0  0  0  0  0  0  0  0
   16.7370  -25.3255  -15.4286 N   0  0  0  0  0  0  0  0  0  0  0  0
   17.3197  -25.6736  -14.1818 C   0  0  0  0  0  0  0  0  0  0  0  0
   16.6024  -26.2446  -13.2727 N   0  0  0  0  0  0  0  0  0  0  0  0
   18.6823  -25.3860  -13.9622 N   0  0  0  0  0  0  0  0  0  0  0  0
   19.3997  -24.7294  -15.0275 C   0  0  0  0  0  0  0  0  0  0  0  0
   19.9882  -23.4071  -14.6293 C   0  0  0  0  0  0  0  0  0  0  0  0
   21.3548  -23.6161  -14.0155 C   0  0  0  0  0  0  0  0  0  0  0  0
   21.9899  -22.2689  -13.7012 C   0  0  2  0  0  0  0  0  0  0  0  0
   23.3026  -22.4322  -13.1277 N   0  0  0  0  0  0  0  0  0  0  0  0
   21.1545  -21.4823  -12.7703 C   0  0  0  0  0  0  0  0  0  0  0  0
   21.2873  -21.6373  -11.5397 O   0  0  0  0  0  0  0  0  0  0  0  0
   20.2241  -20.5730  -13.2341 O   0  0  0  0  0  0  0  0  0  0  0  0
  2  1  1  6
  3  2  1  0
  4  3  1  0
  5  4  2  0
  6  7  2  0
  6  2  1  0
  8  4  1  0
 10  9  1  1
 10 11  1  0
 12 13  1  6
 12 10  1  0
 13  6  1  0
 14 12  1  0
 15 14  2  0
 17 19  1  0
 17 16  1  0
 18 17  2  0
 20 19  1  0
 21 20  1  0
 22 21  1  0
 23 22  1  1
 23 24  1  0
 24 14  1  0
 25 27  1  0
 25 23  1  0
 26 25  2  0
M  END
$$$$
