DVR.pdb
     RDKit          3D

 27 26  0  0  1  0  0  0  0  0999 V2000
   23.9884  -10.0700  -16.0330 N   0  0  0  0  0  0  0  0  0  0  0  0
   22.7958   -9.5078  -16.6361 C   0  0  1  0  0  0  0  0  0  0  0  0
   21.8567  -10.6100  -17.0823 C   0  0  0  0  0  0  0  0  0  0  0  0
   22.3718  -11.3466  -18.2445 C   0  0  0  0  0  0  0  0  0  0  0  0
   23.3792  -10.9144  -18.8501 O   0  0  0  0  0  0  0  0  0  0  0  0
   22.0281   -8.7051  -15.6152 C   0  0  0  0  0  0  0  0  0  0  0  0
   21.7980   -9.1632  -14.4699 O   0  0  0  0  0  0  0  0  0  0  0  0
   21.7795  -12.5076  -18.6960 O   0  0  0  0  0  0  0  0  0  0  0  0
   22.8662   -5.3586  -14.1438 C   0  0  0  0  0  0  0  0  0  0  0  0
   21.5481   -5.2605  -14.8337 C   0  0  1  0  0  0  0  0  0  0  0  0
   21.5459   -4.5115  -16.1207 C   0  0  0  0  0  0  0  0  0  0  0  0
   20.8153   -6.5753  -14.9553 C   0  0  2  0  0  0  0  0  0  0  0  0
   21.5464   -7.3997  -15.9359 N   0  0  0  0  0  0  0  0  0  0  0  0
   19.4320   -6.4826  -15.3967 C   0  0  0  0  0  0  0  0  0  0  0  0
   19.1937   -6.3513  -16.6464 O   0  0  0  0  0  0  0  0  0  0  0  0
   12.2473  -10.9333  -14.9402 N   0  0  0  0  0  0  0  0  0  0  0  0
   11.6703   -9.6562  -15.1674 C   0  0  0  0  0  0  0  0  0  0  0  0
   10.3895   -9.5073  -15.1023 N   0  0  0  0  0  0  0  0  0  0  0  0
   12.5174   -8.5681  -15.4612 N   0  0  0  0  0  0  0  0  0  0  0  0
   13.8075   -8.5413  -14.8164 C   0  0  0  0  0  0  0  0  0  0  0  0
   14.6790   -7.4041  -15.2642 C   0  0  0  0  0  0  0  0  0  0  0  0
   16.0291   -7.4934  -14.5879 C   0  0  0  0  0  0  0  0  0  0  0  0
   16.9447   -6.3995  -15.1190 C   0  0  2  0  0  0  0  0  0  0  0  0
   18.2739   -6.5216  -14.5740 N   0  0  0  0  0  0  0  0  0  0  0  0
   16.4189   -5.0551  -14.8037 C   0  0  0  0  0  0  0  0  0  0  0  0
   15.5344   -4.5528  -15.5259 O   0  0  0  0  0  0  0  0  0  0  0  0
   16.8867   -4.3371  -13.7206 O   0  0  0  0  0  0  0  0  0  0  0  0
  2  1  1  1
  3  2  1  0
  4  3  1  0
  5  4  2  0
  6  7  2  0
  6  2  1  0
  8  4  1  0
 10  9  1  6
 10 11  1  0
 12 13  1  6
 12 10  1  0
 13  6  1  0
 14 12  1  0
 15 14  2  0
 17 19  1  0
 17 16  1  0
 18 17  2  0
 20 19  1  0
 21 20  1  0
 22 21  1  0
 23 22  1  1
 23 24  1  0
 24 14  1  0
 25 27  1  0
 25 23  1  0
 26 25  2  0
M  END
$$$$
