DVR.pdb
     RDKit          3D

 27 26  0  0  1  0  0  0  0  0999 V2000
   27.6266  -24.8476  -17.1773 N   0  0  0  0  0  0  0  0  0  0  0  0
   26.6161  -23.8217  -17.0089 C   0  0  1  0  0  0  0  0  0  0  0  0
   25.3175  -24.4309  -16.5207 C   0  0  0  0  0  0  0  0  0  0  0  0
   24.7116  -25.3265  -17.5154 C   0  0  0  0  0  0  0  0  0  0  0  0
   24.6697  -24.9741  -18.7163 O   0  0  0  0  0  0  0  0  0  0  0  0
   27.0395  -22.8484  -15.9368 C   0  0  0  0  0  0  0  0  0  0  0  0
   27.8800  -23.1716  -15.0630 O   0  0  0  0  0  0  0  0  0  0  0  0
   24.1828  -26.5528  -17.1697 O   0  0  0  0  0  0  0  0  0  0  0  0
   26.7668  -18.0867  -14.4294 C   0  0  0  0  0  0  0  0  0  0  0  0
   26.7787  -19.1885  -15.4340 C   0  0  1  0  0  0  0  0  0  0  0  0
   27.7537  -19.0363  -16.5492 C   0  0  0  0  0  0  0  0  0  0  0  0
   26.8352  -20.5723  -14.8322 C   0  0  2  0  0  0  0  0  0  0  0  0
   26.4878  -21.5320  -15.8972 N   0  0  0  0  0  0  0  0  0  0  0  0
   25.9349  -20.8057  -13.7132 C   0  0  0  0  0  0  0  0  0  0  0  0
   24.6736  -20.7550  -13.9190 O   0  0  0  0  0  0  0  0  0  0  0  0
   27.9482  -20.6873   -6.1030 N   0  0  0  0  0  0  0  0  0  0  0  0
   27.0894  -19.6384   -6.5247 C   0  0  0  0  0  0  0  0  0  0  0  0
   27.5172  -18.4203   -6.5342 N   0  0  0  0  0  0  0  0  0  0  0  0
   25.7759  -19.9536   -6.9284 N   0  0  0  0  0  0  0  0  0  0  0  0
   25.5592  -21.2511   -7.5202 C   0  0  0  0  0  0  0  0  0  0  0  0
   24.9117  -21.1932   -8.8733 C   0  0  0  0  0  0  0  0  0  0  0  0
   25.9727  -21.1060   -9.9480 C   0  0  0  0  0  0  0  0  0  0  0  0
   25.3265  -21.2269  -11.3209 C   0  0  2  0  0  0  0  0  0  0  0  0
   26.3048  -21.0928  -12.3715 N   0  0  0  0  0  0  0  0  0  0  0  0
   24.2734  -20.2085  -11.5136 C   0  0  0  0  0  0  0  0  0  0  0  0
   24.5855  -19.0612  -11.8909 O   0  0  0  0  0  0  0  0  0  0  0  0
   22.9429  -20.4993  -11.2844 O   0  0  0  0  0  0  0  0  0  0  0  0
  2  1  1  1
  3  2  1  0
  4  3  1  0
  5  4  2  0
  6  7  2  0
  6  2  1  0
  8  4  1  0
 10  9  1  1
 10 11  1  0
 12 13  1  6
 12 10  1  0
 13  6  1  0
 14 12  1  0
 15 14  2  0
 17 19  1  0
 17 16  1  0
 18 17  2  0
 20 19  1  0
 21 20  1  0
 22 21  1  0
 23 22  1  1
 23 24  1  0
 24 14  1  0
 25 27  1  0
 25 23  1  0
 26 25  2  0
M  END
$$$$
