DVR.pdb
     RDKit          3D

 27 26  0  0  1  0  0  0  0  0999 V2000
   25.1596  -15.7025  -18.4581 N   0  0  0  0  0  0  0  0  0  0  0  0
   24.8733  -14.3226  -18.7987 C   0  0  1  0  0  0  0  0  0  0  0  0
   23.5627  -14.2231  -19.5526 C   0  0  0  0  0  0  0  0  0  0  0  0
   23.6274  -14.8644  -20.8729 C   0  0  0  0  0  0  0  0  0  0  0  0
   24.6783  -15.4492  -21.2223 O   0  0  0  0  0  0  0  0  0  0  0  0
   24.6856  -13.5073  -17.5433 C   0  0  0  0  0  0  0  0  0  0  0  0
   24.0622  -13.9694  -16.5573 O   0  0  0  0  0  0  0  0  0  0  0  0
   22.5619  -14.8449  -21.7487 O   0  0  0  0  0  0  0  0  0  0  0  0
   27.3092  -10.4134  -16.9023 C   0  0  0  0  0  0  0  0  0  0  0  0
   26.4631  -10.9562  -15.8012 C   0  0  1  0  0  0  0  0  0  0  0  0
   26.4287  -10.1460  -14.5524 C   0  0  0  0  0  0  0  0  0  0  0  0
   25.0762  -11.3683  -16.2340 C   0  0  2  0  0  0  0  0  0  0  0  0
   25.2183  -12.1856  -17.4537 N   0  0  0  0  0  0  0  0  0  0  0  0
   24.1639  -10.2756  -16.5354 C   0  0  0  0  0  0  0  0  0  0  0  0
   24.3166   -9.6326  -17.6303 O   0  0  0  0  0  0  0  0  0  0  0  0
   16.2745   -9.3994  -18.2819 N   0  0  0  0  0  0  0  0  0  0  0  0
   17.4539   -9.8633  -18.9217 C   0  0  0  0  0  0  0  0  0  0  0  0
   17.3699  -10.7183  -19.8854 N   0  0  0  0  0  0  0  0  0  0  0  0
   18.7027   -9.3746  -18.4865 N   0  0  0  0  0  0  0  0  0  0  0  0
   18.6977   -8.4036  -17.4198 C   0  0  0  0  0  0  0  0  0  0  0  0
   20.0706   -7.9602  -17.0051 C   0  0  0  0  0  0  0  0  0  0  0  0
   20.8944   -9.1588  -16.5891 C   0  0  0  0  0  0  0  0  0  0  0  0
   22.2644   -8.7006  -16.1090 C   0  0  2  0  0  0  0  0  0  0  0  0
   23.0857   -9.8227  -15.7281 N   0  0  0  0  0  0  0  0  0  0  0  0
   22.1531   -7.7765  -14.9615 C   0  0  0  0  0  0  0  0  0  0  0  0
   22.5183   -8.1511  -13.8291 O   0  0  0  0  0  0  0  0  0  0  0  0
   21.6512   -6.4989  -15.1147 O   0  0  0  0  0  0  0  0  0  0  0  0
  2  1  1  1
  3  2  1  0
  4  3  1  0
  5  4  2  0
  6  7  2  0
  6  2  1  0
  8  4  1  0
 10  9  1  6
 10 11  1  0
 12 13  1  6
 12 10  1  0
 13  6  1  0
 14 12  1  0
 15 14  2  0
 17 19  1  0
 17 16  1  0
 18 17  2  0
 20 19  1  0
 21 20  1  0
 22 21  1  0
 23 22  1  1
 23 24  1  0
 24 14  1  0
 25 27  1  0
 25 23  1  0
 26 25  2  0
M  END
$$$$
