DVR.pdb
     RDKit          3D

 27 26  0  0  1  0  0  0  0  0999 V2000
   18.4655  -32.4056  -11.9075 N   0  0  0  0  0  0  0  0  0  0  0  0
   19.3616  -31.7338  -10.9867 C   0  0  1  0  0  0  0  0  0  0  0  0
   19.1363  -30.2360  -11.0248 C   0  0  0  0  0  0  0  0  0  0  0  0
   19.7534  -29.6078  -12.2009 C   0  0  0  0  0  0  0  0  0  0  0  0
   19.7945  -28.3587  -12.2812 O   0  0  0  0  0  0  0  0  0  0  0  0
   19.0610  -32.1565   -9.5700 C   0  0  0  0  0  0  0  0  0  0  0  0
   17.8808  -32.2181   -9.1484 O   0  0  0  0  0  0  0  0  0  0  0  0
   20.2939  -30.3521  -13.2289 O   0  0  0  0  0  0  0  0  0  0  0  0
   21.0208  -34.4368   -5.5789 C   0  0  0  0  0  0  0  0  0  0  0  0
   21.0091  -33.9728   -6.9958 C   0  0  1  0  0  0  0  0  0  0  0  0
   21.1767  -35.0351   -8.0257 C   0  0  0  0  0  0  0  0  0  0  0  0
   19.8638  -33.0481   -7.3333 C   0  0  2  0  0  0  0  0  0  0  0  0
   20.1218  -32.4971   -8.6771 N   0  0  0  0  0  0  0  0  0  0  0  0
   19.6737  -31.9288   -6.4233 C   0  0  0  0  0  0  0  0  0  0  0  0
   20.2099  -30.8043   -6.7128 O   0  0  0  0  0  0  0  0  0  0  0  0
   14.4991  -25.8236   -5.5725 N   0  0  0  0  0  0  0  0  0  0  0  0
   15.8779  -25.5726   -5.7990 C   0  0  0  0  0  0  0  0  0  0  0  0
   16.2385  -24.5765   -6.5370 N   0  0  0  0  0  0  0  0  0  0  0  0
   16.8321  -26.4246   -5.2063 N   0  0  0  0  0  0  0  0  0  0  0  0
   16.3990  -27.7519   -4.8436 C   0  0  0  0  0  0  0  0  0  0  0  0
   17.4873  -28.5968   -4.2478 C   0  0  0  0  0  0  0  0  0  0  0  0
   17.7178  -29.8200   -5.1075 C   0  0  0  0  0  0  0  0  0  0  0  0
   18.7253  -30.7409   -4.4335 C   0  0  2  0  0  0  0  0  0  0  0  0
   18.9371  -31.9382   -5.2081 N   0  0  0  0  0  0  0  0  0  0  0  0
   18.2852  -31.1204   -3.0749 C   0  0  0  0  0  0  0  0  0  0  0  0
   17.8845  -32.2815   -2.8574 O   0  0  0  0  0  0  0  0  0  0  0  0
   18.3077  -30.2136   -2.0334 O   0  0  0  0  0  0  0  0  0  0  0  0
  2  1  1  6
  3  2  1  0
  4  3  1  0
  5  4  2  0
  6  7  2  0
  6  2  1  0
  8  4  1  0
 10  9  1  1
 10 11  1  0
 12 13  1  6
 12 10  1  0
 13  6  1  0
 14 12  1  0
 15 14  2  0
 17 19  1  0
 17 16  1  0
 18 17  2  0
 20 19  1  0
 21 20  1  0
 22 21  1  0
 23 22  1  6
 23 24  1  0
 24 14  1  0
 25 27  1  0
 25 23  1  0
 26 25  2  0
M  END
$$$$
