DVR.pdb
     RDKit          3D

 27 26  0  0  1  0  0  0  0  0999 V2000
   26.8803  -19.1473  -16.3840 N   0  0  0  0  0  0  0  0  0  0  0  0
   25.7957  -20.0919  -16.2007 C   0  0  1  0  0  0  0  0  0  0  0  0
   26.2532  -21.2693  -15.3639 C   0  0  0  0  0  0  0  0  0  0  0  0
   27.2495  -22.0955  -16.0593 C   0  0  0  0  0  0  0  0  0  0  0  0
   28.4327  -22.1086  -15.6490 O   0  0  0  0  0  0  0  0  0  0  0  0
   24.6745  -19.4487  -15.4227 C   0  0  0  0  0  0  0  0  0  0  0  0
   24.9109  -18.6927  -14.4496 O   0  0  0  0  0  0  0  0  0  0  0  0
   26.9245  -22.8640  -17.1577 O   0  0  0  0  0  0  0  0  0  0  0  0
   20.3158  -17.4276  -15.7921 C   0  0  0  0  0  0  0  0  0  0  0  0
   21.6460  -17.9955  -16.1541 C   0  0  1  0  0  0  0  0  0  0  0  0
   22.6759  -17.0086  -16.5816 C   0  0  0  0  0  0  0  0  0  0  0  0
   22.1978  -18.9702  -15.1412 C   0  0  2  0  0  0  0  0  0  0  0  0
   23.3140  -19.6900  -15.7829 N   0  0  0  0  0  0  0  0  0  0  0  0
   21.2543  -19.9624  -14.6486 C   0  0  0  0  0  0  0  0  0  0  0  0
   20.8575  -20.8809  -15.4452 O   0  0  0  0  0  0  0  0  0  0  0  0
   16.6357  -23.9935   -9.3026 N   0  0  0  0  0  0  0  0  0  0  0  0
   17.5818  -25.0031   -9.6203 C   0  0  0  0  0  0  0  0  0  0  0  0
   17.2136  -26.2397   -9.6651 N   0  0  0  0  0  0  0  0  0  0  0  0
   18.9155  -24.6290   -9.8831 N   0  0  0  0  0  0  0  0  0  0  0  0
   19.2130  -23.2179   -9.9127 C   0  0  0  0  0  0  0  0  0  0  0  0
   18.8899  -22.5636  -11.2246 C   0  0  0  0  0  0  0  0  0  0  0  0
   20.0289  -21.6604  -11.6433 C   0  0  0  0  0  0  0  0  0  0  0  0
   19.7077  -21.0139  -12.9835 C   0  0  2  0  0  0  0  0  0  0  0  0
   20.7022  -20.0332  -13.3411 N   0  0  0  0  0  0  0  0  0  0  0  0
   18.3799  -20.3660  -12.9659 C   0  0  0  0  0  0  0  0  0  0  0  0
   18.2976  -19.1305  -12.8144 O   0  0  0  0  0  0  0  0  0  0  0  0
   17.2202  -21.1011  -13.1148 O   0  0  0  0  0  0  0  0  0  0  0  0
  2  1  1  1
  3  2  1  0
  4  3  1  0
  5  4  2  0
  6  7  2  0
  6  2  1  0
  8  4  1  0
 10  9  1  1
 10 11  1  0
 12 13  1  6
 12 10  1  0
 13  6  1  0
 14 12  1  0
 15 14  2  0
 17 19  1  0
 17 16  1  0
 18 17  2  0
 20 19  1  0
 21 20  1  0
 22 21  1  0
 23 22  1  1
 23 24  1  0
 24 14  1  0
 25 27  1  0
 25 23  1  0
 26 25  2  0
M  END
$$$$
