NLG.pdb
     RDKit          3D

 21 20  0  0  1  0  0  0  0  0999 V2000
    7.7258  -17.1461   19.5774 N   0  0  0  0  0  0  0  0  0  0  0  0
    7.8670  -15.7370   19.5703 C   0  0  0  0  0  0  0  0  0  0  0  0
    7.7450  -15.0903   18.4872 O   0  0  0  0  0  0  0  0  0  0  0  0
    8.1614  -15.0124   20.8487 C   0  0  0  0  0  0  0  0  0  0  0  0
    8.2636  -16.0401   21.9541 C   0  0  2  0  0  0  0  0  0  0  0  0
    6.9554  -16.5744   22.2273 N   0  0  0  0  0  0  0  0  0  0  0  0
    8.8204  -15.3695   23.1629 C   0  0  0  0  0  0  0  0  0  0  0  0
    9.9504  -14.8157   23.1360 O   0  0  0  0  0  0  0  0  0  0  0  0
    5.7060  -12.4171   26.5406 C   0  0  0  0  0  0  0  0  0  0  0  0
    6.9201  -12.8071   25.6349 C   0  0  1  0  0  0  0  0  0  0  0  0
    7.8659  -11.5945   25.6917 C   0  0  0  0  0  0  0  0  0  0  0  0
    7.4923  -14.0320   26.2262 C   0  0  0  0  0  0  0  0  0  0  0  0
    8.6751  -14.6744   25.5986 C   0  0  2  0  0  0  0  0  0  0  0  0
    8.1052  -15.3332   24.3690 N   0  0  0  0  0  0  0  0  0  0  0  0
    9.3418  -15.7471   26.3078 C   0  0  0  0  0  0  0  0  0  0  0  0
    9.8510  -15.5702   27.4413 O   0  0  0  0  0  0  0  0  0  0  0  0
    9.4506  -17.0650   25.7648 N   0  0  0  0  0  0  0  0  0  0  0  0
    9.9978  -18.1349   26.5619 C   0  0  0  0  0  0  0  0  0  0  0  0
   11.4096  -18.3387   26.2075 C   0  0  0  0  0  0  0  0  0  0  0  0
   12.1561  -17.3696   25.5389 O   0  0  0  0  0  0  0  0  0  0  0  0
   11.9954  -19.3989   26.4964 O   0  0  0  0  0  0  0  0  0  0  0  0
  2  3  2  0
  2  1  1  0
  4  2  1  0
  5  4  1  0
  5  6  1  1
  7  8  2  0
  7  5  1  0
 10  9  1  1
 10 11  1  0
 10 12  1  0
 13 12  1  1
 13 15  1  0
 13 14  1  0
 14  7  1  0
 15 17  1  0
 16 15  2  0
 17 18  1  0
 18 19  1  0
 19 21  2  0
 19 20  1  0
M  END
$$$$
