WCP.pdb
     RDKit          3D

 28 30  0  0  1  0  0  0  0  0999 V2000
   27.4624  -19.3552   -9.8325 N   0  0  0  0  0  0  0  0  0  0  0  0
   26.8428  -20.6706   -9.8387 C   0  0  1  0  0  0  0  0  0  0  0  0
   26.1535  -20.8218   -8.4888 C   0  0  0  0  0  0  0  0  0  0  0  0
   26.7632  -19.9651   -7.4566 C   0  0  0  0  0  0  0  0  0  0  0  0
   26.7941  -18.5836   -7.4969 C   0  0  0  0  0  0  0  0  0  0  0  0
   27.4368  -18.1647   -6.3798 N   0  0  0  0  0  0  0  0  0  0  0  0
   27.7977  -19.2581   -5.6603 C   0  0  0  0  0  0  0  0  0  0  0  0
   28.4635  -19.3638   -4.4650 C   0  0  0  0  0  0  0  0  0  0  0  0
   28.7194  -20.6023   -3.9228 C   0  0  0  0  0  0  0  0  0  0  0  0
   28.3221  -21.7598   -4.5510 C   0  0  0  0  0  0  0  0  0  0  0  0
   27.6586  -21.6385   -5.7438 C   0  0  0  0  0  0  0  0  0  0  0  0
   27.3940  -20.3983   -6.3020 C   0  0  0  0  0  0  0  0  0  0  0  0
   25.8220  -20.7556  -10.9450 C   0  0  0  0  0  0  0  0  0  0  0  0
   24.9364  -19.8738  -11.0705 O   0  0  0  0  0  0  0  0  0  0  0  0
   25.8397  -21.8285  -11.8636 N   0  0  0  0  0  0  0  0  0  0  0  0
   25.1669  -21.6759  -13.1728 C   0  0  1  0  0  0  0  0  0  0  0  0
   25.8344  -22.5920  -14.1616 C   0  0  0  0  0  0  0  0  0  0  0  0
   27.5772  -22.2695  -14.4145 S   0  0  0  0  0  0  0  0  0  0  0  0
   23.7208  -21.8371  -13.0263 C   0  0  0  0  0  0  0  0  0  0  0  0
   23.3613  -22.8027  -12.2493 O   0  0  0  0  0  0  0  0  0  0  0  0
   22.6843  -21.0810  -13.6153 N   0  0  0  0  0  0  0  0  0  0  0  0
   23.0202  -19.8349  -14.3480 C   0  0  0  0  0  0  0  0  0  0  0  0
   21.7520  -19.0139  -14.2607 C   0  0  0  0  0  0  0  0  0  0  0  0
   20.6482  -20.0139  -14.3072 C   0  0  0  0  0  0  0  0  0  0  0  0
   21.2621  -21.2561  -13.6910 C   0  0  1  0  0  0  0  0  0  0  0  0
   20.8788  -22.4606  -14.5039 C   0  0  0  0  0  0  0  0  0  0  0  0
   21.6892  -22.8879  -15.3499 O   0  0  0  0  0  0  0  0  0  0  0  0
   19.6698  -23.0888  -14.3322 O   0  0  0  0  0  0  0  0  0  0  0  0
  2  3  1  0
  2  1  1  1
  3  4  1  0
  4 12  1  0
  4  5  2  0
  5  6  1  0
  7  6  1  0
  7  8  2  0
  9  8  1  0
 10  9  2  0
 11 12  2  0
 11 10  1  0
 12  7  1  0
 13  2  1  0
 13 15  1  0
 14 13  2  0
 16 15  1  0
 16 17  1  6
 18 17  1  0
 19 16  1  0
 20 19  2  0
 21 19  1  0
 21 25  1  0
 22 21  1  0
 23 22  1  0
 23 24  1  0
 24 25  1  0
 25 26  1  6
 26 28  1  0
 27 26  2  0
M  END
$$$$
