WCP.pdb
     RDKit          3D

 28 30  0  0  1  0  0  0  0  0999 V2000
   25.5822  -27.4862  -16.8590 N   0  0  0  0  0  0  0  0  0  0  0  0
   26.8227  -26.7711  -17.1123 C   0  0  1  0  0  0  0  0  0  0  0  0
   26.9740  -25.7674  -15.9766 C   0  0  0  0  0  0  0  0  0  0  0  0
   26.0305  -24.6426  -16.1022 C   0  0  0  0  0  0  0  0  0  0  0  0
   26.3149  -23.4416  -16.7251 C   0  0  0  0  0  0  0  0  0  0  0  0
   25.2045  -22.6702  -16.6335 N   0  0  0  0  0  0  0  0  0  0  0  0
   24.2509  -23.3729  -15.9700 C   0  0  0  0  0  0  0  0  0  0  0  0
   22.9658  -23.0351  -15.6267 C   0  0  0  0  0  0  0  0  0  0  0  0
   22.1747  -23.9294  -14.9427 C   0  0  0  0  0  0  0  0  0  0  0  0
   22.6379  -25.1744  -14.5853 C   0  0  0  0  0  0  0  0  0  0  0  0
   23.9229  -25.4975  -14.9348 C   0  0  0  0  0  0  0  0  0  0  0  0
   24.7313  -24.6073  -15.6233 C   0  0  0  0  0  0  0  0  0  0  0  0
   27.9844  -27.7321  -17.1018 C   0  0  0  0  0  0  0  0  0  0  0  0
   28.0150  -28.6935  -16.2941 O   0  0  0  0  0  0  0  0  0  0  0  0
   29.0629  -27.5717  -17.9998 N   0  0  0  0  0  0  0  0  0  0  0  0
   29.9602  -28.7171  -18.2702 C   0  0  1  0  0  0  0  0  0  0  0  0
   29.1179  -29.9016  -18.6572 C   0  0  0  0  0  0  0  0  0  0  0  0
   29.8963  -31.4897  -18.3789 S   0  0  0  0  0  0  0  0  0  0  0  0
   31.0035  -28.3356  -19.2215 C   0  0  0  0  0  0  0  0  0  0  0  0
   30.5819  -27.6829  -20.2519 O   0  0  0  0  0  0  0  0  0  0  0  0
   32.3915  -28.5843  -19.1557 N   0  0  0  0  0  0  0  0  0  0  0  0
   32.9547  -29.2471  -17.9532 C   0  0  0  0  0  0  0  0  0  0  0  0
   34.3941  -28.7809  -17.9271 C   0  0  0  0  0  0  0  0  0  0  0  0
   34.7820  -28.6651  -19.3612 C   0  0  0  0  0  0  0  0  0  0  0  0
   33.4771  -28.3390  -20.0615 C   0  0  1  0  0  0  0  0  0  0  0  0
   33.3655  -29.1547  -21.3188 C   0  0  0  0  0  0  0  0  0  0  0  0
   32.6502  -30.1760  -21.3020 O   0  0  0  0  0  0  0  0  0  0  0  0
   34.0277  -28.7986  -22.4680 O   0  0  0  0  0  0  0  0  0  0  0  0
  2  3  1  0
  2  1  1  1
  3  4  1  0
  4 12  1  0
  4  5  2  0
  5  6  1  0
  7  6  1  0
  7  8  2  0
  9  8  1  0
 10  9  2  0
 11 12  2  0
 11 10  1  0
 12  7  1  0
 13  2  1  0
 13 15  1  0
 14 13  2  0
 16 15  1  0
 16 17  1  6
 18 17  1  0
 19 16  1  0
 20 19  2  0
 21 19  1  0
 21 25  1  0
 22 21  1  0
 23 22  1  0
 23 24  1  0
 24 25  1  0
 25 26  1  6
 26 28  1  0
 27 26  2  0
M  END
$$$$
