WCP.pdb
     RDKit          3D

 28 30  0  0  1  0  0  0  0  0999 V2000
   26.0053  -18.2692   -9.0594 N   0  0  0  0  0  0  0  0  0  0  0  0
   26.6644  -19.5392   -9.3176 C   0  0  1  0  0  0  0  0  0  0  0  0
   26.6415  -20.3052   -8.0012 C   0  0  0  0  0  0  0  0  0  0  0  0
   27.4196  -19.6249   -6.9510 C   0  0  0  0  0  0  0  0  0  0  0  0
   27.3577  -18.2713   -6.6767 C   0  0  0  0  0  0  0  0  0  0  0  0
   28.2135  -18.0305   -5.6540 N   0  0  0  0  0  0  0  0  0  0  0  0
   28.7947  -19.2051   -5.2989 C   0  0  0  0  0  0  0  0  0  0  0  0
   29.7223  -19.4878   -4.3279 C   0  0  0  0  0  0  0  0  0  0  0  0
   30.1695  -20.7773   -4.1527 C   0  0  0  0  0  0  0  0  0  0  0  0
   29.7085  -21.8119   -4.9333 C   0  0  0  0  0  0  0  0  0  0  0  0
   28.7827  -21.5144   -5.8988 C   0  0  0  0  0  0  0  0  0  0  0  0
   28.3234  -20.2208   -6.0869 C   0  0  0  0  0  0  0  0  0  0  0  0
   25.9072  -20.3098  -10.3693 C   0  0  0  0  0  0  0  0  0  0  0  0
   24.6581  -20.2146  -10.4601 O   0  0  0  0  0  0  0  0  0  0  0  0
   26.5862  -21.1552  -11.2747 N   0  0  0  0  0  0  0  0  0  0  0  0
   26.1554  -21.2006  -12.6897 C   0  0  1  0  0  0  0  0  0  0  0  0
   27.2198  -21.8999  -13.4900 C   0  0  0  0  0  0  0  0  0  0  0  0
   26.7456  -22.2978  -15.1699 S   0  0  0  0  0  0  0  0  0  0  0  0
   24.8066  -21.7560  -12.7958 C   0  0  0  0  0  0  0  0  0  0  0  0
   24.6457  -22.8974  -12.2157 O   0  0  0  0  0  0  0  0  0  0  0  0
   23.6753  -21.2095  -13.4396 N   0  0  0  0  0  0  0  0  0  0  0  0
   23.7495  -19.8363  -13.9975 C   0  0  0  0  0  0  0  0  0  0  0  0
   22.3098  -19.3705  -13.9983 C   0  0  0  0  0  0  0  0  0  0  0  0
   21.5139  -20.5971  -14.2860 C   0  0  0  0  0  0  0  0  0  0  0  0
   22.3627  -21.7180  -13.7180 C   0  0  1  0  0  0  0  0  0  0  0  0
   22.3902  -22.8664  -14.6871 C   0  0  0  0  0  0  0  0  0  0  0  0
   23.3999  -23.0136  -15.4041 O   0  0  0  0  0  0  0  0  0  0  0  0
   21.3383  -23.7426  -14.7937 O   0  0  0  0  0  0  0  0  0  0  0  0
  2  3  1  0
  2  1  1  1
  3  4  1  0
  4 12  1  0
  4  5  2  0
  5  6  1  0
  7  6  1  0
  7  8  2  0
  9  8  1  0
 10  9  2  0
 11 12  2  0
 11 10  1  0
 12  7  1  0
 13  2  1  0
 13 15  1  0
 14 13  2  0
 16 15  1  0
 16 17  1  6
 18 17  1  0
 19 16  1  0
 20 19  2  0
 21 19  1  0
 21 25  1  0
 22 21  1  0
 23 22  1  0
 23 24  1  0
 24 25  1  0
 25 26  1  6
 26 28  1  0
 27 26  2  0
M  END
$$$$
