WCP.pdb
     RDKit          3D

 28 30  0  0  1  0  0  0  0  0999 V2000
   24.8689  -19.8365  -12.5034 N   0  0  0  0  0  0  0  0  0  0  0  0
   26.0436  -20.2181  -11.7361 C   0  0  1  0  0  0  0  0  0  0  0  0
   27.1517  -19.2586  -12.1505 C   0  0  0  0  0  0  0  0  0  0  0  0
   27.5731  -19.4690  -13.5467 C   0  0  0  0  0  0  0  0  0  0  0  0
   28.1609  -20.6246  -14.0266 C   0  0  0  0  0  0  0  0  0  0  0  0
   28.4018  -20.4330  -15.3463 N   0  0  0  0  0  0  0  0  0  0  0  0
   27.9746  -19.1886  -15.6813 C   0  0  0  0  0  0  0  0  0  0  0  0
   27.9954  -18.5282  -16.8841 C   0  0  0  0  0  0  0  0  0  0  0  0
   27.4965  -17.2494  -16.9801 C   0  0  0  0  0  0  0  0  0  0  0  0
   26.9671  -16.5990  -15.8896 C   0  0  0  0  0  0  0  0  0  0  0  0
   26.9532  -17.2709  -14.6955 C   0  0  0  0  0  0  0  0  0  0  0  0
   27.4523  -18.5586  -14.5836 C   0  0  0  0  0  0  0  0  0  0  0  0
   25.7673  -20.0717  -10.2612 C   0  0  0  0  0  0  0  0  0  0  0  0
   25.2033  -19.0430   -9.8127 O   0  0  0  0  0  0  0  0  0  0  0  0
   26.1368  -21.0882   -9.3525 N   0  0  0  0  0  0  0  0  0  0  0  0
   26.0423  -20.8325   -7.8979 C   0  0  1  0  0  0  0  0  0  0  0  0
   25.0757  -21.8191   -7.3023 C   0  0  0  0  0  0  0  0  0  0  0  0
   24.2563  -21.2514   -5.8151 S   0  0  0  0  0  0  0  0  0  0  0  0
   27.3752  -20.8000   -7.2969 C   0  0  0  0  0  0  0  0  0  0  0  0
   28.1750  -21.7258   -7.7073 O   0  0  0  0  0  0  0  0  0  0  0  0
   27.8909  -19.8972   -6.3420 N   0  0  0  0  0  0  0  0  0  0  0  0
   27.2962  -18.5422   -6.2279 C   0  0  0  0  0  0  0  0  0  0  0  0
   28.4177  -17.7051   -5.6523 C   0  0  0  0  0  0  0  0  0  0  0  0
   29.1516  -18.6281   -4.7410 C   0  0  0  0  0  0  0  0  0  0  0  0
   28.9346  -19.9944   -5.3621 C   0  0  1  0  0  0  0  0  0  0  0  0
   28.6125  -20.9899   -4.2833 C   0  0  0  0  0  0  0  0  0  0  0  0
   27.4664  -21.4803   -4.2515 O   0  0  0  0  0  0  0  0  0  0  0  0
   29.5454  -21.3628   -3.3472 O   0  0  0  0  0  0  0  0  0  0  0  0
  2  3  1  0
  2  1  1  6
  3  4  1  0
  4 12  1  0
  4  5  2  0
  5  6  1  0
  7  6  1  0
  7  8  2  0
  9  8  1  0
 10  9  2  0
 11 12  2  0
 11 10  1  0
 12  7  1  0
 13  2  1  0
 13 15  1  0
 14 13  2  0
 16 15  1  0
 16 17  1  1
 18 17  1  0
 19 16  1  0
 20 19  2  0
 21 19  1  0
 21 25  1  0
 22 21  1  0
 23 22  1  0
 23 24  1  0
 24 25  1  0
 25 26  1  1
 26 28  1  0
 27 26  2  0
M  END
$$$$
