WCP.pdb
     RDKit          3D

 28 30  0  0  1  0  0  0  0  0999 V2000
   27.7608  -21.3007  -10.9245 N   0  0  0  0  0  0  0  0  0  0  0  0
   26.3505  -21.4606  -11.2400 C   0  0  1  0  0  0  0  0  0  0  0  0
   25.6324  -20.2897  -10.5815 C   0  0  0  0  0  0  0  0  0  0  0  0
   25.6849  -20.3642   -9.1108 C   0  0  0  0  0  0  0  0  0  0  0  0
   24.6351  -20.7624   -8.3042 C   0  0  0  0  0  0  0  0  0  0  0  0
   25.0683  -20.6968   -7.0218 N   0  0  0  0  0  0  0  0  0  0  0  0
   26.3567  -20.2684   -7.0284 C   0  0  0  0  0  0  0  0  0  0  0  0
   27.2303  -20.0417   -5.9947 C   0  0  0  0  0  0  0  0  0  0  0  0
   28.5082  -19.6013   -6.2529 C   0  0  0  0  0  0  0  0  0  0  0  0
   28.9472  -19.3771   -7.5372 C   0  0  0  0  0  0  0  0  0  0  0  0
   28.0637  -19.6077   -8.5589 C   0  0  0  0  0  0  0  0  0  0  0  0
   26.7739  -20.0509   -8.3142 C   0  0  0  0  0  0  0  0  0  0  0  0
   26.1461  -21.4097  -12.7329 C   0  0  0  0  0  0  0  0  0  0  0  0
   26.6296  -20.4729  -13.4156 O   0  0  0  0  0  0  0  0  0  0  0  0
   25.4065  -22.4144  -13.3956 N   0  0  0  0  0  0  0  0  0  0  0  0
   25.3623  -22.4284  -14.8748 C   0  0  1  0  0  0  0  0  0  0  0  0
   25.2668  -23.8570  -15.3354 C   0  0  0  0  0  0  0  0  0  0  0  0
   24.6532  -24.9972  -14.0989 S   0  0  0  0  0  0  0  0  0  0  0  0
   24.3191  -21.5274  -15.3635 C   0  0  0  0  0  0  0  0  0  0  0  0
   23.3373  -21.3448  -14.5462 O   0  0  0  0  0  0  0  0  0  0  0  0
   24.2519  -20.8408  -16.5951 N   0  0  0  0  0  0  0  0  0  0  0  0
   25.4151  -20.8847  -17.5158 C   0  0  0  0  0  0  0  0  0  0  0  0
   25.2758  -19.6177  -18.3314 C   0  0  0  0  0  0  0  0  0  0  0  0
   23.8060  -19.4203  -18.4783 C   0  0  0  0  0  0  0  0  0  0  0  0
   23.2310  -20.0549  -17.2269 C   0  0  1  0  0  0  0  0  0  0  0  0
   22.0241  -20.8738  -17.5895 C   0  0  0  0  0  0  0  0  0  0  0  0
   22.1756  -22.0941  -17.7970 O   0  0  0  0  0  0  0  0  0  0  0  0
   20.7768  -20.3090  -17.6935 O   0  0  0  0  0  0  0  0  0  0  0  0
  2  3  1  0
  2  1  1  6
  3  4  1  0
  4 12  1  0
  4  5  2  0
  5  6  1  0
  7  6  1  0
  7  8  2  0
  9  8  1  0
 10  9  2  0
 11 12  2  0
 11 10  1  0
 12  7  1  0
 13  2  1  0
 13 15  1  0
 14 13  2  0
 16 15  1  0
 16 17  1  1
 18 17  1  0
 19 16  1  0
 20 19  2  0
 21 19  1  0
 21 25  1  0
 22 21  1  0
 23 22  1  0
 23 24  1  0
 24 25  1  0
 25 26  1  6
 26 28  1  0
 27 26  2  0
M  END
$$$$
