WCP.pdb
     RDKit          3D

 28 30  0  0  1  0  0  0  0  0999 V2000
   24.4654  -19.2195  -10.0336 N   0  0  0  0  0  0  0  0  0  0  0  0
   25.7704  -19.7790  -10.3470 C   0  0  1  0  0  0  0  0  0  0  0  0
   25.8610  -21.0968   -9.5883 C   0  0  0  0  0  0  0  0  0  0  0  0
   25.9753  -20.8916   -8.1337 C   0  0  0  0  0  0  0  0  0  0  0  0
   24.9439  -21.0670   -7.2299 C   0  0  0  0  0  0  0  0  0  0  0  0
   25.4366  -20.7824   -6.0000 N   0  0  0  0  0  0  0  0  0  0  0  0
   26.7432  -20.4381   -6.1333 C   0  0  0  0  0  0  0  0  0  0  0  0
   27.6723  -20.0686   -5.1935 C   0  0  0  0  0  0  0  0  0  0  0  0
   28.9578  -19.7601   -5.5754 C   0  0  0  0  0  0  0  0  0  0  0  0
   29.3497  -19.8112   -6.8930 C   0  0  0  0  0  0  0  0  0  0  0  0
   28.4112  -20.1817   -7.8201 C   0  0  0  0  0  0  0  0  0  0  0  0
   27.1130  -20.4949   -7.4504 C   0  0  0  0  0  0  0  0  0  0  0  0
   25.8804  -20.0349  -11.8287 C   0  0  0  0  0  0  0  0  0  0  0  0
   24.8670  -20.3417  -12.5042 O   0  0  0  0  0  0  0  0  0  0  0  0
   27.1254  -19.9353  -12.4886 N   0  0  0  0  0  0  0  0  0  0  0  0
   27.1664  -19.9389  -13.9679 C   0  0  1  0  0  0  0  0  0  0  0  0
   28.2110  -18.9549  -14.4183 C   0  0  0  0  0  0  0  0  0  0  0  0
   27.7276  -17.2375  -14.2695 S   0  0  0  0  0  0  0  0  0  0  0  0
   27.3136  -21.3039  -14.4719 C   0  0  0  0  0  0  0  0  0  0  0  0
   28.1028  -22.0532  -13.7784 O   0  0  0  0  0  0  0  0  0  0  0  0
   26.7095  -21.8976  -15.6013 N   0  0  0  0  0  0  0  0  0  0  0  0
   25.7735  -21.0973  -16.4295 C   0  0  0  0  0  0  0  0  0  0  0  0
   24.8848  -22.1383  -17.0749 C   0  0  0  0  0  0  0  0  0  0  0  0
   25.7768  -23.3099  -17.3039 C   0  0  0  0  0  0  0  0  0  0  0  0
   26.8066  -23.1999  -16.1962 C   0  0  1  0  0  0  0  0  0  0  0  0
   28.1751  -23.4702  -16.7554 C   0  0  0  0  0  0  0  0  0  0  0  0
   28.5010  -24.6526  -16.9809 O   0  0  0  0  0  0  0  0  0  0  0  0
   29.0583  -22.4521  -17.0185 O   0  0  0  0  0  0  0  0  0  0  0  0
  2  3  1  0
  2  1  1  6
  3  4  1  0
  4 12  1  0
  4  5  2  0
  5  6  1  0
  7  6  1  0
  7  8  2  0
  9  8  1  0
 10  9  2  0
 11 12  2  0
 11 10  1  0
 12  7  1  0
 13  2  1  0
 13 15  1  0
 14 13  2  0
 16 15  1  0
 16 17  1  1
 18 17  1  0
 19 16  1  0
 20 19  2  0
 21 19  1  0
 21 25  1  0
 22 21  1  0
 23 22  1  0
 23 24  1  0
 24 25  1  0
 25 26  1  6
 26 28  1  0
 27 26  2  0
M  END
$$$$
