WCP.pdb
     RDKit          3D

 28 30  0  0  1  0  0  0  0  0999 V2000
   27.9941  -20.8414  -10.0072 N   0  0  0  0  0  0  0  0  0  0  0  0
   26.6922  -20.8231   -9.3601 C   0  0  1  0  0  0  0  0  0  0  0  0
   26.5480  -19.4416   -8.7348 C   0  0  0  0  0  0  0  0  0  0  0  0
   27.5449  -19.2065   -7.6754 C   0  0  0  0  0  0  0  0  0  0  0  0
   28.5923  -18.3086   -7.7646 C   0  0  0  0  0  0  0  0  0  0  0  0
   29.2826  -18.3818   -6.6007 N   0  0  0  0  0  0  0  0  0  0  0  0
   28.6804  -19.3026   -5.8051 C   0  0  0  0  0  0  0  0  0  0  0  0
   28.9933  -19.7356   -4.5411 C   0  0  0  0  0  0  0  0  0  0  0  0
   28.2213  -20.6952   -3.9275 C   0  0  0  0  0  0  0  0  0  0  0  0
   27.1251  -21.2449   -4.5510 C   0  0  0  0  0  0  0  0  0  0  0  0
   26.8250  -20.8027   -5.8128 C   0  0  0  0  0  0  0  0  0  0  0  0
   27.5934  -19.8374   -6.4432 C   0  0  0  0  0  0  0  0  0  0  0  0
   25.6043  -21.0363  -10.3819 C   0  0  0  0  0  0  0  0  0  0  0  0
   25.8646  -21.0162  -11.6105 O   0  0  0  0  0  0  0  0  0  0  0  0
   24.2694  -21.2631   -9.9795 N   0  0  0  0  0  0  0  0  0  0  0  0
   23.2409  -21.5539  -11.0031 C   0  0  1  0  0  0  0  0  0  0  0  0
   22.0360  -22.1361  -10.3164 C   0  0  0  0  0  0  0  0  0  0  0  0
   21.7144  -21.4684   -8.6866 S   0  0  0  0  0  0  0  0  0  0  0  0
   22.9970  -20.3740  -11.8322 C   0  0  0  0  0  0  0  0  0  0  0  0
   22.9497  -19.2592  -11.1839 O   0  0  0  0  0  0  0  0  0  0  0  0
   22.8123  -20.3004  -13.2298 N   0  0  0  0  0  0  0  0  0  0  0  0
   22.9732  -21.5271  -14.0495 C   0  0  0  0  0  0  0  0  0  0  0  0
   23.3429  -20.9985  -15.4184 C   0  0  0  0  0  0  0  0  0  0  0  0
   22.5883  -19.7201  -15.5484 C   0  0  0  0  0  0  0  0  0  0  0  0
   22.4617  -19.2301  -14.1190 C   0  0  1  0  0  0  0  0  0  0  0  0
   21.0650  -18.7278  -13.8831 C   0  0  0  0  0  0  0  0  0  0  0  0
   20.2574  -19.4742  -13.2952 O   0  0  0  0  0  0  0  0  0  0  0  0
   20.6703  -17.4795  -14.2975 O   0  0  0  0  0  0  0  0  0  0  0  0
  2  3  1  0
  2  1  1  6
  3  4  1  0
  4 12  1  0
  4  5  2  0
  5  6  1  0
  7  6  1  0
  7  8  2  0
  9  8  1  0
 10  9  2  0
 11 12  2  0
 11 10  1  0
 12  7  1  0
 13  2  1  0
 13 15  1  0
 14 13  2  0
 16 15  1  0
 16 17  1  1
 18 17  1  0
 19 16  1  0
 20 19  2  0
 21 19  1  0
 21 25  1  0
 22 21  1  0
 23 22  1  0
 23 24  1  0
 24 25  1  0
 25 26  1  1
 26 28  1  0
 27 26  2  0
M  END
$$$$
