GTD.pdb
     RDKit          3D

 20 19  0  0  1  0  0  0  0  0999 V2000
   18.7493  -12.6713  -18.8685 N   0  0  0  0  0  0  0  0  0  0  0  0
   18.5145  -11.2898  -18.6150 C   0  0  0  0  0  0  0  0  0  0  0  0
   19.6106  -10.7819  -17.7235 C   0  0  0  0  0  0  0  0  0  0  0  0
   20.1233  -11.5078  -16.8324 O   0  0  0  0  0  0  0  0  0  0  0  0
   22.9453   -9.8348  -18.3871 C   0  0  0  0  0  0  0  0  0  0  0  0
   22.3925   -8.5689  -17.7630 C   0  0  1  0  0  0  0  0  0  0  0  0
   22.1198   -7.6884  -18.8201 O   0  0  0  0  0  0  0  0  0  0  0  0
   21.1244   -8.9020  -17.0017 C   0  0  2  0  0  0  0  0  0  0  0  0
   20.1135   -9.4578  -17.8517 N   0  0  0  0  0  0  0  0  0  0  0  0
   20.5980   -7.7043  -16.3008 C   0  0  0  0  0  0  0  0  0  0  0  0
   19.7882   -6.9057  -16.8819 O   0  0  0  0  0  0  0  0  0  0  0  0
   20.9498   -7.3736  -14.9726 N   0  0  0  0  0  0  0  0  0  0  0  0
   20.5552   -6.0709  -14.3658 C   0  0  1  0  0  0  0  0  0  0  0  0
   19.5446   -6.3916  -13.3174 C   0  0  0  0  0  0  0  0  0  0  0  0
   20.0437   -7.3269  -12.3053 C   0  0  0  0  0  0  0  0  0  0  0  0
   21.1440   -7.8889  -12.4426 O   0  0  0  0  0  0  0  0  0  0  0  0
   21.7879   -5.4159  -13.8529 C   0  0  0  0  0  0  0  0  0  0  0  0
   23.0021   -6.1017  -14.0159 O   0  0  0  0  0  0  0  0  0  0  0  0
   19.3167   -7.6235  -11.1602 O   0  0  0  0  0  0  0  0  0  0  0  0
   21.8093   -4.3064  -13.2924 O   0  0  0  0  0  0  0  0  0  0  0  0
  2  1  1  0
  3  2  1  0
  4  3  2  0
  6  5  1  6
  6  8  1  0
  7  6  1  0
  8  9  1  6
  9  3  1  0
 10 11  2  0
 10  8  1  0
 12 10  1  0
 13 12  1  0
 13 14  1  1
 15 16  2  0
 15 14  1  0
 17 13  1  0
 18 17  1  0
 19 15  1  0
 20 17  2  0
M  END
$$$$
