GTD.pdb
     RDKit          3D

 20 19  0  0  1  0  0  0  0  0999 V2000
   15.4710  -13.6360  -14.9799 N   0  0  0  0  0  0  0  0  0  0  0  0
   15.9028  -12.4360  -14.3461 C   0  0  0  0  0  0  0  0  0  0  0  0
   16.6108  -11.5930  -15.3669 C   0  0  0  0  0  0  0  0  0  0  0  0
   16.8585  -12.0277  -16.5216 O   0  0  0  0  0  0  0  0  0  0  0  0
   15.4821   -9.4917  -17.4122 C   0  0  0  0  0  0  0  0  0  0  0  0
   16.4314   -8.5464  -16.7029 C   0  0  1  0  0  0  0  0  0  0  0  0
   15.6723   -7.8668  -15.7390 O   0  0  0  0  0  0  0  0  0  0  0  0
   17.5363   -9.3505  -16.0462 C   0  0  2  0  0  0  0  0  0  0  0  0
   17.0299  -10.2673  -15.0681 N   0  0  0  0  0  0  0  0  0  0  0  0
   18.5472   -8.4557  -15.4298 C   0  0  0  0  0  0  0  0  0  0  0  0
   18.4386   -8.0806  -14.2138 O   0  0  0  0  0  0  0  0  0  0  0  0
   19.6731   -7.9684  -16.1313 N   0  0  0  0  0  0  0  0  0  0  0  0
   20.6636   -7.0655  -15.4796 C   0  0  1  0  0  0  0  0  0  0  0  0
   21.9936   -7.4332  -16.0447 C   0  0  0  0  0  0  0  0  0  0  0  0
   22.4977   -8.7139  -15.5407 C   0  0  0  0  0  0  0  0  0  0  0  0
   22.0233   -9.2267  -14.5125 O   0  0  0  0  0  0  0  0  0  0  0  0
   20.2468   -5.6634  -15.7481 C   0  0  0  0  0  0  0  0  0  0  0  0
   20.9165   -4.6438  -15.0533 O   0  0  0  0  0  0  0  0  0  0  0  0
   23.5171   -9.4036  -16.1832 O   0  0  0  0  0  0  0  0  0  0  0  0
   19.3481   -5.3410  -16.5443 O   0  0  0  0  0  0  0  0  0  0  0  0
  2  1  1  0
  3  2  1  0
  4  3  2  0
  6  5  1  1
  6  8  1  0
  7  6  1  0
  8  9  1  1
  9  3  1  0
 10 11  2  0
 10  8  1  0
 12 10  1  0
 13 12  1  0
 13 14  1  6
 15 16  2  0
 15 14  1  0
 17 13  1  0
 18 17  1  0
 19 15  1  0
 20 17  2  0
M  END
$$$$
