GTD.pdb
     RDKit          3D

 20 19  0  0  1  0  0  0  0  0999 V2000
   16.5325  -14.0558  -14.7542 N   0  0  0  0  0  0  0  0  0  0  0  0
   16.4792  -12.6603  -14.4754 C   0  0  0  0  0  0  0  0  0  0  0  0
   17.6492  -12.0011  -15.1468 C   0  0  0  0  0  0  0  0  0  0  0  0
   18.3192  -12.5938  -16.0320 O   0  0  0  0  0  0  0  0  0  0  0  0
   18.3420  -11.1049  -17.6382 C   0  0  0  0  0  0  0  0  0  0  0  0
   18.5321   -9.7365  -17.0145 C   0  0  1  0  0  0  0  0  0  0  0  0
   17.2881   -9.0919  -17.0786 O   0  0  0  0  0  0  0  0  0  0  0  0
   18.9764   -9.9030  -15.5746 C   0  0  2  0  0  0  0  0  0  0  0  0
   18.0466  -10.6784  -14.8079 N   0  0  0  0  0  0  0  0  0  0  0  0
   19.1908   -8.5830  -14.9310 C   0  0  0  0  0  0  0  0  0  0  0  0
   18.2686   -8.0306  -14.2411 O   0  0  0  0  0  0  0  0  0  0  0  0
   20.4027   -7.8636  -15.0359 N   0  0  0  0  0  0  0  0  0  0  0  0
   20.6017   -6.5689  -14.3252 C   0  0  1  0  0  0  0  0  0  0  0  0
   22.0672   -6.4550  -14.0750 C   0  0  0  0  0  0  0  0  0  0  0  0
   22.4268   -5.2638  -13.3002 C   0  0  0  0  0  0  0  0  0  0  0  0
   22.5891   -4.1646  -13.8576 O   0  0  0  0  0  0  0  0  0  0  0  0
   20.0370   -5.4898  -15.1786 C   0  0  0  0  0  0  0  0  0  0  0  0
   19.5345   -4.3489  -14.5330 O   0  0  0  0  0  0  0  0  0  0  0  0
   22.6004   -5.3104  -11.9235 O   0  0  0  0  0  0  0  0  0  0  0  0
   19.9827   -5.5357  -16.4198 O   0  0  0  0  0  0  0  0  0  0  0  0
  2  1  1  0
  3  2  1  0
  4  3  2  0
  6  5  1  1
  6  8  1  0
  7  6  1  0
  8  9  1  1
  9  3  1  0
 10 11  2  0
 10  8  1  0
 12 10  1  0
 13 12  1  0
 13 14  1  6
 15 16  2  0
 15 14  1  0
 17 13  1  0
 18 17  1  0
 19 15  1  0
 20 17  2  0
M  END
$$$$
