GTD.pdb
     RDKit          3D

 20 19  0  0  1  0  0  0  0  0999 V2000
   18.2663  -14.7975  -15.3056 N   0  0  0  0  0  0  0  0  0  0  0  0
   17.7248  -13.5147  -15.0071 C   0  0  0  0  0  0  0  0  0  0  0  0
   18.6007  -12.4744  -15.6432 C   0  0  0  0  0  0  0  0  0  0  0  0
   19.7229  -12.7683  -16.1312 O   0  0  0  0  0  0  0  0  0  0  0  0
   18.0359  -10.6834  -18.5811 C   0  0  0  0  0  0  0  0  0  0  0  0
   18.2613   -9.5491  -17.6011 C   0  0  1  0  0  0  0  0  0  0  0  0
   16.9937   -9.0457  -17.2743 O   0  0  0  0  0  0  0  0  0  0  0  0
   18.9587  -10.0882  -16.3676 C   0  0  2  0  0  0  0  0  0  0  0  0
   18.1955  -11.1134  -15.7194 N   0  0  0  0  0  0  0  0  0  0  0  0
   19.2598   -8.9953  -15.4098 C   0  0  0  0  0  0  0  0  0  0  0  0
   18.5806   -8.8556  -14.3372 O   0  0  0  0  0  0  0  0  0  0  0  0
   20.2951   -8.0555  -15.6155 N   0  0  0  0  0  0  0  0  0  0  0  0
   20.5855   -6.9885  -14.6164 C   0  0  1  0  0  0  0  0  0  0  0  0
   22.0529   -6.7356  -14.6955 C   0  0  0  0  0  0  0  0  0  0  0  0
   22.4873   -5.6093  -13.8641 C   0  0  0  0  0  0  0  0  0  0  0  0
   22.4273   -5.6706  -12.6240 O   0  0  0  0  0  0  0  0  0  0  0  0
   19.7391   -5.8116  -14.9485 C   0  0  0  0  0  0  0  0  0  0  0  0
   19.0913   -5.8100  -16.1940 O   0  0  0  0  0  0  0  0  0  0  0  0
   22.9798   -4.4361  -14.4197 O   0  0  0  0  0  0  0  0  0  0  0  0
   19.5711   -4.8361  -14.1964 O   0  0  0  0  0  0  0  0  0  0  0  0
  2  1  1  0
  3  2  1  0
  4  3  2  0
  6  5  1  6
  6  8  1  0
  7  6  1  0
  8  9  1  1
  9  3  1  0
 10 11  2  0
 10  8  1  0
 12 10  1  0
 13 12  1  0
 13 14  1  6
 15 16  2  0
 15 14  1  0
 17 13  1  0
 18 17  1  0
 19 15  1  0
 20 17  2  0
M  END
$$$$
