GTD.pdb
     RDKit          3D

 20 19  0  0  1  0  0  0  0  0999 V2000
   25.2470  -13.5618  -16.4085 N   0  0  0  0  0  0  0  0  0  0  0  0
   24.2763  -13.0611  -15.4946 C   0  0  0  0  0  0  0  0  0  0  0  0
   23.7333  -11.7734  -16.0433 C   0  0  0  0  0  0  0  0  0  0  0  0
   24.3584  -11.1140  -16.9140 O   0  0  0  0  0  0  0  0  0  0  0  0
   20.6724  -11.5720  -17.8363 C   0  0  0  0  0  0  0  0  0  0  0  0
   20.4843  -10.4953  -16.7860 C   0  0  1  0  0  0  0  0  0  0  0  0
   19.6519  -11.0417  -15.7983 O   0  0  0  0  0  0  0  0  0  0  0  0
   21.8348  -10.1254  -16.2049 C   0  0  2  0  0  0  0  0  0  0  0  0
   22.4888  -11.2475  -15.5995 N   0  0  0  0  0  0  0  0  0  0  0  0
   21.7033   -9.0216  -15.2215 C   0  0  0  0  0  0  0  0  0  0  0  0
   21.6319   -9.2620  -13.9692 O   0  0  0  0  0  0  0  0  0  0  0  0
   21.6488   -7.6599  -15.5960 N   0  0  0  0  0  0  0  0  0  0  0  0
   21.4392   -6.5842  -14.5862 C   0  0  1  0  0  0  0  0  0  0  0  0
   22.5093   -5.5745  -14.8286 C   0  0  0  0  0  0  0  0  0  0  0  0
   22.3544   -4.3662  -14.0133 C   0  0  0  0  0  0  0  0  0  0  0  0
   22.1839   -4.4428  -12.7844 O   0  0  0  0  0  0  0  0  0  0  0  0
   20.0550   -6.0667  -14.7533 C   0  0  0  0  0  0  0  0  0  0  0  0
   19.2966   -6.5768  -15.8188 O   0  0  0  0  0  0  0  0  0  0  0  0
   22.3908   -3.0959  -14.5724 O   0  0  0  0  0  0  0  0  0  0  0  0
   19.5320   -5.2160  -14.0127 O   0  0  0  0  0  0  0  0  0  0  0  0
  2  1  1  0
  3  2  1  0
  4  3  2  0
  6  5  1  6
  6  8  1  0
  7  6  1  0
  8  9  1  1
  9  3  1  0
 10 11  2  0
 10  8  1  0
 12 10  1  0
 13 12  1  0
 13 14  1  6
 15 16  2  0
 15 14  1  0
 17 13  1  0
 18 17  1  0
 19 15  1  0
 20 17  2  0
M  END
$$$$
