AKP.pdb
     RDKit          3D

 22 22  0  0  1  0  0  0  0  0999 V2000
    8.6967  -12.1287   19.6534 C   0  0  0  0  0  0  0  0  0  0  0  0
    8.5373  -13.6516   19.6975 C   0  0  2  0  0  0  0  0  0  0  0  0
    7.8118  -14.0423   18.5225 N   0  0  0  0  0  0  0  0  0  0  0  0
    7.7163  -13.9708   20.9179 C   0  0  0  0  0  0  0  0  0  0  0  0
    6.4932  -13.7046   20.9663 O   0  0  0  0  0  0  0  0  0  0  0  0
    8.3283  -14.5829   22.0363 N   0  0  0  0  0  0  0  0  0  0  0  0
    7.6244  -14.9339   23.2642 C   0  0  1  0  0  0  0  0  0  0  0  0
    7.6902  -16.4341   23.3242 C   0  0  0  0  0  0  0  0  0  0  0  0
    6.9568  -17.1545   22.2619 C   0  0  0  0  0  0  0  0  0  0  0  0
    7.0989  -18.6667   22.5207 C   0  0  0  0  0  0  0  0  0  0  0  0
    6.4459  -19.4186   21.3989 C   0  0  0  0  0  0  0  0  0  0  0  0
    6.9409  -20.8027   21.3938 N   0  0  0  0  0  0  0  0  0  0  0  0
    8.1577  -14.3072   24.4775 C   0  0  0  0  0  0  0  0  0  0  0  0
    9.4576  -14.2444   24.5255 O   0  0  0  0  0  0  0  0  0  0  0  0
    7.5078  -13.7713   25.5839 N   0  0  0  0  0  0  0  0  0  0  0  0
    6.1203  -13.6755   25.9026 C   0  0  0  0  0  0  0  0  0  0  0  0
    6.0837  -12.2055   26.3831 C   0  0  0  0  0  0  0  0  0  0  0  0
    7.2091  -12.2519   27.3927 C   0  0  0  0  0  0  0  0  0  0  0  0
    8.1979  -13.1776   26.7448 C   0  0  1  0  0  0  0  0  0  0  0  0
    8.5863  -14.2203   27.7158 C   0  0  0  0  0  0  0  0  0  0  0  0
    8.1040  -15.5020   27.4929 O   0  0  0  0  0  0  0  0  0  0  0  0
    9.3135  -14.0192   28.7124 O   0  0  0  0  0  0  0  0  0  0  0  0
  2  1  1  6
  2  4  1  0
  3  2  1  0
  4  5  2  0
  6  4  1  0
  6  7  1  0
  7 13  1  0
  7  8  1  1
  9 10  1  0
  9  8  1  0
 10 11  1  0
 11 12  1  0
 13 14  2  0
 13 15  1  0
 15 19  1  0
 15 16  1  0
 17 16  1  0
 18 17  1  0
 18 19  1  0
 19 20  1  1
 20 21  1  0
 22 20  2  0
M  END
$$$$
