AKP.pdb
     RDKit          3D

 22 22  0  0  1  0  0  0  0  0999 V2000
    8.5007  -12.6721   19.6817 C   0  0  0  0  0  0  0  0  0  0  0  0
    8.1762  -14.1662   19.7757 C   0  0  2  0  0  0  0  0  0  0  0  0
    7.2829  -14.4810   18.6975 N   0  0  0  0  0  0  0  0  0  0  0  0
    7.4678  -14.3788   21.0865 C   0  0  0  0  0  0  0  0  0  0  0  0
    6.2339  -14.1925   21.1962 O   0  0  0  0  0  0  0  0  0  0  0  0
    8.2004  -14.7969   22.2217 N   0  0  0  0  0  0  0  0  0  0  0  0
    7.5981  -15.1301   23.5072 C   0  0  1  0  0  0  0  0  0  0  0  0
    7.7474  -16.6211   23.6216 C   0  0  0  0  0  0  0  0  0  0  0  0
    7.2802  -17.2204   24.8896 C   0  0  0  0  0  0  0  0  0  0  0  0
    7.5081  -18.7423   24.8145 C   0  0  0  0  0  0  0  0  0  0  0  0
    6.8769  -19.3912   26.0106 C   0  0  0  0  0  0  0  0  0  0  0  0
    6.9243  -20.8514   25.8481 N   0  0  0  0  0  0  0  0  0  0  0  0
    8.1756  -14.4258   24.6561 C   0  0  0  0  0  0  0  0  0  0  0  0
    9.4776  -14.4117   24.6813 O   0  0  0  0  0  0  0  0  0  0  0  0
    7.5656  -13.7735   25.7219 N   0  0  0  0  0  0  0  0  0  0  0  0
    6.1917  -13.6543   26.0877 C   0  0  0  0  0  0  0  0  0  0  0  0
    6.1552  -12.1396   26.3999 C   0  0  0  0  0  0  0  0  0  0  0  0
    7.3227  -12.0611   27.3585 C   0  0  0  0  0  0  0  0  0  0  0  0
    8.2958  -13.0457   26.7772 C   0  0  1  0  0  0  0  0  0  0  0  0
    8.7390  -13.9678   27.8421 C   0  0  0  0  0  0  0  0  0  0  0  0
    9.6769  -13.4866   28.7443 O   0  0  0  0  0  0  0  0  0  0  0  0
    8.3250  -15.1395   27.9769 O   0  0  0  0  0  0  0  0  0  0  0  0
  2  1  1  6
  2  4  1  0
  3  2  1  0
  4  5  2  0
  6  4  1  0
  6  7  1  0
  7 13  1  0
  7  8  1  1
  9 10  1  0
  9  8  1  0
 10 11  1  0
 11 12  1  0
 13 14  2  0
 13 15  1  0
 15 19  1  0
 15 16  1  0
 17 16  1  0
 18 17  1  0
 18 19  1  0
 19 20  1  1
 20 21  1  0
 22 20  2  0
M  END
$$$$
