AKP.pdb
     RDKit          3D

 22 22  0  0  1  0  0  0  0  0999 V2000
    8.8932  -12.3386   19.7736 C   0  0  0  0  0  0  0  0  0  0  0  0
    8.4356  -13.7990   19.7096 C   0  0  2  0  0  0  0  0  0  0  0  0
    7.5760  -13.9308   18.5680 N   0  0  0  0  0  0  0  0  0  0  0  0
    7.6437  -14.0651   20.9616 C   0  0  0  0  0  0  0  0  0  0  0  0
    6.4458  -13.7120   21.0603 O   0  0  0  0  0  0  0  0  0  0  0  0
    8.2547  -14.7256   22.0527 N   0  0  0  0  0  0  0  0  0  0  0  0
    7.5717  -15.0498   23.2996 C   0  0  1  0  0  0  0  0  0  0  0  0
    7.6122  -16.5502   23.3758 C   0  0  0  0  0  0  0  0  0  0  0  0
    6.7289  -17.2676   22.4321 C   0  0  0  0  0  0  0  0  0  0  0  0
    6.8213  -18.7747   22.7387 C   0  0  0  0  0  0  0  0  0  0  0  0
    5.9593  -19.5254   21.7673 C   0  0  0  0  0  0  0  0  0  0  0  0
    6.6603  -20.7462   21.3442 N   0  0  0  0  0  0  0  0  0  0  0  0
    8.1425  -14.4190   24.4936 C   0  0  0  0  0  0  0  0  0  0  0  0
    9.4442  -14.3884   24.5174 O   0  0  0  0  0  0  0  0  0  0  0  0
    7.5264  -13.8509   25.6032 N   0  0  0  0  0  0  0  0  0  0  0  0
    6.1503  -13.7583   25.9685 C   0  0  0  0  0  0  0  0  0  0  0  0
    6.1136  -12.2726   26.3978 C   0  0  0  0  0  0  0  0  0  0  0  0
    7.2749  -12.2711   27.3670 C   0  0  0  0  0  0  0  0  0  0  0  0
    8.2506  -13.2089   26.7167 C   0  0  1  0  0  0  0  0  0  0  0  0
    8.6859  -14.2122   27.7091 C   0  0  0  0  0  0  0  0  0  0  0  0
    9.5805  -13.7909   28.6825 O   0  0  0  0  0  0  0  0  0  0  0  0
    8.3014  -15.4015   27.7239 O   0  0  0  0  0  0  0  0  0  0  0  0
  2  1  1  1
  2  4  1  0
  3  2  1  0
  4  5  2  0
  6  4  1  0
  6  7  1  0
  7 13  1  0
  7  8  1  1
  9 10  1  0
  9  8  1  0
 10 11  1  0
 11 12  1  0
 13 14  2  0
 13 15  1  0
 15 19  1  0
 15 16  1  0
 17 16  1  0
 18 17  1  0
 18 19  1  0
 19 20  1  1
 20 21  1  0
 22 20  2  0
M  END
$$$$
