AKP.pdb
     RDKit          3D

 22 22  0  0  1  0  0  0  0  0999 V2000
    8.9365  -12.3006   20.0277 C   0  0  0  0  0  0  0  0  0  0  0  0
    8.4303  -13.7248   19.7794 C   0  0  2  0  0  0  0  0  0  0  0  0
    7.5851  -13.6849   18.6202 N   0  0  0  0  0  0  0  0  0  0  0  0
    7.6099  -14.1135   20.9798 C   0  0  0  0  0  0  0  0  0  0  0  0
    6.4078  -13.7760   21.0824 O   0  0  0  0  0  0  0  0  0  0  0  0
    8.1981  -14.8741   22.0169 N   0  0  0  0  0  0  0  0  0  0  0  0
    7.5339  -15.1941   23.2749 C   0  0  1  0  0  0  0  0  0  0  0  0
    7.6014  -16.6924   23.3697 C   0  0  0  0  0  0  0  0  0  0  0  0
    7.0868  -17.2829   24.6235 C   0  0  0  0  0  0  0  0  0  0  0  0
    7.2290  -18.8140   24.5273 C   0  0  0  0  0  0  0  0  0  0  0  0
    6.5540  -19.4434   25.7099 C   0  0  0  0  0  0  0  0  0  0  0  0
    6.7511  -20.8992   25.6591 N   0  0  0  0  0  0  0  0  0  0  0  0
    8.1059  -14.5382   24.4548 C   0  0  0  0  0  0  0  0  0  0  0  0
    9.4076  -14.5126   24.4797 O   0  0  0  0  0  0  0  0  0  0  0  0
    7.4908  -13.9418   25.5501 N   0  0  0  0  0  0  0  0  0  0  0  0
    6.1236  -13.9092   25.9566 C   0  0  0  0  0  0  0  0  0  0  0  0
    6.0093  -12.4051   26.2997 C   0  0  0  0  0  0  0  0  0  0  0  0
    7.1979  -12.2765   27.2265 C   0  0  0  0  0  0  0  0  0  0  0  0
    8.2085  -13.1922   26.5986 C   0  0  1  0  0  0  0  0  0  0  0  0
    8.7349  -14.1064   27.6321 C   0  0  0  0  0  0  0  0  0  0  0  0
    9.6535  -13.5823   28.5303 O   0  0  0  0  0  0  0  0  0  0  0  0
    8.4064  -15.3072   27.7440 O   0  0  0  0  0  0  0  0  0  0  0  0
  2  1  1  1
  2  4  1  0
  3  2  1  0
  4  5  2  0
  6  4  1  0
  6  7  1  0
  7 13  1  0
  7  8  1  1
  9 10  1  0
  9  8  1  0
 10 11  1  0
 11 12  1  0
 13 14  2  0
 13 15  1  0
 15 19  1  0
 15 16  1  0
 17 16  1  0
 18 17  1  0
 18 19  1  0
 19 20  1  1
 20 21  1  0
 22 20  2  0
M  END
$$$$
