AKP.pdb
     RDKit          3D

 22 22  0  0  1  0  0  0  0  0999 V2000
   13.6092  -17.1243   22.5145 C   0  0  0  0  0  0  0  0  0  0  0  0
   12.4076  -17.5986   23.3377 C   0  0  2  0  0  0  0  0  0  0  0  0
   11.6580  -18.5086   22.5195 N   0  0  0  0  0  0  0  0  0  0  0  0
   11.5682  -16.3834   23.6274 C   0  0  0  0  0  0  0  0  0  0  0  0
   12.0270  -15.4167   24.2787 O   0  0  0  0  0  0  0  0  0  0  0  0
   10.2349  -16.3223   23.1595 N   0  0  0  0  0  0  0  0  0  0  0  0
    9.3605  -15.1677   23.3286 C   0  0  1  0  0  0  0  0  0  0  0  0
    8.5325  -15.1315   22.0749 C   0  0  0  0  0  0  0  0  0  0  0  0
    7.8246  -13.8618   21.8063 C   0  0  0  0  0  0  0  0  0  0  0  0
    7.1929  -13.9513   20.4039 C   0  0  0  0  0  0  0  0  0  0  0  0
    8.0861  -13.2560   19.4196 C   0  0  0  0  0  0  0  0  0  0  0  0
    7.5546  -13.4530   18.0633 N   0  0  0  0  0  0  0  0  0  0  0  0
    8.5328  -15.1970   24.5383 C   0  0  0  0  0  0  0  0  0  0  0  0
    8.4651  -16.3614   25.1175 O   0  0  0  0  0  0  0  0  0  0  0  0
    7.8082  -14.1908   25.1677 N   0  0  0  0  0  0  0  0  0  0  0  0
    7.4634  -12.8740   24.7400 C   0  0  0  0  0  0  0  0  0  0  0  0
    7.8077  -12.1014   26.0352 C   0  0  0  0  0  0  0  0  0  0  0  0
    7.0222  -12.9294   27.0280 C   0  0  0  0  0  0  0  0  0  0  0  0
    7.1850  -14.3248   26.4981 C   0  0  1  0  0  0  0  0  0  0  0  0
    5.8544  -14.9568   26.3947 C   0  0  0  0  0  0  0  0  0  0  0  0
    5.3040  -15.4650   27.5626 O   0  0  0  0  0  0  0  0  0  0  0  0
    5.2039  -15.0596   25.3322 O   0  0  0  0  0  0  0  0  0  0  0  0
  2  1  1  6
  2  4  1  0
  3  2  1  0
  4  5  2  0
  6  4  1  0
  6  7  1  0
  7 13  1  0
  7  8  1  6
  9 10  1  0
  9  8  1  0
 10 11  1  0
 11 12  1  0
 13 14  2  0
 13 15  1  0
 15 19  1  0
 15 16  1  0
 17 16  1  0
 18 17  1  0
 18 19  1  0
 19 20  1  6
 20 21  1  0
 22 20  2  0
M  END
$$$$
