AKP.pdb
     RDKit          3D

 22 22  0  0  1  0  0  0  0  0999 V2000
    8.5139  -12.5312   19.6195 C   0  0  0  0  0  0  0  0  0  0  0  0
    8.4019  -14.0503   19.7820 C   0  0  2  0  0  0  0  0  0  0  0  0
    7.6886  -14.5533   18.6428 N   0  0  0  0  0  0  0  0  0  0  0  0
    7.5914  -14.2991   21.0256 C   0  0  0  0  0  0  0  0  0  0  0  0
    6.3448  -14.4126   20.9771 O   0  0  0  0  0  0  0  0  0  0  0  0
    8.2405  -14.4083   22.2774 N   0  0  0  0  0  0  0  0  0  0  0  0
    7.5904  -14.8688   23.4988 C   0  0  1  0  0  0  0  0  0  0  0  0
    7.7280  -16.3648   23.4615 C   0  0  0  0  0  0  0  0  0  0  0  0
    7.1838  -17.0915   24.6282 C   0  0  0  0  0  0  0  0  0  0  0  0
    7.3737  -18.6011   24.3853 C   0  0  0  0  0  0  0  0  0  0  0  0
    6.8100  -19.3589   25.5506 C   0  0  0  0  0  0  0  0  0  0  0  0
    7.0960  -20.7905   25.3786 N   0  0  0  0  0  0  0  0  0  0  0  0
    8.1296  -14.2937   24.7349 C   0  0  0  0  0  0  0  0  0  0  0  0
    9.4300  -14.2409   24.7828 O   0  0  0  0  0  0  0  0  0  0  0  0
    7.4849  -13.7979   25.8627 N   0  0  0  0  0  0  0  0  0  0  0  0
    6.1151  -13.8471   26.2590 C   0  0  0  0  0  0  0  0  0  0  0  0
    5.9387  -12.3755   26.7021 C   0  0  0  0  0  0  0  0  0  0  0  0
    7.1158  -12.2632   27.6455 C   0  0  0  0  0  0  0  0  0  0  0  0
    8.1660  -13.0935   26.9656 C   0  0  1  0  0  0  0  0  0  0  0  0
    8.7225  -14.0541   27.9394 C   0  0  0  0  0  0  0  0  0  0  0  0
    9.6045  -13.5541   28.8865 O   0  0  0  0  0  0  0  0  0  0  0  0
    8.4498  -15.2739   27.9604 O   0  0  0  0  0  0  0  0  0  0  0  0
  2  1  1  6
  2  4  1  0
  3  2  1  0
  4  5  2  0
  6  4  1  0
  6  7  1  0
  7 13  1  0
  7  8  1  1
  9 10  1  0
  9  8  1  0
 10 11  1  0
 11 12  1  0
 13 14  2  0
 13 15  1  0
 15 19  1  0
 15 16  1  0
 17 16  1  0
 18 17  1  0
 18 19  1  0
 19 20  1  1
 20 21  1  0
 22 20  2  0
M  END
$$$$
