AKP.pdb
     RDKit          3D

 22 22  0  0  1  0  0  0  0  0999 V2000
   12.3905  -13.8260   20.6130 C   0  0  0  0  0  0  0  0  0  0  0  0
   11.6074  -15.1258   20.4040 C   0  0  2  0  0  0  0  0  0  0  0  0
   11.0771  -15.0988   19.0707 N   0  0  0  0  0  0  0  0  0  0  0  0
   10.4714  -15.1161   21.3912 C   0  0  0  0  0  0  0  0  0  0  0  0
    9.5130  -14.3183   21.2715 O   0  0  0  0  0  0  0  0  0  0  0  0
   10.4769  -16.0211   22.4780 N   0  0  0  0  0  0  0  0  0  0  0  0
    9.4196  -16.1045   23.4788 C   0  0  1  0  0  0  0  0  0  0  0  0
    9.0218  -17.5537   23.4912 C   0  0  0  0  0  0  0  0  0  0  0  0
    7.5893  -17.8268   23.7340 C   0  0  0  0  0  0  0  0  0  0  0  0
    7.4602  -19.2599   24.2848 C   0  0  0  0  0  0  0  0  0  0  0  0
    6.0082  -19.5765   24.4894 C   0  0  0  0  0  0  0  0  0  0  0  0
    5.8756  -20.9766   24.9168 N   0  0  0  0  0  0  0  0  0  0  0  0
    9.7967  -15.6223   24.8110 C   0  0  0  0  0  0  0  0  0  0  0  0
   11.0217  -15.8969   25.1573 O   0  0  0  0  0  0  0  0  0  0  0  0
    9.0649  -14.9236   25.7648 N   0  0  0  0  0  0  0  0  0  0  0  0
    7.7104  -14.4749   25.7658 C   0  0  0  0  0  0  0  0  0  0  0  0
    7.9326  -13.0369   26.2909 C   0  0  0  0  0  0  0  0  0  0  0  0
    8.7475  -13.3524   27.5256 C   0  0  0  0  0  0  0  0  0  0  0  0
    9.5953  -14.5076   27.0770 C   0  0  1  0  0  0  0  0  0  0  0  0
    9.4771  -15.6006   28.0629 C   0  0  0  0  0  0  0  0  0  0  0  0
   10.1900  -15.4645   29.2455 O   0  0  0  0  0  0  0  0  0  0  0  0
    8.7825  -16.6267   27.8974 O   0  0  0  0  0  0  0  0  0  0  0  0
  2  1  1  1
  2  4  1  0
  3  2  1  0
  4  5  2  0
  6  4  1  0
  6  7  1  0
  7 13  1  0
  7  8  1  1
  9 10  1  0
  9  8  1  0
 10 11  1  0
 11 12  1  0
 13 14  2  0
 13 15  1  0
 15 19  1  0
 15 16  1  0
 17 16  1  0
 18 17  1  0
 18 19  1  0
 19 20  1  1
 20 21  1  0
 22 20  2  0
M  END
$$$$
