AKP.pdb
     RDKit          3D

 22 22  0  0  1  0  0  0  0  0999 V2000
    7.4307  -12.8594   19.1754 C   0  0  0  0  0  0  0  0  0  0  0  0
    8.5239  -13.4911   20.0426 C   0  0  2  0  0  0  0  0  0  0  0  0
    8.8476  -14.7649   19.4662 N   0  0  0  0  0  0  0  0  0  0  0  0
    7.9316  -13.7003   21.4103 C   0  0  0  0  0  0  0  0  0  0  0  0
    7.4993  -12.7378   22.0855 O   0  0  0  0  0  0  0  0  0  0  0  0
    7.8573  -15.0046   21.9521 N   0  0  0  0  0  0  0  0  0  0  0  0
    7.3237  -15.3125   23.2738 C   0  0  1  0  0  0  0  0  0  0  0  0
    7.3090  -16.8139   23.3371 C   0  0  0  0  0  0  0  0  0  0  0  0
    6.9739  -17.4003   24.6521 C   0  0  0  0  0  0  0  0  0  0  0  0
    7.0642  -18.9337   24.5314 C   0  0  0  0  0  0  0  0  0  0  0  0
    6.6181  -19.5533   25.8227 C   0  0  0  0  0  0  0  0  0  0  0  0
    6.7988  -21.0101   25.7461 N   0  0  0  0  0  0  0  0  0  0  0  0
    8.0670  -14.7183   24.3891 C   0  0  0  0  0  0  0  0  0  0  0  0
    9.3421  -14.9829   24.3892 O   0  0  0  0  0  0  0  0  0  0  0  0
    7.6375  -13.9224   25.4453 N   0  0  0  0  0  0  0  0  0  0  0  0
    6.3389  -13.4449   25.7936 C   0  0  0  0  0  0  0  0  0  0  0  0
    6.6975  -11.9718   26.1010 C   0  0  0  0  0  0  0  0  0  0  0  0
    7.8338  -12.1965   27.0739 C   0  0  0  0  0  0  0  0  0  0  0  0
    8.5211  -13.4053   26.5075 C   0  0  1  0  0  0  0  0  0  0  0  0
    8.6948  -14.4050   27.5805 C   0  0  0  0  0  0  0  0  0  0  0  0
    9.6954  -14.1651   28.5113 O   0  0  0  0  0  0  0  0  0  0  0  0
    8.0034  -15.4398   27.6980 O   0  0  0  0  0  0  0  0  0  0  0  0
  2  1  1  6
  2  4  1  0
  3  2  1  0
  4  5  2  0
  6  4  1  0
  6  7  1  0
  7 13  1  0
  7  8  1  1
  9 10  1  0
  9  8  1  0
 10 11  1  0
 11 12  1  0
 13 14  2  0
 13 15  1  0
 15 19  1  0
 15 16  1  0
 17 16  1  0
 18 17  1  0
 18 19  1  0
 19 20  1  1
 20 21  1  0
 22 20  2  0
M  END
$$$$
