AKP.pdb
     RDKit          3D

 22 22  0  0  1  0  0  0  0  0999 V2000
    8.6175  -12.6419   19.7996 C   0  0  0  0  0  0  0  0  0  0  0  0
    8.3483  -14.1450   19.9211 C   0  0  2  0  0  0  0  0  0  0  0  0
    7.5386  -14.5289   18.8001 N   0  0  0  0  0  0  0  0  0  0  0  0
    7.5673  -14.3487   21.1915 C   0  0  0  0  0  0  0  0  0  0  0  0
    6.3799  -13.9626   21.2935 O   0  0  0  0  0  0  0  0  0  0  0  0
    8.1767  -14.9871   22.2965 N   0  0  0  0  0  0  0  0  0  0  0  0
    7.5268  -15.1878   23.5863 C   0  0  1  0  0  0  0  0  0  0  0  0
    7.5695  -16.6738   23.8061 C   0  0  0  0  0  0  0  0  0  0  0  0
    6.6132  -17.4711   23.0089 C   0  0  0  0  0  0  0  0  0  0  0  0
    6.8511  -18.9607   23.3223 C   0  0  0  0  0  0  0  0  0  0  0  0
    5.8860  -19.7884   22.5263 C   0  0  0  0  0  0  0  0  0  0  0  0
    6.0933  -21.2087   22.8433 N   0  0  0  0  0  0  0  0  0  0  0  0
    8.1286  -14.4459   24.6985 C   0  0  0  0  0  0  0  0  0  0  0  0
    9.4296  -14.3942   24.6710 O   0  0  0  0  0  0  0  0  0  0  0  0
    7.5427  -13.7913   25.7763 N   0  0  0  0  0  0  0  0  0  0  0  0
    6.1788  -13.6854   26.1819 C   0  0  0  0  0  0  0  0  0  0  0  0
    6.1330  -12.1685   26.4819 C   0  0  0  0  0  0  0  0  0  0  0  0
    7.3275  -12.0672   27.4044 C   0  0  0  0  0  0  0  0  0  0  0  0
    8.2949  -13.0452   26.8029 C   0  0  1  0  0  0  0  0  0  0  0  0
    8.7809  -13.9522   27.8621 C   0  0  0  0  0  0  0  0  0  0  0  0
    8.3149  -15.2589   27.8377 O   0  0  0  0  0  0  0  0  0  0  0  0
    9.5761  -13.6171   28.7666 O   0  0  0  0  0  0  0  0  0  0  0  0
  2  1  1  6
  2  4  1  0
  3  2  1  0
  4  5  2  0
  6  4  1  0
  6  7  1  0
  7 13  1  0
  7  8  1  1
  9 10  1  0
  9  8  1  0
 10 11  1  0
 11 12  1  0
 13 14  2  0
 13 15  1  0
 15 19  1  0
 15 16  1  0
 17 16  1  0
 18 17  1  0
 18 19  1  0
 19 20  1  1
 20 21  1  0
 22 20  2  0
M  END
$$$$
