AKP.pdb
     RDKit          3D

 22 22  0  0  1  0  0  0  0  0999 V2000
    8.7373  -12.2774   19.8226 C   0  0  0  0  0  0  0  0  0  0  0  0
    8.4565  -13.7826   19.7761 C   0  0  2  0  0  0  0  0  0  0  0  0
    7.6753  -14.0382   18.5997 N   0  0  0  0  0  0  0  0  0  0  0  0
    7.6404  -14.1136   20.9966 C   0  0  0  0  0  0  0  0  0  0  0  0
    6.4067  -13.8992   21.0313 O   0  0  0  0  0  0  0  0  0  0  0  0
    8.2692  -14.6779   22.1308 N   0  0  0  0  0  0  0  0  0  0  0  0
    7.5755  -15.0138   23.3687 C   0  0  1  0  0  0  0  0  0  0  0  0
    7.6359  -16.5136   23.4430 C   0  0  0  0  0  0  0  0  0  0  0  0
    6.6861  -17.2407   22.5743 C   0  0  0  0  0  0  0  0  0  0  0  0
    6.8326  -18.7480   22.8583 C   0  0  0  0  0  0  0  0  0  0  0  0
    6.0216  -19.5157   21.8567 C   0  0  0  0  0  0  0  0  0  0  0  0
    6.1374  -20.9529   22.1424 N   0  0  0  0  0  0  0  0  0  0  0  0
    8.1229  -14.3772   24.5706 C   0  0  0  0  0  0  0  0  0  0  0  0
    9.4236  -14.3684   24.6316 O   0  0  0  0  0  0  0  0  0  0  0  0
    7.4853  -13.7842   25.6548 N   0  0  0  0  0  0  0  0  0  0  0  0
    6.1052  -13.5203   25.9032 C   0  0  0  0  0  0  0  0  0  0  0  0
    6.2260  -12.0665   26.4178 C   0  0  0  0  0  0  0  0  0  0  0  0
    7.2799  -12.2727   27.4832 C   0  0  0  0  0  0  0  0  0  0  0  0
    8.1794  -13.3036   26.8646 C   0  0  1  0  0  0  0  0  0  0  0  0
    8.3809  -14.4045   27.8280 C   0  0  0  0  0  0  0  0  0  0  0  0
    9.2111  -14.1523   28.9106 O   0  0  0  0  0  0  0  0  0  0  0  0
    7.8551  -15.5341   27.7271 O   0  0  0  0  0  0  0  0  0  0  0  0
  2  1  1  1
  2  4  1  0
  3  2  1  0
  4  5  2  0
  6  4  1  0
  6  7  1  0
  7 13  1  0
  7  8  1  1
  9 10  1  0
  9  8  1  0
 10 11  1  0
 11 12  1  0
 13 14  2  0
 13 15  1  0
 15 19  1  0
 15 16  1  0
 17 16  1  0
 18 17  1  0
 18 19  1  0
 19 20  1  1
 20 21  1  0
 22 20  2  0
M  END
$$$$
