FKF.pdb
     RDKit          3D

 32 33  0  0  1  0  0  0  0  0999 V2000
    7.1835  -16.8492   25.9489 N   0  0  0  0  0  0  0  0  0  0  0  0
    6.4521  -16.4814   24.7561 C   0  0  1  0  0  0  0  0  0  0  0  0
    5.6841  -15.2099   24.9062 C   0  0  0  0  0  0  0  0  0  0  0  0
    6.4102  -14.0885   25.4794 C   0  0  0  0  0  0  0  0  0  0  0  0
    7.2251  -13.2514   24.7464 C   0  0  0  0  0  0  0  0  0  0  0  0
    7.9030  -12.1904   25.3368 C   0  0  0  0  0  0  0  0  0  0  0  0
    7.7825  -11.9404   26.6755 C   0  0  0  0  0  0  0  0  0  0  0  0
    6.9776  -12.7598   27.4238 C   0  0  0  0  0  0  0  0  0  0  0  0
    6.3034  -13.8181   26.8267 C   0  0  0  0  0  0  0  0  0  0  0  0
    7.3941  -16.5113   23.6194 C   0  0  0  0  0  0  0  0  0  0  0  0
    7.4920  -17.5353   22.8856 O   0  0  0  0  0  0  0  0  0  0  0  0
    8.2490  -15.4175   23.2615 N   0  0  0  0  0  0  0  0  0  0  0  0
    9.5039  -15.6199   22.5543 C   0  0  1  0  0  0  0  0  0  0  0  0
    9.5641  -14.4852   21.5187 C   0  0  0  0  0  0  0  0  0  0  0  0
    8.6611  -14.9036   20.3663 C   0  0  0  0  0  0  0  0  0  0  0  0
    8.6770  -13.8687   19.2677 C   0  0  0  0  0  0  0  0  0  0  0  0
    7.5983  -14.2890   18.2647 C   0  0  0  0  0  0  0  0  0  0  0  0
    7.6833  -13.3498   17.1441 N   0  0  0  0  0  0  0  0  0  0  0  0
   10.6793  -15.6333   23.4122 C   0  0  0  0  0  0  0  0  0  0  0  0
   11.3908  -14.6165   23.5901 O   0  0  0  0  0  0  0  0  0  0  0  0
   11.0532  -16.8262   24.0810 N   0  0  0  0  0  0  0  0  0  0  0  0
   12.0595  -16.8620   25.1235 C   0  0  1  0  0  0  0  0  0  0  0  0
   11.4569  -17.2496   26.4607 C   0  0  0  0  0  0  0  0  0  0  0  0
   10.5360  -16.1932   26.9467 C   0  0  0  0  0  0  0  0  0  0  0  0
    9.7141  -15.5497   26.0356 C   0  0  0  0  0  0  0  0  0  0  0  0
    8.8459  -14.5578   26.4754 C   0  0  0  0  0  0  0  0  0  0  0  0
    8.7694  -14.1856   27.7934 C   0  0  0  0  0  0  0  0  0  0  0  0
    9.5826  -14.8195   28.7069 C   0  0  0  0  0  0  0  0  0  0  0  0
   10.4441  -15.8059   28.2612 C   0  0  0  0  0  0  0  0  0  0  0  0
   13.1286  -17.8022   24.7244 C   0  0  0  0  0  0  0  0  0  0  0  0
   14.3411  -17.8715   25.3978 O   0  0  0  0  0  0  0  0  0  0  0  0
   12.9613  -18.5744   23.7485 O   0  0  0  0  0  0  0  0  0  0  0  0
  2  1  1  1
  2 10  1  0
  2  3  1  0
  3  4  1  0
  4  9  1  0
  4  5  2  0
  5  6  1  0
  6  7  2  0
  8  7  1  0
  9  8  2  0
 10 12  1  0
 10 11  2  0
 12 13  1  0
 13 19  1  0
 13 14  1  6
 15 14  1  0
 16 15  1  0
 17 16  1  0
 18 17  1  0
 19 20  2  0
 19 21  1  0
 21 22  1  0
 22 30  1  0
 22 23  1  1
 23 24  1  0
 24 25  2  0
 24 29  1  0
 25 26  1  0
 26 27  2  0
 28 27  1  0
 29 28  2  0
 30 31  1  0
 32 30  2  0
M  END
$$$$
