FKF.pdb
     RDKit          3D

 32 33  0  0  1  0  0  0  0  0999 V2000
    6.4939  -17.3053   21.5517 N   0  0  0  0  0  0  0  0  0  0  0  0
    7.5502  -16.4001   21.9490 C   0  0  1  0  0  0  0  0  0  0  0  0
    7.0666  -15.0127   22.2143 C   0  0  0  0  0  0  0  0  0  0  0  0
    7.4603  -14.0025   21.2459 C   0  0  0  0  0  0  0  0  0  0  0  0
    8.3518  -14.2346   20.2196 C   0  0  0  0  0  0  0  0  0  0  0  0
    8.7015  -13.2373   19.3158 C   0  0  0  0  0  0  0  0  0  0  0  0
    8.1679  -11.9826   19.4163 C   0  0  0  0  0  0  0  0  0  0  0  0
    7.2794  -11.7291   20.4290 C   0  0  0  0  0  0  0  0  0  0  0  0
    6.9348  -12.7309   21.3283 C   0  0  0  0  0  0  0  0  0  0  0  0
    8.2895  -17.0271   23.0629 C   0  0  0  0  0  0  0  0  0  0  0  0
    7.6839  -17.4341   24.0946 O   0  0  0  0  0  0  0  0  0  0  0  0
    9.7097  -17.2229   23.0692 N   0  0  0  0  0  0  0  0  0  0  0  0
   10.4148  -17.7123   24.2436 C   0  0  1  0  0  0  0  0  0  0  0  0
   11.7318  -18.2931   23.7032 C   0  0  0  0  0  0  0  0  0  0  0  0
   11.3552  -19.4953   22.8480 C   0  0  0  0  0  0  0  0  0  0  0  0
   12.5887  -20.2022   22.3413 C   0  0  0  0  0  0  0  0  0  0  0  0
   12.0937  -21.4010   21.5264 C   0  0  0  0  0  0  0  0  0  0  0  0
   13.2805  -22.0150   20.9265 N   0  0  0  0  0  0  0  0  0  0  0  0
   10.6468  -16.7034   25.2664 C   0  0  0  0  0  0  0  0  0  0  0  0
   11.3923  -15.7138   25.0745 O   0  0  0  0  0  0  0  0  0  0  0  0
   10.0191  -16.8219   26.5320 N   0  0  0  0  0  0  0  0  0  0  0  0
   10.4105  -16.0315   27.6821 C   0  0  1  0  0  0  0  0  0  0  0  0
    9.2090  -15.3788   28.3393 C   0  0  0  0  0  0  0  0  0  0  0  0
    8.5206  -14.4710   27.3894 C   0  0  0  0  0  0  0  0  0  0  0  0
    7.4602  -14.9604   26.6439 C   0  0  0  0  0  0  0  0  0  0  0  0
    6.8050  -14.1223   25.7498 C   0  0  0  0  0  0  0  0  0  0  0  0
    7.1715  -12.8123   25.5738 C   0  0  0  0  0  0  0  0  0  0  0  0
    8.2247  -12.3164   26.3104 C   0  0  0  0  0  0  0  0  0  0  0  0
    8.8717  -13.1570   27.1984 C   0  0  0  0  0  0  0  0  0  0  0  0
   11.1371  -16.8988   28.6339 C   0  0  0  0  0  0  0  0  0  0  0  0
   11.8185  -16.3854   29.7295 O   0  0  0  0  0  0  0  0  0  0  0  0
   11.1549  -18.1436   28.4700 O   0  0  0  0  0  0  0  0  0  0  0  0
  2  1  1  1
  2 10  1  0
  2  3  1  0
  3  4  1  0
  4  9  1  0
  4  5  2  0
  5  6  1  0
  6  7  2  0
  8  7  1  0
  9  8  2  0
 10 12  1  0
 10 11  2  0
 12 13  1  0
 13 19  1  0
 13 14  1  6
 15 14  1  0
 16 15  1  0
 17 16  1  0
 18 17  1  0
 19 20  2  0
 19 21  1  0
 21 22  1  0
 22 30  1  0
 22 23  1  1
 23 24  1  0
 24 25  2  0
 24 29  1  0
 25 26  1  0
 26 27  2  0
 28 27  1  0
 29 28  2  0
 30 31  1  0
 32 30  2  0
M  END
$$$$
