FKF.pdb
     RDKit          3D

 32 33  0  0  1  0  0  0  0  0999 V2000
   10.1022  -18.0255   20.1328 N   0  0  0  0  0  0  0  0  0  0  0  0
    9.4439  -16.8269   20.6052 C   0  0  1  0  0  0  0  0  0  0  0  0
    8.5616  -16.1973   19.5785 C   0  0  0  0  0  0  0  0  0  0  0  0
    8.1271  -14.8381   19.8559 C   0  0  0  0  0  0  0  0  0  0  0  0
    8.9291  -13.7295   19.6825 C   0  0  0  0  0  0  0  0  0  0  0  0
    8.4723  -12.4462   19.9623 C   0  0  0  0  0  0  0  0  0  0  0  0
    7.2016  -12.2399   20.4227 C   0  0  0  0  0  0  0  0  0  0  0  0
    6.3868  -13.3275   20.6027 C   0  0  0  0  0  0  0  0  0  0  0  0
    6.8503  -14.6069   20.3209 C   0  0  0  0  0  0  0  0  0  0  0  0
    8.7814  -17.1481   21.8852 C   0  0  0  0  0  0  0  0  0  0  0  0
    8.0472  -16.2992   22.4657 O   0  0  0  0  0  0  0  0  0  0  0  0
    8.9088  -18.4085   22.5564 N   0  0  0  0  0  0  0  0  0  0  0  0
    8.1937  -18.7007   23.7890 C   0  0  1  0  0  0  0  0  0  0  0  0
    7.7562  -20.1686   23.6563 C   0  0  0  0  0  0  0  0  0  0  0  0
    7.0890  -20.5414   24.9733 C   0  0  0  0  0  0  0  0  0  0  0  0
    6.5155  -21.9360   24.9096 C   0  0  0  0  0  0  0  0  0  0  0  0
    5.8238  -22.1789   26.2546 C   0  0  0  0  0  0  0  0  0  0  0  0
    5.3858  -23.5765   26.2509 N   0  0  0  0  0  0  0  0  0  0  0  0
    8.9691  -18.4737   24.9994 C   0  0  0  0  0  0  0  0  0  0  0  0
    8.8464  -19.1934   26.0186 O   0  0  0  0  0  0  0  0  0  0  0  0
    9.9023  -17.4078   25.0519 N   0  0  0  0  0  0  0  0  0  0  0  0
    9.6097  -16.1355   25.6816 C   0  0  1  0  0  0  0  0  0  0  0  0
    8.6694  -15.3014   24.8321 C   0  0  0  0  0  0  0  0  0  0  0  0
    8.2811  -14.0598   25.5447 C   0  0  0  0  0  0  0  0  0  0  0  0
    6.9708  -13.6183   25.4561 C   0  0  0  0  0  0  0  0  0  0  0  0
    6.5916  -12.4568   26.1181 C   0  0  0  0  0  0  0  0  0  0  0  0
    7.4748  -11.7203   26.8657 C   0  0  0  0  0  0  0  0  0  0  0  0
    8.7799  -12.1511   26.9598 C   0  0  0  0  0  0  0  0  0  0  0  0
    9.1496  -13.3083   26.2980 C   0  0  0  0  0  0  0  0  0  0  0  0
    9.0410  -16.3854   27.0234 C   0  0  0  0  0  0  0  0  0  0  0  0
    9.6069  -15.8568   28.1760 O   0  0  0  0  0  0  0  0  0  0  0  0
    8.0133  -17.0950   27.1537 O   0  0  0  0  0  0  0  0  0  0  0  0
  2  1  1  6
  2 10  1  0
  2  3  1  0
  3  4  1  0
  4  9  1  0
  4  5  2  0
  5  6  1  0
  6  7  2  0
  8  7  1  0
  9  8  2  0
 10 12  1  0
 10 11  2  0
 12 13  1  0
 13 19  1  0
 13 14  1  6
 15 14  1  0
 16 15  1  0
 17 16  1  0
 18 17  1  0
 19 20  2  0
 19 21  1  0
 21 22  1  0
 22 30  1  0
 22 23  1  6
 23 24  1  0
 24 25  2  0
 24 29  1  0
 25 26  1  0
 26 27  2  0
 28 27  1  0
 29 28  2  0
 30 31  1  0
 32 30  2  0
M  END
$$$$
