FKF.pdb
     RDKit          3D

 32 33  0  0  1  0  0  0  0  0999 V2000
    7.6424  -17.0173   20.9256 N   0  0  0  0  0  0  0  0  0  0  0  0
    8.3381  -16.1522   21.8533 C   0  0  1  0  0  0  0  0  0  0  0  0
    7.6599  -14.8371   22.0522 C   0  0  0  0  0  0  0  0  0  0  0  0
    7.6445  -13.9457   20.9040 C   0  0  0  0  0  0  0  0  0  0  0  0
    8.7724  -13.3377   20.3939 C   0  0  0  0  0  0  0  0  0  0  0  0
    8.7112  -12.4899   19.2933 C   0  0  0  0  0  0  0  0  0  0  0  0
    7.5199  -12.2292   18.6754 C   0  0  0  0  0  0  0  0  0  0  0  0
    6.3855  -12.8229   19.1654 C   0  0  0  0  0  0  0  0  0  0  0  0
    6.4546  -13.6689   20.2657 C   0  0  0  0  0  0  0  0  0  0  0  0
    8.5862  -16.9199   23.0901 C   0  0  0  0  0  0  0  0  0  0  0  0
    7.6615  -17.1134   23.9291 O   0  0  0  0  0  0  0  0  0  0  0  0
    9.8544  -17.4936   23.4332 N   0  0  0  0  0  0  0  0  0  0  0  0
   10.1373  -17.9943   24.7694 C   0  0  1  0  0  0  0  0  0  0  0  0
   11.2622  -19.0247   24.5779 C   0  0  0  0  0  0  0  0  0  0  0  0
   10.7165  -20.0903   23.6371 C   0  0  0  0  0  0  0  0  0  0  0  0
   11.7497  -21.1598   23.3789 C   0  0  0  0  0  0  0  0  0  0  0  0
   11.1464  -22.0965   22.3277 C   0  0  0  0  0  0  0  0  0  0  0  0
   12.1213  -23.1691   22.1176 N   0  0  0  0  0  0  0  0  0  0  0  0
   10.5040  -16.9641   25.7296 C   0  0  0  0  0  0  0  0  0  0  0  0
   11.3621  -16.0861   25.4755 O   0  0  0  0  0  0  0  0  0  0  0  0
    9.8830  -16.9315   27.0037 N   0  0  0  0  0  0  0  0  0  0  0  0
   10.3770  -16.1221   28.0999 C   0  0  1  0  0  0  0  0  0  0  0  0
    9.2797  -15.2517   28.6829 C   0  0  0  0  0  0  0  0  0  0  0  0
    8.7226  -14.3470   27.6478 C   0  0  0  0  0  0  0  0  0  0  0  0
    9.2134  -13.0547   27.5530 C   0  0  0  0  0  0  0  0  0  0  0  0
    8.7017  -12.1952   26.5885 C   0  0  0  0  0  0  0  0  0  0  0  0
    7.7169  -12.5804   25.7150 C   0  0  0  0  0  0  0  0  0  0  0  0
    7.2223  -13.8633   25.8014 C   0  0  0  0  0  0  0  0  0  0  0  0
    7.7369  -14.7130   26.7642 C   0  0  0  0  0  0  0  0  0  0  0  0
   10.9585  -17.0121   29.1275 C   0  0  0  0  0  0  0  0  0  0  0  0
   11.7001  -16.5229   30.1948 O   0  0  0  0  0  0  0  0  0  0  0  0
   10.7917  -18.2546   29.0572 O   0  0  0  0  0  0  0  0  0  0  0  0
  2  1  1  6
  2 10  1  0
  2  3  1  0
  3  4  1  0
  4  9  1  0
  4  5  2  0
  5  6  1  0
  6  7  2  0
  8  7  1  0
  9  8  2  0
 10 12  1  0
 10 11  2  0
 12 13  1  0
 13 19  1  0
 13 14  1  6
 15 14  1  0
 16 15  1  0
 17 16  1  0
 18 17  1  0
 19 20  2  0
 19 21  1  0
 21 22  1  0
 22 30  1  0
 22 23  1  1
 23 24  1  0
 24 25  2  0
 24 29  1  0
 25 26  1  0
 26 27  2  0
 28 27  1  0
 29 28  2  0
 30 31  1  0
 32 30  2  0
M  END
$$$$
