FKF.pdb
     RDKit          3D

 32 33  0  0  1  0  0  0  0  0999 V2000
    8.4324  -16.5632   20.9300 N   0  0  0  0  0  0  0  0  0  0  0  0
    7.9982  -15.6105   21.9284 C   0  0  1  0  0  0  0  0  0  0  0  0
    6.8358  -14.7843   21.4863 C   0  0  0  0  0  0  0  0  0  0  0  0
    7.0902  -13.8531   20.3994 C   0  0  0  0  0  0  0  0  0  0  0  0
    6.5097  -13.9575   19.1527 C   0  0  0  0  0  0  0  0  0  0  0  0
    6.7832  -13.0440   18.1405 C   0  0  0  0  0  0  0  0  0  0  0  0
    7.6445  -12.0031   18.3503 C   0  0  0  0  0  0  0  0  0  0  0  0
    8.2332  -11.8798   19.5822 C   0  0  0  0  0  0  0  0  0  0  0  0
    7.9549  -12.7966   20.5887 C   0  0  0  0  0  0  0  0  0  0  0  0
    7.7983  -16.3415   23.1958 C   0  0  0  0  0  0  0  0  0  0  0  0
    7.3471  -15.7531   24.2190 O   0  0  0  0  0  0  0  0  0  0  0  0
    8.0878  -17.7349   23.3686 N   0  0  0  0  0  0  0  0  0  0  0  0
    8.1424  -18.3532   24.6841 C   0  0  1  0  0  0  0  0  0  0  0  0
    8.3847  -19.8468   24.4117 C   0  0  0  0  0  0  0  0  0  0  0  0
    8.2286  -20.5605   25.7476 C   0  0  0  0  0  0  0  0  0  0  0  0
    8.4972  -22.0386   25.6021 C   0  0  0  0  0  0  0  0  0  0  0  0
    9.0232  -22.5163   26.9591 C   0  0  0  0  0  0  0  0  0  0  0  0
    7.9207  -23.2330   27.6040 N   0  0  0  0  0  0  0  0  0  0  0  0
    9.1539  -17.7926   25.5676 C   0  0  0  0  0  0  0  0  0  0  0  0
   10.3453  -17.6378   25.2092 O   0  0  0  0  0  0  0  0  0  0  0  0
    8.8040  -17.4004   26.8843 N   0  0  0  0  0  0  0  0  0  0  0  0
    9.7510  -16.8061   27.8067 C   0  0  1  0  0  0  0  0  0  0  0  0
    9.0897  -15.7535   28.6763 C   0  0  0  0  0  0  0  0  0  0  0  0
    8.4995  -14.6789   27.8414 C   0  0  0  0  0  0  0  0  0  0  0  0
    9.2425  -13.5349   27.5983 C   0  0  0  0  0  0  0  0  0  0  0  0
    8.7034  -12.5193   26.8180 C   0  0  0  0  0  0  0  0  0  0  0  0
    7.4483  -12.6055   26.2717 C   0  0  0  0  0  0  0  0  0  0  0  0
    6.7017  -13.7389   26.5078 C   0  0  0  0  0  0  0  0  0  0  0  0
    7.2453  -14.7456   27.2855 C   0  0  0  0  0  0  0  0  0  0  0  0
   10.3559  -17.8770   28.6274 C   0  0  0  0  0  0  0  0  0  0  0  0
   11.4539  -17.6493   29.4465 O   0  0  0  0  0  0  0  0  0  0  0  0
    9.8814  -19.0392   28.6018 O   0  0  0  0  0  0  0  0  0  0  0  0
  2  1  1  6
  2 10  1  0
  2  3  1  0
  3  4  1  0
  4  9  1  0
  4  5  2  0
  5  6  1  0
  6  7  2  0
  8  7  1  0
  9  8  2  0
 10 12  1  0
 10 11  2  0
 12 13  1  0
 13 19  1  0
 13 14  1  6
 15 14  1  0
 16 15  1  0
 17 16  1  0
 18 17  1  0
 19 20  2  0
 19 21  1  0
 21 22  1  0
 22 30  1  0
 22 23  1  1
 23 24  1  0
 24 25  2  0
 24 29  1  0
 25 26  1  0
 26 27  2  0
 28 27  1  0
 29 28  2  0
 30 31  1  0
 32 30  2  0
M  END
$$$$
