FRW.pdb
     RDKit          3D

 37 39  0  0  1  0  0  0  0  0999 V2000
   27.2207  -18.5608  -12.5958 N   0  0  0  0  0  0  0  0  0  0  0  0
   27.8772  -19.8427  -12.7529 C   0  0  1  0  0  0  0  0  0  0  0  0
   27.3013  -20.8311  -11.7982 C   0  0  0  0  0  0  0  0  0  0  0  0
   27.8194  -20.4930  -10.4443 C   0  0  0  0  0  0  0  0  0  0  0  0
   28.9904  -21.0161   -9.9356 C   0  0  0  0  0  0  0  0  0  0  0  0
   29.4672  -20.6985   -8.6867 C   0  0  0  0  0  0  0  0  0  0  0  0
   28.7781  -19.8323   -7.8891 C   0  0  0  0  0  0  0  0  0  0  0  0
   27.5942  -19.2884   -8.3745 C   0  0  0  0  0  0  0  0  0  0  0  0
   27.1323  -19.6155   -9.6235 C   0  0  0  0  0  0  0  0  0  0  0  0
   27.7515  -20.2390  -14.1794 C   0  0  0  0  0  0  0  0  0  0  0  0
   26.6879  -20.1405  -14.8406 O   0  0  0  0  0  0  0  0  0  0  0  0
   31.4954  -25.5749  -16.1128 N   0  0  0  0  0  0  0  0  0  0  0  0
   30.8151  -25.9888  -17.2975 C   0  0  0  0  0  0  0  0  0  0  0  0
   30.2039  -27.1025  -17.3470 N   0  0  0  0  0  0  0  0  0  0  0  0
   30.8204  -25.1289  -18.4473 N   0  0  0  0  0  0  0  0  0  0  0  0
   30.9461  -23.6952  -18.3191 C   0  0  0  0  0  0  0  0  0  0  0  0
   29.6984  -23.1358  -17.7329 C   0  0  0  0  0  0  0  0  0  0  0  0
   30.0065  -22.3469  -16.4810 C   0  0  0  0  0  0  0  0  0  0  0  0
   28.7568  -21.7503  -15.9571 C   0  0  2  0  0  0  0  0  0  0  0  0
   28.8439  -20.7751  -14.9383 N   0  0  0  0  0  0  0  0  0  0  0  0
   27.6716  -22.6974  -15.6280 C   0  0  0  0  0  0  0  0  0  0  0  0
   27.8353  -23.4944  -14.6716 O   0  0  0  0  0  0  0  0  0  0  0  0
   29.7964  -27.4631  -18.2256 N   0  0  0  0  0  0  0  0  0  0  0  0
   26.4452  -22.7776  -16.3142 C   0  0  1  0  0  0  0  0  0  0  0  0
   25.3627  -23.7010  -15.9525 C   0  0  0  0  0  0  0  0  0  0  0  0
   25.0745  -23.6287  -14.4870 C   0  0  0  0  0  0  0  0  0  0  0  0
   24.3583  -22.3963  -14.1187 C   0  0  0  0  0  0  0  0  0  0  0  0
   23.5336  -21.7050  -15.0129 N   0  0  0  0  0  0  0  0  0  0  0  0
   22.9903  -20.6613  -14.3568 C   0  0  0  0  0  0  0  0  0  0  0  0
   23.4100  -20.6185  -13.0714 C   0  0  0  0  0  0  0  0  0  0  0  0
   23.1421  -19.7550  -12.0288 C   0  0  0  0  0  0  0  0  0  0  0  0
   23.7352  -19.9676  -10.8123 C   0  0  0  0  0  0  0  0  0  0  0  0
   24.5779  -21.0375  -10.6779 C   0  0  0  0  0  0  0  0  0  0  0  0
   24.8661  -21.9246  -11.7121 C   0  0  0  0  0  0  0  0  0  0  0  0
   24.2666  -21.7095  -12.9370 C   0  0  0  0  0  0  0  0  0  0  0  0
   24.2307  -23.6093  -16.8572 O   0  0  0  0  0  0  0  0  0  0  0  0
   24.0179  -22.7019  -17.8681 O   0  0  0  0  0  0  0  0  0  0  0  0
  2  1  1  6
  2  3  1  0
  3  4  1  0
  4  9  2  0
  5  6  2  0
  5  4  1  0
  6  7  1  0
  7  8  2  0
  9  8  1  0
 10 11  2  0
 10  2  1  0
 12 13  1  0
 13 14  2  0
 13 15  1  0
 15 16  1  0
 16 17  1  0
 17 18  1  0
 19 18  1  1
 19 20  1  0
 20 10  1  0
 21 19  1  0
 21 23  1  0
 22 21  2  0
 24 23  1  0
 24 35  1  0
 24 25  1  6
 26 25  1  0
 27 26  2  0
 28 29  1  0
 28 27  1  0
 29 34  2  0
 30 29  1  0
 30 31  2  0
 31 32  1  0
 32 33  2  0
 34 26  1  0
 34 33  1  0
 35 36  1  0
 37 35  2  0
M  END
$$$$
