FRW.pdb
     RDKit          3D

 37 39  0  0  1  0  0  0  0  0999 V2000
   26.2642  -17.7117  -16.3356 N   0  0  0  0  0  0  0  0  0  0  0  0
   27.0413  -18.3154  -15.2723 C   0  0  1  0  0  0  0  0  0  0  0  0
   27.8803  -17.2815  -14.6036 C   0  0  0  0  0  0  0  0  0  0  0  0
   28.8678  -16.7961  -15.6060 C   0  0  0  0  0  0  0  0  0  0  0  0
   29.8893  -17.5831  -16.0967 C   0  0  0  0  0  0  0  0  0  0  0  0
   30.7966  -17.1323  -17.0249 C   0  0  0  0  0  0  0  0  0  0  0  0
   30.7132  -15.8572  -17.5028 C   0  0  0  0  0  0  0  0  0  0  0  0
   29.6939  -15.0400  -17.0271 C   0  0  0  0  0  0  0  0  0  0  0  0
   28.7962  -15.5054  -16.1009 C   0  0  0  0  0  0  0  0  0  0  0  0
   26.0930  -19.0046  -14.3595 C   0  0  0  0  0  0  0  0  0  0  0  0
   25.0463  -18.4749  -13.9099 O   0  0  0  0  0  0  0  0  0  0  0  0
   25.4213  -26.0766  -14.8917 N   0  0  0  0  0  0  0  0  0  0  0  0
   25.8551  -25.4289  -16.0874 C   0  0  0  0  0  0  0  0  0  0  0  0
   26.7957  -25.9145  -16.7915 N   0  0  0  0  0  0  0  0  0  0  0  0
   25.2135  -24.2124  -16.4998 N   0  0  0  0  0  0  0  0  0  0  0  0
   24.1784  -23.5953  -15.7026 C   0  0  0  0  0  0  0  0  0  0  0  0
   24.6752  -22.3057  -15.1520 C   0  0  0  0  0  0  0  0  0  0  0  0
   24.9310  -22.4249  -13.6671 C   0  0  0  0  0  0  0  0  0  0  0  0
   25.3797  -21.1161  -13.1399 C   0  0  2  0  0  0  0  0  0  0  0  0
   26.2884  -20.3505  -13.9044 N   0  0  0  0  0  0  0  0  0  0  0  0
   25.8015  -21.0949  -11.7241 C   0  0  0  0  0  0  0  0  0  0  0  0
   27.0166  -21.2596  -11.4536 O   0  0  0  0  0  0  0  0  0  0  0  0
   27.1252  -25.4531  -17.6555 N   0  0  0  0  0  0  0  0  0  0  0  0
   24.9326  -20.8999  -10.6340 C   0  0  1  0  0  0  0  0  0  0  0  0
   25.3276  -21.0707   -9.2304 C   0  0  0  0  0  0  0  0  0  0  0  0
   26.6147  -20.3615   -8.9540 C   0  0  0  0  0  0  0  0  0  0  0  0
   26.9778  -20.3986   -7.5278 C   0  0  0  0  0  0  0  0  0  0  0  0
   26.3241  -21.2191   -6.6021 N   0  0  0  0  0  0  0  0  0  0  0  0
   26.9242  -21.0590   -5.4066 C   0  0  0  0  0  0  0  0  0  0  0  0
   27.9441  -20.1734   -5.4851 C   0  0  0  0  0  0  0  0  0  0  0  0
   28.8337  -19.6868   -4.5491 C   0  0  0  0  0  0  0  0  0  0  0  0
   29.7761  -18.7694   -4.9326 C   0  0  0  0  0  0  0  0  0  0  0  0
   29.7980  -18.3680   -6.2408 C   0  0  0  0  0  0  0  0  0  0  0  0
   28.9133  -18.8421   -7.2060 C   0  0  0  0  0  0  0  0  0  0  0  0
   27.9650  -19.7674   -6.8181 C   0  0  0  0  0  0  0  0  0  0  0  0
   24.2281  -20.8331   -8.3124 O   0  0  0  0  0  0  0  0  0  0  0  0
   24.0038  -21.4070   -7.0832 O   0  0  0  0  0  0  0  0  0  0  0  0
  2  1  1  6
  2  3  1  0
  3  4  1  0
  4  9  2  0
  5  6  2  0
  5  4  1  0
  6  7  1  0
  7  8  2  0
  9  8  1  0
 10 11  2  0
 10  2  1  0
 12 13  1  0
 13 14  2  0
 13 15  1  0
 15 16  1  0
 16 17  1  0
 17 18  1  0
 19 18  1  6
 19 20  1  0
 20 10  1  0
 21 19  1  0
 21 23  1  0
 22 21  2  0
 24 23  1  0
 24 35  1  0
 24 25  1  1
 26 25  1  0
 27 26  2  0
 28 29  1  0
 28 27  1  0
 29 34  2  0
 30 29  1  0
 30 31  2  0
 31 32  1  0
 32 33  2  0
 34 26  1  0
 34 33  1  0
 35 36  1  0
 37 35  2  0
M  END
$$$$
