FRW.pdb
     RDKit          3D

 37 39  0  0  1  0  0  0  0  0999 V2000
   22.1297  -28.0872  -14.9501 N   0  0  0  0  0  0  0  0  0  0  0  0
   21.9472  -26.6549  -14.8322 C   0  0  1  0  0  0  0  0  0  0  0  0
   20.9182  -26.3553  -13.7971 C   0  0  0  0  0  0  0  0  0  0  0  0
   19.5847  -26.5674  -14.4235 C   0  0  0  0  0  0  0  0  0  0  0  0
   18.9479  -25.6047  -15.1795 C   0  0  0  0  0  0  0  0  0  0  0  0
   17.7186  -25.8060  -15.7593 C   0  0  0  0  0  0  0  0  0  0  0  0
   17.0718  -26.9966  -15.6007 C   0  0  0  0  0  0  0  0  0  0  0  0
   17.6887  -27.9866  -14.8440 C   0  0  0  0  0  0  0  0  0  0  0  0
   18.9161  -27.7698  -14.2724 C   0  0  0  0  0  0  0  0  0  0  0  0
   23.2771  -26.0550  -14.5511 C   0  0  0  0  0  0  0  0  0  0  0  0
   24.2253  -26.6791  -14.0130 O   0  0  0  0  0  0  0  0  0  0  0  0
   30.4971  -24.7810  -15.2834 N   0  0  0  0  0  0  0  0  0  0  0  0
   29.6610  -25.5997  -16.1008 C   0  0  0  0  0  0  0  0  0  0  0  0
   29.9084  -26.8365  -16.2594 N   0  0  0  0  0  0  0  0  0  0  0  0
   28.5214  -25.0137  -16.7487 N   0  0  0  0  0  0  0  0  0  0  0  0
   28.1434  -23.6386  -16.5165 C   0  0  0  0  0  0  0  0  0  0  0  0
   27.1576  -23.5735  -15.4042 C   0  0  0  0  0  0  0  0  0  0  0  0
   25.8952  -24.3204  -15.7684 C   0  0  0  0  0  0  0  0  0  0  0  0
   24.8667  -24.0812  -14.7305 C   0  0  2  0  0  0  0  0  0  0  0  0
   23.6022  -24.6955  -14.8720 N   0  0  0  0  0  0  0  0  0  0  0  0
   24.6777  -22.6766  -14.3132 C   0  0  0  0  0  0  0  0  0  0  0  0
   24.1310  -21.8776  -15.1129 O   0  0  0  0  0  0  0  0  0  0  0  0
   29.2714  -27.4578  -16.7851 N   0  0  0  0  0  0  0  0  0  0  0  0
   25.0683  -22.1537  -13.0661 C   0  0  2  0  0  0  0  0  0  0  0  0
   24.8183  -20.7703  -12.6429 C   0  0  0  0  0  0  0  0  0  0  0  0
   25.1222  -20.6000  -11.1887 C   0  0  0  0  0  0  0  0  0  0  0  0
   26.5605  -20.7252  -10.9002 C   0  0  0  0  0  0  0  0  0  0  0  0
   27.5272  -20.8295  -11.9062 N   0  0  0  0  0  0  0  0  0  0  0  0
   28.7380  -20.8749  -11.3173 C   0  0  0  0  0  0  0  0  0  0  0  0
   28.6306  -20.8077   -9.9703 C   0  0  0  0  0  0  0  0  0  0  0  0
   29.5661  -20.8223   -8.9560 C   0  0  0  0  0  0  0  0  0  0  0  0
   29.1457  -20.7450   -7.6544 C   0  0  0  0  0  0  0  0  0  0  0  0
   27.8023  -20.6558   -7.4093 C   0  0  0  0  0  0  0  0  0  0  0  0
   26.8366  -20.6388   -8.4125 C   0  0  0  0  0  0  0  0  0  0  0  0
   27.2620  -20.7157   -9.7236 C   0  0  0  0  0  0  0  0  0  0  0  0
   25.3889  -19.7989  -13.5588 O   0  0  0  0  0  0  0  0  0  0  0  0
   25.0349  -18.4820  -13.7348 O   0  0  0  0  0  0  0  0  0  0  0  0
  2  1  1  1
  2  3  1  0
  3  4  1  0
  4  9  2  0
  5  6  2  0
  5  4  1  0
  6  7  1  0
  7  8  2  0
  9  8  1  0
 10 11  2  0
 10  2  1  0
 12 13  1  0
 13 14  2  0
 13 15  1  0
 15 16  1  0
 16 17  1  0
 17 18  1  0
 19 18  1  6
 19 20  1  0
 20 10  1  0
 21 19  1  0
 21 23  1  0
 22 21  2  0
 24 23  1  0
 24 35  1  0
 24 25  1  1
 26 25  1  0
 27 26  2  0
 28 29  1  0
 28 27  1  0
 29 34  2  0
 30 29  1  0
 30 31  2  0
 31 32  1  0
 32 33  2  0
 34 26  1  0
 34 33  1  0
 35 36  1  0
 37 35  2  0
M  END
$$$$
