FRW.pdb
     RDKit          3D

 37 39  0  0  1  0  0  0  0  0999 V2000
   26.8130  -17.8537  -20.7796 N   0  0  0  0  0  0  0  0  0  0  0  0
   27.3440  -17.8716  -19.4318 C   0  0  1  0  0  0  0  0  0  0  0  0
   27.1237  -16.5503  -18.7793 C   0  0  0  0  0  0  0  0  0  0  0  0
   27.9172  -15.5443  -19.5368 C   0  0  0  0  0  0  0  0  0  0  0  0
   29.2608  -15.6980  -19.8102 C   0  0  0  0  0  0  0  0  0  0  0  0
   29.9888  -14.7687  -20.5132 C   0  0  0  0  0  0  0  0  0  0  0  0
   29.3889  -13.6337  -20.9750 C   0  0  0  0  0  0  0  0  0  0  0  0
   28.0354  -13.4506  -20.7152 C   0  0  0  0  0  0  0  0  0  0  0  0
   27.3230  -14.3882  -20.0124 C   0  0  0  0  0  0  0  0  0  0  0  0
   26.7122  -19.0100  -18.7160 C   0  0  0  0  0  0  0  0  0  0  0  0
   25.4714  -19.1989  -18.6616 O   0  0  0  0  0  0  0  0  0  0  0  0
   29.5034  -26.9355  -16.3642 N   0  0  0  0  0  0  0  0  0  0  0  0
   29.8027  -26.2793  -17.5960 C   0  0  0  0  0  0  0  0  0  0  0  0
   30.3259  -26.9132  -18.5659 N   0  0  0  0  0  0  0  0  0  0  0  0
   29.5026  -24.8825  -17.7388 N   0  0  0  0  0  0  0  0  0  0  0  0
   28.9946  -24.1012  -16.6345 C   0  0  0  0  0  0  0  0  0  0  0  0
   28.8378  -22.6835  -17.0572 C   0  0  0  0  0  0  0  0  0  0  0  0
   27.5204  -22.4842  -17.7708 C   0  0  0  0  0  0  0  0  0  0  0  0
   26.9543  -21.1681  -17.3973 C   0  0  2  0  0  0  0  0  0  0  0  0
   27.4691  -20.0064  -18.0152 N   0  0  0  0  0  0  0  0  0  0  0  0
   26.7943  -20.9154  -15.9504 C   0  0  0  0  0  0  0  0  0  0  0  0
   27.7661  -20.4461  -15.3085 O   0  0  0  0  0  0  0  0  0  0  0  0
   30.6335  -26.4344  -19.4286 N   0  0  0  0  0  0  0  0  0  0  0  0
   25.6160  -21.1629  -15.2213 C   0  0  2  0  0  0  0  0  0  0  0  0
   25.5534  -21.2058  -13.7551 C   0  0  0  0  0  0  0  0  0  0  0  0
   24.9436  -19.9516  -13.2157 C   0  0  0  0  0  0  0  0  0  0  0  0
   24.6566  -20.0450  -11.7747 C   0  0  0  0  0  0  0  0  0  0  0  0
   25.6635  -20.1313  -10.8072 N   0  0  0  0  0  0  0  0  0  0  0  0
   25.0761  -20.1489   -9.5949 C   0  0  0  0  0  0  0  0  0  0  0  0
   23.7292  -20.0801   -9.7022 C   0  0  0  0  0  0  0  0  0  0  0  0
   22.7160  -20.0715   -8.7653 C   0  0  0  0  0  0  0  0  0  0  0  0
   21.4141  -19.9995   -9.1856 C   0  0  0  0  0  0  0  0  0  0  0  0
   21.1676  -19.9386  -10.5304 C   0  0  0  0  0  0  0  0  0  0  0  0
   22.1695  -19.9454  -11.4975 C   0  0  0  0  0  0  0  0  0  0  0  0
   23.4810  -20.0169  -11.0721 C   0  0  0  0  0  0  0  0  0  0  0  0
   25.0288  -22.4657  -13.2596 O   0  0  0  0  0  0  0  0  0  0  0  0
   25.5320  -23.2655  -12.2606 O   0  0  0  0  0  0  0  0  0  0  0  0
  2  1  1  6
  2  3  1  0
  3  4  1  0
  4  9  2  0
  5  6  2  0
  5  4  1  0
  6  7  1  0
  7  8  2  0
  9  8  1  0
 10 11  2  0
 10  2  1  0
 12 13  1  0
 13 14  2  0
 13 15  1  0
 15 16  1  0
 16 17  1  0
 17 18  1  0
 19 18  1  1
 19 20  1  0
 20 10  1  0
 21 19  1  0
 21 23  1  0
 22 21  2  0
 24 23  1  0
 24 35  1  0
 24 25  1  6
 26 25  1  0
 27 26  2  0
 28 29  1  0
 28 27  1  0
 29 34  2  0
 30 29  1  0
 30 31  2  0
 31 32  1  0
 32 33  2  0
 34 26  1  0
 34 33  1  0
 35 36  1  0
 37 35  2  0
M  END
$$$$
