FRW.pdb
     RDKit          3D

 37 39  0  0  1  0  0  0  0  0999 V2000
   23.2153  -21.0859  -13.6651 N   0  0  0  0  0  0  0  0  0  0  0  0
   23.2614  -22.0761  -14.7217 C   0  0  1  0  0  0  0  0  0  0  0  0
   21.9480  -22.1358  -15.4225 C   0  0  0  0  0  0  0  0  0  0  0  0
   20.9674  -22.7342  -14.4759 C   0  0  0  0  0  0  0  0  0  0  0  0
   20.9917  -24.0642  -14.1097 C   0  0  0  0  0  0  0  0  0  0  0  0
   20.0871  -24.6118  -13.2325 C   0  0  0  0  0  0  0  0  0  0  0  0
   19.1096  -23.8357  -12.6815 C   0  0  0  0  0  0  0  0  0  0  0  0
   19.0596  -22.4910  -13.0312 C   0  0  0  0  0  0  0  0  0  0  0  0
   19.9704  -21.9600  -13.9080 C   0  0  0  0  0  0  0  0  0  0  0  0
   24.4028  -21.7324  -15.6088 C   0  0  0  0  0  0  0  0  0  0  0  0
   24.6336  -20.5725  -16.0324 O   0  0  0  0  0  0  0  0  0  0  0  0
   31.7126  -24.3456  -15.4217 N   0  0  0  0  0  0  0  0  0  0  0  0
   30.6126  -25.2055  -15.7183 C   0  0  0  0  0  0  0  0  0  0  0  0
   30.4498  -26.3006  -15.0935 N   0  0  0  0  0  0  0  0  0  0  0  0
   29.6755  -24.8215  -16.7362 N   0  0  0  0  0  0  0  0  0  0  0  0
   29.8806  -23.6438  -17.5478 C   0  0  0  0  0  0  0  0  0  0  0  0
   28.7402  -22.7064  -17.3634 C   0  0  0  0  0  0  0  0  0  0  0  0
   27.4502  -23.4701  -17.1707 C   0  0  0  0  0  0  0  0  0  0  0  0
   26.3234  -22.5142  -17.0767 C   0  0  2  0  0  0  0  0  0  0  0  0
   25.3537  -22.7034  -16.0665 N   0  0  0  0  0  0  0  0  0  0  0  0
   25.6417  -22.1851  -18.3454 C   0  0  0  0  0  0  0  0  0  0  0  0
   24.4909  -22.6443  -18.5492 O   0  0  0  0  0  0  0  0  0  0  0  0
   29.6325  -26.9100  -15.2635 N   0  0  0  0  0  0  0  0  0  0  0  0
   26.1902  -21.3813  -19.3625 C   0  0  1  0  0  0  0  0  0  0  0  0
   25.4830  -21.0295  -20.6000 C   0  0  0  0  0  0  0  0  0  0  0  0
   24.1880  -20.3480  -20.2925 C   0  0  0  0  0  0  0  0  0  0  0  0
   24.3012  -18.8812  -20.3503 C   0  0  0  0  0  0  0  0  0  0  0  0
   25.1333  -18.2223  -21.2619 N   0  0  0  0  0  0  0  0  0  0  0  0
   24.9686  -16.8959  -21.0929 C   0  0  0  0  0  0  0  0  0  0  0  0
   24.0708  -16.6343  -20.1152 C   0  0  0  0  0  0  0  0  0  0  0  0
   23.5824  -15.4577  -19.5849 C   0  0  0  0  0  0  0  0  0  0  0  0
   22.6626  -15.5095  -18.5710 C   0  0  0  0  0  0  0  0  0  0  0  0
   22.2608  -16.7375  -18.1199 C   0  0  0  0  0  0  0  0  0  0  0  0
   22.7364  -17.9402  -18.6361 C   0  0  0  0  0  0  0  0  0  0  0  0
   23.6625  -17.8861  -19.6586 C   0  0  0  0  0  0  0  0  0  0  0  0
   26.3527  -20.3945  -21.5739 O   0  0  0  0  0  0  0  0  0  0  0  0
   26.1087  -20.1515  -22.9051 O   0  0  0  0  0  0  0  0  0  0  0  0
  2  1  1  1
  2  3  1  0
  3  4  1  0
  4  9  2  0
  5  6  2  0
  5  4  1  0
  6  7  1  0
  7  8  2  0
  9  8  1  0
 10 11  2  0
 10  2  1  0
 12 13  1  0
 13 14  2  0
 13 15  1  0
 15 16  1  0
 16 17  1  0
 17 18  1  0
 19 18  1  6
 19 20  1  0
 20 10  1  0
 21 19  1  0
 21 23  1  0
 22 21  2  0
 24 23  1  0
 24 35  1  0
 24 25  1  6
 26 25  1  0
 27 26  2  0
 28 29  1  0
 28 27  1  0
 29 34  2  0
 30 29  1  0
 30 31  2  0
 31 32  1  0
 32 33  2  0
 34 26  1  0
 34 33  1  0
 35 36  1  0
 37 35  2  0
M  END
$$$$
