AYE.pdb
     RDKit          3D

 27 27  0  0  1  0  0  0  0  0999 V2000
    8.6981  -18.4936   19.1513 C   0  0  0  0  0  0  0  0  0  0  0  0
    8.8992  -16.9957   19.1113 C   0  0  2  0  0  0  0  0  0  0  0  0
   10.1425  -16.7457   18.4158 N   0  0  0  0  0  0  0  0  0  0  0  0
    8.9619  -16.3882   20.4398 C   0  0  0  0  0  0  0  0  0  0  0  0
   10.0696  -16.3603   21.0393 O   0  0  0  0  0  0  0  0  0  0  0  0
    7.4086  -12.1315   27.8776 O   0  0  0  0  0  0  0  0  0  0  0  0
    7.2690  -12.6850   26.6238 C   0  0  0  0  0  0  0  0  0  0  0  0
    6.5697  -13.8837   26.4888 C   0  0  0  0  0  0  0  0  0  0  0  0
    6.4175  -14.4562   25.2431 C   0  0  0  0  0  0  0  0  0  0  0  0
    6.9728  -13.8099   24.1576 C   0  0  0  0  0  0  0  0  0  0  0  0
    6.8146  -14.4123   22.8343 C   0  0  0  0  0  0  0  0  0  0  0  0
    8.0264  -15.1968   22.3903 C   0  0  2  0  0  0  0  0  0  0  0  0
    7.8491  -15.8199   21.1115 N   0  0  0  0  0  0  0  0  0  0  0  0
    8.3639  -16.2460   23.4079 C   0  0  0  0  0  0  0  0  0  0  0  0
    7.7347  -17.3118   23.4410 O   0  0  0  0  0  0  0  0  0  0  0  0
    7.6735  -12.6110   24.2846 C   0  0  0  0  0  0  0  0  0  0  0  0
    7.8211  -12.0453   25.5336 C   0  0  0  0  0  0  0  0  0  0  0  0
    9.4039  -16.0268   24.3386 N   0  0  0  0  0  0  0  0  0  0  0  0
    9.9544  -17.0374   25.2048 C   0  0  1  0  0  0  0  0  0  0  0  0
   11.3771  -17.3174   24.7036 C   0  0  0  0  0  0  0  0  0  0  0  0
   11.9732  -18.3372   25.6634 C   0  0  0  0  0  0  0  0  0  0  0  0
   13.3515  -18.6953   25.2772 C   0  0  0  0  0  0  0  0  0  0  0  0
   14.2125  -17.8027   25.1381 O   0  0  0  0  0  0  0  0  0  0  0  0
    9.9528  -16.5835   26.5962 C   0  0  0  0  0  0  0  0  0  0  0  0
   10.2592  -15.2729   26.9062 O   0  0  0  0  0  0  0  0  0  0  0  0
   13.6784  -20.0176   25.0725 O   0  0  0  0  0  0  0  0  0  0  0  0
    9.6720  -17.3872   27.5148 O   0  0  0  0  0  0  0  0  0  0  0  0
  2  1  1  1
  2  4  1  0
  3  2  1  0
  4 13  1  0
  5  4  2  0
  7  6  1  0
  8  7  2  0
  9  8  1  0
 10 16  1  0
 10  9  2  0
 11 10  1  0
 12 14  1  0
 12 11  1  1
 13 12  1  0
 14 15  2  0
 16 17  2  0
 17  7  1  0
 18 19  1  0
 18 14  1  0
 19 20  1  6
 20 21  1  0
 21 22  1  0
 22 23  2  0
 22 26  1  0
 24 25  1  0
 24 19  1  0
 27 24  2  0
M  END
$$$$
