AYE.pdb
     RDKit          3D

 27 27  0  0  1  0  0  0  0  0999 V2000
    8.3757  -18.4068   19.1788 C   0  0  0  0  0  0  0  0  0  0  0  0
    8.4430  -16.8985   19.1000 C   0  0  2  0  0  0  0  0  0  0  0  0
    9.5630  -16.5604   18.2495 N   0  0  0  0  0  0  0  0  0  0  0  0
    8.6214  -16.2620   20.4042 C   0  0  0  0  0  0  0  0  0  0  0  0
    9.7712  -16.2525   20.9192 O   0  0  0  0  0  0  0  0  0  0  0  0
    7.5547  -12.3530   28.1185 O   0  0  0  0  0  0  0  0  0  0  0  0
    7.3405  -12.8255   26.8422 C   0  0  0  0  0  0  0  0  0  0  0  0
    7.8203  -12.0887   25.7600 C   0  0  0  0  0  0  0  0  0  0  0  0
    7.6173  -12.5425   24.4733 C   0  0  0  0  0  0  0  0  0  0  0  0
    6.9350  -13.7297   24.3020 C   0  0  0  0  0  0  0  0  0  0  0  0
    6.7169  -14.2157   22.9398 C   0  0  0  0  0  0  0  0  0  0  0  0
    7.8522  -15.0683   22.4247 C   0  0  2  0  0  0  0  0  0  0  0  0
    7.5779  -15.6455   21.1415 N   0  0  0  0  0  0  0  0  0  0  0  0
    8.1608  -16.1632   23.4026 C   0  0  0  0  0  0  0  0  0  0  0  0
    7.4671  -17.1883   23.4346 O   0  0  0  0  0  0  0  0  0  0  0  0
    6.4522  -14.4720   25.3790 C   0  0  0  0  0  0  0  0  0  0  0  0
    6.6593  -14.0112   26.6623 C   0  0  0  0  0  0  0  0  0  0  0  0
    9.2470  -16.0341   24.2966 N   0  0  0  0  0  0  0  0  0  0  0  0
    9.6356  -17.0294   25.2626 C   0  0  1  0  0  0  0  0  0  0  0  0
   10.7760  -17.8355   24.6275 C   0  0  0  0  0  0  0  0  0  0  0  0
   11.7337  -16.8167   24.0264 C   0  0  0  0  0  0  0  0  0  0  0  0
   12.8260  -17.4784   23.2876 C   0  0  0  0  0  0  0  0  0  0  0  0
   13.0881  -17.1314   22.1178 O   0  0  0  0  0  0  0  0  0  0  0  0
   10.0538  -16.3993   26.5156 C   0  0  0  0  0  0  0  0  0  0  0  0
   10.3209  -17.1681   27.6316 O   0  0  0  0  0  0  0  0  0  0  0  0
   13.5511  -18.4783   23.8973 O   0  0  0  0  0  0  0  0  0  0  0  0
   10.1713  -15.1541   26.5795 O   0  0  0  0  0  0  0  0  0  0  0  0
  2  1  1  1
  2  4  1  0
  3  2  1  0
  4 13  1  0
  5  4  2  0
  7  6  1  0
  8  7  2  0
  9  8  1  0
 10 16  1  0
 10  9  2  0
 11 10  1  0
 12 14  1  0
 12 11  1  1
 13 12  1  0
 14 15  2  0
 16 17  2  0
 17  7  1  0
 18 19  1  0
 18 14  1  0
 19 20  1  6
 20 21  1  0
 21 22  1  0
 22 23  2  0
 22 26  1  0
 24 25  1  0
 24 19  1  0
 27 24  2  0
M  END
$$$$
