AYE.pdb
     RDKit          3D

 27 27  0  0  1  0  0  0  0  0999 V2000
    7.2465  -12.7752   19.3012 C   0  0  0  0  0  0  0  0  0  0  0  0
    7.5296  -14.1768   19.7921 C   0  0  2  0  0  0  0  0  0  0  0  0
    6.2662  -14.8790   19.8444 N   0  0  0  0  0  0  0  0  0  0  0  0
    8.1513  -14.2080   21.1151 C   0  0  0  0  0  0  0  0  0  0  0  0
    9.3870  -13.9803   21.2071 O   0  0  0  0  0  0  0  0  0  0  0  0
    9.6818  -13.9089   29.6865 O   0  0  0  0  0  0  0  0  0  0  0  0
    9.0707  -13.9431   28.4522 C   0  0  0  0  0  0  0  0  0  0  0  0
    8.2575  -12.8764   28.0715 C   0  0  0  0  0  0  0  0  0  0  0  0
    7.6356  -12.8892   26.8404 C   0  0  0  0  0  0  0  0  0  0  0  0
    7.8451  -13.9764   26.0167 C   0  0  0  0  0  0  0  0  0  0  0  0
    7.1882  -13.9953   24.7101 C   0  0  0  0  0  0  0  0  0  0  0  0
    8.1237  -14.3549   23.5802 C   0  0  2  0  0  0  0  0  0  0  0  0
    7.4529  -14.4803   22.3196 N   0  0  0  0  0  0  0  0  0  0  0  0
    8.8377  -15.6376   23.8891 C   0  0  0  0  0  0  0  0  0  0  0  0
    8.1966  -16.6631   24.1541 O   0  0  0  0  0  0  0  0  0  0  0  0
    8.6568  -15.0468   26.3903 C   0  0  0  0  0  0  0  0  0  0  0  0
    9.2749  -15.0262   27.6229 C   0  0  0  0  0  0  0  0  0  0  0  0
   10.2496  -15.6865   23.8802 N   0  0  0  0  0  0  0  0  0  0  0  0
   11.0281  -16.8921   24.0034 C   0  0  1  0  0  0  0  0  0  0  0  0
   12.3820  -16.6099   23.3394 C   0  0  0  0  0  0  0  0  0  0  0  0
   13.2502  -17.8309   23.6079 C   0  0  0  0  0  0  0  0  0  0  0  0
   14.5933  -17.6741   23.0176 C   0  0  0  0  0  0  0  0  0  0  0  0
   15.4460  -16.9626   23.5869 O   0  0  0  0  0  0  0  0  0  0  0  0
   11.1851  -17.2656   25.4098 C   0  0  0  0  0  0  0  0  0  0  0  0
   11.2961  -18.5933   25.7741 O   0  0  0  0  0  0  0  0  0  0  0  0
   14.8968  -18.3169   21.8379 O   0  0  0  0  0  0  0  0  0  0  0  0
   11.2193  -16.3771   26.2917 O   0  0  0  0  0  0  0  0  0  0  0  0
  2  1  1  1
  2  4  1  0
  3  2  1  0
  4 13  1  0
  5  4  2  0
  7  6  1  0
  8  7  2  0
  9  8  1  0
 10 16  1  0
 10  9  2  0
 11 10  1  0
 12 14  1  0
 12 11  1  1
 13 12  1  0
 14 15  2  0
 16 17  2  0
 17  7  1  0
 18 19  1  0
 18 14  1  0
 19 20  1  1
 20 21  1  0
 21 22  1  0
 22 23  2  0
 22 26  1  0
 24 25  1  0
 24 19  1  0
 27 24  2  0
M  END
$$$$
