AYE.pdb
     RDKit          3D

 27 27  0  0  1  0  0  0  0  0999 V2000
    9.4288  -16.4462   17.9266 C   0  0  0  0  0  0  0  0  0  0  0  0
    9.3053  -17.2514   19.2001 C   0  0  2  0  0  0  0  0  0  0  0  0
    8.0828  -18.0189   19.1085 N   0  0  0  0  0  0  0  0  0  0  0  0
    9.2621  -16.4216   20.4032 C   0  0  0  0  0  0  0  0  0  0  0  0
   10.3075  -15.8124   20.7544 O   0  0  0  0  0  0  0  0  0  0  0  0
    7.0537  -12.1296   27.6521 O   0  0  0  0  0  0  0  0  0  0  0  0
    6.9983  -12.8273   26.4654 C   0  0  0  0  0  0  0  0  0  0  0  0
    7.3668  -12.1827   25.2852 C   0  0  0  0  0  0  0  0  0  0  0  0
    7.3190  -12.8617   24.0855 C   0  0  0  0  0  0  0  0  0  0  0  0
    6.9010  -14.1768   24.0981 C   0  0  0  0  0  0  0  0  0  0  0  0
    6.8484  -14.9016   22.8288 C   0  0  0  0  0  0  0  0  0  0  0  0
    8.1872  -15.4598   22.4079 C   0  0  2  0  0  0  0  0  0  0  0  0
    8.1111  -16.2508   21.2148 N   0  0  0  0  0  0  0  0  0  0  0  0
    8.7718  -16.2888   23.5131 C   0  0  0  0  0  0  0  0  0  0  0  0
    8.3143  -17.4118   23.7629 O   0  0  0  0  0  0  0  0  0  0  0  0
    6.5309  -14.8281   25.2741 C   0  0  0  0  0  0  0  0  0  0  0  0
    6.5815  -14.1421   26.4694 C   0  0  0  0  0  0  0  0  0  0  0  0
    9.8508  -15.7945   24.2794 N   0  0  0  0  0  0  0  0  0  0  0  0
   10.6035  -16.5714   25.2306 C   0  0  1  0  0  0  0  0  0  0  0  0
   12.0768  -16.1868   25.0434 C   0  0  0  0  0  0  0  0  0  0  0  0
   12.5473  -16.9044   23.7864 C   0  0  0  0  0  0  0  0  0  0  0  0
   13.9428  -16.5539   23.4593 C   0  0  0  0  0  0  0  0  0  0  0  0
   14.8010  -16.4997   24.3636 O   0  0  0  0  0  0  0  0  0  0  0  0
   10.1460  -16.3042   26.5949 C   0  0  0  0  0  0  0  0  0  0  0  0
   10.3671  -17.2243   27.6010 O   0  0  0  0  0  0  0  0  0  0  0  0
   14.2887  -16.2880   22.1528 O   0  0  0  0  0  0  0  0  0  0  0  0
    9.5494  -15.2342   26.8551 O   0  0  0  0  0  0  0  0  0  0  0  0
  2  1  1  6
  2  4  1  0
  3  2  1  0
  4 13  1  0
  5  4  2  0
  7  6  1  0
  8  7  2  0
  9  8  1  0
 10 16  1  0
 10  9  2  0
 11 10  1  0
 12 14  1  0
 12 11  1  1
 13 12  1  0
 14 15  2  0
 16 17  2  0
 17  7  1  0
 18 19  1  0
 18 14  1  0
 19 20  1  1
 20 21  1  0
 21 22  1  0
 22 23  2  0
 22 26  1  0
 24 25  1  0
 24 19  1  0
 27 24  2  0
M  END
$$$$
