AYE.pdb
     RDKit          3D

 27 27  0  0  1  0  0  0  0  0999 V2000
    9.5931  -17.0224   18.5750 C   0  0  0  0  0  0  0  0  0  0  0  0
   10.0638  -17.4041   19.9601 C   0  0  2  0  0  0  0  0  0  0  0  0
    9.3628  -18.6119   20.3364 N   0  0  0  0  0  0  0  0  0  0  0  0
    9.8071  -16.3688   20.9602 C   0  0  0  0  0  0  0  0  0  0  0  0
   10.5757  -15.3716   21.0078 O   0  0  0  0  0  0  0  0  0  0  0  0
    6.3685  -11.4742   27.3200 O   0  0  0  0  0  0  0  0  0  0  0  0
    6.5502  -12.3757   26.2942 C   0  0  0  0  0  0  0  0  0  0  0  0
    6.3199  -13.7294   26.5362 C   0  0  0  0  0  0  0  0  0  0  0  0
    6.4954  -14.6500   25.5240 C   0  0  0  0  0  0  0  0  0  0  0  0
    6.8995  -14.1887   24.2878 C   0  0  0  0  0  0  0  0  0  0  0  0
    7.0872  -15.1604   23.2108 C   0  0  0  0  0  0  0  0  0  0  0  0
    8.5295  -15.3056   22.7868 C   0  0  2  0  0  0  0  0  0  0  0  0
    8.7397  -16.4072   21.8939 N   0  0  0  0  0  0  0  0  0  0  0  0
    9.4078  -15.4723   23.9914 C   0  0  0  0  0  0  0  0  0  0  0  0
    9.1494  -14.8717   25.0428 O   0  0  0  0  0  0  0  0  0  0  0  0
    7.1318  -12.8368   24.0381 C   0  0  0  0  0  0  0  0  0  0  0  0
    6.9539  -11.9229   25.0555 C   0  0  0  0  0  0  0  0  0  0  0  0
   10.5388  -16.3170   23.9366 N   0  0  0  0  0  0  0  0  0  0  0  0
   11.3687  -16.6491   25.0661 C   0  0  1  0  0  0  0  0  0  0  0  0
   10.4815  -17.4221   26.0504 C   0  0  0  0  0  0  0  0  0  0  0  0
   11.3771  -17.8054   27.2197 C   0  0  0  0  0  0  0  0  0  0  0  0
   10.6173  -18.5140   28.2674 C   0  0  0  0  0  0  0  0  0  0  0  0
    9.4025  -18.7495   28.1060 O   0  0  0  0  0  0  0  0  0  0  0  0
   12.5239  -17.4426   24.6444 C   0  0  0  0  0  0  0  0  0  0  0  0
   12.5706  -17.9948   23.3792 O   0  0  0  0  0  0  0  0  0  0  0  0
   11.2576  -18.9116   29.4203 O   0  0  0  0  0  0  0  0  0  0  0  0
   13.4787  -17.6241   25.4342 O   0  0  0  0  0  0  0  0  0  0  0  0
  2  1  1  6
  2  4  1  0
  3  2  1  0
  4 13  1  0
  5  4  2  0
  7  6  1  0
  8  7  2  0
  9  8  1  0
 10 16  1  0
 10  9  2  0
 11 10  1  0
 12 14  1  0
 12 11  1  1
 13 12  1  0
 14 15  2  0
 16 17  2  0
 17  7  1  0
 18 19  1  0
 18 14  1  0
 19 20  1  1
 20 21  1  0
 21 22  1  0
 22 23  2  0
 22 26  1  0
 24 25  1  0
 24 19  1  0
 27 24  2  0
M  END
$$$$
