AYE.pdb
     RDKit          3D

 27 27  0  0  1  0  0  0  0  0999 V2000
    6.7890  -15.7684   20.0850 C   0  0  0  0  0  0  0  0  0  0  0  0
    7.2264  -14.4637   20.7113 C   0  0  2  0  0  0  0  0  0  0  0  0
    7.9973  -13.7462   19.7199 N   0  0  0  0  0  0  0  0  0  0  0  0
    8.0404  -14.6468   21.9120 C   0  0  0  0  0  0  0  0  0  0  0  0
    9.2837  -14.8027   21.7806 O   0  0  0  0  0  0  0  0  0  0  0  0
   11.1140  -15.0784   30.0515 O   0  0  0  0  0  0  0  0  0  0  0  0
   10.2843  -14.9134   28.9642 C   0  0  0  0  0  0  0  0  0  0  0  0
   10.2199  -13.6646   28.3473 C   0  0  0  0  0  0  0  0  0  0  0  0
    9.3960  -13.4763   27.2571 C   0  0  0  0  0  0  0  0  0  0  0  0
    8.6531  -14.5498   26.8096 C   0  0  0  0  0  0  0  0  0  0  0  0
    7.7778  -14.3558   25.6540 C   0  0  0  0  0  0  0  0  0  0  0  0
    8.4151  -14.7730   24.3498 C   0  0  2  0  0  0  0  0  0  0  0  0
    7.5233  -14.6615   23.2330 N   0  0  0  0  0  0  0  0  0  0  0  0
    8.9114  -16.1854   24.4459 C   0  0  0  0  0  0  0  0  0  0  0  0
    8.1152  -17.1329   24.4107 O   0  0  0  0  0  0  0  0  0  0  0  0
    8.7122  -15.8015   27.4212 C   0  0  0  0  0  0  0  0  0  0  0  0
    9.5384  -15.9813   28.5106 C   0  0  0  0  0  0  0  0  0  0  0  0
   10.2935  -16.4469   24.5776 N   0  0  0  0  0  0  0  0  0  0  0  0
   10.8659  -17.7567   24.7555 C   0  0  1  0  0  0  0  0  0  0  0  0
   12.1816  -17.7714   23.9666 C   0  0  0  0  0  0  0  0  0  0  0  0
   11.7966  -17.9003   22.4998 C   0  0  0  0  0  0  0  0  0  0  0  0
   12.9908  -17.9698   21.6360 C   0  0  0  0  0  0  0  0  0  0  0  0
   13.8979  -17.1211   21.7557 O   0  0  0  0  0  0  0  0  0  0  0  0
   11.0856  -18.0373   26.1751 C   0  0  0  0  0  0  0  0  0  0  0  0
   10.7638  -17.0962   27.1334 O   0  0  0  0  0  0  0  0  0  0  0  0
   13.0955  -18.9752   20.7004 O   0  0  0  0  0  0  0  0  0  0  0  0
   11.5689  -19.1379   26.5265 O   0  0  0  0  0  0  0  0  0  0  0  0
  2  1  1  6
  2  4  1  0
  3  2  1  0
  4 13  1  0
  5  4  2  0
  7  6  1  0
  8  7  2  0
  9  8  1  0
 10 16  1  0
 10  9  2  0
 11 10  1  0
 12 14  1  0
 12 11  1  1
 13 12  1  0
 14 15  2  0
 16 17  2  0
 17  7  1  0
 18 19  1  0
 18 14  1  0
 19 20  1  6
 20 21  1  0
 21 22  1  0
 22 23  2  0
 22 26  1  0
 24 25  1  0
 24 19  1  0
 27 24  2  0
M  END
$$$$
