AYE.pdb
     RDKit          3D

 27 27  0  0  1  0  0  0  0  0999 V2000
   10.7132  -19.4543   19.9180 C   0  0  0  0  0  0  0  0  0  0  0  0
   10.0893  -18.1135   19.6037 C   0  0  2  0  0  0  0  0  0  0  0  0
   10.7605  -17.5886   18.4349 N   0  0  0  0  0  0  0  0  0  0  0  0
   10.2102  -17.1522   20.6987 C   0  0  0  0  0  0  0  0  0  0  0  0
   11.1741  -16.3410   20.6865 O   0  0  0  0  0  0  0  0  0  0  0  0
    6.6214  -12.1662   18.9314 O   0  0  0  0  0  0  0  0  0  0  0  0
    7.0418  -12.9504   19.9832 C   0  0  0  0  0  0  0  0  0  0  0  0
    8.0610  -12.4804   20.8107 C   0  0  0  0  0  0  0  0  0  0  0  0
    8.4980  -13.2485   21.8698 C   0  0  0  0  0  0  0  0  0  0  0  0
    7.8997  -14.4751   22.0747 C   0  0  0  0  0  0  0  0  0  0  0  0
    8.3591  -15.2938   23.1963 C   0  0  0  0  0  0  0  0  0  0  0  0
    9.5603  -16.1444   22.8577 C   0  0  2  0  0  0  0  0  0  0  0  0
    9.3071  -17.0663   21.7895 N   0  0  0  0  0  0  0  0  0  0  0  0
   10.0126  -16.9049   24.0690 C   0  0  0  0  0  0  0  0  0  0  0  0
    9.3275  -17.8337   24.5174 O   0  0  0  0  0  0  0  0  0  0  0  0
    6.8801  -14.9518   21.2517 C   0  0  0  0  0  0  0  0  0  0  0  0
    6.4490  -14.1776   20.1949 C   0  0  0  0  0  0  0  0  0  0  0  0
   11.2258  -16.5676   24.7095 N   0  0  0  0  0  0  0  0  0  0  0  0
   11.7984  -17.2935   25.8140 C   0  0  1  0  0  0  0  0  0  0  0  0
   13.2458  -16.8056   25.9566 C   0  0  0  0  0  0  0  0  0  0  0  0
   13.8924  -16.9870   24.5908 C   0  0  0  0  0  0  0  0  0  0  0  0
   15.2997  -16.5436   24.6005 C   0  0  0  0  0  0  0  0  0  0  0  0
   16.1403  -17.1498   25.2957 O   0  0  0  0  0  0  0  0  0  0  0  0
   11.0295  -17.0648   27.0382 C   0  0  0  0  0  0  0  0  0  0  0  0
    9.9767  -16.1708   27.0477 O   0  0  0  0  0  0  0  0  0  0  0  0
   15.6761  -15.4595   23.8389 O   0  0  0  0  0  0  0  0  0  0  0  0
   11.3260  -17.6827   28.0864 O   0  0  0  0  0  0  0  0  0  0  0  0
  2  1  1  1
  2  4  1  0
  3  2  1  0
  4 13  1  0
  5  4  2  0
  7  6  1  0
  8  7  2  0
  9  8  1  0
 10 16  1  0
 10  9  2  0
 11 10  1  0
 12 14  1  0
 12 11  1  1
 13 12  1  0
 14 15  2  0
 16 17  2  0
 17  7  1  0
 18 19  1  0
 18 14  1  0
 19 20  1  1
 20 21  1  0
 21 22  1  0
 22 23  2  0
 22 26  1  0
 24 25  1  0
 24 19  1  0
 27 24  2  0
M  END
$$$$
