AYE.pdb
     RDKit          3D

 27 27  0  0  1  0  0  0  0  0999 V2000
    8.7037  -18.5286   19.4024 C   0  0  0  0  0  0  0  0  0  0  0  0
    8.9728  -17.0496   19.2412 C   0  0  2  0  0  0  0  0  0  0  0  0
   10.2326  -16.9137   18.5439 N   0  0  0  0  0  0  0  0  0  0  0  0
    9.0502  -16.3370   20.5156 C   0  0  0  0  0  0  0  0  0  0  0  0
   10.1815  -16.1623   21.0418 O   0  0  0  0  0  0  0  0  0  0  0  0
    7.5433  -11.9654   27.8872 O   0  0  0  0  0  0  0  0  0  0  0  0
    7.3783  -12.5726   26.6617 C   0  0  0  0  0  0  0  0  0  0  0  0
    7.8836  -11.9450   25.5237 C   0  0  0  0  0  0  0  0  0  0  0  0
    7.7300  -12.5346   24.2861 C   0  0  0  0  0  0  0  0  0  0  0  0
    7.0704  -13.7449   24.2192 C   0  0  0  0  0  0  0  0  0  0  0  0
    6.9047  -14.3747   22.9096 C   0  0  0  0  0  0  0  0  0  0  0  0
    8.1025  -15.1924   22.4880 C   0  0  2  0  0  0  0  0  0  0  0  0
    7.9270  -15.8211   21.2117 N   0  0  0  0  0  0  0  0  0  0  0  0
    8.4001  -16.2415   23.5181 C   0  0  0  0  0  0  0  0  0  0  0  0
    7.6886  -17.2507   23.6080 O   0  0  0  0  0  0  0  0  0  0  0  0
    6.5624  -14.3786   25.3526 C   0  0  0  0  0  0  0  0  0  0  0  0
    6.7202  -13.7824   26.5862 C   0  0  0  0  0  0  0  0  0  0  0  0
    9.4964  -16.0869   24.3958 N   0  0  0  0  0  0  0  0  0  0  0  0
    9.9241  -17.0737   25.3539 C   0  0  1  0  0  0  0  0  0  0  0  0
   11.4482  -17.1853   25.2183 C   0  0  0  0  0  0  0  0  0  0  0  0
   11.7038  -18.2120   24.1242 C   0  0  0  0  0  0  0  0  0  0  0  0
   13.0696  -18.0871   23.5801 C   0  0  0  0  0  0  0  0  0  0  0  0
   13.9003  -19.0002   23.7632 O   0  0  0  0  0  0  0  0  0  0  0  0
    9.5308  -16.6843   26.7088 C   0  0  0  0  0  0  0  0  0  0  0  0
    9.4892  -17.6211   27.7229 O   0  0  0  0  0  0  0  0  0  0  0  0
   13.4184  -16.9587   22.8713 O   0  0  0  0  0  0  0  0  0  0  0  0
    9.2291  -15.4937   26.9536 O   0  0  0  0  0  0  0  0  0  0  0  0
  2  1  1  1
  2  4  1  0
  3  2  1  0
  4 13  1  0
  5  4  2  0
  7  6  1  0
  8  7  2  0
  9  8  1  0
 10 16  1  0
 10  9  2  0
 11 10  1  0
 12 14  1  0
 12 11  1  1
 13 12  1  0
 14 15  2  0
 16 17  2  0
 17  7  1  0
 18 19  1  0
 18 14  1  0
 19 20  1  1
 20 21  1  0
 21 22  1  0
 22 23  2  0
 22 26  1  0
 24 25  1  0
 24 19  1  0
 27 24  2  0
M  END
$$$$
