AYE.pdb
     RDKit          3D

 27 27  0  0  1  0  0  0  0  0999 V2000
   12.4700  -18.3321   16.9840 C   0  0  0  0  0  0  0  0  0  0  0  0
   11.6698  -17.0766   16.7209 C   0  0  2  0  0  0  0  0  0  0  0  0
   11.7521  -16.8016   15.3034 N   0  0  0  0  0  0  0  0  0  0  0  0
   12.1592  -15.9165   17.4642 C   0  0  0  0  0  0  0  0  0  0  0  0
   12.9510  -15.1219   16.8904 O   0  0  0  0  0  0  0  0  0  0  0  0
    6.3435  -13.1957   17.4727 O   0  0  0  0  0  0  0  0  0  0  0  0
    7.5289  -13.3370   18.1603 C   0  0  0  0  0  0  0  0  0  0  0  0
    8.5784  -12.4616   17.8838 C   0  0  0  0  0  0  0  0  0  0  0  0
    9.7744  -12.5844   18.5599 C   0  0  0  0  0  0  0  0  0  0  0  0
    9.8898  -13.5867   19.5015 C   0  0  0  0  0  0  0  0  0  0  0  0
   11.1557  -13.7216   20.2215 C   0  0  0  0  0  0  0  0  0  0  0  0
   12.2356  -14.3898   19.4039 C   0  0  2  0  0  0  0  0  0  0  0  0
   11.8014  -15.6172   18.8040 N   0  0  0  0  0  0  0  0  0  0  0  0
   13.4395  -14.6568   20.2581 C   0  0  0  0  0  0  0  0  0  0  0  0
   14.0435  -13.7213   20.7993 O   0  0  0  0  0  0  0  0  0  0  0  0
    8.8449  -14.4658   19.7835 C   0  0  0  0  0  0  0  0  0  0  0  0
    7.6524  -14.3362   19.1030 C   0  0  0  0  0  0  0  0  0  0  0  0
   13.8952  -15.9798   20.4527 N   0  0  0  0  0  0  0  0  0  0  0  0
   14.8867  -16.3705   21.4218 C   0  0  1  0  0  0  0  0  0  0  0  0
   14.1513  -17.1730   22.5029 C   0  0  0  0  0  0  0  0  0  0  0  0
   15.2146  -17.6275   23.4924 C   0  0  0  0  0  0  0  0  0  0  0  0
   14.6426  -18.5124   24.5254 C   0  0  0  0  0  0  0  0  0  0  0  0
   14.8841  -19.7365   24.5020 O   0  0  0  0  0  0  0  0  0  0  0  0
   15.9448  -17.1604   20.7905 C   0  0  0  0  0  0  0  0  0  0  0  0
   17.2034  -17.2245   21.3556 O   0  0  0  0  0  0  0  0  0  0  0  0
   13.8432  -17.9780   25.5116 O   0  0  0  0  0  0  0  0  0  0  0  0
   15.7102  -17.7838   19.7299 O   0  0  0  0  0  0  0  0  0  0  0  0
  2  1  1  6
  2  4  1  0
  3  2  1  0
  4 13  1  0
  5  4  2  0
  7  6  1  0
  8  7  2  0
  9  8  1  0
 10 16  1  0
 10  9  2  0
 11 10  1  0
 12 14  1  0
 12 11  1  1
 13 12  1  0
 14 15  2  0
 16 17  2  0
 17  7  1  0
 18 19  1  0
 18 14  1  0
 19 20  1  1
 20 21  1  0
 21 22  1  0
 22 23  2  0
 22 26  1  0
 24 25  1  0
 24 19  1  0
 27 24  2  0
M  END
$$$$
