AYE.pdb
     RDKit          3D

 27 27  0  0  1  0  0  0  0  0999 V2000
    7.9075  -12.9398   18.6961 C   0  0  0  0  0  0  0  0  0  0  0  0
    8.1735  -14.3217   19.2486 C   0  0  2  0  0  0  0  0  0  0  0  0
    6.9890  -15.1169   19.0110 N   0  0  0  0  0  0  0  0  0  0  0  0
    8.4720  -14.3210   20.6800 C   0  0  0  0  0  0  0  0  0  0  0  0
    9.6180  -13.9587   21.0577 O   0  0  0  0  0  0  0  0  0  0  0  0
    7.8975  -13.3441   29.2783 O   0  0  0  0  0  0  0  0  0  0  0  0
    7.5900  -13.5649   27.9537 C   0  0  0  0  0  0  0  0  0  0  0  0
    7.6149  -12.4896   27.0664 C   0  0  0  0  0  0  0  0  0  0  0  0
    7.3105  -12.6873   25.7356 C   0  0  0  0  0  0  0  0  0  0  0  0
    6.9869  -13.9643   25.3247 C   0  0  0  0  0  0  0  0  0  0  0  0
    6.6633  -14.1797   23.9147 C   0  0  0  0  0  0  0  0  0  0  0  0
    7.8738  -14.4983   23.0695 C   0  0  2  0  0  0  0  0  0  0  0  0
    7.5505  -14.7045   21.6882 N   0  0  0  0  0  0  0  0  0  0  0  0
    8.5686  -15.7170   23.6010 C   0  0  0  0  0  0  0  0  0  0  0  0
    8.0395  -16.8321   23.5035 O   0  0  0  0  0  0  0  0  0  0  0  0
    6.9598  -15.0445   26.2059 C   0  0  0  0  0  0  0  0  0  0  0  0
    7.2655  -14.8384   27.5348 C   0  0  0  0  0  0  0  0  0  0  0  0
    9.8343  -15.6026   24.2181 N   0  0  0  0  0  0  0  0  0  0  0  0
   10.5933  -16.7093   24.7416 C   0  0  1  0  0  0  0  0  0  0  0  0
   12.0704  -16.3951   24.4716 C   0  0  0  0  0  0  0  0  0  0  0  0
   12.3369  -16.8088   23.0314 C   0  0  0  0  0  0  0  0  0  0  0  0
   13.7288  -16.5168   22.6383 C   0  0  0  0  0  0  0  0  0  0  0  0
   13.9724  -15.5725   21.8597 O   0  0  0  0  0  0  0  0  0  0  0  0
   10.3324  -16.8860   26.1709 C   0  0  0  0  0  0  0  0  0  0  0  0
   10.5067  -18.1193   26.7678 O   0  0  0  0  0  0  0  0  0  0  0  0
   14.7527  -17.2921   23.1361 O   0  0  0  0  0  0  0  0  0  0  0  0
    9.9483  -15.9136   26.8604 O   0  0  0  0  0  0  0  0  0  0  0  0
  2  1  1  1
  2  4  1  0
  3  2  1  0
  4 13  1  0
  5  4  2  0
  7  6  1  0
  8  7  2  0
  9  8  1  0
 10 16  1  0
 10  9  2  0
 11 10  1  0
 12 14  1  0
 12 11  1  1
 13 12  1  0
 14 15  2  0
 16 17  2  0
 17  7  1  0
 18 19  1  0
 18 14  1  0
 19 20  1  1
 20 21  1  0
 21 22  1  0
 22 23  2  0
 22 26  1  0
 24 25  1  0
 24 19  1  0
 27 24  2  0
M  END
$$$$
