NYG.pdb
     RDKit          3D

 25 25  0  0  1  0  0  0  0  0999 V2000
    7.1050  -13.0135   18.1638 N   0  0  0  0  0  0  0  0  0  0  0  0
    8.1576  -13.8051   18.6687 C   0  0  0  0  0  0  0  0  0  0  0  0
    8.7037  -14.6699   17.9565 O   0  0  0  0  0  0  0  0  0  0  0  0
    8.6177  -13.6075   20.0556 C   0  0  0  0  0  0  0  0  0  0  0  0
    8.6983  -14.9620   20.7363 C   0  0  2  0  0  0  0  0  0  0  0  0
    7.3420  -15.4830   20.7823 N   0  0  0  0  0  0  0  0  0  0  0  0
    9.2665  -14.8631   22.0902 C   0  0  0  0  0  0  0  0  0  0  0  0
   10.3188  -14.1943   22.2663 O   0  0  0  0  0  0  0  0  0  0  0  0
    5.9249  -10.3664   26.8111 O   0  0  0  0  0  0  0  0  0  0  0  0
    6.4819  -11.6027   26.5034 C   0  0  0  0  0  0  0  0  0  0  0  0
    5.7592  -12.6127   25.9033 C   0  0  0  0  0  0  0  0  0  0  0  0
    6.2956  -13.8359   25.5943 C   0  0  0  0  0  0  0  0  0  0  0  0
    7.6200  -14.1095   25.8817 C   0  0  0  0  0  0  0  0  0  0  0  0
    8.1959  -15.4300   25.5548 C   0  0  0  0  0  0  0  0  0  0  0  0
    9.3170  -15.3680   24.5468 C   0  0  2  0  0  0  0  0  0  0  0  0
    8.6871  -15.4875   23.2234 N   0  0  0  0  0  0  0  0  0  0  0  0
   10.2553  -16.4959   24.7270 C   0  0  0  0  0  0  0  0  0  0  0  0
   10.9845  -16.5499   25.7594 O   0  0  0  0  0  0  0  0  0  0  0  0
    8.3647  -13.0992   26.4887 C   0  0  0  0  0  0  0  0  0  0  0  0
    7.8031  -11.8725   26.7915 C   0  0  0  0  0  0  0  0  0  0  0  0
   10.3869  -17.5369   23.7942 N   0  0  0  0  0  0  0  0  0  0  0  0
   11.2744  -18.6484   24.0496 C   0  0  0  0  0  0  0  0  0  0  0  0
   10.7936  -19.5072   25.1409 C   0  0  0  0  0  0  0  0  0  0  0  0
    9.8979  -20.3551   24.9075 O   0  0  0  0  0  0  0  0  0  0  0  0
   11.3116  -19.3956   26.4165 O   0  0  0  0  0  0  0  0  0  0  0  0
  1  2  1  0
  2  4  1  0
  2  3  2  0
  4  5  1  0
  5  7  1  0
  5  6  1  1
  7  8  2  0
  9 10  1  0
 10 20  2  0
 10 11  1  0
 11 12  2  0
 12 13  1  0
 13 14  1  0
 15 14  1  1
 15 17  1  0
 16 15  1  0
 16  7  1  0
 17 18  2  0
 17 21  1  0
 19 13  2  0
 20 19  1  0
 21 22  1  0
 22 23  1  0
 23 24  2  0
 23 25  1  0
M  END
$$$$
