NYG.pdb
     RDKit          3D

 25 25  0  0  1  0  0  0  0  0999 V2000
    6.9401  -13.9876   15.9611 N   0  0  0  0  0  0  0  0  0  0  0  0
    8.0725  -14.3183   16.7343 C   0  0  0  0  0  0  0  0  0  0  0  0
    8.9240  -15.1220   16.3070 O   0  0  0  0  0  0  0  0  0  0  0  0
    8.2515  -13.7064   18.0638 C   0  0  0  0  0  0  0  0  0  0  0  0
    8.6682  -14.7891   19.0428 C   0  0  2  0  0  0  0  0  0  0  0  0
    7.6301  -15.8058   19.0014 N   0  0  0  0  0  0  0  0  0  0  0  0
    8.8303  -14.2627   20.4073 C   0  0  0  0  0  0  0  0  0  0  0  0
    9.5640  -13.2563   20.5934 O   0  0  0  0  0  0  0  0  0  0  0  0
    6.8380  -11.5058   28.4982 O   0  0  0  0  0  0  0  0  0  0  0  0
    6.8994  -12.2109   27.3014 C   0  0  0  0  0  0  0  0  0  0  0  0
    6.4482  -11.6865   26.1080 C   0  0  0  0  0  0  0  0  0  0  0  0
    6.5029  -12.3703   24.9211 C   0  0  0  0  0  0  0  0  0  0  0  0
    7.0279  -13.6485   24.8759 C   0  0  0  0  0  0  0  0  0  0  0  0
    7.0804  -14.3876   23.5979 C   0  0  0  0  0  0  0  0  0  0  0  0
    8.4006  -14.2588   22.8787 C   0  0  2  0  0  0  0  0  0  0  0  0
    8.1975  -14.8333   21.5404 N   0  0  0  0  0  0  0  0  0  0  0  0
    9.4574  -15.0288   23.5680 C   0  0  0  0  0  0  0  0  0  0  0  0
    9.9811  -14.5726   24.6255 O   0  0  0  0  0  0  0  0  0  0  0  0
    7.4883  -14.1936   26.0737 C   0  0  0  0  0  0  0  0  0  0  0  0
    7.4235  -13.4857   27.2597 C   0  0  0  0  0  0  0  0  0  0  0  0
    9.9251  -16.2687   23.1044 N   0  0  0  0  0  0  0  0  0  0  0  0
   11.0173  -16.9410   23.7704 C   0  0  0  0  0  0  0  0  0  0  0  0
   10.6019  -17.5620   25.0359 C   0  0  0  0  0  0  0  0  0  0  0  0
    9.3915  -17.5331   25.3672 O   0  0  0  0  0  0  0  0  0  0  0  0
   11.5215  -18.1755   25.8642 O   0  0  0  0  0  0  0  0  0  0  0  0
  1  2  1  0
  2  4  1  0
  2  3  2  0
  4  5  1  0
  5  7  1  0
  5  6  1  1
  7  8  2  0
  9 10  1  0
 10 20  2  0
 10 11  1  0
 11 12  2  0
 12 13  1  0
 13 14  1  0
 15 14  1  1
 15 17  1  0
 16 15  1  0
 16  7  1  0
 17 18  2  0
 17 21  1  0
 19 13  2  0
 20 19  1  0
 21 22  1  0
 22 23  1  0
 23 24  2  0
 23 25  1  0
M  END
$$$$
