NYG.pdb
     RDKit          3D

 25 25  0  0  1  0  0  0  0  0999 V2000
    9.0820  -21.4647   20.5814 N   0  0  0  0  0  0  0  0  0  0  0  0
    9.8048  -20.4425   19.9315 C   0  0  0  0  0  0  0  0  0  0  0  0
   10.0670  -20.5208   18.7155 O   0  0  0  0  0  0  0  0  0  0  0  0
   10.2558  -19.2673   20.6994 C   0  0  0  0  0  0  0  0  0  0  0  0
    9.3352  -18.1018   20.3856 C   0  0  2  0  0  0  0  0  0  0  0  0
    9.6440  -17.6848   19.0278 N   0  0  0  0  0  0  0  0  0  0  0  0
    9.5189  -16.9877   21.3292 C   0  0  0  0  0  0  0  0  0  0  0  0
   10.5723  -16.3003   21.2690 O   0  0  0  0  0  0  0  0  0  0  0  0
    7.6877  -12.1730   17.7629 O   0  0  0  0  0  0  0  0  0  0  0  0
    7.6668  -12.7527   19.0266 C   0  0  0  0  0  0  0  0  0  0  0  0
    8.3967  -12.2516   20.0843 C   0  0  0  0  0  0  0  0  0  0  0  0
    8.3852  -12.8129   21.3350 C   0  0  0  0  0  0  0  0  0  0  0  0
    7.6188  -13.9352   21.5889 C   0  0  0  0  0  0  0  0  0  0  0  0
    7.6120  -14.5438   22.9349 C   0  0  0  0  0  0  0  0  0  0  0  0
    8.7750  -15.4723   23.1846 C   0  0  2  0  0  0  0  0  0  0  0  0
    8.5626  -16.6399   22.3164 N   0  0  0  0  0  0  0  0  0  0  0  0
    8.7981  -15.9271   24.5909 C   0  0  0  0  0  0  0  0  0  0  0  0
    7.8319  -16.6023   25.0505 O   0  0  0  0  0  0  0  0  0  0  0  0
    6.8751  -14.4547   20.5303 C   0  0  0  0  0  0  0  0  0  0  0  0
    6.9014  -13.8722   19.2766 C   0  0  0  0  0  0  0  0  0  0  0  0
    9.8578  -15.6456   25.4677 N   0  0  0  0  0  0  0  0  0  0  0  0
    9.8413  -16.1370   26.8266 C   0  0  0  0  0  0  0  0  0  0  0  0
   10.8301  -17.2016   27.0471 C   0  0  0  0  0  0  0  0  0  0  0  0
   11.0120  -17.6413   28.2087 O   0  0  0  0  0  0  0  0  0  0  0  0
   11.5604  -17.7244   25.9977 O   0  0  0  0  0  0  0  0  0  0  0  0
  1  2  1  0
  2  4  1  0
  2  3  2  0
  4  5  1  0
  5  7  1  0
  5  6  1  6
  7  8  2  0
  9 10  1  0
 10 20  2  0
 10 11  1  0
 11 12  2  0
 12 13  1  0
 13 14  1  0
 15 14  1  1
 15 17  1  0
 16 15  1  0
 16  7  1  0
 17 18  2  0
 17 21  1  0
 19 13  2  0
 20 19  1  0
 21 22  1  0
 22 23  1  0
 23 24  2  0
 23 25  1  0
M  END
$$$$
