NYG.pdb
     RDKit          3D

 25 25  0  0  1  0  0  0  0  0999 V2000
   12.5329  -18.2170   17.6359 N   0  0  0  0  0  0  0  0  0  0  0  0
   11.2158  -17.7642   17.8590 C   0  0  0  0  0  0  0  0  0  0  0  0
   10.2658  -18.2090   17.1859 O   0  0  0  0  0  0  0  0  0  0  0  0
   10.9593  -16.7528   18.9008 C   0  0  0  0  0  0  0  0  0  0  0  0
   10.4964  -17.4622   20.1605 C   0  0  2  0  0  0  0  0  0  0  0  0
    9.2832  -18.1811   19.8082 N   0  0  0  0  0  0  0  0  0  0  0  0
   10.2439  -16.5183   21.2609 C   0  0  0  0  0  0  0  0  0  0  0  0
   11.1542  -15.7187   21.6042 O   0  0  0  0  0  0  0  0  0  0  0  0
    6.4631  -11.4409   27.4269 O   0  0  0  0  0  0  0  0  0  0  0  0
    6.7467  -12.2656   26.3441 C   0  0  0  0  0  0  0  0  0  0  0  0
    6.1281  -13.4845   26.1584 C   0  0  0  0  0  0  0  0  0  0  0  0
    6.3980  -14.3072   25.0956 C   0  0  0  0  0  0  0  0  0  0  0  0
    7.3279  -13.9340   24.1430 C   0  0  0  0  0  0  0  0  0  0  0  0
    7.6234  -14.8239   23.0015 C   0  0  0  0  0  0  0  0  0  0  0  0
    8.8871  -15.6300   23.1746 C   0  0  2  0  0  0  0  0  0  0  0  0
    9.0156  -16.4579   21.9661 N   0  0  0  0  0  0  0  0  0  0  0  0
    8.7909  -16.5214   24.3499 C   0  0  0  0  0  0  0  0  0  0  0  0
    7.7887  -17.2819   24.4833 O   0  0  0  0  0  0  0  0  0  0  0  0
    7.9626  -12.7048   24.3159 C   0  0  0  0  0  0  0  0  0  0  0  0
    7.6748  -11.8905   25.3957 C   0  0  0  0  0  0  0  0  0  0  0  0
    9.7729  -16.5735   25.3519 N   0  0  0  0  0  0  0  0  0  0  0  0
    9.6397  -17.4805   26.4689 C   0  0  0  0  0  0  0  0  0  0  0  0
   10.7540  -17.3625   27.4197 C   0  0  0  0  0  0  0  0  0  0  0  0
   11.7222  -16.6131   27.1429 O   0  0  0  0  0  0  0  0  0  0  0  0
   10.7518  -18.0623   28.6106 O   0  0  0  0  0  0  0  0  0  0  0  0
  1  2  1  0
  2  4  1  0
  2  3  2  0
  4  5  1  0
  5  7  1  0
  5  6  1  6
  7  8  2  0
  9 10  1  0
 10 20  2  0
 10 11  1  0
 11 12  2  0
 12 13  1  0
 13 14  1  0
 15 14  1  6
 15 17  1  0
 16 15  1  0
 16  7  1  0
 17 18  2  0
 17 21  1  0
 19 13  2  0
 20 19  1  0
 21 22  1  0
 22 23  1  0
 23 24  2  0
 23 25  1  0
M  END
$$$$
