NYG.pdb
     RDKit          3D

 25 25  0  0  1  0  0  0  0  0999 V2000
    7.2839  -13.0909   17.3725 N   0  0  0  0  0  0  0  0  0  0  0  0
    7.6884  -14.3143   17.9465 C   0  0  0  0  0  0  0  0  0  0  0  0
    8.3692  -15.1302   17.2952 O   0  0  0  0  0  0  0  0  0  0  0  0
    7.3016  -14.6320   19.3334 C   0  0  0  0  0  0  0  0  0  0  0  0
    7.6618  -13.4524   20.2185 C   0  0  2  0  0  0  0  0  0  0  0  0
    8.4551  -12.5493   19.4013 N   0  0  0  0  0  0  0  0  0  0  0  0
    8.4118  -13.8715   21.4133 C   0  0  0  0  0  0  0  0  0  0  0  0
    9.6670  -13.9516   21.3527 O   0  0  0  0  0  0  0  0  0  0  0  0
   10.5578  -14.9887   29.9371 O   0  0  0  0  0  0  0  0  0  0  0  0
    9.8887  -14.7691   28.7382 C   0  0  0  0  0  0  0  0  0  0  0  0
    9.2533  -15.7802   28.0478 C   0  0  0  0  0  0  0  0  0  0  0  0
    8.5899  -15.5777   26.8653 C   0  0  0  0  0  0  0  0  0  0  0  0
    8.5322  -14.3150   26.3051 C   0  0  0  0  0  0  0  0  0  0  0  0
    7.8232  -14.0985   25.0274 C   0  0  0  0  0  0  0  0  0  0  0  0
    8.6014  -14.5570   23.8188 C   0  0  2  0  0  0  0  0  0  0  0  0
    7.7913  -14.1946   22.6463 N   0  0  0  0  0  0  0  0  0  0  0  0
    8.7849  -16.0237   23.8312 C   0  0  0  0  0  0  0  0  0  0  0  0
    7.9720  -16.7656   23.2072 O   0  0  0  0  0  0  0  0  0  0  0  0
    9.1697  -13.2816   26.9903 C   0  0  0  0  0  0  0  0  0  0  0  0
    9.8331  -13.5085   28.1821 C   0  0  0  0  0  0  0  0  0  0  0  0
    9.8364  -16.6565   24.5132 N   0  0  0  0  0  0  0  0  0  0  0  0
   11.1824  -16.6221   23.9885 C   0  0  0  0  0  0  0  0  0  0  0  0
   11.5733  -17.8969   23.3706 C   0  0  0  0  0  0  0  0  0  0  0  0
   10.6997  -18.7746   23.1653 O   0  0  0  0  0  0  0  0  0  0  0  0
   12.8847  -18.1430   23.0132 O   0  0  0  0  0  0  0  0  0  0  0  0
  1  2  1  0
  2  4  1  0
  2  3  2  0
  4  5  1  0
  5  7  1  0
  5  6  1  6
  7  8  2  0
  9 10  1  0
 10 20  2  0
 10 11  1  0
 11 12  2  0
 12 13  1  0
 13 14  1  0
 15 14  1  1
 15 17  1  0
 16 15  1  0
 16  7  1  0
 17 18  2  0
 17 21  1  0
 19 13  2  0
 20 19  1  0
 21 22  1  0
 22 23  1  0
 23 24  2  0
 23 25  1  0
M  END
$$$$
