NYG.pdb
     RDKit          3D

 25 25  0  0  1  0  0  0  0  0999 V2000
    7.1180  -13.0050   16.9700 N   0  0  0  0  0  0  0  0  0  0  0  0
    8.0642  -13.8175   17.6290 C   0  0  0  0  0  0  0  0  0  0  0  0
    8.6395  -14.7441   17.0259 O   0  0  0  0  0  0  0  0  0  0  0  0
    8.3766  -13.5680   19.0483 C   0  0  0  0  0  0  0  0  0  0  0  0
    8.6955  -14.8944   19.7141 C   0  0  2  0  0  0  0  0  0  0  0  0
    7.5269  -15.7397   19.5324 N   0  0  0  0  0  0  0  0  0  0  0  0
    9.0053  -14.7309   21.1433 C   0  0  0  0  0  0  0  0  0  0  0  0
    9.9189  -13.9348   21.4857 O   0  0  0  0  0  0  0  0  0  0  0  0
    6.0451  -10.7736   27.2448 O   0  0  0  0  0  0  0  0  0  0  0  0
    6.4035  -11.9247   26.5523 C   0  0  0  0  0  0  0  0  0  0  0  0
    7.1589  -12.9282   27.1225 C   0  0  0  0  0  0  0  0  0  0  0  0
    7.5191  -14.0680   26.4515 C   0  0  0  0  0  0  0  0  0  0  0  0
    7.1266  -14.2588   25.1396 C   0  0  0  0  0  0  0  0  0  0  0  0
    7.5207  -15.4841   24.4147 C   0  0  0  0  0  0  0  0  0  0  0  0
    8.7599  -15.3150   23.5704 C   0  0  2  0  0  0  0  0  0  0  0  0
    8.3228  -15.4293   22.1711 N   0  0  0  0  0  0  0  0  0  0  0  0
    9.7409  -16.3854   23.8480 C   0  0  0  0  0  0  0  0  0  0  0  0
    9.3427  -17.5713   24.0369 O   0  0  0  0  0  0  0  0  0  0  0  0
    6.3626  -13.2538   24.5480 C   0  0  0  0  0  0  0  0  0  0  0  0
    6.0105  -12.1119   25.2438 C   0  0  0  0  0  0  0  0  0  0  0  0
   11.1242  -16.1553   23.9156 N   0  0  0  0  0  0  0  0  0  0  0  0
   12.0459  -17.2519   24.1061 C   0  0  0  0  0  0  0  0  0  0  0  0
   13.4459  -16.8412   23.9299 C   0  0  0  0  0  0  0  0  0  0  0  0
   14.1699  -16.6733   24.9415 O   0  0  0  0  0  0  0  0  0  0  0  0
   13.9758  -16.6379   22.6705 O   0  0  0  0  0  0  0  0  0  0  0  0
  1  2  1  0
  2  4  1  0
  2  3  2  0
  4  5  1  0
  5  7  1  0
  5  6  1  1
  7  8  2  0
  9 10  1  0
 10 20  2  0
 10 11  1  0
 11 12  2  0
 12 13  1  0
 13 14  1  0
 15 14  1  1
 15 17  1  0
 16 15  1  0
 16  7  1  0
 17 18  2  0
 17 21  1  0
 19 13  2  0
 20 19  1  0
 21 22  1  0
 22 23  1  0
 23 24  2  0
 23 25  1  0
M  END
$$$$
