NYG.pdb
     RDKit          3D

 25 25  0  0  1  0  0  0  0  0999 V2000
    8.7596  -16.9238   16.3359 N   0  0  0  0  0  0  0  0  0  0  0  0
    7.8489  -17.1540   17.3881 C   0  0  0  0  0  0  0  0  0  0  0  0
    7.1186  -18.1640   17.3901 O   0  0  0  0  0  0  0  0  0  0  0  0
    7.7594  -16.1887   18.4991 C   0  0  0  0  0  0  0  0  0  0  0  0
    8.5848  -16.7106   19.6613 C   0  0  2  0  0  0  0  0  0  0  0  0
    7.9396  -17.9331   20.1108 N   0  0  0  0  0  0  0  0  0  0  0  0
    8.6710  -15.7317   20.7567 C   0  0  0  0  0  0  0  0  0  0  0  0
    9.2763  -14.6448   20.5619 O   0  0  0  0  0  0  0  0  0  0  0  0
    6.6229  -11.0749   27.9994 O   0  0  0  0  0  0  0  0  0  0  0  0
    6.6970  -12.0305   26.9922 C   0  0  0  0  0  0  0  0  0  0  0  0
    7.2157  -13.2911   27.2029 C   0  0  0  0  0  0  0  0  0  0  0  0
    7.2945  -14.2428   26.2193 C   0  0  0  0  0  0  0  0  0  0  0  0
    6.8435  -13.9651   24.9422 C   0  0  0  0  0  0  0  0  0  0  0  0
    6.9348  -14.9884   23.8808 C   0  0  0  0  0  0  0  0  0  0  0  0
    8.2171  -14.9245   23.0880 C   0  0  2  0  0  0  0  0  0  0  0  0
    8.1024  -15.9470   22.0375 N   0  0  0  0  0  0  0  0  0  0  0  0
    9.3826  -15.2486   23.9374 C   0  0  0  0  0  0  0  0  0  0  0  0
    9.6488  -14.5286   24.9431 O   0  0  0  0  0  0  0  0  0  0  0  0
    6.3163  -12.6950   24.7121 C   0  0  0  0  0  0  0  0  0  0  0  0
    6.2463  -11.7503   25.7194 C   0  0  0  0  0  0  0  0  0  0  0  0
   10.2326  -16.3372   23.6855 N   0  0  0  0  0  0  0  0  0  0  0  0
   11.3629  -16.6050   24.5453 C   0  0  0  0  0  0  0  0  0  0  0  0
   12.6447  -16.3082   23.8907 C   0  0  0  0  0  0  0  0  0  0  0  0
   12.6486  -15.8846   22.7091 O   0  0  0  0  0  0  0  0  0  0  0  0
   13.8425  -16.4881   24.5548 O   0  0  0  0  0  0  0  0  0  0  0  0
  1  2  1  0
  2  4  1  0
  2  3  2  0
  4  5  1  0
  5  7  1  0
  5  6  1  1
  7  8  2  0
  9 10  1  0
 10 20  2  0
 10 11  1  0
 11 12  2  0
 12 13  1  0
 13 14  1  0
 15 14  1  1
 15 17  1  0
 16 15  1  0
 16  7  1  0
 17 18  2  0
 17 21  1  0
 19 13  2  0
 20 19  1  0
 21 22  1  0
 22 23  1  0
 23 24  2  0
 23 25  1  0
M  END
$$$$
