NYG.pdb
     RDKit          3D

 25 25  0  0  1  0  0  0  0  0999 V2000
    6.6015  -13.3004   17.3728 N   0  0  0  0  0  0  0  0  0  0  0  0
    7.7023  -13.9339   17.9863 C   0  0  0  0  0  0  0  0  0  0  0  0
    8.3473  -14.8151   17.3856 O   0  0  0  0  0  0  0  0  0  0  0  0
    8.0950  -13.5494   19.3546 C   0  0  0  0  0  0  0  0  0  0  0  0
    8.2812  -14.8116   20.1773 C   0  0  2  0  0  0  0  0  0  0  0  0
    6.9575  -15.3824   20.3642 N   0  0  0  0  0  0  0  0  0  0  0  0
    8.9181  -14.5325   21.4742 C   0  0  0  0  0  0  0  0  0  0  0  0
   10.0413  -13.9637   21.4962 O   0  0  0  0  0  0  0  0  0  0  0  0
   10.5043  -14.7533   30.2479 O   0  0  0  0  0  0  0  0  0  0  0  0
    9.9190  -14.7362   28.9869 C   0  0  0  0  0  0  0  0  0  0  0  0
    9.5567  -15.8892   28.3220 C   0  0  0  0  0  0  0  0  0  0  0  0
    8.9788  -15.8868   27.0788 C   0  0  0  0  0  0  0  0  0  0  0  0
    8.7307  -14.6931   26.4271 C   0  0  0  0  0  0  0  0  0  0  0  0
    8.1142  -14.6912   25.0847 C   0  0  0  0  0  0  0  0  0  0  0  0
    9.1137  -14.8058   23.9601 C   0  0  2  0  0  0  0  0  0  0  0  0
    8.3293  -14.8732   22.7181 N   0  0  0  0  0  0  0  0  0  0  0  0
    9.9109  -16.0444   24.0832 C   0  0  0  0  0  0  0  0  0  0  0  0
    9.3354  -17.1704   24.0449 O   0  0  0  0  0  0  0  0  0  0  0  0
    9.0912  -13.5181   27.0853 C   0  0  0  0  0  0  0  0  0  0  0  0
    9.6730  -13.5438   28.3394 C   0  0  0  0  0  0  0  0  0  0  0  0
   11.3057  -16.0427   24.2443 N   0  0  0  0  0  0  0  0  0  0  0  0
   12.0313  -17.2820   24.4047 C   0  0  0  0  0  0  0  0  0  0  0  0
   13.4863  -17.0774   24.4316 C   0  0  0  0  0  0  0  0  0  0  0  0
   14.0554  -16.8491   25.5269 O   0  0  0  0  0  0  0  0  0  0  0  0
   14.2352  -17.1326   23.2722 O   0  0  0  0  0  0  0  0  0  0  0  0
  1  2  1  0
  2  4  1  0
  2  3  2  0
  4  5  1  0
  5  7  1  0
  5  6  1  1
  7  8  2  0
  9 10  1  0
 10 20  2  0
 10 11  1  0
 11 12  2  0
 12 13  1  0
 13 14  1  0
 15 14  1  1
 15 17  1  0
 16 15  1  0
 16  7  1  0
 17 18  2  0
 17 21  1  0
 19 13  2  0
 20 19  1  0
 21 22  1  0
 22 23  1  0
 23 24  2  0
 23 25  1  0
M  END
$$$$
