NYG.pdb
     RDKit          3D

 25 25  0  0  1  0  0  0  0  0999 V2000
    8.0440  -15.2311   17.7912 N   0  0  0  0  0  0  0  0  0  0  0  0
    8.0044  -13.9190   18.3072 C   0  0  0  0  0  0  0  0  0  0  0  0
    7.7113  -12.9541   17.5748 O   0  0  0  0  0  0  0  0  0  0  0  0
    8.3133  -13.6856   19.7300 C   0  0  0  0  0  0  0  0  0  0  0  0
    8.6014  -15.0228   20.3883 C   0  0  2  0  0  0  0  0  0  0  0  0
    7.3510  -15.7640   20.3834 N   0  0  0  0  0  0  0  0  0  0  0  0
    9.1081  -14.8614   21.7604 C   0  0  0  0  0  0  0  0  0  0  0  0
   10.1220  -14.1415   21.9591 O   0  0  0  0  0  0  0  0  0  0  0  0
    5.8083  -10.4294   26.9259 O   0  0  0  0  0  0  0  0  0  0  0  0
    6.3207  -11.6507   26.5029 C   0  0  0  0  0  0  0  0  0  0  0  0
    7.5556  -12.1159   26.9049 C   0  0  0  0  0  0  0  0  0  0  0  0
    8.0727  -13.3178   26.4959 C   0  0  0  0  0  0  0  0  0  0  0  0
    7.3538  -14.1316   25.6401 C   0  0  0  0  0  0  0  0  0  0  0  0
    7.9142  -15.4236   25.1942 C   0  0  0  0  0  0  0  0  0  0  0  0
    9.0688  -15.2823   24.2330 C   0  0  2  0  0  0  0  0  0  0  0  0
    8.5099  -15.4797   22.8872 N   0  0  0  0  0  0  0  0  0  0  0  0
   10.0919  -16.3210   24.4767 C   0  0  0  0  0  0  0  0  0  0  0  0
   10.6337  -16.4164   25.6160 O   0  0  0  0  0  0  0  0  0  0  0  0
    6.1035  -13.6761   25.2240 C   0  0  0  0  0  0  0  0  0  0  0  0
    5.6012  -12.4600   25.6493 C   0  0  0  0  0  0  0  0  0  0  0  0
   10.5073  -17.2306   23.4912 N   0  0  0  0  0  0  0  0  0  0  0  0
   11.5067  -18.2319   23.7857 C   0  0  0  0  0  0  0  0  0  0  0  0
   12.8630  -17.7861   23.4373 C   0  0  0  0  0  0  0  0  0  0  0  0
   13.7992  -18.6219   23.4172 O   0  0  0  0  0  0  0  0  0  0  0  0
   13.1222  -16.4640   23.1323 O   0  0  0  0  0  0  0  0  0  0  0  0
  1  2  1  0
  2  4  1  0
  2  3  2  0
  4  5  1  0
  5  7  1  0
  5  6  1  1
  7  8  2  0
  9 10  1  0
 10 20  2  0
 10 11  1  0
 11 12  2  0
 12 13  1  0
 13 14  1  0
 15 14  1  1
 15 17  1  0
 16 15  1  0
 16  7  1  0
 17 18  2  0
 17 21  1  0
 19 13  2  0
 20 19  1  0
 21 22  1  0
 22 23  1  0
 23 24  2  0
 23 25  1  0
M  END
$$$$
