NYG.pdb
     RDKit          3D

 25 25  0  0  1  0  0  0  0  0999 V2000
    8.0766  -20.0377   18.7760 N   0  0  0  0  0  0  0  0  0  0  0  0
    8.6971  -18.8538   18.3255 C   0  0  0  0  0  0  0  0  0  0  0  0
    8.8490  -18.6368   17.1076 O   0  0  0  0  0  0  0  0  0  0  0  0
    9.1720  -17.8608   19.3067 C   0  0  0  0  0  0  0  0  0  0  0  0
    8.0203  -16.9349   19.6541 C   0  0  2  0  0  0  0  0  0  0  0  0
    7.6718  -16.2313   18.4308 N   0  0  0  0  0  0  0  0  0  0  0  0
    8.3814  -15.9851   20.7186 C   0  0  0  0  0  0  0  0  0  0  0  0
    9.1202  -15.0040   20.4405 O   0  0  0  0  0  0  0  0  0  0  0  0
    6.9456  -10.9919   27.9201 O   0  0  0  0  0  0  0  0  0  0  0  0
    6.9563  -11.9994   26.9620 C   0  0  0  0  0  0  0  0  0  0  0  0
    6.1830  -11.9458   25.8210 C   0  0  0  0  0  0  0  0  0  0  0  0
    6.1841  -12.9317   24.8684 C   0  0  0  0  0  0  0  0  0  0  0  0
    6.9841  -14.0488   25.0215 C   0  0  0  0  0  0  0  0  0  0  0  0
    6.9798  -15.1141   23.9981 C   0  0  0  0  0  0  0  0  0  0  0  0
    8.1221  -15.0149   23.0172 C   0  0  2  0  0  0  0  0  0  0  0  0
    7.9378  -16.1148   22.0588 N   0  0  0  0  0  0  0  0  0  0  0  0
    9.4223  -15.1937   23.6973 C   0  0  0  0  0  0  0  0  0  0  0  0
    9.8148  -14.3369   24.5413 O   0  0  0  0  0  0  0  0  0  0  0  0
    7.7719  -14.1188   26.1696 C   0  0  0  0  0  0  0  0  0  0  0  0
    7.7553  -13.1124   27.1177 C   0  0  0  0  0  0  0  0  0  0  0  0
   10.2678  -16.2877   23.4539 N   0  0  0  0  0  0  0  0  0  0  0  0
   11.4929  -16.4540   24.2021 C   0  0  0  0  0  0  0  0  0  0  0  0
   11.5009  -17.6936   24.9914 C   0  0  0  0  0  0  0  0  0  0  0  0
   12.5964  -18.1721   25.3743 O   0  0  0  0  0  0  0  0  0  0  0  0
   10.3237  -18.3383   25.3176 O   0  0  0  0  0  0  0  0  0  0  0  0
  1  2  1  0
  2  4  1  0
  2  3  2  0
  4  5  1  0
  5  7  1  0
  5  6  1  6
  7  8  2  0
  9 10  1  0
 10 20  2  0
 10 11  1  0
 11 12  2  0
 12 13  1  0
 13 14  1  0
 15 14  1  1
 15 17  1  0
 16 15  1  0
 16  7  1  0
 17 18  2  0
 17 21  1  0
 19 13  2  0
 20 19  1  0
 21 22  1  0
 22 23  1  0
 23 24  2  0
 23 25  1  0
M  END
$$$$
