QCC.pdb
     RDKit          3D

 22 21  0  0  1  0  0  0  0  0999 V2000
   24.4129  -24.4689  -14.0826 N   0  0  0  0  0  0  0  0  0  0  0  0
   23.0432  -24.5210  -13.6599 C   0  0  0  0  0  0  0  0  0  0  0  0
   22.4022  -25.5510  -13.9443 O   0  0  0  0  0  0  0  0  0  0  0  0
   22.5166  -23.3649  -12.9316 C   0  0  0  0  0  0  0  0  0  0  0  0
   23.4310  -22.2180  -12.7429 C   0  0  0  0  0  0  0  0  0  0  0  0
   23.3671  -21.1083  -13.7188 C   0  0  2  0  0  0  0  0  0  0  0  0
   22.7727  -21.4345  -14.9924 N   0  0  0  0  0  0  0  0  0  0  0  0
   24.6550  -20.3759  -13.8734 C   0  0  0  0  0  0  0  0  0  0  0  0
   25.1698  -19.8687  -12.8442 O   0  0  0  0  0  0  0  0  0  0  0  0
   25.3023  -20.2332  -15.0980 N   0  0  0  0  0  0  0  0  0  0  0  0
   26.6009  -19.5878  -15.2879 C   0  0  1  0  0  0  0  0  0  0  0  0
   27.5000  -20.4623  -16.1232 C   0  0  0  0  0  0  0  0  0  0  0  0
   27.9514  -21.9343  -15.1887 S   0  0  0  0  0  0  0  0  0  0  0  0
   26.3439  -18.2699  -15.8693 C   0  0  0  0  0  0  0  0  0  0  0  0
   25.3298  -18.1406  -16.6432 O   0  0  0  0  0  0  0  0  0  0  0  0
   27.1005  -17.0953  -15.6703 N   0  0  0  0  0  0  0  0  0  0  0  0
   26.6897  -15.8457  -16.2880 C   0  0  1  0  0  0  0  0  0  0  0  0
   26.6674  -14.7047  -15.2952 C   0  0  0  0  0  0  0  0  0  0  0  0
   26.2558  -13.1983  -16.2463 S   0  0  0  0  0  0  0  0  0  0  0  0
   27.5934  -15.5211  -17.4162 C   0  0  0  0  0  0  0  0  0  0  0  0
   28.7889  -15.8632  -17.3533 O   0  0  0  0  0  0  0  0  0  0  0  0
   27.1396  -14.8473  -18.5367 O   0  0  0  0  0  0  0  0  0  0  0  0
  1  2  1  0
  2  3  2  0
  4  5  1  0
  4  2  1  0
  6  8  1  0
  6  5  1  0
  6  7  1  6
  8 10  1  0
  8  9  2  0
 10 11  1  0
 11 14  1  0
 11 12  1  6
 13 12  1  0
 14 16  1  0
 14 15  2  0
 16 17  1  0
 17 20  1  0
 17 18  1  1
 19 18  1  0
 20 22  1  0
 21 20  2  0
M  END
$$$$
