QCC.pdb
     RDKit          3D

 22 21  0  0  1  0  0  0  0  0999 V2000
   18.5783  -15.6638  -14.7970 N   0  0  0  0  0  0  0  0  0  0  0  0
   17.4779  -15.4910  -15.7008 C   0  0  0  0  0  0  0  0  0  0  0  0
   16.6775  -16.4402  -15.8056 O   0  0  0  0  0  0  0  0  0  0  0  0
   17.3878  -14.2185  -16.4197 C   0  0  0  0  0  0  0  0  0  0  0  0
   18.3867  -13.1830  -16.0777 C   0  0  0  0  0  0  0  0  0  0  0  0
   18.3349  -11.8972  -16.8074 C   0  0  2  0  0  0  0  0  0  0  0  0
   18.7916  -11.9405  -18.1753 N   0  0  0  0  0  0  0  0  0  0  0  0
   18.9324  -10.7599  -16.0534 C   0  0  0  0  0  0  0  0  0  0  0  0
   18.4789  -10.5119  -14.9069 O   0  0  0  0  0  0  0  0  0  0  0  0
   19.9606   -9.9710  -16.5629 N   0  0  0  0  0  0  0  0  0  0  0  0
   20.5416   -8.8129  -15.8843 C   0  0  1  0  0  0  0  0  0  0  0  0
   21.9946   -8.6663  -16.2562 C   0  0  0  0  0  0  0  0  0  0  0  0
   22.6556   -7.1557  -15.5315 S   0  0  0  0  0  0  0  0  0  0  0  0
   19.7179   -7.6546  -16.2316 C   0  0  0  0  0  0  0  0  0  0  0  0
   19.4103   -7.4823  -17.4644 O   0  0  0  0  0  0  0  0  0  0  0  0
   19.2086   -6.6823  -15.3445 N   0  0  0  0  0  0  0  0  0  0  0  0
   18.4465   -5.5541  -15.8529 C   0  0  1  0  0  0  0  0  0  0  0  0
   17.0772   -5.4642  -15.2167 C   0  0  0  0  0  0  0  0  0  0  0  0
   16.2347   -7.0470  -15.5746 S   0  0  0  0  0  0  0  0  0  0  0  0
   19.1967   -4.2968  -15.6260 C   0  0  0  0  0  0  0  0  0  0  0  0
   20.3354   -4.3522  -15.1257 O   0  0  0  0  0  0  0  0  0  0  0  0
   18.6612   -3.0643  -15.9571 O   0  0  0  0  0  0  0  0  0  0  0  0
  1  2  1  0
  2  3  2  0
  4  5  1  0
  4  2  1  0
  6  8  1  0
  6  5  1  0
  6  7  1  6
  8 10  1  0
  8  9  2  0
 10 11  1  0
 11 14  1  0
 11 12  1  6
 13 12  1  0
 14 16  1  0
 14 15  2  0
 16 17  1  0
 17 20  1  0
 17 18  1  1
 19 18  1  0
 20 22  1  0
 21 20  2  0
M  END
$$$$
