QCC.pdb
     RDKit          3D

 22 21  0  0  1  0  0  0  0  0999 V2000
   18.3610  -17.3169  -17.4144 N   0  0  0  0  0  0  0  0  0  0  0  0
   18.3589  -18.2073  -18.5390 C   0  0  0  0  0  0  0  0  0  0  0  0
   17.3078  -18.2755  -19.2047 O   0  0  0  0  0  0  0  0  0  0  0  0
   19.5876  -18.9566  -18.8096 C   0  0  0  0  0  0  0  0  0  0  0  0
   20.7492  -18.6767  -17.9381 C   0  0  0  0  0  0  0  0  0  0  0  0
   21.3543  -19.8067  -17.1997 C   0  0  2  0  0  0  0  0  0  0  0  0
   20.5787  -21.0231  -17.1812 N   0  0  0  0  0  0  0  0  0  0  0  0
   21.8471  -19.4364  -15.8435 C   0  0  0  0  0  0  0  0  0  0  0  0
   22.2394  -18.2553  -15.6630 O   0  0  0  0  0  0  0  0  0  0  0  0
   21.8895  -20.3364  -14.7819 N   0  0  0  0  0  0  0  0  0  0  0  0
   22.3415  -20.0138  -13.4288 C   0  0  1  0  0  0  0  0  0  0  0  0
   21.2223  -20.2240  -12.4419 C   0  0  0  0  0  0  0  0  0  0  0  0
   20.0578  -18.8540  -12.5460 S   0  0  0  0  0  0  0  0  0  0  0  0
   23.5278  -20.8292  -13.1670 C   0  0  0  0  0  0  0  0  0  0  0  0
   23.4670  -22.0826  -13.4307 O   0  0  0  0  0  0  0  0  0  0  0  0
   24.7621  -20.3845  -12.6471 N   0  0  0  0  0  0  0  0  0  0  0  0
   25.7908  -21.3433  -12.2803 C   0  0  1  0  0  0  0  0  0  0  0  0
   27.1671  -20.8893  -12.7134 C   0  0  0  0  0  0  0  0  0  0  0  0
   27.1111  -20.7306  -14.5341 S   0  0  0  0  0  0  0  0  0  0  0  0
   25.7673  -21.5713  -10.8166 C   0  0  0  0  0  0  0  0  0  0  0  0
   25.0646  -20.8351  -10.0995 O   0  0  0  0  0  0  0  0  0  0  0  0
   26.5075  -22.5826  -10.2293 O   0  0  0  0  0  0  0  0  0  0  0  0
  1  2  1  0
  2  3  2  0
  4  5  1  0
  4  2  1  0
  6  8  1  0
  6  5  1  0
  6  7  1  1
  8 10  1  0
  8  9  2  0
 10 11  1  0
 11 14  1  0
 11 12  1  1
 13 12  1  0
 14 16  1  0
 14 15  2  0
 16 17  1  0
 17 20  1  0
 17 18  1  1
 19 18  1  0
 20 22  1  0
 21 20  2  0
M  END
$$$$
