QCC.pdb
     RDKit          3D

 22 21  0  0  1  0  0  0  0  0999 V2000
   27.1512  -37.1895   -6.0655 N   0  0  0  0  0  0  0  0  0  0  0  0
   28.1758  -37.3896   -7.0493 C   0  0  0  0  0  0  0  0  0  0  0  0
   27.8814  -38.0873   -8.0388 O   0  0  0  0  0  0  0  0  0  0  0  0
   29.4751  -36.7584   -6.8093 C   0  0  0  0  0  0  0  0  0  0  0  0
   29.5982  -35.9163   -5.5998 C   0  0  0  0  0  0  0  0  0  0  0  0
   29.2144  -34.4913   -5.7011 C   0  0  2  0  0  0  0  0  0  0  0  0
   30.1548  -33.6423   -6.3914 N   0  0  0  0  0  0  0  0  0  0  0  0
   28.7715  -33.9002   -4.4075 C   0  0  0  0  0  0  0  0  0  0  0  0
   29.6405  -33.7160   -3.5173 O   0  0  0  0  0  0  0  0  0  0  0  0
   27.4491  -33.5484   -4.1495 N   0  0  0  0  0  0  0  0  0  0  0  0
   26.9650  -32.9772   -2.8932 C   0  0  1  0  0  0  0  0  0  0  0  0
   25.5962  -32.3774   -3.0870 C   0  0  0  0  0  0  0  0  0  0  0  0
   25.2613  -31.1950   -1.7704 S   0  0  0  0  0  0  0  0  0  0  0  0
   27.0123  -34.0425   -1.8913 C   0  0  0  0  0  0  0  0  0  0  0  0
   26.5319  -35.1884   -2.2078 O   0  0  0  0  0  0  0  0  0  0  0  0
   27.5403  -33.9530   -0.5856 N   0  0  0  0  0  0  0  0  0  0  0  0
   27.4797  -35.0965    0.3092 C   0  0  1  0  0  0  0  0  0  0  0  0
   28.8492  -35.4916    0.8154 C   0  0  0  0  0  0  0  0  0  0  0  0
   29.7869  -36.0860   -0.6375 S   0  0  0  0  0  0  0  0  0  0  0  0
   26.5827  -34.7962    1.4495 C   0  0  0  0  0  0  0  0  0  0  0  0
   26.0154  -33.6890    1.4994 O   0  0  0  0  0  0  0  0  0  0  0  0
   26.3616  -35.7170    2.4588 O   0  0  0  0  0  0  0  0  0  0  0  0
  1  2  1  0
  2  3  2  0
  4  5  1  0
  4  2  1  0
  6  8  1  0
  6  5  1  0
  6  7  1  1
  8 10  1  0
  8  9  2  0
 10 11  1  0
 11 14  1  0
 11 12  1  6
 13 12  1  0
 14 16  1  0
 14 15  2  0
 16 17  1  0
 17 20  1  0
 17 18  1  1
 19 18  1  0
 20 22  1  0
 21 20  2  0
M  END
$$$$
