QCC.pdb
     RDKit          3D

 22 21  0  0  1  0  0  0  0  0999 V2000
   16.2986  -13.4937  -14.2876 N   0  0  0  0  0  0  0  0  0  0  0  0
   16.3690  -13.6531  -15.7114 C   0  0  0  0  0  0  0  0  0  0  0  0
   15.9692  -14.7363  -16.1798 O   0  0  0  0  0  0  0  0  0  0  0  0
   16.9010  -12.5334  -16.4908 C   0  0  0  0  0  0  0  0  0  0  0  0
   17.2779  -11.3147  -15.7426 C   0  0  0  0  0  0  0  0  0  0  0  0
   17.9295  -10.2144  -16.4863 C   0  0  2  0  0  0  0  0  0  0  0  0
   18.9786  -10.6133  -17.3929 N   0  0  0  0  0  0  0  0  0  0  0  0
   18.3406   -9.0729  -15.6220 C   0  0  0  0  0  0  0  0  0  0  0  0
   17.5427   -8.6976  -14.7252 O   0  0  0  0  0  0  0  0  0  0  0  0
   19.5586   -8.4140  -15.7672 N   0  0  0  0  0  0  0  0  0  0  0  0
   19.9785   -7.2500  -14.9875 C   0  0  1  0  0  0  0  0  0  0  0  0
   21.4814   -7.2063  -14.8851 C   0  0  0  0  0  0  0  0  0  0  0  0
   22.0464   -8.4669  -13.7295 S   0  0  0  0  0  0  0  0  0  0  0  0
   19.3904   -6.0717  -15.6252 C   0  0  0  0  0  0  0  0  0  0  0  0
   19.2268   -6.0939  -16.8968 O   0  0  0  0  0  0  0  0  0  0  0  0
   18.9699   -4.8855  -14.9867 N   0  0  0  0  0  0  0  0  0  0  0  0
   18.2220   -3.8816  -15.7247 C   0  0  1  0  0  0  0  0  0  0  0  0
   16.9228   -4.4319  -16.2699 C   0  0  0  0  0  0  0  0  0  0  0  0
   16.0308   -3.0174  -17.0093 S   0  0  0  0  0  0  0  0  0  0  0  0
   17.9542   -2.7128  -14.8544 C   0  0  0  0  0  0  0  0  0  0  0  0
   17.4489   -2.8962  -13.7314 O   0  0  0  0  0  0  0  0  0  0  0  0
   18.2527   -1.4239  -15.2609 O   0  0  0  0  0  0  0  0  0  0  0  0
  1  2  1  0
  2  3  2  0
  4  5  1  0
  4  2  1  0
  6  8  1  0
  6  5  1  0
  6  7  1  1
  8 10  1  0
  8  9  2  0
 10 11  1  0
 11 14  1  0
 11 12  1  6
 13 12  1  0
 14 16  1  0
 14 15  2  0
 16 17  1  0
 17 20  1  0
 17 18  1  1
 19 18  1  0
 20 22  1  0
 21 20  2  0
M  END
$$$$
