EDF.pdb
     RDKit          3D

 29 29  0  0  1  0  0  0  0  0999 V2000
   16.7294  -11.1481  -16.4393 N   0  0  0  0  0  0  0  0  0  0  0  0
   17.9483  -10.7630  -15.7916 C   0  0  1  0  0  0  0  0  0  0  0  0
   19.0773  -11.7070  -15.9285 C   0  0  0  0  0  0  0  0  0  0  0  0
   19.1158  -12.5521  -17.1591 C   0  0  0  0  0  0  0  0  0  0  0  0
   19.1236  -13.9933  -16.9552 C   0  0  0  0  0  0  0  0  0  0  0  0
   18.3576  -14.8059  -17.5150 O   0  0  0  0  0  0  0  0  0  0  0  0
   18.2932   -9.3592  -16.1328 C   0  0  0  0  0  0  0  0  0  0  0  0
   19.1706   -9.1653  -17.0091 O   0  0  0  0  0  0  0  0  0  0  0  0
   20.0769  -14.5217  -16.0484 O   0  0  0  0  0  0  0  0  0  0  0  0
   17.6916   -8.2385  -15.5291 N   0  0  0  0  0  0  0  0  0  0  0  0
   18.0028   -6.8534  -15.8814 C   0  0  1  0  0  0  0  0  0  0  0  0
   16.7272   -6.0767  -15.7696 C   0  0  0  0  0  0  0  0  0  0  0  0
   16.8333   -4.6602  -16.1431 C   0  0  0  0  0  0  0  0  0  0  0  0
   17.5488   -4.4165  -17.1722 O   0  0  0  0  0  0  0  0  0  0  0  0
   18.9394   -6.2673  -14.8610 C   0  0  0  0  0  0  0  0  0  0  0  0
   18.6654   -6.4260  -13.6444 O   0  0  0  0  0  0  0  0  0  0  0  0
   16.2553   -3.5941  -15.5139 O   0  0  0  0  0  0  0  0  0  0  0  0
   20.0944   -5.5578  -15.2093 N   0  0  0  0  0  0  0  0  0  0  0  0
   21.0514   -5.0606  -14.2011 C   0  0  1  0  0  0  0  0  0  0  0  0
   22.4202   -5.5838  -14.4714 C   0  0  0  0  0  0  0  0  0  0  0  0
   22.4343   -7.0499  -14.3869 C   0  0  0  0  0  0  0  0  0  0  0  0
   22.2385   -7.6535  -13.1464 C   0  0  0  0  0  0  0  0  0  0  0  0
   22.2123   -9.0032  -12.9557 C   0  0  0  0  0  0  0  0  0  0  0  0
   22.3890   -9.8482  -14.0468 C   0  0  0  0  0  0  0  0  0  0  0  0
   22.5851   -9.2713  -15.2889 C   0  0  0  0  0  0  0  0  0  0  0  0
   22.6062   -7.9087  -15.4501 C   0  0  0  0  0  0  0  0  0  0  0  0
   21.0035   -3.5956  -14.2435 C   0  0  0  0  0  0  0  0  0  0  0  0
   21.7154   -2.8479  -13.3342 O   0  0  0  0  0  0  0  0  0  0  0  0
   20.3157   -3.0105  -15.1056 O   0  0  0  0  0  0  0  0  0  0  0  0
  2  1  1  6
  2  3  1  0
  2  7  1  0
  3  4  1  0
  4  5  1  0
  5  9  1  0
  5  6  2  0
  7 10  1  0
  7  8  2  0
 10 11  1  0
 11 12  1  1
 13 12  1  0
 13 17  1  0
 14 13  2  0
 15 11  1  0
 15 16  2  0
 18 15  1  0
 19 18  1  0
 19 20  1  6
 21 20  1  0
 21 22  2  0
 23 22  1  0
 24 23  2  0
 25 26  2  0
 25 24  1  0
 26 21  1  0
 27 19  1  0
 28 27  1  0
 29 27  2  0
M  END
$$$$
