EDF.pdb
     RDKit          3D

 29 29  0  0  1  0  0  0  0  0999 V2000
   21.4373  -12.5855  -17.5674 N   0  0  0  0  0  0  0  0  0  0  0  0
   20.4635  -11.6820  -18.1050 C   0  0  1  0  0  0  0  0  0  0  0  0
   19.0878  -11.8338  -17.5867 C   0  0  0  0  0  0  0  0  0  0  0  0
   18.8829  -11.6276  -16.1219 C   0  0  0  0  0  0  0  0  0  0  0  0
   18.2641  -12.7253  -15.3934 C   0  0  0  0  0  0  0  0  0  0  0  0
   17.2115  -12.6460  -14.7253 O   0  0  0  0  0  0  0  0  0  0  0  0
   20.9727  -10.2875  -18.0604 C   0  0  0  0  0  0  0  0  0  0  0  0
   22.1179  -10.0942  -17.5844 O   0  0  0  0  0  0  0  0  0  0  0  0
   18.9050  -13.9890  -15.4439 O   0  0  0  0  0  0  0  0  0  0  0  0
   20.2435   -9.1748  -18.5213 N   0  0  0  0  0  0  0  0  0  0  0  0
   20.7576   -7.8054  -18.5292 C   0  0  1  0  0  0  0  0  0  0  0  0
   19.9545   -7.0427  -19.5372 C   0  0  0  0  0  0  0  0  0  0  0  0
   20.4063   -5.6648  -19.7705 C   0  0  0  0  0  0  0  0  0  0  0  0
   19.5113   -4.8584  -20.1936 O   0  0  0  0  0  0  0  0  0  0  0  0
   20.4885   -7.1535  -17.2009 C   0  0  0  0  0  0  0  0  0  0  0  0
   19.4474   -7.4839  -16.5784 O   0  0  0  0  0  0  0  0  0  0  0  0
   21.6641   -5.1649  -19.5848 O   0  0  0  0  0  0  0  0  0  0  0  0
   21.3439   -6.2013  -16.6350 N   0  0  0  0  0  0  0  0  0  0  0  0
   21.1486   -5.6748  -15.2696 C   0  0  1  0  0  0  0  0  0  0  0  0
   22.3884   -5.8391  -14.4596 C   0  0  0  0  0  0  0  0  0  0  0  0
   22.7003   -7.2633  -14.2832 C   0  0  0  0  0  0  0  0  0  0  0  0
   22.0048   -7.9892  -13.3184 C   0  0  0  0  0  0  0  0  0  0  0  0
   22.1985   -9.3181  -13.0837 C   0  0  0  0  0  0  0  0  0  0  0  0
   23.1395  -10.0123  -13.8376 C   0  0  0  0  0  0  0  0  0  0  0  0
   23.8425   -9.3120  -14.8018 C   0  0  0  0  0  0  0  0  0  0  0  0
   23.6255   -7.9741  -15.0156 C   0  0  0  0  0  0  0  0  0  0  0  0
   20.7582   -4.2673  -15.3996 C   0  0  0  0  0  0  0  0  0  0  0  0
   20.4523   -3.5225  -14.2841 O   0  0  0  0  0  0  0  0  0  0  0  0
   20.6989   -3.7293  -16.5247 O   0  0  0  0  0  0  0  0  0  0  0  0
  2  1  1  1
  2  3  1  0
  2  7  1  0
  3  4  1  0
  4  5  1  0
  5  9  1  0
  5  6  2  0
  7 10  1  0
  7  8  2  0
 10 11  1  0
 11 12  1  6
 13 12  1  0
 13 17  1  0
 14 13  2  0
 15 11  1  0
 15 16  2  0
 18 15  1  0
 19 18  1  0
 19 20  1  1
 21 20  1  0
 21 22  2  0
 23 22  1  0
 24 23  2  0
 25 26  2  0
 25 24  1  0
 26 21  1  0
 27 19  1  0
 28 27  1  0
 29 27  2  0
M  END
$$$$
