EDF.pdb
     RDKit          3D

 29 29  0  0  1  0  0  0  0  0999 V2000
   18.2606  -13.0450  -17.2620 N   0  0  0  0  0  0  0  0  0  0  0  0
   19.2473  -12.4343  -16.4212 C   0  0  1  0  0  0  0  0  0  0  0  0
   20.6032  -13.0185  -16.4892 C   0  0  0  0  0  0  0  0  0  0  0  0
   21.1920  -13.2224  -17.8462 C   0  0  0  0  0  0  0  0  0  0  0  0
   22.3941  -12.4607  -18.1520 C   0  0  0  0  0  0  0  0  0  0  0  0
   23.5426  -12.7279  -17.7398 O   0  0  0  0  0  0  0  0  0  0  0  0
   19.2197  -10.9579  -16.5811 C   0  0  0  0  0  0  0  0  0  0  0  0
   19.2945  -10.4905  -17.7435 O   0  0  0  0  0  0  0  0  0  0  0  0
   22.2541  -11.3222  -18.9853 O   0  0  0  0  0  0  0  0  0  0  0  0
   19.1145  -10.0576  -15.5036 N   0  0  0  0  0  0  0  0  0  0  0  0
   19.0269   -8.6055  -15.6559 C   0  0  1  0  0  0  0  0  0  0  0  0
   18.1813   -8.0980  -14.5289 C   0  0  0  0  0  0  0  0  0  0  0  0
   16.7330   -8.2172  -14.7427 C   0  0  0  0  0  0  0  0  0  0  0  0
   16.3505   -8.1450  -15.9588 O   0  0  0  0  0  0  0  0  0  0  0  0
   20.3867   -7.9914  -15.4672 C   0  0  0  0  0  0  0  0  0  0  0  0
   21.1070   -8.4220  -14.5312 O   0  0  0  0  0  0  0  0  0  0  0  0
   15.7690   -8.3943  -13.7911 O   0  0  0  0  0  0  0  0  0  0  0  0
   20.8778   -6.9677  -16.2855 N   0  0  0  0  0  0  0  0  0  0  0  0
   22.2188   -6.3795  -16.0974 C   0  0  1  0  0  0  0  0  0  0  0  0
   22.6279   -5.6052  -17.3030 C   0  0  0  0  0  0  0  0  0  0  0  0
   23.9381   -4.9773  -17.0885 C   0  0  0  0  0  0  0  0  0  0  0  0
   25.0883   -5.7410  -17.2765 C   0  0  0  0  0  0  0  0  0  0  0  0
   26.3535   -5.2561  -17.1249 C   0  0  0  0  0  0  0  0  0  0  0  0
   26.5332   -3.9251  -16.7620 C   0  0  0  0  0  0  0  0  0  0  0  0
   25.4053   -3.1472  -16.5699 C   0  0  0  0  0  0  0  0  0  0  0  0
   24.1440   -3.6632  -16.7300 C   0  0  0  0  0  0  0  0  0  0  0  0
   22.1588   -5.5389  -14.8973 C   0  0  0  0  0  0  0  0  0  0  0  0
   23.2037   -5.5252  -14.0025 O   0  0  0  0  0  0  0  0  0  0  0  0
   21.1582   -4.8265  -14.6742 O   0  0  0  0  0  0  0  0  0  0  0  0
  2  1  1  6
  2  3  1  0
  2  7  1  0
  3  4  1  0
  4  5  1  0
  5  9  1  0
  5  6  2  0
  7 10  1  0
  7  8  2  0
 10 11  1  0
 11 12  1  1
 13 12  1  0
 13 17  1  0
 14 13  2  0
 15 11  1  0
 15 16  2  0
 18 15  1  0
 19 18  1  0
 19 20  1  6
 21 20  1  0
 21 22  2  0
 23 22  1  0
 24 23  2  0
 25 26  2  0
 25 24  1  0
 26 21  1  0
 27 19  1  0
 28 27  1  0
 29 27  2  0
M  END
$$$$
