EDF.pdb
     RDKit          3D

 29 29  0  0  1  0  0  0  0  0999 V2000
   44.0751   -3.3035   -7.4336 N   0  0  0  0  0  0  0  0  0  0  0  0
   43.7605   -4.6407   -7.0258 C   0  0  1  0  0  0  0  0  0  0  0  0
   42.9663   -4.7667   -5.7857 C   0  0  0  0  0  0  0  0  0  0  0  0
   41.4988   -4.5088   -5.8851 C   0  0  0  0  0  0  0  0  0  0  0  0
   40.7574   -4.4935   -4.6326 C   0  0  0  0  0  0  0  0  0  0  0  0
   41.2450   -4.7060   -3.5023 O   0  0  0  0  0  0  0  0  0  0  0  0
   43.2157   -5.4149   -8.1702 C   0  0  0  0  0  0  0  0  0  0  0  0
   42.3389   -4.8707   -8.8846 O   0  0  0  0  0  0  0  0  0  0  0  0
   39.3687   -4.2151   -4.6965 O   0  0  0  0  0  0  0  0  0  0  0  0
   43.6278   -6.7212   -8.4962 N   0  0  0  0  0  0  0  0  0  0  0  0
   43.1539   -7.4613   -9.6655 C   0  0  1  0  0  0  0  0  0  0  0  0
   44.3162   -8.2507  -10.1838 C   0  0  0  0  0  0  0  0  0  0  0  0
   44.0618   -8.9707  -11.4385 C   0  0  0  0  0  0  0  0  0  0  0  0
   43.0139   -8.6121  -12.0738 O   0  0  0  0  0  0  0  0  0  0  0  0
   42.1192   -8.4685   -9.2448 C   0  0  0  0  0  0  0  0  0  0  0  0
   42.2212   -8.9808   -8.1013 O   0  0  0  0  0  0  0  0  0  0  0  0
   44.8177   -9.9678  -11.9870 O   0  0  0  0  0  0  0  0  0  0  0  0
   41.0564   -8.8549  -10.0692 N   0  0  0  0  0  0  0  0  0  0  0  0
   40.1509   -9.9683   -9.7224 C   0  0  1  0  0  0  0  0  0  0  0  0
   38.8990   -9.4541   -9.0989 C   0  0  0  0  0  0  0  0  0  0  0  0
   37.9969  -10.5652   -8.7695 C   0  0  0  0  0  0  0  0  0  0  0  0
   37.8290  -10.9210   -7.4328 C   0  0  0  0  0  0  0  0  0  0  0  0
   37.0030  -11.9209   -7.0124 C   0  0  0  0  0  0  0  0  0  0  0  0
   36.2748  -12.6426   -7.9529 C   0  0  0  0  0  0  0  0  0  0  0  0
   36.4253  -12.3069   -9.2866 C   0  0  0  0  0  0  0  0  0  0  0  0
   37.2644  -11.2949   -9.6798 C   0  0  0  0  0  0  0  0  0  0  0  0
   39.8855  -10.7119  -10.9581 C   0  0  0  0  0  0  0  0  0  0  0  0
   39.7300  -12.0785  -10.9299 O   0  0  0  0  0  0  0  0  0  0  0  0
   39.7980  -10.1126  -12.0498 O   0  0  0  0  0  0  0  0  0  0  0  0
  2  1  1  6
  2  3  1  0
  2  7  1  0
  3  4  1  0
  4  5  1  0
  5  9  1  0
  5  6  2  0
  7 10  1  0
  7  8  2  0
 10 11  1  0
 11 12  1  1
 13 12  1  0
 13 17  1  0
 14 13  2  0
 15 11  1  0
 15 16  2  0
 18 15  1  0
 19 18  1  0
 19 20  1  6
 21 20  1  0
 21 22  2  0
 23 22  1  0
 24 23  2  0
 25 26  2  0
 25 24  1  0
 26 21  1  0
 27 19  1  0
 28 27  1  0
 29 27  2  0
M  END
$$$$
