EDF.pdb
     RDKit          3D

 29 29  0  0  1  0  0  0  0  0999 V2000
   33.7232  -38.6509   -3.0046 N   0  0  0  0  0  0  0  0  0  0  0  0
   33.0614  -37.4534   -3.4308 C   0  0  1  0  0  0  0  0  0  0  0  0
   32.8729  -37.3050   -4.8891 C   0  0  0  0  0  0  0  0  0  0  0  0
   34.0505  -36.8515   -5.6876 C   0  0  0  0  0  0  0  0  0  0  0  0
   33.8072  -36.5606   -7.0929 C   0  0  0  0  0  0  0  0  0  0  0  0
   34.2124  -37.2489   -8.0534 O   0  0  0  0  0  0  0  0  0  0  0  0
   31.8232  -37.2380   -2.6393 C   0  0  0  0  0  0  0  0  0  0  0  0
   31.0370  -38.2067   -2.5015 O   0  0  0  0  0  0  0  0  0  0  0  0
   33.0490  -35.4028   -7.4007 O   0  0  0  0  0  0  0  0  0  0  0  0
   31.4847  -36.0111   -2.0372 N   0  0  0  0  0  0  0  0  0  0  0  0
   30.2310  -35.7674   -1.3243 C   0  0  1  0  0  0  0  0  0  0  0  0
   30.5029  -34.6940   -0.3160 C   0  0  0  0  0  0  0  0  0  0  0  0
   29.3602  -34.3480    0.5394 C   0  0  0  0  0  0  0  0  0  0  0  0
   28.3959  -35.1849    0.5312 O   0  0  0  0  0  0  0  0  0  0  0  0
   29.2090  -35.2016   -2.2715 C   0  0  0  0  0  0  0  0  0  0  0  0
   28.1108  -34.8151   -1.7971 O   0  0  0  0  0  0  0  0  0  0  0  0
   29.2245  -33.2419    1.3297 O   0  0  0  0  0  0  0  0  0  0  0  0
   29.4301  -35.0894   -3.6488 N   0  0  0  0  0  0  0  0  0  0  0  0
   28.4369  -34.4918   -4.5632 C   0  0  1  0  0  0  0  0  0  0  0  0
   29.0375  -33.3627   -5.3278 C   0  0  0  0  0  0  0  0  0  0  0  0
   28.0486  -32.7813   -6.2448 C   0  0  0  0  0  0  0  0  0  0  0  0
   26.9608  -32.0929   -5.7116 C   0  0  0  0  0  0  0  0  0  0  0  0
   25.9955  -31.4975   -6.4683 C   0  0  0  0  0  0  0  0  0  0  0  0
   26.0788  -31.5671   -7.8554 C   0  0  0  0  0  0  0  0  0  0  0  0
   27.1507  -32.2457   -8.4076 C   0  0  0  0  0  0  0  0  0  0  0  0
   28.1074  -32.8350   -7.6201 C   0  0  0  0  0  0  0  0  0  0  0  0
   27.9606  -35.5623   -5.4451 C   0  0  0  0  0  0  0  0  0  0  0  0
   26.8325  -35.3838   -6.2121 O   0  0  0  0  0  0  0  0  0  0  0  0
   28.5738  -36.6478   -5.5093 O   0  0  0  0  0  0  0  0  0  0  0  0
  2  1  1  6
  2  3  1  0
  2  7  1  0
  3  4  1  0
  4  5  1  0
  5  9  1  0
  5  6  2  0
  7 10  1  0
  7  8  2  0
 10 11  1  0
 11 12  1  1
 13 12  1  0
 13 17  1  0
 14 13  2  0
 15 11  1  0
 15 16  2  0
 18 15  1  0
 19 18  1  0
 19 20  1  6
 21 20  1  0
 21 22  2  0
 23 22  1  0
 24 23  2  0
 25 26  2  0
 25 24  1  0
 26 21  1  0
 27 19  1  0
 28 27  1  0
 29 27  2  0
M  END
$$$$
