EDF.pdb
     RDKit          3D

 29 29  0  0  1  0  0  0  0  0999 V2000
   15.8361  -11.0541  -20.7580 N   0  0  0  0  0  0  0  0  0  0  0  0
   16.5722   -9.9998  -20.1255 C   0  0  1  0  0  0  0  0  0  0  0  0
   16.3598   -8.6448  -20.6762 C   0  0  0  0  0  0  0  0  0  0  0  0
   17.4601   -8.0621  -21.5007 C   0  0  0  0  0  0  0  0  0  0  0  0
   18.8074   -8.1867  -20.9641 C   0  0  0  0  0  0  0  0  0  0  0  0
   19.1561   -7.8698  -19.8072 O   0  0  0  0  0  0  0  0  0  0  0  0
   16.4236  -10.0794  -18.6499 C   0  0  0  0  0  0  0  0  0  0  0  0
   15.2618  -10.0841  -18.1749 O   0  0  0  0  0  0  0  0  0  0  0  0
   19.8083   -8.7101  -21.8211 O   0  0  0  0  0  0  0  0  0  0  0  0
   17.5110  -10.1498  -17.7582 N   0  0  0  0  0  0  0  0  0  0  0  0
   17.3733  -10.2351  -16.3045 C   0  0  1  0  0  0  0  0  0  0  0  0
   16.7153  -11.5464  -16.0039 C   0  0  0  0  0  0  0  0  0  0  0  0
   16.5121  -11.8210  -14.5754 C   0  0  0  0  0  0  0  0  0  0  0  0
   16.2137  -10.8069  -13.8591 O   0  0  0  0  0  0  0  0  0  0  0  0
   18.7343  -10.2949  -15.6673 C   0  0  0  0  0  0  0  0  0  0  0  0
   19.3595  -11.3849  -15.7056 O   0  0  0  0  0  0  0  0  0  0  0  0
   16.6076  -13.0288  -13.9442 O   0  0  0  0  0  0  0  0  0  0  0  0
   19.3274   -9.1943  -15.0385 N   0  0  0  0  0  0  0  0  0  0  0  0
   20.7508   -9.1797  -14.6464 C   0  0  1  0  0  0  0  0  0  0  0  0
   21.6287   -9.2000  -15.8503 C   0  0  0  0  0  0  0  0  0  0  0  0
   23.0424   -9.1630  -15.4542 C   0  0  0  0  0  0  0  0  0  0  0  0
   23.7679   -7.9915  -15.6609 C   0  0  0  0  0  0  0  0  0  0  0  0
   25.0776   -7.8396  -15.3138 C   0  0  0  0  0  0  0  0  0  0  0  0
   25.7510   -8.9009  -14.7173 C   0  0  0  0  0  0  0  0  0  0  0  0
   25.0507  -10.0746  -14.5020 C   0  0  0  0  0  0  0  0  0  0  0  0
   23.7323  -10.1979  -14.8620 C   0  0  0  0  0  0  0  0  0  0  0  0
   20.9631   -7.9801  -13.8302 C   0  0  0  0  0  0  0  0  0  0  0  0
   20.0637   -6.9399  -13.8720 O   0  0  0  0  0  0  0  0  0  0  0  0
   21.9631   -7.8895  -13.0882 O   0  0  0  0  0  0  0  0  0  0  0  0
  2  1  1  6
  2  3  1  0
  2  7  1  0
  3  4  1  0
  4  5  1  0
  5  9  1  0
  5  6  2  0
  7 10  1  0
  7  8  2  0
 10 11  1  0
 11 12  1  6
 13 12  1  0
 13 17  1  0
 14 13  2  0
 15 11  1  0
 15 16  2  0
 18 15  1  0
 19 18  1  0
 19 20  1  6
 21 20  1  0
 21 22  2  0
 23 22  1  0
 24 23  2  0
 25 26  2  0
 25 24  1  0
 26 21  1  0
 27 19  1  0
 28 27  1  0
 29 27  2  0
M  END
$$$$
