EDF.pdb
     RDKit          3D

 29 29  0  0  1  0  0  0  0  0999 V2000
   16.7959  -14.0669  -16.2118 N   0  0  0  0  0  0  0  0  0  0  0  0
   18.2192  -14.2055  -16.3039 C   0  0  1  0  0  0  0  0  0  0  0  0
   18.7051  -15.3732  -17.0686 C   0  0  0  0  0  0  0  0  0  0  0  0
   18.1686  -16.7128  -16.6844 C   0  0  0  0  0  0  0  0  0  0  0  0
   19.0232  -17.8574  -16.9638 C   0  0  0  0  0  0  0  0  0  0  0  0
   18.7280  -19.0505  -16.7406 O   0  0  0  0  0  0  0  0  0  0  0  0
   18.8379  -12.9187  -16.7132 C   0  0  0  0  0  0  0  0  0  0  0  0
   19.9467  -12.9593  -17.2999 O   0  0  0  0  0  0  0  0  0  0  0  0
   20.2950  -17.6015  -17.5359 O   0  0  0  0  0  0  0  0  0  0  0  0
   18.2504  -11.6606  -16.4798 N   0  0  0  0  0  0  0  0  0  0  0  0
   18.8835  -10.3862  -16.8181 C   0  0  1  0  0  0  0  0  0  0  0  0
   17.8529   -9.3187  -16.6154 C   0  0  0  0  0  0  0  0  0  0  0  0
   16.7136   -9.3781  -17.5405 C   0  0  0  0  0  0  0  0  0  0  0  0
   17.0130   -9.5646  -18.7677 O   0  0  0  0  0  0  0  0  0  0  0  0
   19.9878  -10.0916  -15.8405 C   0  0  0  0  0  0  0  0  0  0  0  0
   20.1865  -10.9093  -14.9064 O   0  0  0  0  0  0  0  0  0  0  0  0
   15.3890   -9.2566  -17.2292 O   0  0  0  0  0  0  0  0  0  0  0  0
   20.7962   -8.9526  -15.9285 N   0  0  0  0  0  0  0  0  0  0  0  0
   22.2153   -8.9565  -15.5213 C   0  0  1  0  0  0  0  0  0  0  0  0
   22.9603  -10.0419  -16.2193 C   0  0  0  0  0  0  0  0  0  0  0  0
   24.3852   -9.9939  -15.8671 C   0  0  0  0  0  0  0  0  0  0  0  0
   24.8003  -10.5655  -14.6661 C   0  0  0  0  0  0  0  0  0  0  0  0
   26.0981  -10.5958  -14.2494 C   0  0  0  0  0  0  0  0  0  0  0  0
   27.0838  -10.0299  -15.0518 C   0  0  0  0  0  0  0  0  0  0  0  0
   26.6951   -9.4563  -16.2493 C   0  0  0  0  0  0  0  0  0  0  0  0
   25.3806   -9.4410  -16.6425 C   0  0  0  0  0  0  0  0  0  0  0  0
   22.7582   -7.6296  -15.8295 C   0  0  0  0  0  0  0  0  0  0  0  0
   22.3809   -6.9710  -16.9769 O   0  0  0  0  0  0  0  0  0  0  0  0
   23.5694   -7.0830  -15.0537 O   0  0  0  0  0  0  0  0  0  0  0  0
  2  1  1  6
  2  3  1  0
  2  7  1  0
  3  4  1  0
  4  5  1  0
  5  9  1  0
  5  6  2  0
  7 10  1  0
  7  8  2  0
 10 11  1  0
 11 12  1  1
 13 12  1  0
 13 17  1  0
 14 13  2  0
 15 11  1  0
 15 16  2  0
 18 15  1  0
 19 18  1  0
 19 20  1  6
 21 20  1  0
 21 22  2  0
 23 22  1  0
 24 23  2  0
 25 26  2  0
 25 24  1  0
 26 21  1  0
 27 19  1  0
 28 27  1  0
 29 27  2  0
M  END
$$$$
