GKI.pdb
     RDKit          3D

 22 21  0  0  1  0  0  0  0  0999 V2000
    6.4522  -16.9242   18.8503 N   0  0  0  0  0  0  0  0  0  0  0  0
    7.5846  -16.9484   19.7408 C   0  0  0  0  0  0  0  0  0  0  0  0
    7.1779  -16.9140   21.1602 C   0  0  0  0  0  0  0  0  0  0  0  0
    6.0943  -16.3324   21.4475 O   0  0  0  0  0  0  0  0  0  0  0  0
    8.0107  -17.5276   22.1266 N   0  0  0  0  0  0  0  0  0  0  0  0
    7.6819  -17.4030   23.5303 C   0  0  1  0  0  0  0  0  0  0  0  0
    7.9998  -18.7020   24.2212 C   0  0  0  0  0  0  0  0  0  0  0  0
    7.7716  -18.7074   25.6932 C   0  0  0  0  0  0  0  0  0  0  0  0
    8.1663  -20.0022   26.3520 C   0  0  0  0  0  0  0  0  0  0  0  0
    8.0702  -19.8643   27.8571 C   0  0  0  0  0  0  0  0  0  0  0  0
    6.8609  -20.4023   28.4012 N   0  0  0  0  0  0  0  0  0  0  0  0
    8.3721  -16.2357   24.1381 C   0  0  0  0  0  0  0  0  0  0  0  0
    9.5795  -16.0612   23.8970 O   0  0  0  0  0  0  0  0  0  0  0  0
    5.6345  -11.8144   26.5322 C   0  0  0  0  0  0  0  0  0  0  0  0
    6.3706  -13.1150   26.4050 C   0  0  0  0  0  0  0  0  0  0  0  0
    7.6826  -12.9597   25.6652 C   0  0  2  0  0  0  0  0  0  0  0  0
    7.4296  -12.5172   24.2369 C   0  0  0  0  0  0  0  0  0  0  0  0
    8.4431  -14.2654   25.6039 C   0  0  2  0  0  0  0  0  0  0  0  0
    7.6922  -15.3136   24.9864 N   0  0  0  0  0  0  0  0  0  0  0  0
    8.7565  -14.6659   26.9991 C   0  0  0  0  0  0  0  0  0  0  0  0
    8.2174  -15.7192   27.4410 O   0  0  0  0  0  0  0  0  0  0  0  0
    9.6103  -13.9294   27.8184 O   0  0  0  0  0  0  0  0  0  0  0  0
  2  3  1  0
  2  1  1  0
  3  4  2  0
  5  6  1  0
  5  3  1  0
  7  8  1  0
  6  7  1  1
  9 10  1  0
  9  8  1  0
 10 11  1  0
 12  6  1  0
 12 19  1  0
 13 12  2  0
 15 14  1  0
 16 15  1  0
 16 17  1  6
 18 19  1  1
 18 16  1  0
 20 18  1  0
 21 20  2  0
 22 20  1  0
M  END
$$$$
