GKI.pdb
     RDKit          3D

 22 21  0  0  1  0  0  0  0  0999 V2000
    3.9839  -19.8747   21.3971 N   0  0  0  0  0  0  0  0  0  0  0  0
    5.1709  -19.0731   21.5537 C   0  0  0  0  0  0  0  0  0  0  0  0
    5.3295  -18.5766   22.9356 C   0  0  0  0  0  0  0  0  0  0  0  0
    4.4143  -17.8445   23.4061 O   0  0  0  0  0  0  0  0  0  0  0  0
    6.4874  -18.9386   23.6651 N   0  0  0  0  0  0  0  0  0  0  0  0
    6.6963  -18.3871   24.9865 C   0  0  1  0  0  0  0  0  0  0  0  0
    7.3878  -19.4169   25.8392 C   0  0  0  0  0  0  0  0  0  0  0  0
    7.6321  -19.0081   27.2506 C   0  0  0  0  0  0  0  0  0  0  0  0
    8.3216  -20.0687   28.0668 C   0  0  0  0  0  0  0  0  0  0  0  0
    9.1474  -19.4221   29.1593 C   0  0  0  0  0  0  0  0  0  0  0  0
    9.7479  -20.3658   30.0519 N   0  0  0  0  0  0  0  0  0  0  0  0
    7.4335  -17.0987   24.9162 C   0  0  0  0  0  0  0  0  0  0  0  0
    8.2352  -16.9171   23.9831 O   0  0  0  0  0  0  0  0  0  0  0  0
    5.5131  -12.3641   27.0529 C   0  0  0  0  0  0  0  0  0  0  0  0
    6.3144  -13.1366   26.0476 C   0  0  0  0  0  0  0  0  0  0  0  0
    7.5484  -13.7646   26.6604 C   0  0  2  0  0  0  0  0  0  0  0  0
    8.6584  -12.7374   26.7726 C   0  0  0  0  0  0  0  0  0  0  0  0
    8.0717  -14.9020   25.8124 C   0  0  2  0  0  0  0  0  0  0  0  0
    7.2486  -16.0688   25.8842 N   0  0  0  0  0  0  0  0  0  0  0  0
    9.4264  -15.2467   26.3137 C   0  0  0  0  0  0  0  0  0  0  0  0
    9.5159  -16.1686   27.1724 O   0  0  0  0  0  0  0  0  0  0  0  0
   10.5781  -14.5967   25.8736 O   0  0  0  0  0  0  0  0  0  0  0  0
  2  3  1  0
  2  1  1  0
  3  4  2  0
  5  6  1  0
  5  3  1  0
  7  8  1  0
  6  7  1  1
  9 10  1  0
  9  8  1  0
 10 11  1  0
 12  6  1  0
 12 19  1  0
 13 12  2  0
 15 14  1  0
 16 15  1  0
 16 17  1  6
 18 19  1  1
 18 16  1  0
 20 18  1  0
 21 20  2  0
 22 20  1  0
M  END
$$$$
