GKI.pdb
     RDKit          3D

 22 21  0  0  1  0  0  0  0  0999 V2000
    3.1571  -19.3965   21.2815 N   0  0  0  0  0  0  0  0  0  0  0  0
    4.0637  -18.2793   21.2050 C   0  0  0  0  0  0  0  0  0  0  0  0
    4.6748  -17.9672   22.5128 C   0  0  0  0  0  0  0  0  0  0  0  0
    3.9719  -17.3435   23.3565 O   0  0  0  0  0  0  0  0  0  0  0  0
    6.0071  -18.3759   22.7616 N   0  0  0  0  0  0  0  0  0  0  0  0
    6.5845  -18.1592   24.0706 C   0  0  1  0  0  0  0  0  0  0  0  0
    7.5426  -19.2806   24.3710 C   0  0  0  0  0  0  0  0  0  0  0  0
    7.0199  -20.3294   25.2905 C   0  0  0  0  0  0  0  0  0  0  0  0
    7.6624  -21.6753   25.0851 C   0  0  0  0  0  0  0  0  0  0  0  0
    7.0135  -22.6995   25.9925 C   0  0  0  0  0  0  0  0  0  0  0  0
    7.5483  -24.0176   25.8358 N   0  0  0  0  0  0  0  0  0  0  0  0
    7.2133  -16.8157   24.1604 C   0  0  0  0  0  0  0  0  0  0  0  0
    7.9018  -16.4115   23.2070 O   0  0  0  0  0  0  0  0  0  0  0  0
    5.2213  -12.0984   26.3419 C   0  0  0  0  0  0  0  0  0  0  0  0
    5.9781  -13.0668   25.4823 C   0  0  0  0  0  0  0  0  0  0  0  0
    7.1298  -13.7114   26.2245 C   0  0  2  0  0  0  0  0  0  0  0  0
    8.1774  -12.6712   26.5715 C   0  0  0  0  0  0  0  0  0  0  0  0
    7.8080  -14.7704   25.3846 C   0  0  2  0  0  0  0  0  0  0  0  0
    7.0505  -15.9803   25.3038 N   0  0  0  0  0  0  0  0  0  0  0  0
    9.1168  -15.0726   26.0178 C   0  0  0  0  0  0  0  0  0  0  0  0
    9.1253  -15.8827   26.9867 O   0  0  0  0  0  0  0  0  0  0  0  0
   10.3114  -14.5007   25.5834 O   0  0  0  0  0  0  0  0  0  0  0  0
  2  3  1  0
  2  1  1  0
  3  4  2  0
  5  6  1  0
  5  3  1  0
  7  8  1  0
  6  7  1  6
  9 10  1  0
  9  8  1  0
 10 11  1  0
 12  6  1  0
 12 19  1  0
 13 12  2  0
 15 14  1  0
 16 15  1  0
 16 17  1  6
 18 19  1  1
 18 16  1  0
 20 18  1  0
 21 20  2  0
 22 20  1  0
M  END
$$$$
