GKI.pdb
     RDKit          3D

 22 21  0  0  1  0  0  0  0  0999 V2000
    6.0661  -20.0182   23.9181 N   0  0  0  0  0  0  0  0  0  0  0  0
    5.7437  -18.6175   24.0190 C   0  0  0  0  0  0  0  0  0  0  0  0
    6.7474  -17.7653   23.3500 C   0  0  0  0  0  0  0  0  0  0  0  0
    7.9518  -18.1442   23.3759 O   0  0  0  0  0  0  0  0  0  0  0  0
    6.3210  -16.5738   22.7155 N   0  0  0  0  0  0  0  0  0  0  0  0
    7.3087  -15.6433   22.2130 C   0  0  1  0  0  0  0  0  0  0  0  0
    6.6142  -14.6007   21.3786 C   0  0  0  0  0  0  0  0  0  0  0  0
    7.5190  -13.6660   20.6530 C   0  0  0  0  0  0  0  0  0  0  0  0
    7.7816  -14.0771   19.2288 C   0  0  0  0  0  0  0  0  0  0  0  0
    8.7743  -13.1262   18.5931 C   0  0  0  0  0  0  0  0  0  0  0  0
    9.0196  -13.4015   17.2103 N   0  0  0  0  0  0  0  0  0  0  0  0
    8.1085  -15.0633   23.3232 C   0  0  0  0  0  0  0  0  0  0  0  0
    9.1663  -14.4682   23.0524 O   0  0  0  0  0  0  0  0  0  0  0  0
    5.8144  -11.8476   26.6083 C   0  0  0  0  0  0  0  0  0  0  0  0
    6.7538  -12.6456   25.7537 C   0  0  0  0  0  0  0  0  0  0  0  0
    7.5917  -13.6077   26.5692 C   0  0  2  0  0  0  0  0  0  0  0  0
    8.5210  -12.8418   27.4910 C   0  0  0  0  0  0  0  0  0  0  0  0
    8.4537  -14.4803   25.6846 C   0  0  2  0  0  0  0  0  0  0  0  0
    7.6992  -15.1692   24.6846 N   0  0  0  0  0  0  0  0  0  0  0  0
    9.1141  -15.4854   26.5558 C   0  0  0  0  0  0  0  0  0  0  0  0
    8.6260  -16.6501   26.5799 O   0  0  0  0  0  0  0  0  0  0  0  0
   10.2335  -15.1879   27.3311 O   0  0  0  0  0  0  0  0  0  0  0  0
  2  3  1  0
  2  1  1  0
  3  4  2  0
  5  6  1  0
  5  3  1  0
  7  8  1  0
  6  7  1  1
  9 10  1  0
  9  8  1  0
 10 11  1  0
 12  6  1  0
 12 19  1  0
 13 12  2  0
 15 14  1  0
 16 15  1  0
 16 17  1  1
 18 19  1  6
 18 16  1  0
 20 18  1  0
 21 20  2  0
 22 20  1  0
M  END
$$$$
