GKI.pdb
     RDKit          3D

 22 21  0  0  1  0  0  0  0  0999 V2000
    6.2901  -21.4861   23.4079 N   0  0  0  0  0  0  0  0  0  0  0  0
    5.5571  -20.2649   23.6252 C   0  0  0  0  0  0  0  0  0  0  0  0
    6.4319  -19.0756   23.5855 C   0  0  0  0  0  0  0  0  0  0  0  0
    7.5429  -19.1426   24.1821 O   0  0  0  0  0  0  0  0  0  0  0  0
    5.9923  -17.9246   22.8883 N   0  0  0  0  0  0  0  0  0  0  0  0
    6.7799  -16.7122   22.9499 C   0  0  1  0  0  0  0  0  0  0  0  0
    6.3274  -15.7826   21.8559 C   0  0  0  0  0  0  0  0  0  0  0  0
    7.1044  -14.5170   21.7402 C   0  0  0  0  0  0  0  0  0  0  0  0
    7.7098  -14.3126   20.3771 C   0  0  0  0  0  0  0  0  0  0  0  0
    8.3964  -12.9641   20.3155 C   0  0  0  0  0  0  0  0  0  0  0  0
    9.1533  -12.7658   19.1173 N   0  0  0  0  0  0  0  0  0  0  0  0
    6.7099  -16.0989   24.3017 C   0  0  0  0  0  0  0  0  0  0  0  0
    5.6039  -16.0110   24.8633 O   0  0  0  0  0  0  0  0  0  0  0  0
   10.1538  -13.8344   28.9876 C   0  0  0  0  0  0  0  0  0  0  0  0
    8.8545  -14.2191   28.3446 C   0  0  0  0  0  0  0  0  0  0  0  0
    9.0449  -14.7330   26.9331 C   0  0  2  0  0  0  0  0  0  0  0  0
    9.7659  -13.6980   26.0913 C   0  0  0  0  0  0  0  0  0  0  0  0
    7.7196  -15.0154   26.2618 C   0  0  2  0  0  0  0  0  0  0  0  0
    7.8700  -15.6102   24.9705 N   0  0  0  0  0  0  0  0  0  0  0  0
    7.0122  -13.7189   26.1065 C   0  0  0  0  0  0  0  0  0  0  0  0
    7.1545  -13.1016   25.0138 O   0  0  0  0  0  0  0  0  0  0  0  0
    6.2122  -13.1747   27.1097 O   0  0  0  0  0  0  0  0  0  0  0  0
  2  3  1  0
  2  1  1  0
  3  4  2  0
  5  6  1  0
  5  3  1  0
  7  8  1  0
  6  7  1  6
  9 10  1  0
  9  8  1  0
 10 11  1  0
 12  6  1  0
 12 19  1  0
 13 12  2  0
 15 14  1  0
 16 15  1  0
 16 17  1  6
 18 19  1  6
 18 16  1  0
 20 18  1  0
 21 20  2  0
 22 20  1  0
M  END
$$$$
