GKI.pdb
     RDKit          3D

 22 21  0  0  1  0  0  0  0  0999 V2000
    8.1332  -12.3893   18.5657 N   0  0  0  0  0  0  0  0  0  0  0  0
    8.7942  -13.5537   19.0978 C   0  0  0  0  0  0  0  0  0  0  0  0
    8.0953  -14.1003   20.2784 C   0  0  0  0  0  0  0  0  0  0  0  0
    7.2864  -13.3439   20.8854 O   0  0  0  0  0  0  0  0  0  0  0  0
    8.3590  -15.4336   20.6744 N   0  0  0  0  0  0  0  0  0  0  0  0
    7.6893  -15.9755   21.8371 C   0  0  1  0  0  0  0  0  0  0  0  0
    7.7409  -17.4784   21.7712 C   0  0  0  0  0  0  0  0  0  0  0  0
    7.1230  -18.1834   22.9288 C   0  0  0  0  0  0  0  0  0  0  0  0
    7.0934  -19.6799   22.7677 C   0  0  0  0  0  0  0  0  0  0  0  0
    6.4418  -20.3154   23.9782 C   0  0  0  0  0  0  0  0  0  0  0  0
    6.3295  -21.7388   23.8817 N   0  0  0  0  0  0  0  0  0  0  0  0
    8.2693  -15.4270   23.0905 C   0  0  0  0  0  0  0  0  0  0  0  0
    9.5063  -15.3625   23.2004 O   0  0  0  0  0  0  0  0  0  0  0  0
    6.9874  -11.1760   27.3067 C   0  0  0  0  0  0  0  0  0  0  0  0
    7.8558  -12.2880   26.7979 C   0  0  0  0  0  0  0  0  0  0  0  0
    7.1938  -13.0646   25.6792 C   0  0  2  0  0  0  0  0  0  0  0  0
    5.8762  -13.6466   26.1537 C   0  0  0  0  0  0  0  0  0  0  0  0
    8.0559  -14.2185   25.2189 C   0  0  2  0  0  0  0  0  0  0  0  0
    7.4513  -14.9744   24.1666 N   0  0  0  0  0  0  0  0  0  0  0  0
    8.2645  -15.1136   26.3853 C   0  0  0  0  0  0  0  0  0  0  0  0
    7.5212  -16.1300   26.4837 O   0  0  0  0  0  0  0  0  0  0  0  0
    9.2364  -14.8705   27.3544 O   0  0  0  0  0  0  0  0  0  0  0  0
  2  3  1  0
  2  1  1  0
  3  4  2  0
  5  6  1  0
  5  3  1  0
  7  8  1  0
  6  7  1  1
  9 10  1  0
  9  8  1  0
 10 11  1  0
 12  6  1  0
 12 19  1  0
 13 12  2  0
 15 14  1  0
 16 15  1  0
 16 17  1  1
 18 19  1  6
 18 16  1  0
 20 18  1  0
 21 20  2  0
 22 20  1  0
M  END
$$$$
