GKI.pdb
     RDKit          3D

 22 21  0  0  1  0  0  0  0  0999 V2000
    8.0919  -12.2686   18.7360 N   0  0  0  0  0  0  0  0  0  0  0  0
    8.7538  -13.4086   19.3176 C   0  0  0  0  0  0  0  0  0  0  0  0
    7.9864  -13.9858   20.4397 C   0  0  0  0  0  0  0  0  0  0  0  0
    7.1613  -13.2371   21.0346 O   0  0  0  0  0  0  0  0  0  0  0  0
    8.2061  -15.3380   20.7962 N   0  0  0  0  0  0  0  0  0  0  0  0
    7.5192  -15.8913   21.9434 C   0  0  1  0  0  0  0  0  0  0  0  0
    7.4868  -17.3906   21.8140 C   0  0  0  0  0  0  0  0  0  0  0  0
    6.8664  -18.1109   22.9608 C   0  0  0  0  0  0  0  0  0  0  0  0
    6.8706  -19.6073   22.7966 C   0  0  0  0  0  0  0  0  0  0  0  0
    6.1928  -20.2576   23.9846 C   0  0  0  0  0  0  0  0  0  0  0  0
    6.0893  -21.6804   23.8713 N   0  0  0  0  0  0  0  0  0  0  0  0
    8.1412  -15.4293   23.2114 C   0  0  0  0  0  0  0  0  0  0  0  0
    9.3809  -15.3607   23.2806 O   0  0  0  0  0  0  0  0  0  0  0  0
    5.6214  -11.6083   26.2111 C   0  0  0  0  0  0  0  0  0  0  0  0
    6.6130  -12.4491   25.4632 C   0  0  0  0  0  0  0  0  0  0  0  0
    7.1315  -13.6008   26.2983 C   0  0  2  0  0  0  0  0  0  0  0  0
    7.9563  -13.0773   27.4583 C   0  0  0  0  0  0  0  0  0  0  0  0
    8.0227  -14.5160   25.4891 C   0  0  2  0  0  0  0  0  0  0  0  0
    7.3603  -15.0637   24.3466 N   0  0  0  0  0  0  0  0  0  0  0  0
    8.4392  -15.6324   26.3753 C   0  0  0  0  0  0  0  0  0  0  0  0
    7.6970  -16.6535   26.4189 O   0  0  0  0  0  0  0  0  0  0  0  0
    9.6009  -15.5880   27.1442 O   0  0  0  0  0  0  0  0  0  0  0  0
  2  3  1  0
  2  1  1  0
  3  4  2  0
  5  6  1  0
  5  3  1  0
  7  8  1  0
  6  7  1  6
  9 10  1  0
  9  8  1  0
 10 11  1  0
 12  6  1  0
 12 19  1  0
 13 12  2  0
 15 14  1  0
 16 15  1  0
 16 17  1  1
 18 19  1  6
 18 16  1  0
 20 18  1  0
 21 20  2  0
 22 20  1  0
M  END
$$$$
