GKI.pdb
     RDKit          3D

 22 21  0  0  1  0  0  0  0  0999 V2000
    6.6552  -21.4124   23.4911 N   0  0  0  0  0  0  0  0  0  0  0  0
    5.8337  -20.2458   23.2912 C   0  0  0  0  0  0  0  0  0  0  0  0
    6.5979  -18.9922   23.4517 C   0  0  0  0  0  0  0  0  0  0  0  0
    7.6426  -19.0269   24.1604 O   0  0  0  0  0  0  0  0  0  0  0  0
    6.1317  -17.8188   22.8114 N   0  0  0  0  0  0  0  0  0  0  0  0
    6.8829  -16.5894   22.9459 C   0  0  1  0  0  0  0  0  0  0  0  0
    6.4206  -15.6195   21.8918 C   0  0  0  0  0  0  0  0  0  0  0  0
    7.2122  -14.3610   21.7998 C   0  0  0  0  0  0  0  0  0  0  0  0
    7.7128  -14.0727   20.4096 C   0  0  0  0  0  0  0  0  0  0  0  0
    8.4264  -12.7372   20.3859 C   0  0  0  0  0  0  0  0  0  0  0  0
    8.8565  -12.3457   19.0784 N   0  0  0  0  0  0  0  0  0  0  0  0
    6.7747  -16.0464   24.3250 C   0  0  0  0  0  0  0  0  0  0  0  0
    5.6675  -16.0641   24.8908 O   0  0  0  0  0  0  0  0  0  0  0  0
   10.0346  -13.6126   29.0597 C   0  0  0  0  0  0  0  0  0  0  0  0
    8.7623  -14.0452   28.3935 C   0  0  0  0  0  0  0  0  0  0  0  0
    8.9999  -14.5726   26.9942 C   0  0  2  0  0  0  0  0  0  0  0  0
    9.6841  -13.5181   26.1459 C   0  0  0  0  0  0  0  0  0  0  0  0
    7.7007  -14.9295   26.3075 C   0  0  2  0  0  0  0  0  0  0  0  0
    7.8996  -15.5078   25.0153 N   0  0  0  0  0  0  0  0  0  0  0  0
    6.9195  -13.6764   26.1504 C   0  0  0  0  0  0  0  0  0  0  0  0
    6.2677  -13.2635   27.1504 O   0  0  0  0  0  0  0  0  0  0  0  0
    6.8851  -12.9572   24.9570 O   0  0  0  0  0  0  0  0  0  0  0  0
  2  3  1  0
  2  1  1  0
  3  4  2  0
  5  6  1  0
  5  3  1  0
  7  8  1  0
  6  7  1  6
  9 10  1  0
  9  8  1  0
 10 11  1  0
 12  6  1  0
 12 19  1  0
 13 12  2  0
 15 14  1  0
 16 15  1  0
 16 17  1  6
 18 19  1  6
 18 16  1  0
 20 18  1  0
 21 20  2  0
 22 20  1  0
M  END
$$$$
