GKI.pdb
     RDKit          3D

 22 21  0  0  1  0  0  0  0  0999 V2000
   13.1605  -17.4256   21.0436 N   0  0  0  0  0  0  0  0  0  0  0  0
   11.8473  -17.8236   21.4830 C   0  0  0  0  0  0  0  0  0  0  0  0
   11.1116  -16.7115   22.1181 C   0  0  0  0  0  0  0  0  0  0  0  0
   11.7374  -15.9867   22.9415 O   0  0  0  0  0  0  0  0  0  0  0  0
    9.7520  -16.5082   21.7804 N   0  0  0  0  0  0  0  0  0  0  0  0
    9.0499  -15.3623   22.3171 C   0  0  1  0  0  0  0  0  0  0  0  0
    7.9972  -14.9317   21.3312 C   0  0  0  0  0  0  0  0  0  0  0  0
    8.4955  -14.1109   20.1924 C   0  0  0  0  0  0  0  0  0  0  0  0
    7.4991  -13.9806   19.0715 C   0  0  0  0  0  0  0  0  0  0  0  0
    8.1286  -13.2472   17.9056 C   0  0  0  0  0  0  0  0  0  0  0  0
    7.2817  -13.1770   16.7541 N   0  0  0  0  0  0  0  0  0  0  0  0
    8.4994  -15.6577   23.6655 C   0  0  0  0  0  0  0  0  0  0  0  0
    8.3117  -16.8435   23.9895 O   0  0  0  0  0  0  0  0  0  0  0  0
    5.7252  -11.8156   26.8213 C   0  0  0  0  0  0  0  0  0  0  0  0
    6.2366  -12.9420   25.9733 C   0  0  0  0  0  0  0  0  0  0  0  0
    7.2552  -13.7913   26.7040 C   0  0  2  0  0  0  0  0  0  0  0  0
    8.5051  -12.9812   26.9890 C   0  0  0  0  0  0  0  0  0  0  0  0
    7.6728  -14.9887   25.8802 C   0  0  2  0  0  0  0  0  0  0  0  0
    8.1816  -14.6245   24.5947 N   0  0  0  0  0  0  0  0  0  0  0  0
    6.4718  -15.8411   25.6899 C   0  0  0  0  0  0  0  0  0  0  0  0
    5.9526  -15.8727   24.5390 O   0  0  0  0  0  0  0  0  0  0  0  0
    5.9124  -16.5920   26.7223 O   0  0  0  0  0  0  0  0  0  0  0  0
  2  3  1  0
  2  1  1  0
  3  4  2  0
  5  6  1  0
  5  3  1  0
  7  8  1  0
  6  7  1  6
  9 10  1  0
  9  8  1  0
 10 11  1  0
 12  6  1  0
 12 19  1  0
 13 12  2  0
 15 14  1  0
 16 15  1  0
 16 17  1  6
 18 19  1  6
 18 16  1  0
 20 18  1  0
 21 20  2  0
 22 20  1  0
M  END
$$$$
