HPH.pdb
     RDKit          3D

 28 30  0  0  1  0  0  0  0  0999 V2000
    8.5361  -16.2233   18.3999 N   0  0  0  0  0  0  0  0  0  0  0  0
    9.9404  -15.8750   18.6128 C   0  0  1  0  0  0  0  0  0  0  0  0
   10.1629  -14.6249   17.7789 C   0  0  0  0  0  0  0  0  0  0  0  0
    9.1807  -14.5130   16.6863 C   0  0  0  0  0  0  0  0  0  0  0  0
    8.2059  -15.4330   16.3932 C   0  0  0  0  0  0  0  0  0  0  0  0
    7.5158  -14.9850   15.3419 N   0  0  0  0  0  0  0  0  0  0  0  0
    8.0212  -13.8009   14.9511 C   0  0  0  0  0  0  0  0  0  0  0  0
    9.0564  -13.5220   15.7982 N   0  0  0  0  0  0  0  0  0  0  0  0
   10.1791  -15.6980   20.0400 C   0  0  0  0  0  0  0  0  0  0  0  0
   11.3407  -15.9960   20.4797 O   0  0  0  0  0  0  0  0  0  0  0  0
    9.2381  -15.2191   21.0059 N   0  0  0  0  0  0  0  0  0  0  0  0
    7.9092  -14.8021   20.6324 C   0  0  0  0  0  0  0  0  0  0  0  0
    7.1489  -14.5735   21.9006 C   0  0  0  0  0  0  0  0  0  0  0  0
    8.2602  -14.1971   22.8959 C   0  0  0  0  0  0  0  0  0  0  0  0
    9.3886  -15.0794   22.4179 C   0  0  1  0  0  0  0  0  0  0  0  0
    9.4466  -16.3668   23.1383 C   0  0  0  0  0  0  0  0  0  0  0  0
    9.1487  -17.4091   22.4984 O   0  0  0  0  0  0  0  0  0  0  0  0
    9.8141  -16.5221   24.5012 N   0  0  0  0  0  0  0  0  0  0  0  0
   10.5862  -17.6920   24.9475 C   0  0  1  0  0  0  0  0  0  0  0  0
   11.9039  -17.6374   24.2325 C   0  0  0  0  0  0  0  0  0  0  0  0
   11.9318  -18.4158   22.9717 C   0  0  0  0  0  0  0  0  0  0  0  0
   10.8627  -19.0914   22.4424 C   0  0  0  0  0  0  0  0  0  0  0  0
   11.2494  -19.6774   21.3042 N   0  0  0  0  0  0  0  0  0  0  0  0
   12.5483  -19.3761   21.1153 C   0  0  0  0  0  0  0  0  0  0  0  0
   12.9589  -18.6046   22.1384 N   0  0  0  0  0  0  0  0  0  0  0  0
   10.8407  -17.6131   26.4057 C   0  0  0  0  0  0  0  0  0  0  0  0
   11.4129  -16.5028   27.0099 O   0  0  0  0  0  0  0  0  0  0  0  0
   10.5309  -18.5840   27.1382 O   0  0  0  0  0  0  0  0  0  0  0  0
  2  9  1  0
  2  1  1  1
  3  2  1  0
  4  3  1  0
  4  5  2  0
  6  5  1  0
  7  6  1  0
  8  7  2  0
  8  4  1  0
  9 10  2  0
 11  9  1  0
 12 11  1  0
 13 12  1  0
 13 14  1  0
 14 15  1  0
 15 11  1  0
 15 16  1  1
 17 16  2  0
 18 16  1  0
 19 18  1  0
 19 26  1  0
 19 20  1  6
 21 20  1  0
 21 22  2  0
 23 22  1  0
 24 23  1  0
 25 24  2  0
 25 21  1  0
 26 27  1  0
 28 26  2  0
M  END
$$$$
