HPH.pdb
     RDKit          3D

 28 30  0  0  1  0  0  0  0  0999 V2000
   10.1111  -16.0356   15.5597 N   0  0  0  0  0  0  0  0  0  0  0  0
    8.9870  -15.8788   16.4818 C   0  0  1  0  0  0  0  0  0  0  0  0
    8.3204  -17.2434   16.5198 C   0  0  0  0  0  0  0  0  0  0  0  0
    7.6839  -17.5782   15.2338 C   0  0  0  0  0  0  0  0  0  0  0  0
    6.4003  -17.2559   14.8715 C   0  0  0  0  0  0  0  0  0  0  0  0
    6.1868  -17.7257   13.6404 N   0  0  0  0  0  0  0  0  0  0  0  0
    7.2992  -18.3418   13.2012 C   0  0  0  0  0  0  0  0  0  0  0  0
    8.2209  -18.2409   14.2048 N   0  0  0  0  0  0  0  0  0  0  0  0
    9.4858  -15.4157   17.7710 C   0  0  0  0  0  0  0  0  0  0  0  0
   10.5908  -15.9079   18.1813 O   0  0  0  0  0  0  0  0  0  0  0  0
    8.8600  -14.4572   18.6296 N   0  0  0  0  0  0  0  0  0  0  0  0
    7.6160  -13.8180   18.2782 C   0  0  0  0  0  0  0  0  0  0  0  0
    7.1591  -13.0564   19.4823 C   0  0  0  0  0  0  0  0  0  0  0  0
    8.4821  -12.7343   20.1987 C   0  0  0  0  0  0  0  0  0  0  0  0
    9.2808  -13.9824   19.9077 C   0  0  1  0  0  0  0  0  0  0  0  0
    9.1697  -14.9903   20.9807 C   0  0  0  0  0  0  0  0  0  0  0  0
    8.0154  -15.3718   21.3076 O   0  0  0  0  0  0  0  0  0  0  0  0
   10.2666  -15.5657   21.6751 N   0  0  0  0  0  0  0  0  0  0  0  0
   10.0539  -16.5930   22.7062 C   0  0  1  0  0  0  0  0  0  0  0  0
   11.4005  -17.1759   23.0185 C   0  0  0  0  0  0  0  0  0  0  0  0
   12.0422  -17.8487   21.8645 C   0  0  0  0  0  0  0  0  0  0  0  0
   11.4307  -18.1014   20.6637 C   0  0  0  0  0  0  0  0  0  0  0  0
   12.3046  -18.7188   19.8615 N   0  0  0  0  0  0  0  0  0  0  0  0
   13.4559  -18.8552   20.5466 C   0  0  0  0  0  0  0  0  0  0  0  0
   13.2883  -18.3211   21.7702 N   0  0  0  0  0  0  0  0  0  0  0  0
    9.5124  -15.9766   23.9408 C   0  0  0  0  0  0  0  0  0  0  0  0
    9.0650  -16.7246   25.0204 O   0  0  0  0  0  0  0  0  0  0  0  0
    9.4495  -14.7262   24.0282 O   0  0  0  0  0  0  0  0  0  0  0  0
  2  9  1  0
  2  1  1  6
  3  2  1  0
  4  3  1  0
  4  5  2  0
  6  5  1  0
  7  6  1  0
  8  7  2  0
  8  4  1  0
  9 10  2  0
 11  9  1  0
 12 11  1  0
 13 12  1  0
 13 14  1  0
 14 15  1  0
 15 11  1  0
 15 16  1  1
 17 16  2  0
 18 16  1  0
 19 18  1  0
 19 26  1  0
 19 20  1  1
 21 20  1  0
 21 22  2  0
 23 22  1  0
 24 23  1  0
 25 24  2  0
 25 21  1  0
 26 27  1  0
 28 26  2  0
M  END
$$$$
