HPH.pdb
     RDKit          3D

 28 30  0  0  1  0  0  0  0  0999 V2000
    9.2540  -13.2589   17.8630 N   0  0  0  0  0  0  0  0  0  0  0  0
    9.0278  -14.6228   18.3398 C   0  0  1  0  0  0  0  0  0  0  0  0
   10.3790  -15.3068   18.2206 C   0  0  0  0  0  0  0  0  0  0  0  0
   11.3084  -14.8719   19.2780 C   0  0  0  0  0  0  0  0  0  0  0  0
   12.2207  -13.8529   19.1681 C   0  0  0  0  0  0  0  0  0  0  0  0
   12.8774  -13.7579   20.3265 N   0  0  0  0  0  0  0  0  0  0  0  0
   12.4115  -14.6890   21.1786 C   0  0  0  0  0  0  0  0  0  0  0  0
   11.4358  -15.3734   20.5103 N   0  0  0  0  0  0  0  0  0  0  0  0
    8.4944  -14.5741   19.6956 C   0  0  0  0  0  0  0  0  0  0  0  0
    8.7943  -13.5555   20.4056 O   0  0  0  0  0  0  0  0  0  0  0  0
    7.6612  -15.5578   20.3167 N   0  0  0  0  0  0  0  0  0  0  0  0
    7.2806  -16.7717   19.6376 C   0  0  0  0  0  0  0  0  0  0  0  0
    6.6023  -17.6441   20.6463 C   0  0  0  0  0  0  0  0  0  0  0  0
    6.0186  -16.6218   21.6370 C   0  0  0  0  0  0  0  0  0  0  0  0
    7.0932  -15.5609   21.6257 C   0  0  1  0  0  0  0  0  0  0  0  0
    8.0859  -15.7471   22.7024 C   0  0  0  0  0  0  0  0  0  0  0  0
    9.1427  -16.3710   22.4222 O   0  0  0  0  0  0  0  0  0  0  0  0
    7.9419  -15.2753   24.0341 N   0  0  0  0  0  0  0  0  0  0  0  0
    8.9778  -15.5371   25.0451 C   0  0  1  0  0  0  0  0  0  0  0  0
    9.3885  -14.2040   25.5971 C   0  0  0  0  0  0  0  0  0  0  0  0
    8.2624  -13.4126   26.1466 C   0  0  0  0  0  0  0  0  0  0  0  0
    7.0369  -13.2711   25.5487 C   0  0  0  0  0  0  0  0  0  0  0  0
    6.2722  -12.4929   26.3219 N   0  0  0  0  0  0  0  0  0  0  0  0
    7.0052  -12.1459   27.3969 C   0  0  0  0  0  0  0  0  0  0  0  0
    8.2208  -12.7116   27.2832 N   0  0  0  0  0  0  0  0  0  0  0  0
    8.4208  -16.3510   26.1518 C   0  0  0  0  0  0  0  0  0  0  0  0
    9.2065  -16.8766   27.1675 O   0  0  0  0  0  0  0  0  0  0  0  0
    7.1879  -16.5831   26.1852 O   0  0  0  0  0  0  0  0  0  0  0  0
  2  9  1  0
  2  1  1  1
  3  2  1  0
  4  3  1  0
  4  5  2  0
  6  5  1  0
  7  6  1  0
  8  7  2  0
  8  4  1  0
  9 10  2  0
 11  9  1  0
 12 11  1  0
 13 12  1  0
 13 14  1  0
 14 15  1  0
 15 11  1  0
 15 16  1  1
 17 16  2  0
 18 16  1  0
 19 18  1  0
 19 26  1  0
 19 20  1  1
 21 20  1  0
 21 22  2  0
 23 22  1  0
 24 23  1  0
 25 24  2  0
 25 21  1  0
 26 27  1  0
 28 26  2  0
M  END
$$$$
