HPH.pdb
     RDKit          3D

 28 30  0  0  1  0  0  0  0  0999 V2000
    9.9784  -14.9126   21.1030 N   0  0  0  0  0  0  0  0  0  0  0  0
    8.9587  -14.3296   21.9741 C   0  0  1  0  0  0  0  0  0  0  0  0
    7.6344  -14.7518   21.3612 C   0  0  0  0  0  0  0  0  0  0  0  0
    7.5241  -14.3331   19.9529 C   0  0  0  0  0  0  0  0  0  0  0  0
    7.6301  -13.0445   19.4935 C   0  0  0  0  0  0  0  0  0  0  0  0
    7.4755  -13.0631   18.1677 N   0  0  0  0  0  0  0  0  0  0  0  0
    7.2727  -14.3297   17.7621 C   0  0  0  0  0  0  0  0  0  0  0  0
    7.3060  -15.1071   18.8853 N   0  0  0  0  0  0  0  0  0  0  0  0
    9.1685  -14.7991   23.3382 C   0  0  0  0  0  0  0  0  0  0  0  0
   10.0695  -15.6862   23.5191 O   0  0  0  0  0  0  0  0  0  0  0  0
    8.4637  -14.3629   24.5047 N   0  0  0  0  0  0  0  0  0  0  0  0
    7.2273  -13.6260   24.4161 C   0  0  0  0  0  0  0  0  0  0  0  0
    6.6746  -13.5289   25.8031 C   0  0  0  0  0  0  0  0  0  0  0  0
    7.9404  -13.5958   26.6752 C   0  0  0  0  0  0  0  0  0  0  0  0
    8.7898  -14.5584   25.8800 C   0  0  1  0  0  0  0  0  0  0  0  0
    8.6388  -15.9556   26.3324 C   0  0  0  0  0  0  0  0  0  0  0  0
    7.4905  -16.4681   26.2751 O   0  0  0  0  0  0  0  0  0  0  0  0
    9.6913  -16.7698   26.8284 N   0  0  0  0  0  0  0  0  0  0  0  0
    9.4116  -18.0797   27.4365 C   0  0  1  0  0  0  0  0  0  0  0  0
   10.3700  -19.0551   26.8195 C   0  0  0  0  0  0  0  0  0  0  0  0
   10.3052  -19.1010   25.3396 C   0  0  0  0  0  0  0  0  0  0  0  0
    9.1670  -18.9182   24.5976 C   0  0  0  0  0  0  0  0  0  0  0  0
    9.4801  -19.0272   23.3021 N   0  0  0  0  0  0  0  0  0  0  0  0
   10.8013  -19.2763   23.2250 C   0  0  0  0  0  0  0  0  0  0  0  0
   11.2992  -19.3200   24.4743 N   0  0  0  0  0  0  0  0  0  0  0  0
    9.6657  -18.0327   28.8961 C   0  0  0  0  0  0  0  0  0  0  0  0
    9.4091  -19.1049   29.7386 O   0  0  0  0  0  0  0  0  0  0  0  0
   10.1327  -16.9855   29.4064 O   0  0  0  0  0  0  0  0  0  0  0  0
  2  9  1  0
  2  1  1  6
  3  2  1  0
  4  3  1  0
  4  5  2  0
  6  5  1  0
  7  6  1  0
  8  7  2  0
  8  4  1  0
  9 10  2  0
 11  9  1  0
 12 11  1  0
 13 12  1  0
 13 14  1  0
 14 15  1  0
 15 11  1  0
 15 16  1  1
 17 16  2  0
 18 16  1  0
 19 18  1  0
 19 26  1  0
 19 20  1  6
 21 20  1  0
 21 22  2  0
 23 22  1  0
 24 23  1  0
 25 24  2  0
 25 21  1  0
 26 27  1  0
 28 26  2  0
M  END
$$$$
