HPH.pdb
     RDKit          3D

 28 30  0  0  1  0  0  0  0  0999 V2000
    8.8136  -13.1467   18.3707 N   0  0  0  0  0  0  0  0  0  0  0  0
    9.3092  -14.3607   19.0182 C   0  0  1  0  0  0  0  0  0  0  0  0
   10.8225  -14.2578   18.9338 C   0  0  0  0  0  0  0  0  0  0  0  0
   11.3361  -14.7728   17.6524 C   0  0  0  0  0  0  0  0  0  0  0  0
   10.5690  -15.2542   16.6216 C   0  0  0  0  0  0  0  0  0  0  0  0
   11.3873  -15.6267   15.6349 N   0  0  0  0  0  0  0  0  0  0  0  0
   12.6607  -15.3976   16.0039 C   0  0  0  0  0  0  0  0  0  0  0  0
   12.6108  -14.8663   17.2617 N   0  0  0  0  0  0  0  0  0  0  0  0
    8.7845  -14.4275   20.3767 C   0  0  0  0  0  0  0  0  0  0  0  0
    8.9647  -13.4072   21.1238 O   0  0  0  0  0  0  0  0  0  0  0  0
    8.0810  -15.5272   20.9627 N   0  0  0  0  0  0  0  0  0  0  0  0
    7.8418  -16.7509   20.2382 C   0  0  0  0  0  0  0  0  0  0  0  0
    7.2827  -17.7365   21.2151 C   0  0  0  0  0  0  0  0  0  0  0  0
    6.5906  -16.8306   22.2483 C   0  0  0  0  0  0  0  0  0  0  0  0
    7.5303  -15.6488   22.2734 C   0  0  1  0  0  0  0  0  0  0  0  0
    8.5487  -15.7560   23.3369 C   0  0  0  0  0  0  0  0  0  0  0  0
    9.6164  -16.3648   23.0651 O   0  0  0  0  0  0  0  0  0  0  0  0
    8.4180  -15.2236   24.6469 N   0  0  0  0  0  0  0  0  0  0  0  0
    9.4660  -15.4355   25.6572 C   0  0  1  0  0  0  0  0  0  0  0  0
    9.3061  -14.3487   26.6789 C   0  0  0  0  0  0  0  0  0  0  0  0
    8.0505  -13.5746   26.5358 C   0  0  0  0  0  0  0  0  0  0  0  0
    7.8981  -12.4649   25.7454 C   0  0  0  0  0  0  0  0  0  0  0  0
    6.6393  -12.0286   25.8605 N   0  0  0  0  0  0  0  0  0  0  0  0
    6.0022  -12.8527   26.7140 C   0  0  0  0  0  0  0  0  0  0  0  0
    6.8708  -13.7954   27.1229 N   0  0  0  0  0  0  0  0  0  0  0  0
    9.2741  -16.7426   26.3294 C   0  0  0  0  0  0  0  0  0  0  0  0
    8.2163  -17.5910   26.0354 O   0  0  0  0  0  0  0  0  0  0  0  0
   10.0952  -17.1114   27.2041 O   0  0  0  0  0  0  0  0  0  0  0  0
  2  9  1  0
  2  1  1  1
  3  2  1  0
  4  3  1  0
  4  5  2  0
  6  5  1  0
  7  6  1  0
  8  7  2  0
  8  4  1  0
  9 10  2  0
 11  9  1  0
 12 11  1  0
 13 12  1  0
 13 14  1  0
 14 15  1  0
 15 11  1  0
 15 16  1  1
 17 16  2  0
 18 16  1  0
 19 18  1  0
 19 26  1  0
 19 20  1  1
 21 20  1  0
 21 22  2  0
 23 22  1  0
 24 23  1  0
 25 24  2  0
 25 21  1  0
 26 27  1  0
 28 26  2  0
M  END
$$$$
