HCP.pdb
     RDKit          3D

 24 25  0  0  1  0  0  0  0  0999 V2000
    8.7220  -15.5905   20.4215 N   0  0  0  0  0  0  0  0  0  0  0  0
    8.0836  -14.4075   20.9938 C   0  0  1  0  0  0  0  0  0  0  0  0
    6.9038  -14.0970   20.1047 C   0  0  0  0  0  0  0  0  0  0  0  0
    7.4249  -13.9191   18.7211 C   0  0  0  0  0  0  0  0  0  0  0  0
    8.0801  -12.8299   18.1888 C   0  0  0  0  0  0  0  0  0  0  0  0
    8.3889  -13.0698   16.8874 N   0  0  0  0  0  0  0  0  0  0  0  0
    7.9277  -14.3011   16.6135 C   0  0  0  0  0  0  0  0  0  0  0  0
    7.3524  -14.8158   17.6969 N   0  0  0  0  0  0  0  0  0  0  0  0
    7.7472  -14.6537   22.3934 C   0  0  0  0  0  0  0  0  0  0  0  0
    7.1008  -13.7960   23.0482 O   0  0  0  0  0  0  0  0  0  0  0  0
    8.1058  -15.8403   23.1149 N   0  0  0  0  0  0  0  0  0  0  0  0
    7.8772  -15.9938   24.5236 C   0  0  1  0  0  0  0  0  0  0  0  0
    7.2559  -17.3906   24.7003 C   0  0  0  0  0  0  0  0  0  0  0  0
    7.2150  -17.7172   26.4833 S   0  0  0  0  0  0  0  0  0  0  0  0
    9.0302  -15.8944   25.4045 C   0  0  0  0  0  0  0  0  0  0  0  0
   10.0970  -16.5517   25.0564 O   0  0  0  0  0  0  0  0  0  0  0  0
    9.1752  -15.1808   26.6055 N   0  0  0  0  0  0  0  0  0  0  0  0
    8.1423  -14.3903   27.3069 C   0  0  0  0  0  0  0  0  0  0  0  0
    8.8732  -13.1745   27.7731 C   0  0  0  0  0  0  0  0  0  0  0  0
   10.2640  -13.6598   28.0566 C   0  0  0  0  0  0  0  0  0  0  0  0
   10.3413  -15.0583   27.4347 C   0  0  1  0  0  0  0  0  0  0  0  0
   10.2713  -16.0192   28.5876 C   0  0  0  0  0  0  0  0  0  0  0  0
    9.2454  -16.6951   28.8176 O   0  0  0  0  0  0  0  0  0  0  0  0
   11.3529  -16.1875   29.4393 O   0  0  0  0  0  0  0  0  0  0  0  0
  2  1  1  6
  3  2  1  0
  3  4  1  0
  4  5  2  0
  5  6  1  0
  7  6  1  0
  8  4  1  0
  8  7  2  0
  9  2  1  0
  9 10  2  0
 11  9  1  0
 12 11  1  0
 12 15  1  0
 12 13  1  6
 14 13  1  0
 15 17  1  0
 16 15  2  0
 17 21  1  0
 17 18  1  0
 19 18  1  0
 20 19  1  0
 20 21  1  0
 21 22  1  1
 22 23  2  0
 22 24  1  0
M  END
$$$$
