HCP.pdb
     RDKit          3D

 24 25  0  0  1  0  0  0  0  0999 V2000
    8.6352  -15.6913   20.6521 N   0  0  0  0  0  0  0  0  0  0  0  0
    8.3297  -14.3952   21.2531 C   0  0  1  0  0  0  0  0  0  0  0  0
    7.1895  -13.8190   20.4488 C   0  0  0  0  0  0  0  0  0  0  0  0
    7.6377  -13.7486   19.0304 C   0  0  0  0  0  0  0  0  0  0  0  0
    8.3888  -12.7677   18.4199 C   0  0  0  0  0  0  0  0  0  0  0  0
    8.5795  -13.0819   17.1116 N   0  0  0  0  0  0  0  0  0  0  0  0
    7.9501  -14.2514   16.9113 C   0  0  0  0  0  0  0  0  0  0  0  0
    7.3863  -14.6573   18.0458 N   0  0  0  0  0  0  0  0  0  0  0  0
    8.0511  -14.5621   22.6770 C   0  0  0  0  0  0  0  0  0  0  0  0
    7.8685  -13.5544   23.4074 O   0  0  0  0  0  0  0  0  0  0  0  0
    7.9640  -15.8305   23.3409 N   0  0  0  0  0  0  0  0  0  0  0  0
    7.8217  -15.9563   24.7636 C   0  0  1  0  0  0  0  0  0  0  0  0
    7.0339  -17.2579   24.9952 C   0  0  0  0  0  0  0  0  0  0  0  0
    7.0681  -17.5731   26.7804 S   0  0  0  0  0  0  0  0  0  0  0  0
    9.0396  -16.0148   25.5566 C   0  0  0  0  0  0  0  0  0  0  0  0
   10.0353  -16.6877   25.0597 O   0  0  0  0  0  0  0  0  0  0  0  0
    9.3154  -15.4432   26.8095 N   0  0  0  0  0  0  0  0  0  0  0  0
    8.3921  -14.6639   27.6603 C   0  0  0  0  0  0  0  0  0  0  0  0
    9.2400  -13.5557   28.1921 C   0  0  0  0  0  0  0  0  0  0  0  0
   10.6066  -14.1601   28.3231 C   0  0  0  0  0  0  0  0  0  0  0  0
   10.5393  -15.4871   27.5595 C   0  0  1  0  0  0  0  0  0  0  0  0
   10.4743  -16.5575   28.6119 C   0  0  0  0  0  0  0  0  0  0  0  0
    9.4207  -17.1897   28.8411 O   0  0  0  0  0  0  0  0  0  0  0  0
   11.5916  -16.8801   29.3676 O   0  0  0  0  0  0  0  0  0  0  0  0
  2  1  1  6
  3  2  1  0
  3  4  1  0
  4  5  2  0
  5  6  1  0
  7  6  1  0
  8  4  1  0
  8  7  2  0
  9  2  1  0
  9 10  2  0
 11  9  1  0
 12 11  1  0
 12 15  1  0
 12 13  1  6
 14 13  1  0
 15 17  1  0
 16 15  2  0
 17 21  1  0
 17 18  1  0
 19 18  1  0
 20 19  1  0
 20 21  1  0
 21 22  1  1
 22 23  2  0
 22 24  1  0
M  END
$$$$
