HCP.pdb
     RDKit          3D

 24 25  0  0  1  0  0  0  0  0999 V2000
    7.4127  -14.3464   20.0775 N   0  0  0  0  0  0  0  0  0  0  0  0
    8.1075  -15.2212   21.0190 C   0  0  1  0  0  0  0  0  0  0  0  0
    9.3485  -15.7017   20.3064 C   0  0  0  0  0  0  0  0  0  0  0  0
   10.0891  -16.5842   21.2500 C   0  0  0  0  0  0  0  0  0  0  0  0
   11.1538  -16.2620   22.0634 C   0  0  0  0  0  0  0  0  0  0  0  0
   11.5392  -17.3559   22.7714 N   0  0  0  0  0  0  0  0  0  0  0  0
   10.7182  -18.3517   22.3994 C   0  0  0  0  0  0  0  0  0  0  0  0
    9.8515  -17.9040   21.4948 N   0  0  0  0  0  0  0  0  0  0  0  0
    8.3569  -14.5069   22.2681 C   0  0  0  0  0  0  0  0  0  0  0  0
    8.2387  -13.2555   22.3149 O   0  0  0  0  0  0  0  0  0  0  0  0
    8.7407  -15.1377   23.4978 N   0  0  0  0  0  0  0  0  0  0  0  0
    8.4300  -14.5858   24.7859 C   0  0  1  0  0  0  0  0  0  0  0  0
    6.9113  -14.3366   24.7827 C   0  0  0  0  0  0  0  0  0  0  0  0
    6.4642  -13.8432   26.4691 S   0  0  0  0  0  0  0  0  0  0  0  0
    8.7568  -15.3868   25.9550 C   0  0  0  0  0  0  0  0  0  0  0  0
    8.4513  -16.6501   25.9087 O   0  0  0  0  0  0  0  0  0  0  0  0
    9.3666  -14.9986   27.1591 N   0  0  0  0  0  0  0  0  0  0  0  0
    8.9974  -13.8569   28.0217 C   0  0  0  0  0  0  0  0  0  0  0  0
   10.3102  -13.2860   28.4462 C   0  0  0  0  0  0  0  0  0  0  0  0
   11.2251  -14.4720   28.5279 C   0  0  0  0  0  0  0  0  0  0  0  0
   10.4722  -15.6146   27.8378 C   0  0  1  0  0  0  0  0  0  0  0  0
    9.9814  -16.5037   28.9451 C   0  0  0  0  0  0  0  0  0  0  0  0
    8.7752  -16.5423   29.2704 O   0  0  0  0  0  0  0  0  0  0  0  0
   10.8596  -17.3165   29.6462 O   0  0  0  0  0  0  0  0  0  0  0  0
  2  1  1  6
  3  2  1  0
  3  4  1  0
  4  5  2  0
  5  6  1  0
  7  6  1  0
  8  4  1  0
  8  7  2  0
  9  2  1  0
  9 10  2  0
 11  9  1  0
 12 11  1  0
 12 15  1  0
 12 13  1  6
 14 13  1  0
 15 17  1  0
 16 15  2  0
 17 21  1  0
 17 18  1  0
 19 18  1  0
 20 19  1  0
 20 21  1  0
 21 22  1  1
 22 23  2  0
 22 24  1  0
M  END
$$$$
