HCP.pdb
     RDKit          3D

 24 25  0  0  1  0  0  0  0  0999 V2000
   10.3559  -15.2384   21.0534 N   0  0  0  0  0  0  0  0  0  0  0  0
    9.1316  -14.5975   21.5273 C   0  0  1  0  0  0  0  0  0  0  0  0
    7.9896  -15.4136   20.9716 C   0  0  0  0  0  0  0  0  0  0  0  0
    7.5749  -14.7813   19.6887 C   0  0  0  0  0  0  0  0  0  0  0  0
    8.1269  -13.6874   19.0581 C   0  0  0  0  0  0  0  0  0  0  0  0
    7.4530  -13.4320   17.9061 N   0  0  0  0  0  0  0  0  0  0  0  0
    6.4880  -14.3624   17.8221 C   0  0  0  0  0  0  0  0  0  0  0  0
    6.5511  -15.1704   18.8771 N   0  0  0  0  0  0  0  0  0  0  0  0
    9.1578  -14.4939   22.9838 C   0  0  0  0  0  0  0  0  0  0  0  0
   10.0984  -15.0139   23.6374 O   0  0  0  0  0  0  0  0  0  0  0  0
    8.1607  -13.8210   23.7649 N   0  0  0  0  0  0  0  0  0  0  0  0
    8.2644  -13.6592   25.1874 C   0  0  1  0  0  0  0  0  0  0  0  0
    6.8818  -13.1751   25.6587 C   0  0  0  0  0  0  0  0  0  0  0  0
    6.0757  -14.5964   26.4445 S   0  0  0  0  0  0  0  0  0  0  0  0
    8.6275  -14.8298   25.9705 C   0  0  0  0  0  0  0  0  0  0  0  0
    8.3836  -15.9925   25.4413 O   0  0  0  0  0  0  0  0  0  0  0  0
    9.2155  -14.9027   27.2438 N   0  0  0  0  0  0  0  0  0  0  0  0
    8.9410  -14.0339   28.4073 C   0  0  0  0  0  0  0  0  0  0  0  0
   10.2888  -13.7921   29.0030 C   0  0  0  0  0  0  0  0  0  0  0  0
   11.0494  -15.0565   28.7331 C   0  0  0  0  0  0  0  0  0  0  0  0
   10.2023  -15.8320   27.7185 C   0  0  1  0  0  0  0  0  0  0  0  0
    9.5512  -16.9401   28.4966 C   0  0  0  0  0  0  0  0  0  0  0  0
    8.3218  -16.9499   28.7217 O   0  0  0  0  0  0  0  0  0  0  0  0
   10.3011  -17.9960   28.9930 O   0  0  0  0  0  0  0  0  0  0  0  0
  2  1  1  1
  3  2  1  0
  3  4  1  0
  4  5  2  0
  5  6  1  0
  7  6  1  0
  8  4  1  0
  8  7  2  0
  9  2  1  0
  9 10  2  0
 11  9  1  0
 12 11  1  0
 12 15  1  0
 12 13  1  1
 14 13  1  0
 15 17  1  0
 16 15  2  0
 17 21  1  0
 17 18  1  0
 19 18  1  0
 20 19  1  0
 20 21  1  0
 21 22  1  1
 22 23  2  0
 22 24  1  0
M  END
$$$$
