HCP.pdb
     RDKit          3D

 24 25  0  0  1  0  0  0  0  0999 V2000
    7.8096  -16.8733   20.7865 N   0  0  0  0  0  0  0  0  0  0  0  0
    8.8684  -15.8865   20.9854 C   0  0  1  0  0  0  0  0  0  0  0  0
    8.8722  -15.0213   19.7484 C   0  0  0  0  0  0  0  0  0  0  0  0
    9.2787  -15.8837   18.6044 C   0  0  0  0  0  0  0  0  0  0  0  0
   10.4573  -16.5772   18.4345 C   0  0  0  0  0  0  0  0  0  0  0  0
   10.4320  -17.2441   17.2507 N   0  0  0  0  0  0  0  0  0  0  0  0
    9.2441  -16.9659   16.6891 C   0  0  0  0  0  0  0  0  0  0  0  0
    8.5498  -16.1576   17.4855 N   0  0  0  0  0  0  0  0  0  0  0  0
    8.6458  -15.1655   22.2358 C   0  0  0  0  0  0  0  0  0  0  0  0
    8.0806  -14.0418   22.2252 O   0  0  0  0  0  0  0  0  0  0  0  0
    9.0326  -15.6505   23.5290 N   0  0  0  0  0  0  0  0  0  0  0  0
    8.5484  -15.0767   24.7524 C   0  0  1  0  0  0  0  0  0  0  0  0
    7.0137  -15.1664   24.6818 C   0  0  0  0  0  0  0  0  0  0  0  0
    6.3868  -14.5764   26.2775 S   0  0  0  0  0  0  0  0  0  0  0  0
    8.9828  -15.6891   25.9980 C   0  0  0  0  0  0  0  0  0  0  0  0
    8.9726  -16.9885   26.0516 O   0  0  0  0  0  0  0  0  0  0  0  0
    9.4226  -15.0799   27.1846 N   0  0  0  0  0  0  0  0  0  0  0  0
    8.7950  -13.9457   27.8940 C   0  0  0  0  0  0  0  0  0  0  0  0
    9.9517  -13.1062   28.3266 C   0  0  0  0  0  0  0  0  0  0  0  0
   11.0516  -14.0917   28.5898 C   0  0  0  0  0  0  0  0  0  0  0  0
   10.5648  -15.4144   27.9883 C   0  0  1  0  0  0  0  0  0  0  0  0
   10.1556  -16.2651   29.1572 C   0  0  0  0  0  0  0  0  0  0  0  0
    8.9549  -16.5130   29.4004 O   0  0  0  0  0  0  0  0  0  0  0  0
   11.1062  -16.8067   30.0096 O   0  0  0  0  0  0  0  0  0  0  0  0
  2  1  1  6
  3  2  1  0
  3  4  1  0
  4  5  2  0
  5  6  1  0
  7  6  1  0
  8  4  1  0
  8  7  2  0
  9  2  1  0
  9 10  2  0
 11  9  1  0
 12 11  1  0
 12 15  1  0
 12 13  1  6
 14 13  1  0
 15 17  1  0
 16 15  2  0
 17 21  1  0
 17 18  1  0
 19 18  1  0
 20 19  1  0
 20 21  1  0
 21 22  1  1
 22 23  2  0
 22 24  1  0
M  END
$$$$
