HCP.pdb
     RDKit          3D

 24 25  0  0  1  0  0  0  0  0999 V2000
    7.3101  -16.0566   19.6378 N   0  0  0  0  0  0  0  0  0  0  0  0
    7.4984  -14.8350   20.4168 C   0  0  1  0  0  0  0  0  0  0  0  0
    6.7056  -13.7618   19.7107 C   0  0  0  0  0  0  0  0  0  0  0  0
    7.3519  -13.5288   18.3895 C   0  0  0  0  0  0  0  0  0  0  0  0
    8.4281  -12.7197   18.0961 C   0  0  0  0  0  0  0  0  0  0  0  0
    8.7058  -12.7875   16.7676 N   0  0  0  0  0  0  0  0  0  0  0  0
    7.8069  -13.6342   16.2394 C   0  0  0  0  0  0  0  0  0  0  0  0
    6.9965  -14.0813   17.1950 N   0  0  0  0  0  0  0  0  0  0  0  0
    7.1116  -15.0679   21.8056 C   0  0  0  0  0  0  0  0  0  0  0  0
    5.9854  -14.6904   22.2197 O   0  0  0  0  0  0  0  0  0  0  0  0
    7.9414  -15.7181   22.7782 N   0  0  0  0  0  0  0  0  0  0  0  0
    7.5549  -15.8739   24.1517 C   0  0  1  0  0  0  0  0  0  0  0  0
    7.2577  -17.3722   24.3389 C   0  0  0  0  0  0  0  0  0  0  0  0
    7.1260  -17.6548   26.1250 S   0  0  0  0  0  0  0  0  0  0  0  0
    8.5140  -15.4703   25.1679 C   0  0  0  0  0  0  0  0  0  0  0  0
    9.7581  -15.7907   24.9653 O   0  0  0  0  0  0  0  0  0  0  0  0
    8.3007  -14.7704   26.3667 N   0  0  0  0  0  0  0  0  0  0  0  0
    7.0023  -14.4095   26.9732 C   0  0  0  0  0  0  0  0  0  0  0  0
    7.2142  -13.0206   27.4792 C   0  0  0  0  0  0  0  0  0  0  0  0
    8.6596  -12.9843   27.8785 C   0  0  0  0  0  0  0  0  0  0  0  0
    9.2778  -14.2541   27.2838 C   0  0  1  0  0  0  0  0  0  0  0  0
    9.4634  -15.1948   28.4406 C   0  0  0  0  0  0  0  0  0  0  0  0
    8.7423  -16.2051   28.5875 O   0  0  0  0  0  0  0  0  0  0  0  0
   10.4497  -14.9691   29.3892 O   0  0  0  0  0  0  0  0  0  0  0  0
  2  1  1  6
  3  2  1  0
  3  4  1  0
  4  5  2  0
  5  6  1  0
  7  6  1  0
  8  4  1  0
  8  7  2  0
  9  2  1  0
  9 10  2  0
 11  9  1  0
 12 11  1  0
 12 15  1  0
 12 13  1  1
 14 13  1  0
 15 17  1  0
 16 15  2  0
 17 21  1  0
 17 18  1  0
 19 18  1  0
 20 19  1  0
 20 21  1  0
 21 22  1  1
 22 23  2  0
 22 24  1  0
M  END
$$$$
