EVD.pdb
     RDKit          3D

 25 24  0  0  1  0  0  0  0  0999 V2000
   27.3999  -19.9362  -14.9467 N   0  0  0  0  0  0  0  0  0  0  0  0
   26.8269  -21.2348  -15.2125 C   0  0  1  0  0  0  0  0  0  0  0  0
   27.8897  -22.3192  -15.2113 C   0  0  0  0  0  0  0  0  0  0  0  0
   28.9645  -22.0224  -16.2385 C   0  0  0  0  0  0  0  0  0  0  0  0
   28.3414  -21.8626  -17.5591 C   0  0  0  0  0  0  0  0  0  0  0  0
   28.2587  -20.7429  -18.1332 O   0  0  0  0  0  0  0  0  0  0  0  0
   25.7881  -21.6296  -14.2298 C   0  0  0  0  0  0  0  0  0  0  0  0
   25.2565  -22.7847  -14.2560 O   0  0  0  0  0  0  0  0  0  0  0  0
   27.8205  -22.9580  -18.2144 O   0  0  0  0  0  0  0  0  0  0  0  0
   23.5168  -20.9839   -9.9834 C   0  0  0  0  0  0  0  0  0  0  0  0
   24.5868  -20.4773  -10.9317 C   0  0  1  0  0  0  0  0  0  0  0  0
   25.9808  -20.8860  -10.4596 C   0  0  0  0  0  0  0  0  0  0  0  0
   24.3664  -21.1251  -12.2691 C   0  0  2  0  0  0  0  0  0  0  0  0
   25.3732  -20.7063  -13.2373 N   0  0  0  0  0  0  0  0  0  0  0  0
   23.0411  -20.6391  -12.7898 C   0  0  0  0  0  0  0  0  0  0  0  0
   22.7900  -19.4349  -12.9871 O   0  0  0  0  0  0  0  0  0  0  0  0
   22.0721  -21.6132  -13.0533 N   0  0  0  0  0  0  0  0  0  0  0  0
   20.6999  -21.2816  -13.5005 C   0  0  1  0  0  0  0  0  0  0  0  0
   20.1936  -22.5336  -14.1356 C   0  0  0  0  0  0  0  0  0  0  0  0
   20.7249  -22.8709  -15.4435 C   0  0  0  0  0  0  0  0  0  0  0  0
   20.3977  -23.9864  -15.9282 O   0  0  0  0  0  0  0  0  0  0  0  0
   19.9766  -20.8532  -12.2935 C   0  0  0  0  0  0  0  0  0  0  0  0
   20.0452  -21.5978  -11.1409 O   0  0  0  0  0  0  0  0  0  0  0  0
   21.5554  -22.0584  -16.1799 O   0  0  0  0  0  0  0  0  0  0  0  0
   19.2888  -19.8086  -12.2968 O   0  0  0  0  0  0  0  0  0  0  0  0
  2  1  1  1
  2  7  1  0
  3  2  1  0
  4  3  1  0
  5  4  1  0
  6  5  2  0
  7  8  2  0
  9  5  1  0
 11 10  1  1
 11 12  1  0
 13 11  1  0
 14  7  1  0
 13 14  1  6
 15 17  1  0
 15 13  1  0
 16 15  2  0
 18 22  1  0
 18 19  1  1
 18 17  1  0
 19 20  1  0
 20 21  2  0
 20 24  1  0
 22 23  1  0
 25 22  2  0
M  END
$$$$
