EVD.pdb
     RDKit          3D

 25 24  0  0  1  0  0  0  0  0999 V2000
   26.4029  -35.1115   -8.4487 N   0  0  0  0  0  0  0  0  0  0  0  0
   26.1899  -35.7699   -7.1812 C   0  0  1  0  0  0  0  0  0  0  0  0
   26.7786  -37.1695   -7.1790 C   0  0  0  0  0  0  0  0  0  0  0  0
   26.0174  -38.0764   -8.1258 C   0  0  0  0  0  0  0  0  0  0  0  0
   24.8074  -38.5705   -7.4553 C   0  0  0  0  0  0  0  0  0  0  0  0
   24.5943  -38.3821   -6.2268 O   0  0  0  0  0  0  0  0  0  0  0  0
   26.7801  -35.0378   -6.0338 C   0  0  0  0  0  0  0  0  0  0  0  0
   27.8621  -34.3804   -6.1534 O   0  0  0  0  0  0  0  0  0  0  0  0
   23.8571  -39.2678   -8.1703 O   0  0  0  0  0  0  0  0  0  0  0  0
   25.7502  -32.1434   -4.4516 C   0  0  0  0  0  0  0  0  0  0  0  0
   25.7606  -33.1415   -3.3094 C   0  0  1  0  0  0  0  0  0  0  0  0
   24.3752  -33.7476   -3.0939 C   0  0  0  0  0  0  0  0  0  0  0  0
   26.6812  -34.2675   -3.6850 C   0  0  2  0  0  0  0  0  0  0  0  0
   26.1309  -35.0663   -4.7739 N   0  0  0  0  0  0  0  0  0  0  0  0
   26.7839  -35.1794   -2.4926 C   0  0  0  0  0  0  0  0  0  0  0  0
   26.0917  -36.2071   -2.3627 O   0  0  0  0  0  0  0  0  0  0  0  0
   27.7103  -34.8247   -1.5060 N   0  0  0  0  0  0  0  0  0  0  0  0
   27.8722  -35.5842   -0.2452 C   0  0  1  0  0  0  0  0  0  0  0  0
   29.2178  -35.1905    0.2662 C   0  0  0  0  0  0  0  0  0  0  0  0
   29.8488  -36.0855    1.2188 C   0  0  0  0  0  0  0  0  0  0  0  0
   29.2480  -37.1601    1.4851 O   0  0  0  0  0  0  0  0  0  0  0  0
   26.7384  -35.1945    0.6069 C   0  0  0  0  0  0  0  0  0  0  0  0
   26.2786  -33.8998    0.6031 O   0  0  0  0  0  0  0  0  0  0  0  0
   31.0488  -35.8374    1.8438 O   0  0  0  0  0  0  0  0  0  0  0  0
   26.1770  -36.0318    1.3472 O   0  0  0  0  0  0  0  0  0  0  0  0
  2  1  1  6
  2  7  1  0
  3  2  1  0
  4  3  1  0
  5  4  1  0
  6  5  2  0
  7  8  2  0
  9  5  1  0
 11 10  1  6
 11 12  1  0
 13 11  1  0
 14  7  1  0
 13 14  1  6
 15 17  1  0
 15 13  1  0
 16 15  2  0
 18 22  1  0
 18 19  1  1
 18 17  1  0
 19 20  1  0
 20 21  2  0
 20 24  1  0
 22 23  1  0
 25 22  2  0
M  END
$$$$
