EVD.pdb
     RDKit          3D

 25 24  0  0  1  0  0  0  0  0999 V2000
   25.1913  -16.4180  -17.8977 N   0  0  0  0  0  0  0  0  0  0  0  0
   24.9840  -15.0840  -18.4103 C   0  0  1  0  0  0  0  0  0  0  0  0
   23.7430  -15.0130  -19.2823 C   0  0  0  0  0  0  0  0  0  0  0  0
   23.8389  -15.9899  -20.4376 C   0  0  0  0  0  0  0  0  0  0  0  0
   22.6127  -15.9098  -21.2426 C   0  0  0  0  0  0  0  0  0  0  0  0
   22.5133  -15.1493  -22.2435 O   0  0  0  0  0  0  0  0  0  0  0  0
   24.8373  -14.0625  -17.3446 C   0  0  0  0  0  0  0  0  0  0  0  0
   24.2506  -14.3289  -16.2481 O   0  0  0  0  0  0  0  0  0  0  0  0
   21.5184  -16.6810  -20.9133 O   0  0  0  0  0  0  0  0  0  0  0  0
   27.3989  -12.4373  -15.5009 C   0  0  0  0  0  0  0  0  0  0  0  0
   26.5973  -11.2714  -16.0479 C   0  0  1  0  0  0  0  0  0  0  0  0
   27.2558  -10.6865  -17.2959 C   0  0  0  0  0  0  0  0  0  0  0  0
   25.2490  -11.7885  -16.4617 C   0  0  2  0  0  0  0  0  0  0  0  0
   25.3589  -12.7595  -17.5441 N   0  0  0  0  0  0  0  0  0  0  0  0
   24.4701  -10.6227  -17.0079 C   0  0  0  0  0  0  0  0  0  0  0  0
   24.3791  -10.3785  -18.2261 O   0  0  0  0  0  0  0  0  0  0  0  0
   23.8321   -9.7985  -16.0745 N   0  0  0  0  0  0  0  0  0  0  0  0
   22.9700   -8.6595  -16.4648 C   0  0  1  0  0  0  0  0  0  0  0  0
   21.9293   -9.2565  -17.3524 C   0  0  0  0  0  0  0  0  0  0  0  0
   20.7965   -8.4171  -17.6972 C   0  0  0  0  0  0  0  0  0  0  0  0
   21.0458   -7.3020  -18.2273 O   0  0  0  0  0  0  0  0  0  0  0  0
   22.4681   -8.0862  -15.2067 C   0  0  0  0  0  0  0  0  0  0  0  0
   22.7618   -8.6831  -14.0046 O   0  0  0  0  0  0  0  0  0  0  0  0
   19.4811   -8.7580  -17.4837 O   0  0  0  0  0  0  0  0  0  0  0  0
   21.7672   -7.0503  -15.2105 O   0  0  0  0  0  0  0  0  0  0  0  0
  2  1  1  1
  2  7  1  0
  3  2  1  0
  4  3  1  0
  5  4  1  0
  6  5  2  0
  7  8  2  0
  9  5  1  0
 11 10  1  6
 11 12  1  0
 13 11  1  0
 14  7  1  0
 13 14  1  6
 15 17  1  0
 15 13  1  0
 16 15  2  0
 18 22  1  0
 18 19  1  6
 18 17  1  0
 19 20  1  0
 20 21  2  0
 20 24  1  0
 22 23  1  0
 25 22  2  0
M  END
$$$$
