EVD.pdb
     RDKit          3D

 25 24  0  0  1  0  0  0  0  0999 V2000
   28.3209  -19.3665  -16.5721 N   0  0  0  0  0  0  0  0  0  0  0  0
   27.3000  -18.9190  -15.6541 C   0  0  1  0  0  0  0  0  0  0  0  0
   26.2911  -18.0187  -16.3447 C   0  0  0  0  0  0  0  0  0  0  0  0
   26.9268  -17.2941  -17.5148 C   0  0  0  0  0  0  0  0  0  0  0  0
   25.9379  -16.3932  -18.1216 C   0  0  0  0  0  0  0  0  0  0  0  0
   25.6356  -16.4513  -19.3445 O   0  0  0  0  0  0  0  0  0  0  0  0
   26.5461  -20.0324  -15.0273 C   0  0  0  0  0  0  0  0  0  0  0  0
   27.0511  -21.1944  -14.9163 O   0  0  0  0  0  0  0  0  0  0  0  0
   25.3049  -15.4419  -17.3503 O   0  0  0  0  0  0  0  0  0  0  0  0
   24.7479  -21.5902  -11.2745 C   0  0  0  0  0  0  0  0  0  0  0  0
   25.4861  -20.7427  -12.2932 C   0  0  1  0  0  0  0  0  0  0  0  0
   26.8481  -21.3465  -12.6299 C   0  0  0  0  0  0  0  0  0  0  0  0
   24.6812  -20.7351  -13.5615 C   0  0  2  0  0  0  0  0  0  0  0  0
   25.2346  -19.8054  -14.5393 N   0  0  0  0  0  0  0  0  0  0  0  0
   23.3068  -20.2288  -13.2174 C   0  0  0  0  0  0  0  0  0  0  0  0
   23.1119  -19.1988  -12.5443 O   0  0  0  0  0  0  0  0  0  0  0  0
   22.2231  -20.9751  -13.6930 N   0  0  0  0  0  0  0  0  0  0  0  0
   20.8193  -20.5187  -13.5747 C   0  0  1  0  0  0  0  0  0  0  0  0
   20.2020  -20.8406  -14.8948 C   0  0  0  0  0  0  0  0  0  0  0  0
   20.5662  -19.9947  -16.0166 C   0  0  0  0  0  0  0  0  0  0  0  0
   21.0979  -18.8839  -15.7520 O   0  0  0  0  0  0  0  0  0  0  0  0
   20.2567  -21.2439  -12.4253 C   0  0  0  0  0  0  0  0  0  0  0  0
   19.2184  -20.7057  -11.7042 O   0  0  0  0  0  0  0  0  0  0  0  0
   20.3694  -20.3251  -17.3373 O   0  0  0  0  0  0  0  0  0  0  0  0
   20.7133  -22.3578  -12.0859 O   0  0  0  0  0  0  0  0  0  0  0  0
  2  1  1  6
  2  7  1  0
  3  2  1  0
  4  3  1  0
  5  4  1  0
  6  5  2  0
  7  8  2  0
  9  5  1  0
 11 10  1  1
 11 12  1  0
 13 11  1  0
 14  7  1  0
 13 14  1  6
 15 17  1  0
 15 13  1  0
 16 15  2  0
 18 22  1  0
 18 19  1  6
 18 17  1  0
 19 20  1  0
 20 21  2  0
 20 24  1  0
 22 23  1  0
 25 22  2  0
M  END
$$$$
