EVD.pdb
     RDKit          3D

 25 24  0  0  1  0  0  0  0  0999 V2000
   17.9680  -12.2607  -16.1803 N   0  0  0  0  0  0  0  0  0  0  0  0
   18.6603  -11.0966  -16.6811 C   0  0  1  0  0  0  0  0  0  0  0  0
   17.6919  -10.0913  -17.2785 C   0  0  0  0  0  0  0  0  0  0  0  0
   16.9737  -10.6805  -18.4767 C   0  0  0  0  0  0  0  0  0  0  0  0
   16.0874   -9.6636  -19.0583 C   0  0  0  0  0  0  0  0  0  0  0  0
   16.5023   -8.7968  -19.8748 O   0  0  0  0  0  0  0  0  0  0  0  0
   19.4484  -10.3905  -15.6413 C   0  0  0  0  0  0  0  0  0  0  0  0
   19.0588  -10.3459  -14.4314 O   0  0  0  0  0  0  0  0  0  0  0  0
   14.7524   -9.6331  -18.7156 O   0  0  0  0  0  0  0  0  0  0  0  0
   22.6960  -11.0418  -14.3216 C   0  0  0  0  0  0  0  0  0  0  0  0
   22.8071   -9.6152  -14.8249 C   0  0  1  0  0  0  0  0  0  0  0  0
   23.4415   -9.5680  -16.2136 C   0  0  0  0  0  0  0  0  0  0  0  0
   21.4176   -9.0593  -14.9555 C   0  0  2  0  0  0  0  0  0  0  0  0
   20.6623   -9.7493  -15.9948 N   0  0  0  0  0  0  0  0  0  0  0  0
   21.5474   -7.6271  -15.3979 C   0  0  0  0  0  0  0  0  0  0  0  0
   21.4090   -7.2677  -16.5827 O   0  0  0  0  0  0  0  0  0  0  0  0
   21.8366   -6.6847  -14.4051 N   0  0  0  0  0  0  0  0  0  0  0  0
   22.0033   -5.2414  -14.6910 C   0  0  1  0  0  0  0  0  0  0  0  0
   20.6786   -4.8027  -15.2201 C   0  0  0  0  0  0  0  0  0  0  0  0
   20.4763   -3.3755  -15.3897 C   0  0  0  0  0  0  0  0  0  0  0  0
   21.2628   -2.7701  -16.1652 O   0  0  0  0  0  0  0  0  0  0  0  0
   22.4065   -4.6238  -13.4184 C   0  0  0  0  0  0  0  0  0  0  0  0
   22.5253   -5.3869  -12.2821 O   0  0  0  0  0  0  0  0  0  0  0  0
   19.4905   -2.6488  -14.7633 O   0  0  0  0  0  0  0  0  0  0  0  0
   22.6459   -3.3981  -13.3496 O   0  0  0  0  0  0  0  0  0  0  0  0
  2  1  1  1
  2  7  1  0
  3  2  1  0
  4  3  1  0
  5  4  1  0
  6  5  2  0
  7  8  2  0
  9  5  1  0
 11 10  1  6
 11 12  1  0
 13 11  1  0
 14  7  1  0
 13 14  1  6
 15 17  1  0
 15 13  1  0
 16 15  2  0
 18 22  1  0
 18 19  1  1
 18 17  1  0
 19 20  1  0
 20 21  2  0
 20 24  1  0
 22 23  1  0
 25 22  2  0
M  END
$$$$
