NQD.pdb
     RDKit          3D

 26 25  0  0  1  0  0  0  0  0999 V2000
   24.6785  -14.6729  -18.9830 N   0  0  0  0  0  0  0  0  0  0  0  0
   23.7007  -14.3353  -19.9744 C   0  0  0  0  0  0  0  0  0  0  0  0
   23.6355  -15.0845  -20.9828 O   0  0  0  0  0  0  0  0  0  0  0  0
   22.8549  -13.1518  -19.7433 C   0  0  0  0  0  0  0  0  0  0  0  0
   23.1413  -12.4855  -18.4518 C   0  0  2  0  0  0  0  0  0  0  0  0
   22.9767  -13.3543  -17.3301 N   0  0  0  0  0  0  0  0  0  0  0  0
   22.3560  -11.2211  -18.2702 C   0  0  0  0  0  0  0  0  0  0  0  0
   22.4874  -10.3691  -19.1540 O   0  0  0  0  0  0  0  0  0  0  0  0
   16.5981  -11.0898  -16.0227 N   0  0  0  0  0  0  0  0  0  0  0  0
   16.9217   -9.7153  -15.9886 C   0  0  0  0  0  0  0  0  0  0  0  0
   16.0419   -8.8804  -15.7334 O   0  0  0  0  0  0  0  0  0  0  0  0
   18.3213   -9.2523  -16.2553 C   0  0  0  0  0  0  0  0  0  0  0  0
   19.2628  -10.3753  -16.5616 C   0  0  0  0  0  0  0  0  0  0  0  0
   20.6786   -9.9656  -16.8577 C   0  0  2  0  0  0  0  0  0  0  0  0
   21.5417  -11.0668  -17.1513 N   0  0  0  0  0  0  0  0  0  0  0  0
   21.2028   -8.9825  -15.9193 C   0  0  0  0  0  0  0  0  0  0  0  0
   21.7324   -9.3919  -14.8373 O   0  0  0  0  0  0  0  0  0  0  0  0
   21.1742   -7.5791  -16.1071 N   0  0  0  0  0  0  0  0  0  0  0  0
   21.6523   -6.6784  -15.0442 C   0  0  1  0  0  0  0  0  0  0  0  0
   21.7273   -5.2731  -15.5269 C   0  0  0  0  0  0  0  0  0  0  0  0
   22.1869   -4.3907  -14.4369 C   0  0  0  0  0  0  0  0  0  0  0  0
   23.0692   -4.8147  -13.6127 O   0  0  0  0  0  0  0  0  0  0  0  0
   20.6523   -6.8218  -13.9420 C   0  0  0  0  0  0  0  0  0  0  0  0
   19.4305   -6.8553  -14.2471 O   0  0  0  0  0  0  0  0  0  0  0  0
   21.7449   -3.1016  -14.2005 O   0  0  0  0  0  0  0  0  0  0  0  0
   20.9832   -6.9200  -12.6110 O   0  0  0  0  0  0  0  0  0  0  0  0
  1  2  1  0
  2  3  2  0
  4  2  1  0
  5  4  1  0
  5  6  1  1
  7 15  1  0
  7  5  1  0
  8  7  2  0
  9 10  1  0
 10 12  1  0
 11 10  2  0
 13 12  1  0
 14 13  1  1
 14 15  1  0
 16 14  1  0
 16 17  2  0
 18 16  1  0
 19 18  1  0
 19 20  1  6
 20 21  1  0
 21 25  1  0
 22 21  2  0
 23 19  1  0
 24 23  2  0
 26 23  1  0
M  END
$$$$
