NQD.pdb
     RDKit          3D

 26 25  0  0  1  0  0  0  0  0999 V2000
   19.3937  -12.4702  -15.2102 N   0  0  0  0  0  0  0  0  0  0  0  0
   19.6801  -11.2070  -15.8228 C   0  0  0  0  0  0  0  0  0  0  0  0
   20.6581  -11.1704  -16.6132 O   0  0  0  0  0  0  0  0  0  0  0  0
   18.8201  -10.0594  -15.4868 C   0  0  0  0  0  0  0  0  0  0  0  0
   17.7500  -10.4071  -14.5237 C   0  0  2  0  0  0  0  0  0  0  0  0
   16.9347  -11.4927  -14.9675 N   0  0  0  0  0  0  0  0  0  0  0  0
   16.9090   -9.2245  -14.1465 C   0  0  0  0  0  0  0  0  0  0  0  0
   15.8317   -9.1136  -14.7393 O   0  0  0  0  0  0  0  0  0  0  0  0
   15.4559   -7.3440   -8.6158 N   0  0  0  0  0  0  0  0  0  0  0  0
   16.1078   -8.4697   -9.1662 C   0  0  0  0  0  0  0  0  0  0  0  0
   16.2225   -9.5055   -8.4951 O   0  0  0  0  0  0  0  0  0  0  0  0
   16.6620   -8.4283  -10.5574 C   0  0  0  0  0  0  0  0  0  0  0  0
   16.3184   -7.1681  -11.2888 C   0  0  0  0  0  0  0  0  0  0  0  0
   16.7180   -7.1354  -12.7377 C   0  0  2  0  0  0  0  0  0  0  0  0
   17.3634   -8.3324  -13.1787 N   0  0  0  0  0  0  0  0  0  0  0  0
   17.3594   -5.8881  -13.1311 C   0  0  0  0  0  0  0  0  0  0  0  0
   18.6282   -5.8104  -13.0794 O   0  0  0  0  0  0  0  0  0  0  0  0
   16.6813   -4.7269  -13.5755 N   0  0  0  0  0  0  0  0  0  0  0  0
   17.4394   -3.5898  -14.1251 C   0  0  1  0  0  0  0  0  0  0  0  0
   17.0319   -3.3023  -15.5269 C   0  0  0  0  0  0  0  0  0  0  0  0
   17.7934   -2.1496  -16.0456 C   0  0  0  0  0  0  0  0  0  0  0  0
   18.7477   -1.6595  -15.3479 O   0  0  0  0  0  0  0  0  0  0  0  0
   17.1199   -2.4432  -13.2203 C   0  0  0  0  0  0  0  0  0  0  0  0
   15.9455   -2.3449  -12.7754 O   0  0  0  0  0  0  0  0  0  0  0  0
   17.5744   -1.5150  -17.2549 O   0  0  0  0  0  0  0  0  0  0  0  0
   18.0309   -1.4854  -12.8412 O   0  0  0  0  0  0  0  0  0  0  0  0
  1  2  1  0
  2  3  2  0
  4  2  1  0
  5  4  1  0
  5  6  1  6
  7 15  1  0
  7  5  1  0
  8  7  2  0
  9 10  1  0
 10 12  1  0
 11 10  2  0
 13 12  1  0
 14 13  1  1
 14 15  1  0
 16 14  1  0
 16 17  2  0
 18 16  1  0
 19 18  1  0
 19 20  1  6
 20 21  1  0
 21 25  1  0
 22 21  2  0
 23 19  1  0
 24 23  2  0
 26 23  1  0
M  END
$$$$
