NQD.pdb
     RDKit          3D

 26 25  0  0  1  0  0  0  0  0999 V2000
   17.6075  -14.0217  -18.0328 N   0  0  0  0  0  0  0  0  0  0  0  0
   16.7700  -12.9908  -17.4954 C   0  0  0  0  0  0  0  0  0  0  0  0
   15.5506  -13.0356  -17.8014 O   0  0  0  0  0  0  0  0  0  0  0  0
   17.3898  -11.9678  -16.6357 C   0  0  0  0  0  0  0  0  0  0  0  0
   18.8459  -12.1730  -16.4586 C   0  0  2  0  0  0  0  0  0  0  0  0
   19.1543  -13.3590  -15.7248 N   0  0  0  0  0  0  0  0  0  0  0  0
   19.5263  -10.9793  -15.8584 C   0  0  0  0  0  0  0  0  0  0  0  0
   19.1320  -10.6353  -14.7401 O   0  0  0  0  0  0  0  0  0  0  0  0
   25.3722   -9.0386  -17.3798 N   0  0  0  0  0  0  0  0  0  0  0  0
   24.8665   -7.9299  -16.6655 C   0  0  0  0  0  0  0  0  0  0  0  0
   25.6137   -6.9798  -16.3912 O   0  0  0  0  0  0  0  0  0  0  0  0
   23.4318   -7.8864  -16.2363 C   0  0  0  0  0  0  0  0  0  0  0  0
   22.6782   -9.1333  -16.5804 C   0  0  0  0  0  0  0  0  0  0  0  0
   21.2287   -9.1401  -16.1814 C   0  0  2  0  0  0  0  0  0  0  0  0
   20.5372  -10.3315  -16.5635 N   0  0  0  0  0  0  0  0  0  0  0  0
   20.5439   -7.8884  -16.4748 C   0  0  0  0  0  0  0  0  0  0  0  0
   20.2389   -7.6269  -17.6821 O   0  0  0  0  0  0  0  0  0  0  0  0
   20.1795   -6.9132  -15.5147 N   0  0  0  0  0  0  0  0  0  0  0  0
   19.5218   -5.6649  -15.9378 C   0  0  1  0  0  0  0  0  0  0  0  0
   18.1057   -5.6254  -15.4833 C   0  0  0  0  0  0  0  0  0  0  0  0
   17.4972   -4.3307  -15.8457 C   0  0  0  0  0  0  0  0  0  0  0  0
   17.8925   -3.7217  -16.8995 O   0  0  0  0  0  0  0  0  0  0  0  0
   20.3262   -4.5747  -15.3054 C   0  0  0  0  0  0  0  0  0  0  0  0
   19.9986   -3.3809  -15.5386 O   0  0  0  0  0  0  0  0  0  0  0  0
   16.5056   -3.6775  -15.1363 O   0  0  0  0  0  0  0  0  0  0  0  0
   21.4054   -4.7937  -14.4818 O   0  0  0  0  0  0  0  0  0  0  0  0
  1  2  1  0
  2  3  2  0
  4  2  1  0
  5  4  1  0
  5  6  1  1
  7 15  1  0
  7  5  1  0
  8  7  2  0
  9 10  1  0
 10 12  1  0
 11 10  2  0
 13 12  1  0
 14 13  1  6
 14 15  1  0
 16 14  1  0
 16 17  2  0
 18 16  1  0
 19 18  1  0
 19 20  1  1
 20 21  1  0
 21 25  1  0
 22 21  2  0
 23 19  1  0
 24 23  2  0
 26 23  1  0
M  END
$$$$
