NQD.pdb
     RDKit          3D

 26 25  0  0  1  0  0  0  0  0999 V2000
   13.7958  -13.1499   -9.8845 N   0  0  0  0  0  0  0  0  0  0  0  0
   14.8836  -12.6605  -10.6783 C   0  0  0  0  0  0  0  0  0  0  0  0
   15.6294  -13.5232  -11.2092 O   0  0  0  0  0  0  0  0  0  0  0  0
   15.0467  -11.2028  -10.8126 C   0  0  0  0  0  0  0  0  0  0  0  0
   14.0875  -10.4392   -9.9815 C   0  0  2  0  0  0  0  0  0  0  0  0
   12.7309  -10.8301  -10.1983 N   0  0  0  0  0  0  0  0  0  0  0  0
   14.2487   -8.9562  -10.1327 C   0  0  0  0  0  0  0  0  0  0  0  0
   13.5951   -8.4289  -11.0376 O   0  0  0  0  0  0  0  0  0  0  0  0
   13.6673   -4.6901   -5.9824 N   0  0  0  0  0  0  0  0  0  0  0  0
   14.4254   -3.9598   -6.9242 C   0  0  0  0  0  0  0  0  0  0  0  0
   14.5750   -2.7376   -6.7814 O   0  0  0  0  0  0  0  0  0  0  0  0
   15.0560   -4.6470   -8.0965 C   0  0  0  0  0  0  0  0  0  0  0  0
   14.8485   -6.1296   -8.0891 C   0  0  0  0  0  0  0  0  0  0  0  0
   15.3809   -6.8601   -9.2903 C   0  0  2  0  0  0  0  0  0  0  0  0
   15.0996   -8.2617   -9.2769 N   0  0  0  0  0  0  0  0  0  0  0  0
   16.7487   -6.4917   -9.6299 C   0  0  0  0  0  0  0  0  0  0  0  0
   17.6745   -6.7410   -8.7935 O   0  0  0  0  0  0  0  0  0  0  0  0
   17.1497   -5.8656  -10.8352 N   0  0  0  0  0  0  0  0  0  0  0  0
   18.5702   -5.8468  -11.2246 C   0  0  1  0  0  0  0  0  0  0  0  0
   19.1251   -7.2257  -11.2918 C   0  0  0  0  0  0  0  0  0  0  0  0
   20.4772   -7.1954  -11.8824 C   0  0  0  0  0  0  0  0  0  0  0  0
   21.2888   -6.2634  -11.5506 O   0  0  0  0  0  0  0  0  0  0  0  0
   18.5910   -5.1866  -12.5660 C   0  0  0  0  0  0  0  0  0  0  0  0
   17.5091   -5.1040  -13.2059 O   0  0  0  0  0  0  0  0  0  0  0  0
   20.9800   -8.1039  -12.7961 O   0  0  0  0  0  0  0  0  0  0  0  0
   19.7211   -4.6616  -13.1475 O   0  0  0  0  0  0  0  0  0  0  0  0
  1  2  1  0
  2  3  2  0
  4  2  1  0
  5  4  1  0
  5  6  1  6
  7 15  1  0
  7  5  1  0
  8  7  2  0
  9 10  1  0
 10 12  1  0
 11 10  2  0
 13 12  1  0
 14 13  1  1
 14 15  1  0
 16 14  1  0
 16 17  2  0
 18 16  1  0
 19 18  1  0
 19 20  1  6
 20 21  1  0
 21 25  1  0
 22 21  2  0
 23 19  1  0
 24 23  2  0
 26 23  1  0
M  END
$$$$
