NQD.pdb
     RDKit          3D

 26 25  0  0  1  0  0  0  0  0999 V2000
   26.2688  -14.2044  -15.9981 N   0  0  0  0  0  0  0  0  0  0  0  0
   25.9089  -15.5341  -16.3918 C   0  0  0  0  0  0  0  0  0  0  0  0
   26.8053  -16.2229  -16.9438 O   0  0  0  0  0  0  0  0  0  0  0  0
   24.5343  -15.9912  -16.1251 C   0  0  0  0  0  0  0  0  0  0  0  0
   23.6914  -16.0153  -17.3428 C   0  0  2  0  0  0  0  0  0  0  0  0
   23.4768  -14.7158  -17.8955 N   0  0  0  0  0  0  0  0  0  0  0  0
   22.3898  -16.7278  -17.1275 C   0  0  0  0  0  0  0  0  0  0  0  0
   21.9022  -17.2785  -18.1191 O   0  0  0  0  0  0  0  0  0  0  0  0
   20.9914  -20.5115  -12.4980 N   0  0  0  0  0  0  0  0  0  0  0  0
   20.3133  -19.3280  -12.1313 C   0  0  0  0  0  0  0  0  0  0  0  0
   19.7954  -19.2360  -11.0089 O   0  0  0  0  0  0  0  0  0  0  0  0
   20.2141  -18.1767  -13.0847 C   0  0  0  0  0  0  0  0  0  0  0  0
   20.8328  -18.4633  -14.4175 C   0  0  0  0  0  0  0  0  0  0  0  0
   20.6099  -17.4130  -15.4698 C   0  0  2  0  0  0  0  0  0  0  0  0
   21.8064  -16.7365  -15.8632 N   0  0  0  0  0  0  0  0  0  0  0  0
   19.4600  -16.5607  -15.1995 C   0  0  0  0  0  0  0  0  0  0  0  0
   19.6595  -15.3366  -14.9160 O   0  0  0  0  0  0  0  0  0  0  0  0
   18.1082  -16.9826  -15.2237 N   0  0  0  0  0  0  0  0  0  0  0  0
   17.0223  -16.0039  -15.0429 C   0  0  1  0  0  0  0  0  0  0  0  0
   16.7653  -15.2511  -16.3003 C   0  0  0  0  0  0  0  0  0  0  0  0
   15.6218  -14.3370  -16.1144 C   0  0  0  0  0  0  0  0  0  0  0  0
   14.4675  -14.6750  -16.5513 O   0  0  0  0  0  0  0  0  0  0  0  0
   15.8339  -16.8195  -14.6452 C   0  0  0  0  0  0  0  0  0  0  0  0
   15.8092  -18.0353  -14.9736 O   0  0  0  0  0  0  0  0  0  0  0  0
   15.6679  -13.1014  -15.4944 O   0  0  0  0  0  0  0  0  0  0  0  0
   14.7620  -16.3241  -13.9405 O   0  0  0  0  0  0  0  0  0  0  0  0
  1  2  1  0
  2  3  2  0
  4  2  1  0
  5  4  1  0
  5  6  1  1
  7 15  1  0
  7  5  1  0
  8  7  2  0
  9 10  1  0
 10 12  1  0
 11 10  2  0
 13 12  1  0
 14 13  1  1
 14 15  1  0
 16 14  1  0
 16 17  2  0
 18 16  1  0
 19 18  1  0
 19 20  1  6
 20 21  1  0
 21 25  1  0
 22 21  2  0
 23 19  1  0
 24 23  2  0
 26 23  1  0
M  END
$$$$
