NQD.pdb
     RDKit          3D

 26 25  0  0  1  0  0  0  0  0999 V2000
   16.0192  -12.3491  -16.3013 N   0  0  0  0  0  0  0  0  0  0  0  0
   15.4530  -11.0355  -16.3837 C   0  0  0  0  0  0  0  0  0  0  0  0
   14.3470  -10.9322  -16.9742 O   0  0  0  0  0  0  0  0  0  0  0  0
   16.1972   -9.9175  -15.7790 C   0  0  0  0  0  0  0  0  0  0  0  0
   17.5142  -10.3295  -15.2409 C   0  0  2  0  0  0  0  0  0  0  0  0
   17.4079  -11.2787  -14.1789 N   0  0  0  0  0  0  0  0  0  0  0  0
   18.3600   -9.1607  -14.8325 C   0  0  0  0  0  0  0  0  0  0  0  0
   18.1604   -8.7167  -13.6979 O   0  0  0  0  0  0  0  0  0  0  0  0
   24.0693   -7.9668  -17.2936 N   0  0  0  0  0  0  0  0  0  0  0  0
   23.8335   -6.8171  -16.5077 C   0  0  0  0  0  0  0  0  0  0  0  0
   24.7189   -5.9576  -16.3905 O   0  0  0  0  0  0  0  0  0  0  0  0
   22.5203   -6.6213  -15.8136 C   0  0  0  0  0  0  0  0  0  0  0  0
   21.5623   -7.7490  -16.0410 C   0  0  0  0  0  0  0  0  0  0  0  0
   20.1765   -7.5354  -15.4988 C   0  0  2  0  0  0  0  0  0  0  0  0
   19.3004   -8.6433  -15.7195 N   0  0  0  0  0  0  0  0  0  0  0  0
   19.6297   -6.2227  -15.8143 C   0  0  0  0  0  0  0  0  0  0  0  0
   19.2782   -5.9788  -17.0126 O   0  0  0  0  0  0  0  0  0  0  0  0
   19.4509   -5.1686  -14.8856 N   0  0  0  0  0  0  0  0  0  0  0  0
   18.8925   -3.8786  -15.3258 C   0  0  1  0  0  0  0  0  0  0  0  0
   17.8446   -3.3997  -14.3845 C   0  0  0  0  0  0  0  0  0  0  0  0
   16.5078   -3.5959  -14.9780 C   0  0  0  0  0  0  0  0  0  0  0  0
   15.4885   -3.0509  -14.4288 O   0  0  0  0  0  0  0  0  0  0  0  0
   20.0611   -2.9464  -15.3582 C   0  0  0  0  0  0  0  0  0  0  0  0
   21.1485   -3.3371  -14.8566 O   0  0  0  0  0  0  0  0  0  0  0  0
   16.2279   -4.3392  -16.1104 O   0  0  0  0  0  0  0  0  0  0  0  0
   20.0236   -1.6846  -15.9034 O   0  0  0  0  0  0  0  0  0  0  0  0
  1  2  1  0
  2  3  2  0
  4  2  1  0
  5  4  1  0
  5  6  1  1
  7 15  1  0
  7  5  1  0
  8  7  2  0
  9 10  1  0
 10 12  1  0
 11 10  2  0
 13 12  1  0
 14 13  1  6
 14 15  1  0
 16 14  1  0
 16 17  2  0
 18 16  1  0
 19 18  1  0
 19 20  1  1
 20 21  1  0
 21 25  1  0
 22 21  2  0
 23 19  1  0
 24 23  2  0
 26 23  1  0
M  END
$$$$
