NQD.pdb
     RDKit          3D

 26 25  0  0  1  0  0  0  0  0999 V2000
   21.3206   -9.4589  -13.0358 N   0  0  0  0  0  0  0  0  0  0  0  0
   21.4665   -8.2426  -12.2927 C   0  0  0  0  0  0  0  0  0  0  0  0
   22.6405   -7.8885  -12.0120 O   0  0  0  0  0  0  0  0  0  0  0  0
   20.2476   -7.5059  -11.9169 C   0  0  0  0  0  0  0  0  0  0  0  0
   19.0064   -8.2361  -12.2632 C   0  0  2  0  0  0  0  0  0  0  0  0
   18.8989   -8.5179  -13.6593 N   0  0  0  0  0  0  0  0  0  0  0  0
   17.7738   -7.5470  -11.7590 C   0  0  0  0  0  0  0  0  0  0  0  0
   17.3021   -6.6734  -12.4928 O   0  0  0  0  0  0  0  0  0  0  0  0
   13.4802  -10.5997   -8.4689 N   0  0  0  0  0  0  0  0  0  0  0  0
   13.0275   -9.2707   -8.3145 C   0  0  0  0  0  0  0  0  0  0  0  0
   11.9408   -9.0494   -7.7607 O   0  0  0  0  0  0  0  0  0  0  0  0
   13.8487   -8.1203   -8.8111 C   0  0  0  0  0  0  0  0  0  0  0  0
   15.1990   -8.5343   -9.3078 C   0  0  0  0  0  0  0  0  0  0  0  0
   16.0092   -7.4448   -9.9532 C   0  0  2  0  0  0  0  0  0  0  0  0
   17.2336   -7.9082  -10.5275 N   0  0  0  0  0  0  0  0  0  0  0  0
   16.1069   -6.2400   -9.1402 C   0  0  0  0  0  0  0  0  0  0  0  0
   16.9600   -6.2066   -8.1970 O   0  0  0  0  0  0  0  0  0  0  0  0
   15.3183   -5.0758   -9.3089 N   0  0  0  0  0  0  0  0  0  0  0  0
   15.5076   -3.9164   -8.4204 C   0  0  1  0  0  0  0  0  0  0  0  0
   16.1377   -2.7818   -9.1478 C   0  0  0  0  0  0  0  0  0  0  0  0
   16.2356   -1.6072   -8.2597 C   0  0  0  0  0  0  0  0  0  0  0  0
   15.9200   -1.7230   -7.0250 O   0  0  0  0  0  0  0  0  0  0  0  0
   14.1321   -3.5645   -7.9515 C   0  0  0  0  0  0  0  0  0  0  0  0
   13.1512   -3.9457   -8.6439 O   0  0  0  0  0  0  0  0  0  0  0  0
   16.6469   -0.3416   -8.6366 O   0  0  0  0  0  0  0  0  0  0  0  0
   13.8691   -2.8484   -6.8075 O   0  0  0  0  0  0  0  0  0  0  0  0
  1  2  1  0
  2  3  2  0
  4  2  1  0
  5  4  1  0
  5  6  1  6
  7 15  1  0
  7  5  1  0
  8  7  2  0
  9 10  1  0
 10 12  1  0
 11 10  2  0
 13 12  1  0
 14 13  1  1
 14 15  1  0
 16 14  1  0
 16 17  2  0
 18 16  1  0
 19 18  1  0
 19 20  1  6
 20 21  1  0
 21 25  1  0
 22 21  2  0
 23 19  1  0
 24 23  2  0
 26 23  1  0
M  END
$$$$
