NQD.pdb
     RDKit          3D

 26 25  0  0  1  0  0  0  0  0999 V2000
   15.9146  -14.9940  -13.2071 N   0  0  0  0  0  0  0  0  0  0  0  0
   15.4733  -14.0892  -12.1875 C   0  0  0  0  0  0  0  0  0  0  0  0
   14.9864  -14.6028  -11.1475 O   0  0  0  0  0  0  0  0  0  0  0  0
   15.6200  -12.6436  -12.4286 C   0  0  0  0  0  0  0  0  0  0  0  0
   14.5623  -11.8421  -11.7709 C   0  0  2  0  0  0  0  0  0  0  0  0
   13.2545  -12.1372  -12.2637 N   0  0  0  0  0  0  0  0  0  0  0  0
   14.8369  -10.3692  -11.8284 C   0  0  0  0  0  0  0  0  0  0  0  0
   14.4245   -9.7792  -12.8313 O   0  0  0  0  0  0  0  0  0  0  0  0
   14.4750   -6.5246   -7.0198 N   0  0  0  0  0  0  0  0  0  0  0  0
   15.0631   -5.6901   -7.9959 C   0  0  0  0  0  0  0  0  0  0  0  0
   15.1568   -4.4713   -7.7903 O   0  0  0  0  0  0  0  0  0  0  0  0
   15.5800   -6.2622   -9.2804 C   0  0  0  0  0  0  0  0  0  0  0  0
   15.3866   -7.7432   -9.3831 C   0  0  0  0  0  0  0  0  0  0  0  0
   15.8510   -8.3651  -10.6706 C   0  0  2  0  0  0  0  0  0  0  0  0
   15.5226   -9.7517  -10.7855 N   0  0  0  0  0  0  0  0  0  0  0  0
   17.2178   -8.0065  -11.0243 C   0  0  0  0  0  0  0  0  0  0  0  0
   18.1721   -8.4641  -10.3181 O   0  0  0  0  0  0  0  0  0  0  0  0
   17.5883   -7.1738  -12.1083 N   0  0  0  0  0  0  0  0  0  0  0  0
   19.0104   -6.9576  -12.4254 C   0  0  1  0  0  0  0  0  0  0  0  0
   19.5235   -8.0183  -13.3339 C   0  0  0  0  0  0  0  0  0  0  0  0
   20.9150   -7.7176  -13.7227 C   0  0  0  0  0  0  0  0  0  0  0  0
   21.1508   -7.1985  -14.8684 O   0  0  0  0  0  0  0  0  0  0  0  0
   19.0572   -5.6134  -13.0784 C   0  0  0  0  0  0  0  0  0  0  0  0
   20.1846   -5.1272  -13.3604 O   0  0  0  0  0  0  0  0  0  0  0  0
   22.0379   -7.9492  -12.9491 O   0  0  0  0  0  0  0  0  0  0  0  0
   17.9428   -4.8714  -13.3920 O   0  0  0  0  0  0  0  0  0  0  0  0
  1  2  1  0
  2  3  2  0
  4  2  1  0
  5  4  1  0
  5  6  1  6
  7 15  1  0
  7  5  1  0
  8  7  2  0
  9 10  1  0
 10 12  1  0
 11 10  2  0
 13 12  1  0
 14 13  1  1
 14 15  1  0
 16 14  1  0
 16 17  2  0
 18 16  1  0
 19 18  1  0
 19 20  1  6
 20 21  1  0
 21 25  1  0
 22 21  2  0
 23 19  1  0
 24 23  2  0
 26 23  1  0
M  END
$$$$
