EFH.pdb
     RDKit          3D

 31 32  0  0  1  0  0  0  0  0999 V2000
   10.4432  -16.2779   18.9975 N   0  0  0  0  0  0  0  0  0  0  0  0
    9.2228  -16.6234   19.7469 C   0  0  1  0  0  0  0  0  0  0  0  0
    9.2489  -18.0977   19.9631 C   0  0  0  0  0  0  0  0  0  0  0  0
   10.0459  -18.8090   18.9327 C   0  0  0  0  0  0  0  0  0  0  0  0
    9.9939  -20.2699   19.1055 C   0  0  0  0  0  0  0  0  0  0  0  0
    9.0571  -20.9846   18.6714 O   0  0  0  0  0  0  0  0  0  0  0  0
    9.4039  -15.9771   21.0985 C   0  0  0  0  0  0  0  0  0  0  0  0
   10.5652  -15.9031   21.6163 O   0  0  0  0  0  0  0  0  0  0  0  0
   11.0036  -20.9613   19.7761 O   0  0  0  0  0  0  0  0  0  0  0  0
    8.3231  -15.4338   21.8420 N   0  0  0  0  0  0  0  0  0  0  0  0
    8.5062  -14.7918   23.1366 C   0  0  1  0  0  0  0  0  0  0  0  0
    7.2997  -13.9598   23.3997 C   0  0  0  0  0  0  0  0  0  0  0  0
    7.2181  -13.3905   24.7519 C   0  0  0  0  0  0  0  0  0  0  0  0
    6.4727  -13.9738   25.7469 C   0  0  0  0  0  0  0  0  0  0  0  0
    6.3842  -13.4544   27.0238 C   0  0  0  0  0  0  0  0  0  0  0  0
    7.0763  -12.2894   27.3276 C   0  0  0  0  0  0  0  0  0  0  0  0
    7.8316  -11.6839   26.3479 C   0  0  0  0  0  0  0  0  0  0  0  0
    7.8975  -12.2362   25.0712 C   0  0  0  0  0  0  0  0  0  0  0  0
    8.7604  -15.8456   24.1376 C   0  0  0  0  0  0  0  0  0  0  0  0
    8.1000  -16.9247   24.1451 O   0  0  0  0  0  0  0  0  0  0  0  0
    9.7520  -15.7198   25.1480 N   0  0  0  0  0  0  0  0  0  0  0  0
   10.1286  -16.8977   25.9875 C   0  0  1  0  0  0  0  0  0  0  0  0
   11.3823  -17.4736   25.4412 C   0  0  0  0  0  0  0  0  0  0  0  0
   12.0140  -18.5523   26.2029 C   0  0  0  0  0  0  0  0  0  0  0  0
   13.0005  -18.5806   27.1473 C   0  0  0  0  0  0  0  0  0  0  0  0
   13.1331  -19.8733   27.5468 N   0  0  0  0  0  0  0  0  0  0  0  0
   12.2713  -20.6255   26.8878 C   0  0  0  0  0  0  0  0  0  0  0  0
   11.5854  -19.8337   26.0682 N   0  0  0  0  0  0  0  0  0  0  0  0
   10.3366  -16.3535   27.3823 C   0  0  0  0  0  0  0  0  0  0  0  0
   10.3405  -17.0621   28.5355 O   0  0  0  0  0  0  0  0  0  0  0  0
   10.5292  -15.0904   27.4715 O   0  0  0  0  0  0  0  0  0  0  0  0
  2  1  1  6
  2  3  1  0
  3  4  1  0
  5  4  1  0
  6  5  2  0
  7  2  1  0
  8  7  2  0
  9  5  1  0
 10  7  1  0
 11 12  1  1
 11 10  1  0
 12 13  1  0
 13 18  2  0
 14 15  2  0
 14 13  1  0
 15 16  1  0
 16 17  2  0
 18 17  1  0
 19 11  1  0
 20 19  2  0
 21 19  1  0
 22 21  1  0
 23 24  1  0
 22 23  1  6
 24 25  2  0
 25 26  1  0
 27 26  1  0
 28 24  1  0
 28 27  2  0
 29 22  1  0
 29 30  1  0
 31 29  2  0
M  END
$$$$
