EFH.pdb
     RDKit          3D

 31 32  0  0  1  0  0  0  0  0999 V2000
    9.9878  -16.7058   19.2340 N   0  0  0  0  0  0  0  0  0  0  0  0
    8.7999  -16.9353   20.0746 C   0  0  1  0  0  0  0  0  0  0  0  0
    8.7907  -18.3833   20.4271 C   0  0  0  0  0  0  0  0  0  0  0  0
    8.9193  -19.2589   19.2356 C   0  0  0  0  0  0  0  0  0  0  0  0
    7.6084  -19.6226   18.6736 C   0  0  0  0  0  0  0  0  0  0  0  0
    6.5609  -19.7073   19.3608 O   0  0  0  0  0  0  0  0  0  0  0  0
    9.0755  -16.1740   21.3481 C   0  0  0  0  0  0  0  0  0  0  0  0
   10.2551  -16.1445   21.8276 O   0  0  0  0  0  0  0  0  0  0  0  0
    7.4490  -19.9005   17.3154 O   0  0  0  0  0  0  0  0  0  0  0  0
    8.0659  -15.4718   22.0579 N   0  0  0  0  0  0  0  0  0  0  0  0
    8.3272  -14.7779   23.3117 C   0  0  1  0  0  0  0  0  0  0  0  0
    7.1759  -13.8697   23.5704 C   0  0  0  0  0  0  0  0  0  0  0  0
    7.1714  -13.2307   24.8936 C   0  0  0  0  0  0  0  0  0  0  0  0
    7.9931  -12.1732   25.1974 C   0  0  0  0  0  0  0  0  0  0  0  0
    8.0029  -11.5589   26.4346 C   0  0  0  0  0  0  0  0  0  0  0  0
    7.1471  -12.0230   27.4249 C   0  0  0  0  0  0  0  0  0  0  0  0
    6.3124  -13.0825   27.1467 C   0  0  0  0  0  0  0  0  0  0  0  0
    6.3297  -13.6774   25.8876 C   0  0  0  0  0  0  0  0  0  0  0  0
    8.5600  -15.7934   24.3565 C   0  0  0  0  0  0  0  0  0  0  0  0
    7.7458  -16.7421   24.5507 O   0  0  0  0  0  0  0  0  0  0  0  0
    9.7007  -15.7735   25.2040 N   0  0  0  0  0  0  0  0  0  0  0  0
    9.9936  -16.9307   26.1037 C   0  0  1  0  0  0  0  0  0  0  0  0
   11.2656  -17.5521   25.6593 C   0  0  0  0  0  0  0  0  0  0  0  0
   11.8362  -18.5973   26.5106 C   0  0  0  0  0  0  0  0  0  0  0  0
   11.4183  -19.2010   27.6624 C   0  0  0  0  0  0  0  0  0  0  0  0
   12.3397  -20.1516   27.9715 N   0  0  0  0  0  0  0  0  0  0  0  0
   13.2933  -20.1498   27.0585 C   0  0  0  0  0  0  0  0  0  0  0  0
   12.9981  -19.2095   26.1652 N   0  0  0  0  0  0  0  0  0  0  0  0
   10.1239  -16.3448   27.4910 C   0  0  0  0  0  0  0  0  0  0  0  0
    9.8999  -16.9828   28.6635 O   0  0  0  0  0  0  0  0  0  0  0  0
   10.4852  -15.1175   27.5528 O   0  0  0  0  0  0  0  0  0  0  0  0
  2  1  1  6
  2  3  1  0
  3  4  1  0
  5  4  1  0
  6  5  2  0
  7  2  1  0
  8  7  2  0
  9  5  1  0
 10  7  1  0
 11 12  1  1
 11 10  1  0
 12 13  1  0
 13 18  2  0
 14 15  2  0
 14 13  1  0
 15 16  1  0
 16 17  2  0
 18 17  1  0
 19 11  1  0
 20 19  2  0
 21 19  1  0
 22 21  1  0
 23 24  1  0
 22 23  1  6
 24 25  2  0
 25 26  1  0
 27 26  1  0
 28 24  1  0
 28 27  2  0
 29 22  1  0
 29 30  1  0
 31 29  2  0
M  END
$$$$
