EFH.pdb
     RDKit          3D

 31 32  0  0  1  0  0  0  0  0999 V2000
   10.5511  -16.0546   19.2266 N   0  0  0  0  0  0  0  0  0  0  0  0
    9.4520  -16.6297   20.0214 C   0  0  1  0  0  0  0  0  0  0  0  0
    9.7745  -18.0696   20.2300 C   0  0  0  0  0  0  0  0  0  0  0  0
    8.7795  -18.7557   21.0916 C   0  0  0  0  0  0  0  0  0  0  0  0
    9.0586  -20.1953   21.2188 C   0  0  0  0  0  0  0  0  0  0  0  0
    9.9831  -20.7777   20.6000 O   0  0  0  0  0  0  0  0  0  0  0  0
    9.5558  -15.9559   21.3677 C   0  0  0  0  0  0  0  0  0  0  0  0
   10.6965  -15.7961   21.9114 O   0  0  0  0  0  0  0  0  0  0  0  0
    8.2964  -21.0151   22.0521 O   0  0  0  0  0  0  0  0  0  0  0  0
    8.4228  -15.4789   22.0782 N   0  0  0  0  0  0  0  0  0  0  0  0
    8.5308  -14.8037   23.3643 C   0  0  1  0  0  0  0  0  0  0  0  0
    7.2879  -14.0071   23.5589 C   0  0  0  0  0  0  0  0  0  0  0  0
    7.1432  -13.3920   24.8855 C   0  0  0  0  0  0  0  0  0  0  0  0
    6.3134  -13.9146   25.8469 C   0  0  0  0  0  0  0  0  0  0  0  0
    6.1646  -13.3517   27.0995 C   0  0  0  0  0  0  0  0  0  0  0  0
    6.8817  -12.2045   27.4130 C   0  0  0  0  0  0  0  0  0  0  0  0
    7.7213  -11.6597   26.4669 C   0  0  0  0  0  0  0  0  0  0  0  0
    7.8463  -12.2546   25.2140 C   0  0  0  0  0  0  0  0  0  0  0  0
    8.7772  -15.8267   24.3987 C   0  0  0  0  0  0  0  0  0  0  0  0
    8.0047  -16.8177   24.5468 O   0  0  0  0  0  0  0  0  0  0  0  0
    9.8852  -15.7675   25.2867 N   0  0  0  0  0  0  0  0  0  0  0  0
   10.0679  -16.8147   26.3375 C   0  0  1  0  0  0  0  0  0  0  0  0
   11.4093  -17.4227   26.1568 C   0  0  0  0  0  0  0  0  0  0  0  0
   11.6369  -18.1975   24.9358 C   0  0  0  0  0  0  0  0  0  0  0  0
   10.8562  -18.4968   23.8556 C   0  0  0  0  0  0  0  0  0  0  0  0
   11.6260  -19.2122   22.9931 N   0  0  0  0  0  0  0  0  0  0  0  0
   12.8352  -19.3570   23.5029 C   0  0  0  0  0  0  0  0  0  0  0  0
   12.8540  -18.7443   24.6834 N   0  0  0  0  0  0  0  0  0  0  0  0
    9.9683  -16.0872   27.6588 C   0  0  0  0  0  0  0  0  0  0  0  0
    9.7813  -14.7589   27.8394 O   0  0  0  0  0  0  0  0  0  0  0  0
   10.0716  -16.8115   28.7101 O   0  0  0  0  0  0  0  0  0  0  0  0
  2  1  1  6
  2  3  1  0
  3  4  1  0
  5  4  1  0
  6  5  2  0
  7  2  1  0
  8  7  2  0
  9  5  1  0
 10  7  1  0
 11 12  1  1
 11 10  1  0
 12 13  1  0
 13 18  2  0
 14 15  2  0
 14 13  1  0
 15 16  1  0
 16 17  2  0
 18 17  1  0
 19 11  1  0
 20 19  2  0
 21 19  1  0
 22 21  1  0
 23 24  1  0
 22 23  1  6
 24 25  2  0
 25 26  1  0
 27 26  1  0
 28 24  1  0
 28 27  2  0
 29 22  1  0
 29 30  1  0
 31 29  2  0
M  END
$$$$
