EFH.pdb
     RDKit          3D

 31 32  0  0  1  0  0  0  0  0999 V2000
    8.4239  -18.0576   20.6741 N   0  0  0  0  0  0  0  0  0  0  0  0
    9.2888  -16.9772   20.1690 C   0  0  1  0  0  0  0  0  0  0  0  0
    8.5956  -16.3805   18.9924 C   0  0  0  0  0  0  0  0  0  0  0  0
    9.4896  -15.5120   18.1865 C   0  0  0  0  0  0  0  0  0  0  0  0
    9.7369  -16.0669   16.8458 C   0  0  0  0  0  0  0  0  0  0  0  0
   10.8243  -16.5946   16.5056 O   0  0  0  0  0  0  0  0  0  0  0  0
    9.2808  -15.9345   21.2599 C   0  0  0  0  0  0  0  0  0  0  0  0
   10.0897  -14.9521   21.2052 O   0  0  0  0  0  0  0  0  0  0  0  0
    8.7569  -16.0387   15.8527 O   0  0  0  0  0  0  0  0  0  0  0  0
    8.3987  -15.9910   22.3710 N   0  0  0  0  0  0  0  0  0  0  0  0
    8.4437  -15.0226   23.4582 C   0  0  1  0  0  0  0  0  0  0  0  0
    7.0559  -14.5297   23.6780 C   0  0  0  0  0  0  0  0  0  0  0  0
    6.8961  -13.5999   24.8045 C   0  0  0  0  0  0  0  0  0  0  0  0
    6.2328  -13.9519   25.9544 C   0  0  0  0  0  0  0  0  0  0  0  0
    6.0729  -13.0927   27.0240 C   0  0  0  0  0  0  0  0  0  0  0  0
    6.6027  -11.8114   26.9451 C   0  0  0  0  0  0  0  0  0  0  0  0
    7.2727  -11.4326   25.8030 C   0  0  0  0  0  0  0  0  0  0  0  0
    7.4146  -12.3258   24.7440 C   0  0  0  0  0  0  0  0  0  0  0  0
    9.0596  -15.6771   24.6284 C   0  0  0  0  0  0  0  0  0  0  0  0
    9.0841  -15.1178   25.7629 O   0  0  0  0  0  0  0  0  0  0  0  0
    9.6591  -16.9639   24.5596 N   0  0  0  0  0  0  0  0  0  0  0  0
   10.2676  -17.5798   25.7781 C   0  0  1  0  0  0  0  0  0  0  0  0
    9.7741  -18.9749   25.8871 C   0  0  0  0  0  0  0  0  0  0  0  0
    8.3244  -19.1736   25.9290 C   0  0  0  0  0  0  0  0  0  0  0  0
    7.2863  -18.4128   26.3865 C   0  0  0  0  0  0  0  0  0  0  0  0
    6.1416  -19.0911   26.1074 N   0  0  0  0  0  0  0  0  0  0  0  0
    6.4416  -20.2251   25.5016 C   0  0  0  0  0  0  0  0  0  0  0  0
    7.7654  -20.2863   25.3874 N   0  0  0  0  0  0  0  0  0  0  0  0
   11.7614  -17.5419   25.5504 C   0  0  0  0  0  0  0  0  0  0  0  0
   12.7237  -17.9086   26.4287 O   0  0  0  0  0  0  0  0  0  0  0  0
   12.1463  -17.1185   24.4044 O   0  0  0  0  0  0  0  0  0  0  0  0
  2  1  1  1
  2  3  1  0
  3  4  1  0
  5  4  1  0
  6  5  2  0
  7  2  1  0
  8  7  2  0
  9  5  1  0
 10  7  1  0
 11 12  1  1
 11 10  1  0
 12 13  1  0
 13 18  2  0
 14 15  2  0
 14 13  1  0
 15 16  1  0
 16 17  2  0
 18 17  1  0
 19 11  1  0
 20 19  2  0
 21 19  1  0
 22 21  1  0
 23 24  1  0
 22 23  1  6
 24 25  2  0
 25 26  1  0
 27 26  1  0
 28 24  1  0
 28 27  2  0
 29 22  1  0
 29 30  1  0
 31 29  2  0
M  END
$$$$
