EFH.pdb
     RDKit          3D

 31 32  0  0  1  0  0  0  0  0999 V2000
   10.9716  -16.5249   19.7476 N   0  0  0  0  0  0  0  0  0  0  0  0
    9.7879  -16.9706   20.5032 C   0  0  1  0  0  0  0  0  0  0  0  0
   10.0248  -18.3924   20.8819 C   0  0  0  0  0  0  0  0  0  0  0  0
    9.9324  -19.3125   19.7209 C   0  0  0  0  0  0  0  0  0  0  0  0
   10.0967  -20.7204   20.1177 C   0  0  0  0  0  0  0  0  0  0  0  0
   11.1885  -21.2078   20.5012 O   0  0  0  0  0  0  0  0  0  0  0  0
    9.8184  -16.1645   21.7787 C   0  0  0  0  0  0  0  0  0  0  0  0
   10.9327  -15.8989   22.3355 O   0  0  0  0  0  0  0  0  0  0  0  0
    9.0263  -21.6153   20.0906 O   0  0  0  0  0  0  0  0  0  0  0  0
    8.6430  -15.6744   22.4067 N   0  0  0  0  0  0  0  0  0  0  0  0
    8.6777  -14.8982   23.6387 C   0  0  1  0  0  0  0  0  0  0  0  0
    7.4243  -14.0965   23.6996 C   0  0  0  0  0  0  0  0  0  0  0  0
    7.2360  -13.3275   24.9375 C   0  0  0  0  0  0  0  0  0  0  0  0
    7.9382  -12.1761   25.1967 C   0  0  0  0  0  0  0  0  0  0  0  0
    7.7747  -11.4392   26.3535 C   0  0  0  0  0  0  0  0  0  0  0  0
    6.8613  -11.8724   27.3058 C   0  0  0  0  0  0  0  0  0  0  0  0
    6.1438  -13.0243   27.0708 C   0  0  0  0  0  0  0  0  0  0  0  0
    6.3350  -13.7418   25.8927 C   0  0  0  0  0  0  0  0  0  0  0  0
    8.8677  -15.8340   24.7636 C   0  0  0  0  0  0  0  0  0  0  0  0
    8.0921  -16.8168   24.9453 O   0  0  0  0  0  0  0  0  0  0  0  0
    9.9221  -15.6950   25.7064 N   0  0  0  0  0  0  0  0  0  0  0  0
   10.1358  -16.7343   26.7592 C   0  0  1  0  0  0  0  0  0  0  0  0
   11.4921  -17.3075   26.5752 C   0  0  0  0  0  0  0  0  0  0  0  0
   11.6771  -18.2562   25.4758 C   0  0  0  0  0  0  0  0  0  0  0  0
   10.8108  -18.9532   24.6824 C   0  0  0  0  0  0  0  0  0  0  0  0
   11.5610  -19.6438   23.7833 N   0  0  0  0  0  0  0  0  0  0  0  0
   12.8397  -19.3944   23.9971 C   0  0  0  0  0  0  0  0  0  0  0  0
   12.9227  -18.5521   25.0233 N   0  0  0  0  0  0  0  0  0  0  0  0
   10.0218  -16.0062   28.0789 C   0  0  0  0  0  0  0  0  0  0  0  0
    9.9517  -16.5662   29.3091 O   0  0  0  0  0  0  0  0  0  0  0  0
    9.9902  -14.7273   28.0160 O   0  0  0  0  0  0  0  0  0  0  0  0
  2  1  1  6
  2  3  1  0
  3  4  1  0
  5  4  1  0
  6  5  2  0
  7  2  1  0
  8  7  2  0
  9  5  1  0
 10  7  1  0
 11 12  1  1
 11 10  1  0
 12 13  1  0
 13 18  2  0
 14 15  2  0
 14 13  1  0
 15 16  1  0
 16 17  2  0
 18 17  1  0
 19 11  1  0
 20 19  2  0
 21 19  1  0
 22 21  1  0
 23 24  1  0
 22 23  1  6
 24 25  2  0
 25 26  1  0
 27 26  1  0
 28 24  1  0
 28 27  2  0
 29 22  1  0
 29 30  1  0
 31 29  2  0
M  END
$$$$
