EFH.pdb
     RDKit          3D

 31 32  0  0  1  0  0  0  0  0999 V2000
   10.6476  -16.5746   19.8326 N   0  0  0  0  0  0  0  0  0  0  0  0
    9.5216  -17.0047   20.6797 C   0  0  1  0  0  0  0  0  0  0  0  0
    9.8240  -18.3921   21.1323 C   0  0  0  0  0  0  0  0  0  0  0  0
   10.1844  -19.2908   20.0074 C   0  0  0  0  0  0  0  0  0  0  0  0
   10.3702  -20.6822   20.4501 C   0  0  0  0  0  0  0  0  0  0  0  0
   10.3174  -21.0380   21.6531 O   0  0  0  0  0  0  0  0  0  0  0  0
    9.5952  -16.1182   21.8988 C   0  0  0  0  0  0  0  0  0  0  0  0
   10.7196  -15.6597   22.2834 O   0  0  0  0  0  0  0  0  0  0  0  0
   10.6214  -21.7097   19.5398 O   0  0  0  0  0  0  0  0  0  0  0  0
    8.4508  -15.7592   22.6586 N   0  0  0  0  0  0  0  0  0  0  0  0
    8.5137  -14.8330   23.7811 C   0  0  1  0  0  0  0  0  0  0  0  0
    7.2640  -14.0234   23.7655 C   0  0  0  0  0  0  0  0  0  0  0  0
    7.1000  -13.1086   24.9037 C   0  0  0  0  0  0  0  0  0  0  0  0
    6.1768  -13.3337   25.8951 C   0  0  0  0  0  0  0  0  0  0  0  0
    6.0083  -12.4864   26.9730 C   0  0  0  0  0  0  0  0  0  0  0  0
    6.8028  -11.3515   27.0696 C   0  0  0  0  0  0  0  0  0  0  0  0
    7.7368  -11.1020   26.0886 C   0  0  0  0  0  0  0  0  0  0  0  0
    7.8789  -11.9788   25.0160 C   0  0  0  0  0  0  0  0  0  0  0  0
    8.7251  -15.6193   25.0115 C   0  0  0  0  0  0  0  0  0  0  0  0
    9.1115  -15.0754   26.0865 O   0  0  0  0  0  0  0  0  0  0  0  0
    8.5115  -17.0231   25.0702 N   0  0  0  0  0  0  0  0  0  0  0  0
    8.9436  -17.8034   26.2697 C   0  0  1  0  0  0  0  0  0  0  0  0
    8.9872  -19.2390   25.8969 C   0  0  0  0  0  0  0  0  0  0  0  0
    7.9208  -19.7403   25.0283 C   0  0  0  0  0  0  0  0  0  0  0  0
    6.8147  -19.1631   24.4723 C   0  0  0  0  0  0  0  0  0  0  0  0
    6.2154  -20.1097   23.7021 N   0  0  0  0  0  0  0  0  0  0  0  0
    6.9098  -21.2306   23.7672 C   0  0  0  0  0  0  0  0  0  0  0  0
    7.9488  -21.0183   24.5701 N   0  0  0  0  0  0  0  0  0  0  0  0
   10.3199  -17.2847   26.6186 C   0  0  0  0  0  0  0  0  0  0  0  0
   11.4938  -17.6670   26.0638 O   0  0  0  0  0  0  0  0  0  0  0  0
   10.3696  -16.3905   27.5342 O   0  0  0  0  0  0  0  0  0  0  0  0
  2  1  1  6
  2  3  1  0
  3  4  1  0
  5  4  1  0
  6  5  2  0
  7  2  1  0
  8  7  2  0
  9  5  1  0
 10  7  1  0
 11 12  1  1
 11 10  1  0
 12 13  1  0
 13 18  2  0
 14 15  2  0
 14 13  1  0
 15 16  1  0
 16 17  2  0
 18 17  1  0
 19 11  1  0
 20 19  2  0
 21 19  1  0
 22 21  1  0
 23 24  1  0
 22 23  1  6
 24 25  2  0
 25 26  1  0
 27 26  1  0
 28 24  1  0
 28 27  2  0
 29 22  1  0
 29 30  1  0
 31 29  2  0
M  END
$$$$
