EFH.pdb
     RDKit          3D

 31 32  0  0  1  0  0  0  0  0999 V2000
    8.3070  -14.6917   20.5879 N   0  0  0  0  0  0  0  0  0  0  0  0
    8.1594  -15.8207   21.5228 C   0  0  1  0  0  0  0  0  0  0  0  0
    9.0276  -16.9206   21.0155 C   0  0  0  0  0  0  0  0  0  0  0  0
    8.5183  -17.5097   19.7520 C   0  0  0  0  0  0  0  0  0  0  0  0
    9.3384  -18.6465   19.3028 C   0  0  0  0  0  0  0  0  0  0  0  0
    9.2721  -19.7916   19.8138 O   0  0  0  0  0  0  0  0  0  0  0  0
    8.7726  -15.3356   22.8135 C   0  0  0  0  0  0  0  0  0  0  0  0
    9.6992  -14.4621   22.7873 O   0  0  0  0  0  0  0  0  0  0  0  0
   10.2573  -18.5161   18.2607 O   0  0  0  0  0  0  0  0  0  0  0  0
    8.3622  -15.8122   24.0865 N   0  0  0  0  0  0  0  0  0  0  0  0
    8.9257  -15.3082   25.3315 C   0  0  1  0  0  0  0  0  0  0  0  0
    7.7906  -14.9150   26.2114 C   0  0  0  0  0  0  0  0  0  0  0  0
    7.3036  -13.5414   26.0238 C   0  0  0  0  0  0  0  0  0  0  0  0
    8.0270  -12.4474   26.4312 C   0  0  0  0  0  0  0  0  0  0  0  0
    7.5867  -11.1489   26.2630 C   0  0  0  0  0  0  0  0  0  0  0  0
    6.3578  -10.9266   25.6556 C   0  0  0  0  0  0  0  0  0  0  0  0
    5.6120  -12.0063   25.2376 C   0  0  0  0  0  0  0  0  0  0  0  0
    6.0877  -13.3019   25.4236 C   0  0  0  0  0  0  0  0  0  0  0  0
    9.8075  -16.3512   25.8897 C   0  0  0  0  0  0  0  0  0  0  0  0
   10.3081  -16.2452   27.0467 O   0  0  0  0  0  0  0  0  0  0  0  0
   10.1489  -17.5302   25.1732 N   0  0  0  0  0  0  0  0  0  0  0  0
   11.0121  -18.5745   25.8046 C   0  0  1  0  0  0  0  0  0  0  0  0
   10.3269  -19.8839   25.6713 C   0  0  0  0  0  0  0  0  0  0  0  0
    9.1140  -20.0913   26.4642 C   0  0  0  0  0  0  0  0  0  0  0  0
    8.5114  -19.3777   27.4609 C   0  0  0  0  0  0  0  0  0  0  0  0
    7.3653  -20.0336   27.7842 N   0  0  0  0  0  0  0  0  0  0  0  0
    7.2484  -21.1091   27.0275 C   0  0  0  0  0  0  0  0  0  0  0  0
    8.3052  -21.1547   26.2210 N   0  0  0  0  0  0  0  0  0  0  0  0
   12.3100  -18.5525   25.0300 C   0  0  0  0  0  0  0  0  0  0  0  0
   13.4596  -19.1868   25.3585 O   0  0  0  0  0  0  0  0  0  0  0  0
   12.3115  -17.8602   23.9524 O   0  0  0  0  0  0  0  0  0  0  0  0
  2  1  1  6
  2  3  1  0
  3  4  1  0
  5  4  1  0
  6  5  2  0
  7  2  1  0
  8  7  2  0
  9  5  1  0
 10  7  1  0
 11 12  1  1
 11 10  1  0
 12 13  1  0
 13 18  2  0
 14 15  2  0
 14 13  1  0
 15 16  1  0
 16 17  2  0
 18 17  1  0
 19 11  1  0
 20 19  2  0
 21 19  1  0
 22 21  1  0
 23 24  1  0
 22 23  1  6
 24 25  2  0
 25 26  1  0
 27 26  1  0
 28 24  1  0
 28 27  2  0
 29 22  1  0
 29 30  1  0
 31 29  2  0
M  END
$$$$
