EFH.pdb
     RDKit          3D

 31 32  0  0  1  0  0  0  0  0999 V2000
   10.7016  -16.4202   19.3148 N   0  0  0  0  0  0  0  0  0  0  0  0
    9.4010  -16.7277   19.9348 C   0  0  1  0  0  0  0  0  0  0  0  0
    9.3667  -18.1999   20.1639 C   0  0  0  0  0  0  0  0  0  0  0  0
    8.0471  -18.6675   20.6570 C   0  0  0  0  0  0  0  0  0  0  0  0
    7.0955  -18.8942   19.5572 C   0  0  0  0  0  0  0  0  0  0  0  0
    7.2098  -19.8279   18.7253 O   0  0  0  0  0  0  0  0  0  0  0  0
    9.4563  -16.0721   21.2929 C   0  0  0  0  0  0  0  0  0  0  0  0
   10.4901  -16.2117   22.0237 O   0  0  0  0  0  0  0  0  0  0  0  0
    5.9868  -18.0676   19.3701 O   0  0  0  0  0  0  0  0  0  0  0  0
    8.3920  -15.2890   21.8125 N   0  0  0  0  0  0  0  0  0  0  0  0
    8.4321  -14.6946   23.1417 C   0  0  1  0  0  0  0  0  0  0  0  0
    7.2847  -13.7514   23.2465 C   0  0  0  0  0  0  0  0  0  0  0  0
    7.0882  -13.1542   24.5746 C   0  0  0  0  0  0  0  0  0  0  0  0
    7.7701  -12.0332   24.9801 C   0  0  0  0  0  0  0  0  0  0  0  0
    7.5987  -11.4567   26.2236 C   0  0  0  0  0  0  0  0  0  0  0  0
    6.6983  -12.0277   27.1135 C   0  0  0  0  0  0  0  0  0  0  0  0
    6.0012  -13.1526   26.7320 C   0  0  0  0  0  0  0  0  0  0  0  0
    6.1998  -13.7066   25.4698 C   0  0  0  0  0  0  0  0  0  0  0  0
    8.4252  -15.7884   24.1321 C   0  0  0  0  0  0  0  0  0  0  0  0
    7.6310  -16.7680   24.0308 O   0  0  0  0  0  0  0  0  0  0  0  0
    9.2995  -15.8137   25.2522 N   0  0  0  0  0  0  0  0  0  0  0  0
    9.5086  -17.0797   26.0187 C   0  0  1  0  0  0  0  0  0  0  0  0
   10.3062  -18.0047   25.1761 C   0  0  0  0  0  0  0  0  0  0  0  0
   10.6787  -19.2940   25.7607 C   0  0  0  0  0  0  0  0  0  0  0  0
   10.6533  -20.5777   25.2946 C   0  0  0  0  0  0  0  0  0  0  0  0
   11.1780  -21.3665   26.2697 N   0  0  0  0  0  0  0  0  0  0  0  0
   11.5197  -20.6175   27.3017 C   0  0  0  0  0  0  0  0  0  0  0  0
   11.2212  -19.3559   27.0040 N   0  0  0  0  0  0  0  0  0  0  0  0
   10.2661  -16.6807   27.2646 C   0  0  0  0  0  0  0  0  0  0  0  0
   10.5653  -17.4747   28.3191 O   0  0  0  0  0  0  0  0  0  0  0  0
   10.6623  -15.4639   27.3178 O   0  0  0  0  0  0  0  0  0  0  0  0
  2  1  1  6
  2  3  1  0
  3  4  1  0
  5  4  1  0
  6  5  2  0
  7  2  1  0
  8  7  2  0
  9  5  1  0
 10  7  1  0
 11 12  1  1
 11 10  1  0
 12 13  1  0
 13 18  2  0
 14 15  2  0
 14 13  1  0
 15 16  1  0
 16 17  2  0
 18 17  1  0
 19 11  1  0
 20 19  2  0
 21 19  1  0
 22 21  1  0
 23 24  1  0
 22 23  1  6
 24 25  2  0
 25 26  1  0
 27 26  1  0
 28 24  1  0
 28 27  2  0
 29 22  1  0
 29 30  1  0
 31 29  2  0
M  END
$$$$
