EFH.pdb
     RDKit          3D

 31 32  0  0  1  0  0  0  0  0999 V2000
   10.5495  -16.6271   19.5556 N   0  0  0  0  0  0  0  0  0  0  0  0
    9.2698  -16.8768   20.2414 C   0  0  1  0  0  0  0  0  0  0  0  0
    9.1987  -18.3413   20.5081 C   0  0  0  0  0  0  0  0  0  0  0  0
    9.3028  -19.1503   19.2681 C   0  0  0  0  0  0  0  0  0  0  0  0
    9.0867  -20.5836   19.5242 C   0  0  0  0  0  0  0  0  0  0  0  0
    9.4649  -21.4904   18.7423 O   0  0  0  0  0  0  0  0  0  0  0  0
    9.4088  -16.1920   21.5791 C   0  0  0  0  0  0  0  0  0  0  0  0
   10.4880  -16.3124   22.2448 O   0  0  0  0  0  0  0  0  0  0  0  0
    8.4352  -21.0286   20.6752 O   0  0  0  0  0  0  0  0  0  0  0  0
    8.3762  -15.4017   22.1493 N   0  0  0  0  0  0  0  0  0  0  0  0
    8.5086  -14.7577   23.4490 C   0  0  1  0  0  0  0  0  0  0  0  0
    7.4045  -13.7663   23.5733 C   0  0  0  0  0  0  0  0  0  0  0  0
    7.2962  -13.1156   24.8863 C   0  0  0  0  0  0  0  0  0  0  0  0
    8.1847  -12.1542   25.3012 C   0  0  0  0  0  0  0  0  0  0  0  0
    8.0990  -11.5306   26.5308 C   0  0  0  0  0  0  0  0  0  0  0  0
    7.0718  -11.8837   27.3961 C   0  0  0  0  0  0  0  0  0  0  0  0
    6.1669  -12.8454   27.0048 C   0  0  0  0  0  0  0  0  0  0  0  0
    6.2844  -13.4529   25.7572 C   0  0  0  0  0  0  0  0  0  0  0  0
    8.5129  -15.8105   24.4828 C   0  0  0  0  0  0  0  0  0  0  0  0
    7.6476  -16.7334   24.4912 O   0  0  0  0  0  0  0  0  0  0  0  0
    9.4776  -15.8571   25.5253 N   0  0  0  0  0  0  0  0  0  0  0  0
    9.5480  -17.0394   26.4371 C   0  0  1  0  0  0  0  0  0  0  0  0
   10.3976  -18.0711   25.7926 C   0  0  0  0  0  0  0  0  0  0  0  0
   10.8026  -19.2152   26.6110 C   0  0  0  0  0  0  0  0  0  0  0  0
   11.6181  -19.3488   27.6986 C   0  0  0  0  0  0  0  0  0  0  0  0
   11.5720  -20.6547   28.0737 N   0  0  0  0  0  0  0  0  0  0  0  0
   10.7653  -21.3145   27.2632 C   0  0  0  0  0  0  0  0  0  0  0  0
   10.2915  -20.4501   26.3702 N   0  0  0  0  0  0  0  0  0  0  0  0
   10.1756  -16.5311   27.7149 C   0  0  0  0  0  0  0  0  0  0  0  0
   10.2893  -17.2033   28.8842 O   0  0  0  0  0  0  0  0  0  0  0  0
   10.6463  -15.3405   27.6768 O   0  0  0  0  0  0  0  0  0  0  0  0
  2  1  1  6
  2  3  1  0
  3  4  1  0
  5  4  1  0
  6  5  2  0
  7  2  1  0
  8  7  2  0
  9  5  1  0
 10  7  1  0
 11 12  1  1
 11 10  1  0
 12 13  1  0
 13 18  2  0
 14 15  2  0
 14 13  1  0
 15 16  1  0
 16 17  2  0
 18 17  1  0
 19 11  1  0
 20 19  2  0
 21 19  1  0
 22 21  1  0
 23 24  1  0
 22 23  1  6
 24 25  2  0
 25 26  1  0
 27 26  1  0
 28 24  1  0
 28 27  2  0
 29 22  1  0
 29 30  1  0
 31 29  2  0
M  END
$$$$
