EFH.pdb
     RDKit          3D

 31 32  0  0  1  0  0  0  0  0999 V2000
   10.0315  -16.0801   18.8710 N   0  0  0  0  0  0  0  0  0  0  0  0
    9.0069  -16.5890   19.7994 C   0  0  1  0  0  0  0  0  0  0  0  0
    9.3327  -18.0190   20.0637 C   0  0  0  0  0  0  0  0  0  0  0  0
    9.0725  -18.8876   18.8887 C   0  0  0  0  0  0  0  0  0  0  0  0
    9.4314  -20.2911   19.1492 C   0  0  0  0  0  0  0  0  0  0  0  0
    9.2769  -21.2117   18.3093 O   0  0  0  0  0  0  0  0  0  0  0  0
    9.2455  -15.8381   21.0865 C   0  0  0  0  0  0  0  0  0  0  0  0
   10.4361  -15.6101   21.4773 O   0  0  0  0  0  0  0  0  0  0  0  0
    9.9759  -20.6899   20.3706 O   0  0  0  0  0  0  0  0  0  0  0  0
    8.1883  -15.3604   21.9052 N   0  0  0  0  0  0  0  0  0  0  0  0
    8.4183  -14.7636   23.2138 C   0  0  1  0  0  0  0  0  0  0  0  0
    7.2359  -13.9173   23.5353 C   0  0  0  0  0  0  0  0  0  0  0  0
    7.2369  -13.3314   24.8827 C   0  0  0  0  0  0  0  0  0  0  0  0
    6.5257  -13.8828   25.9201 C   0  0  0  0  0  0  0  0  0  0  0  0
    6.5146  -13.3474   27.1934 C   0  0  0  0  0  0  0  0  0  0  0  0
    7.2526  -12.1990   27.4488 C   0  0  0  0  0  0  0  0  0  0  0  0
    7.9750  -11.6255   26.4260 C   0  0  0  0  0  0  0  0  0  0  0  0
    7.9626  -12.1932   25.1544 C   0  0  0  0  0  0  0  0  0  0  0  0
    8.6775  -15.8533   24.1743 C   0  0  0  0  0  0  0  0  0  0  0  0
    7.8775  -16.8246   24.3051 O   0  0  0  0  0  0  0  0  0  0  0  0
    9.8293  -15.8837   25.0063 N   0  0  0  0  0  0  0  0  0  0  0  0
   10.0432  -17.0154   25.9591 C   0  0  1  0  0  0  0  0  0  0  0  0
   11.4134  -17.5445   25.7491 C   0  0  0  0  0  0  0  0  0  0  0  0
   11.6495  -18.3387   24.5423 C   0  0  0  0  0  0  0  0  0  0  0  0
   10.8294  -18.8252   23.5643 C   0  0  0  0  0  0  0  0  0  0  0  0
   11.6220  -19.4499   22.6534 N   0  0  0  0  0  0  0  0  0  0  0  0
   12.8824  -19.3615   23.0365 C   0  0  0  0  0  0  0  0  0  0  0  0
   12.9116  -18.6880   24.1832 N   0  0  0  0  0  0  0  0  0  0  0  0
    9.8902  -16.4194   27.3398 C   0  0  0  0  0  0  0  0  0  0  0  0
    9.8835  -17.0907   28.5151 O   0  0  0  0  0  0  0  0  0  0  0  0
    9.7546  -15.1469   27.3924 O   0  0  0  0  0  0  0  0  0  0  0  0
  2  1  1  6
  2  3  1  0
  3  4  1  0
  5  4  1  0
  6  5  2  0
  7  2  1  0
  8  7  2  0
  9  5  1  0
 10  7  1  0
 11 12  1  1
 11 10  1  0
 12 13  1  0
 13 18  2  0
 14 15  2  0
 14 13  1  0
 15 16  1  0
 16 17  2  0
 18 17  1  0
 19 11  1  0
 20 19  2  0
 21 19  1  0
 22 21  1  0
 23 24  1  0
 22 23  1  1
 24 25  2  0
 25 26  1  0
 27 26  1  0
 28 24  1  0
 28 27  2  0
 29 22  1  0
 29 30  1  0
 31 29  2  0
M  END
$$$$
