EFH.pdb
     RDKit          3D

 31 32  0  0  1  0  0  0  0  0999 V2000
   10.4228  -16.7430   19.3658 N   0  0  0  0  0  0  0  0  0  0  0  0
    9.0586  -16.6720   19.9175 C   0  0  1  0  0  0  0  0  0  0  0  0
    8.5794  -18.0747   20.0720 C   0  0  0  0  0  0  0  0  0  0  0  0
    9.6885  -19.0605   20.0425 C   0  0  0  0  0  0  0  0  0  0  0  0
    9.2021  -20.4431   20.1788 C   0  0  0  0  0  0  0  0  0  0  0  0
    8.4035  -20.9779   19.3708 O   0  0  0  0  0  0  0  0  0  0  0  0
    9.2333  -16.1111   21.3076 C   0  0  0  0  0  0  0  0  0  0  0  0
   10.3851  -16.1091   21.8513 O   0  0  0  0  0  0  0  0  0  0  0  0
    9.6082  -21.2582   21.2362 O   0  0  0  0  0  0  0  0  0  0  0  0
    8.1566  -15.5723   22.0602 N   0  0  0  0  0  0  0  0  0  0  0  0
    8.3544  -14.8764   23.3244 C   0  0  1  0  0  0  0  0  0  0  0  0
    7.1568  -14.0233   23.5595 C   0  0  0  0  0  0  0  0  0  0  0  0
    7.1298  -13.3304   24.8549 C   0  0  0  0  0  0  0  0  0  0  0  0
    7.8663  -12.1959   25.0925 C   0  0  0  0  0  0  0  0  0  0  0  0
    7.8536  -11.5301   26.3027 C   0  0  0  0  0  0  0  0  0  0  0  0
    7.0638  -12.0207   27.3343 C   0  0  0  0  0  0  0  0  0  0  0  0
    6.3152  -13.1572   27.1226 C   0  0  0  0  0  0  0  0  0  0  0  0
    6.3527  -13.8023   25.8890 C   0  0  0  0  0  0  0  0  0  0  0  0
    8.6070  -15.8878   24.3685 C   0  0  0  0  0  0  0  0  0  0  0  0
    7.8020  -16.8418   24.5746 O   0  0  0  0  0  0  0  0  0  0  0  0
    9.7576  -15.8579   25.2023 N   0  0  0  0  0  0  0  0  0  0  0  0
    9.9526  -16.8979   26.2580 C   0  0  1  0  0  0  0  0  0  0  0  0
   11.3380  -17.4173   26.1457 C   0  0  0  0  0  0  0  0  0  0  0  0
   11.6442  -18.2716   24.9971 C   0  0  0  0  0  0  0  0  0  0  0  0
   10.9007  -18.7382   23.9504 C   0  0  0  0  0  0  0  0  0  0  0  0
   11.7393  -19.4502   23.1517 N   0  0  0  0  0  0  0  0  0  0  0  0
   12.9544  -19.4335   23.6677 C   0  0  0  0  0  0  0  0  0  0  0  0
   12.9090  -18.7200   24.7894 N   0  0  0  0  0  0  0  0  0  0  0  0
    9.7379  -16.1867   27.5745 C   0  0  0  0  0  0  0  0  0  0  0  0
    9.5482  -16.7629   28.7844 O   0  0  0  0  0  0  0  0  0  0  0  0
    9.7383  -14.9066   27.5301 O   0  0  0  0  0  0  0  0  0  0  0  0
  2  1  1  1
  2  3  1  0
  3  4  1  0
  5  4  1  0
  6  5  2  0
  7  2  1  0
  8  7  2  0
  9  5  1  0
 10  7  1  0
 11 12  1  1
 11 10  1  0
 12 13  1  0
 13 18  2  0
 14 15  2  0
 14 13  1  0
 15 16  1  0
 16 17  2  0
 18 17  1  0
 19 11  1  0
 20 19  2  0
 21 19  1  0
 22 21  1  0
 23 24  1  0
 22 23  1  1
 24 25  2  0
 25 26  1  0
 27 26  1  0
 28 24  1  0
 28 27  2  0
 29 22  1  0
 29 30  1  0
 31 29  2  0
M  END
$$$$
