EFH.pdb
     RDKit          3D

 31 32  0  0  1  0  0  0  0  0999 V2000
    9.0126  -17.2977   18.1778 N   0  0  0  0  0  0  0  0  0  0  0  0
   10.3642  -17.6285   18.6617 C   0  0  1  0  0  0  0  0  0  0  0  0
   11.3125  -17.2976   17.5607 C   0  0  0  0  0  0  0  0  0  0  0  0
   11.1927  -18.2266   16.4093 C   0  0  0  0  0  0  0  0  0  0  0  0
   11.9992  -19.4438   16.5957 C   0  0  0  0  0  0  0  0  0  0  0  0
   12.7004  -19.6593   17.6148 O   0  0  0  0  0  0  0  0  0  0  0  0
   10.6256  -16.6467   19.7776 C   0  0  0  0  0  0  0  0  0  0  0  0
   11.3656  -15.6311   19.5693 O   0  0  0  0  0  0  0  0  0  0  0  0
   12.0328  -20.4512   15.6306 O   0  0  0  0  0  0  0  0  0  0  0  0
   10.0777  -16.7978   21.0787 N   0  0  0  0  0  0  0  0  0  0  0  0
   10.3254  -15.8422   22.1498 C   0  0  1  0  0  0  0  0  0  0  0  0
    9.0035  -15.3485   22.6254 C   0  0  0  0  0  0  0  0  0  0  0  0
    8.2335  -14.5797   21.6380 C   0  0  0  0  0  0  0  0  0  0  0  0
    7.1750  -15.1234   20.9525 C   0  0  0  0  0  0  0  0  0  0  0  0
    6.4386  -14.4169   20.0215 C   0  0  0  0  0  0  0  0  0  0  0  0
    6.7743  -13.0954   19.7578 C   0  0  0  0  0  0  0  0  0  0  0  0
    7.8318  -12.5256   20.4315 C   0  0  0  0  0  0  0  0  0  0  0  0
    8.5519  -13.2685   21.3637 C   0  0  0  0  0  0  0  0  0  0  0  0
   11.1421  -16.5117   23.1802 C   0  0  0  0  0  0  0  0  0  0  0  0
   11.3758  -15.9660   24.2974 O   0  0  0  0  0  0  0  0  0  0  0  0
   11.7137  -17.7987   22.9885 N   0  0  0  0  0  0  0  0  0  0  0  0
   12.4431  -18.4752   24.1041 C   0  0  1  0  0  0  0  0  0  0  0  0
   12.3061  -19.9417   23.9246 C   0  0  0  0  0  0  0  0  0  0  0  0
   10.9899  -20.5298   24.1791 C   0  0  0  0  0  0  0  0  0  0  0  0
    9.9210  -20.1442   24.9370 C   0  0  0  0  0  0  0  0  0  0  0  0
    8.9408  -21.0660   24.7422 N   0  0  0  0  0  0  0  0  0  0  0  0
    9.3690  -21.9888   23.9009 C   0  0  0  0  0  0  0  0  0  0  0  0
   10.6132  -21.6735   23.5515 N   0  0  0  0  0  0  0  0  0  0  0  0
   13.8841  -18.0380   23.9723 C   0  0  0  0  0  0  0  0  0  0  0  0
   14.8552  -18.1581   24.9074 O   0  0  0  0  0  0  0  0  0  0  0  0
   14.2101  -17.5006   22.8563 O   0  0  0  0  0  0  0  0  0  0  0  0
  2  1  1  6
  2  3  1  0
  3  4  1  0
  5  4  1  0
  6  5  2  0
  7  2  1  0
  8  7  2  0
  9  5  1  0
 10  7  1  0
 11 12  1  1
 11 10  1  0
 12 13  1  0
 13 18  2  0
 14 15  2  0
 14 13  1  0
 15 16  1  0
 16 17  2  0
 18 17  1  0
 19 11  1  0
 20 19  2  0
 21 19  1  0
 22 21  1  0
 23 24  1  0
 22 23  1  6
 24 25  2  0
 25 26  1  0
 27 26  1  0
 28 24  1  0
 28 27  2  0
 29 22  1  0
 29 30  1  0
 31 29  2  0
M  END
$$$$
