NVN.pdb
     RDKit          3D

 24 23  0  0  1  0  0  0  0  0999 V2000
   18.9497  -22.2029   -7.2549 N   0  0  0  0  0  0  0  0  0  0  0  0
   19.2602  -22.2312   -8.6414 C   0  0  0  0  0  0  0  0  0  0  0  0
   18.7372  -23.1384   -9.3419 O   0  0  0  0  0  0  0  0  0  0  0  0
   20.1566  -21.2452   -9.2764 C   0  0  0  0  0  0  0  0  0  0  0  0
   21.5566  -21.8408   -9.4088 C   0  0  2  0  0  0  0  0  0  0  0  0
   22.1580  -21.9888   -8.0861 N   0  0  0  0  0  0  0  0  0  0  0  0
   22.4042  -20.9473  -10.2158 C   0  0  0  0  0  0  0  0  0  0  0  0
   22.4622  -19.7174   -9.8721 O   0  0  0  0  0  0  0  0  0  0  0  0
   26.4143  -20.5772  -12.8960 C   0  0  0  0  0  0  0  0  0  0  0  0
   25.4019  -21.3087  -12.0648 C   0  0  1  0  0  0  0  0  0  0  0  0
   25.9974  -21.5170  -10.6859 C   0  0  0  0  0  0  0  0  0  0  0  0
   24.1251  -20.4848  -11.9850 C   0  0  2  0  0  0  0  0  0  0  0  0
   23.1404  -21.3757  -11.3264 N   0  0  0  0  0  0  0  0  0  0  0  0
   23.6362  -20.2717  -13.3619 C   0  0  0  0  0  0  0  0  0  0  0  0
   23.2519  -21.3182  -14.0059 O   0  0  0  0  0  0  0  0  0  0  0  0
   22.0649  -18.5417  -17.9068 N   0  0  0  0  0  0  0  0  0  0  0  0
   23.0689  -19.4921  -17.6745 C   0  0  0  0  0  0  0  0  0  0  0  0
   23.5131  -20.1542  -18.6717 O   0  0  0  0  0  0  0  0  0  0  0  0
   23.6794  -19.8082  -16.3595 C   0  0  0  0  0  0  0  0  0  0  0  0
   22.9806  -18.9020  -15.3425 C   0  0  2  0  0  0  0  0  0  0  0  0
   23.5561  -19.0191  -14.0255 N   0  0  0  0  0  0  0  0  0  0  0  0
   21.5565  -19.3763  -15.3457 C   0  0  0  0  0  0  0  0  0  0  0  0
   21.2315  -20.5077  -14.9056 O   0  0  0  0  0  0  0  0  0  0  0  0
   20.5382  -18.5750  -15.8397 O   0  0  0  0  0  0  0  0  0  0  0  0
  1  2  1  0
  2  3  2  0
  4  2  1  0
  5  4  1  0
  5  6  1  1
  7  5  1  0
  7  8  2  0
 10  9  1  6
 10 11  1  0
 10 12  1  0
 12 13  1  1
 13  7  1  0
 14 12  1  0
 15 14  2  0
 16 17  1  0
 17 19  1  0
 17 18  2  0
 20 19  1  6
 20 21  1  0
 20 22  1  0
 21 14  1  0
 22 24  1  0
 23 22  2  0
M  END
$$$$
