NVN.pdb
     RDKit          3D

 24 23  0  0  1  0  0  0  0  0999 V2000
   28.4807  -27.9684  -17.2685 N   0  0  0  0  0  0  0  0  0  0  0  0
   28.3629  -26.6772  -17.8503 C   0  0  0  0  0  0  0  0  0  0  0  0
   28.6953  -26.5449  -19.0584 O   0  0  0  0  0  0  0  0  0  0  0  0
   27.8673  -25.5077  -17.0983 C   0  0  0  0  0  0  0  0  0  0  0  0
   28.9592  -24.4418  -17.0366 C   0  0  2  0  0  0  0  0  0  0  0  0
   30.1100  -24.9550  -16.2981 N   0  0  0  0  0  0  0  0  0  0  0  0
   28.4497  -23.2455  -16.3456 C   0  0  0  0  0  0  0  0  0  0  0  0
   29.2228  -22.6759  -15.5019 O   0  0  0  0  0  0  0  0  0  0  0  0
   27.2544  -18.9971  -16.3140 C   0  0  0  0  0  0  0  0  0  0  0  0
   27.6414  -20.3820  -16.7422 C   0  0  1  0  0  0  0  0  0  0  0  0
   29.1105  -20.5736  -16.4192 C   0  0  0  0  0  0  0  0  0  0  0  0
   26.7860  -21.3971  -15.9985 C   0  0  2  0  0  0  0  0  0  0  0  0
   27.1760  -22.7093  -16.5668 N   0  0  0  0  0  0  0  0  0  0  0  0
   25.3791  -21.1772  -16.3890 C   0  0  0  0  0  0  0  0  0  0  0  0
   25.0028  -21.6955  -17.5059 O   0  0  0  0  0  0  0  0  0  0  0  0
   21.1805  -23.5213  -13.5347 N   0  0  0  0  0  0  0  0  0  0  0  0
   21.7811  -22.8425  -14.6042 C   0  0  0  0  0  0  0  0  0  0  0  0
   21.0849  -22.6390  -15.6548 O   0  0  0  0  0  0  0  0  0  0  0  0
   23.1716  -22.3254  -14.6346 C   0  0  0  0  0  0  0  0  0  0  0  0
   23.1066  -20.9869  -15.3749 C   0  0  2  0  0  0  0  0  0  0  0  0
   24.4180  -20.4487  -15.6397 N   0  0  0  0  0  0  0  0  0  0  0  0
   22.3405  -20.0905  -14.4461 C   0  0  0  0  0  0  0  0  0  0  0  0
   22.9114  -19.4110  -13.5564 O   0  0  0  0  0  0  0  0  0  0  0  0
   20.9612  -19.9793  -14.5374 O   0  0  0  0  0  0  0  0  0  0  0  0
  1  2  1  0
  2  3  2  0
  4  2  1  0
  5  4  1  0
  5  6  1  1
  7  5  1  0
  7  8  2  0
 10  9  1  1
 10 11  1  0
 10 12  1  0
 12 13  1  6
 13  7  1  0
 14 12  1  0
 15 14  2  0
 16 17  1  0
 17 19  1  0
 17 18  2  0
 20 19  1  1
 20 21  1  0
 20 22  1  0
 21 14  1  0
 22 24  1  0
 23 22  2  0
M  END
$$$$
