NVN.pdb
     RDKit          3D

 24 23  0  0  1  0  0  0  0  0999 V2000
   16.7210  -14.5334  -15.1457 N   0  0  0  0  0  0  0  0  0  0  0  0
   18.0334  -14.0197  -14.9628 C   0  0  0  0  0  0  0  0  0  0  0  0
   18.8164  -14.6623  -14.2137 O   0  0  0  0  0  0  0  0  0  0  0  0
   18.5013  -12.7812  -15.6155 C   0  0  0  0  0  0  0  0  0  0  0  0
   17.3316  -12.1096  -16.3317 C   0  0  2  0  0  0  0  0  0  0  0  0
   16.9276  -12.9148  -17.4813 N   0  0  0  0  0  0  0  0  0  0  0  0
   17.7374  -10.7767  -16.8077 C   0  0  0  0  0  0  0  0  0  0  0  0
   18.4313  -10.7176  -17.8797 O   0  0  0  0  0  0  0  0  0  0  0  0
   16.5838   -6.1331  -17.2206 C   0  0  0  0  0  0  0  0  0  0  0  0
   16.3744   -7.5929  -16.9451 C   0  0  1  0  0  0  0  0  0  0  0  0
   15.6455   -8.1891  -18.1336 C   0  0  0  0  0  0  0  0  0  0  0  0
   17.7238   -8.2665  -16.7433 C   0  0  2  0  0  0  0  0  0  0  0  0
   17.4028   -9.5869  -16.1511 N   0  0  0  0  0  0  0  0  0  0  0  0
   18.4558   -7.5131  -15.7056 C   0  0  0  0  0  0  0  0  0  0  0  0
   17.8549   -7.3509  -14.5786 O   0  0  0  0  0  0  0  0  0  0  0  0
   22.5537   -5.6383  -12.5914 N   0  0  0  0  0  0  0  0  0  0  0  0
   22.3403   -5.1520  -13.8888 C   0  0  0  0  0  0  0  0  0  0  0  0
   22.5811   -3.9190  -14.1165 O   0  0  0  0  0  0  0  0  0  0  0  0
   21.8557   -5.9449  -15.0456 C   0  0  0  0  0  0  0  0  0  0  0  0
   20.3666   -6.1932  -14.7912 C   0  0  2  0  0  0  0  0  0  0  0  0
   19.7555   -6.9597  -15.8489 N   0  0  0  0  0  0  0  0  0  0  0  0
   19.7719   -4.8170  -14.7186 C   0  0  0  0  0  0  0  0  0  0  0  0
   19.5997   -4.1121  -15.7446 O   0  0  0  0  0  0  0  0  0  0  0  0
   19.3878   -4.2684  -13.5042 O   0  0  0  0  0  0  0  0  0  0  0  0
  1  2  1  0
  2  3  2  0
  4  2  1  0
  5  4  1  0
  5  6  1  6
  7  5  1  0
  7  8  2  0
 10  9  1  6
 10 11  1  0
 10 12  1  0
 12 13  1  1
 13  7  1  0
 14 12  1  0
 15 14  2  0
 16 17  1  0
 17 19  1  0
 17 18  2  0
 20 19  1  6
 20 21  1  0
 20 22  1  0
 21 14  1  0
 22 24  1  0
 23 22  2  0
M  END
$$$$
