NVN.pdb
     RDKit          3D

 24 23  0  0  1  0  0  0  0  0999 V2000
   28.6149  -17.0770  -16.8181 N   0  0  0  0  0  0  0  0  0  0  0  0
   27.2546  -17.2950  -17.1670 C   0  0  0  0  0  0  0  0  0  0  0  0
   26.6764  -16.4126  -17.8558 O   0  0  0  0  0  0  0  0  0  0  0  0
   26.5123  -18.5039  -16.7591 C   0  0  0  0  0  0  0  0  0  0  0  0
   27.3892  -19.3553  -15.8435 C   0  0  2  0  0  0  0  0  0  0  0  0
   28.2251  -20.2442  -16.6460 N   0  0  0  0  0  0  0  0  0  0  0  0
   26.5412  -20.1736  -14.9607 C   0  0  0  0  0  0  0  0  0  0  0  0
   26.1603  -21.3133  -15.3968 O   0  0  0  0  0  0  0  0  0  0  0  0
   25.2259  -21.3021  -10.4210 C   0  0  0  0  0  0  0  0  0  0  0  0
   26.0408  -20.5654  -11.4428 C   0  0  1  0  0  0  0  0  0  0  0  0
   27.4195  -21.1956  -11.4785 C   0  0  0  0  0  0  0  0  0  0  0  0
   25.3616  -20.6705  -12.8004 C   0  0  2  0  0  0  0  0  0  0  0  0
   26.1385  -19.7681  -13.6831 N   0  0  0  0  0  0  0  0  0  0  0  0
   24.0152  -20.0763  -12.6809 C   0  0  0  0  0  0  0  0  0  0  0  0
   23.9565  -18.7929  -12.5971 O   0  0  0  0  0  0  0  0  0  0  0  0
   19.3287  -18.9343  -14.0829 N   0  0  0  0  0  0  0  0  0  0  0  0
   20.3737  -19.2087  -14.9762 C   0  0  0  0  0  0  0  0  0  0  0  0
   20.2272  -18.8657  -16.1972 O   0  0  0  0  0  0  0  0  0  0  0  0
   21.6582  -19.8686  -14.6352 C   0  0  0  0  0  0  0  0  0  0  0  0
   21.5679  -20.2222  -13.1484 C   0  0  2  0  0  0  0  0  0  0  0  0
   22.7931  -20.7985  -12.6520 N   0  0  0  0  0  0  0  0  0  0  0  0
   20.4442  -21.2146  -13.0746 C   0  0  0  0  0  0  0  0  0  0  0  0
   19.2657  -20.8665  -12.8115 O   0  0  0  0  0  0  0  0  0  0  0  0
   20.6688  -22.5650  -13.2961 O   0  0  0  0  0  0  0  0  0  0  0  0
  1  2  1  0
  2  3  2  0
  4  2  1  0
  5  4  1  0
  5  6  1  6
  7  5  1  0
  7  8  2  0
 10  9  1  1
 10 11  1  0
 10 12  1  0
 12 13  1  6
 13  7  1  0
 14 12  1  0
 15 14  2  0
 16 17  1  0
 17 19  1  0
 17 18  2  0
 20 19  1  6
 20 21  1  0
 20 22  1  0
 21 14  1  0
 22 24  1  0
 23 22  2  0
M  END
$$$$
