NVN.pdb
     RDKit          3D

 24 23  0  0  1  0  0  0  0  0999 V2000
   17.0359  -11.9825  -19.4423 N   0  0  0  0  0  0  0  0  0  0  0  0
   16.5683  -11.6318  -18.1469 C   0  0  0  0  0  0  0  0  0  0  0  0
   15.3801  -11.9284  -17.8513 O   0  0  0  0  0  0  0  0  0  0  0  0
   17.4178  -10.9473  -17.1525 C   0  0  0  0  0  0  0  0  0  0  0  0
   18.5449  -11.8810  -16.7166 C   0  0  2  0  0  0  0  0  0  0  0  0
   17.9909  -13.0159  -15.9829 N   0  0  0  0  0  0  0  0  0  0  0  0
   19.4778  -11.1589  -15.8355 C   0  0  0  0  0  0  0  0  0  0  0  0
   19.1316  -10.9939  -14.6161 O   0  0  0  0  0  0  0  0  0  0  0  0
   24.0551   -9.6171  -15.0332 C   0  0  0  0  0  0  0  0  0  0  0  0
   23.0204  -10.4501  -15.7306 C   0  0  1  0  0  0  0  0  0  0  0  0
   23.2399  -11.8953  -15.3276 C   0  0  0  0  0  0  0  0  0  0  0  0
   21.6332   -9.9779  -15.3210 C   0  0  2  0  0  0  0  0  0  0  0  0
   20.7100  -10.6522  -16.2643 N   0  0  0  0  0  0  0  0  0  0  0  0
   21.5418   -8.5332  -15.6121 C   0  0  0  0  0  0  0  0  0  0  0  0
   21.3518   -8.2035  -16.8421 O   0  0  0  0  0  0  0  0  0  0  0  0
   20.1438   -3.8907  -16.9623 N   0  0  0  0  0  0  0  0  0  0  0  0
   20.1197   -4.2423  -15.6054 C   0  0  0  0  0  0  0  0  0  0  0  0
   20.1268   -3.3035  -14.7403 O   0  0  0  0  0  0  0  0  0  0  0  0
   20.0835   -5.6241  -15.0659 C   0  0  0  0  0  0  0  0  0  0  0  0
   21.5371   -6.1039  -15.0398 C   0  0  2  0  0  0  0  0  0  0  0  0
   21.6447   -7.4895  -14.6550 N   0  0  0  0  0  0  0  0  0  0  0  0
   22.1984   -5.2165  -14.0258 C   0  0  0  0  0  0  0  0  0  0  0  0
   22.1979   -5.4924  -12.7997 O   0  0  0  0  0  0  0  0  0  0  0  0
   22.8398   -4.0484  -14.4095 O   0  0  0  0  0  0  0  0  0  0  0  0
  1  2  1  0
  2  3  2  0
  4  2  1  0
  5  4  1  0
  5  6  1  1
  7  5  1  0
  7  8  2  0
 10  9  1  1
 10 11  1  0
 10 12  1  0
 12 13  1  6
 13  7  1  0
 14 12  1  0
 15 14  2  0
 16 17  1  0
 17 19  1  0
 17 18  2  0
 20 19  1  1
 20 21  1  0
 20 22  1  0
 21 14  1  0
 22 24  1  0
 23 22  2  0
M  END
$$$$
