NVN.pdb
     RDKit          3D

 24 23  0  0  1  0  0  0  0  0999 V2000
   21.6784  -16.7492  -19.8876 N   0  0  0  0  0  0  0  0  0  0  0  0
   22.5927  -15.6635  -19.8182 C   0  0  0  0  0  0  0  0  0  0  0  0
   23.4187  -15.5302  -20.7602 O   0  0  0  0  0  0  0  0  0  0  0  0
   22.6016  -14.7009  -18.6992 C   0  0  0  0  0  0  0  0  0  0  0  0
   23.9844  -14.6857  -18.0514 C   0  0  2  0  0  0  0  0  0  0  0  0
   24.2744  -15.9954  -17.4739 N   0  0  0  0  0  0  0  0  0  0  0  0
   24.0214  -13.6777  -16.9787 C   0  0  0  0  0  0  0  0  0  0  0  0
   23.4957  -13.9896  -15.8559 O   0  0  0  0  0  0  0  0  0  0  0  0
   26.1241   -9.7286  -15.0585 C   0  0  0  0  0  0  0  0  0  0  0  0
   26.0427  -10.8852  -16.0107 C   0  0  1  0  0  0  0  0  0  0  0  0
   27.0384  -11.9333  -15.5532 C   0  0  0  0  0  0  0  0  0  0  0  0
   24.6272  -11.4436  -16.0057 C   0  0  2  0  0  0  0  0  0  0  0  0
   24.5982  -12.4113  -17.1280 N   0  0  0  0  0  0  0  0  0  0  0  0
   23.7072  -10.3499  -16.3768 C   0  0  0  0  0  0  0  0  0  0  0  0
   23.9064   -9.7913  -17.5195 O   0  0  0  0  0  0  0  0  0  0  0  0
   20.1559   -6.7816  -16.9592 N   0  0  0  0  0  0  0  0  0  0  0  0
   19.5856   -7.8587  -16.2664 C   0  0  0  0  0  0  0  0  0  0  0  0
   18.3292   -7.8317  -16.0410 O   0  0  0  0  0  0  0  0  0  0  0  0
   20.3117   -9.0505  -15.7624 C   0  0  0  0  0  0  0  0  0  0  0  0
   21.7953   -8.7836  -16.0299 C   0  0  2  0  0  0  0  0  0  0  0  0
   22.6315   -9.8704  -15.5837 N   0  0  0  0  0  0  0  0  0  0  0  0
   22.0889   -7.5325  -15.2543 C   0  0  0  0  0  0  0  0  0  0  0  0
   22.4107   -7.5630  -14.0399 O   0  0  0  0  0  0  0  0  0  0  0  0
   22.0143   -6.2854  -15.8562 O   0  0  0  0  0  0  0  0  0  0  0  0
  1  2  1  0
  2  3  2  0
  4  2  1  0
  5  4  1  0
  5  6  1  1
  7  5  1  0
  7  8  2  0
 10  9  1  1
 10 11  1  0
 10 12  1  0
 12 13  1  6
 13  7  1  0
 14 12  1  0
 15 14  2  0
 16 17  1  0
 17 19  1  0
 17 18  2  0
 20 19  1  1
 20 21  1  0
 20 22  1  0
 21 14  1  0
 22 24  1  0
 23 22  2  0
M  END
$$$$
