NVN.pdb
     RDKit          3D

 24 23  0  0  1  0  0  0  0  0999 V2000
   38.8516   -4.9773   -8.0726 N   0  0  0  0  0  0  0  0  0  0  0  0
   38.2270   -6.1603   -8.5523 C   0  0  0  0  0  0  0  0  0  0  0  0
   37.8440   -7.0080   -7.7026 O   0  0  0  0  0  0  0  0  0  0  0  0
   38.0124   -6.4203   -9.9893 C   0  0  0  0  0  0  0  0  0  0  0  0
   38.6720   -7.7434  -10.3718 C   0  0  2  0  0  0  0  0  0  0  0  0
   40.1149   -7.6548  -10.1640 N   0  0  0  0  0  0  0  0  0  0  0  0
   38.4163   -8.0359  -11.7920 C   0  0  0  0  0  0  0  0  0  0  0  0
   39.1253   -7.4202  -12.6594 O   0  0  0  0  0  0  0  0  0  0  0  0
   36.8860  -11.2220  -15.1187 C   0  0  0  0  0  0  0  0  0  0  0  0
   37.1968  -10.7874  -13.7167 C   0  0  1  0  0  0  0  0  0  0  0  0
   38.5117  -11.4262  -13.3140 C   0  0  0  0  0  0  0  0  0  0  0  0
   37.2946   -9.2696  -13.6695 C   0  0  2  0  0  0  0  0  0  0  0  0
   37.4470   -8.9448  -12.2313 N   0  0  0  0  0  0  0  0  0  0  0  0
   35.9890   -8.7181  -14.0835 C   0  0  0  0  0  0  0  0  0  0  0  0
   35.1191   -8.5341  -13.1524 O   0  0  0  0  0  0  0  0  0  0  0  0
   32.0178   -6.3551  -16.1041 N   0  0  0  0  0  0  0  0  0  0  0  0
   33.0419   -5.7062  -15.4001 C   0  0  0  0  0  0  0  0  0  0  0  0
   32.8105   -4.5369  -14.9429 O   0  0  0  0  0  0  0  0  0  0  0  0
   34.3926   -6.2563  -15.1268 C   0  0  0  0  0  0  0  0  0  0  0  0
   34.3904   -7.6784  -15.6937 C   0  0  2  0  0  0  0  0  0  0  0  0
   35.6199   -8.3773  -15.4115 N   0  0  0  0  0  0  0  0  0  0  0  0
   34.2153   -7.4842  -17.1717 C   0  0  0  0  0  0  0  0  0  0  0  0
   35.1928   -7.2907  -17.9375 O   0  0  0  0  0  0  0  0  0  0  0  0
   32.9556   -7.5112  -17.7510 O   0  0  0  0  0  0  0  0  0  0  0  0
  1  2  1  0
  2  3  2  0
  4  2  1  0
  5  4  1  0
  5  6  1  6
  7  5  1  0
  7  8  2  0
 10  9  1  6
 10 11  1  0
 10 12  1  0
 12 13  1  1
 13  7  1  0
 14 12  1  0
 15 14  2  0
 16 17  1  0
 17 19  1  0
 17 18  2  0
 20 19  1  1
 20 21  1  0
 20 22  1  0
 21 14  1  0
 22 24  1  0
 23 22  2  0
M  END
$$$$
