NVN.pdb
     RDKit          3D

 24 23  0  0  1  0  0  0  0  0999 V2000
   16.1154  -13.8583  -10.5523 N   0  0  0  0  0  0  0  0  0  0  0  0
   15.0775  -13.1465  -11.2122 C   0  0  0  0  0  0  0  0  0  0  0  0
   14.0416  -13.7858  -11.5371 O   0  0  0  0  0  0  0  0  0  0  0  0
   15.1711  -11.7057  -11.5191 C   0  0  0  0  0  0  0  0  0  0  0  0
   14.4671  -10.9052  -10.4257 C   0  0  2  0  0  0  0  0  0  0  0  0
   13.0239  -11.1109  -10.5137 N   0  0  0  0  0  0  0  0  0  0  0  0
   14.7511   -9.4705  -10.5968 C   0  0  0  0  0  0  0  0  0  0  0  0
   14.1701   -8.8636  -11.5603 O   0  0  0  0  0  0  0  0  0  0  0  0
   15.9975   -5.3279   -8.3944 C   0  0  0  0  0  0  0  0  0  0  0  0
   15.5418   -6.7555   -8.4674 C   0  0  1  0  0  0  0  0  0  0  0  0
   14.0760   -6.7946   -8.0812 C   0  0  0  0  0  0  0  0  0  0  0  0
   15.7435   -7.2774   -9.8824 C   0  0  2  0  0  0  0  0  0  0  0  0
   15.6150   -8.7494   -9.7648 N   0  0  0  0  0  0  0  0  0  0  0  0
   17.1441   -7.0125  -10.2679 C   0  0  0  0  0  0  0  0  0  0  0  0
   18.0554   -7.4820   -9.4890 O   0  0  0  0  0  0  0  0  0  0  0  0
   21.6358   -5.8705  -12.3057 N   0  0  0  0  0  0  0  0  0  0  0  0
   20.9260   -6.9533  -12.8431 C   0  0  0  0  0  0  0  0  0  0  0  0
   21.5447   -7.7489  -13.6269 O   0  0  0  0  0  0  0  0  0  0  0  0
   19.5005   -7.2732  -12.5836 C   0  0  0  0  0  0  0  0  0  0  0  0
   18.9595   -6.1224  -11.7310 C   0  0  2  0  0  0  0  0  0  0  0  0
   17.5622   -6.2901  -11.4164 N   0  0  0  0  0  0  0  0  0  0  0  0
   19.1716   -4.9041  -12.5817 C   0  0  0  0  0  0  0  0  0  0  0  0
   20.3172   -4.4342  -12.7965 O   0  0  0  0  0  0  0  0  0  0  0  0
   18.0999   -4.2465  -13.1667 O   0  0  0  0  0  0  0  0  0  0  0  0
  1  2  1  0
  2  3  2  0
  4  2  1  0
  5  4  1  0
  5  6  1  6
  7  5  1  0
  7  8  2  0
 10  9  1  6
 10 11  1  0
 10 12  1  0
 12 13  1  1
 13  7  1  0
 14 12  1  0
 15 14  2  0
 16 17  1  0
 17 19  1  0
 17 18  2  0
 20 19  1  6
 20 21  1  0
 20 22  1  0
 21 14  1  0
 22 24  1  0
 23 22  2  0
M  END
$$$$
