YII.pdb
     RDKit          3D

 29 29  0  0  1  0  0  0  0  0999 V2000
    9.2082  -12.8683   16.2680 O   0  0  0  0  0  0  0  0  0  0  0  0
    8.6325  -13.2388   17.4975 C   0  0  0  0  0  0  0  0  0  0  0  0
    9.4123  -13.8447   18.4542 C   0  0  0  0  0  0  0  0  0  0  0  0
    8.8578  -14.2096   19.6575 C   0  0  0  0  0  0  0  0  0  0  0  0
    7.5395  -13.9907   19.9463 C   0  0  0  0  0  0  0  0  0  0  0  0
    6.9219  -14.3816   21.2496 C   0  0  0  0  0  0  0  0  0  0  0  0
    6.8164  -15.8838   21.2510 C   0  0  2  0  0  0  0  0  0  0  0  0
    5.7531  -16.2536   20.3486 N   0  0  0  0  0  0  0  0  0  0  0  0
    6.6030  -16.4324   22.6166 C   0  0  0  0  0  0  0  0  0  0  0  0
    5.4694  -16.8895   22.9093 O   0  0  0  0  0  0  0  0  0  0  0  0
    6.7843  -13.3837   18.9718 C   0  0  0  0  0  0  0  0  0  0  0  0
    7.3070  -13.0076   17.7615 C   0  0  0  0  0  0  0  0  0  0  0  0
    8.4060  -20.5964   24.0582 C   0  0  0  0  0  0  0  0  0  0  0  0
    8.5083  -19.1237   24.2764 C   0  0  0  0  0  0  0  0  0  0  0  0
    7.1710  -18.4958   24.7125 C   0  0  2  0  0  0  0  0  0  0  0  0
    6.2023  -18.8511   23.6417 C   0  0  0  0  0  0  0  0  0  0  0  0
    7.4582  -17.0592   24.9278 C   0  0  2  0  0  0  0  0  0  0  0  0
    7.6280  -16.4591   23.5993 N   0  0  0  0  0  0  0  0  0  0  0  0
    8.5808  -16.7200   25.8107 C   0  0  0  0  0  0  0  0  0  0  0  0
    9.7624  -16.8159   25.3190 O   0  0  0  0  0  0  0  0  0  0  0  0
    7.2790  -12.4547   28.2552 C   0  0  0  0  0  0  0  0  0  0  0  0
    8.1676  -13.4209   27.5230 C   0  0  0  0  0  0  0  0  0  0  0  0
    8.9951  -14.2633   28.4585 C   0  0  2  0  0  0  0  0  0  0  0  0
   10.1717  -13.4060   28.8997 C   0  0  0  0  0  0  0  0  0  0  0  0
    9.5527  -15.4616   27.7473 C   0  0  2  0  0  0  0  0  0  0  0  0
    8.5296  -16.2951   27.1469 N   0  0  0  0  0  0  0  0  0  0  0  0
   10.4427  -16.2457   28.6069 C   0  0  0  0  0  0  0  0  0  0  0  0
   11.7528  -15.9687   28.8679 O   0  0  0  0  0  0  0  0  0  0  0  0
    9.9638  -17.2834   29.1686 O   0  0  0  0  0  0  0  0  0  0  0  0
  2  1  1  0
  3  2  2  0
  4  3  1  0
  5 11  1  0
  5  4  2  0
  6  7  1  0
  6  5  1  0
  7  9  1  0
  7  8  1  6
  9 18  1  0
 10  9  2  0
 11 12  2  0
 12  2  1  0
 13 14  1  0
 15 14  1  0
 15 16  1  6
 17 18  1  6
 17 19  1  0
 17 15  1  0
 19 20  2  0
 22 23  1  0
 22 21  1  0
 23 25  1  0
 23 24  1  6
 25 27  1  0
 26 19  1  0
 25 26  1  1
 27 29  2  0
 27 28  1  0
M  END
$$$$
