YII.pdb
     RDKit          3D

 29 29  0  0  1  0  0  0  0  0999 V2000
    9.8093  -23.8192   17.4246 O   0  0  0  0  0  0  0  0  0  0  0  0
   10.1018  -22.7619   18.3059 C   0  0  0  0  0  0  0  0  0  0  0  0
    9.0714  -22.0524   18.8766 C   0  0  0  0  0  0  0  0  0  0  0  0
    9.3485  -21.0184   19.7384 C   0  0  0  0  0  0  0  0  0  0  0  0
   10.6292  -20.6608   20.0563 C   0  0  0  0  0  0  0  0  0  0  0  0
   10.9468  -19.5392   20.9913 C   0  0  0  0  0  0  0  0  0  0  0  0
   10.7420  -18.2592   20.2250 C   0  0  2  0  0  0  0  0  0  0  0  0
   11.8662  -18.0906   19.3364 N   0  0  0  0  0  0  0  0  0  0  0  0
   10.5622  -17.0875   21.1229 C   0  0  0  0  0  0  0  0  0  0  0  0
   11.5858  -16.5144   21.5740 O   0  0  0  0  0  0  0  0  0  0  0  0
   11.6386  -21.3870   19.4713 C   0  0  0  0  0  0  0  0  0  0  0  0
   11.3959  -22.4238   18.6079 C   0  0  0  0  0  0  0  0  0  0  0  0
    6.7232  -13.7145   19.9426 C   0  0  0  0  0  0  0  0  0  0  0  0
    7.9737  -14.2957   20.5131 C   0  0  0  0  0  0  0  0  0  0  0  0
    7.7803  -14.8237   21.9472 C   0  0  2  0  0  0  0  0  0  0  0  0
    7.2891  -13.6599   22.7316 C   0  0  0  0  0  0  0  0  0  0  0  0
    9.0840  -15.4098   22.3338 C   0  0  2  0  0  0  0  0  0  0  0  0
    9.2819  -16.5934   21.4889 N   0  0  0  0  0  0  0  0  0  0  0  0
    9.2863  -15.7304   23.7519 C   0  0  0  0  0  0  0  0  0  0  0  0
    8.9527  -16.9076   24.1396 O   0  0  0  0  0  0  0  0  0  0  0  0
   10.0265  -13.5078   29.5152 C   0  0  0  0  0  0  0  0  0  0  0  0
   10.0790  -14.6340   28.5211 C   0  0  0  0  0  0  0  0  0  0  0  0
    9.9431  -14.1534   27.0998 C   0  0  2  0  0  0  0  0  0  0  0  0
    8.6090  -13.4286   27.0051 C   0  0  0  0  0  0  0  0  0  0  0  0
    9.8952  -15.3113   26.1461 C   0  0  2  0  0  0  0  0  0  0  0  0
    9.8078  -14.9028   24.7577 N   0  0  0  0  0  0  0  0  0  0  0  0
    8.8357  -16.2626   26.4898 C   0  0  0  0  0  0  0  0  0  0  0  0
    8.9708  -17.3549   27.2958 O   0  0  0  0  0  0  0  0  0  0  0  0
    7.6775  -16.0648   25.9987 O   0  0  0  0  0  0  0  0  0  0  0  0
  2  1  1  0
  3  2  2  0
  4  3  1  0
  5 11  1  0
  5  4  2  0
  6  7  1  0
  6  5  1  0
  7  9  1  0
  7  8  1  6
  9 18  1  0
 10  9  2  0
 11 12  2  0
 12  2  1  0
 13 14  1  0
 15 14  1  0
 15 16  1  1
 17 18  1  6
 17 19  1  0
 17 15  1  0
 19 20  2  0
 22 23  1  0
 22 21  1  0
 23 25  1  0
 23 24  1  1
 25 27  1  0
 26 19  1  0
 25 26  1  6
 27 29  2  0
 27 28  1  0
M  END
$$$$
