YII.pdb
     RDKit          3D

 29 29  0  0  1  0  0  0  0  0999 V2000
    9.2830  -13.5920   15.9018 O   0  0  0  0  0  0  0  0  0  0  0  0
    8.7389  -13.8562   17.1724 C   0  0  0  0  0  0  0  0  0  0  0  0
    7.5329  -13.2955   17.5216 C   0  0  0  0  0  0  0  0  0  0  0  0
    6.9946  -13.5485   18.7604 C   0  0  0  0  0  0  0  0  0  0  0  0
    7.6208  -14.3488   19.6751 C   0  0  0  0  0  0  0  0  0  0  0  0
    7.0487  -14.6334   21.0259 C   0  0  0  0  0  0  0  0  0  0  0  0
    6.9525  -16.1307   21.1540 C   0  0  2  0  0  0  0  0  0  0  0  0
    5.9529  -16.5915   20.2212 N   0  0  0  0  0  0  0  0  0  0  0  0
    6.6535  -16.5590   22.5463 C   0  0  0  0  0  0  0  0  0  0  0  0
    5.5975  -16.1452   23.0878 O   0  0  0  0  0  0  0  0  0  0  0  0
    8.8243  -14.8954   19.2991 C   0  0  0  0  0  0  0  0  0  0  0  0
    9.3880  -14.6628   18.0713 C   0  0  0  0  0  0  0  0  0  0  0  0
    6.5559  -21.2492   24.3610 C   0  0  0  0  0  0  0  0  0  0  0  0
    6.4707  -19.7635   24.2500 C   0  0  0  0  0  0  0  0  0  0  0  0
    7.6145  -19.0480   24.9935 C   0  0  2  0  0  0  0  0  0  0  0  0
    7.5214  -19.5164   26.4018 C   0  0  0  0  0  0  0  0  0  0  0  0
    7.4127  -17.6037   24.7368 C   0  0  2  0  0  0  0  0  0  0  0  0
    7.5132  -17.4150   23.2848 N   0  0  0  0  0  0  0  0  0  0  0  0
    8.2801  -16.6625   25.4555 C   0  0  0  0  0  0  0  0  0  0  0  0
    9.5041  -16.5880   25.0768 O   0  0  0  0  0  0  0  0  0  0  0  0
    6.6824  -11.8137   26.6725 C   0  0  0  0  0  0  0  0  0  0  0  0
    7.6519  -12.8992   26.2968 C   0  0  0  0  0  0  0  0  0  0  0  0
    8.2497  -13.5785   27.5013 C   0  0  2  0  0  0  0  0  0  0  0  0
    9.3591  -12.6723   28.0131 C   0  0  0  0  0  0  0  0  0  0  0  0
    8.8773  -14.8876   27.1203 C   0  0  2  0  0  0  0  0  0  0  0  0
    7.9389  -15.8167   26.5216 N   0  0  0  0  0  0  0  0  0  0  0  0
    9.5927  -15.5008   28.2418 C   0  0  0  0  0  0  0  0  0  0  0  0
   10.8851  -15.2506   28.6001 O   0  0  0  0  0  0  0  0  0  0  0  0
    8.9638  -16.3465   28.9566 O   0  0  0  0  0  0  0  0  0  0  0  0
  2  1  1  0
  3  2  2  0
  4  3  1  0
  5 11  1  0
  5  4  2  0
  6  7  1  0
  6  5  1  0
  7  9  1  0
  7  8  1  6
  9 18  1  0
 10  9  2  0
 11 12  2  0
 12  2  1  0
 13 14  1  0
 15 14  1  0
 15 16  1  1
 17 18  1  6
 17 19  1  0
 17 15  1  0
 19 20  2  0
 22 23  1  0
 22 21  1  0
 23 25  1  0
 23 24  1  6
 25 27  1  0
 26 19  1  0
 25 26  1  1
 27 29  2  0
 27 28  1  0
M  END
$$$$
