YII.pdb
     RDKit          3D

 29 29  0  0  1  0  0  0  0  0999 V2000
   12.1097  -22.8761   17.3236 O   0  0  0  0  0  0  0  0  0  0  0  0
   12.1716  -21.8660   18.3015 C   0  0  0  0  0  0  0  0  0  0  0  0
   11.0067  -21.3826   18.8493 C   0  0  0  0  0  0  0  0  0  0  0  0
   11.0585  -20.3963   19.8048 C   0  0  0  0  0  0  0  0  0  0  0  0
   12.2418  -19.8675   20.2399 C   0  0  0  0  0  0  0  0  0  0  0  0
   12.3147  -18.7949   21.2779 C   0  0  0  0  0  0  0  0  0  0  0  0
   11.9052  -17.5096   20.6087 C   0  0  2  0  0  0  0  0  0  0  0  0
   13.0395  -17.0165   19.8657 N   0  0  0  0  0  0  0  0  0  0  0  0
   11.3977  -16.5051   21.5807 C   0  0  0  0  0  0  0  0  0  0  0  0
   12.2301  -15.7986   22.2034 O   0  0  0  0  0  0  0  0  0  0  0  0
   13.3897  -20.3695   19.6752 C   0  0  0  0  0  0  0  0  0  0  0  0
   13.3722  -21.3529   18.7202 C   0  0  0  0  0  0  0  0  0  0  0  0
    7.1732  -13.6699   20.3046 C   0  0  0  0  0  0  0  0  0  0  0  0
    8.4291  -14.1107   20.9795 C   0  0  0  0  0  0  0  0  0  0  0  0
    8.1591  -14.9110   22.2677 C   0  0  2  0  0  0  0  0  0  0  0  0
    7.3429  -14.0115   23.1255 C   0  0  0  0  0  0  0  0  0  0  0  0
    9.4919  -15.3148   22.7710 C   0  0  2  0  0  0  0  0  0  0  0  0
   10.0128  -16.3146   21.8313 N   0  0  0  0  0  0  0  0  0  0  0  0
    9.5737  -15.7948   24.1558 C   0  0  0  0  0  0  0  0  0  0  0  0
    9.2831  -17.0271   24.3667 O   0  0  0  0  0  0  0  0  0  0  0  0
    9.9118  -12.2975   28.4089 C   0  0  0  0  0  0  0  0  0  0  0  0
   10.2076  -13.3100   27.3381 C   0  0  0  0  0  0  0  0  0  0  0  0
    9.7873  -14.7023   27.7313 C   0  0  2  0  0  0  0  0  0  0  0  0
   10.6668  -15.1142   28.9021 C   0  0  0  0  0  0  0  0  0  0  0  0
   10.0405  -15.6726   26.6146 C   0  0  2  0  0  0  0  0  0  0  0  0
    9.9362  -15.0691   25.3005 N   0  0  0  0  0  0  0  0  0  0  0  0
    9.1973  -16.8657   26.7218 C   0  0  0  0  0  0  0  0  0  0  0  0
    9.5783  -18.0724   27.2316 O   0  0  0  0  0  0  0  0  0  0  0  0
    7.9967  -16.7841   26.3051 O   0  0  0  0  0  0  0  0  0  0  0  0
  2  1  1  0
  3  2  2  0
  4  3  1  0
  5 11  1  0
  5  4  2  0
  6  7  1  0
  6  5  1  0
  7  9  1  0
  7  8  1  1
  9 18  1  0
 10  9  2  0
 11 12  2  0
 12  2  1  0
 13 14  1  0
 15 14  1  0
 15 16  1  1
 17 18  1  6
 17 19  1  0
 17 15  1  0
 19 20  2  0
 22 23  1  0
 22 21  1  0
 23 25  1  0
 23 24  1  1
 25 27  1  0
 26 19  1  0
 25 26  1  6
 27 29  2  0
 27 28  1  0
M  END
$$$$
