YII.pdb
     RDKit          3D

 29 29  0  0  1  0  0  0  0  0999 V2000
   16.5379  -19.6555   17.7765 O   0  0  0  0  0  0  0  0  0  0  0  0
   15.7916  -18.7615   18.5665 C   0  0  0  0  0  0  0  0  0  0  0  0
   14.4236  -18.8887   18.6228 C   0  0  0  0  0  0  0  0  0  0  0  0
   13.6874  -18.0198   19.3919 C   0  0  0  0  0  0  0  0  0  0  0  0
   14.2705  -17.0170   20.1155 C   0  0  0  0  0  0  0  0  0  0  0  0
   13.4839  -16.0644   20.9563 C   0  0  0  0  0  0  0  0  0  0  0  0
   12.5115  -15.3710   20.0391 C   0  0  2  0  0  0  0  0  0  0  0  0
   13.2669  -14.5067   19.1650 N   0  0  0  0  0  0  0  0  0  0  0  0
   11.4637  -14.6270   20.7874 C   0  0  0  0  0  0  0  0  0  0  0  0
   11.8020  -13.6077   21.4404 O   0  0  0  0  0  0  0  0  0  0  0  0
   15.6387  -16.9137   20.0404 C   0  0  0  0  0  0  0  0  0  0  0  0
   16.4017  -17.7641   19.2828 C   0  0  0  0  0  0  0  0  0  0  0  0
    7.2195  -13.2649   18.3110 C   0  0  0  0  0  0  0  0  0  0  0  0
    8.3123  -13.4269   19.3143 C   0  0  0  0  0  0  0  0  0  0  0  0
    7.8760  -14.2585   20.5353 C   0  0  2  0  0  0  0  0  0  0  0  0
    6.6191  -13.6242   21.0141 C   0  0  0  0  0  0  0  0  0  0  0  0
    9.0379  -14.2558   21.4533 C   0  0  2  0  0  0  0  0  0  0  0  0
   10.0998  -15.0233   20.7922 N   0  0  0  0  0  0  0  0  0  0  0  0
    8.8160  -14.7296   22.8248 C   0  0  0  0  0  0  0  0  0  0  0  0
    9.4179  -15.8071   23.1768 O   0  0  0  0  0  0  0  0  0  0  0  0
    6.6627  -11.3614   26.6198 C   0  0  0  0  0  0  0  0  0  0  0  0
    7.6762  -12.3318   26.0808 C   0  0  0  0  0  0  0  0  0  0  0  0
    7.1790  -13.7538   26.1025 C   0  0  2  0  0  0  0  0  0  0  0  0
    7.3769  -14.2684   27.5203 C   0  0  0  0  0  0  0  0  0  0  0  0
    7.9977  -14.6203   25.1906 C   0  0  2  0  0  0  0  0  0  0  0  0
    8.0178  -14.1466   23.8205 N   0  0  0  0  0  0  0  0  0  0  0  0
    7.5957  -16.0271   25.2625 C   0  0  0  0  0  0  0  0  0  0  0  0
    8.2173  -17.0015   25.9873 O   0  0  0  0  0  0  0  0  0  0  0  0
    6.5747  -16.3883   24.5925 O   0  0  0  0  0  0  0  0  0  0  0  0
  2  1  1  0
  3  2  2  0
  4  3  1  0
  5 11  1  0
  5  4  2  0
  6  7  1  0
  6  5  1  0
  7  9  1  0
  7  8  1  1
  9 18  1  0
 10  9  2  0
 11 12  2  0
 12  2  1  0
 13 14  1  0
 15 14  1  0
 15 16  1  1
 17 18  1  6
 17 19  1  0
 17 15  1  0
 19 20  2  0
 22 23  1  0
 22 21  1  0
 23 25  1  0
 23 24  1  1
 25 27  1  0
 26 19  1  0
 25 26  1  6
 27 29  2  0
 27 28  1  0
M  END
$$$$
