YII.pdb
     RDKit          3D

 29 29  0  0  1  0  0  0  0  0999 V2000
    9.7453  -13.1261   16.5329 O   0  0  0  0  0  0  0  0  0  0  0  0
    8.8662  -13.6407   17.5038 C   0  0  0  0  0  0  0  0  0  0  0  0
    9.2151  -14.7747   18.1989 C   0  0  0  0  0  0  0  0  0  0  0  0
    8.3623  -15.2837   19.1487 C   0  0  0  0  0  0  0  0  0  0  0  0
    7.1606  -14.6978   19.4351 C   0  0  0  0  0  0  0  0  0  0  0  0
    6.2225  -15.2390   20.4648 C   0  0  0  0  0  0  0  0  0  0  0  0
    6.5924  -16.6830   20.6781 C   0  0  2  0  0  0  0  0  0  0  0  0
    5.8514  -17.4750   19.7265 N   0  0  0  0  0  0  0  0  0  0  0  0
    6.3516  -17.1256   22.0772 C   0  0  0  0  0  0  0  0  0  0  0  0
    5.3608  -17.8626   22.3115 O   0  0  0  0  0  0  0  0  0  0  0  0
    6.8382  -13.5662   18.7253 C   0  0  0  0  0  0  0  0  0  0  0  0
    7.6665  -13.0333   17.7716 C   0  0  0  0  0  0  0  0  0  0  0  0
    7.2278  -20.7857   25.9018 C   0  0  0  0  0  0  0  0  0  0  0  0
    7.0986  -19.3005   25.8357 C   0  0  0  0  0  0  0  0  0  0  0  0
    7.1755  -18.7634   24.3941 C   0  0  2  0  0  0  0  0  0  0  0  0
    8.4376  -19.3165   23.8353 C   0  0  0  0  0  0  0  0  0  0  0  0
    7.0653  -17.2915   24.5122 C   0  0  2  0  0  0  0  0  0  0  0  0
    7.1959  -16.7482   23.1552 N   0  0  0  0  0  0  0  0  0  0  0  0
    7.9789  -16.6185   25.4434 C   0  0  0  0  0  0  0  0  0  0  0  0
    9.2319  -16.6623   25.1690 O   0  0  0  0  0  0  0  0  0  0  0  0
    6.7190  -11.1747   27.7066 C   0  0  0  0  0  0  0  0  0  0  0  0
    7.7548  -12.2200   27.4000 C   0  0  0  0  0  0  0  0  0  0  0  0
    7.1421  -13.5475   27.0369 C   0  0  2  0  0  0  0  0  0  0  0  0
    6.2204  -13.9360   28.1831 C   0  0  0  0  0  0  0  0  0  0  0  0
    8.1959  -14.6105   26.9264 C   0  0  2  0  0  0  0  0  0  0  0  0
    7.6550  -15.9193   26.6159 N   0  0  0  0  0  0  0  0  0  0  0  0
    9.0561  -14.6564   28.1112 C   0  0  0  0  0  0  0  0  0  0  0  0
   10.0239  -13.7506   28.4338 O   0  0  0  0  0  0  0  0  0  0  0  0
    8.8975  -15.6244   28.9233 O   0  0  0  0  0  0  0  0  0  0  0  0
  2  1  1  0
  3  2  2  0
  4  3  1  0
  5 11  1  0
  5  4  2  0
  6  7  1  0
  6  5  1  0
  7  9  1  0
  7  8  1  6
  9 18  1  0
 10  9  2  0
 11 12  2  0
 12  2  1  0
 13 14  1  0
 15 14  1  0
 15 16  1  1
 17 18  1  6
 17 19  1  0
 17 15  1  0
 19 20  2  0
 22 23  1  0
 22 21  1  0
 23 25  1  0
 23 24  1  1
 25 27  1  0
 26 19  1  0
 25 26  1  1
 27 29  2  0
 27 28  1  0
M  END
$$$$
