YII.pdb
     RDKit          3D

 29 29  0  0  1  0  0  0  0  0999 V2000
    8.0612  -23.0385   16.3635 O   0  0  0  0  0  0  0  0  0  0  0  0
    8.5108  -22.1811   17.3847 C   0  0  0  0  0  0  0  0  0  0  0  0
    7.7874  -21.0513   17.6866 C   0  0  0  0  0  0  0  0  0  0  0  0
    8.2195  -20.2088   18.6826 C   0  0  0  0  0  0  0  0  0  0  0  0
    9.3592  -20.4530   19.3973 C   0  0  0  0  0  0  0  0  0  0  0  0
    9.8421  -19.5467   20.4829 C   0  0  0  0  0  0  0  0  0  0  0  0
   10.0151  -18.1824   19.8696 C   0  0  2  0  0  0  0  0  0  0  0  0
   11.2264  -18.1997   19.0859 N   0  0  0  0  0  0  0  0  0  0  0  0
   10.0295  -17.1027   20.8921 C   0  0  0  0  0  0  0  0  0  0  0  0
   11.1133  -16.8391   21.4714 O   0  0  0  0  0  0  0  0  0  0  0  0
   10.0617  -21.5889   19.0742 C   0  0  0  0  0  0  0  0  0  0  0  0
    9.6577  -22.4496   18.0865 C   0  0  0  0  0  0  0  0  0  0  0  0
    6.9513  -12.8367   20.1175 C   0  0  0  0  0  0  0  0  0  0  0  0
    8.0221  -13.7719   20.5710 C   0  0  0  0  0  0  0  0  0  0  0  0
    7.7031  -14.4222   21.9305 C   0  0  2  0  0  0  0  0  0  0  0  0
    7.4249  -13.2892   22.8525 C   0  0  0  0  0  0  0  0  0  0  0  0
    8.8643  -15.2877   22.2390 C   0  0  2  0  0  0  0  0  0  0  0  0
    8.8688  -16.3607   21.2378 N   0  0  0  0  0  0  0  0  0  0  0  0
    8.9592  -15.8309   23.5994 C   0  0  0  0  0  0  0  0  0  0  0  0
    8.3074  -16.9086   23.8464 O   0  0  0  0  0  0  0  0  0  0  0  0
    9.5517  -13.1137   28.5085 C   0  0  0  0  0  0  0  0  0  0  0  0
    9.1810  -13.9800   27.3374 C   0  0  0  0  0  0  0  0  0  0  0  0
   10.1943  -15.0651   27.0813 C   0  0  2  0  0  0  0  0  0  0  0  0
   11.4669  -14.3776   26.6103 C   0  0  0  0  0  0  0  0  0  0  0  0
    9.7378  -15.9730   25.9768 C   0  0  2  0  0  0  0  0  0  0  0  0
    9.6840  -15.3168   24.6851 N   0  0  0  0  0  0  0  0  0  0  0  0
    8.4673  -16.6291   26.2948 C   0  0  0  0  0  0  0  0  0  0  0  0
    7.2587  -16.3528   25.7254 O   0  0  0  0  0  0  0  0  0  0  0  0
    8.4762  -17.5428   27.1818 O   0  0  0  0  0  0  0  0  0  0  0  0
  2  1  1  0
  3  2  2  0
  4  3  1  0
  5 11  1  0
  5  4  2  0
  6  7  1  0
  6  5  1  0
  7  9  1  0
  7  8  1  1
  9 18  1  0
 10  9  2  0
 11 12  2  0
 12  2  1  0
 13 14  1  0
 15 14  1  0
 15 16  1  1
 17 18  1  6
 17 19  1  0
 17 15  1  0
 19 20  2  0
 22 23  1  0
 22 21  1  0
 23 25  1  0
 23 24  1  6
 25 27  1  0
 26 19  1  0
 25 26  1  6
 27 29  2  0
 27 28  1  0
M  END
$$$$
