MTP.pdb
     RDKit          3D

 23 23  0  0  1  0  0  0  0  0999 V2000
   29.5616  -13.7241  -15.9828 C   0  0  0  0  0  0  0  0  0  0  0  0
   28.2549  -12.6913  -16.7060 S   0  0  0  0  0  0  0  0  0  0  0  0
   27.3506  -11.9625  -15.2901 C   0  0  0  0  0  0  0  0  0  0  0  0
   26.3223  -11.0098  -15.8378 C   0  0  0  0  0  0  0  0  0  0  0  0
   24.9520  -11.5746  -15.9779 C   0  0  2  0  0  0  0  0  0  0  0  0
   24.9010  -12.8127  -16.6963 N   0  0  0  0  0  0  0  0  0  0  0  0
   23.9300  -10.5835  -16.4486 C   0  0  0  0  0  0  0  0  0  0  0  0
   23.6259  -10.5991  -17.6526 O   0  0  0  0  0  0  0  0  0  0  0  0
   20.6867  -10.7436  -16.1429 C   0  0  0  0  0  0  0  0  0  0  0  0
   21.0130   -9.4857  -15.4418 C   0  0  1  0  0  0  0  0  0  0  0  0
   21.2138   -9.8322  -14.0786 O   0  0  0  0  0  0  0  0  0  0  0  0
   22.2594   -8.7515  -15.8410 C   0  0  2  0  0  0  0  0  0  0  0  0
   23.3567   -9.6842  -15.5245 N   0  0  0  0  0  0  0  0  0  0  0  0
   22.5189   -7.4865  -15.1822 C   0  0  0  0  0  0  0  0  0  0  0  0
   23.2378   -7.5730  -14.1057 O   0  0  0  0  0  0  0  0  0  0  0  0
   22.1323   -6.1903  -15.5039 N   0  0  0  0  0  0  0  0  0  0  0  0
   21.2055   -5.8109  -16.5665 C   0  0  0  0  0  0  0  0  0  0  0  0
   21.9138   -4.5878  -17.1721 C   0  0  0  0  0  0  0  0  0  0  0  0
   22.7144   -4.0077  -16.0257 C   0  0  0  0  0  0  0  0  0  0  0  0
   22.4559   -4.9440  -14.8894 C   0  0  1  0  0  0  0  0  0  0  0  0
   21.3471   -4.4485  -14.0106 C   0  0  0  0  0  0  0  0  0  0  0  0
   21.6197   -3.4686  -13.0951 O   0  0  0  0  0  0  0  0  0  0  0  0
   20.2251   -4.9358  -14.1326 O   0  0  0  0  0  0  0  0  0  0  0  0
  2  3  1  0
  2  1  1  0
  4  3  1  0
  5  4  1  0
  5  7  1  0
  5  6  1  6
  7 13  1  0
  7  8  2  0
 10  9  1  6
 10 12  1  0
 11 10  1  0
 12 14  1  0
 12 13  1  1
 14 16  1  0
 14 15  2  0
 16 17  1  0
 17 18  1  0
 19 18  1  0
 20 16  1  0
 20 19  1  0
 20 21  1  6
 22 21  1  0
 23 21  2  0
M  END
$$$$
