MTP.pdb
     RDKit          3D

 23 23  0  0  1  0  0  0  0  0999 V2000
   29.4719  -19.1045   -7.3173 C   0  0  0  0  0  0  0  0  0  0  0  0
   28.2858  -19.6725   -6.0652 S   0  0  0  0  0  0  0  0  0  0  0  0
   26.6386  -19.5898   -6.8611 C   0  0  0  0  0  0  0  0  0  0  0  0
   26.6797  -20.4415   -8.1012 C   0  0  0  0  0  0  0  0  0  0  0  0
   25.4307  -20.4351   -8.9112 C   0  0  2  0  0  0  0  0  0  0  0  0
   24.2569  -20.8043   -8.1779 N   0  0  0  0  0  0  0  0  0  0  0  0
   25.5509  -21.1538  -10.2217 C   0  0  0  0  0  0  0  0  0  0  0  0
   25.7294  -22.3823  -10.1894 O   0  0  0  0  0  0  0  0  0  0  0  0
   22.9542  -21.7847  -12.4513 C   0  0  0  0  0  0  0  0  0  0  0  0
   23.9301  -20.9217  -13.1464 C   0  0  1  0  0  0  0  0  0  0  0  0
   23.5722  -19.5837  -12.8298 O   0  0  0  0  0  0  0  0  0  0  0  0
   25.3773  -21.0344  -12.7656 C   0  0  2  0  0  0  0  0  0  0  0  0
   25.4570  -20.4239  -11.4258 N   0  0  0  0  0  0  0  0  0  0  0  0
   26.3396  -20.3827  -13.6322 C   0  0  0  0  0  0  0  0  0  0  0  0
   26.7305  -19.2141  -13.2266 O   0  0  0  0  0  0  0  0  0  0  0  0
   26.9213  -20.7930  -14.8266 N   0  0  0  0  0  0  0  0  0  0  0  0
   26.5575  -21.9808  -15.5938 C   0  0  0  0  0  0  0  0  0  0  0  0
   27.9388  -22.5240  -15.9957 C   0  0  0  0  0  0  0  0  0  0  0  0
   28.8275  -21.2994  -16.0449 C   0  0  0  0  0  0  0  0  0  0  0  0
   27.9293  -20.1795  -15.6285 C   0  0  1  0  0  0  0  0  0  0  0  0
   27.3471  -19.4721  -16.8151 C   0  0  0  0  0  0  0  0  0  0  0  0
   28.1654  -18.6872  -17.5813 O   0  0  0  0  0  0  0  0  0  0  0  0
   26.1521  -19.6126  -17.0671 O   0  0  0  0  0  0  0  0  0  0  0  0
  2  3  1  0
  2  1  1  0
  4  3  1  0
  5  4  1  0
  5  7  1  0
  5  6  1  1
  7 13  1  0
  7  8  2  0
 10  9  1  1
 10 12  1  0
 11 10  1  0
 12 14  1  0
 12 13  1  1
 14 16  1  0
 14 15  2  0
 16 17  1  0
 17 18  1  0
 19 18  1  0
 20 16  1  0
 20 19  1  0
 20 21  1  6
 22 21  1  0
 23 21  2  0
M  END
$$$$
