MTP.pdb
     RDKit          3D

 23 23  0  0  1  0  0  0  0  0999 V2000
   17.3246  -18.8719  -14.4249 C   0  0  0  0  0  0  0  0  0  0  0  0
   18.8528  -17.9588  -14.0668 S   0  0  0  0  0  0  0  0  0  0  0  0
   20.2232  -19.0333  -14.6335 C   0  0  0  0  0  0  0  0  0  0  0  0
   19.6467  -20.0703  -15.5593 C   0  0  0  0  0  0  0  0  0  0  0  0
   20.6486  -20.9504  -16.2211 C   0  0  2  0  0  0  0  0  0  0  0  0
   20.0849  -21.8769  -17.1567 N   0  0  0  0  0  0  0  0  0  0  0  0
   21.6153  -21.5935  -15.2722 C   0  0  0  0  0  0  0  0  0  0  0  0
   21.1896  -22.5116  -14.5524 O   0  0  0  0  0  0  0  0  0  0  0  0
   24.1990  -23.7340  -15.9003 C   0  0  0  0  0  0  0  0  0  0  0  0
   24.8308  -22.5614  -15.2630 C   0  0  1  0  0  0  0  0  0  0  0  0
   25.2187  -21.6961  -16.3211 O   0  0  0  0  0  0  0  0  0  0  0  0
   23.9944  -21.7089  -14.3543 C   0  0  2  0  0  0  0  0  0  0  0  0
   22.9522  -21.1438  -15.2311 N   0  0  0  0  0  0  0  0  0  0  0  0
   24.6650  -20.6222  -13.6680 C   0  0  0  0  0  0  0  0  0  0  0  0
   24.3327  -19.4362  -14.0756 O   0  0  0  0  0  0  0  0  0  0  0  0
   25.6049  -20.6277  -12.6435 N   0  0  0  0  0  0  0  0  0  0  0  0
   26.1837  -21.8130  -12.0174 C   0  0  0  0  0  0  0  0  0  0  0  0
   26.1695  -21.4159  -10.5320 C   0  0  0  0  0  0  0  0  0  0  0  0
   26.2685  -19.9053  -10.5429 C   0  0  0  0  0  0  0  0  0  0  0  0
   26.2795  -19.5507  -11.9950 C   0  0  1  0  0  0  0  0  0  0  0  0
   27.6776  -19.3764  -12.5072 C   0  0  0  0  0  0  0  0  0  0  0  0
   28.2261  -20.3669  -13.2760 O   0  0  0  0  0  0  0  0  0  0  0  0
   28.2948  -18.3522  -12.2221 O   0  0  0  0  0  0  0  0  0  0  0  0
  2  3  1  0
  2  1  1  0
  4  3  1  0
  5  4  1  0
  5  7  1  0
  5  6  1  1
  7 13  1  0
  7  8  2  0
 10  9  1  6
 10 12  1  0
 11 10  1  0
 12 14  1  0
 12 13  1  6
 14 16  1  0
 14 15  2  0
 16 17  1  0
 17 18  1  0
 19 18  1  0
 20 16  1  0
 20 19  1  0
 20 21  1  6
 22 21  1  0
 23 21  2  0
M  END
$$$$
