MTP.pdb
     RDKit          3D

 23 23  0  0  1  0  0  0  0  0999 V2000
   23.1722  -21.4132   -7.6787 C   0  0  0  0  0  0  0  0  0  0  0  0
   23.9704  -20.8527   -9.2103 S   0  0  0  0  0  0  0  0  0  0  0  0
   25.7578  -21.1883   -8.9961 C   0  0  0  0  0  0  0  0  0  0  0  0
   26.4897  -20.5550  -10.1486 C   0  0  0  0  0  0  0  0  0  0  0  0
   25.9649  -20.9057  -11.4969 C   0  0  2  0  0  0  0  0  0  0  0  0
   25.7655  -22.3096  -11.6991 N   0  0  0  0  0  0  0  0  0  0  0  0
   26.7027  -20.2517  -12.6266 C   0  0  0  0  0  0  0  0  0  0  0  0
   27.9438  -20.2779  -12.5943 O   0  0  0  0  0  0  0  0  0  0  0  0
   27.1850  -21.4395  -15.6567 C   0  0  0  0  0  0  0  0  0  0  0  0
   26.4710  -20.1721  -15.9094 C   0  0  1  0  0  0  0  0  0  0  0  0
   25.0882  -20.4966  -15.9463 O   0  0  0  0  0  0  0  0  0  0  0  0
   26.5833  -19.0768  -14.8897 C   0  0  2  0  0  0  0  0  0  0  0  0
   25.9754  -19.6413  -13.6706 N   0  0  0  0  0  0  0  0  0  0  0  0
   25.9290  -17.8202  -15.1973 C   0  0  0  0  0  0  0  0  0  0  0  0
   24.7959  -17.6366  -14.5929 O   0  0  0  0  0  0  0  0  0  0  0  0
   26.3053  -16.7714  -16.0289 N   0  0  0  0  0  0  0  0  0  0  0  0
   27.4826  -16.7417  -16.8920 C   0  0  0  0  0  0  0  0  0  0  0  0
   27.9957  -15.3100  -16.6655 C   0  0  0  0  0  0  0  0  0  0  0  0
   26.7566  -14.5152  -16.3122 C   0  0  0  0  0  0  0  0  0  0  0  0
   25.6597  -15.5307  -16.3105 C   0  0  1  0  0  0  0  0  0  0  0  0
   24.9372  -15.5610  -17.6236 C   0  0  0  0  0  0  0  0  0  0  0  0
   25.1213  -16.6343  -18.4525 O   0  0  0  0  0  0  0  0  0  0  0  0
   24.2021  -14.6222  -17.9227 O   0  0  0  0  0  0  0  0  0  0  0  0
  2  3  1  0
  2  1  1  0
  4  3  1  0
  5  4  1  0
  5  7  1  0
  5  6  1  6
  7 13  1  0
  7  8  2  0
 10  9  1  1
 10 12  1  0
 11 10  1  0
 12 14  1  0
 12 13  1  1
 14 16  1  0
 14 15  2  0
 16 17  1  0
 17 18  1  0
 19 18  1  0
 20 16  1  0
 20 19  1  0
 20 21  1  6
 22 21  1  0
 23 21  2  0
M  END
$$$$
