MTP.pdb
     RDKit          3D

 23 23  0  0  1  0  0  0  0  0999 V2000
   20.5577  -19.3698   -8.9816 C   0  0  0  0  0  0  0  0  0  0  0  0
   21.1669  -21.0595   -8.7150 S   0  0  0  0  0  0  0  0  0  0  0  0
   21.9189  -21.5776  -10.3023 C   0  0  0  0  0  0  0  0  0  0  0  0
   22.9579  -20.5558  -10.6783 C   0  0  0  0  0  0  0  0  0  0  0  0
   24.3523  -20.9031  -10.2892 C   0  0  2  0  0  0  0  0  0  0  0  0
   24.5667  -20.9615   -8.8742 N   0  0  0  0  0  0  0  0  0  0  0  0
   25.4010  -20.1069  -11.0066 C   0  0  0  0  0  0  0  0  0  0  0  0
   26.0736  -19.3063  -10.3365 O   0  0  0  0  0  0  0  0  0  0  0  0
   28.4388  -20.9648  -11.9396 C   0  0  0  0  0  0  0  0  0  0  0  0
   27.7665  -20.6347  -13.2121 C   0  0  1  0  0  0  0  0  0  0  0  0
   27.1736  -21.8412  -13.6720 O   0  0  0  0  0  0  0  0  0  0  0  0
   26.6444  -19.6387  -13.1863 C   0  0  2  0  0  0  0  0  0  0  0  0
   25.5868  -20.2919  -12.3932 N   0  0  0  0  0  0  0  0  0  0  0  0
   26.0883  -19.2387  -14.4640 C   0  0  0  0  0  0  0  0  0  0  0  0
   24.9959  -19.8544  -14.7967 O   0  0  0  0  0  0  0  0  0  0  0  0
   26.5214  -18.3055  -15.3993 N   0  0  0  0  0  0  0  0  0  0  0  0
   27.7988  -17.5988  -15.3771 C   0  0  0  0  0  0  0  0  0  0  0  0
   27.3704  -16.1737  -15.7640 C   0  0  0  0  0  0  0  0  0  0  0  0
   26.1303  -16.3678  -16.6104 C   0  0  0  0  0  0  0  0  0  0  0  0
   25.9126  -17.8466  -16.6053 C   0  0  1  0  0  0  0  0  0  0  0  0
   26.5126  -18.4944  -17.8168 C   0  0  0  0  0  0  0  0  0  0  0  0
   25.9745  -18.2208  -19.0450 O   0  0  0  0  0  0  0  0  0  0  0  0
   27.4681  -19.2550  -17.6761 O   0  0  0  0  0  0  0  0  0  0  0  0
  2  3  1  0
  2  1  1  0
  4  3  1  0
  5  4  1  0
  5  7  1  0
  5  6  1  1
  7 13  1  0
  7  8  2  0
 10  9  1  1
 10 12  1  0
 11 10  1  0
 12 14  1  0
 12 13  1  1
 14 16  1  0
 14 15  2  0
 16 17  1  0
 17 18  1  0
 19 18  1  0
 20 16  1  0
 20 19  1  0
 20 21  1  6
 22 21  1  0
 23 21  2  0
M  END
$$$$
