MTP.pdb
     RDKit          3D

 23 23  0  0  1  0  0  0  0  0999 V2000
   17.8566  -16.3722  -17.8016 C   0  0  0  0  0  0  0  0  0  0  0  0
   18.8795  -14.9983  -17.1989 S   0  0  0  0  0  0  0  0  0  0  0  0
   20.0370  -14.6000  -18.5610 C   0  0  0  0  0  0  0  0  0  0  0  0
   20.8964  -13.4471  -18.1167 C   0  0  0  0  0  0  0  0  0  0  0  0
   21.9063  -12.9943  -19.1124 C   0  0  2  0  0  0  0  0  0  0  0  0
   22.7866  -14.0299  -19.5641 N   0  0  0  0  0  0  0  0  0  0  0  0
   22.6310  -11.7422  -18.7183 C   0  0  0  0  0  0  0  0  0  0  0  0
   23.7426  -11.8669  -18.1788 O   0  0  0  0  0  0  0  0  0  0  0  0
   23.6854   -9.0343  -20.9854 C   0  0  0  0  0  0  0  0  0  0  0  0
   22.7677   -8.4838  -19.9680 C   0  0  1  0  0  0  0  0  0  0  0  0
   21.4641   -8.5587  -20.5280 O   0  0  0  0  0  0  0  0  0  0  0  0
   22.6621   -9.1906  -18.6484 C   0  0  2  0  0  0  0  0  0  0  0  0
   22.0377  -10.4869  -18.9709 N   0  0  0  0  0  0  0  0  0  0  0  0
   21.8807   -8.5419  -17.6139 C   0  0  0  0  0  0  0  0  0  0  0  0
   20.6183   -8.8409  -17.6199 O   0  0  0  0  0  0  0  0  0  0  0  0
   22.2487   -7.6527  -16.6103 N   0  0  0  0  0  0  0  0  0  0  0  0
   23.5679   -7.0507  -16.4397 C   0  0  0  0  0  0  0  0  0  0  0  0
   23.7602   -7.1540  -14.9177 C   0  0  0  0  0  0  0  0  0  0  0  0
   22.3548   -7.1242  -14.3556 C   0  0  0  0  0  0  0  0  0  0  0  0
   21.4791   -7.0601  -15.5653 C   0  0  1  0  0  0  0  0  0  0  0  0
   21.0903   -5.6486  -15.8879 C   0  0  0  0  0  0  0  0  0  0  0  0
   21.5568   -5.0844  -17.0441 O   0  0  0  0  0  0  0  0  0  0  0  0
   20.3668   -5.0349  -15.1062 O   0  0  0  0  0  0  0  0  0  0  0  0
  2  3  1  0
  2  1  1  0
  4  3  1  0
  5  4  1  0
  5  7  1  0
  5  6  1  1
  7 13  1  0
  7  8  2  0
 10  9  1  6
 10 12  1  0
 11 10  1  0
 12 14  1  0
 12 13  1  6
 14 16  1  0
 14 15  2  0
 16 17  1  0
 17 18  1  0
 19 18  1  0
 20 16  1  0
 20 19  1  0
 20 21  1  6
 22 21  1  0
 23 21  2  0
M  END
$$$$
