MTP.pdb
     RDKit          3D

 23 23  0  0  1  0  0  0  0  0999 V2000
   18.9343  -27.3442   -8.9175 C   0  0  0  0  0  0  0  0  0  0  0  0
   17.2792  -27.6030   -9.6180 S   0  0  0  0  0  0  0  0  0  0  0  0
   17.1118  -26.3825  -10.9730 C   0  0  0  0  0  0  0  0  0  0  0  0
   18.4921  -26.0570  -11.4767 C   0  0  0  0  0  0  0  0  0  0  0  0
   18.6005  -25.8879  -12.9518 C   0  0  2  0  0  0  0  0  0  0  0  0
   17.7962  -26.8026  -13.7054 N   0  0  0  0  0  0  0  0  0  0  0  0
   20.0110  -25.8005  -13.4528 C   0  0  0  0  0  0  0  0  0  0  0  0
   20.6892  -26.8408  -13.4453 O   0  0  0  0  0  0  0  0  0  0  0  0
   21.4462  -25.9464  -16.4245 C   0  0  0  0  0  0  0  0  0  0  0  0
   21.7037  -24.5760  -15.9387 C   0  0  1  0  0  0  0  0  0  0  0  0
   20.5638  -23.8075  -16.2973 O   0  0  0  0  0  0  0  0  0  0  0  0
   21.8636  -24.3631  -14.4618 C   0  0  2  0  0  0  0  0  0  0  0  0
   20.5110  -24.5625  -13.9097 N   0  0  0  0  0  0  0  0  0  0  0  0
   22.3559  -23.0691  -14.0319 C   0  0  0  0  0  0  0  0  0  0  0  0
   21.4325  -22.2201  -13.7009 O   0  0  0  0  0  0  0  0  0  0  0  0
   23.6503  -22.5764  -13.9096 N   0  0  0  0  0  0  0  0  0  0  0  0
   24.8741  -23.2792  -14.2841 C   0  0  0  0  0  0  0  0  0  0  0  0
   25.7979  -22.9422  -13.1020 C   0  0  0  0  0  0  0  0  0  0  0  0
   25.2980  -21.6043  -12.6001 C   0  0  0  0  0  0  0  0  0  0  0  0
   24.1229  -21.3028  -13.4734 C   0  0  1  0  0  0  0  0  0  0  0  0
   24.5058  -20.4232  -14.6253 C   0  0  0  0  0  0  0  0  0  0  0  0
   24.7621  -19.1001  -14.3874 O   0  0  0  0  0  0  0  0  0  0  0  0
   24.5768  -20.9110  -15.7515 O   0  0  0  0  0  0  0  0  0  0  0  0
  2  3  1  0
  2  1  1  0
  4  3  1  0
  5  4  1  0
  5  7  1  0
  5  6  1  6
  7 13  1  0
  7  8  2  0
 10  9  1  1
 10 12  1  0
 11 10  1  0
 12 14  1  0
 12 13  1  1
 14 16  1  0
 14 15  2  0
 16 17  1  0
 17 18  1  0
 19 18  1  0
 20 16  1  0
 20 19  1  0
 20 21  1  6
 22 21  1  0
 23 21  2  0
M  END
$$$$
