MTP.pdb
     RDKit          3D

 23 23  0  0  1  0  0  0  0  0999 V2000
   11.1704  -10.1449  -15.7114 C   0  0  0  0  0  0  0  0  0  0  0  0
   12.7780   -9.9954  -14.8806 S   0  0  0  0  0  0  0  0  0  0  0  0
   13.9624  -10.9439  -15.9059 C   0  0  0  0  0  0  0  0  0  0  0  0
   15.3413  -10.7239  -15.3445 C   0  0  0  0  0  0  0  0  0  0  0  0
   16.4348  -11.4318  -16.0651 C   0  0  2  0  0  0  0  0  0  0  0  0
   16.2455  -12.8478  -16.1685 N   0  0  0  0  0  0  0  0  0  0  0  0
   17.8111  -11.0587  -15.6012 C   0  0  0  0  0  0  0  0  0  0  0  0
   18.3496  -11.7889  -14.7532 O   0  0  0  0  0  0  0  0  0  0  0  0
   20.8529  -11.2103  -17.3336 C   0  0  0  0  0  0  0  0  0  0  0  0
   20.6237   -9.7905  -16.9991 C   0  0  1  0  0  0  0  0  0  0  0  0
   19.8993   -9.2383  -18.0895 O   0  0  0  0  0  0  0  0  0  0  0  0
   19.8001   -9.4695  -15.7864 C   0  0  2  0  0  0  0  0  0  0  0  0
   18.4377   -9.9127  -16.1354 N   0  0  0  0  0  0  0  0  0  0  0  0
   19.7467   -8.0804  -15.3747 C   0  0  0  0  0  0  0  0  0  0  0  0
   18.6962   -7.4351  -15.7783 O   0  0  0  0  0  0  0  0  0  0  0  0
   20.6271   -7.3152  -14.6181 N   0  0  0  0  0  0  0  0  0  0  0  0
   21.9143   -7.7594  -14.0913 C   0  0  0  0  0  0  0  0  0  0  0  0
   21.8899   -7.1645  -12.6736 C   0  0  0  0  0  0  0  0  0  0  0  0
   21.0099   -5.9385  -12.7925 C   0  0  0  0  0  0  0  0  0  0  0  0
   20.5629   -5.9470  -14.2189 C   0  0  1  0  0  0  0  0  0  0  0  0
   21.4325   -5.0735  -15.0723 C   0  0  0  0  0  0  0  0  0  0  0  0
   21.3314   -3.7149  -14.9423 O   0  0  0  0  0  0  0  0  0  0  0  0
   22.2098   -5.5985  -15.8668 O   0  0  0  0  0  0  0  0  0  0  0  0
  2  3  1  0
  2  1  1  0
  4  3  1  0
  5  4  1  0
  5  7  1  0
  5  6  1  1
  7 13  1  0
  7  8  2  0
 10  9  1  6
 10 12  1  0
 11 10  1  0
 12 14  1  0
 12 13  1  6
 14 16  1  0
 14 15  2  0
 16 17  1  0
 17 18  1  0
 19 18  1  0
 20 16  1  0
 20 19  1  0
 20 21  1  6
 22 21  1  0
 23 21  2  0
M  END
$$$$
