MTP.pdb
     RDKit          3D

 23 23  0  0  1  0  0  0  0  0999 V2000
   25.2395  -14.8735  -14.2641 C   0  0  0  0  0  0  0  0  0  0  0  0
   25.1299  -15.6599  -15.8971 S   0  0  0  0  0  0  0  0  0  0  0  0
   23.7954  -16.9069  -15.7645 C   0  0  0  0  0  0  0  0  0  0  0  0
   22.7278  -16.3492  -14.8622 C   0  0  0  0  0  0  0  0  0  0  0  0
   21.4189  -16.0885  -15.5218 C   0  0  2  0  0  0  0  0  0  0  0  0
   20.8791  -17.2192  -16.2159 N   0  0  0  0  0  0  0  0  0  0  0  0
   21.3884  -14.8319  -16.3393 C   0  0  0  0  0  0  0  0  0  0  0  0
   21.7763  -14.9026  -17.5169 O   0  0  0  0  0  0  0  0  0  0  0  0
   18.8186  -13.4697  -17.8467 C   0  0  0  0  0  0  0  0  0  0  0  0
   19.2471  -12.4337  -16.8859 C   0  0  1  0  0  0  0  0  0  0  0  0
   18.5530  -12.7037  -15.6759 O   0  0  0  0  0  0  0  0  0  0  0  0
   20.6953  -12.3802  -16.4963 C   0  0  2  0  0  0  0  0  0  0  0  0
   20.9265  -13.6334  -15.7547 N   0  0  0  0  0  0  0  0  0  0  0  0
   21.1147  -11.2657  -15.6694 C   0  0  0  0  0  0  0  0  0  0  0  0
   21.2112  -11.5353  -14.4041 O   0  0  0  0  0  0  0  0  0  0  0  0
   21.4351   -9.9527  -15.9961 N   0  0  0  0  0  0  0  0  0  0  0  0
   21.2720   -9.3313  -17.3073 C   0  0  0  0  0  0  0  0  0  0  0  0
   22.5814   -8.5359  -17.4373 C   0  0  0  0  0  0  0  0  0  0  0  0
   22.9766   -8.2212  -16.0102 C   0  0  0  0  0  0  0  0  0  0  0  0
   21.9221   -8.8852  -15.1846 C   0  0  1  0  0  0  0  0  0  0  0  0
   20.8331   -7.9256  -14.8093 C   0  0  0  0  0  0  0  0  0  0  0  0
   21.0735   -7.0097  -13.8212 O   0  0  0  0  0  0  0  0  0  0  0  0
   19.7541   -7.9879  -15.3950 O   0  0  0  0  0  0  0  0  0  0  0  0
  2  3  1  0
  2  1  1  0
  4  3  1  0
  5  4  1  0
  5  7  1  0
  5  6  1  6
  7 13  1  0
  7  8  2  0
 10  9  1  6
 10 12  1  0
 11 10  1  0
 12 14  1  0
 12 13  1  1
 14 16  1  0
 14 15  2  0
 16 17  1  0
 17 18  1  0
 19 18  1  0
 20 16  1  0
 20 19  1  0
 20 21  1  6
 22 21  1  0
 23 21  2  0
M  END
$$$$
