MTP.pdb
     RDKit          3D

 23 23  0  0  1  0  0  0  0  0999 V2000
   22.1217  -21.7551   11.5882 C   0  0  0  0  0  0  0  0  0  0  0  0
   20.6844  -20.9781   10.7961 S   0  0  0  0  0  0  0  0  0  0  0  0
   20.7752  -19.2003   11.2260 C   0  0  0  0  0  0  0  0  0  0  0  0
   21.9002  -18.5890   10.4349 C   0  0  0  0  0  0  0  0  0  0  0  0
   22.1912  -17.1639   10.7520 C   0  0  2  0  0  0  0  0  0  0  0  0
   21.1542  -16.2554   10.3639 N   0  0  0  0  0  0  0  0  0  0  0  0
   23.5551  -16.7111   10.3241 C   0  0  0  0  0  0  0  0  0  0  0  0
   23.6292  -15.9691    9.3310 O   0  0  0  0  0  0  0  0  0  0  0  0
   26.2275  -15.7815   13.1718 C   0  0  0  0  0  0  0  0  0  0  0  0
   26.2707  -15.5242   11.7185 C   0  0  1  0  0  0  0  0  0  0  0  0
   27.5824  -15.0560   11.4376 O   0  0  0  0  0  0  0  0  0  0  0  0
   26.0657  -16.6810   10.7849 C   0  0  2  0  0  0  0  0  0  0  0  0
   24.6879  -17.1335   11.0519 N   0  0  0  0  0  0  0  0  0  0  0  0
   26.9628  -17.8108   10.9283 C   0  0  0  0  0  0  0  0  0  0  0  0
   26.4649  -18.8202   11.5734 O   0  0  0  0  0  0  0  0  0  0  0  0
   28.2687  -18.0042   10.4920 N   0  0  0  0  0  0  0  0  0  0  0  0
   29.1035  -17.0129    9.8194 C   0  0  0  0  0  0  0  0  0  0  0  0
   29.7641  -17.8604    8.7196 C   0  0  0  0  0  0  0  0  0  0  0  0
   29.8049  -19.2606    9.2937 C   0  0  0  0  0  0  0  0  0  0  0  0
   29.1360  -19.1293   10.6240 C   0  0  1  0  0  0  0  0  0  0  0  0
   30.1355  -18.9396   11.7251 C   0  0  0  0  0  0  0  0  0  0  0  0
   30.9737  -19.9746   12.0397 O   0  0  0  0  0  0  0  0  0  0  0  0
   30.1744  -17.8631   12.3175 O   0  0  0  0  0  0  0  0  0  0  0  0
  2  3  1  0
  2  1  1  0
  4  3  1  0
  5  4  1  0
  5  7  1  0
  5  6  1  6
  7 13  1  0
  7  8  2  0
 10  9  1  1
 10 12  1  0
 11 10  1  0
 12 14  1  0
 12 13  1  1
 14 16  1  0
 14 15  2  0
 16 17  1  0
 17 18  1  0
 19 18  1  0
 20 16  1  0
 20 19  1  0
 20 21  1  1
 22 21  1  0
 23 21  2  0
M  END
$$$$
