WRR.pdb
     RDKit          3D

 37 38  0  0  1  0  0  0  0  0999 V2000
    7.9616  -18.3529   25.0667 N   0  0  0  0  0  0  0  0  0  0  0  0
    7.6939  -16.9948   24.7589 C   0  0  1  0  0  0  0  0  0  0  0  0
    8.0061  -15.9971   25.8357 C   0  0  0  0  0  0  0  0  0  0  0  0
    6.9212  -15.0589   26.1517 C   0  0  0  0  0  0  0  0  0  0  0  0
    5.5725  -15.2973   26.3141 C   0  0  0  0  0  0  0  0  0  0  0  0
    4.9718  -14.1479   26.5611 N   0  0  0  0  0  0  0  0  0  0  0  0
    5.8590  -13.1169   26.5765 C   0  0  0  0  0  0  0  0  0  0  0  0
    5.7032  -11.7666   26.7911 C   0  0  0  0  0  0  0  0  0  0  0  0
    6.8072  -10.9527   26.7497 C   0  0  0  0  0  0  0  0  0  0  0  0
    8.0334  -11.5015   26.4972 C   0  0  0  0  0  0  0  0  0  0  0  0
    8.2008  -12.8445   26.2820 C   0  0  0  0  0  0  0  0  0  0  0  0
    7.1061  -13.7018   26.3147 C   0  0  0  0  0  0  0  0  0  0  0  0
    8.3943  -16.5620   23.4892 C   0  0  0  0  0  0  0  0  0  0  0  0
    9.5176  -17.0396   23.2244 O   0  0  0  0  0  0  0  0  0  0  0  0
    8.5695  -15.4274   15.3663 N   0  0  0  0  0  0  0  0  0  0  0  0
    8.7483  -14.1177   15.9464 C   0  0  0  0  0  0  0  0  0  0  0  0
    8.4123  -13.0674   15.2984 N   0  0  0  0  0  0  0  0  0  0  0  0
    9.2948  -13.9655   17.2486 N   0  0  0  0  0  0  0  0  0  0  0  0
    8.7108  -14.6054   18.4119 C   0  0  0  0  0  0  0  0  0  0  0  0
    8.2779  -13.5799   19.4411 C   0  0  0  0  0  0  0  0  0  0  0  0
    7.6501  -14.1920   20.6398 C   0  0  0  0  0  0  0  0  0  0  0  0
    8.4236  -15.2227   21.3576 C   0  0  2  0  0  0  0  0  0  0  0  0
    7.7915  -15.6239   22.5986 N   0  0  0  0  0  0  0  0  0  0  0  0
    9.8794  -14.9641   21.5003 C   0  0  0  0  0  0  0  0  0  0  0  0
   10.2377  -14.0463   22.2742 O   0  0  0  0  0  0  0  0  0  0  0  0
    8.5181  -12.1196   15.6955 N   0  0  0  0  0  0  0  0  0  0  0  0
   13.1658  -20.4855   21.9709 C   0  0  0  0  0  0  0  0  0  0  0  0
   12.3178  -20.7337   20.8481 N   0  0  0  0  0  0  0  0  0  0  0  0
   11.3817  -21.6102   20.9329 N   0  0  0  0  0  0  0  0  0  0  0  0
   12.4729  -20.0349   19.6230 C   0  0  0  0  0  0  0  0  0  0  0  0
   13.2017  -18.8158   19.4990 C   0  0  0  0  0  0  0  0  0  0  0  0
   12.3261  -17.5664   19.6719 C   0  0  0  0  0  0  0  0  0  0  0  0
   12.9867  -16.7570   20.7359 C   0  0  1  0  0  0  0  0  0  0  0  0
   12.3357  -15.4212   21.0164 N   0  0  0  0  0  0  0  0  0  0  0  0
   10.8948  -15.6788   20.8242 C   0  0  0  0  0  0  0  0  0  0  0  0
   12.7967  -14.3972   20.0429 O   0  0  0  0  0  0  0  0  0  0  0  0
   13.9490  -13.6578   20.2678 O   0  0  0  0  0  0  0  0  0  0  0  0
  2  1  1  1
  2  3  1  0
  3  4  1  0
  4 12  1  0
  4  5  2  0
  5  6  1  0
  7  6  1  0
  7  8  2  0
  9  8  1  0
 10  9  2  0
 11 12  2  0
 11 10  1  0
 12  7  1  0
 13  2  1  0
 14 13  2  0
 15 16  1  0
 16 18  1  0
 17 16  2  0
 18 19  1  0
 19 20  1  0
 20 21  1  0
 22 21  1  1
 22 24  1  0
 22 23  1  0
 23 13  1  0
 24 34  1  0
 25 24  2  0
 27 29  1  0
 27 26  1  0
 28 27  2  0
 30 31  1  0
 30 29  1  0
 32 31  1  0
 33 32  1  1
 34 33  1  0
 35 36  1  0
 35 33  1  0
 37 35  2  0
M  END
$$$$
