WRR.pdb
     RDKit          3D

 37 38  0  0  1  0  0  0  0  0999 V2000
    7.0676  -18.1256   25.8271 N   0  0  0  0  0  0  0  0  0  0  0  0
    7.8412  -17.0848   25.2533 C   0  0  1  0  0  0  0  0  0  0  0  0
    9.2785  -17.0150   25.6797 C   0  0  0  0  0  0  0  0  0  0  0  0
    9.4975  -16.6091   27.0740 C   0  0  0  0  0  0  0  0  0  0  0  0
    9.8534  -17.3725   28.1662 C   0  0  0  0  0  0  0  0  0  0  0  0
    9.9069  -16.5867   29.2257 N   0  0  0  0  0  0  0  0  0  0  0  0
    9.6002  -15.3006   28.9064 C   0  0  0  0  0  0  0  0  0  0  0  0
    9.5300  -14.1523   29.6615 C   0  0  0  0  0  0  0  0  0  0  0  0
    9.1923  -12.9712   29.0500 C   0  0  0  0  0  0  0  0  0  0  0  0
    8.9345  -12.9632   27.7076 C   0  0  0  0  0  0  0  0  0  0  0  0
    9.0011  -14.1001   26.9455 C   0  0  0  0  0  0  0  0  0  0  0  0
    9.3390  -15.3167   27.5289 C   0  0  0  0  0  0  0  0  0  0  0  0
    7.7929  -17.1224   23.7413 C   0  0  0  0  0  0  0  0  0  0  0  0
    7.9793  -18.2101   23.1564 O   0  0  0  0  0  0  0  0  0  0  0  0
    8.2146  -15.1480   16.8966 N   0  0  0  0  0  0  0  0  0  0  0  0
    7.5703  -13.8614   16.7813 C   0  0  0  0  0  0  0  0  0  0  0  0
    7.5897  -13.2206   15.6746 N   0  0  0  0  0  0  0  0  0  0  0  0
    6.8972  -13.2812   17.8893 N   0  0  0  0  0  0  0  0  0  0  0  0
    7.5928  -12.9009   19.1040 C   0  0  0  0  0  0  0  0  0  0  0  0
    8.2675  -14.0973   19.7458 C   0  0  0  0  0  0  0  0  0  0  0  0
    7.6403  -14.4948   21.0319 C   0  0  0  0  0  0  0  0  0  0  0  0
    8.1825  -15.6876   21.7095 C   0  0  2  0  0  0  0  0  0  0  0  0
    7.5382  -15.9406   22.9830 N   0  0  0  0  0  0  0  0  0  0  0  0
    9.6634  -15.7841   21.7745 C   0  0  0  0  0  0  0  0  0  0  0  0
   10.2083  -15.6732   22.8972 O   0  0  0  0  0  0  0  0  0  0  0  0
    7.1483  -12.2925   15.5693 N   0  0  0  0  0  0  0  0  0  0  0  0
   14.4480  -22.4055   22.5646 C   0  0  0  0  0  0  0  0  0  0  0  0
   13.6776  -21.6804   23.5250 N   0  0  0  0  0  0  0  0  0  0  0  0
   13.4730  -22.1794   24.6915 N   0  0  0  0  0  0  0  0  0  0  0  0
   13.1225  -20.4076   23.2334 C   0  0  0  0  0  0  0  0  0  0  0  0
   12.4310  -20.1089   22.0230 C   0  0  0  0  0  0  0  0  0  0  0  0
   12.8767  -18.7871   21.3811 C   0  0  0  0  0  0  0  0  0  0  0  0
   11.6597  -17.9261   21.3484 C   0  0  1  0  0  0  0  0  0  0  0  0
   11.8707  -16.5473   20.7639 N   0  0  0  0  0  0  0  0  0  0  0  0
   10.5071  -15.9914   20.6592 C   0  0  0  0  0  0  0  0  0  0  0  0
   12.4811  -16.6375   19.4119 O   0  0  0  0  0  0  0  0  0  0  0  0
   11.7465  -17.0726   18.3182 O   0  0  0  0  0  0  0  0  0  0  0  0
  2  1  1  1
  2  3  1  0
  3  4  1  0
  4 12  1  0
  4  5  2  0
  5  6  1  0
  7  6  1  0
  7  8  2  0
  9  8  1  0
 10  9  2  0
 11 12  2  0
 11 10  1  0
 12  7  1  0
 13  2  1  0
 14 13  2  0
 15 16  1  0
 16 18  1  0
 17 16  2  0
 18 19  1  0
 19 20  1  0
 20 21  1  0
 22 21  1  1
 22 24  1  0
 22 23  1  0
 23 13  1  0
 24 34  1  0
 25 24  2  0
 27 29  1  0
 27 26  1  0
 28 27  2  0
 30 31  1  0
 30 29  1  0
 32 31  1  0
 33 32  1  1
 34 33  1  0
 35 36  1  0
 35 33  1  0
 37 35  2  0
M  END
$$$$
