WRR.pdb
     RDKit          3D

 37 38  0  0  1  0  0  0  0  0999 V2000
    6.3211  -17.7899   25.1048 N   0  0  0  0  0  0  0  0  0  0  0  0
    6.9546  -16.5678   24.7646 C   0  0  1  0  0  0  0  0  0  0  0  0
    8.2215  -16.2496   25.5038 C   0  0  0  0  0  0  0  0  0  0  0  0
    8.0735  -15.3068   26.6200 C   0  0  0  0  0  0  0  0  0  0  0  0
    8.3527  -15.4798   27.9596 C   0  0  0  0  0  0  0  0  0  0  0  0
    8.0355  -14.3694   28.5993 N   0  0  0  0  0  0  0  0  0  0  0  0
    7.5449  -13.4285   27.7483 C   0  0  0  0  0  0  0  0  0  0  0  0
    7.0962  -12.1434   27.9504 C   0  0  0  0  0  0  0  0  0  0  0  0
    6.6549  -11.4139   26.8752 C   0  0  0  0  0  0  0  0  0  0  0  0
    6.6718  -11.9799   25.6310 C   0  0  0  0  0  0  0  0  0  0  0  0
    7.1162  -13.2585   25.4175 C   0  0  0  0  0  0  0  0  0  0  0  0
    7.5703  -14.0300   26.4820 C   0  0  0  0  0  0  0  0  0  0  0  0
    7.2326  -16.4779   23.2798 C   0  0  0  0  0  0  0  0  0  0  0  0
    7.3830  -17.5321   22.6271 O   0  0  0  0  0  0  0  0  0  0  0  0
    8.1114  -15.6155   16.7642 N   0  0  0  0  0  0  0  0  0  0  0  0
    8.0060  -14.2929   16.1954 C   0  0  0  0  0  0  0  0  0  0  0  0
    8.3907  -14.0673   14.9967 N   0  0  0  0  0  0  0  0  0  0  0  0
    7.4692  -13.2156   16.9496 N   0  0  0  0  0  0  0  0  0  0  0  0
    6.9103  -13.4024   18.2750 C   0  0  0  0  0  0  0  0  0  0  0  0
    8.0016  -13.4640   19.3255 C   0  0  0  0  0  0  0  0  0  0  0  0
    7.4805  -13.7550   20.6853 C   0  0  0  0  0  0  0  0  0  0  0  0
    7.7592  -15.0907   21.2458 C   0  0  2  0  0  0  0  0  0  0  0  0
    7.3233  -15.2144   22.6226 N   0  0  0  0  0  0  0  0  0  0  0  0
    9.1272  -15.6220   21.0160 C   0  0  0  0  0  0  0  0  0  0  0  0
    9.4815  -15.8343   19.8332 O   0  0  0  0  0  0  0  0  0  0  0  0
    8.4571  -13.1109   14.6118 N   0  0  0  0  0  0  0  0  0  0  0  0
   16.5429  -14.4243   21.6799 C   0  0  0  0  0  0  0  0  0  0  0  0
   16.4137  -13.9784   20.3286 N   0  0  0  0  0  0  0  0  0  0  0  0
   17.2612  -13.1417   19.8457 N   0  0  0  0  0  0  0  0  0  0  0  0
   15.3673  -14.4347   19.4859 C   0  0  0  0  0  0  0  0  0  0  0  0
   13.9884  -14.3824   19.8443 C   0  0  0  0  0  0  0  0  0  0  0  0
   13.5471  -15.5583   20.7275 C   0  0  0  0  0  0  0  0  0  0  0  0
   12.1053  -15.3195   21.0235 C   0  0  1  0  0  0  0  0  0  0  0  0
   11.4157  -16.4365   21.7745 N   0  0  0  0  0  0  0  0  0  0  0  0
   10.0625  -15.9081   22.0369 C   0  0  0  0  0  0  0  0  0  0  0  0
   12.1066  -16.7088   23.0618 O   0  0  0  0  0  0  0  0  0  0  0  0
   13.2711  -17.4617   23.1084 O   0  0  0  0  0  0  0  0  0  0  0  0
  2  1  1  6
  2  3  1  0
  3  4  1  0
  4 12  1  0
  4  5  2  0
  5  6  1  0
  7  6  1  0
  7  8  2  0
  9  8  1  0
 10  9  2  0
 11 12  2  0
 11 10  1  0
 12  7  1  0
 13  2  1  0
 14 13  2  0
 15 16  1  0
 16 18  1  0
 17 16  2  0
 18 19  1  0
 19 20  1  0
 20 21  1  0
 22 21  1  1
 22 24  1  0
 22 23  1  0
 23 13  1  0
 24 34  1  0
 25 24  2  0
 27 29  1  0
 27 26  1  0
 28 27  2  0
 30 31  1  0
 30 29  1  0
 32 31  1  0
 33 32  1  6
 34 33  1  0
 35 36  1  0
 35 33  1  0
 37 35  2  0
M  END
$$$$
