WRR.pdb
     RDKit          3D

 37 38  0  0  1  0  0  0  0  0999 V2000
    8.2465  -14.5568   22.9915 N   0  0  0  0  0  0  0  0  0  0  0  0
    8.3826  -15.7605   23.7287 C   0  0  1  0  0  0  0  0  0  0  0  0
    7.2595  -16.0938   24.6668 C   0  0  0  0  0  0  0  0  0  0  0  0
    6.6415  -14.9417   25.3357 C   0  0  0  0  0  0  0  0  0  0  0  0
    5.3366  -14.7576   25.7428 C   0  0  0  0  0  0  0  0  0  0  0  0
    5.2303  -13.5534   26.2733 N   0  0  0  0  0  0  0  0  0  0  0  0
    6.4193  -12.8931   26.2492 C   0  0  0  0  0  0  0  0  0  0  0  0
    6.7903  -11.6411   26.6835 C   0  0  0  0  0  0  0  0  0  0  0  0
    8.0933  -11.2399   26.5277 C   0  0  0  0  0  0  0  0  0  0  0  0
    8.9903  -12.0918   25.9463 C   0  0  0  0  0  0  0  0  0  0  0  0
    8.6326  -13.3407   25.5100 C   0  0  0  0  0  0  0  0  0  0  0  0
    7.3214  -13.7833   25.6493 C   0  0  0  0  0  0  0  0  0  0  0  0
    8.6143  -16.9481   22.8200 C   0  0  0  0  0  0  0  0  0  0  0  0
    8.5731  -18.0985   23.3047 O   0  0  0  0  0  0  0  0  0  0  0  0
    9.9582  -19.1607   14.1365 N   0  0  0  0  0  0  0  0  0  0  0  0
   10.3657  -19.5751   15.4579 C   0  0  0  0  0  0  0  0  0  0  0  0
   11.4484  -20.2345   15.6284 N   0  0  0  0  0  0  0  0  0  0  0  0
    9.5791  -19.2566   16.5969 N   0  0  0  0  0  0  0  0  0  0  0  0
   10.0786  -19.4127   17.9498 C   0  0  0  0  0  0  0  0  0  0  0  0
   10.7548  -18.1448   18.4331 C   0  0  0  0  0  0  0  0  0  0  0  0
    9.8686  -17.3003   19.2739 C   0  0  0  0  0  0  0  0  0  0  0  0
    9.8857  -17.5405   20.7292 C   0  0  2  0  0  0  0  0  0  0  0  0
    8.8760  -16.7707   21.4284 N   0  0  0  0  0  0  0  0  0  0  0  0
   11.2182  -17.4870   21.3835 C   0  0  0  0  0  0  0  0  0  0  0  0
   11.6779  -16.3609   21.6838 O   0  0  0  0  0  0  0  0  0  0  0  0
   11.8059  -20.4700   16.5685 N   0  0  0  0  0  0  0  0  0  0  0  0
   12.9619  -23.8373   26.3291 C   0  0  0  0  0  0  0  0  0  0  0  0
   12.0431  -22.7958   26.6648 N   0  0  0  0  0  0  0  0  0  0  0  0
   11.2211  -22.9555   27.6396 N   0  0  0  0  0  0  0  0  0  0  0  0
   12.0057  -21.5706   25.9502 C   0  0  0  0  0  0  0  0  0  0  0  0
   12.8328  -21.2910   24.8230 C   0  0  0  0  0  0  0  0  0  0  0  0
   12.6198  -19.8827   24.2498 C   0  0  0  0  0  0  0  0  0  0  0  0
   13.5212  -19.7904   23.0656 C   0  0  2  0  0  0  0  0  0  0  0  0
   13.3739  -18.5254   22.2500 N   0  0  0  0  0  0  0  0  0  0  0  0
   12.0100  -18.6167   21.6926 C   0  0  0  0  0  0  0  0  0  0  0  0
   14.3668  -18.4942   21.1446 O   0  0  0  0  0  0  0  0  0  0  0  0
   15.6704  -18.0706   21.3600 O   0  0  0  0  0  0  0  0  0  0  0  0
  2  1  1  6
  2  3  1  0
  3  4  1  0
  4 12  1  0
  4  5  2  0
  5  6  1  0
  7  6  1  0
  7  8  2  0
  9  8  1  0
 10  9  2  0
 11 12  2  0
 11 10  1  0
 12  7  1  0
 13  2  1  0
 14 13  2  0
 15 16  1  0
 16 18  1  0
 17 16  2  0
 18 19  1  0
 19 20  1  0
 20 21  1  0
 22 21  1  6
 22 24  1  0
 22 23  1  0
 23 13  1  0
 24 34  1  0
 25 24  2  0
 27 29  1  0
 27 26  1  0
 28 27  2  0
 30 31  1  0
 30 29  1  0
 32 31  1  0
 33 32  1  1
 34 33  1  0
 35 36  1  0
 35 33  1  0
 37 35  2  0
M  END
$$$$
