WRR.pdb
     RDKit          3D

 37 38  0  0  1  0  0  0  0  0999 V2000
    6.7770  -17.0703   25.3630 N   0  0  0  0  0  0  0  0  0  0  0  0
    7.2144  -15.8444   24.8003 C   0  0  1  0  0  0  0  0  0  0  0  0
    8.3834  -15.1861   25.4728 C   0  0  0  0  0  0  0  0  0  0  0  0
    8.0522  -14.3846   26.6581 C   0  0  0  0  0  0  0  0  0  0  0  0
    8.3757  -14.5978   27.9818 C   0  0  0  0  0  0  0  0  0  0  0  0
    7.8388  -13.6319   28.7040 N   0  0  0  0  0  0  0  0  0  0  0  0
    7.1523  -12.7526   27.9257 C   0  0  0  0  0  0  0  0  0  0  0  0
    6.4455  -11.6102   28.2244 C   0  0  0  0  0  0  0  0  0  0  0  0
    5.8493  -10.9092   27.2065 C   0  0  0  0  0  0  0  0  0  0  0  0
    5.9717  -11.3612   25.9223 C   0  0  0  0  0  0  0  0  0  0  0  0
    6.6728  -12.4971   25.6127 C   0  0  0  0  0  0  0  0  0  0  0  0
    7.2903  -13.2356   26.6167 C   0  0  0  0  0  0  0  0  0  0  0  0
    7.5294  -15.9878   23.3272 C   0  0  0  0  0  0  0  0  0  0  0  0
    7.8432  -17.1116   22.8817 O   0  0  0  0  0  0  0  0  0  0  0  0
    7.6128  -15.8066   15.4070 N   0  0  0  0  0  0  0  0  0  0  0  0
    8.2136  -14.4960   15.4794 C   0  0  0  0  0  0  0  0  0  0  0  0
    8.3526  -13.7846   14.4256 N   0  0  0  0  0  0  0  0  0  0  0  0
    8.6579  -13.9651   16.7196 N   0  0  0  0  0  0  0  0  0  0  0  0
    7.8607  -14.0526   17.9282 C   0  0  0  0  0  0  0  0  0  0  0  0
    8.5921  -13.4491   19.1111 C   0  0  0  0  0  0  0  0  0  0  0  0
    7.8653  -13.6278   20.3938 C   0  0  0  0  0  0  0  0  0  0  0  0
    8.1444  -14.8539   21.1651 C   0  0  2  0  0  0  0  0  0  0  0  0
    7.4719  -14.8644   22.4490 N   0  0  0  0  0  0  0  0  0  0  0  0
    9.5705  -15.2611   21.2491 C   0  0  0  0  0  0  0  0  0  0  0  0
   10.2438  -14.8381   22.2172 O   0  0  0  0  0  0  0  0  0  0  0  0
    8.8690  -12.8899   14.4309 N   0  0  0  0  0  0  0  0  0  0  0  0
   11.0866  -22.6566   20.3275 C   0  0  0  0  0  0  0  0  0  0  0  0
   12.4220  -22.1806   20.1496 N   0  0  0  0  0  0  0  0  0  0  0  0
   13.3577  -23.0010   19.8288 N   0  0  0  0  0  0  0  0  0  0  0  0
   12.7579  -20.8120   20.3153 C   0  0  0  0  0  0  0  0  0  0  0  0
   12.8561  -19.8889   19.2333 C   0  0  0  0  0  0  0  0  0  0  0  0
   13.0616  -18.4380   19.6916 C   0  0  0  0  0  0  0  0  0  0  0  0
   11.6940  -17.8965   19.9366 C   0  0  1  0  0  0  0  0  0  0  0  0
   11.6530  -16.4625   20.4150 N   0  0  0  0  0  0  0  0  0  0  0  0
   10.2274  -16.0928   20.3134 C   0  0  0  0  0  0  0  0  0  0  0  0
   12.4626  -15.5888   19.5261 O   0  0  0  0  0  0  0  0  0  0  0  0
   13.7929  -15.3118   19.8068 O   0  0  0  0  0  0  0  0  0  0  0  0
  2  1  1  1
  2  3  1  0
  3  4  1  0
  4 12  1  0
  4  5  2  0
  5  6  1  0
  7  6  1  0
  7  8  2  0
  9  8  1  0
 10  9  2  0
 11 12  2  0
 11 10  1  0
 12  7  1  0
 13  2  1  0
 14 13  2  0
 15 16  1  0
 16 18  1  0
 17 16  2  0
 18 19  1  0
 19 20  1  0
 20 21  1  0
 22 21  1  1
 22 24  1  0
 22 23  1  0
 23 13  1  0
 24 34  1  0
 25 24  2  0
 27 29  1  0
 27 26  1  0
 28 27  2  0
 30 31  1  0
 30 29  1  0
 32 31  1  0
 33 32  1  1
 34 33  1  0
 35 36  1  0
 35 33  1  0
 37 35  2  0
M  END
$$$$
