WRR.pdb
     RDKit          3D

 37 38  0  0  1  0  0  0  0  0999 V2000
    6.7169  -18.2172   25.1631 N   0  0  0  0  0  0  0  0  0  0  0  0
    6.9744  -16.8898   24.7359 C   0  0  1  0  0  0  0  0  0  0  0  0
    7.7771  -16.0358   25.6733 C   0  0  0  0  0  0  0  0  0  0  0  0
    6.9971  -15.0816   26.4721 C   0  0  0  0  0  0  0  0  0  0  0  0
    6.1300  -15.3140   27.5192 C   0  0  0  0  0  0  0  0  0  0  0  0
    5.6322  -14.1569   27.9142 N   0  0  0  0  0  0  0  0  0  0  0  0
    6.1252  -13.1260   27.1763 C   0  0  0  0  0  0  0  0  0  0  0  0
    5.9051  -11.7684   27.2221 C   0  0  0  0  0  0  0  0  0  0  0  0
    6.5634  -10.9555   26.3339 C   0  0  0  0  0  0  0  0  0  0  0  0
    7.4208  -11.5124   25.4266 C   0  0  0  0  0  0  0  0  0  0  0  0
    7.6479  -12.8627   25.3715 C   0  0  0  0  0  0  0  0  0  0  0  0
    6.9988  -13.7196   26.2541 C   0  0  0  0  0  0  0  0  0  0  0  0
    7.6380  -16.8602   23.3762 C   0  0  0  0  0  0  0  0  0  0  0  0
    8.4435  -17.7662   23.0757 O   0  0  0  0  0  0  0  0  0  0  0  0
    8.9902  -14.9706   16.7935 N   0  0  0  0  0  0  0  0  0  0  0  0
    8.0962  -13.9244   16.3575 C   0  0  0  0  0  0  0  0  0  0  0  0
    7.8329  -13.7688   15.1156 N   0  0  0  0  0  0  0  0  0  0  0  0
    7.4854  -13.0496   17.2951 N   0  0  0  0  0  0  0  0  0  0  0  0
    8.0534  -12.8035   18.6069 C   0  0  0  0  0  0  0  0  0  0  0  0
    8.5032  -14.0957   19.2597 C   0  0  0  0  0  0  0  0  0  0  0  0
    7.7869  -14.3834   20.5283 C   0  0  0  0  0  0  0  0  0  0  0  0
    8.1521  -15.6188   21.2470 C   0  0  2  0  0  0  0  0  0  0  0  0
    7.3560  -15.8193   22.4415 N   0  0  0  0  0  0  0  0  0  0  0  0
    9.6042  -15.8393   21.4688 C   0  0  0  0  0  0  0  0  0  0  0  0
   10.1405  -15.2669   22.4457 O   0  0  0  0  0  0  0  0  0  0  0  0
    7.2208  -13.0098   14.7747 N   0  0  0  0  0  0  0  0  0  0  0  0
   15.7762  -19.7323   19.3821 C   0  0  0  0  0  0  0  0  0  0  0  0
   15.6344  -20.8973   20.1970 N   0  0  0  0  0  0  0  0  0  0  0  0
   16.4376  -21.8887   20.0436 N   0  0  0  0  0  0  0  0  0  0  0  0
   14.6233  -21.0005   21.1872 C   0  0  0  0  0  0  0  0  0  0  0  0
   13.3494  -20.3695   21.0802 C   0  0  0  0  0  0  0  0  0  0  0  0
   13.4384  -18.8414   20.9602 C   0  0  0  0  0  0  0  0  0  0  0  0
   12.0281  -18.3590   20.9168 C   0  0  1  0  0  0  0  0  0  0  0  0
   11.8694  -16.8551   20.9092 N   0  0  0  0  0  0  0  0  0  0  0  0
   10.4297  -16.6493   20.6557 C   0  0  0  0  0  0  0  0  0  0  0  0
   12.6644  -16.2484   19.8098 O   0  0  0  0  0  0  0  0  0  0  0  0
   12.1776  -16.2006   18.5114 O   0  0  0  0  0  0  0  0  0  0  0  0
  2  1  1  1
  2  3  1  0
  3  4  1  0
  4 12  1  0
  4  5  2  0
  5  6  1  0
  7  6  1  0
  7  8  2  0
  9  8  1  0
 10  9  2  0
 11 12  2  0
 11 10  1  0
 12  7  1  0
 13  2  1  0
 14 13  2  0
 15 16  1  0
 16 18  1  0
 17 16  2  0
 18 19  1  0
 19 20  1  0
 20 21  1  0
 22 21  1  1
 22 24  1  0
 22 23  1  0
 23 13  1  0
 24 34  1  0
 25 24  2  0
 27 29  1  0
 27 26  1  0
 28 27  2  0
 30 31  1  0
 30 29  1  0
 32 31  1  0
 33 32  1  1
 34 33  1  0
 35 36  1  0
 35 33  1  0
 37 35  2  0
M  END
$$$$
