MAG.pdb
     RDKit          3D

 18 17  0  0  1  0  0  0  0  0999 V2000
   28.0941  -12.6208  -14.7198 C   0  0  0  0  0  0  0  0  0  0  0  0
   27.5691  -13.6425  -16.1010 S   0  0  0  0  0  0  0  0  0  0  0  0
   25.9356  -13.0960  -16.7249 C   0  0  0  0  0  0  0  0  0  0  0  0
   25.9737  -11.6057  -16.8061 C   0  0  0  0  0  0  0  0  0  0  0  0
   24.7102  -10.9728  -17.3184 C   0  0  2  0  0  0  0  0  0  0  0  0
   24.0944  -11.8593  -18.2847 N   0  0  0  0  0  0  0  0  0  0  0  0
   24.8825   -9.6531  -17.9307 C   0  0  0  0  0  0  0  0  0  0  0  0
   25.5630   -9.4357  -18.9795 O   0  0  0  0  0  0  0  0  0  0  0  0
   23.0335   -7.2488  -19.1091 C   0  0  0  0  0  0  0  0  0  0  0  0
   24.1578   -7.2482  -18.1036 C   0  0  2  0  0  0  0  0  0  0  0  0
   24.2785   -8.4758  -17.3752 N   0  0  0  0  0  0  0  0  0  0  0  0
   23.8570   -6.1759  -17.1324 C   0  0  0  0  0  0  0  0  0  0  0  0
   23.8333   -4.9912  -17.5283 O   0  0  0  0  0  0  0  0  0  0  0  0
   23.5929   -6.4469  -15.7592 N   0  0  0  0  0  0  0  0  0  0  0  0
   23.4173   -5.3780  -14.8227 C   0  0  0  0  0  0  0  0  0  0  0  0
   21.9788   -5.0669  -14.6574 C   0  0  0  0  0  0  0  0  0  0  0  0
   21.1634   -5.6132  -15.4716 O   0  0  0  0  0  0  0  0  0  0  0  0
   21.4776   -4.2268  -13.6803 O   0  0  0  0  0  0  0  0  0  0  0  0
  2  3  1  0
  2  1  1  0
  4  3  1  0
  5  4  1  0
  5  6  1  6
  7  5  1  0
  7 11  1  0
  8  7  2  0
 10  9  1  6
 10 11  1  0
 10 12  1  0
 12 14  1  0
 12 13  2  0
 14 15  1  0
 15 16  1  0
 16 18  1  0
 17 16  2  0
M  END
$$$$
