MAG.pdb
     RDKit          3D

 18 17  0  0  1  0  0  0  0  0999 V2000
   21.9198  -12.4827    6.9996 C   0  0  0  0  0  0  0  0  0  0  0  0
   21.2135  -11.2599    5.8891 S   0  0  0  0  0  0  0  0  0  0  0  0
   19.4901  -11.7023    5.4527 C   0  0  0  0  0  0  0  0  0  0  0  0
   19.1402  -12.9253    6.2342 C   0  0  0  0  0  0  0  0  0  0  0  0
   17.7726  -13.4811    5.9506 C   0  0  2  0  0  0  0  0  0  0  0  0
   16.7736  -12.5311    6.3956 N   0  0  0  0  0  0  0  0  0  0  0  0
   17.4935  -14.7822    6.5635 C   0  0  0  0  0  0  0  0  0  0  0  0
   17.0128  -14.9347    7.7279 O   0  0  0  0  0  0  0  0  0  0  0  0
   16.9070  -18.3046    5.5465 C   0  0  0  0  0  0  0  0  0  0  0  0
   17.5390  -17.2978    6.4749 C   0  0  2  0  0  0  0  0  0  0  0  0
   17.7496  -16.0145    5.8742 N   0  0  0  0  0  0  0  0  0  0  0  0
   18.8605  -17.8409    6.8524 C   0  0  0  0  0  0  0  0  0  0  0  0
   19.8302  -17.6580    6.0862 O   0  0  0  0  0  0  0  0  0  0  0  0
   19.0666  -18.5660    8.0609 N   0  0  0  0  0  0  0  0  0  0  0  0
   20.3467  -19.1305    8.3666 C   0  0  0  0  0  0  0  0  0  0  0  0
   21.2595  -18.0881    8.8896 C   0  0  0  0  0  0  0  0  0  0  0  0
   21.8860  -17.3759    8.0372 O   0  0  0  0  0  0  0  0  0  0  0  0
   21.4671  -17.8479   10.2353 O   0  0  0  0  0  0  0  0  0  0  0  0
  2  3  1  0
  2  1  1  0
  4  3  1  0
  5  4  1  0
  5  6  1  1
  7  5  1  0
  7 11  1  0
  8  7  2  0
 10  9  1  6
 10 11  1  0
 10 12  1  0
 12 14  1  0
 12 13  2  0
 14 15  1  0
 15 16  1  0
 16 18  1  0
 17 16  2  0
M  END
$$$$
