MAG.pdb
     RDKit          3D

 18 17  0  0  1  0  0  0  0  0999 V2000
   18.7027  -15.7043  -16.3286 C   0  0  0  0  0  0  0  0  0  0  0  0
   17.3663  -14.9087  -15.4295 S   0  0  0  0  0  0  0  0  0  0  0  0
   17.0438  -13.2342  -16.0993 C   0  0  0  0  0  0  0  0  0  0  0  0
   18.2549  -12.4083  -15.8164 C   0  0  0  0  0  0  0  0  0  0  0  0
   18.2014  -11.0088  -16.3623 C   0  0  2  0  0  0  0  0  0  0  0  0
   18.0341  -11.0672  -17.8000 N   0  0  0  0  0  0  0  0  0  0  0  0
   19.3694  -10.1792  -16.0558 C   0  0  0  0  0  0  0  0  0  0  0  0
   19.8139   -9.9765  -14.8847 O   0  0  0  0  0  0  0  0  0  0  0  0
   22.1544   -8.5086  -18.0340 C   0  0  0  0  0  0  0  0  0  0  0  0
   21.3005   -8.7534  -16.8151 C   0  0  2  0  0  0  0  0  0  0  0  0
   20.1182   -9.5160  -17.0849 N   0  0  0  0  0  0  0  0  0  0  0  0
   20.8777   -7.4266  -16.3206 C   0  0  0  0  0  0  0  0  0  0  0  0
   19.9238   -6.8480  -16.8829 O   0  0  0  0  0  0  0  0  0  0  0  0
   21.5209   -6.7844  -15.2240 N   0  0  0  0  0  0  0  0  0  0  0  0
   21.0933   -5.4922  -14.7792 C   0  0  0  0  0  0  0  0  0  0  0  0
   21.9727   -5.0025  -13.6928 C   0  0  0  0  0  0  0  0  0  0  0  0
   22.8053   -5.8300  -13.1944 O   0  0  0  0  0  0  0  0  0  0  0  0
   21.9407   -3.7129  -13.1954 O   0  0  0  0  0  0  0  0  0  0  0  0
  2  3  1  0
  2  1  1  0
  4  3  1  0
  5  4  1  0
  5  6  1  6
  7  5  1  0
  7 11  1  0
  8  7  2  0
 10  9  1  6
 10 11  1  0
 10 12  1  0
 12 14  1  0
 12 13  2  0
 14 15  1  0
 15 16  1  0
 16 18  1  0
 17 16  2  0
M  END
$$$$
