MAG.pdb
     RDKit          3D

 18 17  0  0  1  0  0  0  0  0999 V2000
   28.4311  -19.4640   -4.7028 C   0  0  0  0  0  0  0  0  0  0  0  0
   27.4867  -19.2659   -6.2182 S   0  0  0  0  0  0  0  0  0  0  0  0
   28.3907  -19.9825   -7.6414 C   0  0  0  0  0  0  0  0  0  0  0  0
   27.6293  -19.6179   -8.8728 C   0  0  0  0  0  0  0  0  0  0  0  0
   26.4538  -20.5065   -9.1697 C   0  0  2  0  0  0  0  0  0  0  0  0
   26.9308  -21.8455   -9.4488 N   0  0  0  0  0  0  0  0  0  0  0  0
   25.6086  -20.0646  -10.2818 C   0  0  0  0  0  0  0  0  0  0  0  0
   25.0164  -18.9433  -10.3271 O   0  0  0  0  0  0  0  0  0  0  0  0
   24.9913  -20.9999  -13.8626 C   0  0  0  0  0  0  0  0  0  0  0  0
   24.5342  -20.4906  -12.5185 C   0  0  2  0  0  0  0  0  0  0  0  0
   25.3810  -20.8893  -11.4341 N   0  0  0  0  0  0  0  0  0  0  0  0
   23.1949  -21.0677  -12.2798 C   0  0  0  0  0  0  0  0  0  0  0  0
   22.5478  -20.6985  -11.2769 O   0  0  0  0  0  0  0  0  0  0  0  0
   22.6160  -22.0310  -13.1548 N   0  0  0  0  0  0  0  0  0  0  0  0
   21.2975  -22.5368  -12.9172 C   0  0  0  0  0  0  0  0  0  0  0  0
   20.2832  -21.6315  -13.5046 C   0  0  0  0  0  0  0  0  0  0  0  0
   19.2512  -21.3724  -12.8016 O   0  0  0  0  0  0  0  0  0  0  0  0
   20.3926  -21.0589  -14.7582 O   0  0  0  0  0  0  0  0  0  0  0  0
  2  3  1  0
  2  1  1  0
  4  3  1  0
  5  4  1  0
  5  6  1  6
  7  5  1  0
  7 11  1  0
  8  7  2  0
 10  9  1  6
 10 11  1  0
 10 12  1  0
 12 14  1  0
 12 13  2  0
 14 15  1  0
 15 16  1  0
 16 18  1  0
 17 16  2  0
M  END
$$$$
