MAG.pdb
     RDKit          3D

 18 17  0  0  1  0  0  0  0  0999 V2000
   15.7000  -13.2110  -18.1591 C   0  0  0  0  0  0  0  0  0  0  0  0
   16.4027  -11.6211  -17.7053 S   0  0  0  0  0  0  0  0  0  0  0  0
   16.8595  -11.5991  -15.9313 C   0  0  0  0  0  0  0  0  0  0  0  0
   17.3921  -10.2367  -15.6327 C   0  0  0  0  0  0  0  0  0  0  0  0
   17.8411  -10.0360  -14.2123 C   0  0  2  0  0  0  0  0  0  0  0  0
   16.7003  -10.1765  -13.3306 N   0  0  0  0  0  0  0  0  0  0  0  0
   18.4904   -8.7505  -13.9436 C   0  0  0  0  0  0  0  0  0  0  0  0
   17.8769   -7.7053  -13.5678 O   0  0  0  0  0  0  0  0  0  0  0  0
   22.0564   -7.3833  -13.9234 C   0  0  0  0  0  0  0  0  0  0  0  0
   20.5502   -7.3030  -13.9264 C   0  0  2  0  0  0  0  0  0  0  0  0
   19.9069   -8.5725  -14.0893 N   0  0  0  0  0  0  0  0  0  0  0  0
   20.1733   -6.4560  -15.0772 C   0  0  0  0  0  0  0  0  0  0  0  0
   19.9559   -6.9987  -16.1813 O   0  0  0  0  0  0  0  0  0  0  0  0
   20.0493   -5.0411  -14.9706 N   0  0  0  0  0  0  0  0  0  0  0  0
   19.7432   -4.2445  -16.1204 C   0  0  0  0  0  0  0  0  0  0  0  0
   19.6232   -2.8173  -15.7432 C   0  0  0  0  0  0  0  0  0  0  0  0
   19.4953   -2.5472  -14.5035 O   0  0  0  0  0  0  0  0  0  0  0  0
   19.6419   -1.7744  -16.6508 O   0  0  0  0  0  0  0  0  0  0  0  0
  2  3  1  0
  2  1  1  0
  4  3  1  0
  5  4  1  0
  5  6  1  1
  7  5  1  0
  7 11  1  0
  8  7  2  0
 10  9  1  6
 10 11  1  0
 10 12  1  0
 12 14  1  0
 12 13  2  0
 14 15  1  0
 15 16  1  0
 16 18  1  0
 17 16  2  0
M  END
$$$$
