MAG.pdb
     RDKit          3D

 18 17  0  0  1  0  0  0  0  0999 V2000
   27.5795  -15.9614  -17.4854 C   0  0  0  0  0  0  0  0  0  0  0  0
   27.2194  -16.8360  -15.9582 S   0  0  0  0  0  0  0  0  0  0  0  0
   25.8596  -16.0129  -15.0472 C   0  0  0  0  0  0  0  0  0  0  0  0
   25.5116  -14.7742  -15.8045 C   0  0  0  0  0  0  0  0  0  0  0  0
   24.4079  -13.9556  -15.1952 C   0  0  2  0  0  0  0  0  0  0  0  0
   23.1926  -14.7436  -15.1694 N   0  0  0  0  0  0  0  0  0  0  0  0
   24.1331  -12.6853  -15.8714 C   0  0  0  0  0  0  0  0  0  0  0  0
   24.9751  -11.7437  -15.9920 O   0  0  0  0  0  0  0  0  0  0  0  0
   21.3074  -11.1507  -17.9102 C   0  0  0  0  0  0  0  0  0  0  0  0
   22.5247  -11.1257  -17.0199 C   0  0  2  0  0  0  0  0  0  0  0  0
   22.8568  -12.4034  -16.4638 N   0  0  0  0  0  0  0  0  0  0  0  0
   22.2117  -10.2144  -15.8996 C   0  0  0  0  0  0  0  0  0  0  0  0
   21.7553  -10.6938  -14.8401 O   0  0  0  0  0  0  0  0  0  0  0  0
   22.4128   -8.8070  -15.9865 N   0  0  0  0  0  0  0  0  0  0  0  0
   22.1512   -7.9594  -14.8623 C   0  0  0  0  0  0  0  0  0  0  0  0
   20.8196   -7.3243  -14.9928 C   0  0  0  0  0  0  0  0  0  0  0  0
   20.1473   -7.5828  -16.0452 O   0  0  0  0  0  0  0  0  0  0  0  0
   20.2722   -6.4768  -14.0475 O   0  0  0  0  0  0  0  0  0  0  0  0
  2  3  1  0
  2  1  1  0
  4  3  1  0
  5  4  1  0
  5  6  1  6
  7  5  1  0
  7 11  1  0
  8  7  2  0
 10  9  1  6
 10 11  1  0
 10 12  1  0
 12 14  1  0
 12 13  2  0
 14 15  1  0
 15 16  1  0
 16 18  1  0
 17 16  2  0
M  END
$$$$
