MAG.pdb
     RDKit          3D

 18 17  0  0  1  0  0  0  0  0999 V2000
   27.6656  -12.5516  -15.0689 C   0  0  0  0  0  0  0  0  0  0  0  0
   26.7416  -13.7297  -16.0616 S   0  0  0  0  0  0  0  0  0  0  0  0
   26.7997  -13.2676  -17.8335 C   0  0  0  0  0  0  0  0  0  0  0  0
   25.9146  -12.0777  -18.0054 C   0  0  0  0  0  0  0  0  0  0  0  0
   24.4469  -12.3586  -17.8427 C   0  0  2  0  0  0  0  0  0  0  0  0
   24.0170  -13.2567  -18.8948 N   0  0  0  0  0  0  0  0  0  0  0  0
   23.5848  -11.1741  -17.8511 C   0  0  0  0  0  0  0  0  0  0  0  0
   23.3748  -10.4509  -18.8723 O   0  0  0  0  0  0  0  0  0  0  0  0
   20.6031   -9.8705  -16.4113 C   0  0  0  0  0  0  0  0  0  0  0  0
   22.0604   -9.5671  -16.6544 C   0  0  2  0  0  0  0  0  0  0  0  0
   22.8949  -10.7312  -16.6732 N   0  0  0  0  0  0  0  0  0  0  0  0
   22.5071   -8.7106  -15.5361 C   0  0  0  0  0  0  0  0  0  0  0  0
   23.2177   -9.2108  -14.6384 O   0  0  0  0  0  0  0  0  0  0  0  0
   22.1551   -7.3334  -15.4465 N   0  0  0  0  0  0  0  0  0  0  0  0
   22.5863   -6.5383  -14.3364 C   0  0  0  0  0  0  0  0  0  0  0  0
   22.1267   -5.1392  -14.4933 C   0  0  0  0  0  0  0  0  0  0  0  0
   21.5421   -4.8329  -15.5845 O   0  0  0  0  0  0  0  0  0  0  0  0
   22.2945   -4.1588  -13.5330 O   0  0  0  0  0  0  0  0  0  0  0  0
  2  3  1  0
  2  1  1  0
  4  3  1  0
  5  4  1  0
  5  6  1  6
  7  5  1  0
  7 11  1  0
  8  7  2  0
 10  9  1  1
 10 11  1  0
 10 12  1  0
 12 14  1  0
 12 13  2  0
 14 15  1  0
 15 16  1  0
 16 18  1  0
 17 16  2  0
M  END
$$$$
