MAG.pdb
     RDKit          3D

 18 17  0  0  1  0  0  0  0  0999 V2000
   32.2041  -38.6554   -7.9035 C   0  0  0  0  0  0  0  0  0  0  0  0
   33.8435  -37.9394   -8.0678 S   0  0  0  0  0  0  0  0  0  0  0  0
   33.9227  -36.3086   -7.2368 C   0  0  0  0  0  0  0  0  0  0  0  0
   32.6896  -36.1801   -6.4051 C   0  0  0  0  0  0  0  0  0  0  0  0
   32.6106  -34.9191   -5.5908 C   0  0  2  0  0  0  0  0  0  0  0  0
   33.6218  -34.9605   -4.5543 N   0  0  0  0  0  0  0  0  0  0  0  0
   31.3084  -34.6628   -4.9704 C   0  0  0  0  0  0  0  0  0  0  0  0
   31.0845  -34.7363   -3.7235 O   0  0  0  0  0  0  0  0  0  0  0  0
   27.8999  -33.3792   -6.0886 C   0  0  0  0  0  0  0  0  0  0  0  0
   28.8677  -34.0770   -5.1658 C   0  0  2  0  0  0  0  0  0  0  0  0
   30.1577  -34.2998   -5.7473 N   0  0  0  0  0  0  0  0  0  0  0  0
   28.2799  -35.3965   -4.8545 C   0  0  0  0  0  0  0  0  0  0  0  0
   28.5082  -36.3559   -5.6215 O   0  0  0  0  0  0  0  0  0  0  0  0
   27.4613  -35.6122   -3.7091 N   0  0  0  0  0  0  0  0  0  0  0  0
   26.9777  -36.9220   -3.3911 C   0  0  0  0  0  0  0  0  0  0  0  0
   26.0481  -36.8642   -2.2396 C   0  0  0  0  0  0  0  0  0  0  0  0
   26.5577  -36.6981   -1.0824 O   0  0  0  0  0  0  0  0  0  0  0  0
   24.6747  -36.9791   -2.3493 O   0  0  0  0  0  0  0  0  0  0  0  0
  2  3  1  0
  2  1  1  0
  4  3  1  0
  5  4  1  0
  5  6  1  1
  7  5  1  0
  7 11  1  0
  8  7  2  0
 10  9  1  6
 10 11  1  0
 10 12  1  0
 12 14  1  0
 12 13  2  0
 14 15  1  0
 15 16  1  0
 16 18  1  0
 17 16  2  0
M  END
$$$$
