RTK.pdb
     RDKit          3D

 28 27  0  0  1  0  0  0  0  0999 V2000
    7.3670  -12.2992   17.5060 N   0  0  0  0  0  0  0  0  0  0  0  0
    8.1467  -12.4251   18.6937 C   0  0  0  0  0  0  0  0  0  0  0  0
    8.8852  -11.4458   19.0448 N   0  0  0  0  0  0  0  0  0  0  0  0
    8.1296  -13.5967   19.4905 N   0  0  0  0  0  0  0  0  0  0  0  0
    7.1511  -14.6220   19.2038 C   0  0  0  0  0  0  0  0  0  0  0  0
    7.7306  -15.5063   18.0933 C   0  0  0  0  0  0  0  0  0  0  0  0
    8.9499  -16.1720   18.7114 C   0  0  0  0  0  0  0  0  0  0  0  0
    9.7111  -17.0139   17.7098 C   0  0  2  0  0  0  0  0  0  0  0  0
    8.9022  -18.0963   17.2363 N   0  0  0  0  0  0  0  0  0  0  0  0
   10.9263  -17.5102   18.4389 C   0  0  0  0  0  0  0  0  0  0  0  0
   10.9485  -18.6348   18.9952 O   0  0  0  0  0  0  0  0  0  0  0  0
    8.9243  -10.5290   18.5499 C   0  0  0  0  0  0  0  0  0  0  0  0
   14.5017  -16.6135   16.9099 C   0  0  2  0  0  0  0  0  0  0  0  0
   14.4895  -16.4487   18.4029 O   0  0  0  0  0  0  0  0  0  0  0  0
   14.4078  -15.0909   18.6746 C   0  0  2  0  0  0  0  0  0  0  0  0
   13.3125  -17.1573   19.0233 N   0  0  0  0  0  0  0  0  0  0  0  0
   12.0529  -16.6702   18.4817 C   0  0  0  0  0  0  0  0  0  0  0  0
   13.2983  -16.8114   20.4693 O   0  0  0  0  0  0  0  0  0  0  0  0
   12.6049  -15.8344   20.9216 N   0  0  0  0  0  0  0  0  0  0  0  0
   14.0365  -17.5211   21.4545 C   0  0  1  0  0  0  0  0  0  0  0  0
   13.9007  -17.1932   22.8619 C   0  0  0  0  0  0  0  0  0  0  0  0
   14.0201  -18.4476   23.6978 C   0  0  0  0  0  0  0  0  0  0  0  0
   13.8666  -18.1430   25.1585 C   0  0  0  0  0  0  0  0  0  0  0  0
   13.8905  -19.4029   25.9915 C   0  0  0  0  0  0  0  0  0  0  0  0
   13.5132  -19.1586   27.4315 N   0  0  0  0  0  0  0  0  0  0  0  0
   13.3273  -20.4106   28.1411 C   0  0  0  0  0  0  0  0  0  0  0  0
   14.9310  -16.2077   23.2716 O   0  0  0  0  0  0  0  0  0  0  0  0
   15.9729  -16.1136   22.5927 O   0  0  0  0  0  0  0  0  0  0  0  0
  2  3  2  0
  2  1  1  0
  4  2  1  0
  5  4  1  0
  6  5  1  0
  7  8  1  0
  7  6  1  0
  8  9  1  1
 10  8  1  0
 10 11  2  0
 13 12  1  1
 13 15  1  0
 14 13  1  0
 15 16  1  1
 16 10  1  0
 17 15  1  0
 18 17  2  0
 19 17  1  0
 20 19  1  0
 20 26  1  0
 20 21  1  1
 22 21  1  0
 23 22  1  0
 24 23  1  0
 25 24  1  0
 26 28  1  0
 27 26  2  0
M  END
$$$$
