RTK.pdb
     RDKit          3D

 28 27  0  0  1  0  0  0  0  0999 V2000
    9.9293  -14.5657   16.5673 N   0  0  0  0  0  0  0  0  0  0  0  0
    8.7089  -13.9470   16.9700 C   0  0  0  0  0  0  0  0  0  0  0  0
    7.6226  -14.3252   16.4182 N   0  0  0  0  0  0  0  0  0  0  0  0
    8.6643  -12.9301   17.9558 N   0  0  0  0  0  0  0  0  0  0  0  0
    7.5070  -12.8439   18.8183 C   0  0  0  0  0  0  0  0  0  0  0  0
    7.3335  -14.2134   19.4854 C   0  0  0  0  0  0  0  0  0  0  0  0
    7.6635  -13.9855   20.9520 C   0  0  0  0  0  0  0  0  0  0  0  0
    8.1598  -15.2452   21.6290 C   0  0  2  0  0  0  0  0  0  0  0  0
    7.0970  -16.1922   21.7832 N   0  0  0  0  0  0  0  0  0  0  0  0
    8.7033  -14.8036   22.9572 C   0  0  0  0  0  0  0  0  0  0  0  0
    9.6530  -13.9880   23.0434 O   0  0  0  0  0  0  0  0  0  0  0  0
    6.6704  -14.0390   16.7321 C   0  0  0  0  0  0  0  0  0  0  0  0
    7.2601  -12.9646   25.8079 C   0  0  2  0  0  0  0  0  0  0  0  0
    7.5871  -14.3478   26.2940 O   0  0  0  0  0  0  0  0  0  0  0  0
    6.4201  -15.0962   26.2462 C   0  0  2  0  0  0  0  0  0  0  0  0
    8.6375  -14.9985   25.4307 N   0  0  0  0  0  0  0  0  0  0  0  0
    8.1115  -15.3354   24.1165 C   0  0  0  0  0  0  0  0  0  0  0  0
    8.9999  -16.2906   26.0709 O   0  0  0  0  0  0  0  0  0  0  0  0
    8.3820  -17.3772   25.7925 N   0  0  0  0  0  0  0  0  0  0  0  0
   10.0426  -16.4292   27.0263 C   0  0  1  0  0  0  0  0  0  0  0  0
   10.3381  -17.7207   27.6192 C   0  0  0  0  0  0  0  0  0  0  0  0
   11.6644  -18.2333   27.1049 C   0  0  0  0  0  0  0  0  0  0  0  0
   12.0215  -19.5454   27.7378 C   0  0  0  0  0  0  0  0  0  0  0  0
   13.3665  -20.0412   27.2613 C   0  0  0  0  0  0  0  0  0  0  0  0
   13.7515  -21.3652   27.8735 N   0  0  0  0  0  0  0  0  0  0  0  0
   15.0343  -21.8188   27.3694 C   0  0  0  0  0  0  0  0  0  0  0  0
   10.3689  -17.6225   29.0991 O   0  0  0  0  0  0  0  0  0  0  0  0
   10.4137  -16.4918   29.6233 O   0  0  0  0  0  0  0  0  0  0  0  0
  2  3  2  0
  2  1  1  0
  4  2  1  0
  5  4  1  0
  6  5  1  0
  7  8  1  0
  7  6  1  0
  8  9  1  1
 10  8  1  0
 10 11  2  0
 13 12  1  1
 13 15  1  0
 14 13  1  0
 15 16  1  1
 16 10  1  0
 17 15  1  0
 18 17  2  0
 19 17  1  0
 20 19  1  0
 20 26  1  0
 20 21  1  1
 22 21  1  0
 23 22  1  0
 24 23  1  0
 25 24  1  0
 26 28  1  0
 27 26  2  0
M  END
$$$$
