RTK.pdb
     RDKit          3D

 28 27  0  0  1  0  0  0  0  0999 V2000
    9.2171  -11.4392   19.9529 N   0  0  0  0  0  0  0  0  0  0  0  0
    8.3719  -12.4495   20.4999 C   0  0  0  0  0  0  0  0  0  0  0  0
    8.3318  -12.5904   21.7673 N   0  0  0  0  0  0  0  0  0  0  0  0
    7.5814  -13.2984   19.6861 N   0  0  0  0  0  0  0  0  0  0  0  0
    7.9459  -13.4724   18.2977 C   0  0  0  0  0  0  0  0  0  0  0  0
    7.7906  -14.9621   17.9697 C   0  0  0  0  0  0  0  0  0  0  0  0
    9.1023  -15.6016   18.3962 C   0  0  0  0  0  0  0  0  0  0  0  0
   10.0548  -15.7830   17.2337 C   0  0  2  0  0  0  0  0  0  0  0  0
    9.5454  -16.7459   16.3045 N   0  0  0  0  0  0  0  0  0  0  0  0
   11.3525  -16.2333   17.8402 C   0  0  0  0  0  0  0  0  0  0  0  0
   11.6495  -17.4487   17.9358 O   0  0  0  0  0  0  0  0  0  0  0  0
    7.8293  -13.3596   22.2600 C   0  0  0  0  0  0  0  0  0  0  0  0
   14.6768  -14.9230   16.7751 C   0  0  2  0  0  0  0  0  0  0  0  0
   14.6436  -14.7968   18.2716 O   0  0  0  0  0  0  0  0  0  0  0  0
   14.4482  -13.4576   18.5755 C   0  0  2  0  0  0  0  0  0  0  0  0
   13.5263  -15.6156   18.8663 N   0  0  0  0  0  0  0  0  0  0  0  0
   12.2370  -15.2436   18.3037 C   0  0  0  0  0  0  0  0  0  0  0  0
   13.4539  -15.2823   20.3135 O   0  0  0  0  0  0  0  0  0  0  0  0
   12.4923  -14.5891   20.7980 N   0  0  0  0  0  0  0  0  0  0  0  0
   14.4246  -15.6966   21.2650 C   0  0  1  0  0  0  0  0  0  0  0  0
   14.0730  -15.8479   22.6651 C   0  0  0  0  0  0  0  0  0  0  0  0
   12.9749  -16.8768   22.8131 C   0  0  0  0  0  0  0  0  0  0  0  0
   12.6571  -17.1274   24.2574 C   0  0  0  0  0  0  0  0  0  0  0  0
   11.5088  -18.0969   24.4108 C   0  0  0  0  0  0  0  0  0  0  0  0
   11.2014  -18.4151   25.8530 N   0  0  0  0  0  0  0  0  0  0  0  0
   10.1099  -19.3657   25.9555 C   0  0  0  0  0  0  0  0  0  0  0  0
   15.2581  -16.2492   23.4620 O   0  0  0  0  0  0  0  0  0  0  0  0
   15.1996  -16.1671   24.7050 O   0  0  0  0  0  0  0  0  0  0  0  0
  2  3  2  0
  2  1  1  0
  4  2  1  0
  5  4  1  0
  6  5  1  0
  7  8  1  0
  7  6  1  0
  8  9  1  6
 10  8  1  0
 10 11  2  0
 13 12  1  1
 13 15  1  0
 14 13  1  0
 15 16  1  1
 16 10  1  0
 17 15  1  0
 18 17  2  0
 19 17  1  0
 20 19  1  0
 20 26  1  0
 20 21  1  1
 22 21  1  0
 23 22  1  0
 24 23  1  0
 25 24  1  0
 26 28  1  0
 27 26  2  0
M  END
$$$$
