RTK.pdb
     RDKit          3D

 28 27  0  0  1  0  0  0  0  0999 V2000
    7.2908  -12.8853   14.3205 N   0  0  0  0  0  0  0  0  0  0  0  0
    7.4945  -14.2970   14.3109 C   0  0  0  0  0  0  0  0  0  0  0  0
    6.8963  -14.9932   13.4249 N   0  0  0  0  0  0  0  0  0  0  0  0
    8.3331  -14.9478   15.2496 N   0  0  0  0  0  0  0  0  0  0  0  0
    8.9418  -14.1655   16.3023 C   0  0  0  0  0  0  0  0  0  0  0  0
    7.8099  -13.4548   17.0538 C   0  0  0  0  0  0  0  0  0  0  0  0
    7.6529  -14.2245   18.3556 C   0  0  0  0  0  0  0  0  0  0  0  0
    8.8435  -14.0454   19.2731 C   0  0  2  0  0  0  0  0  0  0  0  0
   10.0262  -14.5986   18.6855 N   0  0  0  0  0  0  0  0  0  0  0  0
    8.4802  -14.7480   20.5494 C   0  0  0  0  0  0  0  0  0  0  0  0
    7.4144  -14.4952   21.1615 O   0  0  0  0  0  0  0  0  0  0  0  0
    6.9843  -16.0276   13.3286 C   0  0  0  0  0  0  0  0  0  0  0  0
    9.5996  -18.6764   21.1133 C   0  0  2  0  0  0  0  0  0  0  0  0
    9.8632  -17.7673   22.2796 O   0  0  0  0  0  0  0  0  0  0  0  0
   11.2067  -17.4236   22.2486 C   0  0  2  0  0  0  0  0  0  0  0  0
    9.0228  -16.5182   22.2023 N   0  0  0  0  0  0  0  0  0  0  0  0
    9.3781  -15.7092   21.0463 C   0  0  0  0  0  0  0  0  0  0  0  0
    9.3452  -15.6920   23.3957 O   0  0  0  0  0  0  0  0  0  0  0  0
   10.1932  -14.7339   23.3428 N   0  0  0  0  0  0  0  0  0  0  0  0
    8.7517  -15.8891   24.6717 C   0  0  1  0  0  0  0  0  0  0  0  0
    8.9105  -14.9018   25.7238 C   0  0  0  0  0  0  0  0  0  0  0  0
    7.7141  -13.9775   25.7489 C   0  0  0  0  0  0  0  0  0  0  0  0
    7.8390  -12.9578   26.8418 C   0  0  0  0  0  0  0  0  0  0  0  0
    6.6092  -12.0847   26.9264 C   0  0  0  0  0  0  0  0  0  0  0  0
    6.7357  -10.9960   27.9630 N   0  0  0  0  0  0  0  0  0  0  0  0
    5.5696  -10.1324   27.9566 C   0  0  0  0  0  0  0  0  0  0  0  0
    9.0715  -15.5629   27.0420 O   0  0  0  0  0  0  0  0  0  0  0  0
    8.7331  -16.7576   27.1579 O   0  0  0  0  0  0  0  0  0  0  0  0
  2  3  2  0
  2  1  1  0
  4  2  1  0
  5  4  1  0
  6  5  1  0
  7  8  1  0
  7  6  1  0
  8  9  1  6
 10  8  1  0
 10 11  2  0
 13 12  1  1
 13 15  1  0
 14 13  1  0
 15 16  1  1
 16 10  1  0
 17 15  1  0
 18 17  2  0
 19 17  1  0
 20 19  1  0
 20 26  1  0
 20 21  1  1
 22 21  1  0
 23 22  1  0
 24 23  1  0
 25 24  1  0
 26 28  1  0
 27 26  2  0
M  END
$$$$
