RTK.pdb
     RDKit          3D

 28 27  0  0  1  0  0  0  0  0999 V2000
    9.0823  -20.6148   14.1604 N   0  0  0  0  0  0  0  0  0  0  0  0
    9.2740  -21.4646   15.2897 C   0  0  0  0  0  0  0  0  0  0  0  0
    9.0954  -22.7196   15.1456 N   0  0  0  0  0  0  0  0  0  0  0  0
    9.6520  -20.9629   16.5599 N   0  0  0  0  0  0  0  0  0  0  0  0
    9.6239  -19.5346   16.7832 C   0  0  0  0  0  0  0  0  0  0  0  0
    8.1564  -19.0941   16.7280 C   0  0  0  0  0  0  0  0  0  0  0  0
    7.9717  -18.1767   17.9263 C   0  0  0  0  0  0  0  0  0  0  0  0
    8.1039  -16.7155   17.5535 C   0  0  2  0  0  0  0  0  0  0  0  0
    8.7863  -16.5693   16.3033 N   0  0  0  0  0  0  0  0  0  0  0  0
    8.8686  -16.0786   18.6779 C   0  0  0  0  0  0  0  0  0  0  0  0
   10.1075  -15.8910   18.6104 O   0  0  0  0  0  0  0  0  0  0  0  0
    9.1688  -23.4185   15.9158 C   0  0  0  0  0  0  0  0  0  0  0  0
    7.7116  -12.7789   20.2777 C   0  0  2  0  0  0  0  0  0  0  0  0
    7.9285  -13.7994   21.3585 O   0  0  0  0  0  0  0  0  0  0  0  0
    6.6855  -14.2961   21.7222 C   0  0  2  0  0  0  0  0  0  0  0  0
    8.8009  -14.9306   20.8775 N   0  0  0  0  0  0  0  0  0  0  0  0
    8.1496  -15.6930   19.8230 C   0  0  0  0  0  0  0  0  0  0  0  0
    8.9753  -15.8713   22.0157 O   0  0  0  0  0  0  0  0  0  0  0  0
    8.1354  -16.8093   22.2493 N   0  0  0  0  0  0  0  0  0  0  0  0
   10.0671  -15.8130   22.9234 C   0  0  1  0  0  0  0  0  0  0  0  0
   10.1652  -16.7512   24.0265 C   0  0  0  0  0  0  0  0  0  0  0  0
   11.5910  -17.2343   24.1678 C   0  0  0  0  0  0  0  0  0  0  0  0
   11.9869  -18.1029   23.0109 C   0  0  0  0  0  0  0  0  0  0  0  0
   13.4123  -18.5850   23.1437 C   0  0  0  0  0  0  0  0  0  0  0  0
   13.8739  -19.3806   21.9480 N   0  0  0  0  0  0  0  0  0  0  0  0
   15.2491  -19.8144   22.1102 C   0  0  0  0  0  0  0  0  0  0  0  0
    9.7127  -16.1213   25.2911 O   0  0  0  0  0  0  0  0  0  0  0  0
    9.6659  -16.8187   26.3240 O   0  0  0  0  0  0  0  0  0  0  0  0
  2  3  2  0
  2  1  1  0
  4  2  1  0
  5  4  1  0
  6  5  1  0
  7  8  1  0
  7  6  1  0
  8  9  1  6
 10  8  1  0
 10 11  2  0
 13 12  1  1
 13 15  1  0
 14 13  1  0
 15 16  1  1
 16 10  1  0
 17 15  1  0
 18 17  2  0
 19 17  1  0
 20 19  1  0
 20 26  1  0
 20 21  1  1
 22 21  1  0
 23 22  1  0
 24 23  1  0
 25 24  1  0
 26 28  1  0
 27 26  2  0
M  END
$$$$
