RTK.pdb
     RDKit          3D

 28 27  0  0  1  0  0  0  0  0999 V2000
    9.8307  -14.3864   12.7249 N   0  0  0  0  0  0  0  0  0  0  0  0
    8.4928  -14.3830   12.2305 C   0  0  0  0  0  0  0  0  0  0  0  0
    8.2573  -13.8145   11.1129 N   0  0  0  0  0  0  0  0  0  0  0  0
    7.4224  -14.9851   12.9375 N   0  0  0  0  0  0  0  0  0  0  0  0
    7.3618  -14.8338   14.3742 C   0  0  0  0  0  0  0  0  0  0  0  0
    8.6950  -14.2249   14.8244 C   0  0  0  0  0  0  0  0  0  0  0  0
    8.5338  -13.9742   16.3153 C   0  0  0  0  0  0  0  0  0  0  0  0
    8.9756  -15.1601   17.1458 C   0  0  2  0  0  0  0  0  0  0  0  0
    7.9387  -16.1448   17.2183 N   0  0  0  0  0  0  0  0  0  0  0  0
    9.3056  -14.6046   18.5012 C   0  0  0  0  0  0  0  0  0  0  0  0
   10.1625  -13.7006   18.6531 O   0  0  0  0  0  0  0  0  0  0  0  0
    7.3139  -13.7421   10.6749 C   0  0  0  0  0  0  0  0  0  0  0  0
    6.9498  -13.2077   21.1096 C   0  0  2  0  0  0  0  0  0  0  0  0
    7.7003  -14.3469   21.7385 O   0  0  0  0  0  0  0  0  0  0  0  0
    6.8546  -15.4462   21.7586 C   0  0  2  0  0  0  0  0  0  0  0  0
    8.9437  -14.6832   20.9554 N   0  0  0  0  0  0  0  0  0  0  0  0
    8.6194  -15.1314   19.6096 C   0  0  0  0  0  0  0  0  0  0  0  0
    9.5920  -15.8400   21.6278 O   0  0  0  0  0  0  0  0  0  0  0  0
    9.4832  -17.0318   21.1723 N   0  0  0  0  0  0  0  0  0  0  0  0
   10.3736  -15.7255   22.8091 C   0  0  1  0  0  0  0  0  0  0  0  0
   10.8556  -16.9093   23.4969 C   0  0  0  0  0  0  0  0  0  0  0  0
   12.3492  -17.0455   23.3049 C   0  0  0  0  0  0  0  0  0  0  0  0
   12.8695  -18.2897   23.9614 C   0  0  0  0  0  0  0  0  0  0  0  0
   14.3656  -18.4176   23.7965 C   0  0  0  0  0  0  0  0  0  0  0  0
   14.9090  -19.7029   24.3696 N   0  0  0  0  0  0  0  0  0  0  0  0
   16.3481  -19.7810   24.2016 C   0  0  0  0  0  0  0  0  0  0  0  0
   10.5315  -16.8428   24.9430 O   0  0  0  0  0  0  0  0  0  0  0  0
   10.0847  -15.7753   25.4079 O   0  0  0  0  0  0  0  0  0  0  0  0
  2  3  2  0
  2  1  1  0
  4  2  1  0
  5  4  1  0
  6  5  1  0
  7  8  1  0
  7  6  1  0
  8  9  1  1
 10  8  1  0
 10 11  2  0
 13 12  1  1
 13 15  1  0
 14 13  1  0
 15 16  1  1
 16 10  1  0
 17 15  1  0
 18 17  2  0
 19 17  1  0
 20 19  1  0
 20 26  1  0
 20 21  1  1
 22 21  1  0
 23 22  1  0
 24 23  1  0
 25 24  1  0
 26 28  1  0
 27 26  2  0
M  END
$$$$
