STW.pdb
     RDKit          3D

 28 29  0  0  1  0  0  0  0  0999 V2000
   30.3199  -23.9965  -16.0666 O   0  0  0  0  0  0  0  0  0  0  0  0
   29.4229  -24.1708  -17.1104 C   0  0  0  0  0  0  0  0  0  0  0  0
   29.3302  -22.8547  -17.8570 C   0  0  2  0  0  0  0  0  0  0  0  0
   30.6359  -22.3711  -18.2527 N   0  0  0  0  0  0  0  0  0  0  0  0
   28.6724  -21.8624  -16.9553 C   0  0  0  0  0  0  0  0  0  0  0  0
   29.3003  -20.8017  -16.6831 O   0  0  0  0  0  0  0  0  0  0  0  0
   24.8949  -19.5417  -15.3682 C   0  0  0  0  0  0  0  0  0  0  0  0
   25.5425  -20.5506  -16.3080 C   0  0  1  0  0  0  0  0  0  0  0  0
   25.9892  -19.8926  -17.4471 O   0  0  0  0  0  0  0  0  0  0  0  0
   26.7470  -21.1053  -15.5560 C   0  0  2  0  0  0  0  0  0  0  0  0
   27.3922  -22.0618  -16.4039 N   0  0  0  0  0  0  0  0  0  0  0  0
   26.3467  -21.6804  -14.2498 C   0  0  0  0  0  0  0  0  0  0  0  0
   26.8345  -22.7693  -13.8489 O   0  0  0  0  0  0  0  0  0  0  0  0
   25.4063  -21.0243  -13.4184 N   0  0  0  0  0  0  0  0  0  0  0  0
   25.0710  -21.4481  -12.0621 C   0  0  1  0  0  0  0  0  0  0  0  0
   26.3587  -21.5140  -11.2976 C   0  0  0  0  0  0  0  0  0  0  0  0
   26.4254  -20.7825  -10.0401 C   0  0  0  0  0  0  0  0  0  0  0  0
   25.4274  -20.0042   -9.4478 C   0  0  0  0  0  0  0  0  0  0  0  0
   25.9417  -19.5037   -8.3313 N   0  0  0  0  0  0  0  0  0  0  0  0
   27.1995  -19.8950   -8.1466 C   0  0  0  0  0  0  0  0  0  0  0  0
   28.1148  -19.6320   -7.1207 C   0  0  0  0  0  0  0  0  0  0  0  0
   29.3650  -20.2101   -7.2060 C   0  0  0  0  0  0  0  0  0  0  0  0
   29.7129  -21.0263   -8.2684 C   0  0  0  0  0  0  0  0  0  0  0  0
   28.8070  -21.2782   -9.2714 C   0  0  0  0  0  0  0  0  0  0  0  0
   27.5341  -20.7027   -9.2072 C   0  0  0  0  0  0  0  0  0  0  0  0
   24.0113  -20.6290  -11.4793 C   0  0  0  0  0  0  0  0  0  0  0  0
   23.8389  -19.4174  -11.7483 O   0  0  0  0  0  0  0  0  0  0  0  0
   23.1174  -21.1830  -10.5678 O   0  0  0  0  0  0  0  0  0  0  0  0
  2  3  1  0
  2  1  1  0
  3  4  1  1
  5  6  2  0
  5  3  1  0
  8  7  1  1
  8  9  1  0
  8 10  1  0
 10 11  1  6
 11  5  1  0
 12 13  2  0
 12 10  1  0
 14 12  1  0
 15 16  1  1
 15 14  1  0
 17 25  1  0
 17 16  1  0
 18 17  2  0
 19 18  1  0
 19 20  1  0
 20 21  1  0
 20 25  2  0
 21 22  2  0
 22 23  1  0
 24 23  2  0
 25 24  1  0
 26 15  1  0
 27 26  2  0
 28 26  1  0
M  END
$$$$
