STW.pdb
     RDKit          3D

 28 29  0  0  1  0  0  0  0  0999 V2000
   26.0046  -20.6015   -8.1894 O   0  0  0  0  0  0  0  0  0  0  0  0
   25.6125  -20.2660   -9.4771 C   0  0  0  0  0  0  0  0  0  0  0  0
   26.3659  -21.1693  -10.4334 C   0  0  2  0  0  0  0  0  0  0  0  0
   27.7939  -20.9405  -10.3724 N   0  0  0  0  0  0  0  0  0  0  0  0
   25.8654  -20.8940  -11.8133 C   0  0  0  0  0  0  0  0  0  0  0  0
   26.7124  -20.8141  -12.7458 O   0  0  0  0  0  0  0  0  0  0  0  0
   25.9270  -21.6592  -14.2405 C   0  0  0  0  0  0  0  0  0  0  0  0
   24.4139  -21.5298  -14.3595 C   0  0  1  0  0  0  0  0  0  0  0  0
   23.8187  -22.7056  -13.9196 O   0  0  0  0  0  0  0  0  0  0  0  0
   24.0185  -20.3966  -13.4195 C   0  0  2  0  0  0  0  0  0  0  0  0
   24.4998  -20.7227  -12.1111 N   0  0  0  0  0  0  0  0  0  0  0  0
   22.5551  -20.1621  -13.4462 C   0  0  0  0  0  0  0  0  0  0  0  0
   21.7968  -20.7298  -12.6173 O   0  0  0  0  0  0  0  0  0  0  0  0
   21.9697  -19.2967  -14.4024 N   0  0  0  0  0  0  0  0  0  0  0  0
   20.5619  -18.9100  -14.4087 C   0  0  1  0  0  0  0  0  0  0  0  0
   20.4506  -17.6922  -15.2757 C   0  0  0  0  0  0  0  0  0  0  0  0
   20.7539  -17.8519  -16.6911 C   0  0  0  0  0  0  0  0  0  0  0  0
   19.9082  -18.3182  -17.7011 C   0  0  0  0  0  0  0  0  0  0  0  0
   20.6171  -18.3262  -18.8232 N   0  0  0  0  0  0  0  0  0  0  0  0
   21.8616  -17.9002  -18.6257 C   0  0  0  0  0  0  0  0  0  0  0  0
   22.9374  -17.7298  -19.5049 C   0  0  0  0  0  0  0  0  0  0  0  0
   24.1216  -17.2424  -18.9907 C   0  0  0  0  0  0  0  0  0  0  0  0
   24.2518  -16.9284  -17.6489 C   0  0  0  0  0  0  0  0  0  0  0  0
   23.1895  -17.0997  -16.7932 C   0  0  0  0  0  0  0  0  0  0  0  0
   21.9795  -17.5931  -17.2911 C   0  0  0  0  0  0  0  0  0  0  0  0
   19.6884  -20.0304  -14.7480 C   0  0  0  0  0  0  0  0  0  0  0  0
   18.4704  -20.0778  -14.4571 O   0  0  0  0  0  0  0  0  0  0  0  0
   20.1933  -21.1311  -15.4337 O   0  0  0  0  0  0  0  0  0  0  0  0
  2  3  1  0
  2  1  1  0
  3  4  1  6
  5  6  2  0
  5  3  1  0
  8  7  1  1
  8  9  1  0
  8 10  1  0
 10 11  1  1
 11  5  1  0
 12 13  2  0
 12 10  1  0
 14 12  1  0
 15 16  1  6
 15 14  1  0
 17 25  1  0
 17 16  1  0
 18 17  2  0
 19 18  1  0
 19 20  1  0
 20 21  1  0
 20 25  2  0
 21 22  2  0
 22 23  1  0
 24 23  2  0
 25 24  1  0
 26 15  1  0
 27 26  2  0
 28 26  1  0
M  END
$$$$
