STW.pdb
     RDKit          3D

 28 29  0  0  1  0  0  0  0  0999 V2000
   14.9306  -20.2685  -14.5719 O   0  0  0  0  0  0  0  0  0  0  0  0
   16.2255  -20.1969  -14.0794 C   0  0  0  0  0  0  0  0  0  0  0  0
   16.9712  -21.4193  -14.5770 C   0  0  2  0  0  0  0  0  0  0  0  0
   16.5406  -22.6223  -13.8966 N   0  0  0  0  0  0  0  0  0  0  0  0
   18.4284  -21.1948  -14.3394 C   0  0  0  0  0  0  0  0  0  0  0  0
   18.8262  -21.0990  -13.1452 O   0  0  0  0  0  0  0  0  0  0  0  0
   21.1602  -23.2448  -14.9474 C   0  0  0  0  0  0  0  0  0  0  0  0
   21.5313  -22.0216  -15.7760 C   0  0  1  0  0  0  0  0  0  0  0  0
   21.0997  -22.2073  -17.0834 O   0  0  0  0  0  0  0  0  0  0  0  0
   20.7614  -20.8564  -15.1645 C   0  0  2  0  0  0  0  0  0  0  0  0
   19.3658  -21.0879  -15.3847 N   0  0  0  0  0  0  0  0  0  0  0  0
   21.2185  -19.5602  -15.7196 C   0  0  0  0  0  0  0  0  0  0  0  0
   20.5370  -18.9555  -16.5880 O   0  0  0  0  0  0  0  0  0  0  0  0
   22.4313  -18.9673  -15.2912 N   0  0  0  0  0  0  0  0  0  0  0  0
   23.0161  -17.7691  -15.8861 C   0  0  1  0  0  0  0  0  0  0  0  0
   24.0575  -17.2737  -14.9285 C   0  0  0  0  0  0  0  0  0  0  0  0
   24.8954  -16.1671  -15.3692 C   0  0  0  0  0  0  0  0  0  0  0  0
   24.6464  -14.7984  -15.2370 C   0  0  0  0  0  0  0  0  0  0  0  0
   25.6623  -14.1655  -15.8106 N   0  0  0  0  0  0  0  0  0  0  0  0
   26.5576  -15.0143  -16.3076 C   0  0  0  0  0  0  0  0  0  0  0  0
   27.7709  -14.8033  -16.9730 C   0  0  0  0  0  0  0  0  0  0  0  0
   28.4986  -15.9110  -17.3573 C   0  0  0  0  0  0  0  0  0  0  0  0
   28.0518  -17.1950  -17.0974 C   0  0  0  0  0  0  0  0  0  0  0  0
   26.8585  -17.3920  -16.4437 C   0  0  0  0  0  0  0  0  0  0  0  0
   26.1031  -16.2847  -16.0453 C   0  0  0  0  0  0  0  0  0  0  0  0
   23.4546  -17.9988  -17.2604 C   0  0  0  0  0  0  0  0  0  0  0  0
   23.9023  -19.0930  -17.6756 O   0  0  0  0  0  0  0  0  0  0  0  0
   23.3898  -16.9727  -18.1982 O   0  0  0  0  0  0  0  0  0  0  0  0
  2  3  1  0
  2  1  1  0
  3  4  1  1
  5  6  2  0
  5  3  1  0
  8  7  1  1
  8  9  1  0
  8 10  1  0
 10 11  1  6
 11  5  1  0
 12 13  2  0
 12 10  1  0
 14 12  1  0
 15 16  1  1
 15 14  1  0
 17 25  1  0
 17 16  1  0
 18 17  2  0
 19 18  1  0
 19 20  1  0
 20 21  1  0
 20 25  2  0
 21 22  2  0
 22 23  1  0
 24 23  2  0
 25 24  1  0
 26 15  1  0
 27 26  2  0
 28 26  1  0
M  END
$$$$
