STW.pdb
     RDKit          3D

 28 29  0  0  1  0  0  0  0  0999 V2000
   29.3090  -23.2868  -19.2297 O   0  0  0  0  0  0  0  0  0  0  0  0
   30.4481  -22.7401  -18.6568 C   0  0  0  0  0  0  0  0  0  0  0  0
   30.2854  -22.8204  -17.1518 C   0  0  2  0  0  0  0  0  0  0  0  0
   29.9941  -24.1699  -16.7165 N   0  0  0  0  0  0  0  0  0  0  0  0
   29.1685  -21.9085  -16.7628 C   0  0  0  0  0  0  0  0  0  0  0  0
   29.2727  -20.6853  -17.0563 O   0  0  0  0  0  0  0  0  0  0  0  0
   24.8050  -20.5664  -15.7045 C   0  0  0  0  0  0  0  0  0  0  0  0
   25.7898  -21.5273  -16.3582 C   0  0  1  0  0  0  0  0  0  0  0  0
   26.0882  -21.0755  -17.6376 O   0  0  0  0  0  0  0  0  0  0  0  0
   27.0540  -21.4686  -15.5082 C   0  0  2  0  0  0  0  0  0  0  0  0
   28.0158  -22.3560  -16.0892 N   0  0  0  0  0  0  0  0  0  0  0  0
   26.7641  -21.7913  -14.0909 C   0  0  0  0  0  0  0  0  0  0  0  0
   27.4570  -22.6380  -13.4685 O   0  0  0  0  0  0  0  0  0  0  0  0
   25.7022  -21.1595  -13.3987 N   0  0  0  0  0  0  0  0  0  0  0  0
   25.4078  -21.3616  -11.9830 C   0  0  1  0  0  0  0  0  0  0  0  0
   26.7016  -21.1997  -11.2437 C   0  0  0  0  0  0  0  0  0  0  0  0
   26.6404  -20.6048   -9.9158 C   0  0  0  0  0  0  0  0  0  0  0  0
   25.6048  -19.8462   -9.3639 C   0  0  0  0  0  0  0  0  0  0  0  0
   25.9970  -19.4870   -8.1478 N   0  0  0  0  0  0  0  0  0  0  0  0
   27.2094  -19.9526   -7.8608 C   0  0  0  0  0  0  0  0  0  0  0  0
   28.0024  -19.8386   -6.7130 C   0  0  0  0  0  0  0  0  0  0  0  0
   29.2336  -20.4620   -6.7133 C   0  0  0  0  0  0  0  0  0  0  0  0
   29.6797  -21.1802   -7.8093 C   0  0  0  0  0  0  0  0  0  0  0  0
   28.8937  -21.2860   -8.9322 C   0  0  0  0  0  0  0  0  0  0  0  0
   27.6424  -20.6621   -8.9556 C   0  0  0  0  0  0  0  0  0  0  0  0
   24.2940  -20.5313  -11.5319 C   0  0  0  0  0  0  0  0  0  0  0  0
   24.0456  -19.3906  -11.9874 O   0  0  0  0  0  0  0  0  0  0  0  0
   23.4320  -20.9917  -10.5412 O   0  0  0  0  0  0  0  0  0  0  0  0
  2  3  1  0
  2  1  1  0
  3  4  1  6
  5  6  2  0
  5  3  1  0
  8  7  1  1
  8  9  1  0
  8 10  1  0
 10 11  1  6
 11  5  1  0
 12 13  2  0
 12 10  1  0
 14 12  1  0
 15 16  1  1
 15 14  1  0
 17 25  1  0
 17 16  1  0
 18 17  2  0
 19 18  1  0
 19 20  1  0
 20 21  1  0
 20 25  2  0
 21 22  2  0
 22 23  1  0
 24 23  2  0
 25 24  1  0
 26 15  1  0
 27 26  2  0
 28 26  1  0
M  END
$$$$
