STW.pdb
     RDKit          3D

 28 29  0  0  1  0  0  0  0  0999 V2000
   19.3855  -20.0106  -15.1270 O   0  0  0  0  0  0  0  0  0  0  0  0
   19.4776  -18.9556  -14.2309 C   0  0  0  0  0  0  0  0  0  0  0  0
   20.9335  -18.5385  -14.1653 C   0  0  2  0  0  0  0  0  0  0  0  0
   21.4468  -18.1804  -15.4706 N   0  0  0  0  0  0  0  0  0  0  0  0
   21.7134  -19.6843  -13.6092 C   0  0  0  0  0  0  0  0  0  0  0  0
   21.4263  -20.0887  -12.4484 O   0  0  0  0  0  0  0  0  0  0  0  0
   22.4002  -23.1080  -14.7816 C   0  0  0  0  0  0  0  0  0  0  0  0
   23.7714  -22.4483  -14.7103 C   0  0  1  0  0  0  0  0  0  0  0  0
   24.1000  -21.9410  -15.9613 O   0  0  0  0  0  0  0  0  0  0  0  0
   23.6240  -21.2883  -13.7322 C   0  0  2  0  0  0  0  0  0  0  0  0
   22.7449  -20.3246  -14.3225 N   0  0  0  0  0  0  0  0  0  0  0  0
   24.9435  -20.7138  -13.3773 C   0  0  0  0  0  0  0  0  0  0  0  0
   25.3001  -19.5936  -13.8271 O   0  0  0  0  0  0  0  0  0  0  0  0
   25.8385  -21.4066  -12.5259 N   0  0  0  0  0  0  0  0  0  0  0  0
   27.2575  -21.0900  -12.3918 C   0  0  1  0  0  0  0  0  0  0  0  0
   27.7015  -21.6406  -11.0702 C   0  0  0  0  0  0  0  0  0  0  0  0
   27.1072  -21.0615   -9.8734 C   0  0  0  0  0  0  0  0  0  0  0  0
   25.7651  -20.7410   -9.6524 C   0  0  0  0  0  0  0  0  0  0  0  0
   25.6917  -20.2081   -8.4391 N   0  0  0  0  0  0  0  0  0  0  0  0
   26.8822  -20.1555   -7.8483 C   0  0  0  0  0  0  0  0  0  0  0  0
   27.2752  -19.6960   -6.5859 C   0  0  0  0  0  0  0  0  0  0  0  0
   28.6100  -19.7932   -6.2493 C   0  0  0  0  0  0  0  0  0  0  0  0
   29.5392  -20.3273   -7.1252 C   0  0  0  0  0  0  0  0  0  0  0  0
   29.1434  -20.7755   -8.3632 C   0  0  0  0  0  0  0  0  0  0  0  0
   27.7961  -20.6865   -8.7271 C   0  0  0  0  0  0  0  0  0  0  0  0
   28.0248  -21.5109  -13.5612 C   0  0  0  0  0  0  0  0  0  0  0  0
   29.2537  -21.3077  -13.6988 O   0  0  0  0  0  0  0  0  0  0  0  0
   27.3977  -22.1794  -14.6084 O   0  0  0  0  0  0  0  0  0  0  0  0
  2  3  1  0
  2  1  1  0
  3  4  1  6
  5  6  2  0
  5  3  1  0
  8  7  1  6
  8  9  1  0
  8 10  1  0
 10 11  1  6
 11  5  1  0
 12 13  2  0
 12 10  1  0
 14 12  1  0
 15 16  1  1
 15 14  1  0
 17 25  1  0
 17 16  1  0
 18 17  2  0
 19 18  1  0
 19 20  1  0
 20 21  1  0
 20 25  2  0
 21 22  2  0
 22 23  1  0
 24 23  2  0
 25 24  1  0
 26 15  1  0
 27 26  2  0
 28 26  1  0
M  END
$$$$
