FER.pdb
     RDKit          3D

 32 32  0  0  1  0  0  0  0  0999 V2000
    8.6272  -16.8793   17.7185 N   0  0  0  0  0  0  0  0  0  0  0  0
    8.6758  -15.9295   18.8259 C   0  0  1  0  0  0  0  0  0  0  0  0
    7.2931  -15.2822   18.9725 C   0  0  0  0  0  0  0  0  0  0  0  0
    7.4554  -14.2215   19.9980 C   0  0  0  0  0  0  0  0  0  0  0  0
    7.1588  -14.4778   21.3176 C   0  0  0  0  0  0  0  0  0  0  0  0
    7.3132  -13.4661   22.2740 C   0  0  0  0  0  0  0  0  0  0  0  0
    7.7595  -12.2127   21.9155 C   0  0  0  0  0  0  0  0  0  0  0  0
    8.0503  -11.9809   20.5890 C   0  0  0  0  0  0  0  0  0  0  0  0
    7.9016  -12.9690   19.6383 C   0  0  0  0  0  0  0  0  0  0  0  0
    9.1162  -16.5902   20.0778 C   0  0  0  0  0  0  0  0  0  0  0  0
    9.1724  -15.9506   21.1629 O   0  0  0  0  0  0  0  0  0  0  0  0
    9.4782  -17.9527   20.0615 N   0  0  0  0  0  0  0  0  0  0  0  0
    9.9364  -18.6404   21.2905 C   0  0  1  0  0  0  0  0  0  0  0  0
   10.1450  -20.0878   20.9768 C   0  0  0  0  0  0  0  0  0  0  0  0
   10.5851  -20.4136   19.5901 C   0  0  0  0  0  0  0  0  0  0  0  0
   10.9335  -21.8266   19.3536 C   0  0  0  0  0  0  0  0  0  0  0  0
   10.2923  -22.5093   18.5295 O   0  0  0  0  0  0  0  0  0  0  0  0
   11.0862  -17.8982   21.7659 C   0  0  0  0  0  0  0  0  0  0  0  0
   11.5303  -16.9238   21.0664 O   0  0  0  0  0  0  0  0  0  0  0  0
   11.9736  -22.4244   20.0359 O   0  0  0  0  0  0  0  0  0  0  0  0
    9.4355  -12.6986   27.4583 N   0  0  0  0  0  0  0  0  0  0  0  0
    9.5476  -14.0135   27.9782 C   0  0  0  0  0  0  0  0  0  0  0  0
   10.2419  -14.2173   29.0315 N   0  0  0  0  0  0  0  0  0  0  0  0
    8.9042  -15.1110   27.3583 N   0  0  0  0  0  0  0  0  0  0  0  0
    9.0165  -15.3167   25.9375 C   0  0  0  0  0  0  0  0  0  0  0  0
   10.4349  -15.7694   25.5872 C   0  0  0  0  0  0  0  0  0  0  0  0
   10.4457  -16.7570   24.4683 C   0  0  0  0  0  0  0  0  0  0  0  0
   11.8348  -17.1684   24.0526 C   0  0  2  0  0  0  0  0  0  0  0  0
   11.7948  -18.1362   22.9560 N   0  0  0  0  0  0  0  0  0  0  0  0
   12.6252  -17.7703   25.1338 C   0  0  0  0  0  0  0  0  0  0  0  0
   13.5926  -17.1446   25.6161 O   0  0  0  0  0  0  0  0  0  0  0  0
   12.3630  -19.0284   25.6757 O   0  0  0  0  0  0  0  0  0  0  0  0
  2  1  1  6
  2  3  1  0
  3  4  1  0
  4  9  2  0
  4  5  1  0
  5  6  2  0
  6  7  1  0
  8  7  2  0
  9  8  1  0
 10  2  1  0
 10 11  2  0
 12 10  1  0
 13 12  1  0
 13 14  1  6
 15 14  1  0
 15 16  1  0
 16 17  2  0
 16 20  1  0
 18 13  1  0
 19 18  2  0
 22 21  1  0
 22 24  1  0
 23 22  2  0
 24 25  1  0
 25 26  1  0
 26 27  1  0
 28 27  1  1
 28 29  1  0
 29 18  1  0
 30 28  1  0
 30 32  1  0
 31 30  2  0
M  END
$$$$
