FER.pdb
     RDKit          3D

 32 32  0  0  1  0  0  0  0  0999 V2000
    6.4515  -17.5521   25.7560 N   0  0  0  0  0  0  0  0  0  0  0  0
    6.3343  -17.3530   24.3147 C   0  0  1  0  0  0  0  0  0  0  0  0
    5.6164  -16.0208   24.0646 C   0  0  0  0  0  0  0  0  0  0  0  0
    6.5134  -14.9743   24.6154 C   0  0  0  0  0  0  0  0  0  0  0  0
    7.2528  -14.1767   23.7716 C   0  0  0  0  0  0  0  0  0  0  0  0
    8.0980  -13.1956   24.3057 C   0  0  0  0  0  0  0  0  0  0  0  0
    8.2024  -13.0135   25.6675 C   0  0  0  0  0  0  0  0  0  0  0  0
    7.4520  -13.8237   26.4912 C   0  0  0  0  0  0  0  0  0  0  0  0
    6.6168  -14.7935   25.9769 C   0  0  0  0  0  0  0  0  0  0  0  0
    7.6629  -17.4005   23.6588 C   0  0  0  0  0  0  0  0  0  0  0  0
    8.6959  -17.7155   24.3094 O   0  0  0  0  0  0  0  0  0  0  0  0
    7.7796  -17.0905   22.2884 N   0  0  0  0  0  0  0  0  0  0  0  0
    9.0235  -17.3799   21.5386 C   0  0  1  0  0  0  0  0  0  0  0  0
    8.6900  -17.4831   20.0843 C   0  0  0  0  0  0  0  0  0  0  0  0
    9.8385  -17.6279   19.1447 C   0  0  0  0  0  0  0  0  0  0  0  0
    9.4806  -17.7006   17.7163 C   0  0  0  0  0  0  0  0  0  0  0  0
   10.0997  -18.4604   16.9444 O   0  0  0  0  0  0  0  0  0  0  0  0
    9.9761  -16.3587   21.9239 C   0  0  0  0  0  0  0  0  0  0  0  0
    9.5777  -15.1491   22.0425 O   0  0  0  0  0  0  0  0  0  0  0  0
    8.4557  -16.9325   17.2019 O   0  0  0  0  0  0  0  0  0  0  0  0
   11.0933  -17.0324   30.1608 N   0  0  0  0  0  0  0  0  0  0  0  0
   11.3567  -15.7672   29.5763 C   0  0  0  0  0  0  0  0  0  0  0  0
   11.0894  -14.7028   30.2310 N   0  0  0  0  0  0  0  0  0  0  0  0
   11.9137  -15.6531   28.2803 N   0  0  0  0  0  0  0  0  0  0  0  0
   11.1733  -16.0910   27.1254 C   0  0  0  0  0  0  0  0  0  0  0  0
   11.9794  -15.8158   25.8549 C   0  0  0  0  0  0  0  0  0  0  0  0
   11.2618  -16.2722   24.6284 C   0  0  0  0  0  0  0  0  0  0  0  0
   12.0049  -15.9601   23.3547 C   0  0  2  0  0  0  0  0  0  0  0  0
   11.3411  -16.5554   22.1947 N   0  0  0  0  0  0  0  0  0  0  0  0
   13.3958  -16.4307   23.3474 C   0  0  0  0  0  0  0  0  0  0  0  0
   13.6797  -17.5157   22.7976 O   0  0  0  0  0  0  0  0  0  0  0  0
   14.4527  -15.7300   23.9281 O   0  0  0  0  0  0  0  0  0  0  0  0
  2  1  1  1
  2  3  1  0
  3  4  1  0
  4  9  2  0
  4  5  1  0
  5  6  2  0
  6  7  1  0
  8  7  2  0
  9  8  1  0
 10  2  1  0
 10 11  2  0
 12 10  1  0
 13 12  1  0
 13 14  1  6
 15 14  1  0
 15 16  1  0
 16 17  2  0
 16 20  1  0
 18 13  1  0
 19 18  2  0
 22 21  1  0
 22 24  1  0
 23 22  2  0
 24 25  1  0
 25 26  1  0
 26 27  1  0
 28 27  1  1
 28 29  1  0
 29 18  1  0
 30 28  1  0
 30 32  1  0
 31 30  2  0
M  END
$$$$
