FER.pdb
     RDKit          3D

 32 32  0  0  1  0  0  0  0  0999 V2000
    5.8850  -16.7368   25.4718 N   0  0  0  0  0  0  0  0  0  0  0  0
    6.8599  -15.7510   25.0151 C   0  0  1  0  0  0  0  0  0  0  0  0
    7.4945  -15.0889   26.2444 C   0  0  0  0  0  0  0  0  0  0  0  0
    6.9067  -13.7276   26.3128 C   0  0  0  0  0  0  0  0  0  0  0  0
    7.3302  -12.7423   25.4498 C   0  0  0  0  0  0  0  0  0  0  0  0
    6.7692  -11.4612   25.5284 C   0  0  0  0  0  0  0  0  0  0  0  0
    5.7956  -11.1686   26.4585 C   0  0  0  0  0  0  0  0  0  0  0  0
    5.3881  -12.1714   27.3106 C   0  0  0  0  0  0  0  0  0  0  0  0
    5.9337  -13.4365   27.2431 C   0  0  0  0  0  0  0  0  0  0  0  0
    7.8753  -16.3729   24.1319 C   0  0  0  0  0  0  0  0  0  0  0  0
    8.4348  -17.4568   24.4508 O   0  0  0  0  0  0  0  0  0  0  0  0
    8.2243  -15.7486   22.9169 N   0  0  0  0  0  0  0  0  0  0  0  0
    9.3021  -16.2896   22.0573 C   0  0  1  0  0  0  0  0  0  0  0  0
    9.0320  -15.8846   20.6431 C   0  0  0  0  0  0  0  0  0  0  0  0
    7.7047  -15.2636   20.3685 C   0  0  0  0  0  0  0  0  0  0  0  0
    7.4808  -14.8430   18.9733 C   0  0  0  0  0  0  0  0  0  0  0  0
    6.6421  -15.4298   18.2600 O   0  0  0  0  0  0  0  0  0  0  0  0
   10.5500  -15.8430   22.6424 C   0  0  0  0  0  0  0  0  0  0  0  0
   10.5530  -14.7963   23.3776 O   0  0  0  0  0  0  0  0  0  0  0  0
    8.1911  -13.7938   18.4260 O   0  0  0  0  0  0  0  0  0  0  0  0
   13.4306  -20.5477   29.3663 N   0  0  0  0  0  0  0  0  0  0  0  0
   12.7134  -19.7897   28.4058 C   0  0  0  0  0  0  0  0  0  0  0  0
   11.4881  -20.0671   28.1717 N   0  0  0  0  0  0  0  0  0  0  0  0
   13.3227  -18.7264   27.6981 N   0  0  0  0  0  0  0  0  0  0  0  0
   12.5804  -17.9844   26.7122 C   0  0  0  0  0  0  0  0  0  0  0  0
   12.5316  -18.7673   25.3990 C   0  0  0  0  0  0  0  0  0  0  0  0
   11.7494  -18.0498   24.3498 C   0  0  0  0  0  0  0  0  0  0  0  0
   12.5541  -17.0054   23.6192 C   0  0  2  0  0  0  0  0  0  0  0  0
   11.8057  -16.4550   22.4889 N   0  0  0  0  0  0  0  0  0  0  0  0
   13.8326  -17.5003   23.0934 C   0  0  0  0  0  0  0  0  0  0  0  0
   14.8797  -17.3346   23.7538 O   0  0  0  0  0  0  0  0  0  0  0  0
   13.9628  -18.1622   21.8727 O   0  0  0  0  0  0  0  0  0  0  0  0
  2  1  1  1
  2  3  1  0
  3  4  1  0
  4  9  2  0
  4  5  1  0
  5  6  2  0
  6  7  1  0
  8  7  2  0
  9  8  1  0
 10  2  1  0
 10 11  2  0
 12 10  1  0
 13 12  1  0
 13 14  1  6
 15 14  1  0
 15 16  1  0
 16 17  2  0
 16 20  1  0
 18 13  1  0
 19 18  2  0
 22 21  1  0
 22 24  1  0
 23 22  2  0
 24 25  1  0
 25 26  1  0
 26 27  1  0
 28 27  1  6
 28 29  1  0
 29 18  1  0
 30 28  1  0
 30 32  1  0
 31 30  2  0
M  END
$$$$
