FER.pdb
     RDKit          3D

 32 32  0  0  1  0  0  0  0  0999 V2000
    5.8954  -17.4444   22.9172 N   0  0  0  0  0  0  0  0  0  0  0  0
    6.7013  -16.4096   23.5580 C   0  0  1  0  0  0  0  0  0  0  0  0
    5.9686  -15.9335   24.8185 C   0  0  0  0  0  0  0  0  0  0  0  0
    6.7068  -14.7311   25.2793 C   0  0  0  0  0  0  0  0  0  0  0  0
    6.9345  -13.6815   24.4181 C   0  0  0  0  0  0  0  0  0  0  0  0
    7.6360  -12.5547   24.8658 C   0  0  0  0  0  0  0  0  0  0  0  0
    8.1039  -12.4777   26.1595 C   0  0  0  0  0  0  0  0  0  0  0  0
    7.8631  -13.5404   27.0024 C   0  0  0  0  0  0  0  0  0  0  0  0
    7.1742  -14.6555   26.5727 C   0  0  0  0  0  0  0  0  0  0  0  0
    8.0651  -16.9054   23.8612 C   0  0  0  0  0  0  0  0  0  0  0  0
    8.2454  -17.8435   24.6841 O   0  0  0  0  0  0  0  0  0  0  0  0
    9.1802  -16.3241   23.2237 N   0  0  0  0  0  0  0  0  0  0  0  0
   10.5500  -16.8389   23.4515 C   0  0  1  0  0  0  0  0  0  0  0  0
   11.4193  -16.3981   22.3171 C   0  0  0  0  0  0  0  0  0  0  0  0
   12.8645  -16.7536   22.4065 C   0  0  0  0  0  0  0  0  0  0  0  0
   13.6829  -16.3675   21.2425 C   0  0  0  0  0  0  0  0  0  0  0  0
   14.9042  -16.6206   21.2130 O   0  0  0  0  0  0  0  0  0  0  0  0
   10.9310  -16.4037   24.7798 C   0  0  0  0  0  0  0  0  0  0  0  0
   10.3288  -15.4043   25.3036 O   0  0  0  0  0  0  0  0  0  0  0  0
   13.1187  -15.7198   20.1622 O   0  0  0  0  0  0  0  0  0  0  0  0
    6.6052  -21.8557   27.8753 N   0  0  0  0  0  0  0  0  0  0  0  0
    6.7921  -20.6707   27.1187 C   0  0  0  0  0  0  0  0  0  0  0  0
    5.9000  -20.3142   26.2760 N   0  0  0  0  0  0  0  0  0  0  0  0
    7.9464  -19.8673   27.2761 N   0  0  0  0  0  0  0  0  0  0  0  0
    9.1537  -20.4231   27.8305 C   0  0  0  0  0  0  0  0  0  0  0  0
   10.1957  -19.3195   28.0205 C   0  0  0  0  0  0  0  0  0  0  0  0
   10.5424  -18.6509   26.7320 C   0  0  0  0  0  0  0  0  0  0  0  0
   11.6223  -17.6092   26.8753 C   0  0  2  0  0  0  0  0  0  0  0  0
   11.9248  -16.9795   25.5896 N   0  0  0  0  0  0  0  0  0  0  0  0
   12.8858  -18.1323   27.4101 C   0  0  0  0  0  0  0  0  0  0  0  0
   13.7261  -18.6345   26.6343 O   0  0  0  0  0  0  0  0  0  0  0  0
   13.2229  -18.1064   28.7632 O   0  0  0  0  0  0  0  0  0  0  0  0
  2  1  1  1
  2  3  1  0
  3  4  1  0
  4  9  2  0
  4  5  1  0
  5  6  2  0
  6  7  1  0
  8  7  2  0
  9  8  1  0
 10  2  1  0
 10 11  2  0
 12 10  1  0
 13 12  1  0
 13 14  1  6
 15 14  1  0
 15 16  1  0
 16 17  2  0
 16 20  1  0
 18 13  1  0
 19 18  2  0
 22 21  1  0
 22 24  1  0
 23 22  2  0
 24 25  1  0
 25 26  1  0
 26 27  1  0
 28 27  1  6
 28 29  1  0
 29 18  1  0
 30 28  1  0
 30 32  1  0
 31 30  2  0
M  END
$$$$
