FER.pdb
     RDKit          3D

 32 32  0  0  1  0  0  0  0  0999 V2000
    6.2011  -17.3873   21.8886 N   0  0  0  0  0  0  0  0  0  0  0  0
    6.9063  -16.4307   22.7361 C   0  0  1  0  0  0  0  0  0  0  0  0
    6.0065  -16.0815   23.9282 C   0  0  0  0  0  0  0  0  0  0  0  0
    6.6790  -14.9528   24.6188 C   0  0  0  0  0  0  0  0  0  0  0  0
    7.0704  -15.0746   25.9329 C   0  0  0  0  0  0  0  0  0  0  0  0
    7.7005  -13.9997   26.5730 C   0  0  0  0  0  0  0  0  0  0  0  0
    7.9371  -12.8169   25.9070 C   0  0  0  0  0  0  0  0  0  0  0  0
    7.5367  -12.7196   24.5924 C   0  0  0  0  0  0  0  0  0  0  0  0
    6.9148  -13.7709   23.9519 C   0  0  0  0  0  0  0  0  0  0  0  0
    8.2194  -16.9660   23.1684 C   0  0  0  0  0  0  0  0  0  0  0  0
    8.3237  -18.1371   23.6236 O   0  0  0  0  0  0  0  0  0  0  0  0
    9.3716  -16.1592   23.0714 N   0  0  0  0  0  0  0  0  0  0  0  0
   10.7073  -16.6800   23.4428 C   0  0  1  0  0  0  0  0  0  0  0  0
   11.7448  -15.9130   22.6862 C   0  0  0  0  0  0  0  0  0  0  0  0
   13.1668  -16.2750   22.9498 C   0  0  0  0  0  0  0  0  0  0  0  0
   13.6640  -17.4550   22.2189 C   0  0  0  0  0  0  0  0  0  0  0  0
   14.2466  -18.3776   22.8237 O   0  0  0  0  0  0  0  0  0  0  0  0
   10.7752  -16.6277   24.8890 C   0  0  0  0  0  0  0  0  0  0  0  0
   10.9722  -15.5013   25.4622 O   0  0  0  0  0  0  0  0  0  0  0  0
   13.4967  -17.5659   20.8534 O   0  0  0  0  0  0  0  0  0  0  0  0
    7.2507  -22.7572   27.5735 N   0  0  0  0  0  0  0  0  0  0  0  0
    6.6559  -21.4753   27.6936 C   0  0  0  0  0  0  0  0  0  0  0  0
    5.6025  -21.2042   27.0229 N   0  0  0  0  0  0  0  0  0  0  0  0
    7.2008  -20.4841   28.5442 N   0  0  0  0  0  0  0  0  0  0  0  0
    8.6225  -20.2594   28.5875 C   0  0  0  0  0  0  0  0  0  0  0  0
    9.0368  -19.3237   27.4505 C   0  0  0  0  0  0  0  0  0  0  0  0
    9.5971  -18.0382   27.9613 C   0  0  0  0  0  0  0  0  0  0  0  0
   10.8250  -17.5865   27.2128 C   0  0  2  0  0  0  0  0  0  0  0  0
   10.6418  -17.7168   25.7670 N   0  0  0  0  0  0  0  0  0  0  0  0
   12.0421  -18.3287   27.5645 C   0  0  0  0  0  0  0  0  0  0  0  0
   12.4242  -18.3642   28.7532 O   0  0  0  0  0  0  0  0  0  0  0  0
   12.8238  -19.0170   26.6369 O   0  0  0  0  0  0  0  0  0  0  0  0
  2  1  1  6
  2  3  1  0
  3  4  1  0
  4  9  2  0
  4  5  1  0
  5  6  2  0
  6  7  1  0
  8  7  2  0
  9  8  1  0
 10  2  1  0
 10 11  2  0
 12 10  1  0
 13 12  1  0
 13 14  1  6
 15 14  1  0
 15 16  1  0
 16 17  2  0
 16 20  1  0
 18 13  1  0
 19 18  2  0
 22 21  1  0
 22 24  1  0
 23 22  2  0
 24 25  1  0
 25 26  1  0
 26 27  1  0
 28 27  1  1
 28 29  1  0
 29 18  1  0
 30 28  1  0
 30 32  1  0
 31 30  2  0
M  END
$$$$
