FER.pdb
     RDKit          3D

 32 32  0  0  1  0  0  0  0  0999 V2000
    7.5247  -15.4740   25.7450 N   0  0  0  0  0  0  0  0  0  0  0  0
    7.6802  -15.3040   24.3036 C   0  0  1  0  0  0  0  0  0  0  0  0
    7.2515  -13.8788   23.9330 C   0  0  0  0  0  0  0  0  0  0  0  0
    6.9691  -13.1988   25.2218 C   0  0  0  0  0  0  0  0  0  0  0  0
    7.9015  -12.3558   25.7831 C   0  0  0  0  0  0  0  0  0  0  0  0
    7.6229  -11.7239   27.0017 C   0  0  0  0  0  0  0  0  0  0  0  0
    6.4258  -11.9318   27.6516 C   0  0  0  0  0  0  0  0  0  0  0  0
    5.5087  -12.7792   27.0697 C   0  0  0  0  0  0  0  0  0  0  0  0
    5.7721  -13.4076   25.8704 C   0  0  0  0  0  0  0  0  0  0  0  0
    9.0700  -15.5952   23.8779 C   0  0  0  0  0  0  0  0  0  0  0  0
    9.7317  -14.7567   23.2080 O   0  0  0  0  0  0  0  0  0  0  0  0
    9.6661  -16.8251   24.2241 N   0  0  0  0  0  0  0  0  0  0  0  0
   11.0679  -17.1298   23.8562 C   0  0  1  0  0  0  0  0  0  0  0  0
   11.5547  -18.2491   24.7205 C   0  0  0  0  0  0  0  0  0  0  0  0
   12.9582  -18.7011   24.4998 C   0  0  0  0  0  0  0  0  0  0  0  0
   13.4123  -19.7999   25.3716 C   0  0  0  0  0  0  0  0  0  0  0  0
   14.4604  -20.4249   25.1119 O   0  0  0  0  0  0  0  0  0  0  0  0
   11.0719  -17.3544   22.4250 C   0  0  0  0  0  0  0  0  0  0  0  0
   10.3607  -18.3015   21.9419 O   0  0  0  0  0  0  0  0  0  0  0  0
   12.6911  -20.1611   26.4916 O   0  0  0  0  0  0  0  0  0  0  0  0
    8.5430  -11.6403   19.8777 N   0  0  0  0  0  0  0  0  0  0  0  0
    9.1665  -12.7498   19.2516 C   0  0  0  0  0  0  0  0  0  0  0  0
   10.3955  -12.6719   18.9105 N   0  0  0  0  0  0  0  0  0  0  0  0
    8.4589  -13.9485   18.9963 N   0  0  0  0  0  0  0  0  0  0  0  0
    9.0804  -15.0226   18.2656 C   0  0  0  0  0  0  0  0  0  0  0  0
    9.7163  -16.0158   19.2397 C   0  0  0  0  0  0  0  0  0  0  0  0
   11.2071  -15.9823   19.1776 C   0  0  0  0  0  0  0  0  0  0  0  0
   11.8617  -17.0119   20.0626 C   0  0  2  0  0  0  0  0  0  0  0  0
   11.7954  -16.6193   21.4705 N   0  0  0  0  0  0  0  0  0  0  0  0
   13.2746  -17.2559   19.7462 C   0  0  0  0  0  0  0  0  0  0  0  0
   13.7275  -18.4191   19.7909 O   0  0  0  0  0  0  0  0  0  0  0  0
   14.1722  -16.2501   19.3885 O   0  0  0  0  0  0  0  0  0  0  0  0
  2  1  1  1
  2  3  1  0
  3  4  1  0
  4  9  2  0
  4  5  1  0
  5  6  2  0
  6  7  1  0
  8  7  2  0
  9  8  1  0
 10  2  1  0
 10 11  2  0
 12 10  1  0
 13 12  1  0
 13 14  1  1
 15 14  1  0
 15 16  1  0
 16 17  2  0
 16 20  1  0
 18 13  1  0
 19 18  2  0
 22 21  1  0
 22 24  1  0
 23 22  2  0
 24 25  1  0
 25 26  1  0
 26 27  1  0
 28 27  1  6
 28 29  1  0
 29 18  1  0
 30 28  1  0
 30 32  1  0
 31 30  2  0
M  END
$$$$
