FER.pdb
     RDKit          3D

 32 32  0  0  1  0  0  0  0  0999 V2000
   11.0301  -13.1745   19.0676 N   0  0  0  0  0  0  0  0  0  0  0  0
   10.9316  -14.6128   19.2964 C   0  0  1  0  0  0  0  0  0  0  0  0
    9.6817  -15.1351   18.5772 C   0  0  0  0  0  0  0  0  0  0  0  0
    8.5849  -14.2116   18.9608 C   0  0  0  0  0  0  0  0  0  0  0  0
    8.2726  -13.1329   18.1646 C   0  0  0  0  0  0  0  0  0  0  0  0
    7.2375  -12.2675   18.5412 C   0  0  0  0  0  0  0  0  0  0  0  0
    6.5225  -12.4783   19.7001 C   0  0  0  0  0  0  0  0  0  0  0  0
    6.8535  -13.5647   20.4798 C   0  0  0  0  0  0  0  0  0  0  0  0
    7.8711  -14.4233   20.1196 C   0  0  0  0  0  0  0  0  0  0  0  0
   12.1617  -15.3104   18.8516 C   0  0  0  0  0  0  0  0  0  0  0  0
   12.2017  -16.5683   18.7753 O   0  0  0  0  0  0  0  0  0  0  0  0
   13.3061  -14.5624   18.5073 N   0  0  0  0  0  0  0  0  0  0  0  0
   14.6671  -15.0466   18.8341 C   0  0  1  0  0  0  0  0  0  0  0  0
   15.6459  -14.3570   17.9378 C   0  0  0  0  0  0  0  0  0  0  0  0
   17.0872  -14.6676   18.1592 C   0  0  0  0  0  0  0  0  0  0  0  0
   18.0330  -13.9055   17.3234 C   0  0  0  0  0  0  0  0  0  0  0  0
   18.6324  -14.4572   16.3785 O   0  0  0  0  0  0  0  0  0  0  0  0
   14.8338  -14.8557   20.2605 C   0  0  0  0  0  0  0  0  0  0  0  0
   13.9257  -14.2375   20.9158 O   0  0  0  0  0  0  0  0  0  0  0  0
   18.2761  -12.5688   17.5661 O   0  0  0  0  0  0  0  0  0  0  0  0
   11.4718  -19.2751   25.1149 N   0  0  0  0  0  0  0  0  0  0  0  0
   12.7546  -19.6417   25.5964 C   0  0  0  0  0  0  0  0  0  0  0  0
   12.9243  -19.8419   26.8471 N   0  0  0  0  0  0  0  0  0  0  0  0
   13.8566  -19.7948   24.7220 N   0  0  0  0  0  0  0  0  0  0  0  0
   13.8910  -19.1003   23.4609 C   0  0  0  0  0  0  0  0  0  0  0  0
   14.8023  -17.8761   23.5652 C   0  0  0  0  0  0  0  0  0  0  0  0
   14.8430  -17.1000   22.2910 C   0  0  0  0  0  0  0  0  0  0  0  0
   15.7517  -15.8992   22.3558 C   0  0  2  0  0  0  0  0  0  0  0  0
   15.9218  -15.2919   21.0356 N   0  0  0  0  0  0  0  0  0  0  0  0
   17.0935  -16.1963   22.8729 C   0  0  0  0  0  0  0  0  0  0  0  0
   17.2214  -16.7124   24.0031 O   0  0  0  0  0  0  0  0  0  0  0  0
   18.2690  -15.9350   22.1694 O   0  0  0  0  0  0  0  0  0  0  0  0
  2  1  1  6
  2  3  1  0
  3  4  1  0
  4  9  2  0
  4  5  1  0
  5  6  2  0
  6  7  1  0
  8  7  2  0
  9  8  1  0
 10  2  1  0
 10 11  2  0
 12 10  1  0
 13 12  1  0
 13 14  1  6
 15 14  1  0
 15 16  1  0
 16 17  2  0
 16 20  1  0
 18 13  1  0
 19 18  2  0
 22 21  1  0
 22 24  1  0
 23 22  2  0
 24 25  1  0
 25 26  1  0
 26 27  1  0
 28 27  1  6
 28 29  1  0
 29 18  1  0
 30 28  1  0
 30 32  1  0
 31 30  2  0
M  END
$$$$
