FER.pdb
     RDKit          3D

 32 32  0  0  1  0  0  0  0  0999 V2000
    9.4001  -14.4436   23.7214 N   0  0  0  0  0  0  0  0  0  0  0  0
    8.4171  -15.4770   24.0321 C   0  0  1  0  0  0  0  0  0  0  0  0
    7.0194  -14.9289   23.7181 C   0  0  0  0  0  0  0  0  0  0  0  0
    6.8499  -13.7423   24.5935 C   0  0  0  0  0  0  0  0  0  0  0  0
    6.3271  -13.8802   25.8595 C   0  0  0  0  0  0  0  0  0  0  0  0
    6.1693  -12.7510   26.6732 C   0  0  0  0  0  0  0  0  0  0  0  0
    6.5304  -11.4984   26.2267 C   0  0  0  0  0  0  0  0  0  0  0  0
    7.0517  -11.3862   24.9565 C   0  0  0  0  0  0  0  0  0  0  0  0
    7.2112  -12.4908   24.1459 C   0  0  0  0  0  0  0  0  0  0  0  0
    8.7037  -16.7278   23.2899 C   0  0  0  0  0  0  0  0  0  0  0  0
    7.9811  -17.7502   23.4395 O   0  0  0  0  0  0  0  0  0  0  0  0
    9.7981  -16.7814   22.4027 N   0  0  0  0  0  0  0  0  0  0  0  0
   10.5895  -18.0217   22.2331 C   0  0  1  0  0  0  0  0  0  0  0  0
   11.3341  -17.9384   20.9387 C   0  0  0  0  0  0  0  0  0  0  0  0
   12.2125  -19.0940   20.5984 C   0  0  0  0  0  0  0  0  0  0  0  0
   12.9244  -18.9886   19.3115 C   0  0  0  0  0  0  0  0  0  0  0  0
   12.4002  -19.4075   18.2597 O   0  0  0  0  0  0  0  0  0  0  0  0
   11.3801  -18.1663   23.4384 C   0  0  0  0  0  0  0  0  0  0  0  0
   12.4410  -17.4649   23.5745 O   0  0  0  0  0  0  0  0  0  0  0  0
   14.1826  -18.4258   19.2409 O   0  0  0  0  0  0  0  0  0  0  0  0
   10.1100  -14.4719   27.9441 N   0  0  0  0  0  0  0  0  0  0  0  0
   10.7435  -15.1528   29.0150 C   0  0  0  0  0  0  0  0  0  0  0  0
   10.7547  -14.6246   30.1786 N   0  0  0  0  0  0  0  0  0  0  0  0
   11.3646  -16.4105   28.8271 N   0  0  0  0  0  0  0  0  0  0  0  0
   11.5712  -16.9328   27.5011 C   0  0  0  0  0  0  0  0  0  0  0  0
   10.6501  -18.1308   27.2639 C   0  0  0  0  0  0  0  0  0  0  0  0
   11.4164  -19.3657   26.9243 C   0  0  0  0  0  0  0  0  0  0  0  0
   12.0771  -19.3013   25.5710 C   0  0  2  0  0  0  0  0  0  0  0  0
   11.1007  -19.0220   24.5177 N   0  0  0  0  0  0  0  0  0  0  0  0
   12.7814  -20.5334   25.1941 C   0  0  0  0  0  0  0  0  0  0  0  0
   14.0296  -20.5670   25.2236 O   0  0  0  0  0  0  0  0  0  0  0  0
   12.1349  -21.7026   24.7941 O   0  0  0  0  0  0  0  0  0  0  0  0
  2  1  1  6
  2  3  1  0
  3  4  1  0
  4  9  2  0
  4  5  1  0
  5  6  2  0
  6  7  1  0
  8  7  2  0
  9  8  1  0
 10  2  1  0
 10 11  2  0
 12 10  1  0
 13 12  1  0
 13 14  1  6
 15 14  1  0
 15 16  1  0
 16 17  2  0
 16 20  1  0
 18 13  1  0
 19 18  2  0
 22 21  1  0
 22 24  1  0
 23 22  2  0
 24 25  1  0
 25 26  1  0
 26 27  1  0
 28 27  1  1
 28 29  1  0
 29 18  1  0
 30 28  1  0
 30 32  1  0
 31 30  2  0
M  END
$$$$
