FER.pdb
     RDKit          3D

 32 32  0  0  1  0  0  0  0  0999 V2000
    6.0615  -17.2504   25.6322 N   0  0  0  0  0  0  0  0  0  0  0  0
    7.1654  -16.4022   25.1933 C   0  0  1  0  0  0  0  0  0  0  0  0
    7.6128  -15.5352   26.3768 C   0  0  0  0  0  0  0  0  0  0  0  0
    7.0608  -14.1830   26.1124 C   0  0  0  0  0  0  0  0  0  0  0  0
    5.9384  -13.7466   26.7794 C   0  0  0  0  0  0  0  0  0  0  0  0
    5.4263  -12.4695   26.5169 C   0  0  0  0  0  0  0  0  0  0  0  0
    6.0297  -11.6379   25.5987 C   0  0  0  0  0  0  0  0  0  0  0  0
    7.1519  -12.0970   24.9446 C   0  0  0  0  0  0  0  0  0  0  0  0
    7.6648  -13.3528   25.1942 C   0  0  0  0  0  0  0  0  0  0  0  0
    8.2786  -17.2140   24.6464 C   0  0  0  0  0  0  0  0  0  0  0  0
    8.5879  -18.3216   25.1636 O   0  0  0  0  0  0  0  0  0  0  0  0
    9.0054  -16.7468   23.5323 N   0  0  0  0  0  0  0  0  0  0  0  0
   10.2030  -17.4658   23.0401 C   0  0  1  0  0  0  0  0  0  0  0  0
   10.5160  -16.9810   21.6602 C   0  0  0  0  0  0  0  0  0  0  0  0
   11.7440  -17.5342   21.0209 C   0  0  0  0  0  0  0  0  0  0  0  0
   11.9966  -17.0806   19.6409 C   0  0  0  0  0  0  0  0  0  0  0  0
   13.0982  -16.5865   19.3265 O   0  0  0  0  0  0  0  0  0  0  0  0
   11.2273  -17.2853   24.0486 C   0  0  0  0  0  0  0  0  0  0  0  0
   11.0680  -16.3849   24.9430 O   0  0  0  0  0  0  0  0  0  0  0  0
   11.0237  -17.1920   18.6684 O   0  0  0  0  0  0  0  0  0  0  0  0
   11.9872  -22.2952   30.4410 N   0  0  0  0  0  0  0  0  0  0  0  0
   12.3416  -20.9792   30.8334 C   0  0  0  0  0  0  0  0  0  0  0  0
   12.7570  -20.7670   32.0232 N   0  0  0  0  0  0  0  0  0  0  0  0
   12.2491  -19.8896   29.9352 N   0  0  0  0  0  0  0  0  0  0  0  0
   11.7296  -20.0804   28.6057 C   0  0  0  0  0  0  0  0  0  0  0  0
   12.7434  -19.5827   27.5740 C   0  0  0  0  0  0  0  0  0  0  0  0
   12.0797  -18.9133   26.4168 C   0  0  0  0  0  0  0  0  0  0  0  0
   13.0556  -18.2929   25.4501 C   0  0  2  0  0  0  0  0  0  0  0  0
   12.4214  -18.0178   24.1606 N   0  0  0  0  0  0  0  0  0  0  0  0
   14.2377  -19.1223   25.1841 C   0  0  0  0  0  0  0  0  0  0  0  0
   15.2541  -18.9997   25.8996 O   0  0  0  0  0  0  0  0  0  0  0  0
   14.3063  -20.0652   24.1587 O   0  0  0  0  0  0  0  0  0  0  0  0
  2  1  1  1
  2  3  1  0
  3  4  1  0
  4  9  2  0
  4  5  1  0
  5  6  2  0
  6  7  1  0
  8  7  2  0
  9  8  1  0
 10  2  1  0
 10 11  2  0
 12 10  1  0
 13 12  1  0
 13 14  1  6
 15 14  1  0
 15 16  1  0
 16 17  2  0
 16 20  1  0
 18 13  1  0
 19 18  2  0
 22 21  1  0
 22 24  1  0
 23 22  2  0
 24 25  1  0
 25 26  1  0
 26 27  1  0
 28 27  1  1
 28 29  1  0
 29 18  1  0
 30 28  1  0
 30 32  1  0
 31 30  2  0
M  END
$$$$
