FER.pdb
     RDKit          3D

 32 32  0  0  1  0  0  0  0  0999 V2000
    8.8093  -17.7527   20.4214 N   0  0  0  0  0  0  0  0  0  0  0  0
    8.6437  -16.4610   21.0808 C   0  0  1  0  0  0  0  0  0  0  0  0
    7.4892  -15.7131   20.4024 C   0  0  0  0  0  0  0  0  0  0  0  0
    7.5633  -14.3200   20.9093 C   0  0  0  0  0  0  0  0  0  0  0  0
    6.9056  -13.9638   22.0650 C   0  0  0  0  0  0  0  0  0  0  0  0
    6.9813  -12.6445   22.5295 C   0  0  0  0  0  0  0  0  0  0  0  0
    7.7067  -11.6923   21.8469 C   0  0  0  0  0  0  0  0  0  0  0  0
    8.3565  -12.0733   20.6935 C   0  0  0  0  0  0  0  0  0  0  0  0
    8.2886  -13.3692   20.2260 C   0  0  0  0  0  0  0  0  0  0  0  0
    8.4187  -16.6288   22.5364 C   0  0  0  0  0  0  0  0  0  0  0  0
    8.3717  -15.6299   23.3042 O   0  0  0  0  0  0  0  0  0  0  0  0
    8.2540  -17.9209   23.0758 N   0  0  0  0  0  0  0  0  0  0  0  0
    8.0960  -18.1303   24.5334 C   0  0  1  0  0  0  0  0  0  0  0  0
    7.5459  -19.5024   24.7607 C   0  0  0  0  0  0  0  0  0  0  0  0
    7.4700  -19.9652   26.1759 C   0  0  0  0  0  0  0  0  0  0  0  0
    6.8487  -21.2873   26.3756 C   0  0  0  0  0  0  0  0  0  0  0  0
    5.6146  -21.3930   26.5250 O   0  0  0  0  0  0  0  0  0  0  0  0
    9.3829  -17.8310   25.1279 C   0  0  0  0  0  0  0  0  0  0  0  0
   10.3400  -17.4397   24.3750 O   0  0  0  0  0  0  0  0  0  0  0  0
    7.6154  -22.4346   26.4013 O   0  0  0  0  0  0  0  0  0  0  0  0
    7.1573  -13.6282   26.4902 N   0  0  0  0  0  0  0  0  0  0  0  0
    7.0986  -13.3858   27.8864 C   0  0  0  0  0  0  0  0  0  0  0  0
    5.9791  -13.0920   28.4282 N   0  0  0  0  0  0  0  0  0  0  0  0
    8.2541  -13.4640   28.6997 N   0  0  0  0  0  0  0  0  0  0  0  0
    9.5479  -13.6946   28.1110 C   0  0  0  0  0  0  0  0  0  0  0  0
    9.9332  -15.1673   28.2606 C   0  0  0  0  0  0  0  0  0  0  0  0
   10.5904  -15.7003   27.0311 C   0  0  0  0  0  0  0  0  0  0  0  0
   10.8282  -17.1878   27.0822 C   0  0  2  0  0  0  0  0  0  0  0  0
    9.7100  -17.9236   26.4915 N   0  0  0  0  0  0  0  0  0  0  0  0
   11.0240  -17.7123   28.4396 C   0  0  0  0  0  0  0  0  0  0  0  0
   10.1677  -18.4720   28.9395 O   0  0  0  0  0  0  0  0  0  0  0  0
   12.1317  -17.4130   29.2324 O   0  0  0  0  0  0  0  0  0  0  0  0
  2  1  1  6
  2  3  1  0
  3  4  1  0
  4  9  2  0
  4  5  1  0
  5  6  2  0
  6  7  1  0
  8  7  2  0
  9  8  1  0
 10  2  1  0
 10 11  2  0
 12 10  1  0
 13 12  1  0
 13 14  1  6
 15 14  1  0
 15 16  1  0
 16 17  2  0
 16 20  1  0
 18 13  1  0
 19 18  2  0
 22 21  1  0
 22 24  1  0
 23 22  2  0
 24 25  1  0
 25 26  1  0
 26 27  1  0
 28 27  1  1
 28 29  1  0
 29 18  1  0
 30 28  1  0
 30 32  1  0
 31 30  2  0
M  END
$$$$
