ILY.pdb
     RDKit          3D

 29 29  0  0  1  0  0  0  0  0999 V2000
    8.2670  -12.1973   19.7437 C   0  0  0  0  0  0  0  0  0  0  0  0
    7.9865  -13.2198   20.8534 C   0  0  0  0  0  0  0  0  0  0  0  0
    8.6767  -14.4803   20.4667 C   0  0  2  0  0  0  0  0  0  0  0  0
    8.1668  -14.9035   19.0991 C   0  0  0  0  0  0  0  0  0  0  0  0
    8.4618  -15.6230   21.4072 C   0  0  2  0  0  0  0  0  0  0  0  0
    7.0493  -15.9578   21.3962 N   0  0  0  0  0  0  0  0  0  0  0  0
    8.9097  -15.3704   22.7804 C   0  0  0  0  0  0  0  0  0  0  0  0
   10.1354  -15.2822   23.0488 O   0  0  0  0  0  0  0  0  0  0  0  0
    8.0439  -12.0744   26.0051 C   0  0  0  0  0  0  0  0  0  0  0  0
    6.8521  -13.0100   25.6976 C   0  0  2  0  0  0  0  0  0  0  0  0
    5.7173  -12.4607   26.5170 C   0  0  0  0  0  0  0  0  0  0  0  0
    7.3154  -14.3725   26.0602 C   0  0  0  0  0  0  0  0  0  0  0  0
    8.4151  -14.9511   25.2179 C   0  0  2  0  0  0  0  0  0  0  0  0
    7.9973  -15.2116   23.8789 N   0  0  0  0  0  0  0  0  0  0  0  0
    8.8790  -16.2158   25.8971 C   0  0  0  0  0  0  0  0  0  0  0  0
    8.0809  -17.1783   25.9138 O   0  0  0  0  0  0  0  0  0  0  0  0
   12.0027  -18.0121   20.8869 O   0  0  0  0  0  0  0  0  0  0  0  0
   12.0144  -17.9712   22.2858 C   0  0  0  0  0  0  0  0  0  0  0  0
   11.5544  -19.0425   23.0048 C   0  0  0  0  0  0  0  0  0  0  0  0
   11.5524  -19.0339   24.3771 C   0  0  0  0  0  0  0  0  0  0  0  0
   12.0099  -17.9537   25.1034 C   0  0  0  0  0  0  0  0  0  0  0  0
   12.0082  -17.9145   26.5833 C   0  0  0  0  0  0  0  0  0  0  0  0
   10.6407  -17.5815   27.0807 C   0  0  2  0  0  0  0  0  0  0  0  0
   10.1468  -16.3384   26.4943 N   0  0  0  0  0  0  0  0  0  0  0  0
   10.4700  -17.5922   28.5414 C   0  0  0  0  0  0  0  0  0  0  0  0
   10.7767  -18.5738   29.2394 O   0  0  0  0  0  0  0  0  0  0  0  0
   12.4775  -16.8654   24.3561 C   0  0  0  0  0  0  0  0  0  0  0  0
   12.4782  -16.8774   22.9881 C   0  0  0  0  0  0  0  0  0  0  0  0
    9.9505  -16.4737   29.1662 O   0  0  0  0  0  0  0  0  0  0  0  0
  1  2  1  0
  3  2  1  0
  3  4  1  6
  5  6  1  1
  5  3  1  0
  7  5  1  0
  8  7  2  0
 10  9  1  1
 10 12  1  0
 11 10  1  0
 13 12  1  1
 13 15  1  0
 13 14  1  0
 14  7  1  0
 15 24  1  0
 16 15  2  0
 17 18  1  0
 18 28  2  0
 19 18  1  0
 19 20  2  0
 20 21  1  0
 21 27  2  0
 21 22  1  0
 23 22  1  1
 23 25  1  0
 24 23  1  0
 25 26  2  0
 25 29  1  0
 28 27  1  0
M  END
$$$$
