ILY.pdb
     RDKit          3D

 29 29  0  0  1  0  0  0  0  0999 V2000
    8.6519  -21.2166   22.9754 C   0  0  0  0  0  0  0  0  0  0  0  0
    7.7677  -20.0805   22.4433 C   0  0  0  0  0  0  0  0  0  0  0  0
    8.2052  -18.8333   23.1270 C   0  0  2  0  0  0  0  0  0  0  0  0
    8.0895  -19.0457   24.6273 C   0  0  0  0  0  0  0  0  0  0  0  0
    7.4091  -17.6171   22.7758 C   0  0  2  0  0  0  0  0  0  0  0  0
    7.4049  -17.4815   21.3305 N   0  0  0  0  0  0  0  0  0  0  0  0
    7.8883  -16.3785   23.3973 C   0  0  0  0  0  0  0  0  0  0  0  0
    8.8290  -15.7237   22.8791 O   0  0  0  0  0  0  0  0  0  0  0  0
    5.5203  -12.0757   27.0329 C   0  0  0  0  0  0  0  0  0  0  0  0
    6.8612  -12.5682   26.4417 C   0  0  2  0  0  0  0  0  0  0  0  0
    7.3077  -11.4549   25.5349 C   0  0  0  0  0  0  0  0  0  0  0  0
    6.5509  -13.8600   25.7803 C   0  0  0  0  0  0  0  0  0  0  0  0
    7.7100  -14.5952   25.1720 C   0  0  2  0  0  0  0  0  0  0  0  0
    7.3261  -15.8484   24.6086 N   0  0  0  0  0  0  0  0  0  0  0  0
    8.7397  -14.7817   26.2587 C   0  0  0  0  0  0  0  0  0  0  0  0
    9.2167  -13.7471   26.7741 O   0  0  0  0  0  0  0  0  0  0  0  0
    8.0418  -21.1773   30.1859 O   0  0  0  0  0  0  0  0  0  0  0  0
    8.7058  -20.3855   29.2419 C   0  0  0  0  0  0  0  0  0  0  0  0
    9.0988  -19.1152   29.5704 C   0  0  0  0  0  0  0  0  0  0  0  0
    9.7516  -18.3136   28.6680 C   0  0  0  0  0  0  0  0  0  0  0  0
   10.0457  -18.7393   27.3889 C   0  0  0  0  0  0  0  0  0  0  0  0
   10.7386  -17.8909   26.3929 C   0  0  0  0  0  0  0  0  0  0  0  0
   10.5687  -16.4508   26.7471 C   0  0  2  0  0  0  0  0  0  0  0  0
    9.1654  -16.0496   26.6949 N   0  0  0  0  0  0  0  0  0  0  0  0
   11.4257  -15.5057   26.0155 C   0  0  0  0  0  0  0  0  0  0  0  0
   12.0403  -14.5875   26.5851 O   0  0  0  0  0  0  0  0  0  0  0  0
    9.6386  -20.0400   27.0662 C   0  0  0  0  0  0  0  0  0  0  0  0
    8.9882  -20.8365   27.9684 C   0  0  0  0  0  0  0  0  0  0  0  0
   11.5566  -15.6378   24.6456 O   0  0  0  0  0  0  0  0  0  0  0  0
  1  2  1  0
  3  2  1  0
  3  4  1  1
  5  6  1  6
  5  3  1  0
  7  5  1  0
  8  7  2  0
 10  9  1  6
 10 12  1  0
 11 10  1  0
 13 12  1  1
 13 15  1  0
 13 14  1  0
 14  7  1  0
 15 24  1  0
 16 15  2  0
 17 18  1  0
 18 28  2  0
 19 18  1  0
 19 20  2  0
 20 21  1  0
 21 27  2  0
 21 22  1  0
 23 22  1  6
 23 25  1  0
 24 23  1  0
 25 26  2  0
 25 29  1  0
 28 27  1  0
M  END
$$$$
