ILY.pdb
     RDKit          3D

 29 29  0  0  1  0  0  0  0  0999 V2000
    7.9300  -19.3387   19.1690 C   0  0  0  0  0  0  0  0  0  0  0  0
    7.0104  -18.2497   19.7381 C   0  0  0  0  0  0  0  0  0  0  0  0
    7.8443  -17.4006   20.6315 C   0  0  2  0  0  0  0  0  0  0  0  0
    8.4283  -18.2843   21.7212 C   0  0  0  0  0  0  0  0  0  0  0  0
    7.1065  -16.2830   21.2971 C   0  0  2  0  0  0  0  0  0  0  0  0
    6.4467  -15.5007   20.2676 N   0  0  0  0  0  0  0  0  0  0  0  0
    7.9444  -15.4153   22.1308 C   0  0  0  0  0  0  0  0  0  0  0  0
    8.9542  -14.8423   21.6470 O   0  0  0  0  0  0  0  0  0  0  0  0
    6.8009  -11.8322   24.3237 C   0  0  0  0  0  0  0  0  0  0  0  0
    6.4429  -13.1070   25.1219 C   0  0  2  0  0  0  0  0  0  0  0  0
    5.6110  -12.6128   26.2728 C   0  0  0  0  0  0  0  0  0  0  0  0
    7.7428  -13.7278   25.4791 C   0  0  0  0  0  0  0  0  0  0  0  0
    8.5048  -14.3751   24.3592 C   0  0  2  0  0  0  0  0  0  0  0  0
    7.6701  -15.1714   23.5200 N   0  0  0  0  0  0  0  0  0  0  0  0
    9.5966  -15.2072   24.9850 C   0  0  0  0  0  0  0  0  0  0  0  0
   10.3968  -14.6180   25.7440 O   0  0  0  0  0  0  0  0  0  0  0  0
   11.7577  -14.2770   30.8468 O   0  0  0  0  0  0  0  0  0  0  0  0
   11.3605  -15.1561   29.8327 C   0  0  0  0  0  0  0  0  0  0  0  0
   11.8457  -16.4368   29.8095 C   0  0  0  0  0  0  0  0  0  0  0  0
   11.4760  -17.3230   28.8292 C   0  0  0  0  0  0  0  0  0  0  0  0
   10.6018  -16.9758   27.8197 C   0  0  0  0  0  0  0  0  0  0  0  0
   10.1958  -17.9089   26.7444 C   0  0  0  0  0  0  0  0  0  0  0  0
   10.7143  -17.4258   25.4306 C   0  0  2  0  0  0  0  0  0  0  0  0
    9.7348  -16.5866   24.7455 N   0  0  0  0  0  0  0  0  0  0  0  0
   11.2558  -18.4599   24.5361 C   0  0  0  0  0  0  0  0  0  0  0  0
   10.8101  -18.6483   23.3911 O   0  0  0  0  0  0  0  0  0  0  0  0
   10.1132  -15.6637   27.8553 C   0  0  0  0  0  0  0  0  0  0  0  0
   10.4837  -14.7829   28.8342 C   0  0  0  0  0  0  0  0  0  0  0  0
   12.2975  -19.2539   24.9784 O   0  0  0  0  0  0  0  0  0  0  0  0
  1  2  1  0
  3  2  1  0
  3  4  1  1
  5  6  1  6
  5  3  1  0
  7  5  1  0
  8  7  2  0
 10  9  1  6
 10 12  1  0
 11 10  1  0
 13 12  1  1
 13 15  1  0
 13 14  1  0
 14  7  1  0
 15 24  1  0
 16 15  2  0
 17 18  1  0
 18 28  2  0
 19 18  1  0
 19 20  2  0
 20 21  1  0
 21 27  2  0
 21 22  1  0
 23 22  1  1
 23 25  1  0
 24 23  1  0
 25 26  2  0
 25 29  1  0
 28 27  1  0
M  END
$$$$
