ILY.pdb
     RDKit          3D

 29 29  0  0  1  0  0  0  0  0999 V2000
    5.9795  -16.8711   18.1297 C   0  0  0  0  0  0  0  0  0  0  0  0
    6.5711  -17.5666   19.3633 C   0  0  0  0  0  0  0  0  0  0  0  0
    7.4375  -16.5701   20.0496 C   0  0  2  0  0  0  0  0  0  0  0  0
    8.5942  -16.2267   19.1258 C   0  0  0  0  0  0  0  0  0  0  0  0
    8.0140  -17.0346   21.3490 C   0  0  2  0  0  0  0  0  0  0  0  0
    6.9345  -17.5758   22.1546 N   0  0  0  0  0  0  0  0  0  0  0  0
    8.7323  -15.9989   22.0982 C   0  0  0  0  0  0  0  0  0  0  0  0
    9.7160  -15.4043   21.5875 O   0  0  0  0  0  0  0  0  0  0  0  0
    7.2695  -12.2571   24.3088 C   0  0  0  0  0  0  0  0  0  0  0  0
    6.9943  -13.5796   25.0608 C   0  0  2  0  0  0  0  0  0  0  0  0
    6.1560  -13.1768   26.2423 C   0  0  0  0  0  0  0  0  0  0  0  0
    8.3316  -14.1417   25.3744 C   0  0  0  0  0  0  0  0  0  0  0  0
    9.1174  -14.6839   24.2158 C   0  0  2  0  0  0  0  0  0  0  0  0
    8.3654  -15.6082   23.4313 N   0  0  0  0  0  0  0  0  0  0  0  0
   10.3554  -15.3344   24.7818 C   0  0  0  0  0  0  0  0  0  0  0  0
   11.0188  -14.6716   25.6089 O   0  0  0  0  0  0  0  0  0  0  0  0
   10.8531  -14.3599   30.7966 O   0  0  0  0  0  0  0  0  0  0  0  0
   10.7675  -15.2477   29.7180 C   0  0  0  0  0  0  0  0  0  0  0  0
   11.7313  -16.2050   29.5425 C   0  0  0  0  0  0  0  0  0  0  0  0
   11.6764  -17.0903   28.4955 C   0  0  0  0  0  0  0  0  0  0  0  0
   10.6552  -17.0654   27.5681 C   0  0  0  0  0  0  0  0  0  0  0  0
   10.5785  -18.0013   26.4235 C   0  0  0  0  0  0  0  0  0  0  0  0
   11.4717  -17.5321   25.3234 C   0  0  2  0  0  0  0  0  0  0  0  0
   10.7714  -16.6274   24.4156 N   0  0  0  0  0  0  0  0  0  0  0  0
   12.1883  -18.5844   24.5871 C   0  0  0  0  0  0  0  0  0  0  0  0
   12.0752  -18.7303   23.3579 O   0  0  0  0  0  0  0  0  0  0  0  0
    9.6764  -16.0820   27.7592 C   0  0  0  0  0  0  0  0  0  0  0  0
    9.7341  -15.2011   28.8043 C   0  0  0  0  0  0  0  0  0  0  0  0
   13.0185  -19.4449   25.2809 O   0  0  0  0  0  0  0  0  0  0  0  0
  1  2  1  0
  3  2  1  0
  3  4  1  6
  5  6  1  1
  5  3  1  0
  7  5  1  0
  8  7  2  0
 10  9  1  6
 10 12  1  0
 11 10  1  0
 13 12  1  1
 13 15  1  0
 13 14  1  0
 14  7  1  0
 15 24  1  0
 16 15  2  0
 17 18  1  0
 18 28  2  0
 19 18  1  0
 19 20  2  0
 20 21  1  0
 21 27  2  0
 21 22  1  0
 23 22  1  1
 23 25  1  0
 24 23  1  0
 25 26  2  0
 25 29  1  0
 28 27  1  0
M  END
$$$$
