ILY.pdb
     RDKit          3D

 29 29  0  0  1  0  0  0  0  0999 V2000
    7.8201  -11.9979   17.6012 C   0  0  0  0  0  0  0  0  0  0  0  0
    8.3885  -13.3501   18.0528 C   0  0  0  0  0  0  0  0  0  0  0  0
    7.6903  -13.7147   19.3153 C   0  0  2  0  0  0  0  0  0  0  0  0
    8.0403  -12.6786   20.3706 C   0  0  0  0  0  0  0  0  0  0  0  0
    8.0490  -15.0602   19.8606 C   0  0  2  0  0  0  0  0  0  0  0  0
    7.8467  -16.0419   18.8105 N   0  0  0  0  0  0  0  0  0  0  0  0
    7.3027  -15.4459   21.0624 C   0  0  0  0  0  0  0  0  0  0  0  0
    7.0061  -14.5899   21.9350 O   0  0  0  0  0  0  0  0  0  0  0  0
    3.5013  -18.1014   21.7199 C   0  0  0  0  0  0  0  0  0  0  0  0
    4.7824  -18.8888   21.3603 C   0  0  2  0  0  0  0  0  0  0  0  0
    4.3256  -20.3150   21.2248 C   0  0  0  0  0  0  0  0  0  0  0  0
    5.7376  -18.6143   22.4625 C   0  0  0  0  0  0  0  0  0  0  0  0
    6.2857  -17.2188   22.5403 C   0  0  2  0  0  0  0  0  0  0  0  0
    6.8738  -16.7944   21.3118 N   0  0  0  0  0  0  0  0  0  0  0  0
    7.2956  -17.1981   23.6609 C   0  0  0  0  0  0  0  0  0  0  0  0
    8.3235  -17.8947   23.5134 O   0  0  0  0  0  0  0  0  0  0  0  0
   11.7417  -15.1680   30.9768 O   0  0  0  0  0  0  0  0  0  0  0  0
   10.7633  -15.1991   29.9764 C   0  0  0  0  0  0  0  0  0  0  0  0
    9.7579  -16.1275   30.0323 C   0  0  0  0  0  0  0  0  0  0  0  0
    8.7837  -16.1843   29.0675 C   0  0  0  0  0  0  0  0  0  0  0  0
    8.7633  -15.3162   27.9953 C   0  0  0  0  0  0  0  0  0  0  0  0
    7.7307  -15.3634   26.9354 C   0  0  0  0  0  0  0  0  0  0  0  0
    8.1083  -16.3738   25.9036 C   0  0  2  0  0  0  0  0  0  0  0  0
    7.1181  -16.4392   24.8320 N   0  0  0  0  0  0  0  0  0  0  0  0
    8.4413  -17.7136   26.4105 C   0  0  0  0  0  0  0  0  0  0  0  0
    9.6146  -18.1035   26.5381 O   0  0  0  0  0  0  0  0  0  0  0  0
    9.7967  -14.3720   27.9503 C   0  0  0  0  0  0  0  0  0  0  0  0
   10.7662  -14.3180   28.9140 C   0  0  0  0  0  0  0  0  0  0  0  0
    7.4175  -18.5747   26.7592 O   0  0  0  0  0  0  0  0  0  0  0  0
  1  2  1  0
  3  2  1  0
  3  4  1  1
  5  6  1  6
  5  3  1  0
  7  5  1  0
  8  7  2  0
 10  9  1  1
 10 12  1  0
 11 10  1  0
 13 12  1  6
 13 15  1  0
 13 14  1  0
 14  7  1  0
 15 24  1  0
 16 15  2  0
 17 18  1  0
 18 28  2  0
 19 18  1  0
 19 20  2  0
 20 21  1  0
 21 27  2  0
 21 22  1  0
 23 22  1  1
 23 25  1  0
 24 23  1  0
 25 26  2  0
 25 29  1  0
 28 27  1  0
M  END
$$$$
