ILY.pdb
     RDKit          3D

 29 29  0  0  1  0  0  0  0  0999 V2000
    5.8956  -19.5628   21.4811 C   0  0  0  0  0  0  0  0  0  0  0  0
    7.3630  -19.4443   21.0471 C   0  0  0  0  0  0  0  0  0  0  0  0
    7.9594  -18.3302   21.8331 C   0  0  2  0  0  0  0  0  0  0  0  0
    7.7924  -18.6454   23.3103 C   0  0  0  0  0  0  0  0  0  0  0  0
    7.3457  -16.9901   21.5805 C   0  0  2  0  0  0  0  0  0  0  0  0
    7.4586  -16.7015   20.1623 N   0  0  0  0  0  0  0  0  0  0  0  0
    7.9300  -15.8982   22.3655 C   0  0  0  0  0  0  0  0  0  0  0  0
    9.1413  -15.5877   22.2295 O   0  0  0  0  0  0  0  0  0  0  0  0
    7.5945  -12.9384   26.8882 C   0  0  0  0  0  0  0  0  0  0  0  0
    7.1796  -12.1393   25.6315 C   0  0  2  0  0  0  0  0  0  0  0  0
    6.1431  -11.1680   26.1246 C   0  0  0  0  0  0  0  0  0  0  0  0
    6.7078  -13.1535   24.6561 C   0  0  0  0  0  0  0  0  0  0  0  0
    7.7397  -14.1121   24.1362 C   0  0  2  0  0  0  0  0  0  0  0  0
    7.1724  -15.1328   23.3168 N   0  0  0  0  0  0  0  0  0  0  0  0
    8.4412  -14.7047   25.3332 C   0  0  0  0  0  0  0  0  0  0  0  0
    7.7415  -14.9453   26.3413 O   0  0  0  0  0  0  0  0  0  0  0  0
   11.5804  -20.6774   30.3479 O   0  0  0  0  0  0  0  0  0  0  0  0
   11.1217  -19.8253   29.3367 C   0  0  0  0  0  0  0  0  0  0  0  0
    9.8949  -20.0397   28.7666 C   0  0  0  0  0  0  0  0  0  0  0  0
    9.4163  -19.2227   27.7733 C   0  0  0  0  0  0  0  0  0  0  0  0
   10.1392  -18.1483   27.2969 C   0  0  0  0  0  0  0  0  0  0  0  0
    9.6509  -17.2587   26.2189 C   0  0  0  0  0  0  0  0  0  0  0  0
   10.4269  -15.9835   26.2228 C   0  0  2  0  0  0  0  0  0  0  0  0
    9.8196  -14.9857   25.3461 N   0  0  0  0  0  0  0  0  0  0  0  0
   11.8706  -16.1112   25.9732 C   0  0  0  0  0  0  0  0  0  0  0  0
   12.3325  -16.3306   24.8402 O   0  0  0  0  0  0  0  0  0  0  0  0
   11.3915  -17.9403   27.8885 C   0  0  0  0  0  0  0  0  0  0  0  0
   11.8654  -18.7566   28.8787 C   0  0  0  0  0  0  0  0  0  0  0  0
   12.7503  -15.9837   27.0319 O   0  0  0  0  0  0  0  0  0  0  0  0
  1  2  1  0
  3  2  1  0
  3  4  1  1
  5  6  1  6
  5  3  1  0
  7  5  1  0
  8  7  2  0
 10  9  1  1
 10 12  1  0
 11 10  1  0
 13 12  1  1
 13 15  1  0
 13 14  1  0
 14  7  1  0
 15 24  1  0
 16 15  2  0
 17 18  1  0
 18 28  2  0
 19 18  1  0
 19 20  2  0
 20 21  1  0
 21 27  2  0
 21 22  1  0
 23 22  1  6
 23 25  1  0
 24 23  1  0
 25 26  2  0
 25 29  1  0
 28 27  1  0
M  END
$$$$
