ILY.pdb
     RDKit          3D

 29 29  0  0  1  0  0  0  0  0999 V2000
    7.3004  -12.6082   19.0738 C   0  0  0  0  0  0  0  0  0  0  0  0
    7.3644  -13.5725   20.2661 C   0  0  0  0  0  0  0  0  0  0  0  0
    8.5848  -14.4048   20.0862 C   0  0  2  0  0  0  0  0  0  0  0  0
    8.4317  -15.2054   18.8036 C   0  0  0  0  0  0  0  0  0  0  0  0
    8.8513  -15.3697   21.1971 C   0  0  2  0  0  0  0  0  0  0  0  0
    7.7869  -16.3569   21.2033 N   0  0  0  0  0  0  0  0  0  0  0  0
    8.9734  -14.7513   22.5210 C   0  0  0  0  0  0  0  0  0  0  0  0
    9.9806  -14.0571   22.8137 O   0  0  0  0  0  0  0  0  0  0  0  0
    5.4542  -13.2015   27.3055 C   0  0  0  0  0  0  0  0  0  0  0  0
    6.9191  -13.4225   26.8636 C   0  0  2  0  0  0  0  0  0  0  0  0
    7.5376  -12.0525   26.9011 C   0  0  0  0  0  0  0  0  0  0  0  0
    6.8366  -14.0617   25.5267 C   0  0  0  0  0  0  0  0  0  0  0  0
    8.1404  -14.4300   24.8799 C   0  0  2  0  0  0  0  0  0  0  0  0
    7.9732  -14.8967   23.5423 N   0  0  0  0  0  0  0  0  0  0  0  0
    8.7858  -15.4837   25.7455 C   0  0  0  0  0  0  0  0  0  0  0  0
    8.1348  -16.5322   25.9462 O   0  0  0  0  0  0  0  0  0  0  0  0
   12.0465  -18.7545   21.4231 O   0  0  0  0  0  0  0  0  0  0  0  0
   12.0509  -18.2480   22.7279 C   0  0  0  0  0  0  0  0  0  0  0  0
   12.2820  -16.9152   22.9429 C   0  0  0  0  0  0  0  0  0  0  0  0
   12.2929  -16.3874   24.2096 C   0  0  0  0  0  0  0  0  0  0  0  0
   12.0737  -17.1642   25.3286 C   0  0  0  0  0  0  0  0  0  0  0  0
   12.0913  -16.6221   26.7061 C   0  0  0  0  0  0  0  0  0  0  0  0
   10.6974  -16.3350   27.1564 C   0  0  2  0  0  0  0  0  0  0  0  0
   10.0618  -15.3238   26.3159 N   0  0  0  0  0  0  0  0  0  0  0  0
   10.5366  -16.0252   28.5851 C   0  0  0  0  0  0  0  0  0  0  0  0
   10.0557  -14.9499   28.9821 O   0  0  0  0  0  0  0  0  0  0  0  0
   11.8386  -18.5249   25.0947 C   0  0  0  0  0  0  0  0  0  0  0  0
   11.8282  -19.0477   23.8305 C   0  0  0  0  0  0  0  0  0  0  0  0
   10.9324  -16.9588   29.5247 O   0  0  0  0  0  0  0  0  0  0  0  0
  1  2  1  0
  3  2  1  0
  3  4  1  6
  5  6  1  1
  5  3  1  0
  7  5  1  0
  8  7  2  0
 10  9  1  6
 10 12  1  0
 11 10  1  0
 13 12  1  1
 13 15  1  0
 13 14  1  0
 14  7  1  0
 15 24  1  0
 16 15  2  0
 17 18  1  0
 18 28  2  0
 19 18  1  0
 19 20  2  0
 20 21  1  0
 21 27  2  0
 21 22  1  0
 23 22  1  6
 23 25  1  0
 24 23  1  0
 25 26  2  0
 25 29  1  0
 28 27  1  0
M  END
$$$$
