ILY.pdb
     RDKit          3D

 29 29  0  0  1  0  0  0  0  0999 V2000
    6.5921  -22.8418   20.7792 C   0  0  0  0  0  0  0  0  0  0  0  0
    5.9103  -21.5558   20.2925 C   0  0  0  0  0  0  0  0  0  0  0  0
    6.7698  -20.4195   20.7220 C   0  0  2  0  0  0  0  0  0  0  0  0
    6.0176  -19.6239   21.7760 C   0  0  0  0  0  0  0  0  0  0  0  0
    7.1519  -19.4770   19.6257 C   0  0  2  0  0  0  0  0  0  0  0  0
    7.9347  -20.2129   18.6495 N   0  0  0  0  0  0  0  0  0  0  0  0
    7.8900  -18.2922   20.0745 C   0  0  0  0  0  0  0  0  0  0  0  0
    9.1069  -18.3737   20.3825 O   0  0  0  0  0  0  0  0  0  0  0  0
    6.9974  -12.1703   20.3294 C   0  0  0  0  0  0  0  0  0  0  0  0
    7.9541  -13.3105   20.7478 C   0  0  2  0  0  0  0  0  0  0  0  0
    9.2603  -12.9725   20.0841 C   0  0  0  0  0  0  0  0  0  0  0  0
    7.2994  -14.5626   20.2937 C   0  0  0  0  0  0  0  0  0  0  0  0
    7.9655  -15.8478   20.6916 C   0  0  2  0  0  0  0  0  0  0  0  0
    7.2831  -16.9948   20.1878 N   0  0  0  0  0  0  0  0  0  0  0  0
    8.0257  -15.8710   22.1989 C   0  0  0  0  0  0  0  0  0  0  0  0
    6.9379  -15.9499   22.8106 O   0  0  0  0  0  0  0  0  0  0  0  0
    9.6105  -19.9503   29.5042 O   0  0  0  0  0  0  0  0  0  0  0  0
    9.4099  -19.4146   28.2267 C   0  0  0  0  0  0  0  0  0  0  0  0
   10.3150  -19.6666   27.2301 C   0  0  0  0  0  0  0  0  0  0  0  0
   10.1474  -19.1564   25.9672 C   0  0  0  0  0  0  0  0  0  0  0  0
    9.0661  -18.3668   25.6339 C   0  0  0  0  0  0  0  0  0  0  0  0
    8.8676  -17.7949   24.2828 C   0  0  0  0  0  0  0  0  0  0  0  0
    9.4211  -16.4096   24.2318 C   0  0  2  0  0  0  0  0  0  0  0  0
    9.2357  -15.8083   22.9137 N   0  0  0  0  0  0  0  0  0  0  0  0
   10.8054  -16.2548   24.7035 C   0  0  0  0  0  0  0  0  0  0  0  0
   11.0818  -16.0502   25.8980 O   0  0  0  0  0  0  0  0  0  0  0  0
    8.1483  -18.1172   26.6620 C   0  0  0  0  0  0  0  0  0  0  0  0
    8.3184  -18.6276   27.9198 C   0  0  0  0  0  0  0  0  0  0  0  0
   11.8405  -16.3389   23.7910 O   0  0  0  0  0  0  0  0  0  0  0  0
  1  2  1  0
  3  2  1  0
  3  4  1  1
  5  6  1  6
  5  3  1  0
  7  5  1  0
  8  7  2  0
 10  9  1  6
 10 12  1  0
 11 10  1  0
 13 12  1  1
 13 15  1  0
 13 14  1  0
 14  7  1  0
 15 24  1  0
 16 15  2  0
 17 18  1  0
 18 28  2  0
 19 18  1  0
 19 20  2  0
 20 21  1  0
 21 27  2  0
 21 22  1  0
 23 22  1  6
 23 25  1  0
 24 23  1  0
 25 26  2  0
 25 29  1  0
 28 27  1  0
M  END
$$$$
