ILY.pdb
     RDKit          3D

 29 29  0  0  1  0  0  0  0  0999 V2000
    7.4640  -19.4319   19.2800 C   0  0  0  0  0  0  0  0  0  0  0  0
    6.6768  -18.3160   19.9804 C   0  0  0  0  0  0  0  0  0  0  0  0
    7.6658  -17.4857   20.7201 C   0  0  2  0  0  0  0  0  0  0  0  0
    8.4190  -18.3867   21.6847 C   0  0  0  0  0  0  0  0  0  0  0  0
    7.0714  -16.3653   21.5124 C   0  0  2  0  0  0  0  0  0  0  0  0
    6.2600  -15.5600   20.6176 N   0  0  0  0  0  0  0  0  0  0  0  0
    8.0536  -15.5211   22.1998 C   0  0  0  0  0  0  0  0  0  0  0  0
    8.9764  -14.9580   21.5568 O   0  0  0  0  0  0  0  0  0  0  0  0
    7.0022  -12.0780   24.3479 C   0  0  0  0  0  0  0  0  0  0  0  0
    6.9472  -13.2967   25.2975 C   0  0  2  0  0  0  0  0  0  0  0  0
    6.2702  -12.7814   26.5373 C   0  0  0  0  0  0  0  0  0  0  0  0
    8.3558  -13.7346   25.4607 C   0  0  0  0  0  0  0  0  0  0  0  0
    8.9669  -14.4670   24.3013 C   0  0  2  0  0  0  0  0  0  0  0  0
    8.0235  -15.2903   23.6176 N   0  0  0  0  0  0  0  0  0  0  0  0
   10.1099  -15.2881   24.8448 C   0  0  0  0  0  0  0  0  0  0  0  0
   11.0780  -14.6638   25.3313 O   0  0  0  0  0  0  0  0  0  0  0  0
   10.6935  -14.4750   30.8605 O   0  0  0  0  0  0  0  0  0  0  0  0
   10.7699  -15.3936   29.8072 C   0  0  0  0  0  0  0  0  0  0  0  0
    9.6967  -15.5695   28.9746 C   0  0  0  0  0  0  0  0  0  0  0  0
    9.7395  -16.4620   27.9330 C   0  0  0  0  0  0  0  0  0  0  0  0
   10.8575  -17.2262   27.6688 C   0  0  0  0  0  0  0  0  0  0  0  0
   10.9257  -18.2038   26.5591 C   0  0  0  0  0  0  0  0  0  0  0  0
   11.2438  -17.5001   25.2816 C   0  0  2  0  0  0  0  0  0  0  0  0
   10.1163  -16.6947   24.8202 N   0  0  0  0  0  0  0  0  0  0  0  0
   11.7800  -18.3429   24.2022 C   0  0  0  0  0  0  0  0  0  0  0  0
   11.2448  -18.4091   23.0823 O   0  0  0  0  0  0  0  0  0  0  0  0
   11.9476  -17.0364   28.5275 C   0  0  0  0  0  0  0  0  0  0  0  0
   11.9016  -16.1456   29.5648 C   0  0  0  0  0  0  0  0  0  0  0  0
   12.9194  -19.0904   24.4352 O   0  0  0  0  0  0  0  0  0  0  0  0
  1  2  1  0
  3  2  1  0
  3  4  1  1
  5  6  1  6
  5  3  1  0
  7  5  1  0
  8  7  2  0
 10  9  1  6
 10 12  1  0
 11 10  1  0
 13 12  1  1
 13 15  1  0
 13 14  1  0
 14  7  1  0
 15 24  1  0
 16 15  2  0
 17 18  1  0
 18 28  2  0
 19 18  1  0
 19 20  2  0
 20 21  1  0
 21 27  2  0
 21 22  1  0
 23 22  1  1
 23 25  1  0
 24 23  1  0
 25 26  2  0
 25 29  1  0
 28 27  1  0
M  END
$$$$
