ILY.pdb
     RDKit          3D

 29 29  0  0  1  0  0  0  0  0999 V2000
   10.6461  -21.7870   17.5351 C   0  0  0  0  0  0  0  0  0  0  0  0
    9.7211  -20.5920   17.2670 C   0  0  0  0  0  0  0  0  0  0  0  0
   10.1566  -19.4943   18.1724 C   0  0  2  0  0  0  0  0  0  0  0  0
   10.0637  -19.9922   19.6053 C   0  0  0  0  0  0  0  0  0  0  0  0
    9.3446  -18.2426   18.0710 C   0  0  2  0  0  0  0  0  0  0  0  0
    9.4447  -17.7481   16.7098 N   0  0  0  0  0  0  0  0  0  0  0  0
    9.7291  -17.1920   19.0189 C   0  0  0  0  0  0  0  0  0  0  0  0
   10.9297  -17.0502   19.3662 O   0  0  0  0  0  0  0  0  0  0  0  0
    8.7135  -12.5935   19.2394 C   0  0  0  0  0  0  0  0  0  0  0  0
    7.5811  -13.5865   19.5888 C   0  0  2  0  0  0  0  0  0  0  0  0
    6.3594  -12.7257   19.7543 C   0  0  0  0  0  0  0  0  0  0  0  0
    8.0427  -14.3003   20.8053 C   0  0  0  0  0  0  0  0  0  0  0  0
    9.1148  -15.3326   20.6085 C   0  0  2  0  0  0  0  0  0  0  0  0
    8.7803  -16.2806   19.5963 N   0  0  0  0  0  0  0  0  0  0  0  0
    9.3295  -16.0119   21.9383 C   0  0  0  0  0  0  0  0  0  0  0  0
    8.4029  -16.7359   22.3636 O   0  0  0  0  0  0  0  0  0  0  0  0
   13.5547  -22.4902   25.4135 O   0  0  0  0  0  0  0  0  0  0  0  0
   12.9948  -21.4281   24.6942 C   0  0  0  0  0  0  0  0  0  0  0  0
   13.8035  -20.5855   23.9786 C   0  0  0  0  0  0  0  0  0  0  0  0
   13.2859  -19.5352   23.2631 C   0  0  0  0  0  0  0  0  0  0  0  0
   11.9322  -19.2711   23.2254 C   0  0  0  0  0  0  0  0  0  0  0  0
   11.3494  -18.1385   22.4709 C   0  0  0  0  0  0  0  0  0  0  0  0
   11.1738  -16.9635   23.3747 C   0  0  2  0  0  0  0  0  0  0  0  0
   10.5083  -15.8579   22.6906 N   0  0  0  0  0  0  0  0  0  0  0  0
   12.3828  -16.5103   24.0788 C   0  0  0  0  0  0  0  0  0  0  0  0
   12.6920  -16.9308   25.2069 O   0  0  0  0  0  0  0  0  0  0  0  0
   11.1167  -20.1402   23.9611 C   0  0  0  0  0  0  0  0  0  0  0  0
   11.6360  -21.1865   24.6732 C   0  0  0  0  0  0  0  0  0  0  0  0
   13.2088  -15.5841   23.4697 O   0  0  0  0  0  0  0  0  0  0  0  0
  1  2  1  0
  3  2  1  0
  3  4  1  1
  5  6  1  6
  5  3  1  0
  7  5  1  0
  8  7  2  0
 10  9  1  1
 10 12  1  0
 11 10  1  0
 13 12  1  1
 13 15  1  0
 13 14  1  0
 14  7  1  0
 15 24  1  0
 16 15  2  0
 17 18  1  0
 18 28  2  0
 19 18  1  0
 19 20  2  0
 20 21  1  0
 21 27  2  0
 21 22  1  0
 23 22  1  6
 23 25  1  0
 24 23  1  0
 25 26  2  0
 25 29  1  0
 28 27  1  0
M  END
$$$$
