KFI.pdb
     RDKit          3D

 29 29  0  0  1  0  0  0  0  0999 V2000
   28.2874  -21.7528  -14.4626 N   0  0  0  0  0  0  0  0  0  0  0  0
   28.0943  -20.6237  -13.6074 C   0  0  1  0  0  0  0  0  0  0  0  0
   27.0640  -19.6529  -14.1349 C   0  0  0  0  0  0  0  0  0  0  0  0
   27.5690  -18.8294  -15.2731 C   0  0  0  0  0  0  0  0  0  0  0  0
   28.8556  -19.3293  -15.8538 C   0  0  0  0  0  0  0  0  0  0  0  0
   29.3742  -18.4624  -16.9685 C   0  0  0  0  0  0  0  0  0  0  0  0
   30.6455  -19.0213  -17.3948 N   0  0  0  0  0  0  0  0  0  0  0  0
   27.7642  -21.0830  -12.2504 C   0  0  0  0  0  0  0  0  0  0  0  0
   26.9298  -22.0355  -12.1105 O   0  0  0  0  0  0  0  0  0  0  0  0
   28.3180  -20.5315  -11.0686 N   0  0  0  0  0  0  0  0  0  0  0  0
   27.7891  -20.8818   -9.7255 C   0  0  1  0  0  0  0  0  0  0  0  0
   28.7017  -20.2366   -8.7668 C   0  0  0  0  0  0  0  0  0  0  0  0
   28.3353  -20.1486   -7.3697 C   0  0  0  0  0  0  0  0  0  0  0  0
   28.8571  -21.0600   -6.4745 C   0  0  0  0  0  0  0  0  0  0  0  0
   28.5297  -21.0135   -5.1286 C   0  0  0  0  0  0  0  0  0  0  0  0
   27.6680  -20.0482   -4.6467 C   0  0  0  0  0  0  0  0  0  0  0  0
   27.1384  -19.1289   -5.5344 C   0  0  0  0  0  0  0  0  0  0  0  0
   27.4585  -19.1681   -6.8725 C   0  0  0  0  0  0  0  0  0  0  0  0
   26.4046  -20.3637   -9.7107 C   0  0  0  0  0  0  0  0  0  0  0  0
   26.1728  -19.1795  -10.1562 O   0  0  0  0  0  0  0  0  0  0  0  0
   21.9091  -19.6039  -12.5523 C   0  0  0  0  0  0  0  0  0  0  0  0
   22.2346  -19.7308  -11.0962 C   0  0  0  0  0  0  0  0  0  0  0  0
   23.5486  -20.4105  -10.8412 C   0  0  2  0  0  0  0  0  0  0  0  0
   23.4861  -21.7973  -11.4353 C   0  0  0  0  0  0  0  0  0  0  0  0
   23.9483  -20.4516   -9.3772 C   0  0  2  0  0  0  0  0  0  0  0  0
   25.2677  -21.0613   -9.2470 N   0  0  0  0  0  0  0  0  0  0  0  0
   22.9160  -21.1914   -8.6200 C   0  0  0  0  0  0  0  0  0  0  0  0
   23.1836  -22.2581   -7.9819 O   0  0  0  0  0  0  0  0  0  0  0  0
   21.5926  -20.7800   -8.5500 O   0  0  0  0  0  0  0  0  0  0  0  0
  2  1  1  6
  2  3  1  0
  4  3  1  0
  4  5  1  0
  6  5  1  0
  6  7  1  0
  8  2  1  0
  9  8  2  0
 10  8  1  0
 11 10  1  0
 11 12  1  1
 12 13  1  0
 13 18  2  0
 14 13  1  0
 14 15  2  0
 15 16  1  0
 16 17  2  0
 18 17  1  0
 19 26  1  0
 19 11  1  0
 20 19  2  0
 22 21  1  0
 23 22  1  0
 23 24  1  1
 25 23  1  0
 25 26  1  6
 27 25  1  0
 27 29  1  0
 28 27  2  0
M  END
$$$$
