KFI.pdb
     RDKit          3D

 29 29  0  0  1  0  0  0  0  0999 V2000
   27.1185  -20.9502  -14.2750 N   0  0  0  0  0  0  0  0  0  0  0  0
   25.9828  -20.4764  -13.5475 C   0  0  1  0  0  0  0  0  0  0  0  0
   24.6694  -20.8991  -14.1627 C   0  0  0  0  0  0  0  0  0  0  0  0
   24.4509  -20.3222  -15.5222 C   0  0  0  0  0  0  0  0  0  0  0  0
   24.3707  -18.8269  -15.5361 C   0  0  0  0  0  0  0  0  0  0  0  0
   24.0932  -18.2653  -16.9038 C   0  0  0  0  0  0  0  0  0  0  0  0
   24.0073  -16.8214  -16.7686 N   0  0  0  0  0  0  0  0  0  0  0  0
   26.0857  -20.8973  -12.1427 C   0  0  0  0  0  0  0  0  0  0  0  0
   25.6290  -22.0388  -11.8086 O   0  0  0  0  0  0  0  0  0  0  0  0
   26.6665  -20.1096  -11.1181 N   0  0  0  0  0  0  0  0  0  0  0  0
   26.7244  -20.5838   -9.7116 C   0  0  1  0  0  0  0  0  0  0  0  0
   27.7419  -19.7434   -9.0585 C   0  0  0  0  0  0  0  0  0  0  0  0
   27.9038  -19.7928   -7.6214 C   0  0  0  0  0  0  0  0  0  0  0  0
   27.3885  -18.7735   -6.8469 C   0  0  0  0  0  0  0  0  0  0  0  0
   27.5243  -18.7800   -5.4677 C   0  0  0  0  0  0  0  0  0  0  0  0
   28.1825  -19.8128   -4.8300 C   0  0  0  0  0  0  0  0  0  0  0  0
   28.7034  -20.8404   -5.5957 C   0  0  0  0  0  0  0  0  0  0  0  0
   28.5729  -20.8415   -6.9658 C   0  0  0  0  0  0  0  0  0  0  0  0
   25.3509  -20.4135   -9.1920 C   0  0  0  0  0  0  0  0  0  0  0  0
   24.7405  -19.2979   -9.3855 O   0  0  0  0  0  0  0  0  0  0  0  0
   19.8404  -21.3474   -9.7536 C   0  0  0  0  0  0  0  0  0  0  0  0
   20.8344  -21.0618   -8.6707 C   0  0  0  0  0  0  0  0  0  0  0  0
   22.2487  -21.3669   -9.0710 C   0  0  2  0  0  0  0  0  0  0  0  0
   22.3171  -22.8137   -9.4976 C   0  0  0  0  0  0  0  0  0  0  0  0
   23.2749  -21.0562   -7.9963 C   0  0  2  0  0  0  0  0  0  0  0  0
   24.6101  -21.3856   -8.4846 N   0  0  0  0  0  0  0  0  0  0  0  0
   22.9285  -21.8094   -6.7719 C   0  0  0  0  0  0  0  0  0  0  0  0
   21.8321  -21.6251   -6.1551 O   0  0  0  0  0  0  0  0  0  0  0  0
   23.7657  -22.7638   -6.2118 O   0  0  0  0  0  0  0  0  0  0  0  0
  2  1  1  6
  2  3  1  0
  4  3  1  0
  4  5  1  0
  6  5  1  0
  6  7  1  0
  8  2  1  0
  9  8  2  0
 10  8  1  0
 11 10  1  0
 11 12  1  1
 12 13  1  0
 13 18  2  0
 14 13  1  0
 14 15  2  0
 15 16  1  0
 16 17  2  0
 18 17  1  0
 19 26  1  0
 19 11  1  0
 20 19  2  0
 22 21  1  0
 23 22  1  0
 23 24  1  1
 25 23  1  0
 25 26  1  6
 27 25  1  0
 27 29  1  0
 28 27  2  0
M  END
$$$$
