KFI.pdb
     RDKit          3D

 29 29  0  0  1  0  0  0  0  0999 V2000
   20.5678  -20.8131  -11.3982 N   0  0  0  0  0  0  0  0  0  0  0  0
   21.3286  -21.1754  -12.5530 C   0  0  1  0  0  0  0  0  0  0  0  0
   20.6917  -20.7220  -13.8456 C   0  0  0  0  0  0  0  0  0  0  0  0
   20.5946  -21.8124  -14.8607 C   0  0  0  0  0  0  0  0  0  0  0  0
   19.9782  -23.0717  -14.3348 C   0  0  0  0  0  0  0  0  0  0  0  0
   19.9984  -24.1978  -15.3319 C   0  0  0  0  0  0  0  0  0  0  0  0
   18.7741  -24.1090  -16.1088 N   0  0  0  0  0  0  0  0  0  0  0  0
   22.7026  -20.6704  -12.4174 C   0  0  0  0  0  0  0  0  0  0  0  0
   22.8795  -19.4564  -12.0737 O   0  0  0  0  0  0  0  0  0  0  0  0
   23.8622  -21.4519  -12.6458 N   0  0  0  0  0  0  0  0  0  0  0  0
   25.2257  -20.8876  -12.4759 C   0  0  1  0  0  0  0  0  0  0  0  0
   25.8290  -21.6519  -11.3714 C   0  0  0  0  0  0  0  0  0  0  0  0
   25.8568  -21.0915  -10.0375 C   0  0  0  0  0  0  0  0  0  0  0  0
   27.0439  -20.5987   -9.5352 C   0  0  0  0  0  0  0  0  0  0  0  0
   27.1153  -20.0567   -8.2616 C   0  0  0  0  0  0  0  0  0  0  0  0
   25.9936  -19.9956   -7.4587 C   0  0  0  0  0  0  0  0  0  0  0  0
   24.7977  -20.4864   -7.9513 C   0  0  0  0  0  0  0  0  0  0  0  0
   24.7183  -21.0263   -9.2148 C   0  0  0  0  0  0  0  0  0  0  0  0
   25.8823  -21.0683  -13.7881 C   0  0  0  0  0  0  0  0  0  0  0  0
   25.6655  -22.1465  -14.4553 O   0  0  0  0  0  0  0  0  0  0  0  0
   28.7986  -17.9933  -18.3521 C   0  0  0  0  0  0  0  0  0  0  0  0
   28.2575  -19.2670  -17.7799 C   0  0  0  0  0  0  0  0  0  0  0  0
   27.7279  -19.1100  -16.3841 C   0  0  2  0  0  0  0  0  0  0  0  0
   28.8093  -18.4840  -15.5363 C   0  0  0  0  0  0  0  0  0  0  0  0
   27.2180  -20.4008  -15.7687 C   0  0  2  0  0  0  0  0  0  0  0  0
   26.7498  -20.1441  -14.4106 N   0  0  0  0  0  0  0  0  0  0  0  0
   28.3003  -21.4076  -15.8034 C   0  0  0  0  0  0  0  0  0  0  0  0
   29.0038  -21.6762  -14.7789 O   0  0  0  0  0  0  0  0  0  0  0  0
   28.6244  -22.1271  -16.9449 O   0  0  0  0  0  0  0  0  0  0  0  0
  2  1  1  1
  2  3  1  0
  4  3  1  0
  4  5  1  0
  6  5  1  0
  6  7  1  0
  8  2  1  0
  9  8  2  0
 10  8  1  0
 11 10  1  0
 11 12  1  1
 12 13  1  0
 13 18  2  0
 14 13  1  0
 14 15  2  0
 15 16  1  0
 16 17  2  0
 18 17  1  0
 19 26  1  0
 19 11  1  0
 20 19  2  0
 22 21  1  0
 23 22  1  0
 23 24  1  1
 25 23  1  0
 25 26  1  1
 27 25  1  0
 27 29  1  0
 28 27  2  0
M  END
$$$$
