KFI.pdb
     RDKit          3D

 29 29  0  0  1  0  0  0  0  0999 V2000
   28.0797  -20.9906  -13.5046 N   0  0  0  0  0  0  0  0  0  0  0  0
   27.4185  -20.0268  -12.6815 C   0  0  1  0  0  0  0  0  0  0  0  0
   26.0452  -19.6579  -13.1915 C   0  0  0  0  0  0  0  0  0  0  0  0
   26.0372  -19.3106  -14.6434 C   0  0  0  0  0  0  0  0  0  0  0  0
   26.0866  -17.8380  -14.9106 C   0  0  0  0  0  0  0  0  0  0  0  0
   26.1448  -17.5077  -16.3771 C   0  0  0  0  0  0  0  0  0  0  0  0
   26.2349  -16.0623  -16.4911 N   0  0  0  0  0  0  0  0  0  0  0  0
   27.3714  -20.5116  -11.2943 C   0  0  0  0  0  0  0  0  0  0  0  0
   26.9871  -21.7061  -11.0740 O   0  0  0  0  0  0  0  0  0  0  0  0
   27.7291  -19.7306  -10.1675 N   0  0  0  0  0  0  0  0  0  0  0  0
   27.5882  -20.2522   -8.7839 C   0  0  1  0  0  0  0  0  0  0  0  0
   28.4429  -19.3881   -7.9527 C   0  0  0  0  0  0  0  0  0  0  0  0
   28.4118  -19.5150   -6.5115 C   0  0  0  0  0  0  0  0  0  0  0  0
   28.9935  -20.6157   -5.9164 C   0  0  0  0  0  0  0  0  0  0  0  0
   28.9831  -20.7779   -4.5400 C   0  0  0  0  0  0  0  0  0  0  0  0
   28.3870  -19.8363   -3.7247 C   0  0  0  0  0  0  0  0  0  0  0  0
   27.8006  -18.7284   -4.3097 C   0  0  0  0  0  0  0  0  0  0  0  0
   27.8065  -18.5598   -5.6757 C   0  0  0  0  0  0  0  0  0  0  0  0
   26.1425  -20.1672   -8.4867 C   0  0  0  0  0  0  0  0  0  0  0  0
   25.5125  -19.0751   -8.7421 O   0  0  0  0  0  0  0  0  0  0  0  0
   21.1857  -21.7085  -10.5357 C   0  0  0  0  0  0  0  0  0  0  0  0
   21.7797  -21.4199   -9.1918 C   0  0  0  0  0  0  0  0  0  0  0  0
   23.2809  -21.4284   -9.1949 C   0  0  2  0  0  0  0  0  0  0  0  0
   23.7445  -22.7955   -9.6377 C   0  0  0  0  0  0  0  0  0  0  0  0
   23.9029  -21.0347   -7.8672 C   0  0  2  0  0  0  0  0  0  0  0  0
   25.3512  -21.1996   -7.9371 N   0  0  0  0  0  0  0  0  0  0  0  0
   23.3005  -21.8552   -6.7946 C   0  0  0  0  0  0  0  0  0  0  0  0
   23.9810  -22.6967   -6.1272 O   0  0  0  0  0  0  0  0  0  0  0  0
   21.9617  -21.7676   -6.4402 O   0  0  0  0  0  0  0  0  0  0  0  0
  2  1  1  6
  2  3  1  0
  4  3  1  0
  4  5  1  0
  6  5  1  0
  6  7  1  0
  8  2  1  0
  9  8  2  0
 10  8  1  0
 11 10  1  0
 11 12  1  1
 12 13  1  0
 13 18  2  0
 14 13  1  0
 14 15  2  0
 15 16  1  0
 16 17  2  0
 18 17  1  0
 19 26  1  0
 19 11  1  0
 20 19  2  0
 22 21  1  0
 23 22  1  0
 23 24  1  1
 25 23  1  0
 25 26  1  6
 27 25  1  0
 27 29  1  0
 28 27  2  0
M  END
$$$$
