KFI.pdb
     RDKit          3D

 29 29  0  0  1  0  0  0  0  0999 V2000
   27.8268  -21.4335  -13.7067 N   0  0  0  0  0  0  0  0  0  0  0  0
   27.4126  -20.3252  -12.9044 C   0  0  1  0  0  0  0  0  0  0  0  0
   26.1676  -19.6494  -13.4292 C   0  0  0  0  0  0  0  0  0  0  0  0
   26.3639  -19.0295  -14.7730 C   0  0  0  0  0  0  0  0  0  0  0  0
   26.3650  -20.0180  -15.8978 C   0  0  0  0  0  0  0  0  0  0  0  0
   26.3966  -19.3668  -17.2535 C   0  0  0  0  0  0  0  0  0  0  0  0
   27.7904  -19.2582  -17.6483 N   0  0  0  0  0  0  0  0  0  0  0  0
   27.2488  -20.7595  -11.5095 C   0  0  0  0  0  0  0  0  0  0  0  0
   26.6733  -21.8719  -11.2761 O   0  0  0  0  0  0  0  0  0  0  0  0
   27.6933  -20.0153  -10.3886 N   0  0  0  0  0  0  0  0  0  0  0  0
   27.4724  -20.4948   -9.0002 C   0  0  1  0  0  0  0  0  0  0  0  0
   28.3837  -19.6971   -8.1628 C   0  0  0  0  0  0  0  0  0  0  0  0
   28.3028  -19.7873   -6.7208 C   0  0  0  0  0  0  0  0  0  0  0  0
   27.7589  -18.7393   -6.0067 C   0  0  0  0  0  0  0  0  0  0  0  0
   27.6654  -18.7833   -4.6246 C   0  0  0  0  0  0  0  0  0  0  0  0
   28.1169  -19.8838   -3.9233 C   0  0  0  0  0  0  0  0  0  0  0  0
   28.6641  -20.9409   -4.6281 C   0  0  0  0  0  0  0  0  0  0  0  0
   28.7605  -20.9050   -6.0006 C   0  0  0  0  0  0  0  0  0  0  0  0
   26.0342  -20.2712   -8.7408 C   0  0  0  0  0  0  0  0  0  0  0  0
   25.5406  -19.0960   -8.9137 O   0  0  0  0  0  0  0  0  0  0  0  0
   22.4215  -21.1611  -11.6492 C   0  0  0  0  0  0  0  0  0  0  0  0
   23.2134  -20.6343  -10.4927 C   0  0  0  0  0  0  0  0  0  0  0  0
   22.8389  -21.2657   -9.1832 C   0  0  2  0  0  0  0  0  0  0  0  0
   21.3913  -20.9426   -8.9000 C   0  0  0  0  0  0  0  0  0  0  0  0
   23.7341  -20.8625   -8.0253 C   0  0  2  0  0  0  0  0  0  0  0  0
   25.1111  -21.2505   -8.3131 N   0  0  0  0  0  0  0  0  0  0  0  0
   23.2262  -21.4905   -6.7867 C   0  0  0  0  0  0  0  0  0  0  0  0
   23.8195  -22.4711   -6.2362 O   0  0  0  0  0  0  0  0  0  0  0  0
   22.0765  -21.0599   -6.1398 O   0  0  0  0  0  0  0  0  0  0  0  0
  2  1  1  6
  2  3  1  0
  4  3  1  0
  4  5  1  0
  6  5  1  0
  6  7  1  0
  8  2  1  0
  9  8  2  0
 10  8  1  0
 11 10  1  0
 11 12  1  1
 12 13  1  0
 13 18  2  0
 14 13  1  0
 14 15  2  0
 15 16  1  0
 16 17  2  0
 18 17  1  0
 19 26  1  0
 19 11  1  0
 20 19  2  0
 22 21  1  0
 23 22  1  0
 23 24  1  1
 25 23  1  0
 25 26  1  6
 27 25  1  0
 27 29  1  0
 28 27  2  0
M  END
$$$$
