KFI.pdb
     RDKit          3D

 29 29  0  0  1  0  0  0  0  0999 V2000
   27.5421  -21.5836  -13.6892 N   0  0  0  0  0  0  0  0  0  0  0  0
   27.3837  -20.3982  -12.9062 C   0  0  1  0  0  0  0  0  0  0  0  0
   26.3068  -19.4806  -13.4357 C   0  0  0  0  0  0  0  0  0  0  0  0
   25.6655  -19.9939  -14.6823 C   0  0  0  0  0  0  0  0  0  0  0  0
   25.5192  -18.9587  -15.7545 C   0  0  0  0  0  0  0  0  0  0  0  0
   24.7903  -19.4675  -16.9680 C   0  0  0  0  0  0  0  0  0  0  0  0
   25.7112  -19.3909  -18.0889 N   0  0  0  0  0  0  0  0  0  0  0  0
   27.1459  -20.7622  -11.5019 C   0  0  0  0  0  0  0  0  0  0  0  0
   26.4367  -21.7891  -11.2453 O   0  0  0  0  0  0  0  0  0  0  0  0
   27.6584  -20.0393  -10.3962 N   0  0  0  0  0  0  0  0  0  0  0  0
   27.3676  -20.4481   -8.9981 C   0  0  1  0  0  0  0  0  0  0  0  0
   28.2302  -19.6015   -8.1571 C   0  0  0  0  0  0  0  0  0  0  0  0
   28.1369  -19.6844   -6.7155 C   0  0  0  0  0  0  0  0  0  0  0  0
   28.8183  -18.7691   -5.9395 C   0  0  0  0  0  0  0  0  0  0  0  0
   28.7588  -18.8147   -4.5555 C   0  0  0  0  0  0  0  0  0  0  0  0
   28.0116  -19.7829   -3.9146 C   0  0  0  0  0  0  0  0  0  0  0  0
   27.3239  -20.7061   -4.6818 C   0  0  0  0  0  0  0  0  0  0  0  0
   27.3777  -20.6677   -6.0566 C   0  0  0  0  0  0  0  0  0  0  0  0
   25.9168  -20.2221   -8.8257 C   0  0  0  0  0  0  0  0  0  0  0  0
   25.4320  -19.0532   -9.0561 O   0  0  0  0  0  0  0  0  0  0  0  0
   22.3599  -21.1373  -11.8626 C   0  0  0  0  0  0  0  0  0  0  0  0
   23.1304  -20.6068  -10.6933 C   0  0  0  0  0  0  0  0  0  0  0  0
   22.7395  -21.2420   -9.3905 C   0  0  2  0  0  0  0  0  0  0  0  0
   21.2734  -20.9695   -9.1534 C   0  0  0  0  0  0  0  0  0  0  0  0
   23.5843  -20.7984   -8.2097 C   0  0  2  0  0  0  0  0  0  0  0  0
   24.9726  -21.1929   -8.4255 N   0  0  0  0  0  0  0  0  0  0  0  0
   23.0245  -21.3856   -6.9735 C   0  0  0  0  0  0  0  0  0  0  0  0
   23.6367  -22.2874   -6.3188 O   0  0  0  0  0  0  0  0  0  0  0  0
   21.8025  -20.9993   -6.4416 O   0  0  0  0  0  0  0  0  0  0  0  0
  2  1  1  6
  2  3  1  0
  4  3  1  0
  4  5  1  0
  6  5  1  0
  6  7  1  0
  8  2  1  0
  9  8  2  0
 10  8  1  0
 11 10  1  0
 11 12  1  1
 12 13  1  0
 13 18  2  0
 14 13  1  0
 14 15  2  0
 15 16  1  0
 16 17  2  0
 18 17  1  0
 19 26  1  0
 19 11  1  0
 20 19  2  0
 22 21  1  0
 23 22  1  0
 23 24  1  1
 25 23  1  0
 25 26  1  6
 27 25  1  0
 27 29  1  0
 28 27  2  0
M  END
$$$$
