KFI.pdb
     RDKit          3D

 29 29  0  0  1  0  0  0  0  0999 V2000
   17.9825  -11.4051  -15.0973 N   0  0  0  0  0  0  0  0  0  0  0  0
   17.3255  -10.1515  -14.8966 C   0  0  1  0  0  0  0  0  0  0  0  0
   15.8311  -10.2284  -15.1040 C   0  0  0  0  0  0  0  0  0  0  0  0
   15.4360  -10.1168  -16.5394 C   0  0  0  0  0  0  0  0  0  0  0  0
   15.4011  -11.4300  -17.2582 C   0  0  0  0  0  0  0  0  0  0  0  0
   14.9167  -11.3112  -18.6774 C   0  0  0  0  0  0  0  0  0  0  0  0
   14.9242  -12.6465  -19.2497 N   0  0  0  0  0  0  0  0  0  0  0  0
   17.6635   -9.6243  -13.5665 C   0  0  0  0  0  0  0  0  0  0  0  0
   17.6154  -10.4095  -12.5643 O   0  0  0  0  0  0  0  0  0  0  0  0
   18.0451   -8.2827  -13.3174 N   0  0  0  0  0  0  0  0  0  0  0  0
   18.5345   -7.8487  -11.9838 C   0  0  1  0  0  0  0  0  0  0  0  0
   19.8553   -7.2462  -12.2304 C   0  0  0  0  0  0  0  0  0  0  0  0
   20.9951   -8.0946  -12.5042 C   0  0  0  0  0  0  0  0  0  0  0  0
   21.5063   -8.8870  -11.4967 C   0  0  0  0  0  0  0  0  0  0  0  0
   22.5988   -9.7115  -11.7153 C   0  0  0  0  0  0  0  0  0  0  0  0
   23.2066   -9.7610  -12.9541 C   0  0  0  0  0  0  0  0  0  0  0  0
   22.7030   -8.9713  -13.9721 C   0  0  0  0  0  0  0  0  0  0  0  0
   21.6186   -8.1498  -13.7634 C   0  0  0  0  0  0  0  0  0  0  0  0
   17.5070   -6.9105  -11.4842 C   0  0  0  0  0  0  0  0  0  0  0  0
   17.0560   -5.9971  -12.2696 O   0  0  0  0  0  0  0  0  0  0  0  0
   12.4857   -6.3024   -8.1669 C   0  0  0  0  0  0  0  0  0  0  0  0
   13.6946   -5.6167   -8.7243 C   0  0  0  0  0  0  0  0  0  0  0  0
   14.7779   -6.5708   -9.1365 C   0  0  2  0  0  0  0  0  0  0  0  0
   15.2216   -7.3382   -7.9142 C   0  0  0  0  0  0  0  0  0  0  0  0
   15.9530   -5.9071   -9.8317 C   0  0  2  0  0  0  0  0  0  0  0  0
   16.9442   -6.9168  -10.1890 N   0  0  0  0  0  0  0  0  0  0  0  0
   16.5126   -4.8690   -8.9397 C   0  0  0  0  0  0  0  0  0  0  0  0
   15.8938   -3.7854   -8.6958 O   0  0  0  0  0  0  0  0  0  0  0  0
   17.7415   -4.9998   -8.3087 O   0  0  0  0  0  0  0  0  0  0  0  0
  2  1  1  1
  2  3  1  0
  4  3  1  0
  4  5  1  0
  6  5  1  0
  6  7  1  0
  8  2  1  0
  9  8  2  0
 10  8  1  0
 11 10  1  0
 11 12  1  6
 12 13  1  0
 13 18  2  0
 14 13  1  0
 14 15  2  0
 15 16  1  0
 16 17  2  0
 18 17  1  0
 19 26  1  0
 19 11  1  0
 20 19  2  0
 22 21  1  0
 23 22  1  0
 23 24  1  1
 25 23  1  0
 25 26  1  1
 27 25  1  0
 27 29  1  0
 28 27  2  0
M  END
$$$$
