KFI.pdb
     RDKit          3D

 29 29  0  0  1  0  0  0  0  0999 V2000
   28.1570  -22.8873  -16.9056 N   0  0  0  0  0  0  0  0  0  0  0  0
   27.7152  -21.6402  -16.3641 C   0  0  1  0  0  0  0  0  0  0  0  0
   26.7381  -20.9194  -17.2629 C   0  0  0  0  0  0  0  0  0  0  0  0
   27.3772  -20.3686  -18.4946 C   0  0  0  0  0  0  0  0  0  0  0  0
   28.5630  -19.4964  -18.2192 C   0  0  0  0  0  0  0  0  0  0  0  0
   29.1687  -18.9155  -19.4676 C   0  0  0  0  0  0  0  0  0  0  0  0
   30.3518  -18.1729  -19.0685 N   0  0  0  0  0  0  0  0  0  0  0  0
   27.1610  -21.8546  -15.0194 C   0  0  0  0  0  0  0  0  0  0  0  0
   26.3707  -22.8358  -14.8302 O   0  0  0  0  0  0  0  0  0  0  0  0
   27.4489  -21.0331  -13.9015 N   0  0  0  0  0  0  0  0  0  0  0  0
   26.8642  -21.3079  -12.5640 C   0  0  1  0  0  0  0  0  0  0  0  0
   27.7620  -20.6460  -11.6027 C   0  0  0  0  0  0  0  0  0  0  0  0
   27.3727  -20.5311  -10.2137 C   0  0  0  0  0  0  0  0  0  0  0  0
   28.2494  -20.9394   -9.2293 C   0  0  0  0  0  0  0  0  0  0  0  0
   27.9151  -20.8498   -7.8872 C   0  0  0  0  0  0  0  0  0  0  0  0
   26.6892  -20.3467   -7.4991 C   0  0  0  0  0  0  0  0  0  0  0  0
   25.8019  -19.9341   -8.4769 C   0  0  0  0  0  0  0  0  0  0  0  0
   26.1260  -20.0197   -9.8118 C   0  0  0  0  0  0  0  0  0  0  0  0
   25.4958  -20.7511  -12.6212 C   0  0  0  0  0  0  0  0  0  0  0  0
   25.3234  -19.5530  -13.0564 O   0  0  0  0  0  0  0  0  0  0  0  0
   22.2264  -21.7242  -15.9994 C   0  0  0  0  0  0  0  0  0  0  0  0
   22.9497  -21.0870  -14.8536 C   0  0  0  0  0  0  0  0  0  0  0  0
   22.2599  -21.2858  -13.5352 C   0  0  2  0  0  0  0  0  0  0  0  0
   20.8816  -20.6758  -13.6265 C   0  0  0  0  0  0  0  0  0  0  0  0
   23.0307  -20.7394  -12.3468 C   0  0  2  0  0  0  0  0  0  0  0  0
   24.3147  -21.4244  -12.2393 N   0  0  0  0  0  0  0  0  0  0  0  0
   22.2093  -20.9019  -11.1281 C   0  0  0  0  0  0  0  0  0  0  0  0
   22.3621  -21.8872  -10.3391 O   0  0  0  0  0  0  0  0  0  0  0  0
   21.2216  -20.0000  -10.7587 O   0  0  0  0  0  0  0  0  0  0  0  0
  2  1  1  6
  2  3  1  0
  4  3  1  0
  4  5  1  0
  6  5  1  0
  6  7  1  0
  8  2  1  0
  9  8  2  0
 10  8  1  0
 11 10  1  0
 11 12  1  1
 12 13  1  0
 13 18  2  0
 14 13  1  0
 14 15  2  0
 15 16  1  0
 16 17  2  0
 18 17  1  0
 19 26  1  0
 19 11  1  0
 20 19  2  0
 22 21  1  0
 23 22  1  0
 23 24  1  6
 25 23  1  0
 25 26  1  1
 27 25  1  0
 27 29  1  0
 28 27  2  0
M  END
$$$$
