AKQ.pdb
     RDKit          3D

 24 23  0  0  1  0  0  0  0  0999 V2000
   12.5330  -21.4639   20.4936 C   0  0  0  0  0  0  0  0  0  0  0  0
   11.2086  -21.4459   19.7706 C   0  0  2  0  0  0  0  0  0  0  0  0
   11.2965  -20.5195   18.6601 N   0  0  0  0  0  0  0  0  0  0  0  0
   10.0838  -21.0797   20.6293 C   0  0  0  0  0  0  0  0  0  0  0  0
    9.8974  -19.9395   21.1239 O   0  0  0  0  0  0  0  0  0  0  0  0
    9.1190  -22.0769   20.9378 N   0  0  0  0  0  0  0  0  0  0  0  0
    7.9625  -21.8363   21.7547 C   0  0  1  0  0  0  0  0  0  0  0  0
    6.8695  -22.7823   21.2757 C   0  0  0  0  0  0  0  0  0  0  0  0
    5.5783  -22.3635   21.9715 C   0  0  0  0  0  0  0  0  0  0  0  0
    4.4838  -23.3125   21.4868 C   0  0  0  0  0  0  0  0  0  0  0  0
    3.2031  -22.8920   22.1650 C   0  0  0  0  0  0  0  0  0  0  0  0
    2.1426  -23.8009   21.7983 N   0  0  0  0  0  0  0  0  0  0  0  0
    8.1954  -22.0821   23.1846 C   0  0  0  0  0  0  0  0  0  0  0  0
    8.9407  -23.0380   23.5122 O   0  0  0  0  0  0  0  0  0  0  0  0
    4.0777  -23.3957   27.8629 N   0  0  0  0  0  0  0  0  0  0  0  0
    5.4650  -23.1861   28.0137 C   0  0  0  0  0  0  0  0  0  0  0  0
    6.1071  -23.9294   28.7905 O   0  0  0  0  0  0  0  0  0  0  0  0
    6.1531  -22.1223   27.2719 C   0  0  0  0  0  0  0  0  0  0  0  0
    7.0164  -22.5462   26.1400 C   0  0  0  0  0  0  0  0  0  0  0  0
    7.8907  -21.4895   25.6009 C   0  0  2  0  0  0  0  0  0  0  0  0
    7.6137  -21.2865   24.1666 N   0  0  0  0  0  0  0  0  0  0  0  0
    9.3110  -21.5382   25.7856 C   0  0  0  0  0  0  0  0  0  0  0  0
   10.0711  -22.4985   25.4653 O   0  0  0  0  0  0  0  0  0  0  0  0
    9.9688  -20.4367   26.3751 O   0  0  0  0  0  0  0  0  0  0  0  0
  2  1  1  1
  2  4  1  0
  2  3  1  0
  4  5  2  0
  6  7  1  0
  6  4  1  0
  7  8  1  6
  8  9  1  0
 10  9  1  0
 11 10  1  0
 12 11  1  0
 13  7  1  0
 13 14  2  0
 15 16  1  0
 16 17  2  0
 18 19  1  0
 18 16  1  0
 20 19  1  6
 20 21  1  0
 20 22  1  0
 21 13  1  0
 22 24  1  0
 23 22  2  0
M  END
$$$$
