AKQ.pdb
     RDKit          3D

 24 23  0  0  1  0  0  0  0  0999 V2000
    9.5227  -20.9272   19.3275 C   0  0  0  0  0  0  0  0  0  0  0  0
    9.5076  -19.5825   18.6429 C   0  0  2  0  0  0  0  0  0  0  0  0
   10.2488  -19.6830   17.4021 N   0  0  0  0  0  0  0  0  0  0  0  0
   10.0636  -18.5077   19.4628 C   0  0  0  0  0  0  0  0  0  0  0  0
   11.2899  -18.3082   19.6526 O   0  0  0  0  0  0  0  0  0  0  0  0
    9.1631  -17.6119   20.1005 N   0  0  0  0  0  0  0  0  0  0  0  0
    9.5786  -16.5893   21.0195 C   0  0  1  0  0  0  0  0  0  0  0  0
    8.4526  -15.5668   21.0929 C   0  0  0  0  0  0  0  0  0  0  0  0
    8.5232  -14.7307   19.8191 C   0  0  0  0  0  0  0  0  0  0  0  0
    7.3352  -13.7708   19.8506 C   0  0  0  0  0  0  0  0  0  0  0  0
    7.4169  -12.9267   18.6025 C   0  0  0  0  0  0  0  0  0  0  0  0
    6.3036  -12.0078   18.5685 N   0  0  0  0  0  0  0  0  0  0  0  0
    9.8383  -17.0923   22.3755 C   0  0  0  0  0  0  0  0  0  0  0  0
    9.0326  -17.9188   22.8699 O   0  0  0  0  0  0  0  0  0  0  0  0
   15.6710  -18.4979   23.6499 N   0  0  0  0  0  0  0  0  0  0  0  0
   14.9814  -18.9483   24.7958 C   0  0  0  0  0  0  0  0  0  0  0  0
   15.5889  -19.6656   25.6232 O   0  0  0  0  0  0  0  0  0  0  0  0
   13.5785  -18.5816   25.0256 C   0  0  0  0  0  0  0  0  0  0  0  0
   12.9217  -17.7578   23.9786 C   0  0  0  0  0  0  0  0  0  0  0  0
   11.4942  -17.4800   24.2167 C   0  0  2  0  0  0  0  0  0  0  0  0
   10.9440  -16.6754   23.1099 N   0  0  0  0  0  0  0  0  0  0  0  0
   11.0468  -16.9136   25.4547 C   0  0  0  0  0  0  0  0  0  0  0  0
   11.2845  -17.3698   26.6113 O   0  0  0  0  0  0  0  0  0  0  0  0
   10.2657  -15.7376   25.4336 O   0  0  0  0  0  0  0  0  0  0  0  0
  2  1  1  1
  2  4  1  0
  2  3  1  0
  4  5  2  0
  6  7  1  0
  6  4  1  0
  7  8  1  1
  8  9  1  0
 10  9  1  0
 11 10  1  0
 12 11  1  0
 13  7  1  0
 13 14  2  0
 15 16  1  0
 16 17  2  0
 18 19  1  0
 18 16  1  0
 20 19  1  1
 20 21  1  0
 20 22  1  0
 21 13  1  0
 22 24  1  0
 23 22  2  0
M  END
$$$$
