AKQ.pdb
     RDKit          3D

 24 23  0  0  1  0  0  0  0  0999 V2000
    6.4899  -19.7282   20.6323 C   0  0  0  0  0  0  0  0  0  0  0  0
    6.9623  -18.8857   21.7916 C   0  0  2  0  0  0  0  0  0  0  0  0
    5.8445  -18.1104   22.2903 N   0  0  0  0  0  0  0  0  0  0  0  0
    8.0665  -17.9920   21.4474 C   0  0  0  0  0  0  0  0  0  0  0  0
    9.1739  -18.3622   20.9824 O   0  0  0  0  0  0  0  0  0  0  0  0
    7.8908  -16.5958   21.6475 N   0  0  0  0  0  0  0  0  0  0  0  0
    8.9379  -15.6299   21.4645 C   0  0  1  0  0  0  0  0  0  0  0  0
    8.3287  -14.4394   20.7362 C   0  0  0  0  0  0  0  0  0  0  0  0
    8.2631  -14.8053   19.2568 C   0  0  0  0  0  0  0  0  0  0  0  0
    8.0918  -13.4995   18.4828 C   0  0  0  0  0  0  0  0  0  0  0  0
    8.0015  -13.8619   17.0208 C   0  0  0  0  0  0  0  0  0  0  0  0
    7.6842  -12.6824   16.2506 N   0  0  0  0  0  0  0  0  0  0  0  0
    9.5209  -15.1535   22.7265 C   0  0  0  0  0  0  0  0  0  0  0  0
    9.1275  -14.0541   23.1880 O   0  0  0  0  0  0  0  0  0  0  0  0
    7.8316  -14.5840   27.5471 N   0  0  0  0  0  0  0  0  0  0  0  0
    9.1815  -14.4636   27.9404 C   0  0  0  0  0  0  0  0  0  0  0  0
    9.4394  -14.1153   29.1153 O   0  0  0  0  0  0  0  0  0  0  0  0
   10.2708  -14.7465   26.9977 C   0  0  0  0  0  0  0  0  0  0  0  0
    9.8800  -15.0866   25.6057 C   0  0  0  0  0  0  0  0  0  0  0  0
   10.9989  -15.4690   24.7261 C   0  0  2  0  0  0  0  0  0  0  0  0
   10.4861  -15.8879   23.4083 N   0  0  0  0  0  0  0  0  0  0  0  0
   11.9839  -16.4187   25.1518 C   0  0  0  0  0  0  0  0  0  0  0  0
   12.9125  -16.2056   25.9853 O   0  0  0  0  0  0  0  0  0  0  0  0
   11.9570  -17.7266   24.6206 O   0  0  0  0  0  0  0  0  0  0  0  0
  2  1  1  6
  2  4  1  0
  2  3  1  0
  4  5  2  0
  6  7  1  0
  6  4  1  0
  7  8  1  1
  8  9  1  0
 10  9  1  0
 11 10  1  0
 12 11  1  0
 13  7  1  0
 13 14  2  0
 15 16  1  0
 16 17  2  0
 18 19  1  0
 18 16  1  0
 20 19  1  1
 20 21  1  0
 20 22  1  0
 21 13  1  0
 22 24  1  0
 23 22  2  0
M  END
$$$$
