AKQ.pdb
     RDKit          3D

 24 23  0  0  1  0  0  0  0  0999 V2000
   12.2400  -17.5542   20.0173 C   0  0  0  0  0  0  0  0  0  0  0  0
   10.9161  -18.2746   19.9447 C   0  0  2  0  0  0  0  0  0  0  0  0
   10.2052  -17.8254   18.7648 N   0  0  0  0  0  0  0  0  0  0  0  0
   10.0814  -18.0751   21.1279 C   0  0  0  0  0  0  0  0  0  0  0  0
    9.5927  -16.9741   21.4867 O   0  0  0  0  0  0  0  0  0  0  0  0
    9.7910  -19.2011   21.9454 N   0  0  0  0  0  0  0  0  0  0  0  0
    8.9711  -19.1366   23.1228 C   0  0  1  0  0  0  0  0  0  0  0  0
    8.3834  -20.5249   23.3376 C   0  0  0  0  0  0  0  0  0  0  0  0
    7.4460  -20.4336   24.5375 C   0  0  0  0  0  0  0  0  0  0  0  0
    6.9419  -21.8483   24.8168 C   0  0  0  0  0  0  0  0  0  0  0  0
    6.0431  -21.7657   26.0260 C   0  0  0  0  0  0  0  0  0  0  0  0
    5.4059  -23.0435   26.2412 N   0  0  0  0  0  0  0  0  0  0  0  0
    9.7135  -18.7545   24.3320 C   0  0  0  0  0  0  0  0  0  0  0  0
   10.8851  -19.1834   24.4734 O   0  0  0  0  0  0  0  0  0  0  0  0
    8.8154  -13.4634   27.7337 N   0  0  0  0  0  0  0  0  0  0  0  0
    9.6425  -14.2611   28.5527 C   0  0  0  0  0  0  0  0  0  0  0  0
   10.0609  -13.7861   29.6332 O   0  0  0  0  0  0  0  0  0  0  0  0
   10.0055  -15.6274   28.1565 C   0  0  0  0  0  0  0  0  0  0  0  0
    9.4601  -16.1170   26.8646 C   0  0  0  0  0  0  0  0  0  0  0  0
    9.9256  -17.4571   26.4661 C   0  0  2  0  0  0  0  0  0  0  0  0
    9.1499  -17.9384   25.3077 N   0  0  0  0  0  0  0  0  0  0  0  0
   10.0219  -18.5216   27.4207 C   0  0  0  0  0  0  0  0  0  0  0  0
    9.0799  -19.2868   27.7804 O   0  0  0  0  0  0  0  0  0  0  0  0
   11.2621  -18.7794   28.0446 O   0  0  0  0  0  0  0  0  0  0  0  0
  2  1  1  1
  2  4  1  0
  2  3  1  0
  4  5  2  0
  6  7  1  0
  6  4  1  0
  7  8  1  1
  8  9  1  0
 10  9  1  0
 11 10  1  0
 12 11  1  0
 13  7  1  0
 13 14  2  0
 15 16  1  0
 16 17  2  0
 18 19  1  0
 18 16  1  0
 20 19  1  1
 20 21  1  0
 20 22  1  0
 21 13  1  0
 22 24  1  0
 23 22  2  0
M  END
$$$$
