AKQ.pdb
     RDKit          3D

 24 23  0  0  1  0  0  0  0  0999 V2000
    6.2153  -19.3309   25.6325 C   0  0  0  0  0  0  0  0  0  0  0  0
    5.9028  -19.2449   24.1587 C   0  0  2  0  0  0  0  0  0  0  0  0
    5.6688  -20.5824   23.6532 N   0  0  0  0  0  0  0  0  0  0  0  0
    6.9580  -18.6014   23.3784 C   0  0  0  0  0  0  0  0  0  0  0  0
    8.0019  -19.1712   22.9720 O   0  0  0  0  0  0  0  0  0  0  0  0
    6.8076  -17.2277   23.0456 N   0  0  0  0  0  0  0  0  0  0  0  0
    7.8164  -16.4595   22.3712 C   0  0  1  0  0  0  0  0  0  0  0  0
    7.1172  -15.2750   21.7179 C   0  0  0  0  0  0  0  0  0  0  0  0
    8.1138  -14.6448   20.7501 C   0  0  0  0  0  0  0  0  0  0  0  0
    7.3573  -13.5725   19.9682 C   0  0  0  0  0  0  0  0  0  0  0  0
    8.3096  -13.0277   18.9322 C   0  0  0  0  0  0  0  0  0  0  0  0
    7.6778  -11.9417   18.2205 N   0  0  0  0  0  0  0  0  0  0  0  0
    8.8585  -15.9453   23.2706 C   0  0  0  0  0  0  0  0  0  0  0  0
    8.5069  -15.2506   24.2556 O   0  0  0  0  0  0  0  0  0  0  0  0
   10.4695  -17.2404   28.0240 N   0  0  0  0  0  0  0  0  0  0  0  0
   10.8181  -18.1487   27.0018 C   0  0  0  0  0  0  0  0  0  0  0  0
   10.9099  -19.3660   27.2811 O   0  0  0  0  0  0  0  0  0  0  0  0
   11.0638  -17.6848   25.6307 C   0  0  0  0  0  0  0  0  0  0  0  0
   10.8834  -16.2332   25.3728 C   0  0  0  0  0  0  0  0  0  0  0  0
   11.2479  -15.7977   24.0130 C   0  0  2  0  0  0  0  0  0  0  0  0
   10.2068  -16.2106   23.0534 N   0  0  0  0  0  0  0  0  0  0  0  0
   12.5296  -16.1114   23.4539 C   0  0  0  0  0  0  0  0  0  0  0  0
   13.6535  -15.8258   23.9614 O   0  0  0  0  0  0  0  0  0  0  0  0
   12.5961  -16.8025   22.2245 O   0  0  0  0  0  0  0  0  0  0  0  0
  2  1  1  1
  2  4  1  0
  2  3  1  0
  4  5  2  0
  6  7  1  0
  6  4  1  0
  7  8  1  1
  8  9  1  0
 10  9  1  0
 11 10  1  0
 12 11  1  0
 13  7  1  0
 13 14  2  0
 15 16  1  0
 16 17  2  0
 18 19  1  0
 18 16  1  0
 20 19  1  1
 20 21  1  0
 20 22  1  0
 21 13  1  0
 22 24  1  0
 23 22  2  0
M  END
$$$$
