AKQ.pdb
     RDKit          3D

 24 23  0  0  1  0  0  0  0  0999 V2000
   10.7021  -21.4615   17.4988 C   0  0  0  0  0  0  0  0  0  0  0  0
    9.3774  -20.8437   17.8736 C   0  0  2  0  0  0  0  0  0  0  0  0
    9.1958  -19.6288   17.1054 N   0  0  0  0  0  0  0  0  0  0  0  0
    9.2585  -20.5467   19.2998 C   0  0  0  0  0  0  0  0  0  0  0  0
    9.6953  -19.5085   19.8576 O   0  0  0  0  0  0  0  0  0  0  0  0
    8.6021  -21.4930   20.1328 N   0  0  0  0  0  0  0  0  0  0  0  0
    8.4392  -21.3246   21.5498 C   0  0  1  0  0  0  0  0  0  0  0  0
    7.3109  -22.2499   21.9854 C   0  0  0  0  0  0  0  0  0  0  0  0
    7.1382  -22.0680   23.4900 C   0  0  0  0  0  0  0  0  0  0  0  0
    6.0812  -23.0742   23.9413 C   0  0  0  0  0  0  0  0  0  0  0  0
    6.0051  -22.9891   25.4460 C   0  0  0  0  0  0  0  0  0  0  0  0
    5.1052  -24.0040   25.9412 N   0  0  0  0  0  0  0  0  0  0  0  0
    9.6428  -21.6650   22.3212 C   0  0  0  0  0  0  0  0  0  0  0  0
   10.2186  -22.7542   22.0789 O   0  0  0  0  0  0  0  0  0  0  0  0
   14.9499  -19.8131   21.9353 N   0  0  0  0  0  0  0  0  0  0  0  0
   15.0528  -20.3289   23.2448 C   0  0  0  0  0  0  0  0  0  0  0  0
   16.1838  -20.4038   23.7772 O   0  0  0  0  0  0  0  0  0  0  0  0
   13.8597  -20.7660   23.9802 C   0  0  0  0  0  0  0  0  0  0  0  0
   12.5469  -20.5306   23.3266 C   0  0  0  0  0  0  0  0  0  0  0  0
   11.3928  -21.1177   24.0301 C   0  0  2  0  0  0  0  0  0  0  0  0
   10.1476  -20.8148   23.2999 N   0  0  0  0  0  0  0  0  0  0  0  0
   11.1719  -20.8709   25.4243 C   0  0  0  0  0  0  0  0  0  0  0  0
   10.3946  -19.9990   25.9122 O   0  0  0  0  0  0  0  0  0  0  0  0
   11.8622  -21.6469   26.3808 O   0  0  0  0  0  0  0  0  0  0  0  0
  2  1  1  1
  2  4  1  0
  2  3  1  0
  4  5  2  0
  6  7  1  0
  6  4  1  0
  7  8  1  1
  8  9  1  0
 10  9  1  0
 11 10  1  0
 12 11  1  0
 13  7  1  0
 13 14  2  0
 15 16  1  0
 16 17  2  0
 18 19  1  0
 18 16  1  0
 20 19  1  6
 20 21  1  0
 20 22  1  0
 21 13  1  0
 22 24  1  0
 23 22  2  0
M  END
$$$$
