NFF.pdb
     RDKit          3D

 31 32  0  0  1  0  0  0  0  0999 V2000
   29.6829  -23.9132  -17.0764 N   0  0  0  0  0  0  0  0  0  0  0  0
   30.4010  -23.2479  -16.0074 C   0  0  0  0  0  0  0  0  0  0  0  0
   31.4712  -23.6763  -15.5512 O   0  0  0  0  0  0  0  0  0  0  0  0
   29.8053  -22.0070  -15.4548 C   0  0  0  0  0  0  0  0  0  0  0  0
   28.5301  -21.7189  -16.2496 C   0  0  2  0  0  0  0  0  0  0  0  0
   28.9475  -20.8597  -17.3722 N   0  0  0  0  0  0  0  0  0  0  0  0
   27.6266  -20.9294  -15.3852 C   0  0  0  0  0  0  0  0  0  0  0  0
   27.8269  -19.6536  -15.3364 O   0  0  0  0  0  0  0  0  0  0  0  0
   26.5873  -21.4931  -14.6365 N   0  0  0  0  0  0  0  0  0  0  0  0
   25.5505  -20.6644  -13.9687 C   0  0  1  0  0  0  0  0  0  0  0  0
   24.3048  -20.7794  -14.8008 C   0  0  0  0  0  0  0  0  0  0  0  0
   23.1081  -20.1349  -14.2508 C   0  0  0  0  0  0  0  0  0  0  0  0
   22.8999  -18.8010  -14.5315 C   0  0  0  0  0  0  0  0  0  0  0  0
   21.8102  -18.1157  -14.1127 C   0  0  0  0  0  0  0  0  0  0  0  0
   20.8400  -18.7507  -13.3670 C   0  0  0  0  0  0  0  0  0  0  0  0
   21.0436  -20.0998  -13.0794 C   0  0  0  0  0  0  0  0  0  0  0  0
   22.1534  -20.7708  -13.5134 C   0  0  0  0  0  0  0  0  0  0  0  0
   25.4089  -21.1862  -12.6168 C   0  0  0  0  0  0  0  0  0  0  0  0
   25.3296  -22.4642  -12.4115 O   0  0  0  0  0  0  0  0  0  0  0  0
   25.3504  -20.4216  -11.4282 N   0  0  0  0  0  0  0  0  0  0  0  0
   24.9386  -20.9807  -10.1622 C   0  0  1  0  0  0  0  0  0  0  0  0
   25.7710  -20.2797   -9.0906 C   0  0  0  0  0  0  0  0  0  0  0  0
   27.1915  -20.6644   -9.1656 C   0  0  0  0  0  0  0  0  0  0  0  0
   28.1705  -19.8531   -8.6362 C   0  0  0  0  0  0  0  0  0  0  0  0
   29.4991  -20.1528   -8.6693 C   0  0  0  0  0  0  0  0  0  0  0  0
   29.8527  -21.3544   -9.2788 C   0  0  0  0  0  0  0  0  0  0  0  0
   28.8806  -22.1804   -9.8149 C   0  0  0  0  0  0  0  0  0  0  0  0
   27.5387  -21.8514   -9.7676 C   0  0  0  0  0  0  0  0  0  0  0  0
   23.5182  -20.8548   -9.9199 C   0  0  0  0  0  0  0  0  0  0  0  0
   22.6295  -20.1222  -10.6434 O   0  0  0  0  0  0  0  0  0  0  0  0
   23.0474  -21.5009   -8.9148 O   0  0  0  0  0  0  0  0  0  0  0  0
  2  1  1  0
  2  4  1  0
  3  2  2  0
  4  5  1  0
  5  6  1  6
  7  9  1  0
  7  5  1  0
  8  7  2  0
 10  9  1  0
 10 11  1  6
 11 12  1  0
 12 13  2  0
 12 17  1  0
 13 14  1  0
 14 15  2  0
 16 15  1  0
 17 16  2  0
 18 10  1  0
 19 18  2  0
 20 18  1  0
 21 29  1  0
 21 20  1  0
 22 23  1  0
 21 22  1  1
 23 24  2  0
 23 28  1  0
 24 25  1  0
 25 26  2  0
 27 26  1  0
 28 27  2  0
 29 30  1  0
 31 29  2  0
M  END
$$$$
