NFF.pdb
     RDKit          3D

 31 32  0  0  1  0  0  0  0  0999 V2000
   29.3408  -18.1688  -16.0219 N   0  0  0  0  0  0  0  0  0  0  0  0
   28.5483  -17.0642  -15.5193 C   0  0  0  0  0  0  0  0  0  0  0  0
   28.5941  -15.9277  -16.0125 O   0  0  0  0  0  0  0  0  0  0  0  0
   27.6568  -17.3342  -14.3650 C   0  0  0  0  0  0  0  0  0  0  0  0
   26.9261  -18.6480  -14.6493 C   0  0  2  0  0  0  0  0  0  0  0  0
   25.9372  -18.3339  -15.6962 N   0  0  0  0  0  0  0  0  0  0  0  0
   26.1871  -19.0287  -13.4263 C   0  0  0  0  0  0  0  0  0  0  0  0
   25.2802  -18.2081  -13.0088 O   0  0  0  0  0  0  0  0  0  0  0  0
   26.4226  -20.2135  -12.7196 N   0  0  0  0  0  0  0  0  0  0  0  0
   25.5381  -20.6682  -11.6158 C   0  0  1  0  0  0  0  0  0  0  0  0
   24.9633  -21.9899  -12.0405 C   0  0  0  0  0  0  0  0  0  0  0  0
   23.8571  -21.9258  -13.0008 C   0  0  0  0  0  0  0  0  0  0  0  0
   22.6114  -21.5608  -12.5355 C   0  0  0  0  0  0  0  0  0  0  0  0
   21.5291  -21.4279  -13.3377 C   0  0  0  0  0  0  0  0  0  0  0  0
   21.6410  -21.6607  -14.6919 C   0  0  0  0  0  0  0  0  0  0  0  0
   22.8978  -22.0299  -15.1698 C   0  0  0  0  0  0  0  0  0  0  0  0
   23.9767  -22.1582  -14.3392 C   0  0  0  0  0  0  0  0  0  0  0  0
   26.3679  -20.7406  -10.4216 C   0  0  0  0  0  0  0  0  0  0  0  0
   27.5990  -21.1402  -10.5010 O   0  0  0  0  0  0  0  0  0  0  0  0
   25.9711  -20.4010   -9.1070 N   0  0  0  0  0  0  0  0  0  0  0  0
   26.7653  -20.7257   -7.9456 C   0  0  1  0  0  0  0  0  0  0  0  0
   27.6871  -19.5318   -7.7066 C   0  0  0  0  0  0  0  0  0  0  0  0
   28.3696  -19.6224   -6.4036 C   0  0  0  0  0  0  0  0  0  0  0  0
   29.4855  -20.4141   -6.2457 C   0  0  0  0  0  0  0  0  0  0  0  0
   30.1634  -20.5377   -5.0705 C   0  0  0  0  0  0  0  0  0  0  0  0
   29.6749  -19.8088   -3.9887 C   0  0  0  0  0  0  0  0  0  0  0  0
   28.5550  -19.0088   -4.1316 C   0  0  0  0  0  0  0  0  0  0  0  0
   27.8858  -18.9018   -5.3366 C   0  0  0  0  0  0  0  0  0  0  0  0
   25.9674  -21.0417   -6.7813 C   0  0  0  0  0  0  0  0  0  0  0  0
   24.6316  -20.8367   -6.6282 O   0  0  0  0  0  0  0  0  0  0  0  0
   26.5859  -21.5691   -5.7869 O   0  0  0  0  0  0  0  0  0  0  0  0
  2  1  1  0
  2  4  1  0
  3  2  2  0
  4  5  1  0
  5  6  1  6
  7  9  1  0
  7  5  1  0
  8  7  2  0
 10  9  1  0
 10 11  1  6
 11 12  1  0
 12 13  2  0
 12 17  1  0
 13 14  1  0
 14 15  2  0
 16 15  1  0
 17 16  2  0
 18 10  1  0
 19 18  2  0
 20 18  1  0
 21 29  1  0
 21 20  1  0
 22 23  1  0
 21 22  1  1
 23 24  2  0
 23 28  1  0
 24 25  1  0
 25 26  2  0
 27 26  1  0
 28 27  2  0
 29 30  1  0
 31 29  2  0
M  END
$$$$
