NFF.pdb
     RDKit          3D

 31 32  0  0  1  0  0  0  0  0999 V2000
   42.0297   -5.0155   -8.5074 N   0  0  0  0  0  0  0  0  0  0  0  0
   40.6912   -5.3308   -8.0492 C   0  0  0  0  0  0  0  0  0  0  0  0
   39.8629   -5.9228   -8.7566 O   0  0  0  0  0  0  0  0  0  0  0  0
   40.3253   -4.9134   -6.6737 C   0  0  0  0  0  0  0  0  0  0  0  0
   41.4706   -4.0524   -6.1373 C   0  0  2  0  0  0  0  0  0  0  0  0
   42.2420   -4.9318   -5.2405 N   0  0  0  0  0  0  0  0  0  0  0  0
   40.8798   -2.9732   -5.3171 C   0  0  0  0  0  0  0  0  0  0  0  0
   40.5069   -3.2831   -4.1191 O   0  0  0  0  0  0  0  0  0  0  0  0
   40.7128   -1.6606   -5.7730 N   0  0  0  0  0  0  0  0  0  0  0  0
   40.1583   -0.5855   -4.9104 C   0  0  1  0  0  0  0  0  0  0  0  0
   40.9393    0.6606   -5.2187 C   0  0  0  0  0  0  0  0  0  0  0  0
   40.5432    1.8620   -4.4773 C   0  0  0  0  0  0  0  0  0  0  0  0
   39.7382    2.7834   -5.1133 C   0  0  0  0  0  0  0  0  0  0  0  0
   39.2775    3.9059   -4.5131 C   0  0  0  0  0  0  0  0  0  0  0  0
   39.6089    4.1731   -3.2019 C   0  0  0  0  0  0  0  0  0  0  0  0
   40.4224    3.2456   -2.5521 C   0  0  0  0  0  0  0  0  0  0  0  0
   40.8761    2.1186   -3.1802 C   0  0  0  0  0  0  0  0  0  0  0  0
   38.7406   -0.4883   -5.2273 C   0  0  0  0  0  0  0  0  0  0  0  0
   38.3403   -0.5157   -6.4605 O   0  0  0  0  0  0  0  0  0  0  0  0
   37.6829   -0.3669   -4.2959 N   0  0  0  0  0  0  0  0  0  0  0  0
   36.3024   -0.2352   -4.6983 C   0  0  1  0  0  0  0  0  0  0  0  0
   35.5370   -1.3453   -3.9811 C   0  0  0  0  0  0  0  0  0  0  0  0
   35.8746   -2.6752   -4.5186 C   0  0  0  0  0  0  0  0  0  0  0  0
   36.5261   -3.6058   -3.7399 C   0  0  0  0  0  0  0  0  0  0  0  0
   36.8624   -4.8522   -4.1752 C   0  0  0  0  0  0  0  0  0  0  0  0
   36.5125   -5.1711   -5.4853 C   0  0  0  0  0  0  0  0  0  0  0  0
   35.8574   -4.2470   -6.2799 C   0  0  0  0  0  0  0  0  0  0  0  0
   35.5280   -2.9883   -5.8124 C   0  0  0  0  0  0  0  0  0  0  0  0
   35.7521    1.0738   -4.4230 C   0  0  0  0  0  0  0  0  0  0  0  0
   34.6788    1.6505   -5.0274 O   0  0  0  0  0  0  0  0  0  0  0  0
   36.3403    1.7648   -3.5141 O   0  0  0  0  0  0  0  0  0  0  0  0
  2  1  1  0
  2  4  1  0
  3  2  2  0
  4  5  1  0
  5  6  1  1
  7  9  1  0
  7  5  1  0
  8  7  2  0
 10  9  1  0
 10 11  1  6
 11 12  1  0
 12 13  2  0
 12 17  1  0
 13 14  1  0
 14 15  2  0
 16 15  1  0
 17 16  2  0
 18 10  1  0
 19 18  2  0
 20 18  1  0
 21 29  1  0
 21 20  1  0
 22 23  1  0
 21 22  1  1
 23 24  2  0
 23 28  1  0
 24 25  1  0
 25 26  2  0
 27 26  1  0
 28 27  2  0
 29 30  1  0
 31 29  2  0
M  END
$$$$
