NFF.pdb
     RDKit          3D

 31 32  0  0  1  0  0  0  0  0999 V2000
   34.8300  -29.5637  -22.5173 N   0  0  0  0  0  0  0  0  0  0  0  0
   34.9325  -28.4434  -21.6033 C   0  0  0  0  0  0  0  0  0  0  0  0
   35.4590  -27.3666  -21.9196 O   0  0  0  0  0  0  0  0  0  0  0  0
   34.3779  -28.6231  -20.2394 C   0  0  0  0  0  0  0  0  0  0  0  0
   35.3871  -28.0306  -19.2539 C   0  0  2  0  0  0  0  0  0  0  0  0
   36.2675  -29.1477  -18.8673 N   0  0  0  0  0  0  0  0  0  0  0  0
   34.6445  -27.6001  -18.0497 C   0  0  0  0  0  0  0  0  0  0  0  0
   34.1190  -28.5287  -17.3206 O   0  0  0  0  0  0  0  0  0  0  0  0
   34.4920  -26.2603  -17.6750 N   0  0  0  0  0  0  0  0  0  0  0  0
   33.7313  -25.8567  -16.4642 C   0  0  1  0  0  0  0  0  0  0  0  0
   34.5457  -24.7979  -15.7763 C   0  0  0  0  0  0  0  0  0  0  0  0
   33.9810  -24.2663  -14.5319 C   0  0  0  0  0  0  0  0  0  0  0  0
   33.0345  -23.2676  -14.6210 C   0  0  0  0  0  0  0  0  0  0  0  0
   32.4160  -22.7327  -13.5422 C   0  0  0  0  0  0  0  0  0  0  0  0
   32.7224  -23.1849  -12.2764 C   0  0  0  0  0  0  0  0  0  0  0  0
   33.6786  -24.1950  -12.1784 C   0  0  0  0  0  0  0  0  0  0  0  0
   34.2904  -24.7193  -13.2835 C   0  0  0  0  0  0  0  0  0  0  0  0
   32.4300  -25.3949  -16.9261 C   0  0  0  0  0  0  0  0  0  0  0  0
   32.3316  -24.6815  -18.0046 O   0  0  0  0  0  0  0  0  0  0  0  0
   31.1845  -25.6514  -16.3065 N   0  0  0  0  0  0  0  0  0  0  0  0
   29.9357  -25.1530  -16.8330 C   0  0  1  0  0  0  0  0  0  0  0  0
   28.8291  -25.9426  -16.1370 C   0  0  0  0  0  0  0  0  0  0  0  0
   27.4907  -25.4911  -16.5570 C   0  0  0  0  0  0  0  0  0  0  0  0
   26.8224  -26.1240  -17.5816 C   0  0  0  0  0  0  0  0  0  0  0  0
   25.5833  -25.7586  -18.0141 C   0  0  0  0  0  0  0  0  0  0  0  0
   24.9871  -24.6820  -17.3618 C   0  0  0  0  0  0  0  0  0  0  0  0
   25.6455  -24.0361  -16.3304 C   0  0  0  0  0  0  0  0  0  0  0  0
   26.9034  -24.4279  -15.9115 C   0  0  0  0  0  0  0  0  0  0  0  0
   29.7769  -23.7252  -16.6645 C   0  0  0  0  0  0  0  0  0  0  0  0
   29.1871  -22.8621  -17.5347 O   0  0  0  0  0  0  0  0  0  0  0  0
   30.2440  -23.2191  -15.5804 O   0  0  0  0  0  0  0  0  0  0  0  0
  2  1  1  0
  2  4  1  0
  3  2  2  0
  4  5  1  0
  5  6  1  1
  7  9  1  0
  7  5  1  0
  8  7  2  0
 10  9  1  0
 10 11  1  6
 11 12  1  0
 12 13  2  0
 12 17  1  0
 13 14  1  0
 14 15  2  0
 16 15  1  0
 17 16  2  0
 18 10  1  0
 19 18  2  0
 20 18  1  0
 21 29  1  0
 21 20  1  0
 22 23  1  0
 21 22  1  1
 23 24  2  0
 23 28  1  0
 24 25  1  0
 25 26  2  0
 27 26  1  0
 28 27  2  0
 29 30  1  0
 31 29  2  0
M  END
$$$$
