NFF.pdb
     RDKit          3D

 31 32  0  0  1  0  0  0  0  0999 V2000
   15.6777  -12.9115  -14.1501 N   0  0  0  0  0  0  0  0  0  0  0  0
   15.7061  -11.6553  -14.8727 C   0  0  0  0  0  0  0  0  0  0  0  0
   14.6788  -11.0923  -15.2783 O   0  0  0  0  0  0  0  0  0  0  0  0
   17.0336  -11.0434  -15.1245 C   0  0  0  0  0  0  0  0  0  0  0  0
   17.1775  -10.8702  -16.6377 C   0  0  2  0  0  0  0  0  0  0  0  0
   17.6271  -12.1786  -17.1462 N   0  0  0  0  0  0  0  0  0  0  0  0
   18.2600   -9.8924  -16.8805 C   0  0  0  0  0  0  0  0  0  0  0  0
   19.4740  -10.3157  -16.7496 O   0  0  0  0  0  0  0  0  0  0  0  0
   18.0297   -8.5594  -17.2391 N   0  0  0  0  0  0  0  0  0  0  0  0
   19.1367   -7.6204  -17.5563 C   0  0  1  0  0  0  0  0  0  0  0  0
   18.6253   -6.6962  -18.6249 C   0  0  0  0  0  0  0  0  0  0  0  0
   19.4996   -5.5697  -18.9664 C   0  0  0  0  0  0  0  0  0  0  0  0
   20.5564   -5.8017  -19.8213 C   0  0  0  0  0  0  0  0  0  0  0  0
   21.4013   -4.8296  -20.2379 C   0  0  0  0  0  0  0  0  0  0  0  0
   21.2264   -3.5318  -19.8068 C   0  0  0  0  0  0  0  0  0  0  0  0
   20.1596   -3.2895  -18.9423 C   0  0  0  0  0  0  0  0  0  0  0  0
   19.3194   -4.2888  -18.5348 C   0  0  0  0  0  0  0  0  0  0  0  0
   19.4827   -6.9503  -16.3109 C   0  0  0  0  0  0  0  0  0  0  0  0
   18.5533   -6.4798  -15.5385 O   0  0  0  0  0  0  0  0  0  0  0  0
   20.7888   -6.7439  -15.8083 N   0  0  0  0  0  0  0  0  0  0  0  0
   21.0523   -5.9641  -14.6220 C   0  0  1  0  0  0  0  0  0  0  0  0
   21.7226   -6.9081  -13.6260 C   0  0  0  0  0  0  0  0  0  0  0  0
   22.7756   -7.7168  -14.2654 C   0  0  0  0  0  0  0  0  0  0  0  0
   22.7423   -9.0924  -14.2056 C   0  0  0  0  0  0  0  0  0  0  0  0
   23.6814   -9.8961  -14.7783 C   0  0  0  0  0  0  0  0  0  0  0  0
   24.7189   -9.2592  -15.4551 C   0  0  0  0  0  0  0  0  0  0  0  0
   24.7662   -7.8780  -15.5243 C   0  0  0  0  0  0  0  0  0  0  0  0
   23.7992   -7.0860  -14.9334 C   0  0  0  0  0  0  0  0  0  0  0  0
   21.8512   -4.7865  -14.8813 C   0  0  0  0  0  0  0  0  0  0  0  0
   22.1576   -3.7985  -13.9982 O   0  0  0  0  0  0  0  0  0  0  0  0
   22.3182   -4.6596  -16.0709 O   0  0  0  0  0  0  0  0  0  0  0  0
  2  1  1  0
  2  4  1  0
  3  2  2  0
  4  5  1  0
  5  6  1  6
  7  9  1  0
  7  5  1  0
  8  7  2  0
 10  9  1  0
 10 11  1  6
 11 12  1  0
 12 13  2  0
 12 17  1  0
 13 14  1  0
 14 15  2  0
 16 15  1  0
 17 16  2  0
 18 10  1  0
 19 18  2  0
 20 18  1  0
 21 29  1  0
 21 20  1  0
 22 23  1  0
 21 22  1  1
 23 24  2  0
 23 28  1  0
 24 25  1  0
 25 26  2  0
 27 26  1  0
 28 27  2  0
 29 30  1  0
 31 29  2  0
M  END
$$$$
