AER.pdb
     RDKit          3D

 26 25  0  0  1  0  0  0  0  0999 V2000
   25.6140  -20.3225   -8.6617 C   0  0  0  0  0  0  0  0  0  0  0  0
   24.7712  -20.8698   -9.7915 C   0  0  2  0  0  0  0  0  0  0  0  0
   24.9934  -22.2888   -9.9311 N   0  0  0  0  0  0  0  0  0  0  0  0
   25.0198  -20.2198  -11.0789 C   0  0  0  0  0  0  0  0  0  0  0  0
   24.8161  -18.9860  -11.2124 O   0  0  0  0  0  0  0  0  0  0  0  0
   25.4850  -20.9353  -12.1884 N   0  0  0  0  0  0  0  0  0  0  0  0
   25.7417  -20.4151  -13.4844 C   0  0  1  0  0  0  0  0  0  0  0  0
   26.6326  -21.2419  -14.3518 C   0  0  0  0  0  0  0  0  0  0  0  0
   26.9716  -20.5303  -15.6616 C   0  0  0  0  0  0  0  0  0  0  0  0
   27.8409  -21.4104  -16.4848 C   0  0  0  0  0  0  0  0  0  0  0  0
   28.2272  -21.0212  -17.6309 O   0  0  0  0  0  0  0  0  0  0  0  0
   24.4829  -20.1705  -14.2652 C   0  0  0  0  0  0  0  0  0  0  0  0
   23.5569  -21.0229  -14.2686 O   0  0  0  0  0  0  0  0  0  0  0  0
   28.2543  -22.6402  -16.0654 O   0  0  0  0  0  0  0  0  0  0  0  0
   19.9375  -19.2552  -19.7353 N   0  0  0  0  0  0  0  0  0  0  0  0
   19.5377  -17.8816  -19.6727 C   0  0  0  0  0  0  0  0  0  0  0  0
   18.3908  -17.5483  -20.1825 N   0  0  0  0  0  0  0  0  0  0  0  0
   20.3677  -16.9147  -19.0731 N   0  0  0  0  0  0  0  0  0  0  0  0
   21.6868  -17.2759  -18.5627 C   0  0  0  0  0  0  0  0  0  0  0  0
   21.7283  -17.0861  -17.0476 C   0  0  0  0  0  0  0  0  0  0  0  0
   23.0517  -17.4468  -16.4561 C   0  0  0  0  0  0  0  0  0  0  0  0
   22.9955  -18.7559  -15.7587 C   0  0  2  0  0  0  0  0  0  0  0  0
   24.2675  -18.9978  -15.0240 N   0  0  0  0  0  0  0  0  0  0  0  0
   22.8875  -19.8580  -16.7086 C   0  0  0  0  0  0  0  0  0  0  0  0
   21.7189  -20.5820  -16.8209 O   0  0  0  0  0  0  0  0  0  0  0  0
   23.8304  -20.1879  -17.4469 O   0  0  0  0  0  0  0  0  0  0  0  0
  2  1  1  1
  3  2  1  0
  4  5  2  0
  4  2  1  0
  6  4  1  0
  7  6  1  0
  7  8  1  6
  9  8  1  0
 10 14  1  0
 10  9  1  0
 11 10  2  0
 12 13  2  0
 12  7  1  0
 16 15  1  0
 17 16  2  0
 18 16  1  0
 19 18  1  0
 20 19  1  0
 21 20  1  0
 22 21  1  6
 22 23  1  0
 23 12  1  0
 24 22  1  0
 25 24  1  0
 26 24  2  0
M  END
$$$$
