AER.pdb
     RDKit          3D

 26 25  0  0  1  0  0  0  0  0999 V2000
   20.6067  -13.5430  -21.3547 C   0  0  0  0  0  0  0  0  0  0  0  0
   21.0026  -13.1334  -19.9541 C   0  0  2  0  0  0  0  0  0  0  0  0
   21.6278  -14.2416  -19.2734 N   0  0  0  0  0  0  0  0  0  0  0  0
   19.8842  -12.6473  -19.1452 C   0  0  0  0  0  0  0  0  0  0  0  0
   19.0181  -11.8916  -19.6556 O   0  0  0  0  0  0  0  0  0  0  0  0
   19.7406  -12.9995  -17.7982 N   0  0  0  0  0  0  0  0  0  0  0  0
   18.7225  -12.5592  -16.9116 C   0  0  1  0  0  0  0  0  0  0  0  0
   18.3224  -13.5284  -15.8486 C   0  0  0  0  0  0  0  0  0  0  0  0
   17.1993  -14.4541  -16.3158 C   0  0  0  0  0  0  0  0  0  0  0  0
   16.8290  -15.3713  -15.2070 C   0  0  0  0  0  0  0  0  0  0  0  0
   17.3718  -16.5173  -15.1288 O   0  0  0  0  0  0  0  0  0  0  0  0
   19.0807  -11.2776  -16.2164 C   0  0  0  0  0  0  0  0  0  0  0  0
   20.2765  -11.0268  -15.9144 O   0  0  0  0  0  0  0  0  0  0  0  0
   15.9176  -15.0399  -14.2485 O   0  0  0  0  0  0  0  0  0  0  0  0
   18.0742   -2.5766  -16.4202 N   0  0  0  0  0  0  0  0  0  0  0  0
   17.1309   -3.0935  -15.4748 C   0  0  0  0  0  0  0  0  0  0  0  0
   16.4849   -2.2534  -14.7244 N   0  0  0  0  0  0  0  0  0  0  0  0
   16.9086   -4.4795  -15.3610 N   0  0  0  0  0  0  0  0  0  0  0  0
   17.9191   -5.4366  -15.8013 C   0  0  0  0  0  0  0  0  0  0  0  0
   17.3984   -6.8616  -15.6241 C   0  0  0  0  0  0  0  0  0  0  0  0
   18.3407   -7.8914  -16.1557 C   0  0  0  0  0  0  0  0  0  0  0  0
   18.5006   -9.0218  -15.2071 C   0  0  2  0  0  0  0  0  0  0  0  0
   18.1209  -10.3004  -15.8682 N   0  0  0  0  0  0  0  0  0  0  0  0
   17.5923   -8.8938  -14.0725 C   0  0  0  0  0  0  0  0  0  0  0  0
   16.4417   -9.6508  -13.9997 O   0  0  0  0  0  0  0  0  0  0  0  0
   17.8127   -8.1082  -13.1359 O   0  0  0  0  0  0  0  0  0  0  0  0
  2  1  1  6
  3  2  1  0
  4  5  2  0
  4  2  1  0
  6  4  1  0
  7  6  1  0
  7  8  1  1
  9  8  1  0
 10 14  1  0
 10  9  1  0
 11 10  2  0
 12 13  2  0
 12  7  1  0
 16 15  1  0
 17 16  2  0
 18 16  1  0
 19 18  1  0
 20 19  1  0
 21 20  1  0
 22 21  1  6
 22 23  1  0
 23 12  1  0
 24 22  1  0
 25 24  1  0
 26 24  2  0
M  END
$$$$
