AER.pdb
     RDKit          3D

 26 25  0  0  1  0  0  0  0  0999 V2000
   19.6312  -19.3197  -14.5684 C   0  0  0  0  0  0  0  0  0  0  0  0
   20.1397  -19.4669  -15.9847 C   0  0  2  0  0  0  0  0  0  0  0  0
   19.2988  -20.3812  -16.7190 N   0  0  0  0  0  0  0  0  0  0  0  0
   21.5271  -19.9252  -16.0668 C   0  0  0  0  0  0  0  0  0  0  0  0
   22.0170  -20.6222  -15.1416 O   0  0  0  0  0  0  0  0  0  0  0  0
   22.3444  -19.6100  -17.1585 N   0  0  0  0  0  0  0  0  0  0  0  0
   23.6619  -20.0837  -17.3946 C   0  0  1  0  0  0  0  0  0  0  0  0
   24.2031  -19.8438  -18.7654 C   0  0  0  0  0  0  0  0  0  0  0  0
   23.4529  -20.6531  -19.8232 C   0  0  0  0  0  0  0  0  0  0  0  0
   24.0580  -20.3954  -21.1556 C   0  0  0  0  0  0  0  0  0  0  0  0
   25.3220  -20.3508  -21.2761 O   0  0  0  0  0  0  0  0  0  0  0  0
   24.6597  -19.5123  -16.4292 C   0  0  0  0  0  0  0  0  0  0  0  0
   24.5746  -18.3130  -16.0570 O   0  0  0  0  0  0  0  0  0  0  0  0
   23.3114  -20.2000  -22.2797 O   0  0  0  0  0  0  0  0  0  0  0  0
   24.4123  -20.6138  -10.6380 N   0  0  0  0  0  0  0  0  0  0  0  0
   25.5475  -20.9087   -9.8163 C   0  0  0  0  0  0  0  0  0  0  0  0
   25.4778  -20.6410   -8.5475 N   0  0  0  0  0  0  0  0  0  0  0  0
   26.7117  -21.4755  -10.3699 N   0  0  0  0  0  0  0  0  0  0  0  0
   27.5113  -20.7378  -11.3433 C   0  0  0  0  0  0  0  0  0  0  0  0
   26.6016  -20.1254  -12.4067 C   0  0  0  0  0  0  0  0  0  0  0  0
   26.8016  -20.7318  -13.7571 C   0  0  0  0  0  0  0  0  0  0  0  0
   26.6234  -19.7270  -14.8349 C   0  0  2  0  0  0  0  0  0  0  0  0
   25.7275  -20.2677  -15.8937 N   0  0  0  0  0  0  0  0  0  0  0  0
   27.8856  -19.4447  -15.5100 C   0  0  0  0  0  0  0  0  0  0  0  0
   28.6707  -18.3787  -15.1235 O   0  0  0  0  0  0  0  0  0  0  0  0
   28.3021  -20.1425  -16.4495 O   0  0  0  0  0  0  0  0  0  0  0  0
  2  1  1  1
  3  2  1  0
  4  5  2  0
  4  2  1  0
  6  4  1  0
  7  6  1  0
  7  8  1  6
  9  8  1  0
 10 14  1  0
 10  9  1  0
 11 10  2  0
 12 13  2  0
 12  7  1  0
 16 15  1  0
 17 16  2  0
 18 16  1  0
 19 18  1  0
 20 19  1  0
 21 20  1  0
 22 21  1  1
 22 23  1  0
 23 12  1  0
 24 22  1  0
 25 24  1  0
 26 24  2  0
M  END
$$$$
