AER.pdb
     RDKit          3D

 26 25  0  0  1  0  0  0  0  0999 V2000
   21.5233  -12.0748  -16.7301 C   0  0  0  0  0  0  0  0  0  0  0  0
   20.2946  -11.2225  -16.5066 C   0  0  2  0  0  0  0  0  0  0  0  0
   20.0481  -10.3977  -17.6648 N   0  0  0  0  0  0  0  0  0  0  0  0
   20.3796  -10.3673  -15.3221 C   0  0  0  0  0  0  0  0  0  0  0  0
   20.3437  -10.8763  -14.1726 O   0  0  0  0  0  0  0  0  0  0  0  0
   20.5017   -8.9767  -15.4240 N   0  0  0  0  0  0  0  0  0  0  0  0
   20.5584   -8.0506  -14.3491 C   0  0  1  0  0  0  0  0  0  0  0  0
   21.2410   -6.7554  -14.6424 C   0  0  0  0  0  0  0  0  0  0  0  0
   21.3787   -5.8885  -13.3909 C   0  0  0  0  0  0  0  0  0  0  0  0
   22.0017   -4.5913  -13.7613 C   0  0  0  0  0  0  0  0  0  0  0  0
   23.2589   -4.5213  -13.9307 O   0  0  0  0  0  0  0  0  0  0  0  0
   19.1986   -7.7111  -13.8108 C   0  0  0  0  0  0  0  0  0  0  0  0
   18.2750   -7.3527  -14.5870 O   0  0  0  0  0  0  0  0  0  0  0  0
   21.2789   -3.4478  -13.9326 O   0  0  0  0  0  0  0  0  0  0  0  0
   13.1289  -10.9051   -8.6781 N   0  0  0  0  0  0  0  0  0  0  0  0
   12.7997   -9.5240   -8.8650 C   0  0  0  0  0  0  0  0  0  0  0  0
   11.5642   -9.1567   -8.7069 N   0  0  0  0  0  0  0  0  0  0  0  0
   13.7912   -8.5861   -9.2120 N   0  0  0  0  0  0  0  0  0  0  0  0
   15.0557   -9.0188   -9.7991 C   0  0  0  0  0  0  0  0  0  0  0  0
   15.9466   -7.8072  -10.0669 C   0  0  0  0  0  0  0  0  0  0  0  0
   17.2672   -8.1802  -10.6570 C   0  0  0  0  0  0  0  0  0  0  0  0
   17.5221   -7.4483  -11.9228 C   0  0  2  0  0  0  0  0  0  0  0  0
   18.8819   -7.7721  -12.4347 N   0  0  0  0  0  0  0  0  0  0  0  0
   17.5282   -6.0052  -11.7085 C   0  0  0  0  0  0  0  0  0  0  0  0
   16.3580   -5.2774  -11.7654 O   0  0  0  0  0  0  0  0  0  0  0  0
   18.5733   -5.3779  -11.4689 O   0  0  0  0  0  0  0  0  0  0  0  0
  2  1  1  6
  3  2  1  0
  4  5  2  0
  4  2  1  0
  6  4  1  0
  7  6  1  0
  7  8  1  6
  9  8  1  0
 10 14  1  0
 10  9  1  0
 11 10  2  0
 12 13  2  0
 12  7  1  0
 16 15  1  0
 17 16  2  0
 18 16  1  0
 19 18  1  0
 20 19  1  0
 21 20  1  0
 22 21  1  1
 22 23  1  0
 23 12  1  0
 24 22  1  0
 25 24  1  0
 26 24  2  0
M  END
$$$$
