AER.pdb
     RDKit          3D

 26 25  0  0  1  0  0  0  0  0999 V2000
   22.9587  -16.6494  -17.5643 C   0  0  0  0  0  0  0  0  0  0  0  0
   23.3704  -17.8961  -18.3144 C   0  0  2  0  0  0  0  0  0  0  0  0
   22.2836  -18.3535  -19.1464 N   0  0  0  0  0  0  0  0  0  0  0  0
   23.7977  -18.9920  -17.4439 C   0  0  0  0  0  0  0  0  0  0  0  0
   22.9466  -19.7806  -16.9584 O   0  0  0  0  0  0  0  0  0  0  0  0
   25.1450  -19.1985  -17.1257 N   0  0  0  0  0  0  0  0  0  0  0  0
   25.6680  -20.1990  -16.2645 C   0  0  1  0  0  0  0  0  0  0  0  0
   27.0987  -20.5644  -16.4861 C   0  0  0  0  0  0  0  0  0  0  0  0
   27.5575  -21.6701  -15.5355 C   0  0  0  0  0  0  0  0  0  0  0  0
   28.9210  -22.1144  -15.9248 C   0  0  0  0  0  0  0  0  0  0  0  0
   29.5669  -21.4675  -16.8071 O   0  0  0  0  0  0  0  0  0  0  0  0
   25.5335  -19.8361  -14.8138 C   0  0  0  0  0  0  0  0  0  0  0  0
   25.4367  -18.6314  -14.4626 O   0  0  0  0  0  0  0  0  0  0  0  0
   29.5279  -23.2034  -15.3726 O   0  0  0  0  0  0  0  0  0  0  0  0
   19.1553  -18.5508  -11.6750 N   0  0  0  0  0  0  0  0  0  0  0  0
   19.3000  -19.5068  -10.6187 C   0  0  0  0  0  0  0  0  0  0  0  0
   18.6734  -19.2927   -9.5016 N   0  0  0  0  0  0  0  0  0  0  0  0
   20.1025  -20.6519  -10.7863 N   0  0  0  0  0  0  0  0  0  0  0  0
   20.8879  -20.8420  -12.0020 C   0  0  0  0  0  0  0  0  0  0  0  0
   22.3577  -20.5312  -11.7258 C   0  0  0  0  0  0  0  0  0  0  0  0
   23.2337  -20.7819  -12.9094 C   0  0  0  0  0  0  0  0  0  0  0  0
   24.6693  -20.6318  -12.5635 C   0  0  2  0  0  0  0  0  0  0  0  0
   25.5082  -20.8012  -13.7816 N   0  0  0  0  0  0  0  0  0  0  0  0
   25.1066  -21.6816  -11.6495 C   0  0  0  0  0  0  0  0  0  0  0  0
   25.2384  -21.4330  -10.2992 O   0  0  0  0  0  0  0  0  0  0  0  0
   25.3758  -22.8288  -12.0423 O   0  0  0  0  0  0  0  0  0  0  0  0
  2  1  1  1
  3  2  1  0
  4  5  2  0
  4  2  1  0
  6  4  1  0
  7  6  1  0
  7  8  1  6
  9  8  1  0
 10 14  1  0
 10  9  1  0
 11 10  2  0
 12 13  2  0
 12  7  1  0
 16 15  1  0
 17 16  2  0
 18 16  1  0
 19 18  1  0
 20 19  1  0
 21 20  1  0
 22 21  1  6
 22 23  1  0
 23 12  1  0
 24 22  1  0
 25 24  1  0
 26 24  2  0
M  END
$$$$
