AER.pdb
     RDKit          3D

 26 25  0  0  1  0  0  0  0  0999 V2000
   29.1380  -16.1226  -19.1290 C   0  0  0  0  0  0  0  0  0  0  0  0
   28.1024  -17.2225  -19.0655 C   0  0  2  0  0  0  0  0  0  0  0  0
   27.6308  -17.5342  -20.3932 N   0  0  0  0  0  0  0  0  0  0  0  0
   26.9551  -16.9016  -18.2156 C   0  0  0  0  0  0  0  0  0  0  0  0
   27.1188  -16.6972  -16.9855 O   0  0  0  0  0  0  0  0  0  0  0  0
   25.6571  -16.8123  -18.7319 N   0  0  0  0  0  0  0  0  0  0  0  0
   24.4737  -16.5233  -18.0024 C   0  0  1  0  0  0  0  0  0  0  0  0
   23.4905  -15.6311  -18.6857 C   0  0  0  0  0  0  0  0  0  0  0  0
   22.2742  -15.3447  -17.8053 C   0  0  0  0  0  0  0  0  0  0  0  0
   21.3393  -14.4527  -18.5389 C   0  0  0  0  0  0  0  0  0  0  0  0
   20.2704  -14.9293  -19.0333 O   0  0  0  0  0  0  0  0  0  0  0  0
   23.7279  -17.7634  -17.6025 C   0  0  0  0  0  0  0  0  0  0  0  0
   23.3798  -18.6074  -18.4689 O   0  0  0  0  0  0  0  0  0  0  0  0
   21.5738  -13.1207  -18.7128 O   0  0  0  0  0  0  0  0  0  0  0  0
   27.1510  -21.3184  -11.2747 N   0  0  0  0  0  0  0  0  0  0  0  0
   25.8212  -20.9243  -10.9185 C   0  0  0  0  0  0  0  0  0  0  0  0
   25.4548  -21.0375   -9.6779 N   0  0  0  0  0  0  0  0  0  0  0  0
   24.9314  -20.4259  -11.8897 N   0  0  0  0  0  0  0  0  0  0  0  0
   25.3827  -20.1681  -13.2538 C   0  0  0  0  0  0  0  0  0  0  0  0
   24.3238  -19.3678  -14.0097 C   0  0  0  0  0  0  0  0  0  0  0  0
   23.6543  -20.1636  -15.0820 C   0  0  0  0  0  0  0  0  0  0  0  0
   22.7196  -19.3267  -15.8752 C   0  0  2  0  0  0  0  0  0  0  0  0
   23.3807  -18.0505  -16.2629 N   0  0  0  0  0  0  0  0  0  0  0  0
   21.5601  -18.9310  -15.0830 C   0  0  0  0  0  0  0  0  0  0  0  0
   20.6604  -19.8723  -14.6284 O   0  0  0  0  0  0  0  0  0  0  0  0
   21.3359  -17.7454  -14.7878 O   0  0  0  0  0  0  0  0  0  0  0  0
  2  1  1  6
  3  2  1  0
  4  5  2  0
  4  2  1  0
  6  4  1  0
  7  6  1  0
  7  8  1  6
  9  8  1  0
 10 14  1  0
 10  9  1  0
 11 10  2  0
 12 13  2  0
 12  7  1  0
 16 15  1  0
 17 16  2  0
 18 16  1  0
 19 18  1  0
 20 19  1  0
 21 20  1  0
 22 21  1  1
 22 23  1  0
 23 12  1  0
 24 22  1  0
 25 24  1  0
 26 24  2  0
M  END
$$$$
