AER.pdb
     RDKit          3D

 26 25  0  0  1  0  0  0  0  0999 V2000
   26.6155  -21.0992  -13.3666 C   0  0  0  0  0  0  0  0  0  0  0  0
   25.2767  -21.7366  -13.6628 C   0  0  2  0  0  0  0  0  0  0  0  0
   25.3519  -22.4975  -14.8867 N   0  0  0  0  0  0  0  0  0  0  0  0
   24.1779  -20.7756  -13.7661 C   0  0  0  0  0  0  0  0  0  0  0  0
   23.9112  -20.0160  -12.8000 O   0  0  0  0  0  0  0  0  0  0  0  0
   23.3978  -20.6692  -14.9235 N   0  0  0  0  0  0  0  0  0  0  0  0
   22.2709  -19.8258  -15.1105 C   0  0  1  0  0  0  0  0  0  0  0  0
   22.2192  -19.0884  -16.4079 C   0  0  0  0  0  0  0  0  0  0  0  0
   23.4102  -18.1448  -16.5741 C   0  0  0  0  0  0  0  0  0  0  0  0
   23.3115  -17.4605  -17.8893 C   0  0  0  0  0  0  0  0  0  0  0  0
   23.3979  -16.1944  -17.9494 O   0  0  0  0  0  0  0  0  0  0  0  0
   20.9712  -20.5661  -14.9812 C   0  0  0  0  0  0  0  0  0  0  0  0
   20.9453  -21.8238  -15.0201 O   0  0  0  0  0  0  0  0  0  0  0  0
   23.1292  -18.1351  -19.0602 O   0  0  0  0  0  0  0  0  0  0  0  0
   17.7203  -25.1115  -11.1970 N   0  0  0  0  0  0  0  0  0  0  0  0
   17.9591  -24.2361  -10.0891 C   0  0  0  0  0  0  0  0  0  0  0  0
   17.8119  -24.7062   -8.8875 N   0  0  0  0  0  0  0  0  0  0  0  0
   18.3443  -22.8975  -10.2966 N   0  0  0  0  0  0  0  0  0  0  0  0
   17.9577  -22.1892  -11.5132 C   0  0  0  0  0  0  0  0  0  0  0  0
   18.3370  -20.7140  -11.3992 C   0  0  0  0  0  0  0  0  0  0  0  0
   19.3195  -20.2878  -12.4406 C   0  0  0  0  0  0  0  0  0  0  0  0
   18.7326  -20.3601  -13.8020 C   0  0  2  0  0  0  0  0  0  0  0  0
   19.7300  -19.9117  -14.8121 N   0  0  0  0  0  0  0  0  0  0  0  0
   17.6070  -19.4428  -13.9432 C   0  0  0  0  0  0  0  0  0  0  0  0
   16.3089  -19.8939  -13.8259 O   0  0  0  0  0  0  0  0  0  0  0  0
   17.7666  -18.2324  -14.1722 O   0  0  0  0  0  0  0  0  0  0  0  0
  2  1  1  6
  3  2  1  0
  4  5  2  0
  4  2  1  0
  6  4  1  0
  7  6  1  0
  7  8  1  6
  9  8  1  0
 10 14  1  0
 10  9  1  0
 11 10  2  0
 12 13  2  0
 12  7  1  0
 16 15  1  0
 17 16  2  0
 18 16  1  0
 19 18  1  0
 20 19  1  0
 21 20  1  0
 22 21  1  1
 22 23  1  0
 23 12  1  0
 24 22  1  0
 25 24  1  0
 26 24  2  0
M  END
$$$$
