SVS.pdb
     RDKit          3D

 20 19  0  0  1  0  0  0  0  0999 V2000
    8.2250  -15.7964   19.4133 O   0  0  0  0  0  0  0  0  0  0  0  0
    8.6328  -15.1312   20.5647 C   0  0  0  0  0  0  0  0  0  0  0  0
    8.2230  -15.9002   21.7994 C   0  0  2  0  0  0  0  0  0  0  0  0
    6.7944  -16.0378   21.8298 N   0  0  0  0  0  0  0  0  0  0  0  0
    8.6831  -15.2064   23.0407 C   0  0  0  0  0  0  0  0  0  0  0  0
    9.8871  -14.9433   23.1840 O   0  0  0  0  0  0  0  0  0  0  0  0
    6.4962  -12.3036   24.9398 C   0  0  0  0  0  0  0  0  0  0  0  0
    7.0684  -13.3018   25.8849 C   0  0  2  0  0  0  0  0  0  0  0  0
    7.5823  -12.6314   27.1631 C   0  0  0  0  0  0  0  0  0  0  0  0
    8.0876  -14.2442   25.3183 C   0  0  2  0  0  0  0  0  0  0  0  0
    7.7769  -14.8348   24.0722 N   0  0  0  0  0  0  0  0  0  0  0  0
    8.5653  -15.1800   26.3750 C   0  0  0  0  0  0  0  0  0  0  0  0
    7.7676  -16.0679   26.8259 O   0  0  0  0  0  0  0  0  0  0  0  0
   12.4927  -16.0662   26.9868 O   0  0  0  0  0  0  0  0  0  0  0  0
   11.4991  -16.9432   27.4150 C   0  0  0  0  0  0  0  0  0  0  0  0
   10.2784  -16.2027   27.9085 C   0  0  2  0  0  0  0  0  0  0  0  0
    9.8560  -15.1826   26.9517 N   0  0  0  0  0  0  0  0  0  0  0  0
   10.5892  -15.5417   29.1830 C   0  0  0  0  0  0  0  0  0  0  0  0
   10.9655  -16.2795   30.2787 O   0  0  0  0  0  0  0  0  0  0  0  0
   10.5106  -14.3010   29.2705 O   0  0  0  0  0  0  0  0  0  0  0  0
  2  3  1  0
  2  1  1  0
  3  4  1  1
  5  3  1  0
  5  6  2  0
  8  7  1  6
  8 10  1  0
  9  8  1  0
 10 11  1  6
 10 12  1  0
 11  5  1  0
 12 13  2  0
 12 17  1  0
 14 15  1  0
 16 15  1  6
 16 18  1  0
 17 16  1  0
 18 20  2  0
 18 19  1  0
M  END
$$$$
