SVS.pdb
     RDKit          3D

 20 19  0  0  1  0  0  0  0  0999 V2000
    8.1011  -19.3434   18.2412 O   0  0  0  0  0  0  0  0  0  0  0  0
    7.4316  -18.3454   17.5409 C   0  0  0  0  0  0  0  0  0  0  0  0
    8.3597  -17.1928   17.2350 C   0  0  2  0  0  0  0  0  0  0  0  0
    9.4854  -17.6672   16.4811 N   0  0  0  0  0  0  0  0  0  0  0  0
    8.8404  -16.5429   18.4921 C   0  0  0  0  0  0  0  0  0  0  0  0
    9.9707  -16.8129   18.9268 O   0  0  0  0  0  0  0  0  0  0  0  0
    7.3348  -12.7486   19.7344 C   0  0  0  0  0  0  0  0  0  0  0  0
    7.5099  -13.7819   20.7920 C   0  0  2  0  0  0  0  0  0  0  0  0
    7.9713  -13.1578   22.1130 C   0  0  0  0  0  0  0  0  0  0  0  0
    8.3519  -14.9679   20.4283 C   0  0  2  0  0  0  0  0  0  0  0  0
    8.0366  -15.6165   19.2125 N   0  0  0  0  0  0  0  0  0  0  0  0
    8.5216  -15.8593   21.6103 C   0  0  0  0  0  0  0  0  0  0  0  0
    7.7514  -16.8678   21.7440 O   0  0  0  0  0  0  0  0  0  0  0  0
   11.6759  -18.6148   23.1031 O   0  0  0  0  0  0  0  0  0  0  0  0
   11.1292  -17.5013   22.4698 C   0  0  0  0  0  0  0  0  0  0  0  0
   10.0823  -16.8311   23.3284 C   0  0  2  0  0  0  0  0  0  0  0  0
    9.4798  -15.6942   22.6365 N   0  0  0  0  0  0  0  0  0  0  0  0
   10.7042  -16.3431   24.5665 C   0  0  0  0  0  0  0  0  0  0  0  0
   11.1339  -17.2259   25.5271 O   0  0  0  0  0  0  0  0  0  0  0  0
   10.8429  -15.1178   24.7466 O   0  0  0  0  0  0  0  0  0  0  0  0
  2  3  1  0
  2  1  1  0
  3  4  1  1
  5  3  1  0
  5  6  2  0
  8  7  1  6
  8 10  1  0
  9  8  1  0
 10 11  1  6
 10 12  1  0
 11  5  1  0
 12 13  2  0
 12 17  1  0
 14 15  1  0
 16 15  1  6
 16 18  1  0
 17 16  1  0
 18 20  2  0
 18 19  1  0
M  END
$$$$
