SVS.pdb
     RDKit          3D

 20 19  0  0  1  0  0  0  0  0999 V2000
    5.4673  -16.4566   20.4855 O   0  0  0  0  0  0  0  0  0  0  0  0
    6.3829  -16.2577   21.5135 C   0  0  0  0  0  0  0  0  0  0  0  0
    7.0551  -14.9112   21.3771 C   0  0  2  0  0  0  0  0  0  0  0  0
    7.8695  -14.8963   20.1951 N   0  0  0  0  0  0  0  0  0  0  0  0
    7.9037  -14.6119   22.5705 C   0  0  0  0  0  0  0  0  0  0  0  0
    9.1149  -14.8799   22.5425 O   0  0  0  0  0  0  0  0  0  0  0  0
    8.2244  -12.5743   27.1612 C   0  0  0  0  0  0  0  0  0  0  0  0
    7.4409  -12.8435   25.9240 C   0  0  2  0  0  0  0  0  0  0  0  0
    5.9624  -13.0901   26.2408 C   0  0  0  0  0  0  0  0  0  0  0  0
    7.9845  -13.9013   25.0110 C   0  0  2  0  0  0  0  0  0  0  0  0
    7.3627  -14.0246   23.7476 N   0  0  0  0  0  0  0  0  0  0  0  0
    8.1823  -15.1742   25.7601 C   0  0  0  0  0  0  0  0  0  0  0  0
    7.1764  -15.9265   25.9838 O   0  0  0  0  0  0  0  0  0  0  0  0
   11.6344  -17.2528   25.7413 O   0  0  0  0  0  0  0  0  0  0  0  0
   10.4292  -17.8710   26.0656 C   0  0  0  0  0  0  0  0  0  0  0  0
    9.5430  -16.9653   26.8882 C   0  0  2  0  0  0  0  0  0  0  0  0
    9.4130  -15.6484   26.2691 N   0  0  0  0  0  0  0  0  0  0  0  0
   10.1264  -16.7928   28.2252 C   0  0  0  0  0  0  0  0  0  0  0  0
   10.3451  -17.8790   29.0370 O   0  0  0  0  0  0  0  0  0  0  0  0
   10.4252  -15.6514   28.6261 O   0  0  0  0  0  0  0  0  0  0  0  0
  2  3  1  0
  2  1  1  0
  3  4  1  6
  5  3  1  0
  5  6  2  0
  8  7  1  1
  8 10  1  0
  9  8  1  0
 10 11  1  6
 10 12  1  0
 11  5  1  0
 12 13  2  0
 12 17  1  0
 14 15  1  0
 16 15  1  6
 16 18  1  0
 17 16  1  0
 18 20  2  0
 18 19  1  0
M  END
$$$$
