VLK.pdb
     RDKit          3D

 25 24  0  0  1  0  0  0  0  0999 V2000
   21.3926  -28.2678  -19.9201 C   0  0  0  0  0  0  0  0  0  0  0  0
   22.7115  -28.4801  -20.5851 C   0  0  1  0  0  0  0  0  0  0  0  0
   22.5098  -28.5084  -22.0817 C   0  0  0  0  0  0  0  0  0  0  0  0
   23.7437  -27.4233  -20.2832 C   0  0  2  0  0  0  0  0  0  0  0  0
   24.9927  -27.9136  -20.8574 N   0  0  0  0  0  0  0  0  0  0  0  0
   23.9365  -27.1216  -18.8730 C   0  0  0  0  0  0  0  0  0  0  0  0
   24.6163  -27.9528  -18.1783 O   0  0  0  0  0  0  0  0  0  0  0  0
   25.4467  -22.5681  -15.5480 C   0  0  0  0  0  0  0  0  0  0  0  0
   24.8085  -23.9618  -15.3494 C   0  0  2  0  0  0  0  0  0  0  0  0
   25.8740  -24.8112  -14.6988 C   0  0  0  0  0  0  0  0  0  0  0  0
   24.4190  -24.4945  -16.6695 C   0  0  0  0  0  0  0  0  0  0  0  0
   23.6850  -25.7812  -16.7341 C   0  0  2  0  0  0  0  0  0  0  0  0
   23.4541  -26.0070  -18.1825 N   0  0  0  0  0  0  0  0  0  0  0  0
   22.3964  -25.8360  -16.0170 C   0  0  0  0  0  0  0  0  0  0  0  0
   21.4117  -25.0879  -16.3536 O   0  0  0  0  0  0  0  0  0  0  0  0
   22.1397  -26.7004  -14.9245 N   0  0  0  0  0  0  0  0  0  0  0  0
   20.8478  -26.6459  -14.2092 C   0  0  1  0  0  0  0  0  0  0  0  0
   20.9536  -27.4880  -12.9413 C   0  0  0  0  0  0  0  0  0  0  0  0
   19.6806  -27.5241  -12.1577 C   0  0  0  0  0  0  0  0  0  0  0  0
   19.8440  -28.2835  -10.8659 C   0  0  0  0  0  0  0  0  0  0  0  0
   18.6033  -28.2399  -10.0075 C   0  0  0  0  0  0  0  0  0  0  0  0
   18.8765  -29.0684   -8.8186 N   0  0  0  0  0  0  0  0  0  0  0  0
   20.5905  -25.2191  -13.9347 C   0  0  0  0  0  0  0  0  0  0  0  0
   19.3125  -24.6795  -13.9354 O   0  0  0  0  0  0  0  0  0  0  0  0
   21.5319  -24.3894  -13.6798 O   0  0  0  0  0  0  0  0  0  0  0  0
  2  1  1  1
  3  2  1  0
  4  2  1  0
  4  6  1  0
  4  5  1  1
  6  7  2  0
  9  8  1  6
 10  9  1  0
 11  9  1  0
 12 11  1  6
 13  6  1  0
 13 12  1  0
 14 12  1  0
 14 15  2  0
 16 14  1  0
 17 16  1  0
 18 19  1  0
 17 18  1  1
 20 19  1  0
 21 22  1  0
 21 20  1  0
 23 17  1  0
 24 23  1  0
 25 23  2  0
M  END
$$$$
