VLK.pdb
     RDKit          3D

 25 24  0  0  1  0  0  0  0  0999 V2000
   17.7852  -13.4476  -20.5684 C   0  0  0  0  0  0  0  0  0  0  0  0
   18.1819  -12.5276  -19.4625 C   0  0  1  0  0  0  0  0  0  0  0  0
   16.9425  -12.0840  -18.7221 C   0  0  0  0  0  0  0  0  0  0  0  0
   19.1258  -13.1305  -18.4531 C   0  0  2  0  0  0  0  0  0  0  0  0
   18.4619  -14.3322  -17.9578 N   0  0  0  0  0  0  0  0  0  0  0  0
   19.4802  -12.2692  -17.3353 C   0  0  0  0  0  0  0  0  0  0  0  0
   18.6446  -12.1778  -16.3715 O   0  0  0  0  0  0  0  0  0  0  0  0
   24.3183  -10.3432  -14.3945 C   0  0  0  0  0  0  0  0  0  0  0  0
   22.8449   -9.9291  -14.6109 C   0  0  2  0  0  0  0  0  0  0  0  0
   22.1730  -10.0901  -13.2683 C   0  0  0  0  0  0  0  0  0  0  0  0
   22.2497  -10.8183  -15.6273 C   0  0  0  0  0  0  0  0  0  0  0  0
   20.8699  -10.5457  -16.0970 C   0  0  2  0  0  0  0  0  0  0  0  0
   20.6505  -11.5190  -17.1956 N   0  0  0  0  0  0  0  0  0  0  0  0
   20.6046   -9.1805  -16.5903 C   0  0  0  0  0  0  0  0  0  0  0  0
   21.1486   -8.7399  -17.6638 O   0  0  0  0  0  0  0  0  0  0  0  0
   19.7444   -8.2619  -15.9398 N   0  0  0  0  0  0  0  0  0  0  0  0
   19.5085   -6.9189  -16.5095 C   0  0  1  0  0  0  0  0  0  0  0  0
   18.0059   -6.7155  -16.6790 C   0  0  0  0  0  0  0  0  0  0  0  0
   17.6559   -5.3543  -17.1894 C   0  0  0  0  0  0  0  0  0  0  0  0
   16.1742   -5.2136  -17.4277 C   0  0  0  0  0  0  0  0  0  0  0  0
   15.8106   -3.8859  -18.0466 C   0  0  0  0  0  0  0  0  0  0  0  0
   14.3701   -3.9392  -18.3577 N   0  0  0  0  0  0  0  0  0  0  0  0
   20.1180   -5.9607  -15.5675 C   0  0  0  0  0  0  0  0  0  0  0  0
   20.6156   -4.7312  -15.9741 O   0  0  0  0  0  0  0  0  0  0  0  0
   20.2268   -6.2051  -14.3153 O   0  0  0  0  0  0  0  0  0  0  0  0
  2  1  1  6
  3  2  1  0
  4  2  1  0
  4  6  1  0
  4  5  1  1
  6  7  2  0
  9  8  1  1
 10  9  1  0
 11  9  1  0
 12 11  1  6
 13  6  1  0
 13 12  1  0
 14 12  1  0
 14 15  2  0
 16 14  1  0
 17 16  1  0
 18 19  1  0
 17 18  1  1
 20 19  1  0
 21 22  1  0
 21 20  1  0
 23 17  1  0
 24 23  1  0
 25 23  2  0
M  END
$$$$
