VLK.pdb
     RDKit          3D

 25 24  0  0  1  0  0  0  0  0999 V2000
   24.8988  -15.4768  -14.9645 C   0  0  0  0  0  0  0  0  0  0  0  0
   25.8467  -15.9093  -16.0328 C   0  0  1  0  0  0  0  0  0  0  0  0
   26.7073  -14.7343  -16.4330 C   0  0  0  0  0  0  0  0  0  0  0  0
   26.7673  -17.0357  -15.6363 C   0  0  2  0  0  0  0  0  0  0  0  0
   27.5873  -17.3100  -16.8121 N   0  0  0  0  0  0  0  0  0  0  0  0
   26.1092  -18.2579  -15.2004 C   0  0  0  0  0  0  0  0  0  0  0  0
   25.5616  -18.9865  -16.0975 O   0  0  0  0  0  0  0  0  0  0  0  0
   27.4172  -22.1710  -13.5717 C   0  0  0  0  0  0  0  0  0  0  0  0
   27.4424  -20.9894  -12.5756 C   0  0  2  0  0  0  0  0  0  0  0  0
   28.0392  -21.5398  -11.3024 C   0  0  0  0  0  0  0  0  0  0  0  0
   26.0594  -20.5177  -12.3686 C   0  0  0  0  0  0  0  0  0  0  0  0
   25.3031  -19.9866  -13.5281 C   0  0  2  0  0  0  0  0  0  0  0  0
   26.0075  -18.7315  -13.8900 N   0  0  0  0  0  0  0  0  0  0  0  0
   23.8736  -19.6994  -13.3007 C   0  0  0  0  0  0  0  0  0  0  0  0
   23.4959  -18.8150  -12.4534 O   0  0  0  0  0  0  0  0  0  0  0  0
   22.8205  -20.3559  -13.9838 N   0  0  0  0  0  0  0  0  0  0  0  0
   21.4127  -19.9853  -13.7301 C   0  0  1  0  0  0  0  0  0  0  0  0
   20.8019  -19.4634  -15.0272 C   0  0  0  0  0  0  0  0  0  0  0  0
   19.3453  -19.1500  -14.9008 C   0  0  0  0  0  0  0  0  0  0  0  0
   18.7616  -18.6811  -16.2090 C   0  0  0  0  0  0  0  0  0  0  0  0
   17.2885  -18.3685  -16.1071 C   0  0  0  0  0  0  0  0  0  0  0  0
   16.8760  -17.8216  -17.4130 N   0  0  0  0  0  0  0  0  0  0  0  0
   20.7507  -21.2056  -13.2303 C   0  0  0  0  0  0  0  0  0  0  0  0
   19.5496  -21.1703  -12.5371 O   0  0  0  0  0  0  0  0  0  0  0  0
   21.2449  -22.3740  -13.4045 O   0  0  0  0  0  0  0  0  0  0  0  0
  2  1  1  1
  3  2  1  0
  4  2  1  0
  4  6  1  0
  4  5  1  6
  6  7  2  0
  9  8  1  6
 10  9  1  0
 11  9  1  0
 12 11  1  1
 13  6  1  0
 13 12  1  0
 14 12  1  0
 14 15  2  0
 16 14  1  0
 17 16  1  0
 18 19  1  0
 17 18  1  6
 20 19  1  0
 21 22  1  0
 21 20  1  0
 23 17  1  0
 24 23  1  0
 25 23  2  0
M  END
$$$$
