VLK.pdb
     RDKit          3D

 25 24  0  0  1  0  0  0  0  0999 V2000
   18.6974  -14.1598  -18.0619 C   0  0  0  0  0  0  0  0  0  0  0  0
   19.4437  -13.2588  -17.1355 C   0  0  1  0  0  0  0  0  0  0  0  0
   20.6540  -13.9905  -16.6054 C   0  0  0  0  0  0  0  0  0  0  0  0
   19.9244  -11.9742  -17.7616 C   0  0  2  0  0  0  0  0  0  0  0  0
   20.6156  -12.3645  -18.9864 N   0  0  0  0  0  0  0  0  0  0  0  0
   20.8087  -11.1675  -16.9345 C   0  0  0  0  0  0  0  0  0  0  0  0
   20.2947  -10.5717  -15.9264 O   0  0  0  0  0  0  0  0  0  0  0  0
   26.7936  -10.6999  -15.9661 C   0  0  0  0  0  0  0  0  0  0  0  0
   25.4751   -9.9528  -15.6620 C   0  0  2  0  0  0  0  0  0  0  0  0
   25.3282   -9.9765  -14.1594 C   0  0  0  0  0  0  0  0  0  0  0  0
   24.3662  -10.6631  -16.3282 C   0  0  0  0  0  0  0  0  0  0  0  0
   23.0016  -10.0874  -16.2566 C   0  0  2  0  0  0  0  0  0  0  0  0
   22.1788  -10.9685  -17.1220 N   0  0  0  0  0  0  0  0  0  0  0  0
   22.8577   -8.6881  -16.7024 C   0  0  0  0  0  0  0  0  0  0  0  0
   23.2632   -8.3095  -17.8578 O   0  0  0  0  0  0  0  0  0  0  0  0
   22.2706   -7.6675  -15.9148 N   0  0  0  0  0  0  0  0  0  0  0  0
   21.9966   -6.3351  -16.4921 C   0  0  1  0  0  0  0  0  0  0  0  0
   20.9276   -6.4789  -17.5712 C   0  0  0  0  0  0  0  0  0  0  0  0
   20.5349   -5.1711  -18.1806 C   0  0  0  0  0  0  0  0  0  0  0  0
   19.5549   -5.3560  -19.3109 C   0  0  0  0  0  0  0  0  0  0  0  0
   19.1072   -4.0449  -19.9097 C   0  0  0  0  0  0  0  0  0  0  0  0
   18.1617   -4.3704  -20.9934 N   0  0  0  0  0  0  0  0  0  0  0  0
   21.5702   -5.4803  -15.3675 C   0  0  0  0  0  0  0  0  0  0  0  0
   21.8626   -4.1254  -15.3096 O   0  0  0  0  0  0  0  0  0  0  0  0
   20.9043   -5.9367  -14.3736 O   0  0  0  0  0  0  0  0  0  0  0  0
  2  1  1  6
  3  2  1  0
  4  2  1  0
  4  6  1  0
  4  5  1  6
  6  7  2  0
  9  8  1  1
 10  9  1  0
 11  9  1  0
 12 11  1  6
 13  6  1  0
 13 12  1  0
 14 12  1  0
 14 15  2  0
 16 14  1  0
 17 16  1  0
 18 19  1  0
 17 18  1  6
 20 19  1  0
 21 22  1  0
 21 20  1  0
 23 17  1  0
 24 23  1  0
 25 23  2  0
M  END
$$$$
