VLK.pdb
     RDKit          3D

 25 24  0  0  1  0  0  0  0  0999 V2000
   27.1215  -16.8513  -16.5336 C   0  0  0  0  0  0  0  0  0  0  0  0
   26.1402  -17.7789  -15.8985 C   0  0  1  0  0  0  0  0  0  0  0  0
   25.3530  -18.4794  -16.9806 C   0  0  0  0  0  0  0  0  0  0  0  0
   26.7564  -18.8399  -15.0222 C   0  0  2  0  0  0  0  0  0  0  0  0
   27.6602  -19.5923  -15.8866 N   0  0  0  0  0  0  0  0  0  0  0  0
   25.8159  -19.7491  -14.3850 C   0  0  0  0  0  0  0  0  0  0  0  0
   25.5352  -20.8351  -14.9993 O   0  0  0  0  0  0  0  0  0  0  0  0
   26.3803  -22.1344  -10.8601 C   0  0  0  0  0  0  0  0  0  0  0  0
   25.9650  -20.6670  -10.6080 C   0  0  2  0  0  0  0  0  0  0  0  0
   26.0769  -20.4603   -9.1165 C   0  0  0  0  0  0  0  0  0  0  0  0
   24.5793  -20.4813  -11.0805 C   0  0  0  0  0  0  0  0  0  0  0  0
   24.2981  -20.5857  -12.5327 C   0  0  2  0  0  0  0  0  0  0  0  0
   25.1755  -19.5646  -13.1572 N   0  0  0  0  0  0  0  0  0  0  0  0
   22.9011  -20.3523  -12.9469 C   0  0  0  0  0  0  0  0  0  0  0  0
   22.3701  -19.1876  -12.8816 O   0  0  0  0  0  0  0  0  0  0  0  0
   22.0474  -21.3676  -13.4439 N   0  0  0  0  0  0  0  0  0  0  0  0
   20.6898  -21.0397  -13.9267 C   0  0  1  0  0  0  0  0  0  0  0  0
   20.3393  -21.9775  -15.0781 C   0  0  0  0  0  0  0  0  0  0  0  0
   21.1356  -21.7058  -16.3142 C   0  0  0  0  0  0  0  0  0  0  0  0
   20.6680  -22.5482  -17.4735 C   0  0  0  0  0  0  0  0  0  0  0  0
   21.4300  -22.2594  -18.7439 C   0  0  0  0  0  0  0  0  0  0  0  0
   20.8608  -23.1279  -19.7909 N   0  0  0  0  0  0  0  0  0  0  0  0
   19.7931  -21.1918  -12.7649 C   0  0  0  0  0  0  0  0  0  0  0  0
   18.5503  -20.5791  -12.6984 O   0  0  0  0  0  0  0  0  0  0  0  0
   20.1072  -21.8985  -11.7443 O   0  0  0  0  0  0  0  0  0  0  0  0
  2  1  1  6
  3  2  1  0
  4  2  1  0
  4  6  1  0
  4  5  1  6
  6  7  2  0
  9  8  1  1
 10  9  1  0
 11  9  1  0
 12 11  1  1
 13  6  1  0
 13 12  1  0
 14 12  1  0
 14 15  2  0
 16 14  1  0
 17 16  1  0
 18 19  1  0
 17 18  1  6
 20 19  1  0
 21 22  1  0
 21 20  1  0
 23 17  1  0
 24 23  1  0
 25 23  2  0
M  END
$$$$
