VLK.pdb
     RDKit          3D

 25 24  0  0  1  0  0  0  0  0999 V2000
   17.7909  -12.4156  -14.2335 C   0  0  0  0  0  0  0  0  0  0  0  0
   17.2117  -11.0915  -13.8621 C   0  0  1  0  0  0  0  0  0  0  0  0
   16.4417  -10.5428  -15.0399 C   0  0  0  0  0  0  0  0  0  0  0  0
   16.2758  -11.1254  -12.6804 C   0  0  2  0  0  0  0  0  0  0  0  0
   15.1881  -12.0207  -13.0616 N   0  0  0  0  0  0  0  0  0  0  0  0
   15.7329   -9.8378  -12.2750 C   0  0  0  0  0  0  0  0  0  0  0  0
   14.6958   -9.4132  -12.8912 O   0  0  0  0  0  0  0  0  0  0  0  0
   15.4388   -6.5955   -7.2320 C   0  0  0  0  0  0  0  0  0  0  0  0
   15.1255   -6.4660   -8.7400 C   0  0  2  0  0  0  0  0  0  0  0  0
   13.6212   -6.3826   -8.8400 C   0  0  0  0  0  0  0  0  0  0  0  0
   15.6517   -7.6570   -9.4348 C   0  0  0  0  0  0  0  0  0  0  0  0
   15.6075   -7.6993  -10.9164 C   0  0  2  0  0  0  0  0  0  0  0  0
   16.2264   -9.0006  -11.2713 N   0  0  0  0  0  0  0  0  0  0  0  0
   16.3115   -6.6118  -11.6231 C   0  0  0  0  0  0  0  0  0  0  0  0
   17.5839   -6.4788  -11.5470 O   0  0  0  0  0  0  0  0  0  0  0  0
   15.6603   -5.6466  -12.4299 N   0  0  0  0  0  0  0  0  0  0  0  0
   16.4351   -4.5875  -13.1095 C   0  0  1  0  0  0  0  0  0  0  0  0
   16.0479   -4.5672  -14.5851 C   0  0  0  0  0  0  0  0  0  0  0  0
   16.8635   -5.5066  -15.4147 C   0  0  0  0  0  0  0  0  0  0  0  0
   16.4672   -5.4527  -16.8680 C   0  0  0  0  0  0  0  0  0  0  0  0
   17.3162   -6.3517  -17.7336 C   0  0  0  0  0  0  0  0  0  0  0  0
   16.8602   -6.1624  -19.1231 N   0  0  0  0  0  0  0  0  0  0  0  0
   16.1110   -3.3292  -12.4103 C   0  0  0  0  0  0  0  0  0  0  0  0
   15.0185   -3.2077  -11.5641 O   0  0  0  0  0  0  0  0  0  0  0  0
   16.8181   -2.2698  -12.5423 O   0  0  0  0  0  0  0  0  0  0  0  0
  2  1  1  6
  3  2  1  0
  4  2  1  0
  4  6  1  0
  4  5  1  6
  6  7  2  0
  9  8  1  1
 10  9  1  0
 11  9  1  0
 12 11  1  1
 13  6  1  0
 13 12  1  0
 14 12  1  0
 14 15  2  0
 16 14  1  0
 17 16  1  0
 18 19  1  0
 17 18  1  6
 20 19  1  0
 21 22  1  0
 21 20  1  0
 23 17  1  0
 24 23  1  0
 25 23  2  0
M  END
$$$$
