VLK.pdb
     RDKit          3D

 25 24  0  0  1  0  0  0  0  0999 V2000
   28.3143  -20.1427  -17.2155 C   0  0  0  0  0  0  0  0  0  0  0  0
   27.2611  -20.3201  -16.1734 C   0  0  1  0  0  0  0  0  0  0  0  0
   25.9479  -20.6368  -16.8490 C   0  0  0  0  0  0  0  0  0  0  0  0
   27.5404  -21.4194  -15.1799 C   0  0  2  0  0  0  0  0  0  0  0  0
   27.5470  -22.6585  -15.9511 N   0  0  0  0  0  0  0  0  0  0  0  0
   26.5900  -21.5284  -14.0836 C   0  0  0  0  0  0  0  0  0  0  0  0
   25.5376  -22.2275  -14.2810 O   0  0  0  0  0  0  0  0  0  0  0  0
   26.2083  -19.3865   -8.3512 C   0  0  0  0  0  0  0  0  0  0  0  0
   25.3875  -20.1707   -9.4002 C   0  0  2  0  0  0  0  0  0  0  0  0
   24.9877  -21.4613   -8.7259 C   0  0  0  0  0  0  0  0  0  0  0  0
   26.2402  -20.4147  -10.5798 C   0  0  0  0  0  0  0  0  0  0  0  0
   25.6295  -21.0065  -11.7945 C   0  0  2  0  0  0  0  0  0  0  0  0
   26.7015  -20.9450  -12.8190 N   0  0  0  0  0  0  0  0  0  0  0  0
   24.4189  -20.3384  -12.3098 C   0  0  0  0  0  0  0  0  0  0  0  0
   24.4783  -19.1891  -12.8739 O   0  0  0  0  0  0  0  0  0  0  0  0
   23.1189  -20.8956  -12.2320 N   0  0  0  0  0  0  0  0  0  0  0  0
   21.9641  -20.1991  -12.8363 C   0  0  1  0  0  0  0  0  0  0  0  0
   22.0112  -20.3932  -14.3488 C   0  0  0  0  0  0  0  0  0  0  0  0
   20.8367  -19.7902  -15.0508 C   0  0  0  0  0  0  0  0  0  0  0  0
   20.9063  -20.0093  -16.5405 C   0  0  0  0  0  0  0  0  0  0  0  0
   19.7220  -19.4212  -17.2684 C   0  0  0  0  0  0  0  0  0  0  0  0
   19.9629  -19.6220  -18.7093 N   0  0  0  0  0  0  0  0  0  0  0  0
   20.7606  -20.7857  -12.2162 C   0  0  0  0  0  0  0  0  0  0  0  0
   19.5034  -20.2131  -12.3430 O   0  0  0  0  0  0  0  0  0  0  0  0
   20.8020  -21.8602  -11.5209 O   0  0  0  0  0  0  0  0  0  0  0  0
  2  1  1  6
  3  2  1  0
  4  2  1  0
  4  6  1  0
  4  5  1  6
  6  7  2  0
  9  8  1  1
 10  9  1  0
 11  9  1  0
 12 11  1  1
 13  6  1  0
 13 12  1  0
 14 12  1  0
 14 15  2  0
 16 14  1  0
 17 16  1  0
 18 19  1  0
 17 18  1  6
 20 19  1  0
 21 22  1  0
 21 20  1  0
 23 17  1  0
 24 23  1  0
 25 23  2  0
M  END
$$$$
