VLK.pdb
     RDKit          3D

 25 24  0  0  1  0  0  0  0  0999 V2000
   27.8126  -17.6476  -16.7726 C   0  0  0  0  0  0  0  0  0  0  0  0
   26.7624  -18.4393  -16.0674 C   0  0  1  0  0  0  0  0  0  0  0  0
   25.9317  -19.1771  -17.0905 C   0  0  0  0  0  0  0  0  0  0  0  0
   27.2943  -19.4574  -15.0907 C   0  0  2  0  0  0  0  0  0  0  0  0
   28.1192  -20.3686  -15.8777 N   0  0  0  0  0  0  0  0  0  0  0  0
   26.2859  -20.2124  -14.3626 C   0  0  0  0  0  0  0  0  0  0  0  0
   25.8644  -21.2980  -14.8910 O   0  0  0  0  0  0  0  0  0  0  0  0
   25.8053  -20.6437   -8.7595 C   0  0  0  0  0  0  0  0  0  0  0  0
   25.5345  -21.3374  -10.1139 C   0  0  2  0  0  0  0  0  0  0  0  0
   26.8898  -21.7322  -10.6500 C   0  0  0  0  0  0  0  0  0  0  0  0
   24.8544  -20.3791  -11.0068 C   0  0  0  0  0  0  0  0  0  0  0  0
   24.7073  -20.7188  -12.4426 C   0  0  2  0  0  0  0  0  0  0  0  0
   25.7181  -19.8779  -13.1307 N   0  0  0  0  0  0  0  0  0  0  0  0
   23.3794  -20.4773  -13.0393 C   0  0  0  0  0  0  0  0  0  0  0  0
   22.9359  -19.2892  -13.2250 O   0  0  0  0  0  0  0  0  0  0  0  0
   22.5023  -21.5102  -13.4522 N   0  0  0  0  0  0  0  0  0  0  0  0
   21.1670  -21.1902  -13.9983 C   0  0  1  0  0  0  0  0  0  0  0  0
   20.6804  -22.3741  -14.8285 C   0  0  0  0  0  0  0  0  0  0  0  0
   19.3430  -22.1369  -15.4539 C   0  0  0  0  0  0  0  0  0  0  0  0
   18.8923  -23.3218  -16.2695 C   0  0  0  0  0  0  0  0  0  0  0  0
   17.6627  -23.0243  -17.0927 C   0  0  0  0  0  0  0  0  0  0  0  0
   17.4294  -24.1991  -17.9528 N   0  0  0  0  0  0  0  0  0  0  0  0
   20.3047  -20.9078  -12.8348 C   0  0  0  0  0  0  0  0  0  0  0  0
   20.5100  -21.4966  -11.5956 O   0  0  0  0  0  0  0  0  0  0  0  0
   19.3116  -20.1018  -12.8969 O   0  0  0  0  0  0  0  0  0  0  0  0
  2  1  1  6
  3  2  1  0
  4  2  1  0
  4  6  1  0
  4  5  1  6
  6  7  2  0
  9  8  1  1
 10  9  1  0
 11  9  1  0
 12 11  1  1
 13  6  1  0
 13 12  1  0
 14 12  1  0
 14 15  2  0
 16 14  1  0
 17 16  1  0
 18 19  1  0
 17 18  1  1
 20 19  1  0
 21 22  1  0
 21 20  1  0
 23 17  1  0
 24 23  1  0
 25 23  2  0
M  END
$$$$
