VLK.pdb
     RDKit          3D

 25 24  0  0  1  0  0  0  0  0999 V2000
   20.4506  -12.7388  -20.8963 C   0  0  0  0  0  0  0  0  0  0  0  0
   20.6025  -11.6494  -19.8879 C   0  0  1  0  0  0  0  0  0  0  0  0
   19.2323  -11.1743  -19.4658 C   0  0  0  0  0  0  0  0  0  0  0  0
   21.3516  -12.0481  -18.6416 C   0  0  2  0  0  0  0  0  0  0  0  0
   20.6425  -13.2059  -18.1061 N   0  0  0  0  0  0  0  0  0  0  0  0
   21.4558  -11.0194  -17.6180 C   0  0  0  0  0  0  0  0  0  0  0  0
   20.4570  -10.8612  -16.8352 O   0  0  0  0  0  0  0  0  0  0  0  0
   24.2213  -10.5269  -14.0463 C   0  0  0  0  0  0  0  0  0  0  0  0
   24.7830  -10.1883  -15.4459 C   0  0  2  0  0  0  0  0  0  0  0  0
   26.2415   -9.8603  -15.2334 C   0  0  0  0  0  0  0  0  0  0  0  0
   24.0389   -9.0339  -15.9859 C   0  0  0  0  0  0  0  0  0  0  0  0
   22.5941   -9.1883  -16.2814 C   0  0  2  0  0  0  0  0  0  0  0  0
   22.5431  -10.1718  -17.3916 N   0  0  0  0  0  0  0  0  0  0  0  0
   21.8728   -7.9633  -16.6772 C   0  0  0  0  0  0  0  0  0  0  0  0
   22.0439   -7.4295  -17.8298 O   0  0  0  0  0  0  0  0  0  0  0  0
   20.9488   -7.2891  -15.8414 N   0  0  0  0  0  0  0  0  0  0  0  0
   20.2134   -6.1056  -16.3335 C   0  0  1  0  0  0  0  0  0  0  0  0
   18.7232   -6.4312  -16.3617 C   0  0  0  0  0  0  0  0  0  0  0  0
   17.8705   -5.2358  -16.6440 C   0  0  0  0  0  0  0  0  0  0  0  0
   16.4028   -5.5597  -16.5293 C   0  0  0  0  0  0  0  0  0  0  0  0
   15.5212   -4.3928  -16.9026 C   0  0  0  0  0  0  0  0  0  0  0  0
   14.1260   -4.8497  -16.7649 N   0  0  0  0  0  0  0  0  0  0  0  0
   20.5460   -5.0030  -15.4111 C   0  0  0  0  0  0  0  0  0  0  0  0
   20.6011   -3.6793  -15.8224 O   0  0  0  0  0  0  0  0  0  0  0  0
   20.8060   -5.1998  -14.1729 O   0  0  0  0  0  0  0  0  0  0  0  0
  2  1  1  6
  3  2  1  0
  4  2  1  0
  4  6  1  0
  4  5  1  1
  6  7  2  0
  9  8  1  1
 10  9  1  0
 11  9  1  0
 12 11  1  6
 13  6  1  0
 13 12  1  0
 14 12  1  0
 14 15  2  0
 16 14  1  0
 17 16  1  0
 18 19  1  0
 17 18  1  1
 20 19  1  0
 21 22  1  0
 21 20  1  0
 23 17  1  0
 24 23  1  0
 25 23  2  0
M  END
$$$$
