VLK.pdb
     RDKit          3D

 25 24  0  0  1  0  0  0  0  0999 V2000
   19.9507  -23.0513   -7.8463 C   0  0  0  0  0  0  0  0  0  0  0  0
   21.2456  -22.5343   -8.3779 C   0  0  1  0  0  0  0  0  0  0  0  0
   21.1822  -22.5049   -9.8866 C   0  0  0  0  0  0  0  0  0  0  0  0
   21.6076  -21.1478   -7.9088 C   0  0  2  0  0  0  0  0  0  0  0  0
   20.5408  -20.2755   -8.3896 N   0  0  0  0  0  0  0  0  0  0  0  0
   22.8948  -20.6481   -8.3674 C   0  0  0  0  0  0  0  0  0  0  0  0
   22.9095  -19.9461   -9.4363 O   0  0  0  0  0  0  0  0  0  0  0  0
   28.6159  -20.4565   -6.1751 C   0  0  0  0  0  0  0  0  0  0  0  0
   27.7121  -19.8974   -7.2974 C   0  0  2  0  0  0  0  0  0  0  0  0
   27.5679  -18.4220   -7.0103 C   0  0  0  0  0  0  0  0  0  0  0  0
   26.4108  -20.5916   -7.2448 C   0  0  0  0  0  0  0  0  0  0  0  0
   25.4087  -20.3152   -8.3021 C   0  0  2  0  0  0  0  0  0  0  0  0
   24.1362  -20.8531   -7.7601 N   0  0  0  0  0  0  0  0  0  0  0  0
   25.6712  -20.9144   -9.6249 C   0  0  0  0  0  0  0  0  0  0  0  0
   25.5496  -22.1746   -9.8241 O   0  0  0  0  0  0  0  0  0  0  0  0
   26.0665  -20.1684  -10.7624 N   0  0  0  0  0  0  0  0  0  0  0  0
   26.2891  -20.8375  -12.0611 C   0  0  1  0  0  0  0  0  0  0  0  0
   25.3214  -20.2532  -13.0857 C   0  0  0  0  0  0  0  0  0  0  0  0
   25.5016  -20.8307  -14.4532 C   0  0  0  0  0  0  0  0  0  0  0  0
   24.5362  -20.2296  -15.4425 C   0  0  0  0  0  0  0  0  0  0  0  0
   24.7428  -20.7515  -16.8436 C   0  0  0  0  0  0  0  0  0  0  0  0
   23.6902  -20.1505  -17.6834 N   0  0  0  0  0  0  0  0  0  0  0  0
   27.7047  -20.6044  -12.4056 C   0  0  0  0  0  0  0  0  0  0  0  0
   28.4246  -21.4668  -13.2196 O   0  0  0  0  0  0  0  0  0  0  0  0
   28.3577  -19.5913  -11.9732 O   0  0  0  0  0  0  0  0  0  0  0  0
  2  1  1  1
  3  2  1  0
  4  2  1  0
  4  6  1  0
  4  5  1  6
  6  7  2  0
  9  8  1  1
 10  9  1  0
 11  9  1  0
 12 11  1  1
 13  6  1  0
 13 12  1  0
 14 12  1  0
 14 15  2  0
 16 14  1  0
 17 16  1  0
 18 19  1  0
 17 18  1  6
 20 19  1  0
 21 22  1  0
 21 20  1  0
 23 17  1  0
 24 23  1  0
 25 23  2  0
M  END
$$$$
