CCL.pdb
     RDKit          3D

 21 20  0  0  1  0  0  0  0  0999 V2000
    7.9792  -16.2606   17.7408 N   0  0  0  0  0  0  0  0  0  0  0  0
    8.7168  -15.7993   18.8895 C   0  0  1  0  0  0  0  0  0  0  0  0
    9.2678  -14.4171   18.6971 C   0  0  0  0  0  0  0  0  0  0  0  0
    7.8659  -13.3025   18.3986 S   0  0  0  0  0  0  0  0  0  0  0  0
    7.8426  -15.9143   20.0859 C   0  0  0  0  0  0  0  0  0  0  0  0
    6.5992  -16.1670   19.9809 O   0  0  0  0  0  0  0  0  0  0  0  0
    8.3220  -15.7530   21.4181 N   0  0  0  0  0  0  0  0  0  0  0  0
    7.5527  -16.1011   22.5712 C   0  0  1  0  0  0  0  0  0  0  0  0
    7.1624  -17.5844   22.5754 C   0  0  0  0  0  0  0  0  0  0  0  0
    6.4442  -17.9416   24.1940 S   0  0  0  0  0  0  0  0  0  0  0  0
    8.2252  -15.8052   23.8454 C   0  0  0  0  0  0  0  0  0  0  0  0
    9.3485  -16.3096   24.1003 O   0  0  0  0  0  0  0  0  0  0  0  0
    6.1549  -11.7405   27.3019 C   0  0  0  0  0  0  0  0  0  0  0  0
    6.7283  -12.6280   26.2239 C   0  0  1  0  0  0  0  0  0  0  0  0
    7.1642  -11.6817   25.0945 C   0  0  0  0  0  0  0  0  0  0  0  0
    7.9373  -13.3132   26.7072 C   0  0  0  0  0  0  0  0  0  0  0  0
    8.4615  -14.4689   25.9516 C   0  0  2  0  0  0  0  0  0  0  0  0
    7.6707  -14.9496   24.8577 N   0  0  0  0  0  0  0  0  0  0  0  0
    8.6426  -15.5778   26.9193 C   0  0  0  0  0  0  0  0  0  0  0  0
    8.0754  -16.6700   26.7247 O   0  0  0  0  0  0  0  0  0  0  0  0
    9.4359  -15.3931   28.0258 O   0  0  0  0  0  0  0  0  0  0  0  0
  2  1  1  6
  3  2  1  0
  4  3  1  0
  5  2  1  0
  6  5  2  0
  7  5  1  0
  8 11  1  0
  8  7  1  0
  8  9  1  6
 10  9  1  0
 11 12  2  0
 14 13  1  1
 14 15  1  0
 17 16  1  1
 16 14  1  0
 18 17  1  0
 18 11  1  0
 19 21  1  0
 19 17  1  0
 20 19  2  0
M  END
$$$$
