CCL.pdb
     RDKit          3D

 21 20  0  0  1  0  0  0  0  0999 V2000
    7.9813  -15.0288   17.7183 N   0  0  0  0  0  0  0  0  0  0  0  0
    8.4224  -14.3666   18.9197 C   0  0  1  0  0  0  0  0  0  0  0  0
    7.8707  -12.9767   19.0414 C   0  0  0  0  0  0  0  0  0  0  0  0
    8.9208  -11.8789   18.0470 S   0  0  0  0  0  0  0  0  0  0  0  0
    8.0846  -15.2290   20.0820 C   0  0  0  0  0  0  0  0  0  0  0  0
    6.9744  -15.8483   20.1520 O   0  0  0  0  0  0  0  0  0  0  0  0
    8.9628  -15.4244   21.1871 N   0  0  0  0  0  0  0  0  0  0  0  0
    8.6171  -16.2127   22.3280 C   0  0  1  0  0  0  0  0  0  0  0  0
    9.2385  -17.6137   22.2684 C   0  0  0  0  0  0  0  0  0  0  0  0
   11.0283  -17.3981   22.1542 S   0  0  0  0  0  0  0  0  0  0  0  0
    8.9988  -15.6012   23.6101 C   0  0  0  0  0  0  0  0  0  0  0  0
   10.1191  -15.0445   23.7373 O   0  0  0  0  0  0  0  0  0  0  0  0
    5.8224  -12.5112   26.9682 C   0  0  0  0  0  0  0  0  0  0  0  0
    6.9704  -13.0259   26.1343 C   0  0  1  0  0  0  0  0  0  0  0  0
    8.0357  -11.9190   26.1651 C   0  0  0  0  0  0  0  0  0  0  0  0
    7.5662  -14.2193   26.7553 C   0  0  0  0  0  0  0  0  0  0  0  0
    8.5726  -14.9965   26.0040 C   0  0  2  0  0  0  0  0  0  0  0  0
    8.1524  -15.5938   24.7712 N   0  0  0  0  0  0  0  0  0  0  0  0
    9.0544  -16.0725   26.9034 C   0  0  0  0  0  0  0  0  0  0  0  0
    8.8506  -17.2657   26.6082 O   0  0  0  0  0  0  0  0  0  0  0  0
    9.7233  -15.7458   28.0583 O   0  0  0  0  0  0  0  0  0  0  0  0
  2  1  1  6
  3  2  1  0
  4  3  1  0
  5  2  1  0
  6  5  2  0
  7  5  1  0
  8 11  1  0
  8  7  1  0
  8  9  1  6
 10  9  1  0
 11 12  2  0
 14 13  1  1
 14 15  1  0
 17 16  1  1
 16 14  1  0
 18 17  1  0
 18 11  1  0
 19 21  1  0
 19 17  1  0
 20 19  2  0
M  END
$$$$
