CCL.pdb
     RDKit          3D

 21 20  0  0  1  0  0  0  0  0999 V2000
    7.0544  -16.7806   18.9123 N   0  0  0  0  0  0  0  0  0  0  0  0
    7.7533  -15.8606   19.7734 C   0  0  1  0  0  0  0  0  0  0  0  0
    7.5360  -14.4299   19.3772 C   0  0  0  0  0  0  0  0  0  0  0  0
    8.4857  -14.1291   17.8591 S   0  0  0  0  0  0  0  0  0  0  0  0
    7.3578  -16.1402   21.1785 C   0  0  0  0  0  0  0  0  0  0  0  0
    6.1708  -15.9345   21.5902 O   0  0  0  0  0  0  0  0  0  0  0  0
    8.2620  -16.6510   22.1543 N   0  0  0  0  0  0  0  0  0  0  0  0
    7.9021  -16.8483   23.5232 C   0  0  1  0  0  0  0  0  0  0  0  0
    8.2085  -18.2741   23.9984 C   0  0  0  0  0  0  0  0  0  0  0  0
    6.6236  -19.0936   24.2805 S   0  0  0  0  0  0  0  0  0  0  0  0
    8.5548  -15.9111   24.4501 C   0  0  0  0  0  0  0  0  0  0  0  0
    9.7894  -15.6898   24.3613 O   0  0  0  0  0  0  0  0  0  0  0  0
    5.9613  -11.6518   27.1551 C   0  0  0  0  0  0  0  0  0  0  0  0
    6.7973  -12.5431   26.2690 C   0  0  1  0  0  0  0  0  0  0  0  0
    7.5822  -11.5959   25.3483 C   0  0  0  0  0  0  0  0  0  0  0  0
    7.7831  -13.2881   27.0677 C   0  0  0  0  0  0  0  0  0  0  0  0
    8.5511  -14.3775   26.4314 C   0  0  2  0  0  0  0  0  0  0  0  0
    7.8576  -15.2037   25.4883 N   0  0  0  0  0  0  0  0  0  0  0  0
    9.0657  -15.2429   27.5201 C   0  0  0  0  0  0  0  0  0  0  0  0
    9.7951  -14.7579   28.4062 O   0  0  0  0  0  0  0  0  0  0  0  0
    8.7341  -16.5761   27.5443 O   0  0  0  0  0  0  0  0  0  0  0  0
  2  1  1  6
  3  2  1  0
  4  3  1  0
  5  2  1  0
  6  5  2  0
  7  5  1  0
  8 11  1  0
  8  7  1  0
  8  9  1  1
 10  9  1  0
 11 12  2  0
 14 13  1  1
 14 15  1  0
 17 16  1  1
 16 14  1  0
 18 17  1  0
 18 11  1  0
 19 21  1  0
 19 17  1  0
 20 19  2  0
M  END
$$$$
