CCL.pdb
     RDKit          3D

 21 20  0  0  1  0  0  0  0  0999 V2000
    9.4336  -18.0701   17.8259 N   0  0  0  0  0  0  0  0  0  0  0  0
    9.1991  -18.2768   19.2326 C   0  0  1  0  0  0  0  0  0  0  0  0
    9.4527  -19.6950   19.6516 C   0  0  0  0  0  0  0  0  0  0  0  0
    8.8278  -19.8883   21.3454 S   0  0  0  0  0  0  0  0  0  0  0  0
   10.0122  -17.2926   19.9935 C   0  0  0  0  0  0  0  0  0  0  0  0
   11.1235  -16.8598   19.5480 O   0  0  0  0  0  0  0  0  0  0  0  0
    9.6159  -16.7679   21.2578 N   0  0  0  0  0  0  0  0  0  0  0  0
   10.4496  -15.9135   22.0436 C   0  0  1  0  0  0  0  0  0  0  0  0
    9.6494  -15.1446   23.1022 C   0  0  0  0  0  0  0  0  0  0  0  0
    8.7899  -16.3697   24.1140 S   0  0  0  0  0  0  0  0  0  0  0  0
   11.5459  -16.6176   22.7262 C   0  0  0  0  0  0  0  0  0  0  0  0
   11.5275  -17.8709   22.8269 O   0  0  0  0  0  0  0  0  0  0  0  0
   15.6552  -19.1374   22.5756 C   0  0  0  0  0  0  0  0  0  0  0  0
   16.0435  -17.6940   22.7864 C   0  0  1  0  0  0  0  0  0  0  0  0
   17.0734  -17.3763   21.6913 C   0  0  0  0  0  0  0  0  0  0  0  0
   14.8880  -16.8103   22.5655 C   0  0  0  0  0  0  0  0  0  0  0  0
   13.8804  -16.6603   23.6350 C   0  0  2  0  0  0  0  0  0  0  0  0
   12.6786  -15.9520   23.3079 N   0  0  0  0  0  0  0  0  0  0  0  0
   14.5416  -15.9613   24.7633 C   0  0  0  0  0  0  0  0  0  0  0  0
   14.6627  -14.7215   24.7399 O   0  0  0  0  0  0  0  0  0  0  0  0
   15.0170  -16.6869   25.8289 O   0  0  0  0  0  0  0  0  0  0  0  0
  2  1  1  6
  3  2  1  0
  4  3  1  0
  5  2  1  0
  6  5  2  0
  7  5  1  0
  8 11  1  0
  8  7  1  0
  8  9  1  1
 10  9  1  0
 11 12  2  0
 14 13  1  6
 14 15  1  0
 17 16  1  6
 16 14  1  0
 18 17  1  0
 18 11  1  0
 19 21  1  0
 19 17  1  0
 20 19  2  0
M  END
$$$$
