CCL.pdb
     RDKit          3D

 21 20  0  0  1  0  0  0  0  0999 V2000
    7.2913  -18.1361   18.5824 N   0  0  0  0  0  0  0  0  0  0  0  0
    8.2491  -17.6564   19.5462 C   0  0  1  0  0  0  0  0  0  0  0  0
    9.1326  -16.5805   18.9868 C   0  0  0  0  0  0  0  0  0  0  0  0
    8.1229  -15.0835   18.7959 S   0  0  0  0  0  0  0  0  0  0  0  0
    7.5144  -17.2287   20.7652 C   0  0  0  0  0  0  0  0  0  0  0  0
    6.3434  -16.7335   20.6982 O   0  0  0  0  0  0  0  0  0  0  0  0
    8.0560  -17.3385   22.0787 N   0  0  0  0  0  0  0  0  0  0  0  0
    7.3464  -16.9334   23.2512 C   0  0  1  0  0  0  0  0  0  0  0  0
    6.7200  -18.1258   23.9848 C   0  0  0  0  0  0  0  0  0  0  0  0
    8.0736  -19.2068   24.4970 S   0  0  0  0  0  0  0  0  0  0  0  0
    8.1696  -16.1886   24.2161 C   0  0  0  0  0  0  0  0  0  0  0  0
    9.4214  -16.3071   24.2044 O   0  0  0  0  0  0  0  0  0  0  0  0
    6.1115  -11.7918   27.2492 C   0  0  0  0  0  0  0  0  0  0  0  0
    6.7798  -12.6873   26.2343 C   0  0  1  0  0  0  0  0  0  0  0  0
    7.4342  -11.7432   25.2138 C   0  0  0  0  0  0  0  0  0  0  0  0
    7.8600  -13.4642   26.8623 C   0  0  0  0  0  0  0  0  0  0  0  0
    8.4699  -14.5838   26.1167 C   0  0  2  0  0  0  0  0  0  0  0  0
    7.6265  -15.3023   25.2080 N   0  0  0  0  0  0  0  0  0  0  0  0
    8.9974  -15.5405   27.1194 C   0  0  0  0  0  0  0  0  0  0  0  0
    9.8169  -15.1542   27.9747 O   0  0  0  0  0  0  0  0  0  0  0  0
    8.5781  -16.8489   27.0984 O   0  0  0  0  0  0  0  0  0  0  0  0
  2  1  1  6
  3  2  1  0
  4  3  1  0
  5  2  1  0
  6  5  2  0
  7  5  1  0
  8 11  1  0
  8  7  1  0
  8  9  1  1
 10  9  1  0
 11 12  2  0
 14 13  1  1
 14 15  1  0
 17 16  1  1
 16 14  1  0
 18 17  1  0
 18 11  1  0
 19 21  1  0
 19 17  1  0
 20 19  2  0
M  END
$$$$
