CCL.pdb
     RDKit          3D

 21 20  0  0  1  0  0  0  0  0999 V2000
    7.1699  -18.1360   18.7454 N   0  0  0  0  0  0  0  0  0  0  0  0
    7.8771  -17.1428   19.5134 C   0  0  1  0  0  0  0  0  0  0  0  0
    7.8598  -15.7939   18.8567 C   0  0  0  0  0  0  0  0  0  0  0  0
    9.1402  -15.7923   17.5693 S   0  0  0  0  0  0  0  0  0  0  0  0
    7.3154  -17.1258   20.8893 C   0  0  0  0  0  0  0  0  0  0  0  0
    6.0651  -17.0063   21.0973 O   0  0  0  0  0  0  0  0  0  0  0  0
    8.1204  -17.2399   22.0597 N   0  0  0  0  0  0  0  0  0  0  0  0
    7.5816  -17.2063   23.3830 C   0  0  1  0  0  0  0  0  0  0  0  0
    7.4587  -18.6097   23.9894 C   0  0  0  0  0  0  0  0  0  0  0  0
    6.8317  -18.4099   25.6717 S   0  0  0  0  0  0  0  0  0  0  0  0
    8.3541  -16.3740   24.3178 C   0  0  0  0  0  0  0  0  0  0  0  0
    9.5951  -16.5392   24.4352 O   0  0  0  0  0  0  0  0  0  0  0  0
    6.2707  -11.6044   26.8429 C   0  0  0  0  0  0  0  0  0  0  0  0
    6.9430  -12.6132   25.9435 C   0  0  1  0  0  0  0  0  0  0  0  0
    7.7507  -11.7911   24.9273 C   0  0  0  0  0  0  0  0  0  0  0  0
    7.9034  -13.4263   26.7059 C   0  0  0  0  0  0  0  0  0  0  0  0
    8.5624  -14.5713   26.0455 C   0  0  2  0  0  0  0  0  0  0  0  0
    7.7714  -15.3476   25.1372 N   0  0  0  0  0  0  0  0  0  0  0  0
    9.0572  -15.4684   27.1175 C   0  0  0  0  0  0  0  0  0  0  0  0
    8.6164  -16.6304   27.2070 O   0  0  0  0  0  0  0  0  0  0  0  0
   10.0002  -15.0115   28.0063 O   0  0  0  0  0  0  0  0  0  0  0  0
  2  1  1  6
  3  2  1  0
  4  3  1  0
  5  2  1  0
  6  5  2  0
  7  5  1  0
  8 11  1  0
  8  7  1  0
  8  9  1  1
 10  9  1  0
 11 12  2  0
 14 13  1  1
 14 15  1  0
 17 16  1  1
 16 14  1  0
 18 17  1  0
 18 11  1  0
 19 21  1  0
 19 17  1  0
 20 19  2  0
M  END
$$$$
