CCL.pdb
     RDKit          3D

 21 20  0  0  1  0  0  0  0  0999 V2000
    5.8988  -19.8449   21.6480 N   0  0  0  0  0  0  0  0  0  0  0  0
    5.9558  -18.7296   22.5586 C   0  0  1  0  0  0  0  0  0  0  0  0
    5.5131  -19.0998   23.9435 C   0  0  0  0  0  0  0  0  0  0  0  0
    5.4549  -17.5754   24.9284 S   0  0  0  0  0  0  0  0  0  0  0  0
    7.3288  -18.1621   22.5204 C   0  0  0  0  0  0  0  0  0  0  0  0
    8.3540  -18.8820   22.7476 O   0  0  0  0  0  0  0  0  0  0  0  0
    7.5969  -16.7927   22.2315 N   0  0  0  0  0  0  0  0  0  0  0  0
    8.8543  -16.1701   22.5032 C   0  0  1  0  0  0  0  0  0  0  0  0
    9.3029  -15.2560   21.3561 C   0  0  0  0  0  0  0  0  0  0  0  0
   11.0732  -14.9657   21.5677 S   0  0  0  0  0  0  0  0  0  0  0  0
    8.8707  -15.3816   23.7447 C   0  0  0  0  0  0  0  0  0  0  0  0
    8.8488  -14.1252   23.6969 O   0  0  0  0  0  0  0  0  0  0  0  0
    5.7051  -13.4370   26.3826 C   0  0  0  0  0  0  0  0  0  0  0  0
    7.0922  -13.6443   25.8245 C   0  0  1  0  0  0  0  0  0  0  0  0
    7.7276  -12.2467   25.7598 C   0  0  0  0  0  0  0  0  0  0  0  0
    7.9064  -14.4491   26.7487 C   0  0  0  0  0  0  0  0  0  0  0  0
    9.0911  -15.1630   26.2309 C   0  0  2  0  0  0  0  0  0  0  0  0
    8.9115  -15.9649   25.0571 N   0  0  0  0  0  0  0  0  0  0  0  0
    9.5860  -16.0369   27.3219 C   0  0  0  0  0  0  0  0  0  0  0  0
    9.8771  -15.5438   28.4285 O   0  0  0  0  0  0  0  0  0  0  0  0
    9.7205  -17.3870   27.1046 O   0  0  0  0  0  0  0  0  0  0  0  0
  2  1  1  6
  3  2  1  0
  4  3  1  0
  5  2  1  0
  6  5  2  0
  7  5  1  0
  8 11  1  0
  8  7  1  0
  8  9  1  6
 10  9  1  0
 11 12  2  0
 14 13  1  1
 14 15  1  0
 17 16  1  1
 16 14  1  0
 18 17  1  0
 18 11  1  0
 19 21  1  0
 19 17  1  0
 20 19  2  0
M  END
$$$$
