CCL.pdb
     RDKit          3D

 21 20  0  0  1  0  0  0  0  0999 V2000
    7.8536  -14.8433   17.3875 N   0  0  0  0  0  0  0  0  0  0  0  0
    8.7656  -14.9289   18.4998 C   0  0  1  0  0  0  0  0  0  0  0  0
    9.5117  -13.6471   18.7267 C   0  0  0  0  0  0  0  0  0  0  0  0
    8.2902  -12.3603   19.1125 S   0  0  0  0  0  0  0  0  0  0  0  0
    8.0064  -15.3779   19.6959 C   0  0  0  0  0  0  0  0  0  0  0  0
    6.7999  -15.0217   19.8919 O   0  0  0  0  0  0  0  0  0  0  0  0
    8.5621  -16.2268   20.6966 N   0  0  0  0  0  0  0  0  0  0  0  0
    7.8501  -16.6142   21.8737 C   0  0  1  0  0  0  0  0  0  0  0  0
    8.0438  -18.1004   22.1996 C   0  0  0  0  0  0  0  0  0  0  0  0
    7.0593  -18.4554   23.6720 S   0  0  0  0  0  0  0  0  0  0  0  0
    8.2110  -15.8367   23.0691 C   0  0  0  0  0  0  0  0  0  0  0  0
    9.4102  -15.5247   23.2829 O   0  0  0  0  0  0  0  0  0  0  0  0
    7.9479  -11.5983   26.3262 C   0  0  0  0  0  0  0  0  0  0  0  0
    6.9587  -12.6676   26.7218 C   0  0  1  0  0  0  0  0  0  0  0  0
    5.6687  -11.9222   27.0974 C   0  0  0  0  0  0  0  0  0  0  0  0
    6.6428  -13.5302   25.5725 C   0  0  0  0  0  0  0  0  0  0  0  0
    7.6343  -14.5307   25.1280 C   0  0  2  0  0  0  0  0  0  0  0  0
    7.2568  -15.3915   24.0465 N   0  0  0  0  0  0  0  0  0  0  0  0
    7.9612  -15.3738   26.3032 C   0  0  0  0  0  0  0  0  0  0  0  0
    7.3715  -16.4584   26.4722 O   0  0  0  0  0  0  0  0  0  0  0  0
    8.9138  -14.9527   27.1994 O   0  0  0  0  0  0  0  0  0  0  0  0
  2  1  1  6
  3  2  1  0
  4  3  1  0
  5  2  1  0
  6  5  2  0
  7  5  1  0
  8 11  1  0
  8  7  1  0
  8  9  1  1
 10  9  1  0
 11 12  2  0
 14 13  1  6
 14 15  1  0
 17 16  1  1
 16 14  1  0
 18 17  1  0
 18 11  1  0
 19 21  1  0
 19 17  1  0
 20 19  2  0
M  END
$$$$
