CCL.pdb
     RDKit          3D

 21 20  0  0  1  0  0  0  0  0999 V2000
    7.9868  -16.5310   18.8570 N   0  0  0  0  0  0  0  0  0  0  0  0
    8.7669  -15.7298   19.7659 C   0  0  1  0  0  0  0  0  0  0  0  0
    8.3894  -14.2786   19.7162 C   0  0  0  0  0  0  0  0  0  0  0  0
    6.7024  -14.1262   20.3703 S   0  0  0  0  0  0  0  0  0  0  0  0
    8.6480  -16.3142   21.1272 C   0  0  0  0  0  0  0  0  0  0  0  0
    7.7416  -17.1617   21.4118 O   0  0  0  0  0  0  0  0  0  0  0  0
    9.5247  -15.9757   22.1984 N   0  0  0  0  0  0  0  0  0  0  0  0
    9.4534  -16.5884   23.4876 C   0  0  1  0  0  0  0  0  0  0  0  0
   10.3923  -17.7956   23.6030 C   0  0  0  0  0  0  0  0  0  0  0  0
   10.2279  -18.4396   25.2827 S   0  0  0  0  0  0  0  0  0  0  0  0
    9.7540  -15.6720   24.5982 C   0  0  0  0  0  0  0  0  0  0  0  0
   10.8443  -15.0461   24.6250 O   0  0  0  0  0  0  0  0  0  0  0  0
    5.8418  -12.7013   26.8208 C   0  0  0  0  0  0  0  0  0  0  0  0
    7.1310  -13.1055   26.1476 C   0  0  1  0  0  0  0  0  0  0  0  0
    7.6861  -11.8232   25.5084 C   0  0  0  0  0  0  0  0  0  0  0  0
    8.1156  -13.5552   27.1442 C   0  0  0  0  0  0  0  0  0  0  0  0
    9.1767  -14.4975   26.7348 C   0  0  2  0  0  0  0  0  0  0  0  0
    8.8584  -15.4312   25.6956 N   0  0  0  0  0  0  0  0  0  0  0  0
    9.5731  -15.2609   27.9427 C   0  0  0  0  0  0  0  0  0  0  0  0
    9.9798  -14.6562   28.9533 O   0  0  0  0  0  0  0  0  0  0  0  0
    9.4890  -16.6324   27.9393 O   0  0  0  0  0  0  0  0  0  0  0  0
  2  1  1  6
  3  2  1  0
  4  3  1  0
  5  2  1  0
  6  5  2  0
  7  5  1  0
  8 11  1  0
  8  7  1  0
  8  9  1  6
 10  9  1  0
 11 12  2  0
 14 13  1  1
 14 15  1  0
 17 16  1  1
 16 14  1  0
 18 17  1  0
 18 11  1  0
 19 21  1  0
 19 17  1  0
 20 19  2  0
M  END
$$$$
