CCL.pdb
     RDKit          3D

 21 20  0  0  1  0  0  0  0  0999 V2000
    6.6168  -14.8224   18.5504 N   0  0  0  0  0  0  0  0  0  0  0  0
    7.7290  -15.2467   19.3624 C   0  0  1  0  0  0  0  0  0  0  0  0
    8.8894  -14.2990   19.2818 C   0  0  0  0  0  0  0  0  0  0  0  0
    8.3138  -12.6744   19.8529 S   0  0  0  0  0  0  0  0  0  0  0  0
    7.2439  -15.4533   20.7519 C   0  0  0  0  0  0  0  0  0  0  0  0
    6.3773  -14.6823   21.2769 O   0  0  0  0  0  0  0  0  0  0  0  0
    7.7043  -16.5120   21.5873 N   0  0  0  0  0  0  0  0  0  0  0  0
    7.3000  -16.6622   22.9499 C   0  0  1  0  0  0  0  0  0  0  0  0
    7.0920  -18.1338   23.3289 C   0  0  0  0  0  0  0  0  0  0  0  0
    6.6555  -18.1758   25.0813 S   0  0  0  0  0  0  0  0  0  0  0  0
    8.2392  -16.0730   23.9165 C   0  0  0  0  0  0  0  0  0  0  0  0
    9.4793  -16.1572   23.7260 O   0  0  0  0  0  0  0  0  0  0  0  0
    7.0157  -11.8190   27.7864 C   0  0  0  0  0  0  0  0  0  0  0  0
    7.0657  -13.1464   27.0695 C   0  0  1  0  0  0  0  0  0  0  0  0
    5.9668  -13.0818   25.9975 C   0  0  0  0  0  0  0  0  0  0  0  0
    8.3486  -13.3067   26.3672 C   0  0  0  0  0  0  0  0  0  0  0  0
    8.7587  -14.6509   25.9128 C   0  0  2  0  0  0  0  0  0  0  0  0
    7.8267  -15.3825   25.1070 N   0  0  0  0  0  0  0  0  0  0  0  0
    9.0551  -15.4506   27.1258 C   0  0  0  0  0  0  0  0  0  0  0  0
    9.8591  -15.0176   27.9734 O   0  0  0  0  0  0  0  0  0  0  0  0
    8.4402  -16.6659   27.3071 O   0  0  0  0  0  0  0  0  0  0  0  0
  2  1  1  6
  3  2  1  0
  4  3  1  0
  5  2  1  0
  6  5  2  0
  7  5  1  0
  8 11  1  0
  8  7  1  0
  8  9  1  1
 10  9  1  0
 11 12  2  0
 14 13  1  6
 14 15  1  0
 17 16  1  1
 16 14  1  0
 18 17  1  0
 18 11  1  0
 19 21  1  0
 19 17  1  0
 20 19  2  0
M  END
$$$$
