GRC.pdb
     RDKit          3D

 22 21  0  0  1  0  0  0  0  0999 V2000
    7.2433  -13.0938   18.6082 N   0  0  0  0  0  0  0  0  0  0  0  0
    8.3831  -13.6218   19.3473 C   0  0  0  0  0  0  0  0  0  0  0  0
    7.9656  -14.1398   20.6782 C   0  0  0  0  0  0  0  0  0  0  0  0
    6.7950  -13.8739   21.0539 O   0  0  0  0  0  0  0  0  0  0  0  0
   11.1389  -18.3550   19.1895 N   0  0  0  0  0  0  0  0  0  0  0  0
   10.4500  -19.5158   19.6183 C   0  0  0  0  0  0  0  0  0  0  0  0
   10.1814  -20.4448   18.7454 N   0  0  0  0  0  0  0  0  0  0  0  0
   10.0748  -19.6301   20.9803 N   0  0  0  0  0  0  0  0  0  0  0  0
   10.2076  -18.5114   21.8490 C   0  0  0  0  0  0  0  0  0  0  0  0
    8.8495  -17.8938   22.2034 C   0  0  0  0  0  0  0  0  0  0  0  0
    9.1517  -16.7174   23.0973 C   0  0  0  0  0  0  0  0  0  0  0  0
    8.3946  -15.4789   22.6941 C   0  0  2  0  0  0  0  0  0  0  0  0
    8.8614  -14.8996   21.4757 N   0  0  0  0  0  0  0  0  0  0  0  0
    8.6341  -14.4722   23.7830 C   0  0  0  0  0  0  0  0  0  0  0  0
    9.7047  -13.8138   23.8633 O   0  0  0  0  0  0  0  0  0  0  0  0
    9.6229  -21.2881   18.9805 N   0  0  0  0  0  0  0  0  0  0  0  0
    7.5881  -14.2922   24.7316 C   0  0  2  0  0  0  0  0  0  0  0  0
    7.7107  -13.3063   25.7865 C   0  0  0  0  0  0  0  0  0  0  0  0
    6.3901  -12.5593   25.9599 S   0  0  0  0  0  0  0  0  0  0  0  0
    6.5812  -11.4705   27.4067 C   0  0  0  0  0  0  0  0  0  0  0  0
    8.0649  -14.0134   27.0375 O   0  0  0  0  0  0  0  0  0  0  0  0
    8.8049  -13.4026   28.0533 O   0  0  0  0  0  0  0  0  0  0  0  0
  1  2  1  0
  2  3  1  0
  3  4  2  0
  3 13  1  0
  6  5  1  0
  7  6  2  0
  8  6  1  0
  9  8  1  0
 10  9  1  0
 10 11  1  0
 12 11  1  1
 12 14  1  0
 13 12  1  0
 14 15  2  0
 14 16  1  0
 16 17  1  0
 17 20  1  0
 17 18  1  6
 18 19  1  0
 20 21  1  0
 22 20  2  0
M  END
$$$$
