GRC.pdb
     RDKit          3D

 22 21  0  0  1  0  0  0  0  0999 V2000
    7.2004  -20.7725   21.2525 N   0  0  0  0  0  0  0  0  0  0  0  0
    6.9330  -19.5520   22.0027 C   0  0  0  0  0  0  0  0  0  0  0  0
    7.9894  -18.5323   21.7617 C   0  0  0  0  0  0  0  0  0  0  0  0
    9.1644  -18.9525   21.6031 O   0  0  0  0  0  0  0  0  0  0  0  0
    9.2124  -13.8266   17.4200 N   0  0  0  0  0  0  0  0  0  0  0  0
    7.9122  -13.3541   17.1164 C   0  0  0  0  0  0  0  0  0  0  0  0
    7.5380  -13.3033   15.8696 N   0  0  0  0  0  0  0  0  0  0  0  0
    7.0610  -12.9518   18.1758 N   0  0  0  0  0  0  0  0  0  0  0  0
    7.4298  -13.2203   19.5232 C   0  0  0  0  0  0  0  0  0  0  0  0
    7.9792  -14.6415   19.6969 C   0  0  0  0  0  0  0  0  0  0  0  0
    8.2064  -14.8180   21.1773 C   0  0  0  0  0  0  0  0  0  0  0  0
    8.7111  -16.1951   21.5218 C   0  0  2  0  0  0  0  0  0  0  0  0
    7.6679  -17.1502   21.7152 N   0  0  0  0  0  0  0  0  0  0  0  0
    9.4336  -16.0576   22.8316 C   0  0  0  0  0  0  0  0  0  0  0  0
    8.8362  -15.7539   23.8979 O   0  0  0  0  0  0  0  0  0  0  0  0
    6.6145  -12.9286   15.5780 N   0  0  0  0  0  0  0  0  0  0  0  0
   10.8384  -16.2870   22.8165 C   0  0  1  0  0  0  0  0  0  0  0  0
   11.5995  -16.2847   24.0496 C   0  0  0  0  0  0  0  0  0  0  0  0
   11.0626  -17.3552   24.9972 S   0  0  0  0  0  0  0  0  0  0  0  0
   12.1580  -17.3754   26.4515 C   0  0  0  0  0  0  0  0  0  0  0  0
   13.0148  -16.5613   23.7169 O   0  0  0  0  0  0  0  0  0  0  0  0
   14.0612  -16.2260   24.5801 O   0  0  0  0  0  0  0  0  0  0  0  0
  1  2  1  0
  2  3  1  0
  3  4  2  0
  3 13  1  0
  6  5  1  0
  7  6  2  0
  8  6  1  0
  9  8  1  0
 10  9  1  0
 10 11  1  0
 12 11  1  1
 12 14  1  0
 13 12  1  0
 14 15  2  0
 14 16  1  0
 16 17  1  0
 17 20  1  0
 17 18  1  1
 18 19  1  0
 20 21  1  0
 22 20  2  0
M  END
$$$$
