GRC.pdb
     RDKit          3D

 22 21  0  0  1  0  0  0  0  0999 V2000
    4.8144  -20.9189   22.6871 N   0  0  0  0  0  0  0  0  0  0  0  0
    4.6756  -19.6148   23.3228 C   0  0  0  0  0  0  0  0  0  0  0  0
    5.8002  -18.7145   22.9502 C   0  0  0  0  0  0  0  0  0  0  0  0
    6.9539  -19.2156   22.9375 O   0  0  0  0  0  0  0  0  0  0  0  0
    8.6875  -12.1390   18.3986 N   0  0  0  0  0  0  0  0  0  0  0  0
    8.3264  -13.4940   18.1993 C   0  0  0  0  0  0  0  0  0  0  0  0
    8.7868  -14.1189   17.1531 N   0  0  0  0  0  0  0  0  0  0  0  0
    7.4772  -14.1260   19.1417 N   0  0  0  0  0  0  0  0  0  0  0  0
    7.1047  -13.4416   20.3319 C   0  0  0  0  0  0  0  0  0  0  0  0
    7.4583  -14.2426   21.5908 C   0  0  0  0  0  0  0  0  0  0  0  0
    6.2702  -15.1309   21.8621 C   0  0  0  0  0  0  0  0  0  0  0  0
    6.6728  -16.4919   22.3674 C   0  0  2  0  0  0  0  0  0  0  0  0
    5.5636  -17.3527   22.6256 N   0  0  0  0  0  0  0  0  0  0  0  0
    7.3676  -16.2599   23.6789 C   0  0  0  0  0  0  0  0  0  0  0  0
    6.7630  -15.8068   24.6865 O   0  0  0  0  0  0  0  0  0  0  0  0
    8.5940  -15.1232   16.9721 N   0  0  0  0  0  0  0  0  0  0  0  0
    8.7542  -16.5767   23.7352 C   0  0  2  0  0  0  0  0  0  0  0  0
    9.4921  -16.4408   24.9749 C   0  0  0  0  0  0  0  0  0  0  0  0
    8.8695  -17.3248   26.0533 S   0  0  0  0  0  0  0  0  0  0  0  0
    9.9545  -17.2272   27.5123 C   0  0  0  0  0  0  0  0  0  0  0  0
   10.8918  -16.8511   24.7242 O   0  0  0  0  0  0  0  0  0  0  0  0
   11.9363  -16.4954   25.5815 O   0  0  0  0  0  0  0  0  0  0  0  0
  1  2  1  0
  2  3  1  0
  3  4  2  0
  3 13  1  0
  6  5  1  0
  7  6  2  0
  8  6  1  0
  9  8  1  0
 10  9  1  0
 10 11  1  0
 12 11  1  1
 12 14  1  0
 13 12  1  0
 14 15  2  0
 14 16  1  0
 16 17  1  0
 17 20  1  0
 17 18  1  6
 18 19  1  0
 20 21  1  0
 22 20  2  0
M  END
$$$$
