GRC.pdb
     RDKit          3D

 22 21  0  0  1  0  0  0  0  0999 V2000
    8.0754  -22.4360   19.2226 N   0  0  0  0  0  0  0  0  0  0  0  0
    7.7357  -21.6011   20.3679 C   0  0  0  0  0  0  0  0  0  0  0  0
    8.5395  -20.3490   20.3757 C   0  0  0  0  0  0  0  0  0  0  0  0
    9.5457  -20.3106   19.6218 O   0  0  0  0  0  0  0  0  0  0  0  0
    7.3589  -12.5757   18.4033 N   0  0  0  0  0  0  0  0  0  0  0  0
    8.0314  -13.1202   19.5246 C   0  0  0  0  0  0  0  0  0  0  0  0
    9.3076  -12.8968   19.6605 N   0  0  0  0  0  0  0  0  0  0  0  0
    7.2970  -13.8897   20.4611 N   0  0  0  0  0  0  0  0  0  0  0  0
    7.9429  -14.4017   21.6205 C   0  0  0  0  0  0  0  0  0  0  0  0
    8.9084  -15.5445   21.2838 C   0  0  0  0  0  0  0  0  0  0  0  0
    8.1250  -16.8181   21.4801 C   0  0  0  0  0  0  0  0  0  0  0  0
    8.9291  -18.0463   21.1415 C   0  0  2  0  0  0  0  0  0  0  0  0
    8.1724  -19.2552   21.2031 N   0  0  0  0  0  0  0  0  0  0  0  0
   10.0023  -18.1422   22.1882 C   0  0  0  0  0  0  0  0  0  0  0  0
    9.7477  -18.4485   23.3830 O   0  0  0  0  0  0  0  0  0  0  0  0
    9.8884  -13.3859   20.3690 N   0  0  0  0  0  0  0  0  0  0  0  0
   11.3346  -17.8685   21.7681 C   0  0  2  0  0  0  0  0  0  0  0  0
   12.4387  -17.9753   22.7005 C   0  0  0  0  0  0  0  0  0  0  0  0
   13.7559  -18.1029   21.9384 S   0  0  0  0  0  0  0  0  0  0  0  0
   15.0651  -18.3549   23.1784 C   0  0  0  0  0  0  0  0  0  0  0  0
   12.4510  -16.7565   23.5400 O   0  0  0  0  0  0  0  0  0  0  0  0
   12.8290  -16.7834   24.8849 O   0  0  0  0  0  0  0  0  0  0  0  0
  1  2  1  0
  2  3  1  0
  3  4  2  0
  3 13  1  0
  6  5  1  0
  7  6  2  0
  8  6  1  0
  9  8  1  0
 10  9  1  0
 10 11  1  0
 12 11  1  1
 12 14  1  0
 13 12  1  0
 14 15  2  0
 14 16  1  0
 16 17  1  0
 17 20  1  0
 17 18  1  6
 18 19  1  0
 20 21  1  0
 22 20  2  0
M  END
$$$$
