GRC.pdb
     RDKit          3D

 22 21  0  0  1  0  0  0  0  0999 V2000
    8.6548  -16.6055   19.2502 N   0  0  0  0  0  0  0  0  0  0  0  0
    9.7161  -16.2628   20.1884 C   0  0  0  0  0  0  0  0  0  0  0  0
    9.2304  -16.3253   21.5935 C   0  0  0  0  0  0  0  0  0  0  0  0
    8.0198  -16.0481   21.7929 O   0  0  0  0  0  0  0  0  0  0  0  0
   11.3063  -17.5013   29.9358 N   0  0  0  0  0  0  0  0  0  0  0  0
   11.1972  -18.8076   29.3994 C   0  0  0  0  0  0  0  0  0  0  0  0
   11.9214  -19.7601   29.9144 N   0  0  0  0  0  0  0  0  0  0  0  0
   10.3061  -19.0371   28.3215 N   0  0  0  0  0  0  0  0  0  0  0  0
   10.7450  -18.8369   26.9833 C   0  0  0  0  0  0  0  0  0  0  0  0
    9.9698  -17.7126   26.2856 C   0  0  0  0  0  0  0  0  0  0  0  0
   10.4133  -17.7382   24.8444 C   0  0  0  0  0  0  0  0  0  0  0  0
    9.5895  -16.8266   23.9727 C   0  0  2  0  0  0  0  0  0  0  0  0
   10.1079  -16.6844   22.6502 N   0  0  0  0  0  0  0  0  0  0  0  0
    9.6457  -15.4713   24.6181 C   0  0  0  0  0  0  0  0  0  0  0  0
   10.7130  -14.8062   24.6882 O   0  0  0  0  0  0  0  0  0  0  0  0
   11.8890  -20.7378   29.5658 N   0  0  0  0  0  0  0  0  0  0  0  0
    8.4281  -14.9649   25.1539 C   0  0  2  0  0  0  0  0  0  0  0  0
    8.3959  -13.6829   25.8287 C   0  0  0  0  0  0  0  0  0  0  0  0
    6.9740  -13.1260   25.8253 S   0  0  0  0  0  0  0  0  0  0  0  0
    6.5056  -12.8753   24.0837 C   0  0  0  0  0  0  0  0  0  0  0  0
    8.8619  -13.8834   27.2191 O   0  0  0  0  0  0  0  0  0  0  0  0
    9.2198  -15.1419   27.7095 O   0  0  0  0  0  0  0  0  0  0  0  0
  1  2  1  0
  2  3  1  0
  3  4  2  0
  3 13  1  0
  6  5  1  0
  7  6  2  0
  8  6  1  0
  9  8  1  0
 10  9  1  0
 10 11  1  0
 12 11  1  1
 12 14  1  0
 13 12  1  0
 14 15  2  0
 14 16  1  0
 16 17  1  0
 17 20  1  0
 17 18  1  6
 18 19  1  0
 20 21  1  0
 22 20  2  0
M  END
$$$$
