GRC.pdb
     RDKit          3D

 22 21  0  0  1  0  0  0  0  0999 V2000
    6.1829  -20.4797   24.8929 N   0  0  0  0  0  0  0  0  0  0  0  0
    6.0751  -19.1149   25.3925 C   0  0  0  0  0  0  0  0  0  0  0  0
    7.0320  -18.2123   24.6971 C   0  0  0  0  0  0  0  0  0  0  0  0
    8.1304  -18.7098   24.3392 O   0  0  0  0  0  0  0  0  0  0  0  0
    7.6363  -11.9783   18.9227 N   0  0  0  0  0  0  0  0  0  0  0  0
    8.2222  -13.2654   18.8436 C   0  0  0  0  0  0  0  0  0  0  0  0
    8.0842  -13.9515   17.7449 N   0  0  0  0  0  0  0  0  0  0  0  0
    8.9383  -13.7657   19.9597 N   0  0  0  0  0  0  0  0  0  0  0  0
    8.3165  -13.8132   21.2382 C   0  0  0  0  0  0  0  0  0  0  0  0
    7.4764  -15.0829   21.4225 C   0  0  0  0  0  0  0  0  0  0  0  0
    6.9492  -15.0276   22.8344 C   0  0  0  0  0  0  0  0  0  0  0  0
    7.6218  -16.0270   23.7392 C   0  0  2  0  0  0  0  0  0  0  0  0
    6.7034  -16.8523   24.4556 N   0  0  0  0  0  0  0  0  0  0  0  0
    8.3801  -15.2226   24.7563 C   0  0  0  0  0  0  0  0  0  0  0  0
    8.4668  -13.9680   24.6892 O   0  0  0  0  0  0  0  0  0  0  0  0
    8.5198  -14.8845   17.6099 N   0  0  0  0  0  0  0  0  0  0  0  0
    9.0045  -15.9467   25.8109 C   0  0  1  0  0  0  0  0  0  0  0  0
    9.5768  -15.2505   26.9456 C   0  0  0  0  0  0  0  0  0  0  0  0
    8.4839  -14.5004   27.7040 S   0  0  0  0  0  0  0  0  0  0  0  0
    8.4238  -12.8142   27.0198 C   0  0  0  0  0  0  0  0  0  0  0  0
   10.2129  -16.2544   27.8278 O   0  0  0  0  0  0  0  0  0  0  0  0
   10.9374  -15.8916   28.9662 O   0  0  0  0  0  0  0  0  0  0  0  0
  1  2  1  0
  2  3  1  0
  3  4  2  0
  3 13  1  0
  6  5  1  0
  7  6  2  0
  8  6  1  0
  9  8  1  0
 10  9  1  0
 10 11  1  0
 12 11  1  6
 12 14  1  0
 13 12  1  0
 14 15  2  0
 14 16  1  0
 16 17  1  0
 17 20  1  0
 17 18  1  6
 18 19  1  0
 20 21  1  0
 22 20  2  0
M  END
$$$$
