GRC.pdb
     RDKit          3D

 22 21  0  0  1  0  0  0  0  0999 V2000
    6.0260  -21.2720   20.0963 N   0  0  0  0  0  0  0  0  0  0  0  0
    6.3303  -20.8980   21.4716 C   0  0  0  0  0  0  0  0  0  0  0  0
    7.1491  -19.6566   21.5209 C   0  0  0  0  0  0  0  0  0  0  0  0
    8.1899  -19.6296   20.8150 O   0  0  0  0  0  0  0  0  0  0  0  0
    6.9755  -12.2449   19.7550 N   0  0  0  0  0  0  0  0  0  0  0  0
    7.9742  -13.2426   19.6397 C   0  0  0  0  0  0  0  0  0  0  0  0
    8.6182  -13.3588   18.5133 N   0  0  0  0  0  0  0  0  0  0  0  0
    8.2408  -14.0815   20.7504 N   0  0  0  0  0  0  0  0  0  0  0  0
    7.3338  -14.1183   21.8456 C   0  0  0  0  0  0  0  0  0  0  0  0
    7.8495  -14.9985   22.9905 C   0  0  0  0  0  0  0  0  0  0  0  0
    6.9535  -16.2114   23.0144 C   0  0  0  0  0  0  0  0  0  0  0  0
    7.6318  -17.4387   22.4637 C   0  0  2  0  0  0  0  0  0  0  0  0
    6.7580  -18.5601   22.3337 N   0  0  0  0  0  0  0  0  0  0  0  0
    8.6879  -17.8142   23.4638 C   0  0  0  0  0  0  0  0  0  0  0  0
    8.4068  -18.3689   24.5590 O   0  0  0  0  0  0  0  0  0  0  0  0
    9.2993  -14.1222   18.3349 N   0  0  0  0  0  0  0  0  0  0  0  0
   10.0353  -17.5125   23.1177 C   0  0  1  0  0  0  0  0  0  0  0  0
   11.1270  -17.9193   23.9795 C   0  0  0  0  0  0  0  0  0  0  0  0
   12.4644  -17.6018   23.3141 S   0  0  0  0  0  0  0  0  0  0  0  0
   12.5466  -15.7930   23.1225 C   0  0  0  0  0  0  0  0  0  0  0  0
   11.0044  -17.1808   25.2563 O   0  0  0  0  0  0  0  0  0  0  0  0
   11.8079  -17.4692   26.3625 O   0  0  0  0  0  0  0  0  0  0  0  0
  1  2  1  0
  2  3  1  0
  3  4  2  0
  3 13  1  0
  6  5  1  0
  7  6  2  0
  8  6  1  0
  9  8  1  0
 10  9  1  0
 10 11  1  0
 12 11  1  1
 12 14  1  0
 13 12  1  0
 14 15  2  0
 14 16  1  0
 16 17  1  0
 17 20  1  0
 17 18  1  6
 18 19  1  0
 20 21  1  0
 22 20  2  0
M  END
$$$$
