GRC.pdb
     RDKit          3D

 22 21  0  0  1  0  0  0  0  0999 V2000
    8.4885  -20.6362   20.8099 N   0  0  0  0  0  0  0  0  0  0  0  0
    8.5631  -19.1989   20.5807 C   0  0  0  0  0  0  0  0  0  0  0  0
    9.9767  -18.7373   20.5266 C   0  0  0  0  0  0  0  0  0  0  0  0
   10.8659  -19.5856   20.7948 O   0  0  0  0  0  0  0  0  0  0  0  0
   16.2260  -15.0441   17.9549 N   0  0  0  0  0  0  0  0  0  0  0  0
   15.7886  -13.7805   18.4218 C   0  0  0  0  0  0  0  0  0  0  0  0
   16.6767  -12.9237   18.8393 N   0  0  0  0  0  0  0  0  0  0  0  0
   14.4017  -13.4884   18.4208 N   0  0  0  0  0  0  0  0  0  0  0  0
   13.4705  -14.4695   17.9804 C   0  0  0  0  0  0  0  0  0  0  0  0
   13.3810  -15.6540   18.9502 C   0  0  0  0  0  0  0  0  0  0  0  0
   11.9211  -15.7886   19.3037 C   0  0  0  0  0  0  0  0  0  0  0  0
   11.6526  -16.9695   20.1999 C   0  0  2  0  0  0  0  0  0  0  0  0
   10.2902  -17.3954   20.1849 N   0  0  0  0  0  0  0  0  0  0  0  0
   11.9569  -16.5090   21.5970 C   0  0  0  0  0  0  0  0  0  0  0  0
   11.1450  -15.8168   22.2662 O   0  0  0  0  0  0  0  0  0  0  0  0
   16.4184  -12.0010   19.2397 N   0  0  0  0  0  0  0  0  0  0  0  0
   13.2165  -16.8917   22.1385 C   0  0  1  0  0  0  0  0  0  0  0  0
   13.5202  -16.6579   23.5360 C   0  0  0  0  0  0  0  0  0  0  0  0
   12.7568  -17.6506   24.4100 S   0  0  0  0  0  0  0  0  0  0  0  0
   11.2677  -16.7930   25.0120 C   0  0  0  0  0  0  0  0  0  0  0  0
   14.9783  -16.8285   23.7244 O   0  0  0  0  0  0  0  0  0  0  0  0
   15.6476  -16.3261   24.8433 O   0  0  0  0  0  0  0  0  0  0  0  0
  1  2  1  0
  2  3  1  0
  3  4  2  0
  3 13  1  0
  6  5  1  0
  7  6  2  0
  8  6  1  0
  9  8  1  0
 10  9  1  0
 10 11  1  0
 12 11  1  6
 12 14  1  0
 13 12  1  0
 14 15  2  0
 14 16  1  0
 16 17  1  0
 17 20  1  0
 17 18  1  1
 18 19  1  0
 20 21  1  0
 22 20  2  0
M  END
$$$$
