KHG.pdb
     RDKit          3D

 24 24  0  0  1  0  0  0  0  0999 V2000
   23.9440  -18.6107  -16.3269 N   0  0  0  0  0  0  0  0  0  0  0  0
   23.3408  -19.8016  -15.8888 C   0  0  1  0  0  0  0  0  0  0  0  0
   22.7828  -20.7541  -16.8710 C   0  0  0  0  0  0  0  0  0  0  0  0
   22.1650  -20.3454  -18.1185 C   0  0  0  0  0  0  0  0  0  0  0  0
   21.2222  -19.2654  -18.3204 C   0  0  0  0  0  0  0  0  0  0  0  0
   20.6164  -18.9228  -19.6153 C   0  0  0  0  0  0  0  0  0  0  0  0
   19.7450  -17.7246  -19.3122 N   0  0  0  0  0  0  0  0  0  0  0  0
   24.3194  -20.4977  -14.9580 C   0  0  0  0  0  0  0  0  0  0  0  0
   24.0809  -21.6834  -14.6600 O   0  0  0  0  0  0  0  0  0  0  0  0
   25.4614  -19.8558  -14.4352 N   0  0  0  0  0  0  0  0  0  0  0  0
   26.3451  -20.5197  -13.4621 C   0  0  1  0  0  0  0  0  0  0  0  0
   27.6976  -20.5494  -14.1047 C   0  0  0  0  0  0  0  0  0  0  0  0
   27.8515  -21.3353  -15.3212 C   0  0  0  0  0  0  0  0  0  0  0  0
   28.0681  -20.9208  -16.6362 C   0  0  0  0  0  0  0  0  0  0  0  0
   28.1024  -22.0116  -17.4238 N   0  0  0  0  0  0  0  0  0  0  0  0
   27.9174  -23.1026  -16.6708 C   0  0  0  0  0  0  0  0  0  0  0  0
   27.7679  -22.6937  -15.4156 N   0  0  0  0  0  0  0  0  0  0  0  0
   26.3342  -19.8293  -12.1782 C   0  0  0  0  0  0  0  0  0  0  0  0
   26.7496  -18.6456  -12.0103 O   0  0  0  0  0  0  0  0  0  0  0  0
   25.8289  -20.4924  -11.0253 N   0  0  0  0  0  0  0  0  0  0  0  0
   25.7371  -19.8420   -9.7392 C   0  0  0  0  0  0  0  0  0  0  0  0
   25.2215  -20.7081   -8.6609 C   0  0  0  0  0  0  0  0  0  0  0  0
   26.0222  -21.3091   -7.9090 O   0  0  0  0  0  0  0  0  0  0  0  0
   23.8545  -20.8569   -8.4795 O   0  0  0  0  0  0  0  0  0  0  0  0
  2  1  1  6
  3  2  1  0
  4  3  1  0
  5  6  1  0
  5  4  1  0
  6  7  1  0
  8  2  1  0
  9  8  2  0
 10  8  1  0
 11 10  1  0
 11 12  1  6
 12 13  1  0
 13 14  2  0
 15 14  1  0
 16 15  1  0
 17 16  2  0
 17 13  1  0
 18 11  1  0
 19 18  2  0
 20 18  1  0
 21 20  1  0
 22 24  1  0
 22 21  1  0
 23 22  2  0
M  END
$$$$
