KHG.pdb
     RDKit          3D

 24 24  0  0  1  0  0  0  0  0999 V2000
   21.6561  -16.0171  -17.9709 N   0  0  0  0  0  0  0  0  0  0  0  0
   21.1990  -14.7289  -17.6461 C   0  0  1  0  0  0  0  0  0  0  0  0
   19.9034  -14.5545  -16.9575 C   0  0  0  0  0  0  0  0  0  0  0  0
   18.8013  -15.4902  -17.0794 C   0  0  0  0  0  0  0  0  0  0  0  0
   18.5739  -16.6875  -16.2977 C   0  0  0  0  0  0  0  0  0  0  0  0
   17.4336  -17.5965  -16.4832 C   0  0  0  0  0  0  0  0  0  0  0  0
   17.7153  -18.7431  -15.5385 N   0  0  0  0  0  0  0  0  0  0  0  0
   22.3115  -14.0231  -16.8893 C   0  0  0  0  0  0  0  0  0  0  0  0
   22.9730  -14.7011  -16.0805 O   0  0  0  0  0  0  0  0  0  0  0  0
   22.6091  -12.6565  -17.0720 N   0  0  0  0  0  0  0  0  0  0  0  0
   23.7191  -12.0037  -16.3576 C   0  0  1  0  0  0  0  0  0  0  0  0
   24.7296  -11.6667  -17.4104 C   0  0  0  0  0  0  0  0  0  0  0  0
   25.9842  -11.0674  -16.9767 C   0  0  0  0  0  0  0  0  0  0  0  0
   26.4564  -10.8060  -15.6896 C   0  0  0  0  0  0  0  0  0  0  0  0
   27.6556  -10.2037  -15.7927 N   0  0  0  0  0  0  0  0  0  0  0  0
   27.9692  -10.0691  -17.0869 C   0  0  0  0  0  0  0  0  0  0  0  0
   26.9679  -10.5863  -17.7903 N   0  0  0  0  0  0  0  0  0  0  0  0
   23.2579  -10.8399  -15.6107 C   0  0  0  0  0  0  0  0  0  0  0  0
   23.9981  -10.1519  -14.8488 O   0  0  0  0  0  0  0  0  0  0  0  0
   21.9032  -10.4204  -15.7248 N   0  0  0  0  0  0  0  0  0  0  0  0
   21.3564   -9.3507  -14.9233 C   0  0  0  0  0  0  0  0  0  0  0  0
   21.6012   -8.0017  -15.4701 C   0  0  0  0  0  0  0  0  0  0  0  0
   22.2251   -7.8709  -16.5477 O   0  0  0  0  0  0  0  0  0  0  0  0
   21.1422   -6.8813  -14.7937 O   0  0  0  0  0  0  0  0  0  0  0  0
  2  1  1  1
  3  2  1  0
  4  3  1  0
  5  6  1  0
  5  4  1  0
  6  7  1  0
  8  2  1  0
  9  8  2  0
 10  8  1  0
 11 10  1  0
 11 12  1  6
 12 13  1  0
 13 14  2  0
 15 14  1  0
 16 15  1  0
 17 16  2  0
 17 13  1  0
 18 11  1  0
 19 18  2  0
 20 18  1  0
 21 20  1  0
 22 24  1  0
 22 21  1  0
 23 22  2  0
M  END
$$$$
