KHG.pdb
     RDKit          3D

 24 24  0  0  1  0  0  0  0  0999 V2000
   31.5086  -28.2612  -18.8773 N   0  0  0  0  0  0  0  0  0  0  0  0
   30.9392  -29.5183  -19.1411 C   0  0  1  0  0  0  0  0  0  0  0  0
   31.7910  -30.7252  -19.1730 C   0  0  0  0  0  0  0  0  0  0  0  0
   33.2182  -30.6893  -19.4315 C   0  0  0  0  0  0  0  0  0  0  0  0
   34.2756  -31.2299  -18.6033 C   0  0  0  0  0  0  0  0  0  0  0  0
   35.6950  -31.2622  -18.9846 C   0  0  0  0  0  0  0  0  0  0  0  0
   36.3749  -31.9568  -17.8262 N   0  0  0  0  0  0  0  0  0  0  0  0
   29.7739  -29.7056  -18.1842 C   0  0  0  0  0  0  0  0  0  0  0  0
   29.7864  -29.0419  -17.1303 O   0  0  0  0  0  0  0  0  0  0  0  0
   28.7053  -30.5873  -18.4489 N   0  0  0  0  0  0  0  0  0  0  0  0
   27.5591  -30.7116  -17.5325 C   0  0  1  0  0  0  0  0  0  0  0  0
   26.3428  -30.5119  -18.3833 C   0  0  0  0  0  0  0  0  0  0  0  0
   26.0152  -29.1513  -18.7865 C   0  0  0  0  0  0  0  0  0  0  0  0
   26.5789  -27.9374  -18.3906 C   0  0  0  0  0  0  0  0  0  0  0  0
   25.9142  -26.9415  -19.0051 N   0  0  0  0  0  0  0  0  0  0  0  0
   24.9524  -27.4652  -19.7746 C   0  0  0  0  0  0  0  0  0  0  0  0
   25.0165  -28.7853  -19.6408 N   0  0  0  0  0  0  0  0  0  0  0  0
   27.5709  -31.9938  -16.8391 C   0  0  0  0  0  0  0  0  0  0  0  0
   28.3855  -32.9276  -17.0965 O   0  0  0  0  0  0  0  0  0  0  0  0
   26.6289  -32.2434  -15.8024 N   0  0  0  0  0  0  0  0  0  0  0  0
   26.7101  -33.4059  -14.9494 C   0  0  0  0  0  0  0  0  0  0  0  0
   25.5247  -33.6102  -14.0940 C   0  0  0  0  0  0  0  0  0  0  0  0
   25.4433  -34.6338  -13.3776 O   0  0  0  0  0  0  0  0  0  0  0  0
   24.5031  -32.6722  -14.0827 O   0  0  0  0  0  0  0  0  0  0  0  0
  2  1  1  1
  3  2  1  0
  4  3  1  0
  5  6  1  0
  5  4  1  0
  6  7  1  0
  8  2  1  0
  9  8  2  0
 10  8  1  0
 11 10  1  0
 11 12  1  6
 12 13  1  0
 13 14  2  0
 15 14  1  0
 16 15  1  0
 17 16  2  0
 17 13  1  0
 18 11  1  0
 19 18  2  0
 20 18  1  0
 21 20  1  0
 22 24  1  0
 22 21  1  0
 23 22  2  0
M  END
$$$$
