KHG.pdb
     RDKit          3D

 24 24  0  0  1  0  0  0  0  0999 V2000
   23.8617  -17.8698  -20.5590 N   0  0  0  0  0  0  0  0  0  0  0  0
   24.3756  -17.2021  -19.4347 C   0  0  1  0  0  0  0  0  0  0  0  0
   25.4926  -16.2469  -19.5870 C   0  0  0  0  0  0  0  0  0  0  0  0
   25.8031  -15.5726  -20.8336 C   0  0  0  0  0  0  0  0  0  0  0  0
   26.8828  -14.6413  -21.0843 C   0  0  0  0  0  0  0  0  0  0  0  0
   27.1563  -14.0177  -22.3872 C   0  0  0  0  0  0  0  0  0  0  0  0
   28.4061  -13.1994  -22.1522 N   0  0  0  0  0  0  0  0  0  0  0  0
   23.2075  -16.5550  -18.7100 C   0  0  0  0  0  0  0  0  0  0  0  0
   22.4046  -15.8935  -19.3950 O   0  0  0  0  0  0  0  0  0  0  0  0
   23.0112  -16.6791  -17.3187 N   0  0  0  0  0  0  0  0  0  0  0  0
   21.8435  -16.0855  -16.6457 C   0  0  1  0  0  0  0  0  0  0  0  0
   21.5758  -16.9619  -15.4611 C   0  0  0  0  0  0  0  0  0  0  0  0
   20.3824  -16.6875  -14.6726 C   0  0  0  0  0  0  0  0  0  0  0  0
   19.5043  -15.6038  -14.7207 C   0  0  0  0  0  0  0  0  0  0  0  0
   18.5695  -15.7735  -13.7674 N   0  0  0  0  0  0  0  0  0  0  0  0
   18.8119  -16.9160  -13.1137 C   0  0  0  0  0  0  0  0  0  0  0  0
   19.8957  -17.4585  -13.6577 N   0  0  0  0  0  0  0  0  0  0  0  0
   22.0885  -14.6940  -16.2871 C   0  0  0  0  0  0  0  0  0  0  0  0
   23.1849  -14.2686  -15.8192 O   0  0  0  0  0  0  0  0  0  0  0  0
   21.0591  -13.7281  -16.4651 N   0  0  0  0  0  0  0  0  0  0  0  0
   21.2224  -12.3461  -16.0793 C   0  0  0  0  0  0  0  0  0  0  0  0
   19.9646  -11.6731  -15.7003 C   0  0  0  0  0  0  0  0  0  0  0  0
   18.8823  -12.3002  -15.7554 O   0  0  0  0  0  0  0  0  0  0  0  0
   19.9796  -10.3501  -15.2843 O   0  0  0  0  0  0  0  0  0  0  0  0
  2  1  1  6
  3  2  1  0
  4  3  1  0
  5  6  1  0
  5  4  1  0
  6  7  1  0
  8  2  1  0
  9  8  2  0
 10  8  1  0
 11 10  1  0
 11 12  1  1
 12 13  1  0
 13 14  2  0
 15 14  1  0
 16 15  1  0
 17 16  2  0
 17 13  1  0
 18 11  1  0
 19 18  2  0
 20 18  1  0
 21 20  1  0
 22 24  1  0
 22 21  1  0
 23 22  2  0
M  END
$$$$
