KHG.pdb
     RDKit          3D

 24 24  0  0  1  0  0  0  0  0999 V2000
   22.8272  -13.4080  -20.7831 N   0  0  0  0  0  0  0  0  0  0  0  0
   23.4564  -12.5689  -19.8482 C   0  0  1  0  0  0  0  0  0  0  0  0
   24.5301  -11.6510  -20.2816 C   0  0  0  0  0  0  0  0  0  0  0  0
   24.6036  -11.0793  -21.6130 C   0  0  0  0  0  0  0  0  0  0  0  0
   25.5979  -10.1572  -22.1203 C   0  0  0  0  0  0  0  0  0  0  0  0
   25.5878   -9.5878  -23.4756 C   0  0  0  0  0  0  0  0  0  0  0  0
   26.8324   -8.7305  -23.5274 N   0  0  0  0  0  0  0  0  0  0  0  0
   22.3692  -11.8135  -19.1027 C   0  0  0  0  0  0  0  0  0  0  0  0
   21.4792  -11.2707  -19.7845 O   0  0  0  0  0  0  0  0  0  0  0  0
   22.3395  -11.7122  -17.6962 N   0  0  0  0  0  0  0  0  0  0  0  0
   21.2490  -11.0156  -16.9931 C   0  0  1  0  0  0  0  0  0  0  0  0
   20.4911  -12.0858  -16.2696 C   0  0  0  0  0  0  0  0  0  0  0  0
   19.2861  -11.6938  -15.5517 C   0  0  0  0  0  0  0  0  0  0  0  0
   18.7376  -10.4276  -15.3428 C   0  0  0  0  0  0  0  0  0  0  0  0
   17.6351  -10.5638  -14.5830 N   0  0  0  0  0  0  0  0  0  0  0  0
   17.4559  -11.8591  -14.2979 C   0  0  0  0  0  0  0  0  0  0  0  0
   18.4445  -12.5303  -14.8786 N   0  0  0  0  0  0  0  0  0  0  0  0
   21.7655   -9.9791  -16.1077 C   0  0  0  0  0  0  0  0  0  0  0  0
   22.8376  -10.0882  -15.4439 O   0  0  0  0  0  0  0  0  0  0  0  0
   21.0515   -8.7573  -15.9607 N   0  0  0  0  0  0  0  0  0  0  0  0
   21.5090   -7.6955  -15.0952 C   0  0  0  0  0  0  0  0  0  0  0  0
   20.6559   -6.4911  -15.1156 C   0  0  0  0  0  0  0  0  0  0  0  0
   19.7320   -6.3972  -15.9553 O   0  0  0  0  0  0  0  0  0  0  0  0
   20.8758   -5.4655  -14.2082 O   0  0  0  0  0  0  0  0  0  0  0  0
  2  1  1  6
  3  2  1  0
  4  3  1  0
  5  6  1  0
  5  4  1  0
  6  7  1  0
  8  2  1  0
  9  8  2  0
 10  8  1  0
 11 10  1  0
 11 12  1  1
 12 13  1  0
 13 14  2  0
 15 14  1  0
 16 15  1  0
 17 16  2  0
 17 13  1  0
 18 11  1  0
 19 18  2  0
 20 18  1  0
 21 20  1  0
 22 24  1  0
 22 21  1  0
 23 22  2  0
M  END
$$$$
