KHG.pdb
     RDKit          3D

 24 24  0  0  1  0  0  0  0  0999 V2000
   13.8202  -23.5176   -3.6046 N   0  0  0  0  0  0  0  0  0  0  0  0
   14.4242  -24.1304   -2.4939 C   0  0  1  0  0  0  0  0  0  0  0  0
   15.8186  -24.6112   -2.5806 C   0  0  0  0  0  0  0  0  0  0  0  0
   16.3494  -25.3207   -3.7295 C   0  0  0  0  0  0  0  0  0  0  0  0
   16.4587  -26.7537   -3.9044 C   0  0  0  0  0  0  0  0  0  0  0  0
   17.0691  -27.4036   -5.0733 C   0  0  0  0  0  0  0  0  0  0  0  0
   16.9254  -28.8826   -4.7929 N   0  0  0  0  0  0  0  0  0  0  0  0
   14.2462  -23.2034   -1.3034 C   0  0  0  0  0  0  0  0  0  0  0  0
   14.2582  -21.9778   -1.5256 O   0  0  0  0  0  0  0  0  0  0  0  0
   14.0719  -23.6790    0.0130 N   0  0  0  0  0  0  0  0  0  0  0  0
   13.8627  -22.7619    1.1461 C   0  0  1  0  0  0  0  0  0  0  0  0
   12.7554  -23.3676    1.9523 C   0  0  0  0  0  0  0  0  0  0  0  0
   11.4103  -23.3220    1.3958 C   0  0  0  0  0  0  0  0  0  0  0  0
   10.9123  -22.6010    0.3095 C   0  0  0  0  0  0  0  0  0  0  0  0
    9.5944  -22.8523    0.2028 N   0  0  0  0  0  0  0  0  0  0  0  0
    9.2296  -23.7006    1.1717 C   0  0  0  0  0  0  0  0  0  0  0  0
   10.3175  -23.9783    1.8818 N   0  0  0  0  0  0  0  0  0  0  0  0
   15.0906  -22.5717    1.9084 C   0  0  0  0  0  0  0  0  0  0  0  0
   15.9644  -23.4722    2.0746 O   0  0  0  0  0  0  0  0  0  0  0  0
   15.3585  -21.3109    2.5108 N   0  0  0  0  0  0  0  0  0  0  0  0
   16.5516  -21.0640    3.2862 C   0  0  0  0  0  0  0  0  0  0  0  0
   16.4006  -21.3376    4.7287 C   0  0  0  0  0  0  0  0  0  0  0  0
   15.3050  -21.7503    5.1725 O   0  0  0  0  0  0  0  0  0  0  0  0
   17.4680  -21.1386    5.5916 O   0  0  0  0  0  0  0  0  0  0  0  0
  2  1  1  6
  3  2  1  0
  4  3  1  0
  5  6  1  0
  5  4  1  0
  6  7  1  0
  8  2  1  0
  9  8  2  0
 10  8  1  0
 11 10  1  0
 11 12  1  1
 12 13  1  0
 13 14  2  0
 15 14  1  0
 16 15  1  0
 17 16  2  0
 17 13  1  0
 18 11  1  0
 19 18  2  0
 20 18  1  0
 21 20  1  0
 22 24  1  0
 22 21  1  0
 23 22  2  0
M  END
$$$$
