KHG.pdb
     RDKit          3D

 24 24  0  0  1  0  0  0  0  0999 V2000
   43.8413   -9.5551   -5.2303 N   0  0  0  0  0  0  0  0  0  0  0  0
   43.9959   -9.1547   -6.5681 C   0  0  1  0  0  0  0  0  0  0  0  0
   44.3139  -10.1546   -7.6085 C   0  0  0  0  0  0  0  0  0  0  0  0
   44.1988  -11.5862   -7.4026 C   0  0  0  0  0  0  0  0  0  0  0  0
   44.5838  -12.6398   -8.3179 C   0  0  0  0  0  0  0  0  0  0  0  0
   44.3688  -14.0732   -8.0722 C   0  0  0  0  0  0  0  0  0  0  0  0
   44.9758  -14.7520   -9.2795 N   0  0  0  0  0  0  0  0  0  0  0  0
   42.7666   -8.3486   -6.9523 C   0  0  0  0  0  0  0  0  0  0  0  0
   41.6736   -8.7104   -6.4772 O   0  0  0  0  0  0  0  0  0  0  0  0
   42.8265   -7.2304   -7.8099 N   0  0  0  0  0  0  0  0  0  0  0  0
   41.6516   -6.3757   -8.0507 C   0  0  1  0  0  0  0  0  0  0  0  0
   42.0750   -4.9935   -7.6594 C   0  0  0  0  0  0  0  0  0  0  0  0
   42.2530   -4.7167   -6.2406 C   0  0  0  0  0  0  0  0  0  0  0  0
   43.3871   -4.2981   -5.5431 C   0  0  0  0  0  0  0  0  0  0  0  0
   43.0743   -4.2155   -4.2368 N   0  0  0  0  0  0  0  0  0  0  0  0
   41.7925   -4.5624   -4.0697 C   0  0  0  0  0  0  0  0  0  0  0  0
   41.3060   -4.8610   -5.2693 N   0  0  0  0  0  0  0  0  0  0  0  0
   41.2025   -6.4688   -9.4344 C   0  0  0  0  0  0  0  0  0  0  0  0
   41.8933   -6.9719  -10.3680 O   0  0  0  0  0  0  0  0  0  0  0  0
   39.9150   -5.9803   -9.7922 N   0  0  0  0  0  0  0  0  0  0  0  0
   39.3815   -6.1166  -11.1273 C   0  0  0  0  0  0  0  0  0  0  0  0
   37.9961   -5.6295  -11.2758 C   0  0  0  0  0  0  0  0  0  0  0  0
   37.4039   -5.1287  -10.2928 O   0  0  0  0  0  0  0  0  0  0  0  0
   37.3507   -5.7253  -12.4997 O   0  0  0  0  0  0  0  0  0  0  0  0
  2  1  1  1
  3  2  1  0
  4  3  1  0
  5  6  1  0
  5  4  1  0
  6  7  1  0
  8  2  1  0
  9  8  2  0
 10  8  1  0
 11 10  1  0
 11 12  1  6
 12 13  1  0
 13 14  2  0
 15 14  1  0
 16 15  1  0
 17 16  2  0
 17 13  1  0
 18 11  1  0
 19 18  2  0
 20 18  1  0
 21 20  1  0
 22 24  1  0
 22 21  1  0
 23 22  2  0
M  END
$$$$
