YPT.pdb
     RDKit          3D

 27 28  0  0  1  0  0  0  0  0999 V2000
    6.4496  -10.4926   26.6202 O   0  0  0  0  0  0  0  0  0  0  0  0
    6.6711  -11.8719   26.5265 C   0  0  0  0  0  0  0  0  0  0  0  0
    5.6279  -12.7435   26.7543 C   0  0  0  0  0  0  0  0  0  0  0  0
    5.8542  -14.1135   26.6598 C   0  0  0  0  0  0  0  0  0  0  0  0
    7.0895  -14.6217   26.3453 C   0  0  0  0  0  0  0  0  0  0  0  0
    7.3176  -16.0702   26.2399 C   0  0  0  0  0  0  0  0  0  0  0  0
    6.4920  -16.6888   25.1269 C   0  0  2  0  0  0  0  0  0  0  0  0
    5.7368  -17.7478   25.6181 N   0  0  0  0  0  0  0  0  0  0  0  0
    7.2859  -16.9146   23.9090 C   0  0  0  0  0  0  0  0  0  0  0  0
    7.4760  -18.1458   23.6131 O   0  0  0  0  0  0  0  0  0  0  0  0
    8.1130  -13.7299   26.1230 C   0  0  0  0  0  0  0  0  0  0  0  0
    7.9199  -12.3576   26.2097 C   0  0  0  0  0  0  0  0  0  0  0  0
    7.8436  -15.9477   23.0582 N   0  0  0  0  0  0  0  0  0  0  0  0
    7.8258  -14.5040   23.1294 C   0  0  0  0  0  0  0  0  0  0  0  0
    7.8102  -14.0726   21.6990 C   0  0  0  0  0  0  0  0  0  0  0  0
    7.9984  -15.3032   20.8544 C   0  0  0  0  0  0  0  0  0  0  0  0
    8.6064  -16.2599   21.8532 C   0  0  1  0  0  0  0  0  0  0  0  0
   10.0404  -15.9234   22.0074 C   0  0  0  0  0  0  0  0  0  0  0  0
   10.4192  -14.8441   22.5215 O   0  0  0  0  0  0  0  0  0  0  0  0
   11.4409  -17.9574   24.3846 C   0  0  0  0  0  0  0  0  0  0  0  0
   12.2535  -18.2189   23.1639 C   0  0  1  0  0  0  0  0  0  0  0  0
   11.8334  -19.2865   22.4083 O   0  0  0  0  0  0  0  0  0  0  0  0
   12.3017  -16.9823   22.2939 C   0  0  2  0  0  0  0  0  0  0  0  0
   11.0523  -16.8193   21.5745 N   0  0  0  0  0  0  0  0  0  0  0  0
   13.4220  -17.0924   21.3447 C   0  0  0  0  0  0  0  0  0  0  0  0
   13.1664  -17.3470   20.0151 O   0  0  0  0  0  0  0  0  0  0  0  0
   14.6018  -16.9575   21.7317 O   0  0  0  0  0  0  0  0  0  0  0  0
  1  2  1  0
  2  3  2  0
  3  4  1  0
  5  6  1  0
  5  4  2  0
  7  6  1  0
  7  9  1  0
  7  8  1  1
  9 13  1  0
 10  9  2  0
 11  5  1  0
 12 11  2  0
 12  2  1  0
 13 17  1  0
 13 14  1  0
 14 15  1  0
 16 15  1  0
 17 16  1  0
 18 19  2  0
 17 18  1  1
 21 20  1  1
 21 22  1  0
 23 21  1  0
 23 24  1  6
 24 18  1  0
 25 23  1  0
 26 25  1  0
 27 25  2  0
M  END
$$$$
