YPT.pdb
     RDKit          3D

 27 28  0  0  1  0  0  0  0  0999 V2000
    8.0365  -13.4948   16.3352 O   0  0  0  0  0  0  0  0  0  0  0  0
    7.9370  -13.7936   17.6994 C   0  0  0  0  0  0  0  0  0  0  0  0
    6.9626  -13.1818   18.4585 C   0  0  0  0  0  0  0  0  0  0  0  0
    6.8687  -13.4828   19.8141 C   0  0  0  0  0  0  0  0  0  0  0  0
    7.7206  -14.3737   20.4171 C   0  0  0  0  0  0  0  0  0  0  0  0
    7.6090  -14.6916   21.8482 C   0  0  0  0  0  0  0  0  0  0  0  0
    7.4786  -16.1852   22.0826 C   0  0  2  0  0  0  0  0  0  0  0  0
    6.1592  -16.5875   21.9075 N   0  0  0  0  0  0  0  0  0  0  0  0
    8.1744  -16.6163   23.3052 C   0  0  0  0  0  0  0  0  0  0  0  0
    7.4080  -17.0550   24.2323 O   0  0  0  0  0  0  0  0  0  0  0  0
    8.6838  -14.9698   19.6366 C   0  0  0  0  0  0  0  0  0  0  0  0
    8.8039  -14.6909   18.2817 C   0  0  0  0  0  0  0  0  0  0  0  0
    9.5550  -16.5976   23.5571 N   0  0  0  0  0  0  0  0  0  0  0  0
   10.6469  -16.0376   22.7931 C   0  0  0  0  0  0  0  0  0  0  0  0
   11.7877  -16.9643   23.0618 C   0  0  0  0  0  0  0  0  0  0  0  0
   11.3418  -17.9331   24.1228 C   0  0  0  0  0  0  0  0  0  0  0  0
   10.1797  -17.1882   24.7371 C   0  0  1  0  0  0  0  0  0  0  0  0
   10.7192  -16.1538   25.6496 C   0  0  0  0  0  0  0  0  0  0  0  0
   11.6338  -15.3701   25.3006 O   0  0  0  0  0  0  0  0  0  0  0  0
    9.5005  -13.0930   26.7166 C   0  0  0  0  0  0  0  0  0  0  0  0
    9.5885  -13.8827   27.9764 C   0  0  1  0  0  0  0  0  0  0  0  0
    8.4117  -14.4697   28.3734 O   0  0  0  0  0  0  0  0  0  0  0  0
   10.6576  -14.9458   27.8527 C   0  0  2  0  0  0  0  0  0  0  0  0
   10.2163  -16.0083   26.9686 N   0  0  0  0  0  0  0  0  0  0  0  0
   10.9653  -15.4911   29.1854 C   0  0  0  0  0  0  0  0  0  0  0  0
   10.6515  -16.8009   29.4752 O   0  0  0  0  0  0  0  0  0  0  0  0
   11.5078  -14.7790   30.0564 O   0  0  0  0  0  0  0  0  0  0  0  0
  1  2  1  0
  2  3  2  0
  3  4  1  0
  5  6  1  0
  5  4  2  0
  7  6  1  0
  7  9  1  0
  7  8  1  1
  9 13  1  0
 10  9  2  0
 11  5  1  0
 12 11  2  0
 12  2  1  0
 13 17  1  0
 13 14  1  0
 14 15  1  0
 16 15  1  0
 17 16  1  0
 18 19  2  0
 17 18  1  1
 21 20  1  6
 21 22  1  0
 23 21  1  0
 23 24  1  6
 24 18  1  0
 25 23  1  0
 26 25  1  0
 27 25  2  0
M  END
$$$$
