YPT.pdb
     RDKit          3D

 27 28  0  0  1  0  0  0  0  0999 V2000
    5.9705  -10.6921   26.5767 O   0  0  0  0  0  0  0  0  0  0  0  0
    6.3559  -12.0357   26.4961 C   0  0  0  0  0  0  0  0  0  0  0  0
    5.4128  -13.0242   26.6794 C   0  0  0  0  0  0  0  0  0  0  0  0
    5.8019  -14.3579   26.5981 C   0  0  0  0  0  0  0  0  0  0  0  0
    7.1008  -14.7171   26.3398 C   0  0  0  0  0  0  0  0  0  0  0  0
    7.5014  -16.1287   26.2478 C   0  0  0  0  0  0  0  0  0  0  0  0
    6.7923  -16.8403   25.1105 C   0  0  2  0  0  0  0  0  0  0  0  0
    6.1958  -18.0091   25.5701 N   0  0  0  0  0  0  0  0  0  0  0  0
    7.6277  -16.9216   23.9021 C   0  0  0  0  0  0  0  0  0  0  0  0
    8.0983  -18.0859   23.6525 O   0  0  0  0  0  0  0  0  0  0  0  0
    8.0217  -13.7110   26.1611 C   0  0  0  0  0  0  0  0  0  0  0  0
    7.6657  -12.3710   26.2360 C   0  0  0  0  0  0  0  0  0  0  0  0
    7.9559  -15.8838   23.0160 N   0  0  0  0  0  0  0  0  0  0  0  0
    7.6621  -14.4694   23.0678 C   0  0  0  0  0  0  0  0  0  0  0  0
    7.5102  -14.0798   21.6334 C   0  0  0  0  0  0  0  0  0  0  0  0
    7.9011  -15.2690   20.7990 C   0  0  0  0  0  0  0  0  0  0  0  0
    8.7193  -16.0691   21.7855 C   0  0  1  0  0  0  0  0  0  0  0  0
   10.0660  -15.4594   21.8765 C   0  0  0  0  0  0  0  0  0  0  0  0
   10.2382  -14.2825   22.2737 O   0  0  0  0  0  0  0  0  0  0  0  0
   11.0590  -18.0881   23.5328 C   0  0  0  0  0  0  0  0  0  0  0  0
   11.9250  -16.8937   23.7380 C   0  0  1  0  0  0  0  0  0  0  0  0
   13.0316  -17.1107   24.5224 O   0  0  0  0  0  0  0  0  0  0  0  0
   12.3635  -16.3313   22.4039 C   0  0  2  0  0  0  0  0  0  0  0  0
   11.2261  -16.1919   21.5138 N   0  0  0  0  0  0  0  0  0  0  0  0
   13.3710  -17.2210   21.8026 C   0  0  0  0  0  0  0  0  0  0  0  0
   13.0096  -18.0635   20.7742 O   0  0  0  0  0  0  0  0  0  0  0  0
   14.5500  -17.2203   22.2147 O   0  0  0  0  0  0  0  0  0  0  0  0
  1  2  1  0
  2  3  2  0
  3  4  1  0
  5  6  1  0
  5  4  2  0
  7  6  1  0
  7  9  1  0
  7  8  1  1
  9 13  1  0
 10  9  2  0
 11  5  1  0
 12 11  2  0
 12  2  1  0
 13 17  1  0
 13 14  1  0
 14 15  1  0
 16 15  1  0
 17 16  1  0
 18 19  2  0
 17 18  1  1
 21 20  1  6
 21 22  1  0
 23 21  1  0
 23 24  1  6
 24 18  1  0
 25 23  1  0
 26 25  1  0
 27 25  2  0
M  END
$$$$
