YPT.pdb
     RDKit          3D

 27 28  0  0  1  0  0  0  0  0999 V2000
    6.8868  -12.9583   16.7318 O   0  0  0  0  0  0  0  0  0  0  0  0
    7.0520  -13.3465   18.0668 C   0  0  0  0  0  0  0  0  0  0  0  0
    6.6243  -14.5939   18.4684 C   0  0  0  0  0  0  0  0  0  0  0  0
    6.7912  -14.9742   19.7967 C   0  0  0  0  0  0  0  0  0  0  0  0
    7.3710  -14.1405   20.7196 C   0  0  0  0  0  0  0  0  0  0  0  0
    7.5504  -14.5536   22.1191 C   0  0  0  0  0  0  0  0  0  0  0  0
    9.0023  -14.4590   22.5504 C   0  0  2  0  0  0  0  0  0  0  0  0
    9.8277  -15.0450   21.5972 N   0  0  0  0  0  0  0  0  0  0  0  0
    9.1883  -14.8486   23.9569 C   0  0  0  0  0  0  0  0  0  0  0  0
   10.1457  -15.6734   24.1630 O   0  0  0  0  0  0  0  0  0  0  0  0
    7.7887  -12.9014   20.2923 C   0  0  0  0  0  0  0  0  0  0  0  0
    7.6366  -12.4919   18.9744 C   0  0  0  0  0  0  0  0  0  0  0  0
    8.4456  -14.4230   25.0692 N   0  0  0  0  0  0  0  0  0  0  0  0
    7.0497  -14.0689   25.1933 C   0  0  0  0  0  0  0  0  0  0  0  0
    7.0398  -13.0027   26.2401 C   0  0  0  0  0  0  0  0  0  0  0  0
    8.4311  -12.9118   26.8048 C   0  0  0  0  0  0  0  0  0  0  0  0
    9.0019  -14.2534   26.4083 C   0  0  1  0  0  0  0  0  0  0  0  0
    8.4890  -15.2747   27.3503 C   0  0  0  0  0  0  0  0  0  0  0  0
    7.2806  -15.6087   27.3766 O   0  0  0  0  0  0  0  0  0  0  0  0
   11.8757  -16.8410   27.3443 C   0  0  0  0  0  0  0  0  0  0  0  0
   10.6405  -17.6445   27.1262 C   0  0  1  0  0  0  0  0  0  0  0  0
   10.8395  -19.0018   27.0560 O   0  0  0  0  0  0  0  0  0  0  0  0
    9.6257  -17.3459   28.2076 C   0  0  2  0  0  0  0  0  0  0  0  0
    9.3551  -15.9217   28.2697 N   0  0  0  0  0  0  0  0  0  0  0  0
   10.1351  -17.8215   29.5047 C   0  0  0  0  0  0  0  0  0  0  0  0
   10.2254  -19.1748   29.7469 O   0  0  0  0  0  0  0  0  0  0  0  0
   10.4864  -17.0114   30.3881 O   0  0  0  0  0  0  0  0  0  0  0  0
  1  2  1  0
  2  3  2  0
  3  4  1  0
  5  6  1  0
  5  4  2  0
  7  6  1  0
  7  9  1  0
  7  8  1  6
  9 13  1  0
 10  9  2  0
 11  5  1  0
 12 11  2  0
 12  2  1  0
 13 17  1  0
 13 14  1  0
 14 15  1  0
 16 15  1  0
 17 16  1  0
 18 19  2  0
 17 18  1  1
 21 20  1  1
 21 22  1  0
 23 21  1  0
 23 24  1  1
 24 18  1  0
 25 23  1  0
 26 25  1  0
 27 25  2  0
M  END
$$$$
