YPT.pdb
     RDKit          3D

 27 28  0  0  1  0  0  0  0  0999 V2000
    7.0257  -10.7617   26.8801 O   0  0  0  0  0  0  0  0  0  0  0  0
    7.0442  -12.1445   26.6615 C   0  0  0  0  0  0  0  0  0  0  0  0
    8.1833  -12.7368   26.1598 C   0  0  0  0  0  0  0  0  0  0  0  0
    8.1957  -14.1117   25.9446 C   0  0  0  0  0  0  0  0  0  0  0  0
    7.1033  -14.8958   26.2187 C   0  0  0  0  0  0  0  0  0  0  0  0
    7.1280  -16.3488   25.9956 C   0  0  0  0  0  0  0  0  0  0  0  0
    6.2975  -16.7454   24.7891 C   0  0  2  0  0  0  0  0  0  0  0  0
    5.4593  -17.8078   25.1087 N   0  0  0  0  0  0  0  0  0  0  0  0
    7.1113  -16.8524   23.5681 C   0  0  0  0  0  0  0  0  0  0  0  0
    7.3246  -18.0501   23.1688 O   0  0  0  0  0  0  0  0  0  0  0  0
    5.9797  -14.2793   26.7184 C   0  0  0  0  0  0  0  0  0  0  0  0
    5.9352  -12.9101   26.9442 C   0  0  0  0  0  0  0  0  0  0  0  0
    7.6653  -15.8068   22.8134 N   0  0  0  0  0  0  0  0  0  0  0  0
    7.6524  -14.3774   23.0280 C   0  0  0  0  0  0  0  0  0  0  0  0
    7.6272  -13.8057   21.6478 C   0  0  0  0  0  0  0  0  0  0  0  0
    7.8052  -14.9465   20.6835 C   0  0  0  0  0  0  0  0  0  0  0  0
    8.4180  -15.9993   21.5773 C   0  0  1  0  0  0  0  0  0  0  0  0
    9.8542  -15.6830   21.7529 C   0  0  0  0  0  0  0  0  0  0  0  0
   10.2717  -14.5027   21.8248 O   0  0  0  0  0  0  0  0  0  0  0  0
   11.0255  -16.5118   24.8736 C   0  0  0  0  0  0  0  0  0  0  0  0
   11.9032  -17.2874   23.9534 C   0  0  1  0  0  0  0  0  0  0  0  0
   11.5012  -18.5811   23.7258 O   0  0  0  0  0  0  0  0  0  0  0  0
   12.0371  -16.5679   22.6295 C   0  0  2  0  0  0  0  0  0  0  0  0
   10.8238  -16.7149   21.8475 N   0  0  0  0  0  0  0  0  0  0  0  0
   13.1866  -17.1128   21.8880 C   0  0  0  0  0  0  0  0  0  0  0  0
   12.9711  -17.8838   20.7668 O   0  0  0  0  0  0  0  0  0  0  0  0
   14.3553  -16.8836   22.2643 O   0  0  0  0  0  0  0  0  0  0  0  0
  1  2  1  0
  2  3  2  0
  3  4  1  0
  5  6  1  0
  5  4  2  0
  7  6  1  0
  7  9  1  0
  7  8  1  1
  9 13  1  0
 10  9  2  0
 11  5  1  0
 12 11  2  0
 12  2  1  0
 13 17  1  0
 13 14  1  0
 14 15  1  0
 16 15  1  0
 17 16  1  0
 18 19  2  0
 17 18  1  1
 21 20  1  1
 21 22  1  0
 23 21  1  0
 23 24  1  6
 24 18  1  0
 25 23  1  0
 26 25  1  0
 27 25  2  0
M  END
$$$$
