YPT.pdb
     RDKit          3D

 27 28  0  0  1  0  0  0  0  0999 V2000
   11.3304  -15.1881   29.5013 O   0  0  0  0  0  0  0  0  0  0  0  0
   10.2505  -15.0410   28.6225 C   0  0  0  0  0  0  0  0  0  0  0  0
    9.3180  -16.0509   28.5186 C   0  0  0  0  0  0  0  0  0  0  0  0
    8.2467  -15.8989   27.6433 C   0  0  0  0  0  0  0  0  0  0  0  0
    8.0923  -14.7694   26.8795 C   0  0  0  0  0  0  0  0  0  0  0  0
    6.9531  -14.6140   25.9633 C   0  0  0  0  0  0  0  0  0  0  0  0
    6.4249  -15.9564   25.4920 C   0  0  2  0  0  0  0  0  0  0  0  0
    6.4868  -16.8878   26.5225 N   0  0  0  0  0  0  0  0  0  0  0  0
    6.9760  -16.3391   24.1826 C   0  0  0  0  0  0  0  0  0  0  0  0
    6.8762  -17.5843   23.9018 O   0  0  0  0  0  0  0  0  0  0  0  0
    9.0371  -13.7772   27.0026 C   0  0  0  0  0  0  0  0  0  0  0  0
   10.1174  -13.8981   27.8664 C   0  0  0  0  0  0  0  0  0  0  0  0
    7.5850  -15.5048   23.2324 N   0  0  0  0  0  0  0  0  0  0  0  0
    7.8564  -14.0852   23.2577 C   0  0  0  0  0  0  0  0  0  0  0  0
    7.7240  -13.6672   21.8294 C   0  0  0  0  0  0  0  0  0  0  0  0
    7.5509  -14.9156   21.0080 C   0  0  0  0  0  0  0  0  0  0  0  0
    8.0967  -15.9672   21.9456 C   0  0  1  0  0  0  0  0  0  0  0  0
    9.5759  -15.9169   21.8917 C   0  0  0  0  0  0  0  0  0  0  0  0
   10.2390  -15.0958   22.5688 O   0  0  0  0  0  0  0  0  0  0  0  0
   12.3627  -19.8599   21.6900 C   0  0  0  0  0  0  0  0  0  0  0  0
   11.1247  -19.0659   21.4543 C   0  0  1  0  0  0  0  0  0  0  0  0
   10.0742  -19.3744   22.2840 O   0  0  0  0  0  0  0  0  0  0  0  0
   11.4247  -17.5870   21.5605 C   0  0  2  0  0  0  0  0  0  0  0  0
   10.3079  -16.8061   21.0624 N   0  0  0  0  0  0  0  0  0  0  0  0
   12.6422  -17.2761   20.7930 C   0  0  0  0  0  0  0  0  0  0  0  0
   13.8404  -17.1110   21.4527 O   0  0  0  0  0  0  0  0  0  0  0  0
   12.6008  -17.1602   19.5501 O   0  0  0  0  0  0  0  0  0  0  0  0
  1  2  1  0
  2  3  2  0
  3  4  1  0
  5  6  1  0
  5  4  2  0
  7  6  1  0
  7  9  1  0
  7  8  1  1
  9 13  1  0
 10  9  2  0
 11  5  1  0
 12 11  2  0
 12  2  1  0
 13 17  1  0
 13 14  1  0
 14 15  1  0
 16 15  1  0
 17 16  1  0
 18 19  2  0
 17 18  1  1
 21 20  1  1
 21 22  1  0
 23 21  1  0
 23 24  1  6
 24 18  1  0
 25 23  1  0
 26 25  1  0
 27 25  2  0
M  END
$$$$
