YPT.pdb
     RDKit          3D

 27 28  0  0  1  0  0  0  0  0999 V2000
    6.5644  -10.7246   27.2215 O   0  0  0  0  0  0  0  0  0  0  0  0
    6.7669  -12.0739   26.9074 C   0  0  0  0  0  0  0  0  0  0  0  0
    5.6974  -12.9432   26.9287 C   0  0  0  0  0  0  0  0  0  0  0  0
    5.9049  -14.2833   26.6155 C   0  0  0  0  0  0  0  0  0  0  0  0
    7.1469  -14.7642   26.2852 C   0  0  0  0  0  0  0  0  0  0  0  0
    7.3554  -16.1799   25.9480 C   0  0  0  0  0  0  0  0  0  0  0  0
    6.4172  -16.6386   24.8470 C   0  0  2  0  0  0  0  0  0  0  0  0
    5.5980  -17.6635   25.3072 N   0  0  0  0  0  0  0  0  0  0  0  0
    7.1189  -16.8378   23.5693 C   0  0  0  0  0  0  0  0  0  0  0  0
    7.0846  -18.0361   23.1195 O   0  0  0  0  0  0  0  0  0  0  0  0
    8.1967  -13.8753   26.2717 C   0  0  0  0  0  0  0  0  0  0  0  0
    8.0230  -12.5326   26.5793 C   0  0  0  0  0  0  0  0  0  0  0  0
    7.8055  -15.8776   22.8101 N   0  0  0  0  0  0  0  0  0  0  0  0
    8.0690  -14.4802   23.0698 C   0  0  0  0  0  0  0  0  0  0  0  0
    8.0600  -13.8533   21.7136 C   0  0  0  0  0  0  0  0  0  0  0  0
    7.9630  -14.9641   20.7037 C   0  0  0  0  0  0  0  0  0  0  0  0
    8.4286  -16.1485   21.5179 C   0  0  1  0  0  0  0  0  0  0  0  0
    9.9068  -16.1052   21.6002 C   0  0  0  0  0  0  0  0  0  0  0  0
   10.5103  -15.2464   22.2863 O   0  0  0  0  0  0  0  0  0  0  0  0
   11.4747  -19.1862   22.9631 C   0  0  0  0  0  0  0  0  0  0  0  0
   12.0970  -18.8996   21.6405 C   0  0  1  0  0  0  0  0  0  0  0  0
   11.5565  -19.5937   20.5855 O   0  0  0  0  0  0  0  0  0  0  0  0
   12.0351  -17.4174   21.3445 C   0  0  2  0  0  0  0  0  0  0  0  0
   10.7059  -17.0445   20.8979 N   0  0  0  0  0  0  0  0  0  0  0  0
   13.0293  -17.0803   20.3120 C   0  0  0  0  0  0  0  0  0  0  0  0
   14.3656  -17.0287   20.6433 O   0  0  0  0  0  0  0  0  0  0  0  0
   12.6745  -16.8407   19.1387 O   0  0  0  0  0  0  0  0  0  0  0  0
  1  2  1  0
  2  3  2  0
  3  4  1  0
  5  6  1  0
  5  4  2  0
  7  6  1  0
  7  9  1  0
  7  8  1  1
  9 13  1  0
 10  9  2  0
 11  5  1  0
 12 11  2  0
 12  2  1  0
 13 17  1  0
 13 14  1  0
 14 15  1  0
 16 15  1  0
 17 16  1  0
 18 19  2  0
 17 18  1  1
 21 20  1  1
 21 22  1  0
 23 21  1  0
 23 24  1  6
 24 18  1  0
 25 23  1  0
 26 25  1  0
 27 25  2  0
M  END
$$$$
