ALA.pdb
     RDKit          3D

 19 18  0  0  1  0  0  0  0  0999 V2000
   18.6318  -10.9230  -19.7186 C   0  0  0  0  0  0  0  0  0  0  0  0
   19.6395  -11.3719  -18.7068 C   0  0  2  0  0  0  0  0  0  0  0  0
   19.1727  -12.5791  -18.0549 N   0  0  0  0  0  0  0  0  0  0  0  0
   19.8621  -10.3517  -17.6329 C   0  0  0  0  0  0  0  0  0  0  0  0
   18.9649  -10.0142  -16.8321 O   0  0  0  0  0  0  0  0  0  0  0  0
   21.8611   -9.8073  -13.7745 C   0  0  0  0  0  0  0  0  0  0  0  0
   22.7657  -10.0329  -14.9499 C   0  0  2  0  0  0  0  0  0  0  0  0
   24.1494  -10.3106  -14.4365 C   0  0  0  0  0  0  0  0  0  0  0  0
   22.7854   -8.8791  -15.9207 C   0  0  0  0  0  0  0  0  0  0  0  0
   21.4119   -8.6928  -16.5582 C   0  0  2  0  0  0  0  0  0  0  0  0
   21.1336   -9.7430  -17.5145 N   0  0  0  0  0  0  0  0  0  0  0  0
   21.2890   -7.3432  -17.1668 C   0  0  0  0  0  0  0  0  0  0  0  0
   21.9838   -7.0341  -18.1693 O   0  0  0  0  0  0  0  0  0  0  0  0
   18.8671   -4.5631  -17.1960 C   0  0  0  0  0  0  0  0  0  0  0  0
   20.3001   -5.0466  -17.2417 C   0  0  2  0  0  0  0  0  0  0  0  0
   20.4020   -6.3553  -16.6605 N   0  0  0  0  0  0  0  0  0  0  0  0
   21.1522   -4.0453  -16.5664 C   0  0  0  0  0  0  0  0  0  0  0  0
   21.7648   -4.3032  -15.5078 O   0  0  0  0  0  0  0  0  0  0  0  0
   21.2817   -2.7853  -17.1130 O   0  0  0  0  0  0  0  0  0  0  0  0
  2  3  1  0
  2  1  1  6
  4  5  2  0
  4  2  1  0
  7  6  1  1
  7  8  1  0
  7  9  1  0
 10  9  1  6
 10 11  1  0
 10 12  1  0
 11  4  1  0
 12 13  2  0
 15 14  1  1
 16 12  1  0
 16 15  1  0
 17 19  1  0
 17 15  1  0
 18 17  2  0
M  END
$$$$
