ALA.pdb
     RDKit          3D

 19 18  0  0  1  0  0  0  0  0999 V2000
   25.1427  -20.2020  -17.2729 C   0  0  0  0  0  0  0  0  0  0  0  0
   25.8315  -20.8251  -16.0991 C   0  0  2  0  0  0  0  0  0  0  0  0
   26.6144  -21.9624  -16.5393 N   0  0  0  0  0  0  0  0  0  0  0  0
   24.8642  -21.3297  -15.0727 C   0  0  0  0  0  0  0  0  0  0  0  0
   24.3183  -22.4498  -15.1591 O   0  0  0  0  0  0  0  0  0  0  0  0
   25.4452  -20.6877   -9.4691 C   0  0  0  0  0  0  0  0  0  0  0  0
   24.9822  -21.2573  -10.7776 C   0  0  2  0  0  0  0  0  0  0  0  0
   26.1913  -21.6318  -11.5857 C   0  0  0  0  0  0  0  0  0  0  0  0
   24.0958  -20.3202  -11.5587 C   0  0  0  0  0  0  0  0  0  0  0  0
   23.6875  -20.9519  -12.8861 C   0  0  2  0  0  0  0  0  0  0  0  0
   24.5520  -20.5128  -13.9607 N   0  0  0  0  0  0  0  0  0  0  0  0
   22.2566  -20.6841  -13.1823 C   0  0  0  0  0  0  0  0  0  0  0  0
   21.3664  -21.0066  -12.3535 O   0  0  0  0  0  0  0  0  0  0  0  0
   20.3674  -18.6043  -15.6463 C   0  0  0  0  0  0  0  0  0  0  0  0
   20.4569  -19.7190  -14.6269 C   0  0  2  0  0  0  0  0  0  0  0  0
   21.8294  -20.0651  -14.3878 N   0  0  0  0  0  0  0  0  0  0  0  0
   19.6480  -20.8583  -15.1092 C   0  0  0  0  0  0  0  0  0  0  0  0
   20.1629  -21.9594  -15.4006 O   0  0  0  0  0  0  0  0  0  0  0  0
   18.2830  -20.7120  -15.2452 O   0  0  0  0  0  0  0  0  0  0  0  0
  2  3  1  0
  2  1  1  6
  4  5  2  0
  4  2  1  0
  7  6  1  1
  7  8  1  0
  7  9  1  0
 10  9  1  1
 10 11  1  0
 10 12  1  0
 11  4  1  0
 12 13  2  0
 15 14  1  6
 16 12  1  0
 16 15  1  0
 17 19  1  0
 17 15  1  0
 18 17  2  0
M  END
$$$$
