ALA.pdb
     RDKit          3D

 19 18  0  0  1  0  0  0  0  0999 V2000
   17.8466  -10.9557  -12.9269 C   0  0  0  0  0  0  0  0  0  0  0  0
   16.9215  -10.9596  -11.7502 C   0  0  2  0  0  0  0  0  0  0  0  0
   15.9543  -12.0294  -11.8926 N   0  0  0  0  0  0  0  0  0  0  0  0
   16.1482   -9.6826  -11.6290 C   0  0  0  0  0  0  0  0  0  0  0  0
   15.1457   -9.4363  -12.3324 O   0  0  0  0  0  0  0  0  0  0  0  0
   13.4366   -6.9338   -8.9862 C   0  0  0  0  0  0  0  0  0  0  0  0
   14.7313   -7.4198   -8.4044 C   0  0  2  0  0  0  0  0  0  0  0  0
   14.7837   -7.0133   -6.9597 C   0  0  0  0  0  0  0  0  0  0  0  0
   15.9462   -6.9120   -9.1393 C   0  0  0  0  0  0  0  0  0  0  0  0
   15.9453   -7.4085  -10.5819 C   0  0  2  0  0  0  0  0  0  0  0  0
   16.5622   -8.7138  -10.6849 N   0  0  0  0  0  0  0  0  0  0  0  0
   16.5898   -6.4190  -11.4832 C   0  0  0  0  0  0  0  0  0  0  0  0
   17.8201   -6.1757  -11.3812 O   0  0  0  0  0  0  0  0  0  0  0  0
   15.7197   -4.5636  -14.6069 C   0  0  0  0  0  0  0  0  0  0  0  0
   16.4813   -4.7113  -13.3078 C   0  0  2  0  0  0  0  0  0  0  0  0
   15.8678   -5.7132  -12.4829 N   0  0  0  0  0  0  0  0  0  0  0  0
   16.5514   -3.3870  -12.6549 C   0  0  0  0  0  0  0  0  0  0  0  0
   15.8008   -3.0768  -11.7048 O   0  0  0  0  0  0  0  0  0  0  0  0
   17.4695   -2.4586  -13.1004 O   0  0  0  0  0  0  0  0  0  0  0  0
  2  3  1  0
  2  1  1  6
  4  5  2  0
  4  2  1  0
  7  6  1  6
  7  8  1  0
  7  9  1  0
 10  9  1  1
 10 11  1  0
 10 12  1  0
 11  4  1  0
 12 13  2  0
 15 14  1  6
 16 12  1  0
 16 15  1  0
 17 19  1  0
 17 15  1  0
 18 17  2  0
M  END
$$$$
