ALA.pdb
     RDKit          3D

 19 18  0  0  1  0  0  0  0  0999 V2000
   25.9661  -20.5343  -16.7621 C   0  0  0  0  0  0  0  0  0  0  0  0
   26.4115  -21.4540  -15.6683 C   0  0  2  0  0  0  0  0  0  0  0  0
   26.7482  -22.7487  -16.2255 N   0  0  0  0  0  0  0  0  0  0  0  0
   25.3420  -21.6819  -14.6447 C   0  0  0  0  0  0  0  0  0  0  0  0
   24.5976  -22.6847  -14.6643 O   0  0  0  0  0  0  0  0  0  0  0  0
   25.7735  -20.5235   -9.0887 C   0  0  0  0  0  0  0  0  0  0  0  0
   25.2320  -21.1646  -10.3323 C   0  0  2  0  0  0  0  0  0  0  0  0
   26.3476  -21.9124  -11.0042 C   0  0  0  0  0  0  0  0  0  0  0  0
   24.6054  -20.1816  -11.2888 C   0  0  0  0  0  0  0  0  0  0  0  0
   24.1703  -20.8854  -12.5706 C   0  0  2  0  0  0  0  0  0  0  0  0
   25.1618  -20.7302  -13.6136 N   0  0  0  0  0  0  0  0  0  0  0  0
   22.8307  -20.4132  -13.0057 C   0  0  0  0  0  0  0  0  0  0  0  0
   21.8460  -20.4938  -12.2264 O   0  0  0  0  0  0  0  0  0  0  0  0
   21.3912  -18.6995  -16.0410 C   0  0  0  0  0  0  0  0  0  0  0  0
   21.2963  -19.4251  -14.7165 C   0  0  2  0  0  0  0  0  0  0  0  0
   22.5974  -19.8596  -14.2934 N   0  0  0  0  0  0  0  0  0  0  0  0
   20.3333  -20.5370  -14.8616 C   0  0  0  0  0  0  0  0  0  0  0  0
   19.0985  -20.3445  -14.8852 O   0  0  0  0  0  0  0  0  0  0  0  0
   20.8015  -21.8297  -14.9750 O   0  0  0  0  0  0  0  0  0  0  0  0
  2  3  1  0
  2  1  1  6
  4  5  2  0
  4  2  1  0
  7  6  1  1
  7  8  1  0
  7  9  1  0
 10  9  1  1
 10 11  1  0
 10 12  1  0
 11  4  1  0
 12 13  2  0
 15 14  1  6
 16 12  1  0
 16 15  1  0
 17 19  1  0
 17 15  1  0
 18 17  2  0
M  END
$$$$
