ALA.pdb
     RDKit          3D

 19 18  0  0  1  0  0  0  0  0999 V2000
   16.5841  -10.9585  -17.6910 C   0  0  0  0  0  0  0  0  0  0  0  0
   17.7166  -11.4391  -16.8384 C   0  0  2  0  0  0  0  0  0  0  0  0
   17.2793  -12.5613  -16.0324 N   0  0  0  0  0  0  0  0  0  0  0  0
   18.2057  -10.3848  -15.8934 C   0  0  0  0  0  0  0  0  0  0  0  0
   17.5226   -9.9792  -14.9295 O   0  0  0  0  0  0  0  0  0  0  0  0
   21.3646   -9.3713  -12.6524 C   0  0  0  0  0  0  0  0  0  0  0  0
   21.8259   -9.8167  -14.0088 C   0  0  2  0  0  0  0  0  0  0  0  0
   23.3054  -10.0668  -13.9476 C   0  0  0  0  0  0  0  0  0  0  0  0
   21.5025   -8.8325  -15.1045 C   0  0  0  0  0  0  0  0  0  0  0  0
   19.9930   -8.7237  -15.2976 C   0  0  2  0  0  0  0  0  0  0  0  0
   19.4882   -9.8224  -16.0933 N   0  0  0  0  0  0  0  0  0  0  0  0
   19.6267   -7.4061  -15.8778 C   0  0  0  0  0  0  0  0  0  0  0  0
   20.0152   -7.0917  -17.0326 O   0  0  0  0  0  0  0  0  0  0  0  0
   17.1202   -4.7513  -15.1891 C   0  0  0  0  0  0  0  0  0  0  0  0
   18.4470   -5.2035  -15.7589 C   0  0  2  0  0  0  0  0  0  0  0  0
   18.8378   -6.4555  -15.1756 N   0  0  0  0  0  0  0  0  0  0  0  0
   19.4385   -4.1289  -15.5418 C   0  0  0  0  0  0  0  0  0  0  0  0
   19.3043   -2.9928  -16.0452 O   0  0  0  0  0  0  0  0  0  0  0  0
   20.5488   -4.3778  -14.7617 O   0  0  0  0  0  0  0  0  0  0  0  0
  2  3  1  0
  2  1  1  1
  4  5  2  0
  4  2  1  0
  7  6  1  1
  7  8  1  0
  7  9  1  0
 10  9  1  6
 10 11  1  0
 10 12  1  0
 11  4  1  0
 12 13  2  0
 15 14  1  1
 16 12  1  0
 16 15  1  0
 17 19  1  0
 17 15  1  0
 18 17  2  0
M  END
$$$$
