ALA.pdb
     RDKit          3D

 19 18  0  0  1  0  0  0  0  0999 V2000
   18.1926   -9.3498  -18.9778 C   0  0  0  0  0  0  0  0  0  0  0  0
   18.8091  -10.4158  -18.1270 C   0  0  2  0  0  0  0  0  0  0  0  0
   17.7674  -11.2235  -17.5247 N   0  0  0  0  0  0  0  0  0  0  0  0
   19.6271   -9.8493  -17.0073 C   0  0  0  0  0  0  0  0  0  0  0  0
   19.1200   -9.4762  -15.9285 O   0  0  0  0  0  0  0  0  0  0  0  0
   22.9936  -11.0809  -14.1979 C   0  0  0  0  0  0  0  0  0  0  0  0
   23.3334  -11.0340  -15.6585 C   0  0  2  0  0  0  0  0  0  0  0  0
   24.6925  -11.6438  -15.8485 C   0  0  0  0  0  0  0  0  0  0  0  0
   23.2942   -9.6425  -16.2382 C   0  0  0  0  0  0  0  0  0  0  0  0
   21.8756   -9.0831  -16.1912 C   0  0  2  0  0  0  0  0  0  0  0  0
   21.0272   -9.7289  -17.1700 N   0  0  0  0  0  0  0  0  0  0  0  0
   21.8827   -7.6064  -16.3532 C   0  0  0  0  0  0  0  0  0  0  0  0
   21.8712   -7.0947  -17.5027 O   0  0  0  0  0  0  0  0  0  0  0  0
   20.6646   -4.8229  -16.1030 C   0  0  0  0  0  0  0  0  0  0  0  0
   21.9247   -5.2908  -15.4080 C   0  0  2  0  0  0  0  0  0  0  0  0
   21.9025   -6.7169  -15.2454 N   0  0  0  0  0  0  0  0  0  0  0  0
   22.0483   -4.5638  -14.1269 C   0  0  0  0  0  0  0  0  0  0  0  0
   21.9508   -5.1442  -13.0243 O   0  0  0  0  0  0  0  0  0  0  0  0
   22.2783   -3.2036  -14.1381 O   0  0  0  0  0  0  0  0  0  0  0  0
  2  3  1  0
  2  1  1  1
  4  5  2  0
  4  2  1  0
  7  6  1  1
  7  8  1  0
  7  9  1  0
 10  9  1  6
 10 11  1  0
 10 12  1  0
 11  4  1  0
 12 13  2  0
 15 14  1  1
 16 12  1  0
 16 15  1  0
 17 19  1  0
 17 15  1  0
 18 17  2  0
M  END
$$$$
