FGH.pdb
     RDKit          3D

 26 27  0  0  1  0  0  0  0  0999 V2000
    6.9130  -14.5297   23.5552 N   0  0  0  0  0  0  0  0  0  0  0  0
    7.9628  -15.1354   24.3330 C   0  0  1  0  0  0  0  0  0  0  0  0
    7.5403  -15.2495   25.7807 C   0  0  0  0  0  0  0  0  0  0  0  0
    7.1311  -13.9251   26.3015 C   0  0  0  0  0  0  0  0  0  0  0  0
    5.8457  -13.7594   26.7867 C   0  0  0  0  0  0  0  0  0  0  0  0
    5.4984  -12.5098   27.2649 C   0  0  0  0  0  0  0  0  0  0  0  0
    6.3816  -11.4529   27.2690 C   0  0  0  0  0  0  0  0  0  0  0  0
    7.6503  -11.6680   26.7753 C   0  0  0  0  0  0  0  0  0  0  0  0
    8.0576  -12.8912   26.2842 C   0  0  0  0  0  0  0  0  0  0  0  0
    8.3734  -16.4450   23.7812 C   0  0  0  0  0  0  0  0  0  0  0  0
    9.2300  -17.1151   24.3973 O   0  0  0  0  0  0  0  0  0  0  0  0
    7.8369  -16.9804   22.5766 N   0  0  0  0  0  0  0  0  0  0  0  0
    8.5204  -17.9608   21.7870 C   0  0  0  0  0  0  0  0  0  0  0  0
    9.6041  -17.4543   20.9342 C   0  0  0  0  0  0  0  0  0  0  0  0
    9.9994  -18.2321   19.9849 O   0  0  0  0  0  0  0  0  0  0  0  0
   10.2298  -16.1997   21.0799 N   0  0  0  0  0  0  0  0  0  0  0  0
   11.2306  -15.8168   20.0900 C   0  0  1  0  0  0  0  0  0  0  0  0
   11.0768  -14.3851   19.6848 C   0  0  0  0  0  0  0  0  0  0  0  0
    9.7028  -14.1304   19.2366 C   0  0  0  0  0  0  0  0  0  0  0  0
    8.7450  -15.0839   18.8711 C   0  0  0  0  0  0  0  0  0  0  0  0
    7.6129  -14.4727   18.5205 N   0  0  0  0  0  0  0  0  0  0  0  0
    7.8023  -13.1590   18.6456 C   0  0  0  0  0  0  0  0  0  0  0  0
    9.0791  -12.9550   19.0828 N   0  0  0  0  0  0  0  0  0  0  0  0
   12.5450  -16.0184   20.7185 C   0  0  0  0  0  0  0  0  0  0  0  0
   12.6483  -16.5119   21.9911 O   0  0  0  0  0  0  0  0  0  0  0  0
   13.6006  -15.7394   20.1006 O   0  0  0  0  0  0  0  0  0  0  0  0
  2 10  1  0
  2  1  1  6
  3  2  1  0
  4  3  1  0
  5  4  2  0
  6  5  1  0
  7  8  1  0
  7  6  2  0
  8  9  2  0
  9  4  1  0
 10 12  1  0
 11 10  2  0
 12 13  1  0
 14 15  2  0
 14 13  1  0
 16 14  1  0
 17 16  1  0
 17 24  1  0
 17 18  1  1
 19 18  1  0
 20 19  2  0
 21 20  1  0
 22 21  1  0
 22 23  2  0
 23 19  1  0
 24 25  1  0
 26 24  2  0
M  END
$$$$
