FGH.pdb
     RDKit          3D

 26 27  0  0  1  0  0  0  0  0999 V2000
    9.3640  -16.8593   21.3755 N   0  0  0  0  0  0  0  0  0  0  0  0
    9.7149  -16.6514   19.9944 C   0  0  1  0  0  0  0  0  0  0  0  0
   10.1039  -15.2078   19.7664 C   0  0  0  0  0  0  0  0  0  0  0  0
    8.9878  -14.3103   20.1423 C   0  0  0  0  0  0  0  0  0  0  0  0
    8.8057  -13.9826   21.4745 C   0  0  0  0  0  0  0  0  0  0  0  0
    7.7540  -13.1425   21.7888 C   0  0  0  0  0  0  0  0  0  0  0  0
    6.9048  -12.6373   20.8291 C   0  0  0  0  0  0  0  0  0  0  0  0
    7.1275  -12.9928   19.5162 C   0  0  0  0  0  0  0  0  0  0  0  0
    8.1593  -13.8269   19.1384 C   0  0  0  0  0  0  0  0  0  0  0  0
   10.7784  -17.5784   19.5494 C   0  0  0  0  0  0  0  0  0  0  0  0
   10.4498  -18.6891   19.0796 O   0  0  0  0  0  0  0  0  0  0  0  0
   12.1640  -17.2638   19.6312 N   0  0  0  0  0  0  0  0  0  0  0  0
   13.0751  -17.9718   20.4800 C   0  0  0  0  0  0  0  0  0  0  0  0
   13.6891  -17.1850   21.5581 C   0  0  0  0  0  0  0  0  0  0  0  0
   13.2798  -15.9692   21.6868 O   0  0  0  0  0  0  0  0  0  0  0  0
   14.6766  -17.6592   22.4450 N   0  0  0  0  0  0  0  0  0  0  0  0
   15.0584  -16.8032   23.5627 C   0  0  1  0  0  0  0  0  0  0  0  0
   14.8606  -17.4970   24.8732 C   0  0  0  0  0  0  0  0  0  0  0  0
   13.4284  -17.6393   25.1598 C   0  0  0  0  0  0  0  0  0  0  0  0
   12.3735  -17.5628   24.2423 C   0  0  0  0  0  0  0  0  0  0  0  0
   11.2134  -17.7425   24.8748 N   0  0  0  0  0  0  0  0  0  0  0  0
   11.4782  -17.9325   26.1675 C   0  0  0  0  0  0  0  0  0  0  0  0
   12.8311  -17.8687   26.3366 N   0  0  0  0  0  0  0  0  0  0  0  0
   16.4814  -16.4797   23.3801 C   0  0  0  0  0  0  0  0  0  0  0  0
   17.1118  -15.5874   24.2049 O   0  0  0  0  0  0  0  0  0  0  0  0
   17.1477  -17.0143   22.4613 O   0  0  0  0  0  0  0  0  0  0  0  0
  2 10  1  0
  2  1  1  1
  3  2  1  0
  4  3  1  0
  5  4  2  0
  6  5  1  0
  7  8  1  0
  7  6  2  0
  8  9  2  0
  9  4  1  0
 10 12  1  0
 11 10  2  0
 12 13  1  0
 14 15  2  0
 14 13  1  0
 16 14  1  0
 17 16  1  0
 17 24  1  0
 17 18  1  1
 19 18  1  0
 20 19  2  0
 21 20  1  0
 22 21  1  0
 22 23  2  0
 23 19  1  0
 24 25  1  0
 26 24  2  0
M  END
$$$$
