FGH.pdb
     RDKit          3D

 26 27  0  0  1  0  0  0  0  0999 V2000
    7.2135  -16.4578   26.6004 N   0  0  0  0  0  0  0  0  0  0  0  0
    7.1561  -16.0770   25.2127 C   0  0  1  0  0  0  0  0  0  0  0  0
    7.8887  -14.7713   24.9991 C   0  0  0  0  0  0  0  0  0  0  0  0
    7.2941  -13.7062   25.8385 C   0  0  0  0  0  0  0  0  0  0  0  0
    6.0093  -13.2705   25.5647 C   0  0  0  0  0  0  0  0  0  0  0  0
    5.4862  -12.2751   26.3685 C   0  0  0  0  0  0  0  0  0  0  0  0
    6.1980  -11.7214   27.4098 C   0  0  0  0  0  0  0  0  0  0  0  0
    7.4735  -12.1890   27.6425 C   0  0  0  0  0  0  0  0  0  0  0  0
    8.0515  -13.1799   26.8762 C   0  0  0  0  0  0  0  0  0  0  0  0
    7.6729  -17.1423   24.3261 C   0  0  0  0  0  0  0  0  0  0  0  0
    8.6371  -17.8350   24.7173 O   0  0  0  0  0  0  0  0  0  0  0  0
    7.1217  -17.4172   23.0430 N   0  0  0  0  0  0  0  0  0  0  0  0
    7.6585  -18.4096   22.1605 C   0  0  0  0  0  0  0  0  0  0  0  0
    8.8272  -17.9994   21.3704 C   0  0  0  0  0  0  0  0  0  0  0  0
    9.2898  -18.8668   20.5362 O   0  0  0  0  0  0  0  0  0  0  0  0
    9.4655  -16.7460   21.4600 N   0  0  0  0  0  0  0  0  0  0  0  0
   10.7547  -16.5873   20.7962 C   0  0  1  0  0  0  0  0  0  0  0  0
   10.6478  -15.6887   19.6050 C   0  0  0  0  0  0  0  0  0  0  0  0
    9.5973  -14.6866   19.8193 C   0  0  0  0  0  0  0  0  0  0  0  0
    8.7406  -14.5861   20.9221 C   0  0  0  0  0  0  0  0  0  0  0  0
    7.9191  -13.5482   20.7604 N   0  0  0  0  0  0  0  0  0  0  0  0
    8.2123  -12.9732   19.5940 C   0  0  0  0  0  0  0  0  0  0  0  0
    9.2369  -13.6714   19.0233 N   0  0  0  0  0  0  0  0  0  0  0  0
   11.6692  -15.9967   21.7852 C   0  0  0  0  0  0  0  0  0  0  0  0
   11.2535  -15.7429   23.0645 O   0  0  0  0  0  0  0  0  0  0  0  0
   12.8508  -15.7109   21.4753 O   0  0  0  0  0  0  0  0  0  0  0  0
  2 10  1  0
  2  1  1  1
  3  2  1  0
  4  3  1  0
  5  4  2  0
  6  5  1  0
  7  8  1  0
  7  6  2  0
  8  9  2  0
  9  4  1  0
 10 12  1  0
 11 10  2  0
 12 13  1  0
 14 15  2  0
 14 13  1  0
 16 14  1  0
 17 16  1  0
 17 24  1  0
 17 18  1  6
 19 18  1  0
 20 19  2  0
 21 20  1  0
 22 21  1  0
 22 23  2  0
 23 19  1  0
 24 25  1  0
 26 24  2  0
M  END
$$$$
