FGH.pdb
     RDKit          3D

 26 27  0  0  1  0  0  0  0  0999 V2000
    7.2626  -16.2939   26.1771 N   0  0  0  0  0  0  0  0  0  0  0  0
    6.6904  -15.6139   25.0439 C   0  0  1  0  0  0  0  0  0  0  0  0
    7.3194  -14.2481   24.8826 C   0  0  0  0  0  0  0  0  0  0  0  0
    7.0147  -13.4010   26.0582 C   0  0  0  0  0  0  0  0  0  0  0  0
    5.7365  -12.8926   26.2096 C   0  0  0  0  0  0  0  0  0  0  0  0
    5.4879  -12.1060   27.3187 C   0  0  0  0  0  0  0  0  0  0  0  0
    6.4602  -11.8242   28.2528 C   0  0  0  0  0  0  0  0  0  0  0  0
    7.7177  -12.3537   28.0576 C   0  0  0  0  0  0  0  0  0  0  0  0
    8.0287  -13.1457   26.9717 C   0  0  0  0  0  0  0  0  0  0  0  0
    6.8028  -16.4146   23.8052 C   0  0  0  0  0  0  0  0  0  0  0  0
    6.3459  -15.9436   22.7413 O   0  0  0  0  0  0  0  0  0  0  0  0
    7.4093  -17.7016   23.7673 N   0  0  0  0  0  0  0  0  0  0  0  0
    7.6783  -18.4008   22.5464 C   0  0  0  0  0  0  0  0  0  0  0  0
    8.7297  -17.8252   21.6969 C   0  0  0  0  0  0  0  0  0  0  0  0
    8.9447  -18.4141   20.5703 O   0  0  0  0  0  0  0  0  0  0  0  0
    9.5052  -16.6942   22.0231 N   0  0  0  0  0  0  0  0  0  0  0  0
   10.5542  -16.2941   21.0917 C   0  0  1  0  0  0  0  0  0  0  0  0
   10.5231  -14.8205   20.8357 C   0  0  0  0  0  0  0  0  0  0  0  0
    9.3719  -14.4771   19.9930 C   0  0  0  0  0  0  0  0  0  0  0  0
    8.3743  -15.3457   19.5340 C   0  0  0  0  0  0  0  0  0  0  0  0
    7.4948  -14.6696   18.7940 N   0  0  0  0  0  0  0  0  0  0  0  0
    7.8861  -13.3957   18.7569 C   0  0  0  0  0  0  0  0  0  0  0  0
    9.0319  -13.2831   19.4899 N   0  0  0  0  0  0  0  0  0  0  0  0
   11.8346  -16.6649   21.7131 C   0  0  0  0  0  0  0  0  0  0  0  0
   11.8763  -17.2071   22.9693 O   0  0  0  0  0  0  0  0  0  0  0  0
   12.9174  -16.4894   21.1042 O   0  0  0  0  0  0  0  0  0  0  0  0
  2 10  1  0
  2  1  1  1
  3  2  1  0
  4  3  1  0
  5  4  2  0
  6  5  1  0
  7  8  1  0
  7  6  2  0
  8  9  2  0
  9  4  1  0
 10 12  1  0
 11 10  2  0
 12 13  1  0
 14 15  2  0
 14 13  1  0
 16 14  1  0
 17 16  1  0
 17 24  1  0
 17 18  1  1
 19 18  1  0
 20 19  2  0
 21 20  1  0
 22 21  1  0
 22 23  2  0
 23 19  1  0
 24 25  1  0
 26 24  2  0
M  END
$$$$
