FGH.pdb
     RDKit          3D

 26 27  0  0  1  0  0  0  0  0999 V2000
    9.1467  -16.7031   21.4950 N   0  0  0  0  0  0  0  0  0  0  0  0
    9.3751  -15.8741   22.6502 C   0  0  1  0  0  0  0  0  0  0  0  0
    8.1424  -15.0527   22.9550 C   0  0  0  0  0  0  0  0  0  0  0  0
    7.7995  -14.1938   21.7986 C   0  0  0  0  0  0  0  0  0  0  0  0
    6.6700  -14.4853   21.0540 C   0  0  0  0  0  0  0  0  0  0  0  0
    6.3805  -13.6623   19.9817 C   0  0  0  0  0  0  0  0  0  0  0  0
    7.1718  -12.5858   19.6469 C   0  0  0  0  0  0  0  0  0  0  0  0
    8.2859  -12.3367   20.4192 C   0  0  0  0  0  0  0  0  0  0  0  0
    8.6285  -13.1205   21.5015 C   0  0  0  0  0  0  0  0  0  0  0  0
    9.8042  -16.6673   23.8228 C   0  0  0  0  0  0  0  0  0  0  0  0
   10.1855  -16.0646   24.8494 O   0  0  0  0  0  0  0  0  0  0  0  0
    9.8034  -18.0904   23.8374 N   0  0  0  0  0  0  0  0  0  0  0  0
   10.6866  -18.8619   24.6600 C   0  0  0  0  0  0  0  0  0  0  0  0
   12.1081  -18.8162   24.2921 C   0  0  0  0  0  0  0  0  0  0  0  0
   12.8848  -19.6500   24.8952 O   0  0  0  0  0  0  0  0  0  0  0  0
   12.6708  -17.9395   23.3425 N   0  0  0  0  0  0  0  0  0  0  0  0
   14.0609  -18.1532   22.9555 C   0  0  1  0  0  0  0  0  0  0  0  0
   14.2892  -17.7934   21.5216 C   0  0  0  0  0  0  0  0  0  0  0  0
   13.5222  -18.6878   20.6467 C   0  0  0  0  0  0  0  0  0  0  0  0
   13.3105  -20.0607   20.8220 C   0  0  0  0  0  0  0  0  0  0  0  0
   12.5638  -20.5318   19.8226 N   0  0  0  0  0  0  0  0  0  0  0  0
   12.2843  -19.5149   19.0071 C   0  0  0  0  0  0  0  0  0  0  0  0
   12.8713  -18.3918   19.5141 N   0  0  0  0  0  0  0  0  0  0  0  0
   14.8780  -17.2900   23.8219 C   0  0  0  0  0  0  0  0  0  0  0  0
   14.2985  -16.5109   24.7868 O   0  0  0  0  0  0  0  0  0  0  0  0
   16.1251  -17.2483   23.6925 O   0  0  0  0  0  0  0  0  0  0  0  0
  2 10  1  0
  2  1  1  6
  3  2  1  0
  4  3  1  0
  5  4  2  0
  6  5  1  0
  7  8  1  0
  7  6  2  0
  8  9  2  0
  9  4  1  0
 10 12  1  0
 11 10  2  0
 12 13  1  0
 14 15  2  0
 14 13  1  0
 16 14  1  0
 17 16  1  0
 17 24  1  0
 17 18  1  6
 19 18  1  0
 20 19  2  0
 21 20  1  0
 22 21  1  0
 22 23  2  0
 23 19  1  0
 24 25  1  0
 26 24  2  0
M  END
$$$$
