FGH.pdb
     RDKit          3D

 26 27  0  0  1  0  0  0  0  0999 V2000
    9.3032  -15.2529   23.9804 N   0  0  0  0  0  0  0  0  0  0  0  0
    7.9942  -15.6444   24.4356 C   0  0  1  0  0  0  0  0  0  0  0  0
    6.9632  -14.6297   23.9945 C   0  0  0  0  0  0  0  0  0  0  0  0
    6.9566  -13.4712   24.9168 C   0  0  0  0  0  0  0  0  0  0  0  0
    6.0757  -13.4645   25.9842 C   0  0  0  0  0  0  0  0  0  0  0  0
    6.0971  -12.3671   26.8245 C   0  0  0  0  0  0  0  0  0  0  0  0
    6.9542  -11.3071   26.6274 C   0  0  0  0  0  0  0  0  0  0  0  0
    7.8125  -11.3606   25.5502 C   0  0  0  0  0  0  0  0  0  0  0  0
    7.8396  -12.4272   24.6758 C   0  0  0  0  0  0  0  0  0  0  0  0
    7.6399  -17.0095   23.9891 C   0  0  0  0  0  0  0  0  0  0  0  0
    8.1064  -17.4284   22.9078 O   0  0  0  0  0  0  0  0  0  0  0  0
    6.7891  -17.8721   24.7359 N   0  0  0  0  0  0  0  0  0  0  0  0
    7.0341  -19.2762   24.8785 C   0  0  0  0  0  0  0  0  0  0  0  0
    8.2761  -19.6424   25.5727 C   0  0  0  0  0  0  0  0  0  0  0  0
    8.5022  -20.9033   25.7189 O   0  0  0  0  0  0  0  0  0  0  0  0
    9.2199  -18.7269   26.0805 N   0  0  0  0  0  0  0  0  0  0  0  0
   10.4610  -19.2604   26.6307 C   0  0  1  0  0  0  0  0  0  0  0  0
   11.6323  -18.4057   26.2630 C   0  0  0  0  0  0  0  0  0  0  0  0
   11.7431  -18.2988   24.8036 C   0  0  0  0  0  0  0  0  0  0  0  0
   11.9654  -19.3419   23.8966 C   0  0  0  0  0  0  0  0  0  0  0  0
   12.0051  -18.8574   22.6548 N   0  0  0  0  0  0  0  0  0  0  0  0
   11.8167  -17.5395   22.7244 C   0  0  0  0  0  0  0  0  0  0  0  0
   11.6573  -17.2033   24.0377 N   0  0  0  0  0  0  0  0  0  0  0  0
   10.2998  -19.2827   28.0924 C   0  0  0  0  0  0  0  0  0  0  0  0
    9.2081  -18.7114   28.6888 O   0  0  0  0  0  0  0  0  0  0  0  0
   11.1625  -19.8249   28.8244 O   0  0  0  0  0  0  0  0  0  0  0  0
  2 10  1  0
  2  1  1  6
  3  2  1  0
  4  3  1  0
  5  4  2  0
  6  5  1  0
  7  8  1  0
  7  6  2  0
  8  9  2  0
  9  4  1  0
 10 12  1  0
 11 10  2  0
 12 13  1  0
 14 15  2  0
 14 13  1  0
 16 14  1  0
 17 16  1  0
 17 24  1  0
 17 18  1  1
 19 18  1  0
 20 19  2  0
 21 20  1  0
 22 21  1  0
 22 23  2  0
 23 19  1  0
 24 25  1  0
 26 24  2  0
M  END
$$$$
