FGH.pdb
     RDKit          3D

 26 27  0  0  1  0  0  0  0  0999 V2000
    7.3627  -15.7049   24.4978 N   0  0  0  0  0  0  0  0  0  0  0  0
    7.8736  -15.0010   23.3500 C   0  0  1  0  0  0  0  0  0  0  0  0
    8.4038  -13.6459   23.7622 C   0  0  0  0  0  0  0  0  0  0  0  0
    7.6816  -13.1546   24.9579 C   0  0  0  0  0  0  0  0  0  0  0  0
    8.4068  -12.7605   26.0687 C   0  0  0  0  0  0  0  0  0  0  0  0
    7.6998  -12.3073   27.1667 C   0  0  0  0  0  0  0  0  0  0  0  0
    6.3241  -12.2411   27.1788 C   0  0  0  0  0  0  0  0  0  0  0  0
    5.6470  -12.6449   26.0482 C   0  0  0  0  0  0  0  0  0  0  0  0
    6.2945  -13.1067   24.9210 C   0  0  0  0  0  0  0  0  0  0  0  0
    8.8968  -15.7895   22.6293 C   0  0  0  0  0  0  0  0  0  0  0  0
    9.5803  -15.2249   21.7480 O   0  0  0  0  0  0  0  0  0  0  0  0
    9.1409  -17.1666   22.8930 N   0  0  0  0  0  0  0  0  0  0  0  0
   10.4412  -17.7600   22.7971 C   0  0  0  0  0  0  0  0  0  0  0  0
   11.2624  -17.7034   24.0139 C   0  0  0  0  0  0  0  0  0  0  0  0
   12.1760  -16.7943   24.0486 O   0  0  0  0  0  0  0  0  0  0  0  0
   11.1227  -18.5588   25.1254 N   0  0  0  0  0  0  0  0  0  0  0  0
   11.0993  -17.9548   26.4531 C   0  0  1  0  0  0  0  0  0  0  0  0
    9.9582  -16.9983   26.5969 C   0  0  0  0  0  0  0  0  0  0  0  0
   10.3479  -15.8697   27.4502 C   0  0  0  0  0  0  0  0  0  0  0  0
   11.5336  -15.7369   28.1827 C   0  0  0  0  0  0  0  0  0  0  0  0
   11.5304  -14.5749   28.8369 N   0  0  0  0  0  0  0  0  0  0  0  0
   10.3867  -13.9507   28.5550 C   0  0  0  0  0  0  0  0  0  0  0  0
    9.6684  -14.7446   27.7084 N   0  0  0  0  0  0  0  0  0  0  0  0
   10.9501  -19.0567   27.4157 C   0  0  0  0  0  0  0  0  0  0  0  0
   10.5422  -20.2979   27.0070 O   0  0  0  0  0  0  0  0  0  0  0  0
   11.1919  -18.8808   28.6341 O   0  0  0  0  0  0  0  0  0  0  0  0
  2 10  1  0
  2  1  1  1
  3  2  1  0
  4  3  1  0
  5  4  2  0
  6  5  1  0
  7  8  1  0
  7  6  2  0
  8  9  2  0
  9  4  1  0
 10 12  1  0
 11 10  2  0
 12 13  1  0
 14 15  2  0
 14 13  1  0
 16 14  1  0
 17 16  1  0
 17 24  1  0
 17 18  1  6
 19 18  1  0
 20 19  2  0
 21 20  1  0
 22 21  1  0
 22 23  2  0
 23 19  1  0
 24 25  1  0
 26 24  2  0
M  END
$$$$
