FGH.pdb
     RDKit          3D

 26 27  0  0  1  0  0  0  0  0999 V2000
    9.5543  -14.9906   23.3737 N   0  0  0  0  0  0  0  0  0  0  0  0
    9.1572  -15.9561   22.3817 C   0  0  1  0  0  0  0  0  0  0  0  0
    7.8301  -15.5627   21.7725 C   0  0  0  0  0  0  0  0  0  0  0  0
    7.9458  -14.2522   21.0930 C   0  0  0  0  0  0  0  0  0  0  0  0
    7.9267  -13.0952   21.8522 C   0  0  0  0  0  0  0  0  0  0  0  0
    8.0370  -11.8899   21.1845 C   0  0  0  0  0  0  0  0  0  0  0  0
    8.1624  -11.8173   19.8148 C   0  0  0  0  0  0  0  0  0  0  0  0
    8.1763  -12.9974   19.1029 C   0  0  0  0  0  0  0  0  0  0  0  0
    8.0701  -14.2314   19.7103 C   0  0  0  0  0  0  0  0  0  0  0  0
   10.1970  -16.1433   21.3463 C   0  0  0  0  0  0  0  0  0  0  0  0
   10.8770  -15.1562   20.9917 O   0  0  0  0  0  0  0  0  0  0  0  0
   10.4610  -17.3998   20.7322 N   0  0  0  0  0  0  0  0  0  0  0  0
   11.3440  -17.5509   19.6145 C   0  0  0  0  0  0  0  0  0  0  0  0
   12.7736  -17.3653   19.8980 C   0  0  0  0  0  0  0  0  0  0  0  0
   13.5978  -17.9889   19.1272 O   0  0  0  0  0  0  0  0  0  0  0  0
   13.2962  -16.5672   20.9356 N   0  0  0  0  0  0  0  0  0  0  0  0
   14.7415  -16.5650   21.1334 C   0  0  1  0  0  0  0  0  0  0  0  0
   15.3034  -15.1823   21.0330 C   0  0  0  0  0  0  0  0  0  0  0  0
   15.5871  -14.8514   19.6317 C   0  0  0  0  0  0  0  0  0  0  0  0
   15.1706  -15.5590   18.4976 C   0  0  0  0  0  0  0  0  0  0  0  0
   15.6222  -14.9535   17.3987 N   0  0  0  0  0  0  0  0  0  0  0  0
   16.3156  -13.8803   17.7793 C   0  0  0  0  0  0  0  0  0  0  0  0
   16.2914  -13.8222   19.1428 N   0  0  0  0  0  0  0  0  0  0  0  0
   14.9842  -17.1049   22.4798 C   0  0  0  0  0  0  0  0  0  0  0  0
   16.2545  -17.2022   22.9805 O   0  0  0  0  0  0  0  0  0  0  0  0
   14.0302  -17.4901   23.1977 O   0  0  0  0  0  0  0  0  0  0  0  0
  2 10  1  0
  2  1  1  1
  3  2  1  0
  4  3  1  0
  5  4  2  0
  6  5  1  0
  7  8  1  0
  7  6  2  0
  8  9  2  0
  9  4  1  0
 10 12  1  0
 11 10  2  0
 12 13  1  0
 14 15  2  0
 14 13  1  0
 16 14  1  0
 17 16  1  0
 17 24  1  0
 17 18  1  1
 19 18  1  0
 20 19  2  0
 21 20  1  0
 22 21  1  0
 22 23  2  0
 23 19  1  0
 24 25  1  0
 26 24  2  0
M  END
$$$$
