FGH.pdb
     RDKit          3D

 26 27  0  0  1  0  0  0  0  0999 V2000
    9.6084  -16.1388   21.6389 N   0  0  0  0  0  0  0  0  0  0  0  0
    9.8397  -15.3569   22.8259 C   0  0  1  0  0  0  0  0  0  0  0  0
    9.6442  -13.8869   22.5289 C   0  0  0  0  0  0  0  0  0  0  0  0
    8.6312  -13.7092   21.4637 C   0  0  0  0  0  0  0  0  0  0  0  0
    9.0502  -13.4237   20.1759 C   0  0  0  0  0  0  0  0  0  0  0  0
    8.0772  -13.2643   19.2070 C   0  0  0  0  0  0  0  0  0  0  0  0
    6.7339  -13.3804   19.4884 C   0  0  0  0  0  0  0  0  0  0  0  0
    6.3669  -13.6657   20.7859 C   0  0  0  0  0  0  0  0  0  0  0  0
    7.2894  -13.8361   21.7973 C   0  0  0  0  0  0  0  0  0  0  0  0
    8.9923  -15.8017   23.9538 C   0  0  0  0  0  0  0  0  0  0  0  0
    9.0666  -15.1879   25.0402 O   0  0  0  0  0  0  0  0  0  0  0  0
    8.0922  -16.9002   23.8600 N   0  0  0  0  0  0  0  0  0  0  0  0
    7.3659  -17.4108   24.9841 C   0  0  0  0  0  0  0  0  0  0  0  0
    8.1123  -18.3106   25.8738 C   0  0  0  0  0  0  0  0  0  0  0  0
    7.4223  -19.2015   26.5003 O   0  0  0  0  0  0  0  0  0  0  0  0
    9.5051  -18.2676   26.0856 N   0  0  0  0  0  0  0  0  0  0  0  0
   10.1028  -19.3117   26.9107 C   0  0  1  0  0  0  0  0  0  0  0  0
   11.5311  -19.5517   26.5364 C   0  0  0  0  0  0  0  0  0  0  0  0
   11.6137  -20.0925   25.1746 C   0  0  0  0  0  0  0  0  0  0  0  0
   10.5466  -20.4831   24.3567 C   0  0  0  0  0  0  0  0  0  0  0  0
   11.0137  -20.9239   23.1880 N   0  0  0  0  0  0  0  0  0  0  0  0
   12.3434  -20.8331   23.2191 C   0  0  0  0  0  0  0  0  0  0  0  0
   12.7048  -20.3253   24.4334 N   0  0  0  0  0  0  0  0  0  0  0  0
   10.0244  -18.8458   28.3036 C   0  0  0  0  0  0  0  0  0  0  0  0
   10.4689  -19.6297   29.3339 O   0  0  0  0  0  0  0  0  0  0  0  0
    9.5454  -17.7189   28.5767 O   0  0  0  0  0  0  0  0  0  0  0  0
  2 10  1  0
  2  1  1  6
  3  2  1  0
  4  3  1  0
  5  4  2  0
  6  5  1  0
  7  8  1  0
  7  6  2  0
  8  9  2  0
  9  4  1  0
 10 12  1  0
 11 10  2  0
 12 13  1  0
 14 15  2  0
 14 13  1  0
 16 14  1  0
 17 16  1  0
 17 24  1  0
 17 18  1  6
 19 18  1  0
 20 19  2  0
 21 20  1  0
 22 21  1  0
 22 23  2  0
 23 19  1  0
 24 25  1  0
 26 24  2  0
M  END
$$$$
