MDL.pdb
     RDKit          3D

 25 24  0  0  1  0  0  0  0  0999 V2000
   26.1949  -14.8106  -14.6590 C   0  0  0  0  0  0  0  0  0  0  0  0
   27.1279  -13.4540  -15.3539 S   0  0  0  0  0  0  0  0  0  0  0  0
   26.6793  -12.9146  -16.9783 C   0  0  0  0  0  0  0  0  0  0  0  0
   25.6149  -11.8946  -17.1192 C   0  0  0  0  0  0  0  0  0  0  0  0
   24.2104  -12.2765  -16.7931 C   0  0  2  0  0  0  0  0  0  0  0  0
   23.7881  -13.3807  -17.5847 N   0  0  0  0  0  0  0  0  0  0  0  0
   23.2708  -11.1392  -16.7541 C   0  0  0  0  0  0  0  0  0  0  0  0
   23.2057  -10.3392  -17.7550 O   0  0  0  0  0  0  0  0  0  0  0  0
   22.3953  -10.8051  -15.7015 N   0  0  0  0  0  0  0  0  0  0  0  0
   21.4417   -9.7541  -15.7302 C   0  0  1  0  0  0  0  0  0  0  0  0
   20.1236  -10.0103  -15.0740 C   0  0  0  0  0  0  0  0  0  0  0  0
   19.4857  -11.2201  -15.6256 C   0  0  0  0  0  0  0  0  0  0  0  0
   19.2472  -12.2665  -14.9813 O   0  0  0  0  0  0  0  0  0  0  0  0
   22.0784   -8.4976  -15.3186 C   0  0  0  0  0  0  0  0  0  0  0  0
   22.7331   -8.4488  -14.2482 O   0  0  0  0  0  0  0  0  0  0  0  0
   19.1109  -11.2247  -16.9611 O   0  0  0  0  0  0  0  0  0  0  0  0
   23.1074   -2.7392  -17.5476 C   0  0  0  0  0  0  0  0  0  0  0  0
   23.2799   -3.7384  -16.4006 C   0  0  2  0  0  0  0  0  0  0  0  0
   24.7493   -3.7845  -16.0879 C   0  0  0  0  0  0  0  0  0  0  0  0
   22.6972   -5.0620  -16.7457 C   0  0  0  0  0  0  0  0  0  0  0  0
   22.5874   -6.0372  -15.6193 C   0  0  2  0  0  0  0  0  0  0  0  0
   22.0077   -7.2822  -16.0690 N   0  0  0  0  0  0  0  0  0  0  0  0
   21.9524   -5.5044  -14.3970 C   0  0  0  0  0  0  0  0  0  0  0  0
   20.7266   -5.6278  -14.1637 O   0  0  0  0  0  0  0  0  0  0  0  0
   22.6837   -4.8212  -13.4133 O   0  0  0  0  0  0  0  0  0  0  0  0
  2  1  1  0
  2  3  1  0
  4  3  1  0
  4  5  1  0
  5  7  1  0
  5  6  1  6
  7  8  2  0
  9 10  1  0
  9  7  1  0
 10 11  1  1
 12 11  1  0
 13 12  2  0
 14 15  2  0
 14 10  1  0
 16 12  1  0
 18 17  1  6
 18 19  1  0
 20 18  1  0
 21 22  1  0
 21 20  1  6
 22 14  1  0
 23 21  1  0
 24 23  2  0
 25 23  1  0
M  END
$$$$
