MDL.pdb
     RDKit          3D

 25 24  0  0  1  0  0  0  0  0999 V2000
   27.1398  -15.5649  -14.9469 C   0  0  0  0  0  0  0  0  0  0  0  0
   25.9846  -16.5835  -15.8533 S   0  0  0  0  0  0  0  0  0  0  0  0
   24.3889  -15.8946  -16.1848 C   0  0  0  0  0  0  0  0  0  0  0  0
   24.1817  -14.4448  -15.9648 C   0  0  0  0  0  0  0  0  0  0  0  0
   22.8186  -13.8771  -16.1748 C   0  0  2  0  0  0  0  0  0  0  0  0
   22.0573  -14.6970  -17.0537 N   0  0  0  0  0  0  0  0  0  0  0  0
   22.8092  -12.4371  -16.4976 C   0  0  0  0  0  0  0  0  0  0  0  0
   23.4624  -11.6193  -15.7555 O   0  0  0  0  0  0  0  0  0  0  0  0
   22.1371  -11.8182  -17.5706 N   0  0  0  0  0  0  0  0  0  0  0  0
   22.1308  -10.4246  -17.8402 C   0  0  1  0  0  0  0  0  0  0  0  0
   21.7728   -9.9992  -19.2274 C   0  0  0  0  0  0  0  0  0  0  0  0
   21.8713   -8.5349  -19.3724 C   0  0  0  0  0  0  0  0  0  0  0  0
   22.9381   -7.8946  -19.5095 O   0  0  0  0  0  0  0  0  0  0  0  0
   21.3854   -9.7214  -16.7897 C   0  0  0  0  0  0  0  0  0  0  0  0
   20.2430  -10.1230  -16.4571 O   0  0  0  0  0  0  0  0  0  0  0  0
   20.7045   -7.7849  -19.3589 O   0  0  0  0  0  0  0  0  0  0  0  0
   21.7445   -6.4866  -11.9003 C   0  0  0  0  0  0  0  0  0  0  0  0
   20.8426   -7.4919  -12.6212 C   0  0  2  0  0  0  0  0  0  0  0  0
   20.3152   -8.4275  -11.5697 C   0  0  0  0  0  0  0  0  0  0  0  0
   21.5694   -8.1753  -13.7236 C   0  0  0  0  0  0  0  0  0  0  0  0
   21.1040   -7.8533  -15.1062 C   0  0  2  0  0  0  0  0  0  0  0  0
   21.8770   -8.5740  -16.0920 N   0  0  0  0  0  0  0  0  0  0  0  0
   20.9813   -6.4111  -15.3996 C   0  0  0  0  0  0  0  0  0  0  0  0
   21.8769   -5.7637  -15.9921 O   0  0  0  0  0  0  0  0  0  0  0  0
   19.8492   -5.6685  -15.0312 O   0  0  0  0  0  0  0  0  0  0  0  0
  2  1  1  0
  2  3  1  0
  4  3  1  0
  4  5  1  0
  5  7  1  0
  5  6  1  6
  7  8  2  0
  9 10  1  0
  9  7  1  0
 10 11  1  6
 12 11  1  0
 13 12  2  0
 14 15  2  0
 14 10  1  0
 16 12  1  0
 18 17  1  1
 18 19  1  0
 20 18  1  0
 21 22  1  0
 21 20  1  1
 22 14  1  0
 23 21  1  0
 24 23  2  0
 25 23  1  0
M  END
$$$$
