MDL.pdb
     RDKit          3D

 25 24  0  0  1  0  0  0  0  0999 V2000
   27.6471  -20.3144   -9.0308 C   0  0  0  0  0  0  0  0  0  0  0  0
   28.2505  -21.3687  -10.3416 S   0  0  0  0  0  0  0  0  0  0  0  0
   28.6510  -20.5935  -11.8809 C   0  0  0  0  0  0  0  0  0  0  0  0
   27.5495  -20.0626  -12.7164 C   0  0  0  0  0  0  0  0  0  0  0  0
   26.4204  -20.9697  -13.0723 C   0  0  2  0  0  0  0  0  0  0  0  0
   26.8787  -22.0695  -13.8498 N   0  0  0  0  0  0  0  0  0  0  0  0
   25.2356  -20.2737  -13.6105 C   0  0  0  0  0  0  0  0  0  0  0  0
   24.8153  -19.2062  -13.0364 O   0  0  0  0  0  0  0  0  0  0  0  0
   24.4697  -20.6563  -14.7300 N   0  0  0  0  0  0  0  0  0  0  0  0
   23.3214  -19.9739  -15.2101 C   0  0  1  0  0  0  0  0  0  0  0  0
   23.1624  -19.8641  -16.6921 C   0  0  0  0  0  0  0  0  0  0  0  0
   24.3044  -19.1512  -17.2941 C   0  0  0  0  0  0  0  0  0  0  0  0
   25.2289  -19.6901  -17.9436 O   0  0  0  0  0  0  0  0  0  0  0  0
   22.1263  -20.4693  -14.5173 C   0  0  0  0  0  0  0  0  0  0  0  0
   21.8931  -21.7025  -14.4755 O   0  0  0  0  0  0  0  0  0  0  0  0
   24.3841  -17.7747  -17.1430 O   0  0  0  0  0  0  0  0  0  0  0  0
   21.0061  -21.5703  -10.5988 C   0  0  0  0  0  0  0  0  0  0  0  0
   21.1062  -20.0602  -10.8304 C   0  0  2  0  0  0  0  0  0  0  0  0
   21.0956  -19.4154   -9.4728 C   0  0  0  0  0  0  0  0  0  0  0  0
   20.0261  -19.5799  -11.7322 C   0  0  0  0  0  0  0  0  0  0  0  0
   20.0438  -20.1338  -13.1196 C   0  0  2  0  0  0  0  0  0  0  0  0
   21.1739  -19.6262  -13.8637 N   0  0  0  0  0  0  0  0  0  0  0  0
   18.7648  -20.0208  -13.8492 C   0  0  0  0  0  0  0  0  0  0  0  0
   17.7053  -20.5533  -13.4418 O   0  0  0  0  0  0  0  0  0  0  0  0
   18.6527  -19.3074  -15.0524 O   0  0  0  0  0  0  0  0  0  0  0  0
  2  1  1  0
  2  3  1  0
  4  3  1  0
  4  5  1  0
  5  7  1  0
  5  6  1  6
  7  8  2  0
  9 10  1  0
  9  7  1  0
 10 11  1  6
 12 11  1  0
 13 12  2  0
 14 15  2  0
 14 10  1  0
 16 12  1  0
 18 17  1  1
 18 19  1  0
 20 18  1  0
 21 22  1  0
 21 20  1  1
 22 14  1  0
 23 21  1  0
 24 23  2  0
 25 23  1  0
M  END
$$$$
