MDL.pdb
     RDKit          3D

 25 24  0  0  1  0  0  0  0  0999 V2000
   31.9944  -22.0692  -10.2544 C   0  0  0  0  0  0  0  0  0  0  0  0
   30.4055  -21.6161  -10.9356 S   0  0  0  0  0  0  0  0  0  0  0  0
   30.3678  -20.2439  -12.0520 C   0  0  0  0  0  0  0  0  0  0  0  0
   29.0660  -19.8284  -12.6229 C   0  0  0  0  0  0  0  0  0  0  0  0
   28.0380  -20.8740  -12.8954 C   0  0  2  0  0  0  0  0  0  0  0  0
   28.5826  -21.9287  -13.6798 N   0  0  0  0  0  0  0  0  0  0  0  0
   26.7484  -20.3401  -13.3744 C   0  0  0  0  0  0  0  0  0  0  0  0
   26.2419  -19.3076  -12.8055 O   0  0  0  0  0  0  0  0  0  0  0  0
   25.9645  -20.8498  -14.4289 N   0  0  0  0  0  0  0  0  0  0  0  0
   24.7398  -20.2944  -14.8831 C   0  0  1  0  0  0  0  0  0  0  0  0
   24.4909  -20.3039  -16.3567 C   0  0  0  0  0  0  0  0  0  0  0  0
   25.5708  -19.6059  -17.0788 C   0  0  0  0  0  0  0  0  0  0  0  0
   26.3130  -20.1255  -17.9427 O   0  0  0  0  0  0  0  0  0  0  0  0
   23.6290  -20.8299  -14.0874 C   0  0  0  0  0  0  0  0  0  0  0  0
   23.4123  -22.0666  -14.0677 O   0  0  0  0  0  0  0  0  0  0  0  0
   25.8031  -18.2678  -16.7970 O   0  0  0  0  0  0  0  0  0  0  0  0
   19.5931  -20.2599  -10.2824 C   0  0  0  0  0  0  0  0  0  0  0  0
   21.0032  -20.8066  -10.0439 C   0  0  2  0  0  0  0  0  0  0  0  0
   21.3436  -20.5074   -8.6108 C   0  0  0  0  0  0  0  0  0  0  0  0
   21.9722  -20.2447  -11.0216 C   0  0  0  0  0  0  0  0  0  0  0  0
   21.7121  -20.5725  -12.4557 C   0  0  2  0  0  0  0  0  0  0  0  0
   22.7436  -20.0233  -13.3060 N   0  0  0  0  0  0  0  0  0  0  0  0
   20.3449  -20.2679  -12.9238 C   0  0  0  0  0  0  0  0  0  0  0  0
   20.0223  -19.1468  -13.3835 O   0  0  0  0  0  0  0  0  0  0  0  0
   19.3133  -21.2182  -12.8829 O   0  0  0  0  0  0  0  0  0  0  0  0
  2  1  1  0
  2  3  1  0
  4  3  1  0
  4  5  1  0
  5  7  1  0
  5  6  1  6
  7  8  2  0
  9 10  1  0
  9  7  1  0
 10 11  1  6
 12 11  1  0
 13 12  2  0
 14 15  2  0
 14 10  1  0
 16 12  1  0
 18 17  1  6
 18 19  1  0
 20 18  1  0
 21 22  1  0
 21 20  1  1
 22 14  1  0
 23 21  1  0
 24 23  2  0
 25 23  1  0
M  END
$$$$
