MDL.pdb
     RDKit          3D

 25 24  0  0  1  0  0  0  0  0999 V2000
   26.5338  -21.1301  -10.2414 C   0  0  0  0  0  0  0  0  0  0  0  0
   27.7096  -19.8226  -10.5603 S   0  0  0  0  0  0  0  0  0  0  0  0
   28.1639  -19.5397  -12.2468 C   0  0  0  0  0  0  0  0  0  0  0  0
   27.1117  -19.6073  -13.2867 C   0  0  0  0  0  0  0  0  0  0  0  0
   27.1029  -20.7699  -14.2210 C   0  0  2  0  0  0  0  0  0  0  0  0
   28.2030  -20.7060  -15.1210 N   0  0  0  0  0  0  0  0  0  0  0  0
   25.7933  -21.0261  -14.8511 C   0  0  0  0  0  0  0  0  0  0  0  0
   25.5304  -20.5072  -15.9946 O   0  0  0  0  0  0  0  0  0  0  0  0
   24.7434  -21.8059  -14.3259 N   0  0  0  0  0  0  0  0  0  0  0  0
   23.5280  -22.1033  -14.9961 C   0  0  1  0  0  0  0  0  0  0  0  0
   22.8225  -23.3612  -14.6043 C   0  0  0  0  0  0  0  0  0  0  0  0
   23.6502  -24.5450  -14.9016 C   0  0  0  0  0  0  0  0  0  0  0  0
   24.0121  -25.4004  -14.0623 O   0  0  0  0  0  0  0  0  0  0  0  0
   22.6665  -20.9153  -15.0075 C   0  0  0  0  0  0  0  0  0  0  0  0
   22.4586  -20.2825  -13.9430 O   0  0  0  0  0  0  0  0  0  0  0  0
   24.0743  -24.7498  -16.2063 O   0  0  0  0  0  0  0  0  0  0  0  0
   20.0953  -16.9023  -18.7572 C   0  0  0  0  0  0  0  0  0  0  0  0
   20.6819  -17.0727  -17.3533 C   0  0  2  0  0  0  0  0  0  0  0  0
   21.4302  -15.8065  -17.0435 C   0  0  0  0  0  0  0  0  0  0  0  0
   21.5151  -18.3007  -17.2621 C   0  0  0  0  0  0  0  0  0  0  0  0
   21.1539  -19.2510  -16.1674 C   0  0  2  0  0  0  0  0  0  0  0  0
   22.0230  -20.4056  -16.1786 N   0  0  0  0  0  0  0  0  0  0  0  0
   19.7204  -19.5989  -16.0956 C   0  0  0  0  0  0  0  0  0  0  0  0
   19.2296  -20.5723  -16.7150 O   0  0  0  0  0  0  0  0  0  0  0  0
   18.8105  -18.8578  -15.3263 O   0  0  0  0  0  0  0  0  0  0  0  0
  2  1  1  0
  2  3  1  0
  4  3  1  0
  4  5  1  0
  5  7  1  0
  5  6  1  6
  7  8  2  0
  9 10  1  0
  9  7  1  0
 10 11  1  1
 12 11  1  0
 13 12  2  0
 14 15  2  0
 14 10  1  0
 16 12  1  0
 18 17  1  6
 18 19  1  0
 20 18  1  0
 21 22  1  0
 21 20  1  6
 22 14  1  0
 23 21  1  0
 24 23  2  0
 25 23  1  0
M  END
$$$$
