MDL.pdb
     RDKit          3D

 25 24  0  0  1  0  0  0  0  0999 V2000
   23.2351  -20.6751   -8.6234 C   0  0  0  0  0  0  0  0  0  0  0  0
   24.9138  -21.0372   -8.1288 S   0  0  0  0  0  0  0  0  0  0  0  0
   26.2049  -20.1349   -8.9347 C   0  0  0  0  0  0  0  0  0  0  0  0
   26.0842  -19.8658  -10.3860 C   0  0  0  0  0  0  0  0  0  0  0  0
   26.2751  -20.9953  -11.3412 C   0  0  2  0  0  0  0  0  0  0  0  0
   27.6138  -21.4750  -11.2988 N   0  0  0  0  0  0  0  0  0  0  0  0
   25.7464  -20.7354  -12.6942 C   0  0  0  0  0  0  0  0  0  0  0  0
   26.2874  -19.8260  -13.4197 O   0  0  0  0  0  0  0  0  0  0  0  0
   24.6667  -21.3924  -13.3178 N   0  0  0  0  0  0  0  0  0  0  0  0
   24.2462  -21.1887  -14.6581 C   0  0  1  0  0  0  0  0  0  0  0  0
   24.3397  -22.3551  -15.5877 C   0  0  0  0  0  0  0  0  0  0  0  0
   25.7251  -22.5482  -16.0547 C   0  0  0  0  0  0  0  0  0  0  0  0
   26.4418  -21.6609  -16.5706 O   0  0  0  0  0  0  0  0  0  0  0  0
   22.9400  -20.5199  -14.6701 C   0  0  0  0  0  0  0  0  0  0  0  0
   22.1296  -20.7124  -13.7304 O   0  0  0  0  0  0  0  0  0  0  0  0
   26.3028  -23.8023  -15.9237 O   0  0  0  0  0  0  0  0  0  0  0  0
   19.4169  -16.7299  -15.3892 C   0  0  0  0  0  0  0  0  0  0  0  0
   19.8886  -17.1314  -16.7893 C   0  0  2  0  0  0  0  0  0  0  0  0
   18.7521  -17.8797  -17.4276 C   0  0  0  0  0  0  0  0  0  0  0  0
   21.1581  -17.9029  -16.7304 C   0  0  0  0  0  0  0  0  0  0  0  0
   21.2123  -18.9875  -15.7045 C   0  0  2  0  0  0  0  0  0  0  0  0
   22.5041  -19.6353  -15.7058 N   0  0  0  0  0  0  0  0  0  0  0  0
   20.0819  -19.9371  -15.7451 C   0  0  0  0  0  0  0  0  0  0  0  0
   20.0413  -20.9054  -16.5407 O   0  0  0  0  0  0  0  0  0  0  0  0
   18.9743  -19.8155  -14.8921 O   0  0  0  0  0  0  0  0  0  0  0  0
  2  1  1  0
  2  3  1  0
  4  3  1  0
  4  5  1  0
  5  7  1  0
  5  6  1  6
  7  8  2  0
  9 10  1  0
  9  7  1  0
 10 11  1  1
 12 11  1  0
 13 12  2  0
 14 15  2  0
 14 10  1  0
 16 12  1  0
 18 17  1  1
 18 19  1  0
 20 18  1  0
 21 22  1  0
 21 20  1  6
 22 14  1  0
 23 21  1  0
 24 23  2  0
 25 23  1  0
M  END
$$$$
