NPY.pdb
     RDKit          3D

 28 29  0  0  1  0  0  0  0  0999 V2000
   25.3032  -19.7134  -19.8634 N   0  0  0  0  0  0  0  0  0  0  0  0
   24.2973  -19.8757  -18.8833 C   0  0  0  0  0  0  0  0  0  0  0  0
   23.0910  -19.5173  -19.0631 O   0  0  0  0  0  0  0  0  0  0  0  0
   24.6353  -20.4829  -17.5961 C   0  0  0  0  0  0  0  0  0  0  0  0
   26.1238  -20.8648  -17.5909 C   0  0  2  0  0  0  0  0  0  0  0  0
   26.3745  -21.9459  -18.4841 N   0  0  0  0  0  0  0  0  0  0  0  0
   26.5799  -21.1271  -16.2314 C   0  0  0  0  0  0  0  0  0  0  0  0
   26.2172  -22.2580  -15.7462 O   0  0  0  0  0  0  0  0  0  0  0  0
   27.3535  -20.2723  -15.4406 N   0  0  0  0  0  0  0  0  0  0  0  0
   28.5734  -19.5259  -15.8857 C   0  0  0  0  0  0  0  0  0  0  0  0
   28.1347  -18.0992  -15.4733 C   0  0  0  0  0  0  0  0  0  0  0  0
   27.2718  -18.3370  -14.2580 C   0  0  0  0  0  0  0  0  0  0  0  0
   27.2961  -19.8675  -14.0799 C   0  0  1  0  0  0  0  0  0  0  0  0
   26.2685  -20.3368  -13.1886 C   0  0  0  0  0  0  0  0  0  0  0  0
   25.0202  -20.3438  -13.3355 O   0  0  0  0  0  0  0  0  0  0  0  0
   28.3627  -18.2207   -6.1940 O   0  0  0  0  0  0  0  0  0  0  0  0
   27.9085  -19.1594   -7.0972 C   0  0  0  0  0  0  0  0  0  0  0  0
   26.5494  -19.3913   -7.2088 C   0  0  0  0  0  0  0  0  0  0  0  0
   26.0694  -20.3225   -8.1007 C   0  0  0  0  0  0  0  0  0  0  0  0
   26.9270  -21.0446   -8.9029 C   0  0  0  0  0  0  0  0  0  0  0  0
   26.3703  -22.0437   -9.8367 C   0  0  0  0  0  0  0  0  0  0  0  0
   25.6319  -21.3755  -10.9639 C   0  0  2  0  0  0  0  0  0  0  0  0
   26.6331  -20.9075  -11.8916 N   0  0  0  0  0  0  0  0  0  0  0  0
   24.7376  -20.2978  -10.5186 C   0  0  0  0  0  0  0  0  0  0  0  0
   25.0474  -19.0754  -10.5607 O   0  0  0  0  0  0  0  0  0  0  0  0
   28.2853  -20.8255   -8.8048 C   0  0  0  0  0  0  0  0  0  0  0  0
   28.7745  -19.8928   -7.9120 C   0  0  0  0  0  0  0  0  0  0  0  0
   23.4910  -20.6214  -10.0280 O   0  0  0  0  0  0  0  0  0  0  0  0
  2  1  1  0
  2  4  1  0
  3  2  2  0
  5  4  1  0
  5  6  1  6
  7  8  2  0
  7  5  1  0
  9  7  1  0
 10  9  1  0
 11 10  1  0
 12 11  1  0
 12 13  1  0
 13  9  1  0
 14 23  1  0
 13 14  1  6
 15 14  2  0
 17 18  2  0
 17 16  1  0
 19 18  1  0
 20 19  2  0
 21 20  1  0
 22 21  1  1
 22 23  1  0
 22 24  1  0
 24 28  1  0
 25 24  2  0
 26 20  1  0
 26 27  2  0
 27 17  1  0
M  END
$$$$
