NPY.pdb
     RDKit          3D

 28 29  0  0  1  0  0  0  0  0999 V2000
   28.5929  -18.3617  -17.9444 N   0  0  0  0  0  0  0  0  0  0  0  0
   27.5901  -17.7108  -17.1898 C   0  0  0  0  0  0  0  0  0  0  0  0
   27.3267  -16.4730  -17.3102 O   0  0  0  0  0  0  0  0  0  0  0  0
   26.8052  -18.4758  -16.2210 C   0  0  0  0  0  0  0  0  0  0  0  0
   27.2715  -19.9399  -16.2338 C   0  0  2  0  0  0  0  0  0  0  0  0
   26.7715  -20.6227  -17.3797 N   0  0  0  0  0  0  0  0  0  0  0  0
   26.9269  -20.5975  -14.9792 C   0  0  0  0  0  0  0  0  0  0  0  0
   25.6744  -20.8153  -14.8070 O   0  0  0  0  0  0  0  0  0  0  0  0
   27.8226  -20.9947  -13.9819 N   0  0  0  0  0  0  0  0  0  0  0  0
   29.1315  -21.6891  -14.2009 C   0  0  0  0  0  0  0  0  0  0  0  0
   30.0452  -20.7108  -13.4223 C   0  0  0  0  0  0  0  0  0  0  0  0
   29.1489  -20.1968  -12.3222 C   0  0  0  0  0  0  0  0  0  0  0  0
   27.8120  -20.9243  -12.5629 C   0  0  1  0  0  0  0  0  0  0  0  0
   26.7204  -20.3292  -11.8383 C   0  0  0  0  0  0  0  0  0  0  0  0
   26.2821  -19.1517  -11.8713 O   0  0  0  0  0  0  0  0  0  0  0  0
   22.0340  -19.7820  -15.6136 O   0  0  0  0  0  0  0  0  0  0  0  0
   22.4157  -20.0887  -14.3238 C   0  0  0  0  0  0  0  0  0  0  0  0
   23.0849  -21.2741  -14.0781 C   0  0  0  0  0  0  0  0  0  0  0  0
   23.4760  -21.6053  -12.8012 C   0  0  0  0  0  0  0  0  0  0  0  0
   23.2127  -20.7672  -11.7388 C   0  0  0  0  0  0  0  0  0  0  0  0
   23.6383  -21.1676  -10.3828 C   0  0  0  0  0  0  0  0  0  0  0  0
   24.9590  -20.5427  -10.0257 C   0  0  2  0  0  0  0  0  0  0  0  0
   25.9444  -21.1365  -10.8966 N   0  0  0  0  0  0  0  0  0  0  0  0
   25.3095  -20.6889   -8.6061 C   0  0  0  0  0  0  0  0  0  0  0  0
   24.6186  -20.2078   -7.6663 O   0  0  0  0  0  0  0  0  0  0  0  0
   22.5467  -19.5808  -11.9661 C   0  0  0  0  0  0  0  0  0  0  0  0
   22.1509  -19.2418  -13.2446 C   0  0  0  0  0  0  0  0  0  0  0  0
   26.4485  -21.3862   -8.2656 O   0  0  0  0  0  0  0  0  0  0  0  0
  2  1  1  0
  2  4  1  0
  3  2  2  0
  5  4  1  0
  5  6  1  6
  7  8  2  0
  7  5  1  0
  9  7  1  0
 10  9  1  0
 11 10  1  0
 12 11  1  0
 12 13  1  0
 13  9  1  0
 14 23  1  0
 13 14  1  6
 15 14  2  0
 17 18  2  0
 17 16  1  0
 19 18  1  0
 20 19  2  0
 21 20  1  0
 22 21  1  1
 22 23  1  0
 22 24  1  0
 24 28  1  0
 25 24  2  0
 26 20  1  0
 26 27  2  0
 27 17  1  0
M  END
$$$$
