NPY.pdb
     RDKit          3D

 28 29  0  0  1  0  0  0  0  0999 V2000
   20.7317  -20.9002  -16.9080 N   0  0  0  0  0  0  0  0  0  0  0  0
   20.8124  -19.4897  -16.8560 C   0  0  0  0  0  0  0  0  0  0  0  0
   19.8735  -18.7584  -16.4092 O   0  0  0  0  0  0  0  0  0  0  0  0
   22.0222  -18.8181  -17.3306 C   0  0  0  0  0  0  0  0  0  0  0  0
   22.8971  -18.4385  -16.1257 C   0  0  2  0  0  0  0  0  0  0  0  0
   22.3633  -17.3057  -15.4465 N   0  0  0  0  0  0  0  0  0  0  0  0
   24.2841  -18.2589  -16.5370 C   0  0  0  0  0  0  0  0  0  0  0  0
   24.7526  -19.1892  -17.2860 O   0  0  0  0  0  0  0  0  0  0  0  0
   25.1164  -17.1904  -16.1905 N   0  0  0  0  0  0  0  0  0  0  0  0
   24.6838  -15.7729  -15.9735 C   0  0  0  0  0  0  0  0  0  0  0  0
   25.2765  -15.5646  -14.5581 C   0  0  0  0  0  0  0  0  0  0  0  0
   26.5077  -16.4375  -14.5633 C   0  0  0  0  0  0  0  0  0  0  0  0
   26.5144  -17.0607  -15.9726 C   0  0  1  0  0  0  0  0  0  0  0  0
   27.4086  -18.1833  -16.0766 C   0  0  0  0  0  0  0  0  0  0  0  0
   28.5620  -18.2477  -16.5719 O   0  0  0  0  0  0  0  0  0  0  0  0
   24.4822  -20.1981   -9.9161 O   0  0  0  0  0  0  0  0  0  0  0  0
   25.4756  -20.2085  -10.8733 C   0  0  0  0  0  0  0  0  0  0  0  0
   25.8785  -19.0155  -11.4458 C   0  0  0  0  0  0  0  0  0  0  0  0
   26.8663  -18.9973  -12.4035 C   0  0  0  0  0  0  0  0  0  0  0  0
   27.4774  -20.1626  -12.8146 C   0  0  0  0  0  0  0  0  0  0  0  0
   28.5235  -20.0991  -13.8547 C   0  0  0  0  0  0  0  0  0  0  0  0
   27.9734  -20.4945  -15.1975 C   0  0  2  0  0  0  0  0  0  0  0  0
   27.0025  -19.4893  -15.5569 N   0  0  0  0  0  0  0  0  0  0  0  0
   27.4065  -21.8501  -15.2204 C   0  0  0  0  0  0  0  0  0  0  0  0
   26.1698  -22.0851  -15.3075 O   0  0  0  0  0  0  0  0  0  0  0  0
   27.0881  -21.3611  -12.2536 C   0  0  0  0  0  0  0  0  0  0  0  0
   26.0975  -21.3874  -11.2923 C   0  0  0  0  0  0  0  0  0  0  0  0
   28.2558  -22.9329  -15.1451 O   0  0  0  0  0  0  0  0  0  0  0  0
  2  1  1  0
  2  4  1  0
  3  2  2  0
  5  4  1  0
  5  6  1  6
  7  8  2  0
  7  5  1  0
  9  7  1  0
 10  9  1  0
 11 10  1  0
 12 11  1  0
 12 13  1  0
 13  9  1  0
 14 23  1  0
 13 14  1  1
 15 14  2  0
 17 18  2  0
 17 16  1  0
 19 18  1  0
 20 19  2  0
 21 20  1  0
 22 21  1  1
 22 23  1  0
 22 24  1  0
 24 28  1  0
 25 24  2  0
 26 20  1  0
 26 27  2  0
 27 17  1  0
M  END
$$$$
