NPY.pdb
     RDKit          3D

 28 29  0  0  1  0  0  0  0  0999 V2000
   22.1732  -16.2731  -17.9218 N   0  0  0  0  0  0  0  0  0  0  0  0
   22.0159  -14.9319  -18.3401 C   0  0  0  0  0  0  0  0  0  0  0  0
   21.7772  -14.6058  -19.5454 O   0  0  0  0  0  0  0  0  0  0  0  0
   22.1267  -13.8524  -17.3592 C   0  0  0  0  0  0  0  0  0  0  0  0
   23.2707  -12.9114  -17.7679 C   0  0  2  0  0  0  0  0  0  0  0  0
   24.5291  -13.5733  -17.6812 N   0  0  0  0  0  0  0  0  0  0  0  0
   23.2182  -11.6765  -16.9949 C   0  0  0  0  0  0  0  0  0  0  0  0
   22.1479  -10.9858  -17.1478 O   0  0  0  0  0  0  0  0  0  0  0  0
   24.2088  -11.2006  -16.1307 N   0  0  0  0  0  0  0  0  0  0  0  0
   25.2447  -12.0313  -15.4377 C   0  0  0  0  0  0  0  0  0  0  0  0
   26.5066  -11.2674  -15.9089 C   0  0  0  0  0  0  0  0  0  0  0  0
   26.0248   -9.8428  -16.0367 C   0  0  0  0  0  0  0  0  0  0  0  0
   24.5414   -9.9149  -15.6258 C   0  0  1  0  0  0  0  0  0  0  0  0
   23.8059   -8.7362  -16.0004 C   0  0  0  0  0  0  0  0  0  0  0  0
   23.4295   -8.3521  -17.1365 O   0  0  0  0  0  0  0  0  0  0  0  0
   18.7271   -1.6052  -15.0605 O   0  0  0  0  0  0  0  0  0  0  0  0
   19.4965   -2.7264  -14.8277 C   0  0  0  0  0  0  0  0  0  0  0  0
   19.0173   -3.9681  -15.2044 C   0  0  0  0  0  0  0  0  0  0  0  0
   19.7635   -5.1027  -14.9830 C   0  0  0  0  0  0  0  0  0  0  0  0
   21.0028   -5.0311  -14.3834 C   0  0  0  0  0  0  0  0  0  0  0  0
   21.7643   -6.2748  -14.1526 C   0  0  0  0  0  0  0  0  0  0  0  0
   22.6745   -6.5729  -15.3122 C   0  0  2  0  0  0  0  0  0  0  0  0
   23.3901   -7.7795  -14.9745 N   0  0  0  0  0  0  0  0  0  0  0  0
   23.5788   -5.4635  -15.6452 C   0  0  0  0  0  0  0  0  0  0  0  0
   24.6726   -5.2560  -15.0514 O   0  0  0  0  0  0  0  0  0  0  0  0
   21.4960   -3.8006  -14.0021 C   0  0  0  0  0  0  0  0  0  0  0  0
   20.7530   -2.6577  -14.2207 C   0  0  0  0  0  0  0  0  0  0  0  0
   23.2301   -4.5955  -16.6574 O   0  0  0  0  0  0  0  0  0  0  0  0
  2  1  1  0
  2  4  1  0
  3  2  2  0
  5  4  1  0
  5  6  1  1
  7  8  2  0
  7  5  1  0
  9  7  1  0
 10  9  1  0
 11 10  1  0
 12 11  1  0
 12 13  1  0
 13  9  1  0
 14 23  1  0
 13 14  1  6
 15 14  2  0
 17 18  2  0
 17 16  1  0
 19 18  1  0
 20 19  2  0
 21 20  1  0
 22 21  1  1
 22 23  1  0
 22 24  1  0
 24 28  1  0
 25 24  2  0
 26 20  1  0
 26 27  2  0
 27 17  1  0
M  END
$$$$
