NPY.pdb
     RDKit          3D

 28 29  0  0  1  0  0  0  0  0999 V2000
   23.6366  -17.0691  -17.1367 N   0  0  0  0  0  0  0  0  0  0  0  0
   23.1049  -17.4475  -15.8826 C   0  0  0  0  0  0  0  0  0  0  0  0
   22.2166  -16.7712  -15.2745 O   0  0  0  0  0  0  0  0  0  0  0  0
   23.5814  -18.6700  -15.2360 C   0  0  0  0  0  0  0  0  0  0  0  0
   24.6383  -19.3374  -16.1297 C   0  0  2  0  0  0  0  0  0  0  0  0
   24.0291  -19.9733  -17.2495 N   0  0  0  0  0  0  0  0  0  0  0  0
   25.4768  -20.2365  -15.3463 C   0  0  0  0  0  0  0  0  0  0  0  0
   24.8895  -21.2963  -14.9244 O   0  0  0  0  0  0  0  0  0  0  0  0
   26.8240  -20.0413  -15.0277 N   0  0  0  0  0  0  0  0  0  0  0  0
   27.8217  -19.2851  -15.8499 C   0  0  0  0  0  0  0  0  0  0  0  0
   28.3173  -18.2996  -14.7631 C   0  0  0  0  0  0  0  0  0  0  0  0
   28.1983  -19.0978  -13.4877 C   0  0  0  0  0  0  0  0  0  0  0  0
   27.6535  -20.4619  -13.9536 C   0  0  1  0  0  0  0  0  0  0  0  0
   27.1464  -21.2556  -12.8656 C   0  0  0  0  0  0  0  0  0  0  0  0
   27.3497  -22.4653  -12.5916 O   0  0  0  0  0  0  0  0  0  0  0  0
   28.0910  -18.3413   -5.8991 O   0  0  0  0  0  0  0  0  0  0  0  0
   27.7171  -19.2297   -6.8862 C   0  0  0  0  0  0  0  0  0  0  0  0
   28.6929  -19.8506   -7.6450 C   0  0  0  0  0  0  0  0  0  0  0  0
   28.3479  -20.7399   -8.6365 C   0  0  0  0  0  0  0  0  0  0  0  0
   27.0266  -21.0342   -8.8973 C   0  0  0  0  0  0  0  0  0  0  0  0
   26.7003  -21.9842   -9.9794 C   0  0  0  0  0  0  0  0  0  0  0  0
   25.6063  -21.4444  -10.8592 C   0  0  2  0  0  0  0  0  0  0  0  0
   26.2508  -20.6521  -11.8785 N   0  0  0  0  0  0  0  0  0  0  0  0
   24.5870  -20.6833  -10.1234 C   0  0  0  0  0  0  0  0  0  0  0  0
   24.3989  -19.4451  -10.2764 O   0  0  0  0  0  0  0  0  0  0  0  0
   26.0408  -20.4243   -8.1497 C   0  0  0  0  0  0  0  0  0  0  0  0
   26.3792  -19.5306   -7.1532 C   0  0  0  0  0  0  0  0  0  0  0  0
   23.7850  -21.3411   -9.2159 O   0  0  0  0  0  0  0  0  0  0  0  0
  2  1  1  0
  2  4  1  0
  3  2  2  0
  5  4  1  0
  5  6  1  6
  7  8  2  0
  7  5  1  0
  9  7  1  0
 10  9  1  0
 11 10  1  0
 12 11  1  0
 12 13  1  0
 13  9  1  0
 14 23  1  0
 13 14  1  1
 15 14  2  0
 17 18  2  0
 17 16  1  0
 19 18  1  0
 20 19  2  0
 21 20  1  0
 22 21  1  1
 22 23  1  0
 22 24  1  0
 24 28  1  0
 25 24  2  0
 26 20  1  0
 26 27  2  0
 27 17  1  0
M  END
$$$$
