NPY.pdb
     RDKit          3D

 28 29  0  0  1  0  0  0  0  0999 V2000
   15.0707  -13.3784  -16.8265 N   0  0  0  0  0  0  0  0  0  0  0  0
   15.8459  -13.6775  -15.6828 C   0  0  0  0  0  0  0  0  0  0  0  0
   15.5865  -14.6490  -14.9051 O   0  0  0  0  0  0  0  0  0  0  0  0
   17.0057  -12.8466  -15.3596 C   0  0  0  0  0  0  0  0  0  0  0  0
   17.9641  -12.8246  -16.5605 C   0  0  2  0  0  0  0  0  0  0  0  0
   18.6251  -14.0781  -16.7065 N   0  0  0  0  0  0  0  0  0  0  0  0
   18.8853  -11.6993  -16.4593 C   0  0  0  0  0  0  0  0  0  0  0  0
   19.7241  -11.7703  -15.4911 O   0  0  0  0  0  0  0  0  0  0  0  0
   18.9248  -10.5860  -17.3039 N   0  0  0  0  0  0  0  0  0  0  0  0
   18.7912  -10.6083  -18.7956 C   0  0  0  0  0  0  0  0  0  0  0  0
   17.6312   -9.5925  -18.9390 C   0  0  0  0  0  0  0  0  0  0  0  0
   17.8529   -8.6444  -17.7858 C   0  0  0  0  0  0  0  0  0  0  0  0
   19.1140   -9.1940  -17.0913 C   0  0  1  0  0  0  0  0  0  0  0  0
   19.3048   -8.6438  -15.7754 C   0  0  0  0  0  0  0  0  0  0  0  0
   18.5829   -8.7432  -14.7513 O   0  0  0  0  0  0  0  0  0  0  0  0
   25.6071   -4.9045  -17.4621 O   0  0  0  0  0  0  0  0  0  0  0  0
   24.7504   -5.4906  -16.5534 C   0  0  0  0  0  0  0  0  0  0  0  0
   24.4871   -6.8455  -16.6456 C   0  0  0  0  0  0  0  0  0  0  0  0
   23.6358   -7.4552  -15.7531 C   0  0  0  0  0  0  0  0  0  0  0  0
   23.0266   -6.7346  -14.7481 C   0  0  0  0  0  0  0  0  0  0  0  0
   22.1096   -7.4260  -13.8201 C   0  0  0  0  0  0  0  0  0  0  0  0
   20.6749   -7.1949  -14.2079 C   0  0  2  0  0  0  0  0  0  0  0  0
   20.4872   -7.8309  -15.4895 N   0  0  0  0  0  0  0  0  0  0  0  0
   20.2972   -5.7749  -14.2299 C   0  0  0  0  0  0  0  0  0  0  0  0
   20.2150   -5.0613  -13.1925 O   0  0  0  0  0  0  0  0  0  0  0  0
   23.2786   -5.3826  -14.6414 C   0  0  0  0  0  0  0  0  0  0  0  0
   24.1315   -4.7637  -15.5334 C   0  0  0  0  0  0  0  0  0  0  0  0
   20.0160   -5.1750  -15.4383 O   0  0  0  0  0  0  0  0  0  0  0  0
  2  1  1  0
  2  4  1  0
  3  2  2  0
  5  4  1  0
  5  6  1  1
  7  8  2  0
  7  5  1  0
  9  7  1  0
 10  9  1  0
 11 10  1  0
 12 11  1  0
 12 13  1  0
 13  9  1  0
 14 23  1  0
 13 14  1  1
 15 14  2  0
 17 18  2  0
 17 16  1  0
 19 18  1  0
 20 19  2  0
 21 20  1  0
 22 21  1  6
 22 23  1  0
 22 24  1  0
 24 28  1  0
 25 24  2  0
 26 20  1  0
 26 27  2  0
 27 17  1  0
M  END
$$$$
