VSM.pdb
     RDKit          3D

 22 21  0  0  1  0  0  0  0  0999 V2000
    7.3572  -12.9011   21.0727 C   0  0  0  0  0  0  0  0  0  0  0  0
    8.4286  -13.4077   20.1641 C   0  0  2  0  0  0  0  0  0  0  0  0
    8.4666  -12.6444   18.8613 C   0  0  0  0  0  0  0  0  0  0  0  0
    8.3923  -14.8991   19.9727 C   0  0  2  0  0  0  0  0  0  0  0  0
    7.3418  -15.2628   19.0619 N   0  0  0  0  0  0  0  0  0  0  0  0
    8.3072  -15.6439   21.2586 C   0  0  0  0  0  0  0  0  0  0  0  0
    7.1791  -15.9795   21.7020 O   0  0  0  0  0  0  0  0  0  0  0  0
   11.4480  -17.6779   22.9219 O   0  0  0  0  0  0  0  0  0  0  0  0
   10.1306  -17.9762   23.2660 C   0  0  0  0  0  0  0  0  0  0  0  0
    9.3260  -16.6959   23.2776 C   0  0  2  0  0  0  0  0  0  0  0  0
    9.4463  -15.9979   22.0171 N   0  0  0  0  0  0  0  0  0  0  0  0
    9.8110  -15.8907   24.4303 C   0  0  0  0  0  0  0  0  0  0  0  0
   10.8101  -15.1610   24.2182 O   0  0  0  0  0  0  0  0  0  0  0  0
    6.3672  -10.7929   26.2851 C   0  0  0  0  0  0  0  0  0  0  0  0
    6.7174  -12.2795   27.2791 S   0  0  0  0  0  0  0  0  0  0  0  0
    8.1931  -13.0667   26.6042 C   0  0  0  0  0  0  0  0  0  0  0  0
    8.6754  -14.2432   27.3386 C   0  0  0  0  0  0  0  0  0  0  0  0
    9.7726  -15.0761   26.7885 C   0  0  2  0  0  0  0  0  0  0  0  0
    9.2143  -15.9162   25.6987 N   0  0  0  0  0  0  0  0  0  0  0  0
   10.5632  -15.8859   27.6954 C   0  0  0  0  0  0  0  0  0  0  0  0
   10.4830  -17.1587   27.7393 O   0  0  0  0  0  0  0  0  0  0  0  0
   11.4681  -15.3321   28.5752 O   0  0  0  0  0  0  0  0  0  0  0  0
  2  1  1  6
  2  3  1  0
  4  2  1  0
  4  5  1  6
  6  4  1  0
  6 11  1  0
  7  6  2  0
  8  9  1  0
 10 11  1  0
 10  9  1  6
 10 12  1  0
 12 19  1  0
 13 12  2  0
 15 14  1  0
 16 15  1  0
 17 16  1  0
 18 17  1  1
 19 18  1  0
 20 22  1  0
 20 18  1  0
 21 20  2  0
M  END
$$$$
