VSM.pdb
     RDKit          3D

 22 21  0  0  1  0  0  0  0  0999 V2000
    6.8494  -13.8463   18.4600 C   0  0  0  0  0  0  0  0  0  0  0  0
    7.9734  -13.0359   19.0169 C   0  0  2  0  0  0  0  0  0  0  0  0
    8.6132  -12.1646   17.9620 C   0  0  0  0  0  0  0  0  0  0  0  0
    8.9710  -13.8528   19.7913 C   0  0  2  0  0  0  0  0  0  0  0  0
    9.7780  -14.6381   18.8983 N   0  0  0  0  0  0  0  0  0  0  0  0
    8.3380  -14.6799   20.8548 C   0  0  0  0  0  0  0  0  0  0  0  0
    7.6380  -14.1186   21.7361 O   0  0  0  0  0  0  0  0  0  0  0  0
    9.6649  -18.4558   21.9531 O   0  0  0  0  0  0  0  0  0  0  0  0
    8.2799  -18.3128   21.8900 C   0  0  0  0  0  0  0  0  0  0  0  0
    7.9327  -16.8468   22.0214 C   0  0  2  0  0  0  0  0  0  0  0  0
    8.4862  -16.0839   20.9249 N   0  0  0  0  0  0  0  0  0  0  0  0
    8.4381  -16.3998   23.3469 C   0  0  0  0  0  0  0  0  0  0  0  0
    9.5967  -15.9171   23.3668 O   0  0  0  0  0  0  0  0  0  0  0  0
    7.0186  -11.0710   28.1877 C   0  0  0  0  0  0  0  0  0  0  0  0
    6.7195  -12.0812   26.7009 S   0  0  0  0  0  0  0  0  0  0  0  0
    7.0297  -13.8061   27.1270 C   0  0  0  0  0  0  0  0  0  0  0  0
    6.9387  -14.7596   26.0140 C   0  0  0  0  0  0  0  0  0  0  0  0
    8.0726  -15.6638   25.7030 C   0  0  2  0  0  0  0  0  0  0  0  0
    7.6944  -16.4945   24.5317 N   0  0  0  0  0  0  0  0  0  0  0  0
    8.6176  -16.4968   26.7576 C   0  0  0  0  0  0  0  0  0  0  0  0
    9.4829  -16.0777   27.5966 O   0  0  0  0  0  0  0  0  0  0  0  0
    8.2301  -17.8080   26.9318 O   0  0  0  0  0  0  0  0  0  0  0  0
  2  1  1  6
  2  3  1  0
  4  2  1  0
  4  5  1  6
  6  4  1  0
  6 11  1  0
  7  6  2  0
  8  9  1  0
 10 11  1  0
 10  9  1  6
 10 12  1  0
 12 19  1  0
 13 12  2  0
 15 14  1  0
 16 15  1  0
 17 16  1  0
 18 17  1  1
 19 18  1  0
 20 22  1  0
 20 18  1  0
 21 20  2  0
M  END
$$$$
