VSM.pdb
     RDKit          3D

 22 21  0  0  1  0  0  0  0  0999 V2000
    7.7509  -12.5884   20.7467 C   0  0  0  0  0  0  0  0  0  0  0  0
    8.6224  -13.2134   19.7075 C   0  0  2  0  0  0  0  0  0  0  0  0
    8.6604  -12.3930   18.4399 C   0  0  0  0  0  0  0  0  0  0  0  0
    8.3106  -14.6641   19.4617 C   0  0  2  0  0  0  0  0  0  0  0  0
    7.0556  -14.7984   18.7745 N   0  0  0  0  0  0  0  0  0  0  0  0
    8.3651  -15.4843   20.7027 C   0  0  0  0  0  0  0  0  0  0  0  0
    7.3180  -15.6448   21.3807 O   0  0  0  0  0  0  0  0  0  0  0  0
   11.8288  -17.5101   21.9907 O   0  0  0  0  0  0  0  0  0  0  0  0
   10.5681  -18.0818   22.1540 C   0  0  0  0  0  0  0  0  0  0  0  0
    9.5470  -16.9778   22.3130 C   0  0  2  0  0  0  0  0  0  0  0  0
    9.5508  -16.1002   21.1639 N   0  0  0  0  0  0  0  0  0  0  0  0
    9.8702  -16.2689   23.5800 C   0  0  0  0  0  0  0  0  0  0  0  0
   10.5451  -15.2160   23.4720 O   0  0  0  0  0  0  0  0  0  0  0  0
    5.5768  -12.7098   26.9356 C   0  0  0  0  0  0  0  0  0  0  0  0
    7.3881  -12.8884   27.0244 S   0  0  0  0  0  0  0  0  0  0  0  0
    7.8520  -14.3475   26.0711 C   0  0  0  0  0  0  0  0  0  0  0  0
    9.2950  -14.5806   25.9320 C   0  0  0  0  0  0  0  0  0  0  0  0
    9.8515  -15.9501   26.0548 C   0  0  2  0  0  0  0  0  0  0  0  0
    9.4631  -16.7177   24.8444 N   0  0  0  0  0  0  0  0  0  0  0  0
    9.5699  -16.7189   27.2518 C   0  0  0  0  0  0  0  0  0  0  0  0
    8.8759  -17.7897   27.2422 O   0  0  0  0  0  0  0  0  0  0  0  0
   10.0421  -16.3461   28.4918 O   0  0  0  0  0  0  0  0  0  0  0  0
  2  1  1  1
  2  3  1  0
  4  2  1  0
  4  5  1  1
  6  4  1  0
  6 11  1  0
  7  6  2  0
  8  9  1  0
 10 11  1  0
 10  9  1  6
 10 12  1  0
 12 19  1  0
 13 12  2  0
 15 14  1  0
 16 15  1  0
 17 16  1  0
 18 17  1  1
 19 18  1  0
 20 22  1  0
 20 18  1  0
 21 20  2  0
M  END
$$$$
