VSM.pdb
     RDKit          3D

 22 21  0  0  1  0  0  0  0  0999 V2000
   12.6128  -19.7949   20.2533 C   0  0  0  0  0  0  0  0  0  0  0  0
   11.8855  -18.6172   20.8139 C   0  0  2  0  0  0  0  0  0  0  0  0
   11.4337  -18.8611   22.2344 C   0  0  0  0  0  0  0  0  0  0  0  0
   10.7822  -18.1178   19.9219 C   0  0  2  0  0  0  0  0  0  0  0  0
   11.2313  -18.0492   18.5585 N   0  0  0  0  0  0  0  0  0  0  0  0
   10.2001  -16.8302   20.3899 C   0  0  0  0  0  0  0  0  0  0  0  0
   10.9020  -15.7873   20.3508 O   0  0  0  0  0  0  0  0  0  0  0  0
    6.1958  -16.2165   20.8616 O   0  0  0  0  0  0  0  0  0  0  0  0
    7.0468  -15.1164   20.7716 C   0  0  0  0  0  0  0  0  0  0  0  0
    8.3730  -15.4705   21.4063 C   0  0  2  0  0  0  0  0  0  0  0  0
    8.8800  -16.7192   20.8828 N   0  0  0  0  0  0  0  0  0  0  0  0
    8.1519  -15.5098   22.8767 C   0  0  0  0  0  0  0  0  0  0  0  0
    7.2187  -16.2464   23.2795 O   0  0  0  0  0  0  0  0  0  0  0  0
    5.5945  -11.1126   27.9614 C   0  0  0  0  0  0  0  0  0  0  0  0
    6.9241  -11.6911   26.8578 S   0  0  0  0  0  0  0  0  0  0  0  0
    6.2477  -12.9871   25.8015 C   0  0  0  0  0  0  0  0  0  0  0  0
    7.1407  -13.4694   24.7403 C   0  0  0  0  0  0  0  0  0  0  0  0
    8.3051  -14.3277   25.0688 C   0  0  2  0  0  0  0  0  0  0  0  0
    8.9201  -14.7807   23.7953 N   0  0  0  0  0  0  0  0  0  0  0  0
    8.1196  -15.4509   25.9672 C   0  0  0  0  0  0  0  0  0  0  0  0
    7.3363  -16.4246   25.7091 O   0  0  0  0  0  0  0  0  0  0  0  0
    8.7873  -15.5478   27.1690 O   0  0  0  0  0  0  0  0  0  0  0  0
  2  1  1  6
  2  3  1  0
  4  2  1  0
  4  5  1  6
  6  4  1  0
  6 11  1  0
  7  6  2  0
  8  9  1  0
 10 11  1  0
 10  9  1  6
 10 12  1  0
 12 19  1  0
 13 12  2  0
 15 14  1  0
 16 15  1  0
 17 16  1  0
 18 17  1  6
 19 18  1  0
 20 22  1  0
 20 18  1  0
 21 20  2  0
M  END
$$$$
