VSM.pdb
     RDKit          3D

 22 21  0  0  1  0  0  0  0  0999 V2000
   15.2826  -16.9863   21.9985 C   0  0  0  0  0  0  0  0  0  0  0  0
   14.8081  -18.2526   21.3649 C   0  0  2  0  0  0  0  0  0  0  0  0
   15.8671  -18.8689   20.4816 C   0  0  0  0  0  0  0  0  0  0  0  0
   13.4764  -18.1139   20.6796 C   0  0  2  0  0  0  0  0  0  0  0  0
   13.5956  -17.2803   19.5150 N   0  0  0  0  0  0  0  0  0  0  0  0
   12.4006  -17.6503   21.5979 C   0  0  0  0  0  0  0  0  0  0  0  0
   12.1761  -16.4179   21.7102 O   0  0  0  0  0  0  0  0  0  0  0  0
   10.1668  -20.2134   24.1253 O   0  0  0  0  0  0  0  0  0  0  0  0
    9.5468  -19.1185   23.5258 C   0  0  0  0  0  0  0  0  0  0  0  0
   10.5859  -18.0521   23.2610 C   0  0  2  0  0  0  0  0  0  0  0  0
   11.6076  -18.5377   22.3605 N   0  0  0  0  0  0  0  0  0  0  0  0
   11.1308  -17.6416   24.5826 C   0  0  0  0  0  0  0  0  0  0  0  0
   12.3039  -18.0077   24.8389 O   0  0  0  0  0  0  0  0  0  0  0  0
    8.4771  -13.0385   28.4814 C   0  0  0  0  0  0  0  0  0  0  0  0
   10.2470  -13.0251   28.9150 S   0  0  0  0  0  0  0  0  0  0  0  0
   10.9248  -14.6542   28.5416 C   0  0  0  0  0  0  0  0  0  0  0  0
   10.5467  -15.2137   27.2377 C   0  0  0  0  0  0  0  0  0  0  0  0
   11.0267  -16.5558   26.8268 C   0  0  2  0  0  0  0  0  0  0  0  0
   10.4081  -16.8880   25.5184 N   0  0  0  0  0  0  0  0  0  0  0  0
   10.8843  -17.6662   27.7488 C   0  0  0  0  0  0  0  0  0  0  0  0
   11.6429  -17.8294   28.7618 O   0  0  0  0  0  0  0  0  0  0  0  0
    9.9072  -18.6262   27.5965 O   0  0  0  0  0  0  0  0  0  0  0  0
  2  1  1  6
  2  3  1  0
  4  2  1  0
  4  5  1  6
  6  4  1  0
  6 11  1  0
  7  6  2  0
  8  9  1  0
 10 11  1  0
 10  9  1  1
 10 12  1  0
 12 19  1  0
 13 12  2  0
 15 14  1  0
 16 15  1  0
 17 16  1  0
 18 17  1  1
 19 18  1  0
 20 22  1  0
 20 18  1  0
 21 20  2  0
M  END
$$$$
