VSM.pdb
     RDKit          3D

 22 21  0  0  1  0  0  0  0  0999 V2000
    9.8192  -13.0707   19.8698 C   0  0  0  0  0  0  0  0  0  0  0  0
    8.5296  -13.2301   19.1338 C   0  0  2  0  0  0  0  0  0  0  0  0
    7.4563  -12.3176   19.6788 C   0  0  0  0  0  0  0  0  0  0  0  0
    8.0828  -14.6615   19.0166 C   0  0  2  0  0  0  0  0  0  0  0  0
    7.0021  -14.7746   18.0760 N   0  0  0  0  0  0  0  0  0  0  0  0
    7.7515  -15.2721   20.3331 C   0  0  0  0  0  0  0  0  0  0  0  0
    6.6787  -14.9532   20.9068 O   0  0  0  0  0  0  0  0  0  0  0  0
   10.2784  -17.9838   22.3095 O   0  0  0  0  0  0  0  0  0  0  0  0
    8.9012  -18.0891   22.4957 C   0  0  0  0  0  0  0  0  0  0  0  0
    8.2740  -16.7286   22.2891 C   0  0  2  0  0  0  0  0  0  0  0  0
    8.5936  -16.2052   20.9798 N   0  0  0  0  0  0  0  0  0  0  0  0
    8.7592  -15.8567   23.3921 C   0  0  0  0  0  0  0  0  0  0  0  0
    9.9231  -15.4022   23.2711 O   0  0  0  0  0  0  0  0  0  0  0  0
    6.2271  -11.6095   27.7153 C   0  0  0  0  0  0  0  0  0  0  0  0
    6.0430  -11.5360   25.9039 S   0  0  0  0  0  0  0  0  0  0  0  0
    6.8347  -12.9972   25.2032 C   0  0  0  0  0  0  0  0  0  0  0  0
    7.6284  -13.7993   26.1428 C   0  0  0  0  0  0  0  0  0  0  0  0
    8.6146  -14.7877   25.6421 C   0  0  2  0  0  0  0  0  0  0  0  0
    7.9917  -15.5356   24.5206 N   0  0  0  0  0  0  0  0  0  0  0  0
    9.2288  -15.7061   26.5816 C   0  0  0  0  0  0  0  0  0  0  0  0
   10.0948  -15.3407   27.4446 O   0  0  0  0  0  0  0  0  0  0  0  0
    8.9119  -17.0471   26.6113 O   0  0  0  0  0  0  0  0  0  0  0  0
  2  1  1  1
  2  3  1  0
  4  2  1  0
  4  5  1  6
  6  4  1  0
  6 11  1  0
  7  6  2  0
  8  9  1  0
 10 11  1  0
 10  9  1  1
 10 12  1  0
 12 19  1  0
 13 12  2  0
 15 14  1  0
 16 15  1  0
 17 16  1  0
 18 17  1  1
 19 18  1  0
 20 22  1  0
 20 18  1  0
 21 20  2  0
M  END
$$$$
