VSM.pdb
     RDKit          3D

 22 21  0  0  1  0  0  0  0  0999 V2000
    9.2859  -18.5551   18.1381 C   0  0  0  0  0  0  0  0  0  0  0  0
   10.1859  -19.1873   19.1483 C   0  0  2  0  0  0  0  0  0  0  0  0
   10.3488  -20.6691   18.9050 C   0  0  0  0  0  0  0  0  0  0  0  0
    9.8113  -18.8607   20.5679 C   0  0  2  0  0  0  0  0  0  0  0  0
    8.6791  -19.6435   20.9811 N   0  0  0  0  0  0  0  0  0  0  0  0
    9.6008  -17.4037   20.7884 C   0  0  0  0  0  0  0  0  0  0  0  0
   10.5967  -16.6364   20.8237 O   0  0  0  0  0  0  0  0  0  0  0  0
    5.8657  -15.8501   21.5821 O   0  0  0  0  0  0  0  0  0  0  0  0
    6.7208  -14.9930   20.8916 C   0  0  0  0  0  0  0  0  0  0  0  0
    8.1502  -15.4088   21.1580 C   0  0  2  0  0  0  0  0  0  0  0  0
    8.3202  -16.8312   20.9626 N   0  0  0  0  0  0  0  0  0  0  0  0
    8.4759  -14.9747   22.5429 C   0  0  0  0  0  0  0  0  0  0  0  0
    8.5520  -13.7365   22.7344 O   0  0  0  0  0  0  0  0  0  0  0  0
    6.3754  -10.7919   26.5953 C   0  0  0  0  0  0  0  0  0  0  0  0
    6.2497  -12.6081   26.5147 S   0  0  0  0  0  0  0  0  0  0  0  0
    7.7485  -13.2366   25.7329 C   0  0  0  0  0  0  0  0  0  0  0  0
    7.7737  -14.6835   25.4836 C   0  0  0  0  0  0  0  0  0  0  0  0
    8.9975  -15.3351   24.9562 C   0  0  2  0  0  0  0  0  0  0  0  0
    8.6928  -15.8659   23.6033 N   0  0  0  0  0  0  0  0  0  0  0  0
    9.6567  -16.3473   25.7588 C   0  0  0  0  0  0  0  0  0  0  0  0
    9.5613  -17.5965   25.5166 O   0  0  0  0  0  0  0  0  0  0  0  0
   10.4437  -16.0264   26.8437 O   0  0  0  0  0  0  0  0  0  0  0  0
  2  1  1  6
  2  3  1  0
  4  2  1  0
  4  5  1  6
  6  4  1  0
  6 11  1  0
  7  6  2  0
  8  9  1  0
 10 11  1  0
 10  9  1  1
 10 12  1  0
 12 19  1  0
 13 12  2  0
 15 14  1  0
 16 15  1  0
 17 16  1  0
 18 17  1  1
 19 18  1  0
 20 22  1  0
 20 18  1  0
 21 20  2  0
M  END
$$$$
