VSM.pdb
     RDKit          3D

 22 21  0  0  1  0  0  0  0  0999 V2000
    7.7308  -12.5746   18.5135 C   0  0  0  0  0  0  0  0  0  0  0  0
    7.7413  -13.3408   19.7953 C   0  0  2  0  0  0  0  0  0  0  0  0
    8.4607  -12.5906   20.8913 C   0  0  0  0  0  0  0  0  0  0  0  0
    8.2198  -14.7581   19.6389 C   0  0  2  0  0  0  0  0  0  0  0  0
    7.4723  -15.4297   18.6114 N   0  0  0  0  0  0  0  0  0  0  0  0
    8.2188  -15.5123   20.9221 C   0  0  0  0  0  0  0  0  0  0  0  0
    7.1224  -15.8626   21.4292 O   0  0  0  0  0  0  0  0  0  0  0  0
   11.6626  -17.1823   22.4675 O   0  0  0  0  0  0  0  0  0  0  0  0
   10.4255  -17.7687   22.7289 C   0  0  0  0  0  0  0  0  0  0  0  0
    9.3742  -16.6837   22.7965 C   0  0  2  0  0  0  0  0  0  0  0  0
    9.4044  -15.8595   21.6090 N   0  0  0  0  0  0  0  0  0  0  0  0
    9.6302  -15.9104   24.0410 C   0  0  0  0  0  0  0  0  0  0  0  0
   10.4849  -14.9945   23.9611 O   0  0  0  0  0  0  0  0  0  0  0  0
    6.2884  -10.9221   26.2824 C   0  0  0  0  0  0  0  0  0  0  0  0
    6.4323  -12.5703   27.0461 S   0  0  0  0  0  0  0  0  0  0  0  0
    7.9337  -13.3470   26.4172 C   0  0  0  0  0  0  0  0  0  0  0  0
    8.2563  -14.6592   26.9919 C   0  0  0  0  0  0  0  0  0  0  0  0
    9.4087  -15.4415   26.4818 C   0  0  2  0  0  0  0  0  0  0  0  0
    8.9752  -16.1582   25.2556 N   0  0  0  0  0  0  0  0  0  0  0  0
   10.0957  -16.3490   27.3805 C   0  0  0  0  0  0  0  0  0  0  0  0
   10.6438  -15.9671   28.4677 O   0  0  0  0  0  0  0  0  0  0  0  0
   10.1991  -17.6990   27.1231 O   0  0  0  0  0  0  0  0  0  0  0  0
  2  1  1  6
  2  3  1  0
  4  2  1  0
  4  5  1  6
  6  4  1  0
  6 11  1  0
  7  6  2  0
  8  9  1  0
 10 11  1  0
 10  9  1  6
 10 12  1  0
 12 19  1  0
 13 12  2  0
 15 14  1  0
 16 15  1  0
 17 16  1  0
 18 17  1  1
 19 18  1  0
 20 22  1  0
 20 18  1  0
 21 20  2  0
M  END
$$$$
