TSE.pdb
     RDKit          3D

 23 22  0  0  1  0  0  0  0  0999 V2000
   11.7318  -18.2697   17.3744 C   0  0  0  0  0  0  0  0  0  0  0  0
   10.4229  -17.5809   17.0406 C   0  0  1  0  0  0  0  0  0  0  0  0
    9.9391  -18.0816   15.8591 O   0  0  0  0  0  0  0  0  0  0  0  0
    9.4851  -17.7667   18.2011 C   0  0  2  0  0  0  0  0  0  0  0  0
    8.1268  -17.5802   17.7316 N   0  0  0  0  0  0  0  0  0  0  0  0
    9.7737  -16.8789   19.3300 C   0  0  0  0  0  0  0  0  0  0  0  0
   10.8974  -16.6994   19.8392 O   0  0  0  0  0  0  0  0  0  0  0  0
    6.5278  -15.4020   21.6651 O   0  0  0  0  0  0  0  0  0  0  0  0
    7.6182  -14.5539   21.4657 C   0  0  0  0  0  0  0  0  0  0  0  0
    8.8657  -15.3345   21.1015 C   0  0  2  0  0  0  0  0  0  0  0  0
    8.6914  -16.1363   19.9247 N   0  0  0  0  0  0  0  0  0  0  0  0
    9.1173  -16.2643   22.2346 C   0  0  0  0  0  0  0  0  0  0  0  0
    8.9453  -17.4990   22.0891 O   0  0  0  0  0  0  0  0  0  0  0  0
    9.5517  -15.8421   23.5084 N   0  0  0  0  0  0  0  0  0  0  0  0
   10.6036  -16.5270   24.2491 C   0  0  1  0  0  0  0  0  0  0  0  0
   11.9204  -16.4647   23.5560 C   0  0  0  0  0  0  0  0  0  0  0  0
   13.0654  -17.1152   24.2478 C   0  0  0  0  0  0  0  0  0  0  0  0
   14.3667  -16.9444   23.5766 C   0  0  0  0  0  0  0  0  0  0  0  0
   15.0659  -15.9187   23.5982 O   0  0  0  0  0  0  0  0  0  0  0  0
   10.6100  -16.0072   25.6250 C   0  0  0  0  0  0  0  0  0  0  0  0
   10.1521  -14.8730   25.8569 O   0  0  0  0  0  0  0  0  0  0  0  0
   14.8704  -18.0297   22.8457 O   0  0  0  0  0  0  0  0  0  0  0  0
   11.1098  -16.7215   26.7207 O   0  0  0  0  0  0  0  0  0  0  0  0
  2  1  1  1
  2  3  1  0
  4  2  1  0
  4  5  1  6
  6  4  1  0
  7  6  2  0
  9  8  1  0
 10  9  1  1
 10 11  1  0
 10 12  1  0
 11  6  1  0
 12 14  1  0
 13 12  2  0
 14 15  1  0
 15 16  1  6
 15 20  1  0
 16 17  1  0
 17 18  1  0
 18 22  1  0
 19 18  2  0
 20 23  1  0
 21 20  2  0
M  END
$$$$
