TSE.pdb
     RDKit          3D

 23 22  0  0  1  0  0  0  0  0999 V2000
    6.9232  -13.1101   19.1278 C   0  0  0  0  0  0  0  0  0  0  0  0
    8.1358  -13.6968   18.4318 C   0  0  1  0  0  0  0  0  0  0  0  0
    9.1149  -12.7400   18.3502 O   0  0  0  0  0  0  0  0  0  0  0  0
    8.5594  -14.9277   19.1843 C   0  0  2  0  0  0  0  0  0  0  0  0
    7.4524  -15.8628   19.2007 N   0  0  0  0  0  0  0  0  0  0  0  0
    9.0252  -14.6464   20.5444 C   0  0  0  0  0  0  0  0  0  0  0  0
   10.0775  -14.0458   20.8380 O   0  0  0  0  0  0  0  0  0  0  0  0
    7.8527  -14.3946   25.2510 O   0  0  0  0  0  0  0  0  0  0  0  0
    7.4414  -14.5807   23.9304 C   0  0  0  0  0  0  0  0  0  0  0  0
    8.6188  -14.8708   23.0207 C   0  0  2  0  0  0  0  0  0  0  0  0
    8.2242  -15.0865   21.6585 N   0  0  0  0  0  0  0  0  0  0  0  0
    9.2179  -16.1403   23.5119 C   0  0  0  0  0  0  0  0  0  0  0  0
    8.7399  -17.2444   23.1547 O   0  0  0  0  0  0  0  0  0  0  0  0
   10.3262  -16.1942   24.3828 N   0  0  0  0  0  0  0  0  0  0  0  0
   10.9021  -17.4496   24.8482 C   0  0  1  0  0  0  0  0  0  0  0  0
   12.3377  -17.5891   24.4770 C   0  0  0  0  0  0  0  0  0  0  0  0
   13.0418  -18.7939   24.9922 C   0  0  0  0  0  0  0  0  0  0  0  0
   14.4769  -18.8559   24.6608 C   0  0  0  0  0  0  0  0  0  0  0  0
   15.1153  -17.9953   24.0339 O   0  0  0  0  0  0  0  0  0  0  0  0
   10.6261  -17.5762   26.2874 C   0  0  0  0  0  0  0  0  0  0  0  0
   10.2997  -16.5692   26.9427 O   0  0  0  0  0  0  0  0  0  0  0  0
   15.1958  -19.9822   25.0859 O   0  0  0  0  0  0  0  0  0  0  0  0
   10.7080  -18.7854   26.9885 O   0  0  0  0  0  0  0  0  0  0  0  0
  2  1  1  1
  2  3  1  0
  4  2  1  0
  4  5  1  1
  6  4  1  0
  7  6  2  0
  9  8  1  0
 10  9  1  1
 10 11  1  0
 10 12  1  0
 11  6  1  0
 12 14  1  0
 13 12  2  0
 14 15  1  0
 15 16  1  1
 15 20  1  0
 16 17  1  0
 17 18  1  0
 18 22  1  0
 19 18  2  0
 20 23  1  0
 21 20  2  0
M  END
$$$$
