TSE.pdb
     RDKit          3D

 23 22  0  0  1  0  0  0  0  0999 V2000
    7.2374  -18.4298   20.3428 C   0  0  0  0  0  0  0  0  0  0  0  0
    8.0645  -17.9782   19.1550 C   0  0  1  0  0  0  0  0  0  0  0  0
    7.6039  -18.6003   18.0229 O   0  0  0  0  0  0  0  0  0  0  0  0
    8.0033  -16.4776   19.0834 C   0  0  2  0  0  0  0  0  0  0  0  0
    8.4025  -16.0619   17.7538 N   0  0  0  0  0  0  0  0  0  0  0  0
    8.8169  -15.8129   20.1043 C   0  0  0  0  0  0  0  0  0  0  0  0
   10.0102  -15.4771   19.9715 O   0  0  0  0  0  0  0  0  0  0  0  0
    7.1393  -15.3536   23.9282 O   0  0  0  0  0  0  0  0  0  0  0  0
    8.0229  -14.3473   23.5349 C   0  0  0  0  0  0  0  0  0  0  0  0
    8.9311  -14.8162   22.4154 C   0  0  2  0  0  0  0  0  0  0  0  0
    8.2190  -15.5069   21.3792 N   0  0  0  0  0  0  0  0  0  0  0  0
    9.8728  -15.7910   23.0276 C   0  0  0  0  0  0  0  0  0  0  0  0
    9.5866  -17.0126   23.0578 O   0  0  0  0  0  0  0  0  0  0  0  0
   11.1105  -15.4273   23.5980 N   0  0  0  0  0  0  0  0  0  0  0  0
   12.0781  -16.4086   24.0724 C   0  0  1  0  0  0  0  0  0  0  0  0
   13.4851  -15.9729   23.8519 C   0  0  0  0  0  0  0  0  0  0  0  0
   14.5448  -16.9671   24.1700 C   0  0  0  0  0  0  0  0  0  0  0  0
   15.9230  -16.4728   23.9984 C   0  0  0  0  0  0  0  0  0  0  0  0
   16.3120  -15.7010   23.1072 O   0  0  0  0  0  0  0  0  0  0  0  0
   11.7505  -16.7396   25.4676 C   0  0  0  0  0  0  0  0  0  0  0  0
   11.1573  -15.9048   26.1755 O   0  0  0  0  0  0  0  0  0  0  0  0
   16.8898  -16.9056   24.9172 O   0  0  0  0  0  0  0  0  0  0  0  0
   12.0696  -17.9632   26.0689 O   0  0  0  0  0  0  0  0  0  0  0  0
  2  1  1  1
  2  3  1  0
  4  2  1  0
  4  5  1  6
  6  4  1  0
  7  6  2  0
  9  8  1  0
 10  9  1  1
 10 11  1  0
 10 12  1  0
 11  6  1  0
 12 14  1  0
 13 12  2  0
 14 15  1  0
 15 16  1  1
 15 20  1  0
 16 17  1  0
 17 18  1  0
 18 22  1  0
 19 18  2  0
 20 23  1  0
 21 20  2  0
M  END
$$$$
