TSE.pdb
     RDKit          3D

 23 22  0  0  1  0  0  0  0  0999 V2000
    6.5071  -20.3131   21.0811 C   0  0  0  0  0  0  0  0  0  0  0  0
    7.2908  -19.7171   19.9280 C   0  0  1  0  0  0  0  0  0  0  0  0
    6.7398  -20.1369   18.7444 O   0  0  0  0  0  0  0  0  0  0  0  0
    7.3007  -18.2223   20.0897 C   0  0  2  0  0  0  0  0  0  0  0  0
    7.7434  -17.6260   18.8453 N   0  0  0  0  0  0  0  0  0  0  0  0
    8.1252  -17.7640   21.2105 C   0  0  0  0  0  0  0  0  0  0  0  0
    9.3603  -17.5974   21.1781 O   0  0  0  0  0  0  0  0  0  0  0  0
    6.1337  -17.1678   24.8153 O   0  0  0  0  0  0  0  0  0  0  0  0
    7.3515  -16.4932   24.7172 C   0  0  0  0  0  0  0  0  0  0  0  0
    8.2296  -17.0928   23.6366 C   0  0  2  0  0  0  0  0  0  0  0  0
    7.4873  -17.4720   22.4691 N   0  0  0  0  0  0  0  0  0  0  0  0
    8.8062  -18.3357   24.2148 C   0  0  0  0  0  0  0  0  0  0  0  0
    8.1871  -19.4233   24.1199 O   0  0  0  0  0  0  0  0  0  0  0  0
   10.0454  -18.3815   24.8871 N   0  0  0  0  0  0  0  0  0  0  0  0
   10.5726  -19.6014   25.4855 C   0  0  1  0  0  0  0  0  0  0  0  0
   12.0054  -19.8276   25.1478 C   0  0  0  0  0  0  0  0  0  0  0  0
   12.5388  -21.1929   25.4006 C   0  0  0  0  0  0  0  0  0  0  0  0
   13.9557  -21.3765   25.0373 C   0  0  0  0  0  0  0  0  0  0  0  0
   14.6175  -22.4147   25.1963 O   0  0  0  0  0  0  0  0  0  0  0  0
   10.2800  -19.5700   26.9266 C   0  0  0  0  0  0  0  0  0  0  0  0
   10.0419  -18.4821   27.4830 O   0  0  0  0  0  0  0  0  0  0  0  0
   14.6266  -20.2891   24.4599 O   0  0  0  0  0  0  0  0  0  0  0  0
   10.2506  -20.7121   27.7362 O   0  0  0  0  0  0  0  0  0  0  0  0
  2  1  1  1
  2  3  1  0
  4  2  1  0
  4  5  1  6
  6  4  1  0
  7  6  2  0
  9  8  1  0
 10  9  1  1
 10 11  1  0
 10 12  1  0
 11  6  1  0
 12 14  1  0
 13 12  2  0
 14 15  1  0
 15 16  1  1
 15 20  1  0
 16 17  1  0
 17 18  1  0
 18 22  1  0
 19 18  2  0
 20 23  1  0
 21 20  2  0
M  END
$$$$
