TSE.pdb
     RDKit          3D

 23 22  0  0  1  0  0  0  0  0999 V2000
    7.8289  -16.4449   18.6101 C   0  0  0  0  0  0  0  0  0  0  0  0
    8.2758  -15.1387   17.9831 C   0  0  1  0  0  0  0  0  0  0  0  0
    7.7507  -15.0427   16.7199 O   0  0  0  0  0  0  0  0  0  0  0  0
    7.8623  -14.0153   18.8930 C   0  0  2  0  0  0  0  0  0  0  0  0
    8.0173  -12.7630   18.1804 N   0  0  0  0  0  0  0  0  0  0  0  0
    8.5997  -13.9903   20.1585 C   0  0  0  0  0  0  0  0  0  0  0  0
    9.8139  -13.7363   20.2824 O   0  0  0  0  0  0  0  0  0  0  0  0
    6.5564  -15.2341   23.6194 O   0  0  0  0  0  0  0  0  0  0  0  0
    7.5461  -14.2689   23.8118 C   0  0  0  0  0  0  0  0  0  0  0  0
    8.5353  -14.2555   22.6632 C   0  0  2  0  0  0  0  0  0  0  0  0
    7.8928  -14.2784   21.3808 N   0  0  0  0  0  0  0  0  0  0  0  0
    9.3248  -15.5101   22.7826 C   0  0  0  0  0  0  0  0  0  0  0  0
    8.9832  -16.5350   22.1438 O   0  0  0  0  0  0  0  0  0  0  0  0
   10.4728  -15.6353   23.5926 N   0  0  0  0  0  0  0  0  0  0  0  0
   11.1655  -16.9029   23.7870 C   0  0  1  0  0  0  0  0  0  0  0  0
   12.6059  -16.8267   23.4163 C   0  0  0  0  0  0  0  0  0  0  0  0
   12.9104  -16.6528   21.9707 C   0  0  0  0  0  0  0  0  0  0  0  0
   14.2428  -16.0898   21.6865 C   0  0  0  0  0  0  0  0  0  0  0  0
   15.3279  -16.5760   22.0434 O   0  0  0  0  0  0  0  0  0  0  0  0
   10.9096  -17.3603   25.1613 C   0  0  0  0  0  0  0  0  0  0  0  0
   10.2694  -16.6332   25.9432 O   0  0  0  0  0  0  0  0  0  0  0  0
   14.3033  -14.8994   20.9480 O   0  0  0  0  0  0  0  0  0  0  0  0
   11.3495  -18.5915   25.6625 O   0  0  0  0  0  0  0  0  0  0  0  0
  2  1  1  1
  2  3  1  0
  4  2  1  0
  4  5  1  6
  6  4  1  0
  7  6  2  0
  9  8  1  0
 10  9  1  1
 10 11  1  0
 10 12  1  0
 11  6  1  0
 12 14  1  0
 13 12  2  0
 14 15  1  0
 15 16  1  1
 15 20  1  0
 16 17  1  0
 17 18  1  0
 18 22  1  0
 19 18  2  0
 20 23  1  0
 21 20  2  0
M  END
$$$$
