TSE.pdb
     RDKit          3D

 23 22  0  0  1  0  0  0  0  0999 V2000
    8.9302  -19.2285   20.1952 C   0  0  0  0  0  0  0  0  0  0  0  0
    9.1252  -18.4445   18.9121 C   0  0  1  0  0  0  0  0  0  0  0  0
    8.5180  -19.1122   17.8796 O   0  0  0  0  0  0  0  0  0  0  0  0
    8.5921  -17.0548   19.1253 C   0  0  2  0  0  0  0  0  0  0  0  0
    8.4957  -16.3948   17.8387 N   0  0  0  0  0  0  0  0  0  0  0  0
    9.3937  -16.2613   20.0601 C   0  0  0  0  0  0  0  0  0  0  0  0
   10.5487  -15.8432   19.8471 O   0  0  0  0  0  0  0  0  0  0  0  0
    7.9979  -15.8352   24.0467 O   0  0  0  0  0  0  0  0  0  0  0  0
    8.7084  -14.7630   23.5048 C   0  0  0  0  0  0  0  0  0  0  0  0
    9.5726  -15.2051   22.3404 C   0  0  2  0  0  0  0  0  0  0  0  0
    8.8301  -15.9177   21.3411 N   0  0  0  0  0  0  0  0  0  0  0  0
   10.5730  -16.1505   22.9035 C   0  0  0  0  0  0  0  0  0  0  0  0
   10.3793  -17.3888   22.8378 O   0  0  0  0  0  0  0  0  0  0  0  0
   11.7686  -15.7398   23.5292 N   0  0  0  0  0  0  0  0  0  0  0  0
   12.8447  -16.6664   23.8575 C   0  0  1  0  0  0  0  0  0  0  0  0
   14.1755  -16.1772   23.4018 C   0  0  0  0  0  0  0  0  0  0  0  0
   15.3394  -17.0581   23.6881 C   0  0  0  0  0  0  0  0  0  0  0  0
   16.6433  -16.5075   23.2760 C   0  0  0  0  0  0  0  0  0  0  0  0
   17.1508  -16.6095   22.1476 O   0  0  0  0  0  0  0  0  0  0  0  0
   12.7636  -16.9746   25.2934 C   0  0  0  0  0  0  0  0  0  0  0  0
   12.2359  -16.1569   26.0699 O   0  0  0  0  0  0  0  0  0  0  0  0
   17.3859  -15.8037   24.2348 O   0  0  0  0  0  0  0  0  0  0  0  0
   13.2533  -18.1573   25.8607 O   0  0  0  0  0  0  0  0  0  0  0  0
  2  1  1  1
  2  3  1  0
  4  2  1  0
  4  5  1  6
  6  4  1  0
  7  6  2  0
  9  8  1  0
 10  9  1  1
 10 11  1  0
 10 12  1  0
 11  6  1  0
 12 14  1  0
 13 12  2  0
 14 15  1  0
 15 16  1  1
 15 20  1  0
 16 17  1  0
 17 18  1  0
 18 22  1  0
 19 18  2  0
 20 23  1  0
 21 20  2  0
M  END
$$$$
