TSE.pdb
     RDKit          3D

 23 22  0  0  1  0  0  0  0  0999 V2000
    7.9674  -16.5665   18.5485 C   0  0  0  0  0  0  0  0  0  0  0  0
    8.3650  -15.2584   17.8928 C   0  0  1  0  0  0  0  0  0  0  0  0
    7.8595  -15.2215   16.6186 O   0  0  0  0  0  0  0  0  0  0  0  0
    7.8834  -14.1312   18.7635 C   0  0  2  0  0  0  0  0  0  0  0  0
    8.0099  -12.8907   18.0250 N   0  0  0  0  0  0  0  0  0  0  0  0
    8.5839  -14.0478   20.0474 C   0  0  0  0  0  0  0  0  0  0  0  0
    9.7728  -13.7057   20.2010 O   0  0  0  0  0  0  0  0  0  0  0  0
    6.6563  -15.6386   23.4235 O   0  0  0  0  0  0  0  0  0  0  0  0
    7.4902  -14.5478   23.6734 C   0  0  0  0  0  0  0  0  0  0  0  0
    8.4845  -14.3433   22.5475 C   0  0  2  0  0  0  0  0  0  0  0  0
    7.8682  -14.3818   21.2527 N   0  0  0  0  0  0  0  0  0  0  0  0
    9.4312  -15.4881   22.6188 C   0  0  0  0  0  0  0  0  0  0  0  0
    9.2586  -16.4970   21.8926 O   0  0  0  0  0  0  0  0  0  0  0  0
   10.5509  -15.5222   23.4760 N   0  0  0  0  0  0  0  0  0  0  0  0
   11.4840  -16.6413   23.5090 C   0  0  1  0  0  0  0  0  0  0  0  0
   12.8417  -16.2645   23.0267 C   0  0  0  0  0  0  0  0  0  0  0  0
   13.8638  -17.3451   23.0115 C   0  0  0  0  0  0  0  0  0  0  0  0
   15.1864  -16.9335   22.5071 C   0  0  0  0  0  0  0  0  0  0  0  0
   16.2469  -17.5624   22.6522 O   0  0  0  0  0  0  0  0  0  0  0  0
   11.4533  -17.2256   24.8586 C   0  0  0  0  0  0  0  0  0  0  0  0
   12.0348  -18.3047   25.0757 O   0  0  0  0  0  0  0  0  0  0  0  0
   15.2668  -15.7261   21.7989 O   0  0  0  0  0  0  0  0  0  0  0  0
   10.7963  -16.6337   25.9442 O   0  0  0  0  0  0  0  0  0  0  0  0
  2  1  1  1
  2  3  1  0
  4  2  1  0
  4  5  1  6
  6  4  1  0
  7  6  2  0
  9  8  1  0
 10  9  1  1
 10 11  1  0
 10 12  1  0
 11  6  1  0
 12 14  1  0
 13 12  2  0
 14 15  1  0
 15 16  1  1
 15 20  1  0
 16 17  1  0
 17 18  1  0
 18 22  1  0
 19 18  2  0
 20 23  1  0
 21 20  2  0
M  END
$$$$
