TSE.pdb
     RDKit          3D

 23 22  0  0  1  0  0  0  0  0999 V2000
    8.6006  -12.6051   19.9963 C   0  0  0  0  0  0  0  0  0  0  0  0
    7.8024  -13.2094   18.8577 C   0  0  1  0  0  0  0  0  0  0  0  0
    6.9879  -12.2470   18.3182 O   0  0  0  0  0  0  0  0  0  0  0  0
    8.7685  -13.8022   17.8697 C   0  0  2  0  0  0  0  0  0  0  0  0
    8.0329  -14.1996   16.6860 N   0  0  0  0  0  0  0  0  0  0  0  0
    9.5356  -14.9274   18.4097 C   0  0  0  0  0  0  0  0  0  0  0  0
    9.2249  -16.1301   18.3050 O   0  0  0  0  0  0  0  0  0  0  0  0
   13.4332  -14.1315   19.7554 O   0  0  0  0  0  0  0  0  0  0  0  0
   13.0822  -15.4150   19.3343 C   0  0  0  0  0  0  0  0  0  0  0  0
   11.6173  -15.7018   19.5989 C   0  0  2  0  0  0  0  0  0  0  0  0
   10.7559  -14.6564   19.1266 N   0  0  0  0  0  0  0  0  0  0  0  0
   11.4680  -15.7610   21.0774 C   0  0  0  0  0  0  0  0  0  0  0  0
   11.5435  -14.7123   21.7627 O   0  0  0  0  0  0  0  0  0  0  0  0
   11.2389  -16.9560   21.7911 N   0  0  0  0  0  0  0  0  0  0  0  0
   11.1235  -16.9964   23.2434 C   0  0  1  0  0  0  0  0  0  0  0  0
   10.1343  -18.0085   23.7076 C   0  0  0  0  0  0  0  0  0  0  0  0
    8.8381  -18.0515   22.9792 C   0  0  0  0  0  0  0  0  0  0  0  0
    7.9092  -19.0998   23.4388 C   0  0  0  0  0  0  0  0  0  0  0  0
    8.1337  -19.9258   24.3380 O   0  0  0  0  0  0  0  0  0  0  0  0
   12.4727  -17.1546   23.8074 C   0  0  0  0  0  0  0  0  0  0  0  0
   13.4203  -17.4613   23.0604 O   0  0  0  0  0  0  0  0  0  0  0  0
    6.6573  -19.1815   22.8125 O   0  0  0  0  0  0  0  0  0  0  0  0
   12.7708  -16.9787   25.1641 O   0  0  0  0  0  0  0  0  0  0  0  0
  2  1  1  1
  2  3  1  0
  4  2  1  0
  4  5  1  6
  6  4  1  0
  7  6  2  0
  9  8  1  0
 10  9  1  1
 10 11  1  0
 10 12  1  0
 11  6  1  0
 12 14  1  0
 13 12  2  0
 14 15  1  0
 15 16  1  6
 15 20  1  0
 16 17  1  0
 17 18  1  0
 18 22  1  0
 19 18  2  0
 20 23  1  0
 21 20  2  0
M  END
$$$$
