QFA.pdb
     RDKit          3D

 26 26  0  0  1  0  0  0  0  0999 V2000
    8.8830  -12.8107   16.4699 N   0  0  0  0  0  0  0  0  0  0  0  0
    8.0998  -13.9700   16.3022 C   0  0  0  0  0  0  0  0  0  0  0  0
    7.5067  -14.1283   15.2080 O   0  0  0  0  0  0  0  0  0  0  0  0
    8.0132  -14.9329   17.4081 C   0  0  0  0  0  0  0  0  0  0  0  0
    8.8426  -14.5289   18.5739 C   0  0  0  0  0  0  0  0  0  0  0  0
    9.0878  -15.5792   19.6023 C   0  0  2  0  0  0  0  0  0  0  0  0
    7.9293  -16.4888   19.5383 N   0  0  0  0  0  0  0  0  0  0  0  0
    9.2176  -15.0392   20.9822 C   0  0  0  0  0  0  0  0  0  0  0  0
   10.2450  -14.3776   21.2764 O   0  0  0  0  0  0  0  0  0  0  0  0
    8.2501  -15.2272   21.9848 N   0  0  0  0  0  0  0  0  0  0  0  0
    8.3523  -14.7036   23.3339 C   0  0  1  0  0  0  0  0  0  0  0  0
    7.0389  -14.0334   23.6503 C   0  0  0  0  0  0  0  0  0  0  0  0
    7.0503  -13.4350   25.0106 C   0  0  0  0  0  0  0  0  0  0  0  0
    7.8277  -12.3280   25.2963 C   0  0  0  0  0  0  0  0  0  0  0  0
    7.8562  -11.7535   26.5505 C   0  0  0  0  0  0  0  0  0  0  0  0
    7.0889  -12.2932   27.5559 C   0  0  0  0  0  0  0  0  0  0  0  0
    6.3084  -13.3844   27.3161 C   0  0  0  0  0  0  0  0  0  0  0  0
    6.2953  -13.9437   26.0520 C   0  0  0  0  0  0  0  0  0  0  0  0
    8.6865  -15.8089   24.2238 C   0  0  0  0  0  0  0  0  0  0  0  0
    7.8817  -16.7606   24.4322 O   0  0  0  0  0  0  0  0  0  0  0  0
   11.8074  -17.3209   25.6600 C   0  0  0  0  0  0  0  0  0  0  0  0
   10.3237  -17.0371   25.7102 C   0  0  2  0  0  0  0  0  0  0  0  0
    9.9330  -15.9111   24.9267 N   0  0  0  0  0  0  0  0  0  0  0  0
    9.9134  -16.9176   27.1330 C   0  0  0  0  0  0  0  0  0  0  0  0
   10.1558  -17.8587   27.9102 O   0  0  0  0  0  0  0  0  0  0  0  0
    9.2730  -15.7952   27.6145 O   0  0  0  0  0  0  0  0  0  0  0  0
  2  1  1  0
  3  2  2  0
  4  2  1  0
  5  4  1  0
  6  5  1  0
  6  7  1  1
  8  6  1  0
  8 10  1  0
  9  8  2  0
 11 10  1  0
 11 12  1  1
 12 13  1  0
 13 18  2  0
 13 14  1  0
 14 15  2  0
 15 16  1  0
 17 16  2  0
 18 17  1  0
 19 11  1  0
 20 19  2  0
 22 21  1  1
 22 24  1  0
 22 23  1  0
 23 19  1  0
 24 26  1  0
 25 24  2  0
M  END
$$$$
