QFA.pdb
     RDKit          3D

 26 26  0  0  1  0  0  0  0  0999 V2000
    8.8018  -12.1439   18.8134 N   0  0  0  0  0  0  0  0  0  0  0  0
    8.1863  -13.2271   18.1551 C   0  0  0  0  0  0  0  0  0  0  0  0
    7.7444  -13.0392   16.9960 O   0  0  0  0  0  0  0  0  0  0  0  0
    8.0900  -14.5172   18.8509 C   0  0  0  0  0  0  0  0  0  0  0  0
    8.6093  -14.4478   20.2422 C   0  0  0  0  0  0  0  0  0  0  0  0
    8.7504  -15.7476   20.9573 C   0  0  2  0  0  0  0  0  0  0  0  0
    7.4492  -16.4279   20.8240 N   0  0  0  0  0  0  0  0  0  0  0  0
    9.0856  -15.5981   22.3987 C   0  0  0  0  0  0  0  0  0  0  0  0
   10.1133  -14.9468   22.7142 O   0  0  0  0  0  0  0  0  0  0  0  0
    8.3136  -16.1475   23.4374 N   0  0  0  0  0  0  0  0  0  0  0  0
    8.5480  -15.9102   24.8493 C   0  0  1  0  0  0  0  0  0  0  0  0
    7.2182  -15.5564   25.4664 C   0  0  0  0  0  0  0  0  0  0  0  0
    7.1744  -14.1287   25.8767 C   0  0  0  0  0  0  0  0  0  0  0  0
    6.1406  -13.3029   25.4758 C   0  0  0  0  0  0  0  0  0  0  0  0
    6.0764  -11.9743   25.8428 C   0  0  0  0  0  0  0  0  0  0  0  0
    7.0694  -11.4454   26.6334 C   0  0  0  0  0  0  0  0  0  0  0  0
    8.1063  -12.2255   27.0503 C   0  0  0  0  0  0  0  0  0  0  0  0
    8.1504  -13.5539   26.6706 C   0  0  0  0  0  0  0  0  0  0  0  0
    9.1668  -17.1043   25.4118 C   0  0  0  0  0  0  0  0  0  0  0  0
    8.5548  -18.2088   25.4622 O   0  0  0  0  0  0  0  0  0  0  0  0
   12.6427  -18.2689   26.3221 C   0  0  0  0  0  0  0  0  0  0  0  0
   11.1374  -18.2993   26.4546 C   0  0  2  0  0  0  0  0  0  0  0  0
   10.4978  -17.1299   25.9467 N   0  0  0  0  0  0  0  0  0  0  0  0
   10.7934  -18.5721   27.8738 C   0  0  0  0  0  0  0  0  0  0  0  0
   10.0686  -17.7647   28.4832 O   0  0  0  0  0  0  0  0  0  0  0  0
   11.2543  -19.6925   28.5326 O   0  0  0  0  0  0  0  0  0  0  0  0
  2  1  1  0
  3  2  2  0
  4  2  1  0
  5  4  1  0
  6  5  1  0
  6  7  1  1
  8  6  1  0
  8 10  1  0
  9  8  2  0
 11 10  1  0
 11 12  1  1
 12 13  1  0
 13 18  2  0
 13 14  1  0
 14 15  2  0
 15 16  1  0
 17 16  2  0
 18 17  1  0
 19 11  1  0
 20 19  2  0
 22 21  1  1
 22 24  1  0
 22 23  1  0
 23 19  1  0
 24 26  1  0
 25 24  2  0
M  END
$$$$
