QFA.pdb
     RDKit          3D

 26 26  0  0  1  0  0  0  0  0999 V2000
   10.7934  -21.3555   22.6682 N   0  0  0  0  0  0  0  0  0  0  0  0
   11.4526  -20.9279   21.4985 C   0  0  0  0  0  0  0  0  0  0  0  0
   12.3217  -21.6838   21.0011 O   0  0  0  0  0  0  0  0  0  0  0  0
   11.0957  -19.6260   20.9195 C   0  0  0  0  0  0  0  0  0  0  0  0
   10.0801  -18.9065   21.7325 C   0  0  0  0  0  0  0  0  0  0  0  0
    9.6301  -17.5871   21.2056 C   0  0  2  0  0  0  0  0  0  0  0  0
   10.5472  -17.2572   20.0994 N   0  0  0  0  0  0  0  0  0  0  0  0
    9.6664  -16.4999   22.2199 C   0  0  0  0  0  0  0  0  0  0  0  0
   10.7369  -15.8613   22.3811 O   0  0  0  0  0  0  0  0  0  0  0  0
    8.5638  -16.1418   23.0155 N   0  0  0  0  0  0  0  0  0  0  0  0
    8.5803  -15.0942   24.0190 C   0  0  1  0  0  0  0  0  0  0  0  0
    7.2001  -14.4875   24.0497 C   0  0  0  0  0  0  0  0  0  0  0  0
    7.1083  -13.4015   25.0600 C   0  0  0  0  0  0  0  0  0  0  0  0
    6.4229  -13.5871   26.2462 C   0  0  0  0  0  0  0  0  0  0  0  0
    6.3229  -12.5954   27.2004 C   0  0  0  0  0  0  0  0  0  0  0  0
    6.9218  -11.3787   26.9725 C   0  0  0  0  0  0  0  0  0  0  0  0
    7.6071  -11.1547   25.8160 C   0  0  0  0  0  0  0  0  0  0  0  0
    7.6945  -12.1626   24.8738 C   0  0  0  0  0  0  0  0  0  0  0  0
    8.9989  -15.6862   25.2838 C   0  0  0  0  0  0  0  0  0  0  0  0
    8.4781  -16.7500   25.7240 O   0  0  0  0  0  0  0  0  0  0  0  0
   12.1090  -15.5344   27.3471 C   0  0  0  0  0  0  0  0  0  0  0  0
   10.6288  -15.8099   27.2143 C   0  0  2  0  0  0  0  0  0  0  0  0
   10.0182  -15.1243   26.1227 N   0  0  0  0  0  0  0  0  0  0  0  0
    9.9750  -15.5165   28.5155 C   0  0  0  0  0  0  0  0  0  0  0  0
   10.4123  -16.0616   29.5451 O   0  0  0  0  0  0  0  0  0  0  0  0
    8.8995  -14.6589   28.6132 O   0  0  0  0  0  0  0  0  0  0  0  0
  2  1  1  0
  3  2  2  0
  4  2  1  0
  5  4  1  0
  6  5  1  0
  6  7  1  6
  8  6  1  0
  8 10  1  0
  9  8  2  0
 11 10  1  0
 11 12  1  1
 12 13  1  0
 13 18  2  0
 13 14  1  0
 14 15  2  0
 15 16  1  0
 17 16  2  0
 18 17  1  0
 19 11  1  0
 20 19  2  0
 22 21  1  1
 22 24  1  0
 22 23  1  0
 23 19  1  0
 24 26  1  0
 25 24  2  0
M  END
$$$$
