QFA.pdb
     RDKit          3D

 26 26  0  0  1  0  0  0  0  0999 V2000
    8.6923  -12.4259   18.6124 N   0  0  0  0  0  0  0  0  0  0  0  0
    8.4635  -13.7070   18.0722 C   0  0  0  0  0  0  0  0  0  0  0  0
    8.1306  -13.7876   16.8652 O   0  0  0  0  0  0  0  0  0  0  0  0
    8.6233  -14.8811   18.9403 C   0  0  0  0  0  0  0  0  0  0  0  0
    8.9411  -14.5061   20.3434 C   0  0  0  0  0  0  0  0  0  0  0  0
    9.3220  -15.6235   21.2528 C   0  0  2  0  0  0  0  0  0  0  0  0
    8.2272  -16.6073   21.1682 N   0  0  0  0  0  0  0  0  0  0  0  0
    9.5006  -15.2018   22.6679 C   0  0  0  0  0  0  0  0  0  0  0  0
   10.2573  -14.2294   22.9163 O   0  0  0  0  0  0  0  0  0  0  0  0
    8.8669  -15.8327   23.7529 N   0  0  0  0  0  0  0  0  0  0  0  0
    8.9406  -15.3741   25.1274 C   0  0  1  0  0  0  0  0  0  0  0  0
    7.5300  -15.3393   25.6596 C   0  0  0  0  0  0  0  0  0  0  0  0
    7.0330  -13.9444   25.7854 C   0  0  0  0  0  0  0  0  0  0  0  0
    6.9898  -13.3108   27.0134 C   0  0  0  0  0  0  0  0  0  0  0  0
    6.5331  -12.0167   27.1573 C   0  0  0  0  0  0  0  0  0  0  0  0
    6.1046  -11.3266   26.0478 C   0  0  0  0  0  0  0  0  0  0  0  0
    6.1308  -11.9148   24.8186 C   0  0  0  0  0  0  0  0  0  0  0  0
    6.5924  -13.2122   24.6978 C   0  0  0  0  0  0  0  0  0  0  0  0
    9.8302  -16.2703   25.8559 C   0  0  0  0  0  0  0  0  0  0  0  0
    9.6654  -17.5231   25.8454 O   0  0  0  0  0  0  0  0  0  0  0  0
   10.1539  -14.8417   28.7439 C   0  0  0  0  0  0  0  0  0  0  0  0
   11.0139  -15.8774   28.0566 C   0  0  2  0  0  0  0  0  0  0  0  0
   10.9481  -15.8177   26.6331 N   0  0  0  0  0  0  0  0  0  0  0  0
   10.6598  -17.2167   28.5929 C   0  0  0  0  0  0  0  0  0  0  0  0
    9.6559  -17.7987   28.1434 O   0  0  0  0  0  0  0  0  0  0  0  0
   11.4113  -17.8311   29.5725 O   0  0  0  0  0  0  0  0  0  0  0  0
  2  1  1  0
  3  2  2  0
  4  2  1  0
  5  4  1  0
  6  5  1  0
  6  7  1  1
  8  6  1  0
  8 10  1  0
  9  8  2  0
 11 10  1  0
 11 12  1  1
 12 13  1  0
 13 18  2  0
 13 14  1  0
 14 15  2  0
 15 16  1  0
 17 16  2  0
 18 17  1  0
 19 11  1  0
 20 19  2  0
 22 21  1  1
 22 24  1  0
 22 23  1  0
 23 19  1  0
 24 26  1  0
 25 24  2  0
M  END
$$$$
