QFA.pdb
     RDKit          3D

 26 26  0  0  1  0  0  0  0  0999 V2000
    9.0241  -13.1715   17.2633 N   0  0  0  0  0  0  0  0  0  0  0  0
    8.0444  -14.1813   17.3413 C   0  0  0  0  0  0  0  0  0  0  0  0
    7.1060  -14.1587   16.5089 O   0  0  0  0  0  0  0  0  0  0  0  0
    8.1650  -15.2064   18.3864 C   0  0  0  0  0  0  0  0  0  0  0  0
    9.4198  -15.0668   19.1714 C   0  0  0  0  0  0  0  0  0  0  0  0
    9.5549  -15.9562   20.3595 C   0  0  2  0  0  0  0  0  0  0  0  0
    8.4274  -16.9034   20.2882 N   0  0  0  0  0  0  0  0  0  0  0  0
    9.5075  -15.2265   21.6548 C   0  0  0  0  0  0  0  0  0  0  0  0
   10.3992  -14.3753   21.9002 O   0  0  0  0  0  0  0  0  0  0  0  0
    8.5152  -15.4352   22.6287 N   0  0  0  0  0  0  0  0  0  0  0  0
    8.4479  -14.7336   23.8967 C   0  0  1  0  0  0  0  0  0  0  0  0
    7.0906  -14.0806   23.9709 C   0  0  0  0  0  0  0  0  0  0  0  0
    6.9476  -13.2678   25.2068 C   0  0  0  0  0  0  0  0  0  0  0  0
    6.0117  -13.5941   26.1707 C   0  0  0  0  0  0  0  0  0  0  0  0
    5.8589  -12.8563   27.3267 C   0  0  0  0  0  0  0  0  0  0  0  0
    6.6598  -11.7582   27.5354 C   0  0  0  0  0  0  0  0  0  0  0  0
    7.5949  -11.4022   26.6100 C   0  0  0  0  0  0  0  0  0  0  0  0
    7.7307  -12.1559   25.4591 C   0  0  0  0  0  0  0  0  0  0  0  0
    8.7044  -15.6968   24.9606 C   0  0  0  0  0  0  0  0  0  0  0  0
    8.6634  -15.3667   26.1796 O   0  0  0  0  0  0  0  0  0  0  0  0
    9.0950  -19.4547   25.3337 C   0  0  0  0  0  0  0  0  0  0  0  0
    9.3265  -18.0192   25.7465 C   0  0  2  0  0  0  0  0  0  0  0  0
    9.0194  -17.0759   24.7217 N   0  0  0  0  0  0  0  0  0  0  0  0
   10.7189  -17.8905   26.2479 C   0  0  0  0  0  0  0  0  0  0  0  0
   11.4649  -17.0341   25.7392 O   0  0  0  0  0  0  0  0  0  0  0  0
   11.2060  -18.6919   27.2589 O   0  0  0  0  0  0  0  0  0  0  0  0
  2  1  1  0
  3  2  2  0
  4  2  1  0
  5  4  1  0
  6  5  1  0
  6  7  1  1
  8  6  1  0
  8 10  1  0
  9  8  2  0
 11 10  1  0
 11 12  1  1
 12 13  1  0
 13 18  2  0
 13 14  1  0
 14 15  2  0
 15 16  1  0
 17 16  2  0
 18 17  1  0
 19 11  1  0
 20 19  2  0
 22 21  1  6
 22 24  1  0
 22 23  1  0
 23 19  1  0
 24 26  1  0
 25 24  2  0
M  END
$$$$
