QFA.pdb
     RDKit          3D

 26 26  0  0  1  0  0  0  0  0999 V2000
    7.9330  -12.9336   16.2996 N   0  0  0  0  0  0  0  0  0  0  0  0
    8.1249  -14.2864   16.6442 C   0  0  0  0  0  0  0  0  0  0  0  0
    8.5372  -15.0692   15.7546 O   0  0  0  0  0  0  0  0  0  0  0  0
    7.8348  -14.7156   18.0187 C   0  0  0  0  0  0  0  0  0  0  0  0
    9.0172  -14.5880   18.9108 C   0  0  0  0  0  0  0  0  0  0  0  0
    9.1656  -15.6355   19.9603 C   0  0  2  0  0  0  0  0  0  0  0  0
    7.9593  -16.4781   19.8667 N   0  0  0  0  0  0  0  0  0  0  0  0
    9.2786  -15.0839   21.3370 C   0  0  0  0  0  0  0  0  0  0  0  0
   10.2801  -14.3809   21.6245 O   0  0  0  0  0  0  0  0  0  0  0  0
    8.3224  -15.3047   22.3438 N   0  0  0  0  0  0  0  0  0  0  0  0
    8.3540  -14.6879   23.6566 C   0  0  1  0  0  0  0  0  0  0  0  0
    6.9701  -14.1542   23.9294 C   0  0  0  0  0  0  0  0  0  0  0  0
    6.9359  -13.3524   25.1802 C   0  0  0  0  0  0  0  0  0  0  0  0
    7.7002  -12.2082   25.3149 C   0  0  0  0  0  0  0  0  0  0  0  0
    7.6865  -11.4462   26.4653 C   0  0  0  0  0  0  0  0  0  0  0  0
    6.8891  -11.8300   27.5177 C   0  0  0  0  0  0  0  0  0  0  0  0
    6.1203  -12.9516   27.4257 C   0  0  0  0  0  0  0  0  0  0  0  0
    6.1496  -13.6999   26.2638 C   0  0  0  0  0  0  0  0  0  0  0  0
    8.8061  -15.6885   24.6155 C   0  0  0  0  0  0  0  0  0  0  0  0
    8.6200  -15.5501   25.8577 O   0  0  0  0  0  0  0  0  0  0  0  0
    9.9370  -19.2942   24.5154 C   0  0  0  0  0  0  0  0  0  0  0  0
    9.8553  -17.9265   25.1536 C   0  0  2  0  0  0  0  0  0  0  0  0
    9.4883  -16.8938   24.2407 N   0  0  0  0  0  0  0  0  0  0  0  0
   11.1399  -17.6511   25.8469 C   0  0  0  0  0  0  0  0  0  0  0  0
   11.5277  -18.4374   26.7300 O   0  0  0  0  0  0  0  0  0  0  0  0
   11.9122  -16.5507   25.5395 O   0  0  0  0  0  0  0  0  0  0  0  0
  2  1  1  0
  3  2  2  0
  4  2  1  0
  5  4  1  0
  6  5  1  0
  6  7  1  1
  8  6  1  0
  8 10  1  0
  9  8  2  0
 11 10  1  0
 11 12  1  1
 12 13  1  0
 13 18  2  0
 13 14  1  0
 14 15  2  0
 15 16  1  0
 17 16  2  0
 18 17  1  0
 19 11  1  0
 20 19  2  0
 22 21  1  6
 22 24  1  0
 22 23  1  0
 23 19  1  0
 24 26  1  0
 25 24  2  0
M  END
$$$$
