QFA.pdb
     RDKit          3D

 26 26  0  0  1  0  0  0  0  0999 V2000
   12.8926  -20.2724   22.6313 N   0  0  0  0  0  0  0  0  0  0  0  0
   12.3306  -20.1821   21.3424 C   0  0  0  0  0  0  0  0  0  0  0  0
   11.7272  -21.1849   20.8901 O   0  0  0  0  0  0  0  0  0  0  0  0
   12.4761  -18.9278   20.5920 C   0  0  0  0  0  0  0  0  0  0  0  0
   12.1718  -17.7341   21.4243 C   0  0  0  0  0  0  0  0  0  0  0  0
   10.7736  -17.2232   21.3554 C   0  0  2  0  0  0  0  0  0  0  0  0
   10.6010  -16.6947   19.9899 N   0  0  0  0  0  0  0  0  0  0  0  0
   10.4857  -16.1483   22.3424 C   0  0  0  0  0  0  0  0  0  0  0  0
   11.3038  -15.2011   22.4580 O   0  0  0  0  0  0  0  0  0  0  0  0
    9.3423  -16.1299   23.1603 N   0  0  0  0  0  0  0  0  0  0  0  0
    9.0300  -15.0808   24.1125 C   0  0  1  0  0  0  0  0  0  0  0  0
    7.5403  -14.8543   24.0502 C   0  0  0  0  0  0  0  0  0  0  0  0
    7.1126  -13.7998   25.0061 C   0  0  0  0  0  0  0  0  0  0  0  0
    6.2881  -14.0982   26.0750 C   0  0  0  0  0  0  0  0  0  0  0  0
    5.8767  -13.1379   26.9766 C   0  0  0  0  0  0  0  0  0  0  0  0
    6.2958  -11.8384   26.8143 C   0  0  0  0  0  0  0  0  0  0  0  0
    7.1091  -11.5022   25.7736 C   0  0  0  0  0  0  0  0  0  0  0  0
    7.5090  -12.4804   24.8825 C   0  0  0  0  0  0  0  0  0  0  0  0
    9.5144  -15.5000   25.4220 C   0  0  0  0  0  0  0  0  0  0  0  0
    9.5065  -16.7129   25.7763 O   0  0  0  0  0  0  0  0  0  0  0  0
   10.7550  -13.8326   28.6266 C   0  0  0  0  0  0  0  0  0  0  0  0
   10.5486  -14.9867   27.6728 C   0  0  2  0  0  0  0  0  0  0  0  0
   10.0322  -14.5906   26.4036 N   0  0  0  0  0  0  0  0  0  0  0  0
    9.7044  -16.0087   28.3433 C   0  0  0  0  0  0  0  0  0  0  0  0
   10.1643  -16.6189   29.3255 O   0  0  0  0  0  0  0  0  0  0  0  0
    8.4284  -16.2989   27.9082 O   0  0  0  0  0  0  0  0  0  0  0  0
  2  1  1  0
  3  2  2  0
  4  2  1  0
  5  4  1  0
  6  5  1  0
  6  7  1  6
  8  6  1  0
  8 10  1  0
  9  8  2  0
 11 10  1  0
 11 12  1  1
 12 13  1  0
 13 18  2  0
 13 14  1  0
 14 15  2  0
 15 16  1  0
 17 16  2  0
 18 17  1  0
 19 11  1  0
 20 19  2  0
 22 21  1  1
 22 24  1  0
 22 23  1  0
 23 19  1  0
 24 26  1  0
 25 24  2  0
M  END
$$$$
