QFA.pdb
     RDKit          3D

 26 26  0  0  1  0  0  0  0  0999 V2000
    7.2177  -12.5591   18.6746 N   0  0  0  0  0  0  0  0  0  0  0  0
    8.2596  -13.5077   18.6638 C   0  0  0  0  0  0  0  0  0  0  0  0
    9.2704  -13.2660   17.9611 O   0  0  0  0  0  0  0  0  0  0  0  0
    8.1156  -14.7277   19.4691 C   0  0  0  0  0  0  0  0  0  0  0  0
    8.7584  -14.6017   20.8037 C   0  0  0  0  0  0  0  0  0  0  0  0
    8.8586  -15.8533   21.6064 C   0  0  2  0  0  0  0  0  0  0  0  0
    7.5271  -16.4833   21.5445 N   0  0  0  0  0  0  0  0  0  0  0  0
    9.2296  -15.6183   23.0275 C   0  0  0  0  0  0  0  0  0  0  0  0
   10.3258  -15.0574   23.2796 O   0  0  0  0  0  0  0  0  0  0  0  0
    8.4187  -15.9900   24.1143 N   0  0  0  0  0  0  0  0  0  0  0  0
    8.7607  -15.7717   25.5072 C   0  0  1  0  0  0  0  0  0  0  0  0
    7.4828  -15.4239   26.2285 C   0  0  0  0  0  0  0  0  0  0  0  0
    7.2629  -13.9545   26.2622 C   0  0  0  0  0  0  0  0  0  0  0  0
    5.9865  -13.4255   26.3122 C   0  0  0  0  0  0  0  0  0  0  0  0
    5.7551  -12.0655   26.3443 C   0  0  0  0  0  0  0  0  0  0  0  0
    6.8236  -11.2001   26.3264 C   0  0  0  0  0  0  0  0  0  0  0  0
    8.0980  -11.6806   26.2774 C   0  0  0  0  0  0  0  0  0  0  0  0
    8.3064  -13.0468   26.2458 C   0  0  0  0  0  0  0  0  0  0  0  0
    9.4175  -16.9741   26.0053 C   0  0  0  0  0  0  0  0  0  0  0  0
    9.5735  -17.1821   27.2419 O   0  0  0  0  0  0  0  0  0  0  0  0
   10.9432  -20.1578   24.5285 C   0  0  0  0  0  0  0  0  0  0  0  0
   10.6374  -19.1560   25.6182 C   0  0  2  0  0  0  0  0  0  0  0  0
    9.9339  -18.0059   25.1525 N   0  0  0  0  0  0  0  0  0  0  0  0
   11.9045  -18.8124   26.3133 C   0  0  0  0  0  0  0  0  0  0  0  0
   12.3277  -19.5722   27.2034 O   0  0  0  0  0  0  0  0  0  0  0  0
   12.6225  -17.6775   26.0000 O   0  0  0  0  0  0  0  0  0  0  0  0
  2  1  1  0
  3  2  2  0
  4  2  1  0
  5  4  1  0
  6  5  1  0
  6  7  1  1
  8  6  1  0
  8 10  1  0
  9  8  2  0
 11 10  1  0
 11 12  1  1
 12 13  1  0
 13 18  2  0
 13 14  1  0
 14 15  2  0
 15 16  1  0
 17 16  2  0
 18 17  1  0
 19 11  1  0
 20 19  2  0
 22 21  1  6
 22 24  1  0
 22 23  1  0
 23 19  1  0
 24 26  1  0
 25 24  2  0
M  END
$$$$
