QFA.pdb
     RDKit          3D

 26 26  0  0  1  0  0  0  0  0999 V2000
    7.6367  -12.3114   18.9797 N   0  0  0  0  0  0  0  0  0  0  0  0
    7.9268  -13.6402   18.6114 C   0  0  0  0  0  0  0  0  0  0  0  0
    7.1591  -14.2080   17.7976 O   0  0  0  0  0  0  0  0  0  0  0  0
    9.1057  -14.2956   19.1931 C   0  0  0  0  0  0  0  0  0  0  0  0
    9.1258  -14.2064   20.6770 C   0  0  0  0  0  0  0  0  0  0  0  0
    9.3392  -15.4862   21.4100 C   0  0  2  0  0  0  0  0  0  0  0  0
    8.1483  -16.3124   21.1403 N   0  0  0  0  0  0  0  0  0  0  0  0
    9.4969  -15.3093   22.8785 C   0  0  0  0  0  0  0  0  0  0  0  0
   10.4475  -14.6046   23.3022 O   0  0  0  0  0  0  0  0  0  0  0  0
    8.6373  -15.8893   23.8280 N   0  0  0  0  0  0  0  0  0  0  0  0
    8.8070  -15.7804   25.2647 C   0  0  1  0  0  0  0  0  0  0  0  0
    7.4374  -15.5651   25.8581 C   0  0  0  0  0  0  0  0  0  0  0  0
    7.1398  -14.1183   26.0222 C   0  0  0  0  0  0  0  0  0  0  0  0
    7.9334  -13.3128   26.8176 C   0  0  0  0  0  0  0  0  0  0  0  0
    7.6790  -11.9671   26.9866 C   0  0  0  0  0  0  0  0  0  0  0  0
    6.6023  -11.3999   26.3464 C   0  0  0  0  0  0  0  0  0  0  0  0
    5.7949  -12.1589   25.5531 C   0  0  0  0  0  0  0  0  0  0  0  0
    6.0686  -13.5050   25.3981 C   0  0  0  0  0  0  0  0  0  0  0  0
    9.4761  -16.9877   25.7337 C   0  0  0  0  0  0  0  0  0  0  0  0
    9.5040  -17.2987   26.9582 O   0  0  0  0  0  0  0  0  0  0  0  0
   11.1705  -20.0496   24.2198 C   0  0  0  0  0  0  0  0  0  0  0  0
   10.8871  -19.0444   25.3124 C   0  0  2  0  0  0  0  0  0  0  0  0
   10.1481  -17.9099   24.8640 N   0  0  0  0  0  0  0  0  0  0  0  0
   12.1724  -18.6743   25.9589 C   0  0  0  0  0  0  0  0  0  0  0  0
   12.5126  -17.4775   25.9803 O   0  0  0  0  0  0  0  0  0  0  0  0
   12.9966  -19.6184   26.5344 O   0  0  0  0  0  0  0  0  0  0  0  0
  2  1  1  0
  3  2  2  0
  4  2  1  0
  5  4  1  0
  6  5  1  0
  6  7  1  1
  8  6  1  0
  8 10  1  0
  9  8  2  0
 11 10  1  0
 11 12  1  1
 12 13  1  0
 13 18  2  0
 13 14  1  0
 14 15  2  0
 15 16  1  0
 17 16  2  0
 18 17  1  0
 19 11  1  0
 20 19  2  0
 22 21  1  6
 22 24  1  0
 22 23  1  0
 23 19  1  0
 24 26  1  0
 25 24  2  0
M  END
$$$$
