HWN.pdb
     RDKit          3D

 33 35  0  0  1  0  0  0  0  0999 V2000
   15.7952  -19.3322    3.9173 N   0  0  0  0  0  0  0  0  0  0  0  0
   15.5740  -18.8424    5.2553 C   0  0  1  0  0  0  0  0  0  0  0  0
   14.9473  -19.8450    6.1697 C   0  0  0  0  0  0  0  0  0  0  0  0
   13.5045  -19.9979    5.8614 C   0  0  0  0  0  0  0  0  0  0  0  0
   12.4911  -19.1215    6.2659 C   0  0  0  0  0  0  0  0  0  0  0  0
   11.3099  -19.5725    5.8068 N   0  0  0  0  0  0  0  0  0  0  0  0
   11.5268  -20.7017    5.1253 C   0  0  0  0  0  0  0  0  0  0  0  0
   12.8530  -20.9451    5.1671 N   0  0  0  0  0  0  0  0  0  0  0  0
   16.7887  -18.2092    5.8295 C   0  0  0  0  0  0  0  0  0  0  0  0
   17.9315  -18.6895    5.5329 O   0  0  0  0  0  0  0  0  0  0  0  0
   16.7795  -17.1000    6.6918 N   0  0  0  0  0  0  0  0  0  0  0  0
   18.0259  -16.4785    7.2226 C   0  0  1  0  0  0  0  0  0  0  0  0
   17.7274  -15.0568    7.4755 C   0  0  0  0  0  0  0  0  0  0  0  0
   18.0543  -14.0560    6.4817 C   0  0  0  0  0  0  0  0  0  0  0  0
   17.3154  -13.6478    5.3664 C   0  0  0  0  0  0  0  0  0  0  0  0
   17.9847  -12.6963    4.6984 N   0  0  0  0  0  0  0  0  0  0  0  0
   19.1519  -12.4484    5.3275 C   0  0  0  0  0  0  0  0  0  0  0  0
   20.1701  -11.5618    5.0614 C   0  0  0  0  0  0  0  0  0  0  0  0
   21.2468  -11.5177    5.9139 C   0  0  0  0  0  0  0  0  0  0  0  0
   21.3422  -12.3334    7.0283 C   0  0  0  0  0  0  0  0  0  0  0  0
   20.2982  -13.2107    7.2595 C   0  0  0  0  0  0  0  0  0  0  0  0
   19.2056  -13.2900    6.4390 C   0  0  0  0  0  0  0  0  0  0  0  0
   18.5114  -17.2164    8.3844 C   0  0  0  0  0  0  0  0  0  0  0  0
   17.6469  -17.7963    9.1220 O   0  0  0  0  0  0  0  0  0  0  0  0
   20.9420  -20.2852   11.6897 N   0  0  0  0  0  0  0  0  0  0  0  0
   20.3008  -20.6883   10.4576 C   0  0  0  0  0  0  0  0  0  0  0  0
   20.1286  -21.9083   10.2079 O   0  0  0  0  0  0  0  0  0  0  0  0
   19.8628  -19.6650    9.5210 C   0  0  0  0  0  0  0  0  0  0  0  0
   20.2194  -18.2342    9.9245 C   0  0  2  0  0  0  0  0  0  0  0  0
   19.8611  -17.3731    8.7873 N   0  0  0  0  0  0  0  0  0  0  0  0
   21.6630  -18.1008   10.1466 C   0  0  0  0  0  0  0  0  0  0  0  0
   22.2396  -18.1463   11.2561 O   0  0  0  0  0  0  0  0  0  0  0  0
   22.5194  -17.9058    9.0457 O   0  0  0  0  0  0  0  0  0  0  0  0
  2  1  1  6
  2  3  1  0
  3  4  1  0
  4  5  2  0
  4  8  1  0
  5  6  1  0
  6  7  1  0
  8  7  2  0
  9 10  2  0
  9  2  1  0
 11  9  1  0
 12 13  1  1
 12 11  1  0
 13 14  1  0
 14 15  2  0
 14 22  1  0
 15 16  1  0
 16 17  1  0
 17 18  2  0
 19 18  1  0
 20 19  2  0
 21 22  2  0
 21 20  1  0
 22 17  1  0
 23 12  1  0
 24 23  2  0
 25 26  1  0
 26 28  1  0
 27 26  2  0
 29 28  1  6
 29 30  1  0
 30 23  1  0
 31 33  1  0
 31 29  1  0
 32 31  2  0
M  END
$$$$
