HWN.pdb
     RDKit          3D

 33 35  0  0  1  0  0  0  0  0999 V2000
   28.1855  -21.5091  -15.6618 N   0  0  0  0  0  0  0  0  0  0  0  0
   27.9870  -20.4807  -14.6708 C   0  0  1  0  0  0  0  0  0  0  0  0
   27.3813  -19.2269  -15.2144 C   0  0  0  0  0  0  0  0  0  0  0  0
   28.2972  -18.5895  -16.1916 C   0  0  0  0  0  0  0  0  0  0  0  0
   28.3320  -18.8568  -17.5650 C   0  0  0  0  0  0  0  0  0  0  0  0
   29.2832  -18.0973  -18.1373 N   0  0  0  0  0  0  0  0  0  0  0  0
   29.8581  -17.3551  -17.1859 C   0  0  0  0  0  0  0  0  0  0  0  0
   29.2538  -17.6627  -16.0196 N   0  0  0  0  0  0  0  0  0  0  0  0
   27.2865  -20.9908  -13.4646 C   0  0  0  0  0  0  0  0  0  0  0  0
   26.2218  -21.6753  -13.6148 O   0  0  0  0  0  0  0  0  0  0  0  0
   27.7117  -20.7749  -12.1430 N   0  0  0  0  0  0  0  0  0  0  0  0
   26.8632  -21.0910  -10.9591 C   0  0  1  0  0  0  0  0  0  0  0  0
   27.6773  -20.8244   -9.7589 C   0  0  0  0  0  0  0  0  0  0  0  0
   27.0603  -20.8074   -8.4493 C   0  0  0  0  0  0  0  0  0  0  0  0
   25.7871  -21.2448   -8.0696 C   0  0  0  0  0  0  0  0  0  0  0  0
   25.6071  -21.0411   -6.7559 N   0  0  0  0  0  0  0  0  0  0  0  0
   26.7185  -20.4805   -6.2362 C   0  0  0  0  0  0  0  0  0  0  0  0
   27.0440  -20.1009   -4.9541 C   0  0  0  0  0  0  0  0  0  0  0  0
   28.2889  -19.5689   -4.7191 C   0  0  0  0  0  0  0  0  0  0  0  0
   29.2243  -19.4018   -5.7258 C   0  0  0  0  0  0  0  0  0  0  0  0
   28.8574  -19.7952   -7.0000 C   0  0  0  0  0  0  0  0  0  0  0  0
   27.6296  -20.3301   -7.2821 C   0  0  0  0  0  0  0  0  0  0  0  0
   25.6050  -20.3539  -11.0194 C   0  0  0  0  0  0  0  0  0  0  0  0
   25.6665  -19.0846  -11.1323 O   0  0  0  0  0  0  0  0  0  0  0  0
   21.4621  -22.0577  -13.0478 N   0  0  0  0  0  0  0  0  0  0  0  0
   22.6675  -21.2911  -13.2740 C   0  0  0  0  0  0  0  0  0  0  0  0
   23.5747  -21.7492  -14.0141 O   0  0  0  0  0  0  0  0  0  0  0  0
   22.8095  -19.9920  -12.6350 C   0  0  0  0  0  0  0  0  0  0  0  0
   23.1117  -20.0459  -11.1373 C   0  0  2  0  0  0  0  0  0  0  0  0
   24.2980  -20.9003  -10.9765 N   0  0  0  0  0  0  0  0  0  0  0  0
   22.0071  -20.6754  -10.4060 C   0  0  0  0  0  0  0  0  0  0  0  0
   20.8373  -20.2381  -10.3297 O   0  0  0  0  0  0  0  0  0  0  0  0
   22.2310  -21.8817   -9.7146 O   0  0  0  0  0  0  0  0  0  0  0  0
  2  1  1  6
  2  3  1  0
  3  4  1  0
  4  5  2  0
  4  8  1  0
  5  6  1  0
  6  7  1  0
  8  7  2  0
  9 10  2  0
  9  2  1  0
 11  9  1  0
 12 13  1  1
 12 11  1  0
 13 14  1  0
 14 15  2  0
 14 22  1  0
 15 16  1  0
 16 17  1  0
 17 18  2  0
 19 18  1  0
 20 19  2  0
 21 22  2  0
 21 20  1  0
 22 17  1  0
 23 12  1  0
 24 23  2  0
 25 26  1  0
 26 28  1  0
 27 26  2  0
 29 28  1  6
 29 30  1  0
 30 23  1  0
 31 33  1  0
 31 29  1  0
 32 31  2  0
M  END
$$$$
