HWN.pdb
     RDKit          3D

 33 35  0  0  1  0  0  0  0  0999 V2000
   28.3054  -23.2515  -16.4585 N   0  0  0  0  0  0  0  0  0  0  0  0
   27.4672  -22.0910  -16.2857 C   0  0  1  0  0  0  0  0  0  0  0  0
   26.5711  -21.8144  -17.4496 C   0  0  0  0  0  0  0  0  0  0  0  0
   27.3720  -21.5061  -18.6593 C   0  0  0  0  0  0  0  0  0  0  0  0
   28.3683  -20.5268  -18.7451 C   0  0  0  0  0  0  0  0  0  0  0  0
   28.8807  -20.5279  -19.9887 N   0  0  0  0  0  0  0  0  0  0  0  0
   28.2526  -21.4678  -20.7018 C   0  0  0  0  0  0  0  0  0  0  0  0
   27.3468  -22.0482  -19.8878 N   0  0  0  0  0  0  0  0  0  0  0  0
   26.7473  -22.1066  -14.9867 C   0  0  0  0  0  0  0  0  0  0  0  0
   26.0696  -23.1391  -14.6712 O   0  0  0  0  0  0  0  0  0  0  0  0
   26.7527  -21.0525  -14.0578 N   0  0  0  0  0  0  0  0  0  0  0  0
   25.9835  -21.0955  -12.7819 C   0  0  1  0  0  0  0  0  0  0  0  0
   26.6861  -20.2234  -11.8228 C   0  0  0  0  0  0  0  0  0  0  0  0
   27.7870  -20.7416  -11.0382 C   0  0  0  0  0  0  0  0  0  0  0  0
   28.9453  -21.3960  -11.4702 C   0  0  0  0  0  0  0  0  0  0  0  0
   29.7075  -21.7199  -10.4147 N   0  0  0  0  0  0  0  0  0  0  0  0
   29.1010  -21.3044   -9.2837 C   0  0  0  0  0  0  0  0  0  0  0  0
   29.4737  -21.3749   -7.9609 C   0  0  0  0  0  0  0  0  0  0  0  0
   28.6434  -20.8303   -7.0112 C   0  0  0  0  0  0  0  0  0  0  0  0
   27.4472  -20.2153   -7.3390 C   0  0  0  0  0  0  0  0  0  0  0  0
   27.1093  -20.1664   -8.6793 C   0  0  0  0  0  0  0  0  0  0  0  0
   27.9042  -20.6944   -9.6604 C   0  0  0  0  0  0  0  0  0  0  0  0
   24.5859  -20.7458  -13.0146 C   0  0  0  0  0  0  0  0  0  0  0  0
   24.3430  -19.6766  -13.6667 O   0  0  0  0  0  0  0  0  0  0  0  0
   21.9864  -24.3370  -14.4443 N   0  0  0  0  0  0  0  0  0  0  0  0
   21.6122  -22.9403  -14.4762 C   0  0  0  0  0  0  0  0  0  0  0  0
   21.5906  -22.3197  -15.5693 O   0  0  0  0  0  0  0  0  0  0  0  0
   21.2645  -22.2730  -13.2313 C   0  0  0  0  0  0  0  0  0  0  0  0
   22.0876  -21.0215  -12.9252 C   0  0  2  0  0  0  0  0  0  0  0  0
   23.4466  -21.4794  -12.5989 N   0  0  0  0  0  0  0  0  0  0  0  0
   21.5576  -20.3253  -11.7480 C   0  0  0  0  0  0  0  0  0  0  0  0
   22.1397  -20.2025  -10.6473 O   0  0  0  0  0  0  0  0  0  0  0  0
   20.2866  -19.7222  -11.8124 O   0  0  0  0  0  0  0  0  0  0  0  0
  2  1  1  6
  2  3  1  0
  3  4  1  0
  4  5  2  0
  4  8  1  0
  5  6  1  0
  6  7  1  0
  8  7  2  0
  9 10  2  0
  9  2  1  0
 11  9  1  0
 12 13  1  1
 12 11  1  0
 13 14  1  0
 14 15  2  0
 14 22  1  0
 15 16  1  0
 16 17  1  0
 17 18  2  0
 19 18  1  0
 20 19  2  0
 21 22  2  0
 21 20  1  0
 22 17  1  0
 23 12  1  0
 24 23  2  0
 25 26  1  0
 26 28  1  0
 27 26  2  0
 29 28  1  1
 29 30  1  0
 30 23  1  0
 31 33  1  0
 31 29  1  0
 32 31  2  0
M  END
$$$$
