HWN.pdb
     RDKit          3D

 33 35  0  0  1  0  0  0  0  0999 V2000
   28.1613  -20.3252  -17.1603 N   0  0  0  0  0  0  0  0  0  0  0  0
   28.2386  -21.7012  -16.7362 C   0  0  1  0  0  0  0  0  0  0  0  0
   29.5918  -22.3119  -16.9107 C   0  0  0  0  0  0  0  0  0  0  0  0
   30.0313  -22.2045  -18.3232 C   0  0  0  0  0  0  0  0  0  0  0  0
   29.2590  -21.7039  -19.3775 C   0  0  0  0  0  0  0  0  0  0  0  0
   29.9778  -21.7563  -20.5133 N   0  0  0  0  0  0  0  0  0  0  0  0
   31.1783  -22.2702  -20.2281 C   0  0  0  0  0  0  0  0  0  0  0  0
   31.1955  -22.5352  -18.9055 N   0  0  0  0  0  0  0  0  0  0  0  0
   27.6800  -21.9015  -15.3747 C   0  0  0  0  0  0  0  0  0  0  0  0
   28.4326  -22.3830  -14.4656 O   0  0  0  0  0  0  0  0  0  0  0  0
   26.3605  -21.5969  -15.0000 N   0  0  0  0  0  0  0  0  0  0  0  0
   25.8766  -21.6947  -13.5937 C   0  0  1  0  0  0  0  0  0  0  0  0
   26.7320  -20.8123  -12.7789 C   0  0  0  0  0  0  0  0  0  0  0  0
   26.4513  -20.6229  -11.3713 C   0  0  0  0  0  0  0  0  0  0  0  0
   25.2477  -20.2687  -10.7529 C   0  0  0  0  0  0  0  0  0  0  0  0
   25.4218  -20.1915   -9.4249 N   0  0  0  0  0  0  0  0  0  0  0  0
   26.7047  -20.4830   -9.1268 C   0  0  0  0  0  0  0  0  0  0  0  0
   27.3752  -20.5621   -7.9277 C   0  0  0  0  0  0  0  0  0  0  0  0
   28.7034  -20.9140   -7.9360 C   0  0  0  0  0  0  0  0  0  0  0  0
   29.3884  -21.1906   -9.1068 C   0  0  0  0  0  0  0  0  0  0  0  0
   28.6782  -21.0990  -10.2902 C   0  0  0  0  0  0  0  0  0  0  0  0
   27.3547  -20.7527  -10.3314 C   0  0  0  0  0  0  0  0  0  0  0  0
   24.4495  -21.3982  -13.5215 C   0  0  0  0  0  0  0  0  0  0  0  0
   24.0385  -20.3243  -14.0741 O   0  0  0  0  0  0  0  0  0  0  0  0
   19.2558  -22.1388  -13.6183 N   0  0  0  0  0  0  0  0  0  0  0  0
   19.8923  -23.3348  -13.1124 C   0  0  0  0  0  0  0  0  0  0  0  0
   19.2048  -24.3594  -12.8715 O   0  0  0  0  0  0  0  0  0  0  0  0
   21.3298  -23.3303  -12.8893 C   0  0  0  0  0  0  0  0  0  0  0  0
   22.0277  -22.0171  -13.2439 C   0  0  2  0  0  0  0  0  0  0  0  0
   23.4483  -22.1888  -12.9040 N   0  0  0  0  0  0  0  0  0  0  0  0
   21.5053  -20.9142  -12.4303 C   0  0  0  0  0  0  0  0  0  0  0  0
   20.5697  -20.1479  -12.7514 O   0  0  0  0  0  0  0  0  0  0  0  0
   22.0708  -20.6556  -11.1668 O   0  0  0  0  0  0  0  0  0  0  0  0
  2  1  1  1
  2  3  1  0
  3  4  1  0
  4  5  2  0
  4  8  1  0
  5  6  1  0
  6  7  1  0
  8  7  2  0
  9 10  2  0
  9  2  1  0
 11  9  1  0
 12 13  1  1
 12 11  1  0
 13 14  1  0
 14 15  2  0
 14 22  1  0
 15 16  1  0
 16 17  1  0
 17 18  2  0
 19 18  1  0
 20 19  2  0
 21 22  2  0
 21 20  1  0
 22 17  1  0
 23 12  1  0
 24 23  2  0
 25 26  1  0
 26 28  1  0
 27 26  2  0
 29 28  1  1
 29 30  1  0
 30 23  1  0
 31 33  1  0
 31 29  1  0
 32 31  2  0
M  END
$$$$
