HWN.pdb
     RDKit          3D

 33 35  0  0  1  0  0  0  0  0999 V2000
   23.3889  -22.7780  -13.4091 N   0  0  0  0  0  0  0  0  0  0  0  0
   23.1652  -21.3664  -13.2184 C   0  0  1  0  0  0  0  0  0  0  0  0
   21.9569  -21.0518  -12.3965 C   0  0  0  0  0  0  0  0  0  0  0  0
   20.7959  -21.8544  -12.8525 C   0  0  0  0  0  0  0  0  0  0  0  0
   20.3280  -21.9291  -14.1694 C   0  0  0  0  0  0  0  0  0  0  0  0
   19.2626  -22.7490  -14.2123 N   0  0  0  0  0  0  0  0  0  0  0  0
   19.0301  -23.2017  -12.9763 C   0  0  0  0  0  0  0  0  0  0  0  0
   19.9614  -22.6541  -12.1685 N   0  0  0  0  0  0  0  0  0  0  0  0
   24.3868  -20.6622  -12.7519 C   0  0  0  0  0  0  0  0  0  0  0  0
   24.3281  -19.4078  -12.5329 O   0  0  0  0  0  0  0  0  0  0  0  0
   25.6286  -21.2801  -12.5281 N   0  0  0  0  0  0  0  0  0  0  0  0
   26.8507  -20.5209  -12.1386 C   0  0  1  0  0  0  0  0  0  0  0  0
   27.3855  -21.1563  -10.9202 C   0  0  0  0  0  0  0  0  0  0  0  0
   26.8142  -20.8467   -9.6265 C   0  0  0  0  0  0  0  0  0  0  0  0
   25.5010  -20.4865   -9.3068 C   0  0  0  0  0  0  0  0  0  0  0  0
   25.3934  -20.2769   -7.9861 N   0  0  0  0  0  0  0  0  0  0  0  0
   26.5923  -20.4846   -7.4036 C   0  0  0  0  0  0  0  0  0  0  0  0
   27.0003  -20.4216   -6.0909 C   0  0  0  0  0  0  0  0  0  0  0  0
   28.3085  -20.7166   -5.7913 C   0  0  0  0  0  0  0  0  0  0  0  0
   29.2278  -21.0736   -6.7629 C   0  0  0  0  0  0  0  0  0  0  0  0
   28.7774  -21.1243   -8.0697 C   0  0  0  0  0  0  0  0  0  0  0  0
   27.4842  -20.8394   -8.4160 C   0  0  0  0  0  0  0  0  0  0  0  0
   27.7891  -20.4538  -13.2543 C   0  0  0  0  0  0  0  0  0  0  0  0
   28.4367  -21.5127  -13.5488 O   0  0  0  0  0  0  0  0  0  0  0  0
   29.0763  -19.9833  -18.1476 N   0  0  0  0  0  0  0  0  0  0  0  0
   27.8125  -20.4570  -17.6279 C   0  0  0  0  0  0  0  0  0  0  0  0
   26.9985  -21.0401  -18.3881 O   0  0  0  0  0  0  0  0  0  0  0  0
   27.5034  -20.2480  -16.2219 C   0  0  0  0  0  0  0  0  0  0  0  0
   28.5718  -19.4845  -15.4391 C   0  0  2  0  0  0  0  0  0  0  0  0
   28.0594  -19.3264  -14.0695 N   0  0  0  0  0  0  0  0  0  0  0  0
   28.7677  -18.1431  -15.9989 C   0  0  0  0  0  0  0  0  0  0  0  0
   27.8998  -17.2443  -16.0653 O   0  0  0  0  0  0  0  0  0  0  0  0
   30.0271  -17.7848  -16.5175 O   0  0  0  0  0  0  0  0  0  0  0  0
  2  1  1  1
  2  3  1  0
  3  4  1  0
  4  5  2  0
  4  8  1  0
  5  6  1  0
  6  7  1  0
  8  7  2  0
  9 10  2  0
  9  2  1  0
 11  9  1  0
 12 13  1  1
 12 11  1  0
 13 14  1  0
 14 15  2  0
 14 22  1  0
 15 16  1  0
 16 17  1  0
 17 18  2  0
 19 18  1  0
 20 19  2  0
 21 22  2  0
 21 20  1  0
 22 17  1  0
 23 12  1  0
 24 23  2  0
 25 26  1  0
 26 28  1  0
 27 26  2  0
 29 28  1  6
 29 30  1  0
 30 23  1  0
 31 33  1  0
 31 29  1  0
 32 31  2  0
M  END
$$$$
