FMS.pdb
     RDKit          3D

 26 26  0  0  1  0  0  0  0  0999 V2000
   28.3277  -20.0305  -15.7689 N   0  0  0  0  0  0  0  0  0  0  0  0
   27.5593  -19.3892  -14.7499 C   0  0  1  0  0  0  0  0  0  0  0  0
   26.4948  -18.4744  -15.2952 C   0  0  0  0  0  0  0  0  0  0  0  0
   27.1563  -17.2543  -15.8216 C   0  0  0  0  0  0  0  0  0  0  0  0
   27.3191  -16.1700  -14.9916 C   0  0  0  0  0  0  0  0  0  0  0  0
   27.9340  -15.0409  -15.4895 C   0  0  0  0  0  0  0  0  0  0  0  0
   28.3719  -15.0102  -16.7912 C   0  0  0  0  0  0  0  0  0  0  0  0
   28.1998  -16.1182  -17.6220 C   0  0  0  0  0  0  0  0  0  0  0  0
   27.5915  -17.2389  -17.1340 C   0  0  0  0  0  0  0  0  0  0  0  0
   26.8865  -20.3583  -13.8381 C   0  0  0  0  0  0  0  0  0  0  0  0
   26.4555  -21.4226  -14.2975 O   0  0  0  0  0  0  0  0  0  0  0  0
   27.2897  -20.6623   -7.3264 C   0  0  0  0  0  0  0  0  0  0  0  0
   25.4943  -20.7910   -7.5110 S   0  0  0  0  0  0  0  0  0  0  0  0
   25.0467  -21.2238   -9.2307 C   0  0  0  0  0  0  0  0  0  0  0  0
   25.9750  -20.4442  -10.1290 C   0  0  0  0  0  0  0  0  0  0  0  0
   25.8147  -20.7970  -11.5867 C   0  0  2  0  0  0  0  0  0  0  0  0
   26.7174  -20.1083  -12.4483 N   0  0  0  0  0  0  0  0  0  0  0  0
   24.4209  -20.4735  -11.9684 C   0  0  0  0  0  0  0  0  0  0  0  0
   24.1177  -19.2645  -12.0942 O   0  0  0  0  0  0  0  0  0  0  0  0
   21.9505  -23.3886  -13.4468 O   0  0  0  0  0  0  0  0  0  0  0  0
   21.8679  -22.0726  -13.8952 C   0  0  0  0  0  0  0  0  0  0  0  0
   22.0969  -21.1718  -12.6753 C   0  0  2  0  0  0  0  0  0  0  0  0
   23.4155  -21.4397  -12.1988 N   0  0  0  0  0  0  0  0  0  0  0  0
   21.0443  -21.3349  -11.6759 C   0  0  0  0  0  0  0  0  0  0  0  0
   19.7033  -21.0440  -11.8893 O   0  0  0  0  0  0  0  0  0  0  0  0
   21.3572  -21.7681  -10.5367 O   0  0  0  0  0  0  0  0  0  0  0  0
  2  1  1  6
  3  2  1  0
  4  3  1  0
  5  4  2  0
  6  5  1  0
  7  6  2  0
  7  8  1  0
  8  9  2  0
  9  4  1  0
 10  2  1  0
 10 11  2  0
 13 12  1  0
 14 13  1  0
 16 15  1  1
 15 14  1  0
 16 17  1  0
 17 10  1  0
 18 16  1  0
 19 18  2  0
 21 20  1  0
 22 21  1  6
 22 23  1  0
 23 18  1  0
 24 22  1  0
 25 24  1  0
 26 24  2  0
M  END
$$$$
