FMS.pdb
     RDKit          3D

 26 26  0  0  1  0  0  0  0  0999 V2000
   25.8625  -33.6734  -15.4097 N   0  0  0  0  0  0  0  0  0  0  0  0
   24.9249  -33.0245  -14.5495 C   0  0  1  0  0  0  0  0  0  0  0  0
   23.5757  -32.8214  -15.1864 C   0  0  0  0  0  0  0  0  0  0  0  0
   23.7429  -31.9132  -16.3487 C   0  0  0  0  0  0  0  0  0  0  0  0
   23.6333  -32.4260  -17.6199 C   0  0  0  0  0  0  0  0  0  0  0  0
   23.7907  -31.5752  -18.6934 C   0  0  0  0  0  0  0  0  0  0  0  0
   24.0517  -30.2425  -18.4857 C   0  0  0  0  0  0  0  0  0  0  0  0
   24.1602  -29.7362  -17.1897 C   0  0  0  0  0  0  0  0  0  0  0  0
   24.0052  -30.5745  -16.1232 C   0  0  0  0  0  0  0  0  0  0  0  0
   24.7058  -33.7629  -13.2728 C   0  0  0  0  0  0  0  0  0  0  0  0
   25.2977  -34.8319  -13.0826 O   0  0  0  0  0  0  0  0  0  0  0  0
   25.2720  -32.8908   -6.7202 C   0  0  0  0  0  0  0  0  0  0  0  0
   26.2301  -32.4209   -8.1815 S   0  0  0  0  0  0  0  0  0  0  0  0
   25.7047  -33.3880   -9.6423 C   0  0  0  0  0  0  0  0  0  0  0  0
   24.2326  -33.1180   -9.8336 C   0  0  0  0  0  0  0  0  0  0  0  0
   23.6376  -33.8952  -10.9812 C   0  0  2  0  0  0  0  0  0  0  0  0
   23.8361  -33.2851  -12.2539 N   0  0  0  0  0  0  0  0  0  0  0  0
   22.1867  -34.0308  -10.7173 C   0  0  0  0  0  0  0  0  0  0  0  0
   21.4583  -33.0380  -10.9474 O   0  0  0  0  0  0  0  0  0  0  0  0
   20.5189  -37.5464   -9.1256 O   0  0  0  0  0  0  0  0  0  0  0  0
   19.8464  -36.8409  -10.1204 C   0  0  0  0  0  0  0  0  0  0  0  0
   20.1882  -35.3589   -9.9232 C   0  0  2  0  0  0  0  0  0  0  0  0
   21.5751  -35.2056  -10.2241 N   0  0  0  0  0  0  0  0  0  0  0  0
   19.7973  -34.8841   -8.5985 C   0  0  0  0  0  0  0  0  0  0  0  0
   18.4849  -34.7550   -8.1634 O   0  0  0  0  0  0  0  0  0  0  0  0
   20.7001  -34.5654   -7.7821 O   0  0  0  0  0  0  0  0  0  0  0  0
  2  1  1  6
  3  2  1  0
  4  3  1  0
  5  4  2  0
  6  5  1  0
  7  6  2  0
  7  8  1  0
  8  9  2  0
  9  4  1  0
 10  2  1  0
 10 11  2  0
 13 12  1  0
 14 13  1  0
 16 15  1  1
 15 14  1  0
 16 17  1  0
 17 10  1  0
 18 16  1  0
 19 18  2  0
 21 20  1  0
 22 21  1  1
 22 23  1  0
 23 18  1  0
 24 22  1  0
 25 24  1  0
 26 24  2  0
M  END
$$$$
