FMS.pdb
     RDKit          3D

 26 26  0  0  1  0  0  0  0  0999 V2000
   28.3310  -19.6787  -15.5934 N   0  0  0  0  0  0  0  0  0  0  0  0
   27.3115  -19.1182  -14.7649 C   0  0  1  0  0  0  0  0  0  0  0  0
   26.3993  -18.1736  -15.5017 C   0  0  0  0  0  0  0  0  0  0  0  0
   27.1581  -16.9330  -15.7997 C   0  0  0  0  0  0  0  0  0  0  0  0
   27.7461  -16.7882  -17.0344 C   0  0  0  0  0  0  0  0  0  0  0  0
   28.4494  -15.6330  -17.3020 C   0  0  0  0  0  0  0  0  0  0  0  0
   28.5546  -14.6517  -16.3464 C   0  0  0  0  0  0  0  0  0  0  0  0
   27.9526  -14.8125  -15.0976 C   0  0  0  0  0  0  0  0  0  0  0  0
   27.2549  -15.9546  -14.8275 C   0  0  0  0  0  0  0  0  0  0  0  0
   26.4523  -20.1553  -14.1250 C   0  0  0  0  0  0  0  0  0  0  0  0
   26.2212  -21.2080  -14.7313 O   0  0  0  0  0  0  0  0  0  0  0  0
   26.3713  -19.1653   -7.9413 C   0  0  0  0  0  0  0  0  0  0  0  0
   26.2606  -20.9413   -8.2697 S   0  0  0  0  0  0  0  0  0  0  0  0
   26.3611  -21.2782  -10.0646 C   0  0  0  0  0  0  0  0  0  0  0  0
   25.0611  -20.8060  -10.6672 C   0  0  0  0  0  0  0  0  0  0  0  0
   25.0355  -20.9199  -12.1711 C   0  0  2  0  0  0  0  0  0  0  0  0
   25.8814  -19.9836  -12.8337 N   0  0  0  0  0  0  0  0  0  0  0  0
   23.6345  -20.7162  -12.6054 C   0  0  0  0  0  0  0  0  0  0  0  0
   23.1912  -19.5445  -12.6098 O   0  0  0  0  0  0  0  0  0  0  0  0
   21.5237  -23.8536  -14.0905 O   0  0  0  0  0  0  0  0  0  0  0  0
   21.1825  -22.5950  -14.5794 C   0  0  0  0  0  0  0  0  0  0  0  0
   21.4167  -21.5963  -13.4392 C   0  0  2  0  0  0  0  0  0  0  0  0
   22.7698  -21.7569  -13.0137 N   0  0  0  0  0  0  0  0  0  0  0  0
   20.4241  -21.7428  -12.3779 C   0  0  0  0  0  0  0  0  0  0  0  0
   19.0604  -21.5373  -12.5407 O   0  0  0  0  0  0  0  0  0  0  0  0
   20.8148  -22.0781  -11.2297 O   0  0  0  0  0  0  0  0  0  0  0  0
  2  1  1  6
  3  2  1  0
  4  3  1  0
  5  4  2  0
  6  5  1  0
  7  6  2  0
  7  8  1  0
  8  9  2  0
  9  4  1  0
 10  2  1  0
 10 11  2  0
 13 12  1  0
 14 13  1  0
 16 15  1  1
 15 14  1  0
 16 17  1  0
 17 10  1  0
 18 16  1  0
 19 18  2  0
 21 20  1  0
 22 21  1  6
 22 23  1  0
 23 18  1  0
 24 22  1  0
 25 24  1  0
 26 24  2  0
M  END
$$$$
