FMS.pdb
     RDKit          3D

 26 26  0  0  1  0  0  0  0  0999 V2000
   16.8333  -12.1325    4.0559 N   0  0  0  0  0  0  0  0  0  0  0  0
   17.1074  -13.5327    3.9893 C   0  0  1  0  0  0  0  0  0  0  0  0
   17.3382  -14.0271    2.5859 C   0  0  0  0  0  0  0  0  0  0  0  0
   17.2927  -15.5107    2.6029 C   0  0  0  0  0  0  0  0  0  0  0  0
   16.2516  -16.1412    3.2431 C   0  0  0  0  0  0  0  0  0  0  0  0
   16.2179  -17.5194    3.2543 C   0  0  0  0  0  0  0  0  0  0  0  0
   17.2103  -18.2394    2.6347 C   0  0  0  0  0  0  0  0  0  0  0  0
   18.2608  -17.5859    1.9889 C   0  0  0  0  0  0  0  0  0  0  0  0
   18.2990  -16.2212    1.9748 C   0  0  0  0  0  0  0  0  0  0  0  0
   18.2952  -13.9277    4.7994 C   0  0  0  0  0  0  0  0  0  0  0  0
   19.3949  -13.4209    4.5481 O   0  0  0  0  0  0  0  0  0  0  0  0
   22.0797  -14.0862   11.2853 C   0  0  0  0  0  0  0  0  0  0  0  0
   20.5888  -13.8361   10.2910 S   0  0  0  0  0  0  0  0  0  0  0  0
   20.6499  -14.8399    8.7632 C   0  0  0  0  0  0  0  0  0  0  0  0
   19.3866  -14.5376    7.9957 C   0  0  0  0  0  0  0  0  0  0  0  0
   19.3030  -15.2818    6.6864 C   0  0  2  0  0  0  0  0  0  0  0  0
   18.2165  -14.8722    5.8599 N   0  0  0  0  0  0  0  0  0  0  0  0
   19.1681  -16.7217    7.0050 C   0  0  0  0  0  0  0  0  0  0  0  0
   18.0105  -17.1933    7.0877 O   0  0  0  0  0  0  0  0  0  0  0  0
   22.4901  -18.8113    7.8656 O   0  0  0  0  0  0  0  0  0  0  0  0
   21.5308  -19.6075    7.2447 C   0  0  0  0  0  0  0  0  0  0  0  0
   20.1656  -18.9791    7.5504 C   0  0  2  0  0  0  0  0  0  0  0  0
   20.2595  -17.5935    7.2205 N   0  0  0  0  0  0  0  0  0  0  0  0
   19.7385  -19.2505    8.9205 C   0  0  0  0  0  0  0  0  0  0  0  0
   19.1817  -20.4480    9.3497 O   0  0  0  0  0  0  0  0  0  0  0  0
   19.8777  -18.3468    9.7850 O   0  0  0  0  0  0  0  0  0  0  0  0
  2  1  1  6
  3  2  1  0
  4  3  1  0
  5  4  2  0
  6  5  1  0
  7  6  2  0
  7  8  1  0
  8  9  2  0
  9  4  1  0
 10  2  1  0
 10 11  2  0
 13 12  1  0
 14 13  1  0
 16 15  1  1
 15 14  1  0
 16 17  1  0
 17 10  1  0
 18 16  1  0
 19 18  2  0
 21 20  1  0
 22 21  1  1
 22 23  1  0
 23 18  1  0
 24 22  1  0
 25 24  1  0
 26 24  2  0
M  END
$$$$
