FMS.pdb
     RDKit          3D

 26 26  0  0  1  0  0  0  0  0999 V2000
   28.8974  -22.4374  -15.2739 N   0  0  0  0  0  0  0  0  0  0  0  0
   29.0618  -22.1718  -13.8802 C   0  0  1  0  0  0  0  0  0  0  0  0
   30.0611  -21.0817  -13.5966 C   0  0  0  0  0  0  0  0  0  0  0  0
   30.9388  -21.5334  -12.4879 C   0  0  0  0  0  0  0  0  0  0  0  0
   31.7053  -22.6623  -12.6584 C   0  0  0  0  0  0  0  0  0  0  0  0
   32.5170  -23.0747  -11.6230 C   0  0  0  0  0  0  0  0  0  0  0  0
   32.5519  -22.3641  -10.4479 C   0  0  0  0  0  0  0  0  0  0  0  0
   31.7683  -21.2201  -10.2891 C   0  0  0  0  0  0  0  0  0  0  0  0
   30.9627  -20.8074  -11.3113 C   0  0  0  0  0  0  0  0  0  0  0  0
   27.7857  -21.7884  -13.2110 C   0  0  0  0  0  0  0  0  0  0  0  0
   26.7293  -21.8311  -13.8525 O   0  0  0  0  0  0  0  0  0  0  0  0
   27.1285  -20.4412   -6.4194 C   0  0  0  0  0  0  0  0  0  0  0  0
   25.9136  -19.5397   -7.4121 S   0  0  0  0  0  0  0  0  0  0  0  0
   25.4902  -20.4731   -8.9269 C   0  0  0  0  0  0  0  0  0  0  0  0
   26.7376  -20.5114   -9.7748 C   0  0  0  0  0  0  0  0  0  0  0  0
   26.5484  -21.2724  -11.0632 C   0  0  2  0  0  0  0  0  0  0  0  0
   27.7312  -21.3713  -11.8524 N   0  0  0  0  0  0  0  0  0  0  0  0
   25.4937  -20.5770  -11.8358 C   0  0  0  0  0  0  0  0  0  0  0  0
   25.7316  -19.4106  -12.2259 O   0  0  0  0  0  0  0  0  0  0  0  0
   21.7336  -20.9595  -14.7101 O   0  0  0  0  0  0  0  0  0  0  0  0
   22.7604  -21.5533  -13.9802 C   0  0  0  0  0  0  0  0  0  0  0  0
   23.2219  -20.5229  -12.9423 C   0  0  2  0  0  0  0  0  0  0  0  0
   24.2405  -21.1448  -12.1593 N   0  0  0  0  0  0  0  0  0  0  0  0
   22.1013  -19.9915  -12.1708 C   0  0  0  0  0  0  0  0  0  0  0  0
   21.1451  -19.1171  -12.6703 O   0  0  0  0  0  0  0  0  0  0  0  0
   21.9789  -20.3400  -10.9680 O   0  0  0  0  0  0  0  0  0  0  0  0
  2  1  1  6
  3  2  1  0
  4  3  1  0
  5  4  2  0
  6  5  1  0
  7  6  2  0
  7  8  1  0
  8  9  2  0
  9  4  1  0
 10  2  1  0
 10 11  2  0
 13 12  1  0
 14 13  1  0
 16 15  1  1
 15 14  1  0
 16 17  1  0
 17 10  1  0
 18 16  1  0
 19 18  2  0
 21 20  1  0
 22 21  1  6
 22 23  1  0
 23 18  1  0
 24 22  1  0
 25 24  1  0
 26 24  2  0
M  END
$$$$
