FMS.pdb
     RDKit          3D

 26 26  0  0  1  0  0  0  0  0999 V2000
   25.7455  -21.6237   -9.3318 N   0  0  0  0  0  0  0  0  0  0  0  0
   25.2397  -21.0390  -10.5327 C   0  0  1  0  0  0  0  0  0  0  0  0
   24.1351  -20.0447  -10.2904 C   0  0  0  0  0  0  0  0  0  0  0  0
   23.0339  -20.7389   -9.5770 C   0  0  0  0  0  0  0  0  0  0  0  0
   23.0240  -20.7415   -8.2019 C   0  0  0  0  0  0  0  0  0  0  0  0
   21.9976  -21.3893   -7.5479 C   0  0  0  0  0  0  0  0  0  0  0  0
   21.0087  -22.0168   -8.2658 C   0  0  0  0  0  0  0  0  0  0  0  0
   21.0317  -22.0058   -9.6612 C   0  0  0  0  0  0  0  0  0  0  0  0
   22.0459  -21.3658  -10.3138 C   0  0  0  0  0  0  0  0  0  0  0  0
   26.2945  -20.3451  -11.3259 C   0  0  0  0  0  0  0  0  0  0  0  0
   26.9764  -19.4653  -10.7871 O   0  0  0  0  0  0  0  0  0  0  0  0
   30.2236  -22.0994   -9.7409 C   0  0  0  0  0  0  0  0  0  0  0  0
   31.0150  -21.1186  -11.0393 S   0  0  0  0  0  0  0  0  0  0  0  0
   29.7841  -20.0920  -11.9204 C   0  0  0  0  0  0  0  0  0  0  0  0
   28.9803  -21.0290  -12.7878 C   0  0  0  0  0  0  0  0  0  0  0  0
   27.7622  -20.3730  -13.3887 C   0  0  2  0  0  0  0  0  0  0  0  0
   26.5526  -20.6552  -12.6897 N   0  0  0  0  0  0  0  0  0  0  0  0
   27.6494  -20.8482  -14.7867 C   0  0  0  0  0  0  0  0  0  0  0  0
   27.1751  -21.9921  -14.9759 O   0  0  0  0  0  0  0  0  0  0  0  0
   25.8194  -17.9864  -17.1760 O   0  0  0  0  0  0  0  0  0  0  0  0
   25.9210  -19.2470  -16.5927 C   0  0  0  0  0  0  0  0  0  0  0  0
   27.2437  -19.8551  -17.0753 C   0  0  2  0  0  0  0  0  0  0  0  0
   28.0416  -20.0946  -15.9162 N   0  0  0  0  0  0  0  0  0  0  0  0
   27.8828  -19.0246  -18.0926 C   0  0  0  0  0  0  0  0  0  0  0  0
   27.6057  -19.0905  -19.4517 O   0  0  0  0  0  0  0  0  0  0  0  0
   28.7474  -18.1856  -17.7293 O   0  0  0  0  0  0  0  0  0  0  0  0
  2  1  1  1
  3  2  1  0
  4  3  1  0
  5  4  2  0
  6  5  1  0
  7  6  2  0
  7  8  1  0
  8  9  2  0
  9  4  1  0
 10  2  1  0
 10 11  2  0
 13 12  1  0
 14 13  1  0
 16 15  1  1
 15 14  1  0
 16 17  1  0
 17 10  1  0
 18 16  1  0
 19 18  2  0
 21 20  1  0
 22 21  1  1
 22 23  1  0
 23 18  1  0
 24 22  1  0
 25 24  1  0
 26 24  2  0
M  END
$$$$
