AVY.pdb
     RDKit          3D

 25 25  0  0  1  0  0  0  0  0999 V2000
   28.8479  -21.8341  -15.2879 C   0  0  0  0  0  0  0  0  0  0  0  0
   27.4739  -21.4194  -15.7066 C   0  0  2  0  0  0  0  0  0  0  0  0
   27.5486  -20.5578  -16.8409 N   0  0  0  0  0  0  0  0  0  0  0  0
   26.6939  -20.7901  -14.6191 C   0  0  0  0  0  0  0  0  0  0  0  0
   26.7921  -19.5591  -14.4142 O   0  0  0  0  0  0  0  0  0  0  0  0
   22.8499  -20.6967  -11.5875 C   0  0  0  0  0  0  0  0  0  0  0  0
   23.6051  -21.2694  -12.7653 C   0  0  1  0  0  0  0  0  0  0  0  0
   22.9504  -20.8225  -14.0290 C   0  0  0  0  0  0  0  0  0  0  0  0
   25.0743  -20.9222  -12.7063 C   0  0  2  0  0  0  0  0  0  0  0  0
   25.8221  -21.5332  -13.7809 N   0  0  0  0  0  0  0  0  0  0  0  0
   25.5996  -21.3004  -11.3722 C   0  0  0  0  0  0  0  0  0  0  0  0
   25.6609  -22.5200  -11.0070 O   0  0  0  0  0  0  0  0  0  0  0  0
   29.5256  -19.9146   -3.4729 O   0  0  0  0  0  0  0  0  0  0  0  0
   29.0174  -19.8276   -4.7492 C   0  0  0  0  0  0  0  0  0  0  0  0
   27.8902  -19.0348   -4.9589 C   0  0  0  0  0  0  0  0  0  0  0  0
   27.3671  -18.9369   -6.2368 C   0  0  0  0  0  0  0  0  0  0  0  0
   27.9279  -19.6012   -7.3117 C   0  0  0  0  0  0  0  0  0  0  0  0
   27.3667  -19.4976   -8.6495 C   0  0  0  0  0  0  0  0  0  0  0  0
   26.5243  -20.6227   -9.1208 C   0  0  2  0  0  0  0  0  0  0  0  0
   26.0467  -20.2948  -10.4737 N   0  0  0  0  0  0  0  0  0  0  0  0
   25.4090  -20.8753   -8.2083 C   0  0  0  0  0  0  0  0  0  0  0  0
   24.3333  -20.2346   -8.2896 O   0  0  0  0  0  0  0  0  0  0  0  0
   29.0416  -20.3852   -7.1066 C   0  0  0  0  0  0  0  0  0  0  0  0
   29.5765  -20.4903   -5.8223 C   0  0  0  0  0  0  0  0  0  0  0  0
   25.5424  -21.8526   -7.2220 O   0  0  0  0  0  0  0  0  0  0  0  0
  2  4  1  0
  2  1  1  1
  3  2  1  0
  4  5  2  0
  7  9  1  0
  7  6  1  1
  8  7  1  0
  9 10  1  6
 10  4  1  0
 11  9  1  0
 12 11  2  0
 13 14  1  0
 14 15  2  0
 15 16  1  0
 17 16  2  0
 17 18  1  0
 19 18  1  1
 19 21  1  0
 19 20  1  0
 20 11  1  0
 21 25  1  0
 22 21  2  0
 23 17  1  0
 24 14  1  0
 24 23  2  0
M  END
$$$$
