AVY.pdb
     RDKit          3D

 25 25  0  0  1  0  0  0  0  0999 V2000
457402.9688-809710.8750-1190704.8750 C   0  0  0  0  0  0  0  0  0  0  0  0
457403.9375-809711.6250-1190705.6250 C   0  0  2  0  0  0  0  0  0  0  0  0
457403.5000-809712.4375-1190706.7500 N   0  0  0  0  0  0  0  0  0  0  0  0
457404.8438-809712.3750-1190704.8750 C   0  0  0  0  0  0  0  0  0  0  0  0
457404.5938-809713.3125-1190704.8750 O   0  0  0  0  0  0  0  0  0  0  0  0
457408.4688-809714.1875-1190704.0000 C   0  0  0  0  0  0  0  0  0  0  0  0
457408.5312-809712.9375-1190704.7500 C   0  0  1  0  0  0  0  0  0  0  0  0
457409.5938-809713.4375-1190705.7500 C   0  0  0  0  0  0  0  0  0  0  0  0
457407.3125-809712.2500-1190705.5000 C   0  0  2  0  0  0  0  0  0  0  0  0
457406.1875-809712.0625-1190704.6250 N   0  0  0  0  0  0  0  0  0  0  0  0
457406.8750-809713.2500-1190706.5000 C   0  0  0  0  0  0  0  0  0  0  0  0
457406.8438-809714.6250-1190706.3750 O   0  0  0  0  0  0  0  0  0  0  0  0
457400.9062-809714.6250-1190704.2500 O   0  0  0  0  0  0  0  0  0  0  0  0
457401.6875-809713.8750-1190705.0000 C   0  0  0  0  0  0  0  0  0  0  0  0
457401.7500-809713.9375-1190706.2500 C   0  0  0  0  0  0  0  0  0  0  0  0
457402.8125-809713.3750-1190707.0000 C   0  0  0  0  0  0  0  0  0  0  0  0
457403.6875-809712.5625-1190706.3750 C   0  0  0  0  0  0  0  0  0  0  0  0
457404.7500-809711.8750-1190707.1250 C   0  0  0  0  0  0  0  0  0  0  0  0
457405.2812-809712.3125-1190708.3750 C   0  0  2  0  0  0  0  0  0  0  0  0
457406.5938-809713.0625-1190707.8750 N   0  0  0  0  0  0  0  0  0  0  0  0
457405.3750-809711.7500-1190709.0000 C   0  0  0  0  0  0  0  0  0  0  0  0
457404.7188-809710.6875-1190709.6250 O   0  0  0  0  0  0  0  0  0  0  0  0
457403.6562-809712.5625-1190705.3750 C   0  0  0  0  0  0  0  0  0  0  0  0
457402.6562-809713.3750-1190704.1250 C   0  0  0  0  0  0  0  0  0  0  0  0
457406.0000-809711.8750-1190710.5000 O   0  0  0  0  0  0  0  0  0  0  0  0
  2  4  1  0
  2  1  1  1
  3  2  1  0
  4  5  2  0
  7  9  1  0
  7  6  1  6
  8  7  1  0
  9 10  1  1
 10  4  1  0
 11  9  1  0
 12 11  2  0
 13 14  1  0
 14 15  2  0
 15 16  1  0
 17 16  2  0
 17 18  1  0
 19 18  1  1
 19 21  1  0
 19 20  1  0
 20 11  1  0
 21 25  1  0
 22 21  2  0
 23 17  1  0
 24 14  1  0
 24 23  2  0
M  END
$$$$
