AVY.pdb
     RDKit          3D

 25 25  0  0  1  0  0  0  0  0999 V2000
   24.9473  -20.9528   -7.3754 C   0  0  0  0  0  0  0  0  0  0  0  0
   26.2012  -20.6944   -8.1473 C   0  0  2  0  0  0  0  0  0  0  0  0
   26.9586  -19.6631   -7.5168 N   0  0  0  0  0  0  0  0  0  0  0  0
   25.9587  -20.3730   -9.5704 C   0  0  0  0  0  0  0  0  0  0  0  0
   25.6928  -19.1969   -9.9067 O   0  0  0  0  0  0  0  0  0  0  0  0
   26.6182  -21.1944  -14.3279 C   0  0  0  0  0  0  0  0  0  0  0  0
   26.8528  -21.5833  -12.8860 C   0  0  1  0  0  0  0  0  0  0  0  0
   28.2209  -21.1489  -12.4797 C   0  0  0  0  0  0  0  0  0  0  0  0
   25.7692  -21.0453  -11.9810 C   0  0  2  0  0  0  0  0  0  0  0  0
   26.0149  -21.3570  -10.5918 N   0  0  0  0  0  0  0  0  0  0  0  0
   24.4596  -21.5610  -12.4480 C   0  0  0  0  0  0  0  0  0  0  0  0
   23.7935  -22.3983  -11.7554 O   0  0  0  0  0  0  0  0  0  0  0  0
   16.3284  -19.3056  -13.1865 O   0  0  0  0  0  0  0  0  0  0  0  0
   17.6882  -19.5078  -13.1158 C   0  0  0  0  0  0  0  0  0  0  0  0
   18.4992  -18.8830  -14.0617 C   0  0  0  0  0  0  0  0  0  0  0  0
   19.8687  -19.0763  -14.0039 C   0  0  0  0  0  0  0  0  0  0  0  0
   20.4571  -19.8700  -13.0370 C   0  0  0  0  0  0  0  0  0  0  0  0
   21.8966  -20.0726  -12.9888 C   0  0  0  0  0  0  0  0  0  0  0  0
   22.4742  -21.0627  -13.9288 C   0  0  2  0  0  0  0  0  0  0  0  0
   23.9249  -21.1220  -13.6889 N   0  0  0  0  0  0  0  0  0  0  0  0
   22.1774  -20.7175  -15.3191 C   0  0  0  0  0  0  0  0  0  0  0  0
   21.2767  -21.3046  -15.9659 O   0  0  0  0  0  0  0  0  0  0  0  0
   19.6576  -20.4884  -12.1014 C   0  0  0  0  0  0  0  0  0  0  0  0
   18.2760  -20.2998  -12.1511 C   0  0  0  0  0  0  0  0  0  0  0  0
   22.9129  -19.7103  -15.9439 O   0  0  0  0  0  0  0  0  0  0  0  0
  2  4  1  0
  2  1  1  1
  3  2  1  0
  4  5  2  0
  7  9  1  0
  7  6  1  6
  8  7  1  0
  9 10  1  1
 10  4  1  0
 11  9  1  0
 12 11  2  0
 13 14  1  0
 14 15  2  0
 15 16  1  0
 17 16  2  0
 17 18  1  0
 19 18  1  1
 19 21  1  0
 19 20  1  0
 20 11  1  0
 21 25  1  0
 22 21  2  0
 23 17  1  0
 24 14  1  0
 24 23  2  0
M  END
$$$$
