AVY.pdb
     RDKit          3D

 25 25  0  0  1  0  0  0  0  0999 V2000
   19.6566  -11.6043    4.6089 C   0  0  0  0  0  0  0  0  0  0  0  0
   19.7463  -11.6792    6.0993 C   0  0  2  0  0  0  0  0  0  0  0  0
   20.9898  -11.1378    6.5412 N   0  0  0  0  0  0  0  0  0  0  0  0
   19.5492  -13.0450    6.6312 C   0  0  0  0  0  0  0  0  0  0  0  0
   20.5421  -13.7646    6.8827 O   0  0  0  0  0  0  0  0  0  0  0  0
   18.2780  -14.4286    9.7803 C   0  0  0  0  0  0  0  0  0  0  0  0
   17.3876  -14.9838    8.6920 C   0  0  1  0  0  0  0  0  0  0  0  0
   16.0825  -14.2616    8.7132 C   0  0  0  0  0  0  0  0  0  0  0  0
   18.0651  -14.9400    7.3423 C   0  0  2  0  0  0  0  0  0  0  0  0
   18.2601  -13.5871    6.8742 N   0  0  0  0  0  0  0  0  0  0  0  0
   17.2766  -15.7554    6.3872 C   0  0  0  0  0  0  0  0  0  0  0  0
   16.2870  -15.2603    5.7547 O   0  0  0  0  0  0  0  0  0  0  0  0
   14.5511  -21.4878    0.4347 O   0  0  0  0  0  0  0  0  0  0  0  0
   15.2322  -20.6755    1.3130 C   0  0  0  0  0  0  0  0  0  0  0  0
   14.6297  -19.4842    1.7140 C   0  0  0  0  0  0  0  0  0  0  0  0
   15.3019  -18.6566    2.5969 C   0  0  0  0  0  0  0  0  0  0  0  0
   16.5522  -18.9749    3.0932 C   0  0  0  0  0  0  0  0  0  0  0  0
   17.2535  -18.0952    4.0151 C   0  0  0  0  0  0  0  0  0  0  0  0
   16.7406  -18.0202    5.4040 C   0  0  2  0  0  0  0  0  0  0  0  0
   17.6193  -17.1158    6.1628 N   0  0  0  0  0  0  0  0  0  0  0  0
   16.6759  -19.3442    6.0230 C   0  0  0  0  0  0  0  0  0  0  0  0
   15.6557  -20.0679    5.9252 O   0  0  0  0  0  0  0  0  0  0  0  0
   17.1494  -20.1514    2.6981 C   0  0  0  0  0  0  0  0  0  0  0  0
   16.4801  -20.9925    1.8085 C   0  0  0  0  0  0  0  0  0  0  0  0
   17.7749  -19.8162    6.7406 O   0  0  0  0  0  0  0  0  0  0  0  0
  2  4  1  0
  2  1  1  6
  3  2  1  0
  4  5  2  0
  7  9  1  0
  7  6  1  1
  8  7  1  0
  9 10  1  6
 10  4  1  0
 11  9  1  0
 12 11  2  0
 13 14  1  0
 14 15  2  0
 15 16  1  0
 17 16  2  0
 17 18  1  0
 19 18  1  6
 19 21  1  0
 19 20  1  0
 20 11  1  0
 21 25  1  0
 22 21  2  0
 23 17  1  0
 24 14  1  0
 24 23  2  0
M  END
$$$$
