AVY.pdb
     RDKit          3D

 25 25  0  0  1  0  0  0  0  0999 V2000
   25.1077  -12.7932  -15.4396 C   0  0  0  0  0  0  0  0  0  0  0  0
   23.9362  -13.3800  -16.1593 C   0  0  2  0  0  0  0  0  0  0  0  0
   24.3862  -14.2277  -17.2145 N   0  0  0  0  0  0  0  0  0  0  0  0
   22.9911  -12.3630  -16.6691 C   0  0  0  0  0  0  0  0  0  0  0  0
   23.1909  -11.8308  -17.7844 O   0  0  0  0  0  0  0  0  0  0  0  0
   19.3769  -12.6501  -17.5220 C   0  0  0  0  0  0  0  0  0  0  0  0
   19.4976  -11.5352  -16.5081 C   0  0  1  0  0  0  0  0  0  0  0  0
   19.0052  -12.0218  -15.1866 C   0  0  0  0  0  0  0  0  0  0  0  0
   20.9040  -10.9866  -16.4490 C   0  0  2  0  0  0  0  0  0  0  0  0
   21.8456  -11.9553  -15.9367 N   0  0  0  0  0  0  0  0  0  0  0  0
   20.8944   -9.7374  -15.6498 C   0  0  0  0  0  0  0  0  0  0  0  0
   21.0858   -9.7569  -14.3899 O   0  0  0  0  0  0  0  0  0  0  0  0
   21.5140   -0.9238  -14.4869 O   0  0  0  0  0  0  0  0  0  0  0  0
   21.5025   -2.2258  -14.9336 C   0  0  0  0  0  0  0  0  0  0  0  0
   22.3436   -3.1458  -14.3097 C   0  0  0  0  0  0  0  0  0  0  0  0
   22.3435   -4.4591  -14.7473 C   0  0  0  0  0  0  0  0  0  0  0  0
   21.5351   -4.8866  -15.7840 C   0  0  0  0  0  0  0  0  0  0  0  0
   21.5473   -6.2673  -16.2413 C   0  0  0  0  0  0  0  0  0  0  0  0
   20.6638   -7.2242  -15.5334 C   0  0  2  0  0  0  0  0  0  0  0  0
   20.6690   -8.4881  -16.2874 N   0  0  0  0  0  0  0  0  0  0  0  0
   19.3075   -6.6948  -15.3895 C   0  0  0  0  0  0  0  0  0  0  0  0
   18.4359   -6.8665  -16.2755 O   0  0  0  0  0  0  0  0  0  0  0  0
   20.7034   -3.9791  -16.4020 C   0  0  0  0  0  0  0  0  0  0  0  0
   20.6960   -2.6530  -15.9682 C   0  0  0  0  0  0  0  0  0  0  0  0
   18.9724   -5.9808  -14.2390 O   0  0  0  0  0  0  0  0  0  0  0  0
  2  4  1  0
  2  1  1  6
  3  2  1  0
  4  5  2  0
  7  9  1  0
  7  6  1  6
  8  7  1  0
  9 10  1  1
 10  4  1  0
 11  9  1  0
 12 11  2  0
 13 14  1  0
 14 15  2  0
 15 16  1  0
 17 16  2  0
 17 18  1  0
 19 18  1  6
 19 21  1  0
 19 20  1  0
 20 11  1  0
 21 25  1  0
 22 21  2  0
 23 17  1  0
 24 14  1  0
 24 23  2  0
M  END
$$$$
