EFA.pdb
     RDKit          3D

 26 26  0  0  1  0  0  0  0  0999 V2000
   25.7373  -10.5831  -21.1602 N   0  0  0  0  0  0  0  0  0  0  0  0
   25.3667  -10.7532  -19.7927 C   0  0  1  0  0  0  0  0  0  0  0  0
   24.0276  -10.1508  -19.4341 C   0  0  0  0  0  0  0  0  0  0  0  0
   23.9389   -8.6816  -19.7675 C   0  0  0  0  0  0  0  0  0  0  0  0
   22.8677   -8.4805  -20.7655 C   0  0  0  0  0  0  0  0  0  0  0  0
   22.5624   -7.3477  -21.1928 O   0  0  0  0  0  0  0  0  0  0  0  0
   25.4886  -12.1546  -19.3906 C   0  0  0  0  0  0  0  0  0  0  0  0
   25.3478  -13.0582  -20.2559 O   0  0  0  0  0  0  0  0  0  0  0  0
   22.1814   -9.5793  -21.2416 O   0  0  0  0  0  0  0  0  0  0  0  0
   25.7641  -12.4556  -18.0283 N   0  0  0  0  0  0  0  0  0  0  0  0
   25.8900  -13.7967  -17.5522 C   0  0  1  0  0  0  0  0  0  0  0  0
   26.8757  -13.8263  -16.4148 C   0  0  0  0  0  0  0  0  0  0  0  0
   27.0700  -15.2000  -15.8998 C   0  0  0  0  0  0  0  0  0  0  0  0
   27.7357  -16.1114  -16.7046 C   0  0  0  0  0  0  0  0  0  0  0  0
   27.9479  -17.4168  -16.2844 C   0  0  0  0  0  0  0  0  0  0  0  0
   27.4857  -17.8049  -15.0445 C   0  0  0  0  0  0  0  0  0  0  0  0
   26.8238  -16.9266  -14.2254 C   0  0  0  0  0  0  0  0  0  0  0  0
   26.6290  -15.6295  -14.6769 C   0  0  0  0  0  0  0  0  0  0  0  0
   24.5680  -14.3637  -17.1435 C   0  0  0  0  0  0  0  0  0  0  0  0
   23.8174  -13.6838  -16.4020 O   0  0  0  0  0  0  0  0  0  0  0  0
   22.1778  -16.7610  -18.4373 C   0  0  0  0  0  0  0  0  0  0  0  0
   22.8975  -16.1766  -17.2348 C   0  0  2  0  0  0  0  0  0  0  0  0
   24.1912  -15.6521  -17.6000 N   0  0  0  0  0  0  0  0  0  0  0  0
   23.0816  -17.2135  -16.2033 C   0  0  0  0  0  0  0  0  0  0  0  0
   24.1651  -18.0689  -16.2647 O   0  0  0  0  0  0  0  0  0  0  0  0
   22.2563  -17.3190  -15.2712 O   0  0  0  0  0  0  0  0  0  0  0  0
  2  7  1  0
  2  1  1  6
  3  2  1  0
  4  3  1  0
  5  6  2  0
  5  4  1  0
  7  8  2  0
  9  5  1  0
 10 11  1  0
 10  7  1  0
 11 12  1  1
 12 13  1  0
 13 18  2  0
 14 13  1  0
 14 15  2  0
 15 16  1  0
 16 17  2  0
 18 17  1  0
 19 23  1  0
 19 11  1  0
 20 19  2  0
 22 23  1  0
 22 21  1  6
 24 22  1  0
 25 24  1  0
 26 24  2  0
M  END
$$$$
