EFA.pdb
     RDKit          3D

 26 26  0  0  1  0  0  0  0  0999 V2000
   18.1077  -12.6042  -17.8107 N   0  0  0  0  0  0  0  0  0  0  0  0
   17.8788  -11.2238  -18.0907 C   0  0  1  0  0  0  0  0  0  0  0  0
   16.5110  -10.9256  -18.6607 C   0  0  0  0  0  0  0  0  0  0  0  0
   16.4113  -11.2351  -20.1345 C   0  0  0  0  0  0  0  0  0  0  0  0
   17.0657  -10.1515  -20.8971 C   0  0  0  0  0  0  0  0  0  0  0  0
   18.2500  -10.2333  -21.2838 O   0  0  0  0  0  0  0  0  0  0  0  0
   18.2067  -10.3957  -16.9300 C   0  0  0  0  0  0  0  0  0  0  0  0
   17.5042  -10.4879  -15.8893 O   0  0  0  0  0  0  0  0  0  0  0  0
   16.3458   -9.0114  -21.1919 O   0  0  0  0  0  0  0  0  0  0  0  0
   19.3144   -9.5076  -17.0122 N   0  0  0  0  0  0  0  0  0  0  0  0
   19.5956   -8.5407  -15.9988 C   0  0  1  0  0  0  0  0  0  0  0  0
   21.0451   -8.6445  -15.6060 C   0  0  0  0  0  0  0  0  0  0  0  0
   21.3993   -7.6511  -14.5679 C   0  0  0  0  0  0  0  0  0  0  0  0
   21.1099   -7.9551  -13.2468 C   0  0  0  0  0  0  0  0  0  0  0  0
   21.4118   -7.0665  -12.2247 C   0  0  0  0  0  0  0  0  0  0  0  0
   22.0093   -5.8637  -12.5375 C   0  0  0  0  0  0  0  0  0  0  0  0
   22.3081   -5.5341  -13.8346 C   0  0  0  0  0  0  0  0  0  0  0  0
   21.9927   -6.4457  -14.8314 C   0  0  0  0  0  0  0  0  0  0  0  0
   19.2493   -7.1562  -16.4455 C   0  0  0  0  0  0  0  0  0  0  0  0
   19.7555   -6.7145  -17.5058 O   0  0  0  0  0  0  0  0  0  0  0  0
   16.4772   -4.8201  -15.8213 C   0  0  0  0  0  0  0  0  0  0  0  0
   17.9316   -5.0898  -16.1642 C   0  0  2  0  0  0  0  0  0  0  0  0
   18.3598   -6.3744  -15.6657 N   0  0  0  0  0  0  0  0  0  0  0  0
   18.7908   -4.0449  -15.5784 C   0  0  0  0  0  0  0  0  0  0  0  0
   18.6750   -2.7341  -15.9999 O   0  0  0  0  0  0  0  0  0  0  0  0
   19.6255   -4.3452  -14.6985 O   0  0  0  0  0  0  0  0  0  0  0  0
  2  7  1  0
  2  1  1  1
  3  2  1  0
  4  3  1  0
  5  6  2  0
  5  4  1  0
  7  8  2  0
  9  5  1  0
 10 11  1  0
 10  7  1  0
 11 12  1  6
 12 13  1  0
 13 18  2  0
 14 13  1  0
 14 15  2  0
 15 16  1  0
 16 17  2  0
 18 17  1  0
 19 23  1  0
 19 11  1  0
 20 19  2  0
 22 23  1  0
 22 21  1  1
 24 22  1  0
 25 24  1  0
 26 24  2  0
M  END
$$$$
