EFA.pdb
     RDKit          3D

 26 26  0  0  1  0  0  0  0  0999 V2000
   21.0447  -10.3845  -18.2747 N   0  0  0  0  0  0  0  0  0  0  0  0
   21.5516   -9.0539  -18.3691 C   0  0  1  0  0  0  0  0  0  0  0  0
   21.3829   -8.4217  -19.7316 C   0  0  0  0  0  0  0  0  0  0  0  0
   19.9380   -8.1600  -20.0802 C   0  0  0  0  0  0  0  0  0  0  0  0
   19.6957   -6.7024  -20.0564 C   0  0  0  0  0  0  0  0  0  0  0  0
   18.7634   -6.1950  -19.3989 O   0  0  0  0  0  0  0  0  0  0  0  0
   21.0320   -8.2206  -17.2845 C   0  0  0  0  0  0  0  0  0  0  0  0
   20.0326   -8.6158  -16.6287 O   0  0  0  0  0  0  0  0  0  0  0  0
   20.5257   -5.8737  -20.7840 O   0  0  0  0  0  0  0  0  0  0  0  0
   21.6745   -6.9838  -17.0020 N   0  0  0  0  0  0  0  0  0  0  0  0
   21.3009   -6.1643  -15.8930 C   0  0  1  0  0  0  0  0  0  0  0  0
   22.4330   -6.1293  -14.9015 C   0  0  0  0  0  0  0  0  0  0  0  0
   22.5258   -7.3936  -14.1379 C   0  0  0  0  0  0  0  0  0  0  0  0
   21.7085   -7.5486  -13.0290 C   0  0  0  0  0  0  0  0  0  0  0  0
   21.7482   -8.7072  -12.2664 C   0  0  0  0  0  0  0  0  0  0  0  0
   22.6178   -9.7156  -12.6248 C   0  0  0  0  0  0  0  0  0  0  0  0
   23.4388   -9.5922  -13.7162 C   0  0  0  0  0  0  0  0  0  0  0  0
   23.3732   -8.4208  -14.4562 C   0  0  0  0  0  0  0  0  0  0  0  0
   20.9155   -4.7869  -16.3297 C   0  0  0  0  0  0  0  0  0  0  0  0
   21.7625   -4.0783  -16.9261 O   0  0  0  0  0  0  0  0  0  0  0  0
   17.7263   -2.8094  -16.4999 C   0  0  0  0  0  0  0  0  0  0  0  0
   19.2338   -2.9908  -16.5071 C   0  0  2  0  0  0  0  0  0  0  0  0
   19.6065   -4.3119  -16.0622 N   0  0  0  0  0  0  0  0  0  0  0  0
   19.8662   -1.9973  -15.6204 C   0  0  0  0  0  0  0  0  0  0  0  0
   20.0548   -0.6994  -16.0552 O   0  0  0  0  0  0  0  0  0  0  0  0
   20.2324   -2.3296  -14.4730 O   0  0  0  0  0  0  0  0  0  0  0  0
  2  7  1  0
  2  1  1  6
  3  2  1  0
  4  3  1  0
  5  6  2  0
  5  4  1  0
  7  8  2  0
  9  5  1  0
 10 11  1  0
 10  7  1  0
 11 12  1  1
 12 13  1  0
 13 18  2  0
 14 13  1  0
 14 15  2  0
 15 16  1  0
 16 17  2  0
 18 17  1  0
 19 23  1  0
 19 11  1  0
 20 19  2  0
 22 23  1  0
 22 21  1  1
 24 22  1  0
 25 24  1  0
 26 24  2  0
M  END
$$$$
