EFA.pdb
     RDKit          3D

 26 26  0  0  1  0  0  0  0  0999 V2000
   27.7585  -20.6444  -10.0125 N   0  0  0  0  0  0  0  0  0  0  0  0
   26.4009  -21.0753  -10.1004 C   0  0  1  0  0  0  0  0  0  0  0  0
   25.4784  -20.4262   -9.0942 C   0  0  0  0  0  0  0  0  0  0  0  0
   25.9290  -20.6330   -7.6688 C   0  0  0  0  0  0  0  0  0  0  0  0
   27.2550  -20.0055   -7.4896 C   0  0  0  0  0  0  0  0  0  0  0  0
   27.3957  -18.7694   -7.3829 O   0  0  0  0  0  0  0  0  0  0  0  0
   25.9100  -20.9726  -11.4748 C   0  0  0  0  0  0  0  0  0  0  0  0
   26.3103  -20.0266  -12.2028 O   0  0  0  0  0  0  0  0  0  0  0  0
   28.3751  -20.8103   -7.4385 O   0  0  0  0  0  0  0  0  0  0  0  0
   24.9915  -21.9490  -11.9495 N   0  0  0  0  0  0  0  0  0  0  0  0
   24.4639  -21.9204  -13.2769 C   0  0  1  0  0  0  0  0  0  0  0  0
   24.3911  -23.3264  -13.8096 C   0  0  0  0  0  0  0  0  0  0  0  0
   23.8296  -23.3605  -15.1784 C   0  0  0  0  0  0  0  0  0  0  0  0
   24.6282  -22.9224  -16.2233 C   0  0  0  0  0  0  0  0  0  0  0  0
   24.1621  -22.9240  -17.5303 C   0  0  0  0  0  0  0  0  0  0  0  0
   22.8824  -23.3703  -17.7846 C   0  0  0  0  0  0  0  0  0  0  0  0
   22.0682  -23.8098  -16.7725 C   0  0  0  0  0  0  0  0  0  0  0  0
   22.5661  -23.7948  -15.4779 C   0  0  0  0  0  0  0  0  0  0  0  0
   23.1287  -21.2486  -13.3257 C   0  0  0  0  0  0  0  0  0  0  0  0
   22.2751  -21.5269  -12.4485 O   0  0  0  0  0  0  0  0  0  0  0  0
   21.6573  -18.3424  -15.1680 C   0  0  0  0  0  0  0  0  0  0  0  0
   21.5851  -19.6310  -14.3680 C   0  0  2  0  0  0  0  0  0  0  0  0
   22.8556  -20.3151  -14.3575 N   0  0  0  0  0  0  0  0  0  0  0  0
   20.5694  -20.5288  -14.9470 C   0  0  0  0  0  0  0  0  0  0  0  0
   19.2438  -20.4079  -14.5761 O   0  0  0  0  0  0  0  0  0  0  0  0
   20.9078  -21.4009  -15.7753 O   0  0  0  0  0  0  0  0  0  0  0  0
  2  7  1  0
  2  1  1  6
  3  2  1  0
  4  3  1  0
  5  6  2  0
  5  4  1  0
  7  8  2  0
  9  5  1  0
 10 11  1  0
 10  7  1  0
 11 12  1  1
 12 13  1  0
 13 18  2  0
 14 13  1  0
 14 15  2  0
 15 16  1  0
 16 17  2  0
 18 17  1  0
 19 23  1  0
 19 11  1  0
 20 19  2  0
 22 23  1  0
 22 21  1  6
 24 22  1  0
 25 24  1  0
 26 24  2  0
M  END
$$$$
