EFA.pdb
     RDKit          3D

 26 26  0  0  1  0  0  0  0  0999 V2000
   27.9728  -23.8029  -17.1680 N   0  0  0  0  0  0  0  0  0  0  0  0
   27.2523  -22.5796  -17.0242 C   0  0  1  0  0  0  0  0  0  0  0  0
   26.5086  -22.1485  -18.2675 C   0  0  0  0  0  0  0  0  0  0  0  0
   27.4314  -21.7956  -19.4084 C   0  0  0  0  0  0  0  0  0  0  0  0
   28.1249  -20.5300  -19.0898 C   0  0  0  0  0  0  0  0  0  0  0  0
   29.3683  -20.4580  -19.0020 O   0  0  0  0  0  0  0  0  0  0  0  0
   26.4031  -22.6123  -15.8333 C   0  0  0  0  0  0  0  0  0  0  0  0
   25.6841  -23.6229  -15.6169 O   0  0  0  0  0  0  0  0  0  0  0  0
   27.3753  -19.3899  -18.8822 O   0  0  0  0  0  0  0  0  0  0  0  0
   26.4155  -21.4966  -14.9515 N   0  0  0  0  0  0  0  0  0  0  0  0
   25.6493  -21.4667  -13.7460 C   0  0  1  0  0  0  0  0  0  0  0  0
   26.2716  -20.4848  -12.7897 C   0  0  0  0  0  0  0  0  0  0  0  0
   25.5747  -20.4813  -11.4843 C   0  0  0  0  0  0  0  0  0  0  0  0
   26.1625  -21.1599  -10.4281 C   0  0  0  0  0  0  0  0  0  0  0  0
   25.5601  -21.1999   -9.1786 C   0  0  0  0  0  0  0  0  0  0  0  0
   24.3574  -20.5513   -8.9937 C   0  0  0  0  0  0  0  0  0  0  0  0
   23.7510  -19.8715  -10.0188 C   0  0  0  0  0  0  0  0  0  0  0  0
   24.3807  -19.8518  -11.2546 C   0  0  0  0  0  0  0  0  0  0  0  0
   24.2153  -21.1357  -14.0115 C   0  0  0  0  0  0  0  0  0  0  0  0
   23.9398  -20.0851  -14.6406 O   0  0  0  0  0  0  0  0  0  0  0  0
   21.0591  -22.9546  -14.2622 C   0  0  0  0  0  0  0  0  0  0  0  0
   21.8216  -21.7091  -13.8466 C   0  0  2  0  0  0  0  0  0  0  0  0
   23.2008  -22.0117  -13.5491 N   0  0  0  0  0  0  0  0  0  0  0  0
   21.2000  -21.1118  -12.6508 C   0  0  0  0  0  0  0  0  0  0  0  0
   19.9729  -20.4839  -12.7467 O   0  0  0  0  0  0  0  0  0  0  0  0
   21.7840  -21.1737  -11.5480 O   0  0  0  0  0  0  0  0  0  0  0  0
  2  7  1  0
  2  1  1  6
  3  2  1  0
  4  3  1  0
  5  6  2  0
  5  4  1  0
  7  8  2  0
  9  5  1  0
 10 11  1  0
 10  7  1  0
 11 12  1  1
 12 13  1  0
 13 18  2  0
 14 13  1  0
 14 15  2  0
 15 16  1  0
 16 17  2  0
 18 17  1  0
 19 23  1  0
 19 11  1  0
 20 19  2  0
 22 23  1  0
 22 21  1  1
 24 22  1  0
 25 24  1  0
 26 24  2  0
M  END
$$$$
