EFA.pdb
     RDKit          3D

 26 26  0  0  1  0  0  0  0  0999 V2000
   21.8468  -10.9630  -17.4193 N   0  0  0  0  0  0  0  0  0  0  0  0
   21.3775   -9.6224  -17.5562 C   0  0  1  0  0  0  0  0  0  0  0  0
   19.9176   -9.5121  -17.9321 C   0  0  0  0  0  0  0  0  0  0  0  0
   19.5691  -10.3101  -19.1647 C   0  0  0  0  0  0  0  0  0  0  0  0
   18.1679  -10.7680  -19.0588 C   0  0  0  0  0  0  0  0  0  0  0  0
   17.4920  -10.6030  -18.0221 O   0  0  0  0  0  0  0  0  0  0  0  0
   21.7260   -8.8259  -16.3794 C   0  0  0  0  0  0  0  0  0  0  0  0
   21.5227   -9.3014  -15.2315 O   0  0  0  0  0  0  0  0  0  0  0  0
   17.5863  -11.3987  -20.1400 O   0  0  0  0  0  0  0  0  0  0  0  0
   22.2869   -7.5328  -16.5682 N   0  0  0  0  0  0  0  0  0  0  0  0
   22.6355   -6.6837  -15.4734 C   0  0  1  0  0  0  0  0  0  0  0  0
   24.1163   -6.4151  -15.5090 C   0  0  0  0  0  0  0  0  0  0  0  0
   24.8952   -7.6720  -15.5679 C   0  0  0  0  0  0  0  0  0  0  0  0
   24.8312   -8.5318  -14.4824 C   0  0  0  0  0  0  0  0  0  0  0  0
   25.5401   -9.7246  -14.4708 C   0  0  0  0  0  0  0  0  0  0  0  0
   26.3183  -10.0520  -15.5611 C   0  0  0  0  0  0  0  0  0  0  0  0
   26.4021   -9.2225  -16.6498 C   0  0  0  0  0  0  0  0  0  0  0  0
   25.6804   -8.0381  -16.6281 C   0  0  0  0  0  0  0  0  0  0  0  0
   21.8498   -5.4114  -15.4897 C   0  0  0  0  0  0  0  0  0  0  0  0
   22.0280   -4.5744  -14.5715 O   0  0  0  0  0  0  0  0  0  0  0  0
   19.5731   -3.6416  -17.8796 C   0  0  0  0  0  0  0  0  0  0  0  0
   20.1061   -3.9892  -16.5010 C   0  0  2  0  0  0  0  0  0  0  0  0
   20.9237   -5.1777  -16.5377 N   0  0  0  0  0  0  0  0  0  0  0  0
   18.9867   -4.2140  -15.5685 C   0  0  0  0  0  0  0  0  0  0  0  0
   18.4313   -3.1513  -14.8818 O   0  0  0  0  0  0  0  0  0  0  0  0
   18.5388   -5.3680  -15.3990 O   0  0  0  0  0  0  0  0  0  0  0  0
  2  7  1  0
  2  1  1  1
  3  2  1  0
  4  3  1  0
  5  6  2  0
  5  4  1  0
  7  8  2  0
  9  5  1  0
 10 11  1  0
 10  7  1  0
 11 12  1  6
 12 13  1  0
 13 18  2  0
 14 13  1  0
 14 15  2  0
 15 16  1  0
 16 17  2  0
 18 17  1  0
 19 23  1  0
 19 11  1  0
 20 19  2  0
 22 23  1  0
 22 21  1  6
 24 22  1  0
 25 24  1  0
 26 24  2  0
M  END
$$$$
