EFA.pdb
     RDKit          3D

 26 26  0  0  1  0  0  0  0  0999 V2000
   23.1529  -10.4280  -19.2573 N   0  0  0  0  0  0  0  0  0  0  0  0
   23.3363   -9.0128  -19.2498 C   0  0  1  0  0  0  0  0  0  0  0  0
   23.0857   -8.3483  -20.5840 C   0  0  0  0  0  0  0  0  0  0  0  0
   23.9827   -8.8751  -21.6775 C   0  0  0  0  0  0  0  0  0  0  0  0
   23.7820   -8.0622  -22.8952 C   0  0  0  0  0  0  0  0  0  0  0  0
   22.6757   -7.9883  -23.4694 O   0  0  0  0  0  0  0  0  0  0  0  0
   22.5865   -8.3964  -18.1550 C   0  0  0  0  0  0  0  0  0  0  0  0
   21.5587   -8.9725  -17.7114 O   0  0  0  0  0  0  0  0  0  0  0  0
   24.8510   -7.3616  -23.4161 O   0  0  0  0  0  0  0  0  0  0  0  0
   23.0433   -7.1596  -17.6221 N   0  0  0  0  0  0  0  0  0  0  0  0
   22.3585   -6.4826  -16.5668 C   0  0  1  0  0  0  0  0  0  0  0  0
   23.2653   -6.3914  -15.3686 C   0  0  0  0  0  0  0  0  0  0  0  0
   23.4176   -7.7034  -14.7012 C   0  0  0  0  0  0  0  0  0  0  0  0
   24.5480   -8.4536  -14.9854 C   0  0  0  0  0  0  0  0  0  0  0  0
   24.7507   -9.6941  -14.3974 C   0  0  0  0  0  0  0  0  0  0  0  0
   23.8072  -10.1805  -13.5172 C   0  0  0  0  0  0  0  0  0  0  0  0
   22.6787   -9.4620  -13.2158 C   0  0  0  0  0  0  0  0  0  0  0  0
   22.5078   -8.2259  -13.8214 C   0  0  0  0  0  0  0  0  0  0  0  0
   21.8828   -5.1312  -16.9951 C   0  0  0  0  0  0  0  0  0  0  0  0
   22.6929   -4.3482  -17.5486 O   0  0  0  0  0  0  0  0  0  0  0  0
   18.5655   -3.3720  -17.1921 C   0  0  0  0  0  0  0  0  0  0  0  0
   20.0815   -3.4557  -17.1788 C   0  0  2  0  0  0  0  0  0  0  0  0
   20.5323   -4.7635  -16.7684 N   0  0  0  0  0  0  0  0  0  0  0  0
   20.6347   -2.4522  -16.2514 C   0  0  0  0  0  0  0  0  0  0  0  0
   21.1007   -2.8377  -15.0090 O   0  0  0  0  0  0  0  0  0  0  0  0
   20.6825   -1.2503  -16.5896 O   0  0  0  0  0  0  0  0  0  0  0  0
  2  7  1  0
  2  1  1  6
  3  2  1  0
  4  3  1  0
  5  6  2  0
  5  4  1  0
  7  8  2  0
  9  5  1  0
 10 11  1  0
 10  7  1  0
 11 12  1  1
 12 13  1  0
 13 18  2  0
 14 13  1  0
 14 15  2  0
 15 16  1  0
 16 17  2  0
 18 17  1  0
 19 23  1  0
 19 11  1  0
 20 19  2  0
 22 23  1  0
 22 21  1  1
 24 22  1  0
 25 24  1  0
 26 24  2  0
M  END
$$$$
