EFA.pdb
     RDKit          3D

 26 26  0  0  1  0  0  0  0  0999 V2000
   26.6817  -19.7564  -18.9190 N   0  0  0  0  0  0  0  0  0  0  0  0
   26.1501  -18.9584  -17.8622 C   0  0  1  0  0  0  0  0  0  0  0  0
   24.9515  -18.1262  -18.2567 C   0  0  0  0  0  0  0  0  0  0  0  0
   24.1039  -18.7869  -19.3163 C   0  0  0  0  0  0  0  0  0  0  0  0
   24.6515  -18.4499  -20.6470 C   0  0  0  0  0  0  0  0  0  0  0  0
   25.0934  -17.3133  -20.9147 O   0  0  0  0  0  0  0  0  0  0  0  0
   25.9148  -19.7677  -16.6663 C   0  0  0  0  0  0  0  0  0  0  0  0
   25.5065  -20.9518  -16.7944 O   0  0  0  0  0  0  0  0  0  0  0  0
   24.6757  -19.4219  -21.6266 O   0  0  0  0  0  0  0  0  0  0  0  0
   26.1557  -19.1903  -15.3892 N   0  0  0  0  0  0  0  0  0  0  0  0
   25.8631  -19.8783  -14.1719 C   0  0  1  0  0  0  0  0  0  0  0  0
   26.6488  -19.2532  -13.0503 C   0  0  0  0  0  0  0  0  0  0  0  0
   26.3794  -19.9233  -11.7587 C   0  0  0  0  0  0  0  0  0  0  0  0
   27.0857  -21.0786  -11.4622 C   0  0  0  0  0  0  0  0  0  0  0  0
   26.8786  -21.7588  -10.2705 C   0  0  0  0  0  0  0  0  0  0  0  0
   25.9533  -21.2701   -9.3724 C   0  0  0  0  0  0  0  0  0  0  0  0
   25.2390  -20.1298   -9.6368 C   0  0  0  0  0  0  0  0  0  0  0  0
   25.4711  -19.4750  -10.8374 C   0  0  0  0  0  0  0  0  0  0  0  0
   24.3970  -19.8787  -13.8768 C   0  0  0  0  0  0  0  0  0  0  0  0
   23.7796  -18.7860  -13.8593 O   0  0  0  0  0  0  0  0  0  0  0  0
   21.6387  -22.3307  -13.9162 C   0  0  0  0  0  0  0  0  0  0  0  0
   22.3220  -21.1016  -13.3434 C   0  0  2  0  0  0  0  0  0  0  0  0
   23.7374  -21.1082  -13.6241 N   0  0  0  0  0  0  0  0  0  0  0  0
   22.1298  -21.0515  -11.8827 C   0  0  0  0  0  0  0  0  0  0  0  0
   23.1673  -21.3876  -11.0342 O   0  0  0  0  0  0  0  0  0  0  0  0
   21.0263  -20.7041  -11.4108 O   0  0  0  0  0  0  0  0  0  0  0  0
  2  7  1  0
  2  1  1  6
  3  2  1  0
  4  3  1  0
  5  6  2  0
  5  4  1  0
  7  8  2  0
  9  5  1  0
 10 11  1  0
 10  7  1  0
 11 12  1  1
 12 13  1  0
 13 18  2  0
 14 13  1  0
 14 15  2  0
 15 16  1  0
 16 17  2  0
 18 17  1  0
 19 23  1  0
 19 11  1  0
 20 19  2  0
 22 23  1  0
 22 21  1  1
 24 22  1  0
 25 24  1  0
 26 24  2  0
M  END
$$$$
