PPQ.pdb
     RDKit          3D

 24 25  0  0  1  0  0  0  0  0999 V2000
   28.2759  -19.7752  -17.1078 N   0  0  0  0  0  0  0  0  0  0  0  0
   28.4437  -18.5248  -17.7890 C   0  0  0  0  0  0  0  0  0  0  0  0
   28.4000  -17.5093  -16.6554 C   0  0  0  0  0  0  0  0  0  0  0  0
   29.1042  -18.2549  -15.5344 C   0  0  0  0  0  0  0  0  0  0  0  0
   28.8898  -19.7360  -15.8239 C   0  0  1  0  0  0  0  0  0  0  0  0
   28.0014  -20.2835  -14.7636 C   0  0  0  0  0  0  0  0  0  0  0  0
   26.7802  -20.1690  -14.9692 O   0  0  0  0  0  0  0  0  0  0  0  0
   28.5303  -20.8757  -13.6345 N   0  0  0  0  0  0  0  0  0  0  0  0
   29.7675  -21.7008  -13.6813 C   0  0  0  0  0  0  0  0  0  0  0  0
   30.5549  -21.0030  -12.5922 C   0  0  0  0  0  0  0  0  0  0  0  0
   29.5057  -20.3651  -11.6668 C   0  0  0  0  0  0  0  0  0  0  0  0
   28.2295  -20.9620  -12.2486 C   0  0  1  0  0  0  0  0  0  0  0  0
   27.0199  -20.4139  -11.7132 C   0  0  0  0  0  0  0  0  0  0  0  0
   26.8960  -19.2040  -11.4108 O   0  0  0  0  0  0  0  0  0  0  0  0
   20.9749  -21.9005  -13.0610 N   0  0  0  0  0  0  0  0  0  0  0  0
   20.9357  -20.9166  -12.0436 C   0  0  0  0  0  0  0  0  0  0  0  0
   19.8142  -20.4486  -11.7444 O   0  0  0  0  0  0  0  0  0  0  0  0
   22.1383  -20.4509  -11.3596 C   0  0  0  0  0  0  0  0  0  0  0  0
   23.4276  -21.0519  -11.8051 C   0  0  0  0  0  0  0  0  0  0  0  0
   24.6024  -20.6346  -10.9979 C   0  0  2  0  0  0  0  0  0  0  0  0
   25.8486  -21.1902  -11.4750 N   0  0  0  0  0  0  0  0  0  0  0  0
   24.4470  -20.9665   -9.5717 C   0  0  0  0  0  0  0  0  0  0  0  0
   25.0210  -21.9159   -8.9884 O   0  0  0  0  0  0  0  0  0  0  0  0
   23.6039  -20.1963   -8.7490 O   0  0  0  0  0  0  0  0  0  0  0  0
  1  5  1  0
  1  2  1  0
  2  3  1  0
  4  3  1  0
  5  4  1  0
  6  8  1  0
  5  6  1  1
  7  6  2  0
  8 12  1  0
  9  8  1  0
  9 10  1  0
 10 11  1  0
 12 11  1  0
 12 13  1  6
 13 14  2  0
 16 15  1  0
 16 17  2  0
 18 16  1  0
 19 18  1  0
 20 19  1  6
 20 21  1  0
 21 13  1  0
 22 20  1  0
 22 24  1  0
 23 22  2  0
M  END
$$$$
