PPQ.pdb
     RDKit          3D

 24 25  0  0  1  0  0  0  0  0999 V2000
   28.1485  -20.5340  -15.2302 N   0  0  0  0  0  0  0  0  0  0  0  0
   28.6348  -19.4037  -15.9663 C   0  0  0  0  0  0  0  0  0  0  0  0
   27.6620  -18.2986  -15.5780 C   0  0  0  0  0  0  0  0  0  0  0  0
   27.3777  -18.6237  -14.1214 C   0  0  0  0  0  0  0  0  0  0  0  0
   27.6025  -20.1248  -13.9808 C   0  0  1  0  0  0  0  0  0  0  0  0
   26.2841  -20.7599  -13.7131 C   0  0  0  0  0  0  0  0  0  0  0  0
   25.5785  -20.9826  -14.7127 O   0  0  0  0  0  0  0  0  0  0  0  0
   25.8976  -21.0702  -12.4249 N   0  0  0  0  0  0  0  0  0  0  0  0
   26.8502  -21.6278  -11.4271 C   0  0  0  0  0  0  0  0  0  0  0  0
   26.6150  -20.6409  -10.3029 C   0  0  0  0  0  0  0  0  0  0  0  0
   25.1896  -20.1046  -10.5143 C   0  0  0  0  0  0  0  0  0  0  0  0
   24.7166  -21.0213  -11.6365 C   0  0  1  0  0  0  0  0  0  0  0  0
   23.4544  -20.6587  -12.2071 C   0  0  0  0  0  0  0  0  0  0  0  0
   23.2047  -19.5060  -12.6308 O   0  0  0  0  0  0  0  0  0  0  0  0
   18.5140  -24.0514  -13.9669 N   0  0  0  0  0  0  0  0  0  0  0  0
   18.3393  -22.8018  -14.6092 C   0  0  0  0  0  0  0  0  0  0  0  0
   17.2186  -22.5720  -15.1167 O   0  0  0  0  0  0  0  0  0  0  0  0
   19.4060  -21.8084  -14.6900 C   0  0  0  0  0  0  0  0  0  0  0  0
   20.6934  -22.1647  -14.0285 C   0  0  0  0  0  0  0  0  0  0  0  0
   21.1037  -21.2252  -12.9539 C   0  0  2  0  0  0  0  0  0  0  0  0
   22.3686  -21.5713  -12.3460 N   0  0  0  0  0  0  0  0  0  0  0  0
   20.0842  -21.1038  -11.8983 C   0  0  0  0  0  0  0  0  0  0  0  0
   20.0344  -21.8090  -10.8633 O   0  0  0  0  0  0  0  0  0  0  0  0
   19.0623  -20.1417  -12.0024 O   0  0  0  0  0  0  0  0  0  0  0  0
  1  5  1  0
  1  2  1  0
  2  3  1  0
  4  3  1  0
  5  4  1  0
  6  8  1  0
  5  6  1  6
  7  6  2  0
  8 12  1  0
  9  8  1  0
  9 10  1  0
 10 11  1  0
 12 11  1  0
 12 13  1  6
 13 14  2  0
 16 15  1  0
 16 17  2  0
 18 16  1  0
 19 18  1  0
 20 19  1  6
 20 21  1  0
 21 13  1  0
 22 20  1  0
 22 24  1  0
 23 22  2  0
M  END
$$$$
