PPQ.pdb
     RDKit          3D

 24 25  0  0  1  0  0  0  0  0999 V2000
   28.2148  -20.0648  -16.8035 N   0  0  0  0  0  0  0  0  0  0  0  0
   28.3431  -18.8811  -17.6023 C   0  0  0  0  0  0  0  0  0  0  0  0
   28.2439  -17.7624  -16.5743 C   0  0  0  0  0  0  0  0  0  0  0  0
   28.9610  -18.3661  -15.3785 C   0  0  0  0  0  0  0  0  0  0  0  0
   28.8086  -19.8758  -15.5235 C   0  0  1  0  0  0  0  0  0  0  0  0
   27.9276  -20.3526  -14.4237 C   0  0  0  0  0  0  0  0  0  0  0  0
   26.7054  -20.2313  -14.6190 O   0  0  0  0  0  0  0  0  0  0  0  0
   28.4639  -20.8911  -13.2715 N   0  0  0  0  0  0  0  0  0  0  0  0
   29.6863  -21.7392  -13.2906 C   0  0  0  0  0  0  0  0  0  0  0  0
   30.5020  -20.9965  -12.2532 C   0  0  0  0  0  0  0  0  0  0  0  0
   29.4780  -20.2905  -11.3493 C   0  0  0  0  0  0  0  0  0  0  0  0
   28.1832  -20.8959  -11.8786 C   0  0  1  0  0  0  0  0  0  0  0  0
   26.9913  -20.2981  -11.3568 C   0  0  0  0  0  0  0  0  0  0  0  0
   26.8062  -19.0589  -11.3310 O   0  0  0  0  0  0  0  0  0  0  0  0
   21.6027  -19.5414  -13.1118 N   0  0  0  0  0  0  0  0  0  0  0  0
   21.2348  -20.1234  -11.8747 C   0  0  0  0  0  0  0  0  0  0  0  0
   20.0547  -19.9561  -11.4931 O   0  0  0  0  0  0  0  0  0  0  0  0
   22.1742  -20.8889  -11.0606 C   0  0  0  0  0  0  0  0  0  0  0  0
   23.5774  -20.9584  -11.5587 C   0  0  0  0  0  0  0  0  0  0  0  0
   24.5936  -20.5062  -10.5745 C   0  0  2  0  0  0  0  0  0  0  0  0
   25.9087  -21.0537  -10.8201 N   0  0  0  0  0  0  0  0  0  0  0  0
   24.2020  -20.8091   -9.1876 C   0  0  0  0  0  0  0  0  0  0  0  0
   23.3845  -20.1430   -8.5102 O   0  0  0  0  0  0  0  0  0  0  0  0
   24.7531  -21.9176   -8.5180 O   0  0  0  0  0  0  0  0  0  0  0  0
  1  5  1  0
  1  2  1  0
  2  3  1  0
  4  3  1  0
  5  4  1  0
  6  8  1  0
  5  6  1  1
  7  6  2  0
  8 12  1  0
  9  8  1  0
  9 10  1  0
 10 11  1  0
 12 11  1  0
 12 13  1  6
 13 14  2  0
 16 15  1  0
 16 17  2  0
 18 16  1  0
 19 18  1  0
 20 19  1  6
 20 21  1  0
 21 13  1  0
 22 20  1  0
 22 24  1  0
 23 22  2  0
M  END
$$$$
