PPQ.pdb
     RDKit          3D

 24 25  0  0  1  0  0  0  0  0999 V2000
   22.1747  -21.1193  -13.6398 N   0  0  0  0  0  0  0  0  0  0  0  0
   21.6338  -20.2855  -14.6732 C   0  0  0  0  0  0  0  0  0  0  0  0
   20.4980  -19.5584  -13.9664 C   0  0  0  0  0  0  0  0  0  0  0  0
   21.0704  -19.3536  -12.5740 C   0  0  0  0  0  0  0  0  0  0  0  0
   22.0818  -20.4763  -12.3731 C   0  0  1  0  0  0  0  0  0  0  0  0
   21.5499  -21.3861  -11.3230 C   0  0  0  0  0  0  0  0  0  0  0  0
   20.6161  -22.1289  -11.6738 O   0  0  0  0  0  0  0  0  0  0  0  0
   22.0812  -21.3822  -10.0491 N   0  0  0  0  0  0  0  0  0  0  0  0
   23.5172  -21.0887   -9.7931 C   0  0  0  0  0  0  0  0  0  0  0  0
   23.3513  -19.9946   -8.7595 C   0  0  0  0  0  0  0  0  0  0  0  0
   21.9857  -20.2507   -8.1012 C   0  0  0  0  0  0  0  0  0  0  0  0
   21.6336  -21.5993   -8.7182 C   0  0  1  0  0  0  0  0  0  0  0  0
   20.3020  -22.0482   -8.4439 C   0  0  0  0  0  0  0  0  0  0  0  0
   19.2832  -21.3874   -8.7539 O   0  0  0  0  0  0  0  0  0  0  0  0
   17.4851  -27.1202  -10.1844 N   0  0  0  0  0  0  0  0  0  0  0  0
   16.5445  -26.4508   -9.3647 C   0  0  0  0  0  0  0  0  0  0  0  0
   15.3664  -26.8724   -9.3854 O   0  0  0  0  0  0  0  0  0  0  0  0
   16.9091  -25.3145   -8.5239 C   0  0  0  0  0  0  0  0  0  0  0  0
   18.3442  -24.9117   -8.5418 C   0  0  0  0  0  0  0  0  0  0  0  0
   18.6736  -23.7991   -7.6147 C   0  0  2  0  0  0  0  0  0  0  0  0
   20.0120  -23.2836   -7.7951 N   0  0  0  0  0  0  0  0  0  0  0  0
   18.4939  -24.1764   -6.2027 C   0  0  0  0  0  0  0  0  0  0  0  0
   19.4188  -24.5078   -5.4244 O   0  0  0  0  0  0  0  0  0  0  0  0
   17.2103  -24.1848   -5.6256 O   0  0  0  0  0  0  0  0  0  0  0  0
  1  5  1  0
  1  2  1  0
  2  3  1  0
  4  3  1  0
  5  4  1  0
  6  8  1  0
  5  6  1  1
  7  6  2  0
  8 12  1  0
  9  8  1  0
  9 10  1  0
 10 11  1  0
 12 11  1  0
 12 13  1  6
 13 14  2  0
 16 15  1  0
 16 17  2  0
 18 16  1  0
 19 18  1  0
 20 19  1  6
 20 21  1  0
 21 13  1  0
 22 20  1  0
 22 24  1  0
 23 22  2  0
M  END
$$$$
