PPQ.pdb
     RDKit          3D

 24 25  0  0  1  0  0  0  0  0999 V2000
   27.8601  -20.2662  -15.2856 N   0  0  0  0  0  0  0  0  0  0  0  0
   28.3693  -19.1072  -15.9587 C   0  0  0  0  0  0  0  0  0  0  0  0
   27.4604  -17.9934  -15.4568 C   0  0  0  0  0  0  0  0  0  0  0  0
   27.2139  -18.4101  -14.0166 C   0  0  0  0  0  0  0  0  0  0  0  0
   27.3773  -19.9254  -13.9905 C   0  0  1  0  0  0  0  0  0  0  0  0
   26.0425  -20.5230  -13.7174 C   0  0  0  0  0  0  0  0  0  0  0  0
   25.2863  -20.6282  -14.6992 O   0  0  0  0  0  0  0  0  0  0  0  0
   25.6955  -20.9254  -12.4435 N   0  0  0  0  0  0  0  0  0  0  0  0
   26.6641  -21.5981  -11.5363 C   0  0  0  0  0  0  0  0  0  0  0  0
   26.5128  -20.7005  -10.3262 C   0  0  0  0  0  0  0  0  0  0  0  0
   25.1024  -20.0975  -10.4319 C   0  0  0  0  0  0  0  0  0  0  0  0
   24.5494  -20.8999  -11.6040 C   0  0  1  0  0  0  0  0  0  0  0  0
   23.2809  -20.4458  -12.0886 C   0  0  0  0  0  0  0  0  0  0  0  0
   23.0062  -19.2331  -12.2453 O   0  0  0  0  0  0  0  0  0  0  0  0
   20.5191  -21.0070  -16.9674 N   0  0  0  0  0  0  0  0  0  0  0  0
   19.3238  -20.9092  -16.2149 C   0  0  0  0  0  0  0  0  0  0  0  0
   18.3033  -20.5018  -16.8138 O   0  0  0  0  0  0  0  0  0  0  0  0
   19.2600  -21.2614  -14.7996 C   0  0  0  0  0  0  0  0  0  0  0  0
   20.5345  -21.7129  -14.1720 C   0  0  0  0  0  0  0  0  0  0  0  0
   20.9681  -20.8862  -13.0169 C   0  0  2  0  0  0  0  0  0  0  0  0
   22.2164  -21.3272  -12.4366 N   0  0  0  0  0  0  0  0  0  0  0  0
   19.9457  -20.8239  -11.9589 C   0  0  0  0  0  0  0  0  0  0  0  0
   19.0602  -19.9418  -11.8668 O   0  0  0  0  0  0  0  0  0  0  0  0
   19.9085  -21.8006  -10.9463 O   0  0  0  0  0  0  0  0  0  0  0  0
  1  5  1  0
  1  2  1  0
  2  3  1  0
  4  3  1  0
  5  4  1  0
  6  8  1  0
  5  6  1  6
  7  6  2  0
  8 12  1  0
  9  8  1  0
  9 10  1  0
 10 11  1  0
 12 11  1  0
 12 13  1  6
 13 14  2  0
 16 15  1  0
 16 17  2  0
 18 16  1  0
 19 18  1  0
 20 19  1  6
 20 21  1  0
 21 13  1  0
 22 20  1  0
 22 24  1  0
 23 22  2  0
M  END
$$$$
