PPQ.pdb
     RDKit          3D

 24 25  0  0  1  0  0  0  0  0999 V2000
   28.0997  -20.2104  -16.5975 N   0  0  0  0  0  0  0  0  0  0  0  0
   28.1543  -19.0417  -17.4262 C   0  0  0  0  0  0  0  0  0  0  0  0
   28.0250  -17.9043  -16.4223 C   0  0  0  0  0  0  0  0  0  0  0  0
   28.7959  -18.4448  -15.2298 C   0  0  0  0  0  0  0  0  0  0  0  0
   28.7119  -19.9630  -15.3362 C   0  0  1  0  0  0  0  0  0  0  0  0
   27.8788  -20.4537  -14.2056 C   0  0  0  0  0  0  0  0  0  0  0  0
   26.6508  -20.4614  -14.4025 O   0  0  0  0  0  0  0  0  0  0  0  0
   28.4623  -20.8676  -13.0252 N   0  0  0  0  0  0  0  0  0  0  0  0
   29.7529  -21.6076  -12.9990 C   0  0  0  0  0  0  0  0  0  0  0  0
   30.5046  -20.7315  -12.0190 C   0  0  0  0  0  0  0  0  0  0  0  0
   29.4262  -20.0576  -11.1547 C   0  0  0  0  0  0  0  0  0  0  0  0
   28.1867  -20.8049  -11.6327 C   0  0  1  0  0  0  0  0  0  0  0  0
   26.9493  -20.2781  -11.1412 C   0  0  0  0  0  0  0  0  0  0  0  0
   26.7043  -19.0501  -11.0907 O   0  0  0  0  0  0  0  0  0  0  0  0
   21.4199  -21.1664  -13.2834 N   0  0  0  0  0  0  0  0  0  0  0  0
   21.1912  -20.4270  -12.0979 C   0  0  0  0  0  0  0  0  0  0  0  0
   20.0543  -19.9258  -11.9474 O   0  0  0  0  0  0  0  0  0  0  0  0
   22.2218  -20.2420  -11.0807 C   0  0  0  0  0  0  0  0  0  0  0  0
   23.5648  -20.8112  -11.3883 C   0  0  0  0  0  0  0  0  0  0  0  0
   24.5754  -20.5917  -10.3223 C   0  0  2  0  0  0  0  0  0  0  0  0
   25.8852  -21.0980  -10.6652 N   0  0  0  0  0  0  0  0  0  0  0  0
   24.1625  -21.1708   -9.0329 C   0  0  0  0  0  0  0  0  0  0  0  0
   23.1474  -20.8269   -8.3831 O   0  0  0  0  0  0  0  0  0  0  0  0
   24.9245  -22.1913   -8.4340 O   0  0  0  0  0  0  0  0  0  0  0  0
  1  5  1  0
  1  2  1  0
  2  3  1  0
  4  3  1  0
  5  4  1  0
  6  8  1  0
  5  6  1  1
  7  6  2  0
  8 12  1  0
  9  8  1  0
  9 10  1  0
 10 11  1  0
 12 11  1  0
 12 13  1  6
 13 14  2  0
 16 15  1  0
 16 17  2  0
 18 16  1  0
 19 18  1  0
 20 19  1  6
 20 21  1  0
 21 13  1  0
 22 20  1  0
 22 24  1  0
 23 22  2  0
M  END
$$$$
