FIW.pdb
     RDKit          3D

 34 36  0  0  1  0  0  0  0  0999 V2000
   23.2703  -19.7586  -15.5659 N   0  0  0  0  0  0  0  0  0  0  0  0
   24.3922  -19.1016  -14.8764 C   0  0  1  0  0  0  0  0  0  0  0  0
   23.9109  -17.6708  -14.6493 C   0  0  0  0  0  0  0  0  0  0  0  0
   24.9036  -16.7797  -15.2965 C   0  0  0  0  0  0  0  0  0  0  0  0
   25.8395  -16.0934  -14.5544 C   0  0  0  0  0  0  0  0  0  0  0  0
   26.7687  -15.2571  -15.1800 C   0  0  0  0  0  0  0  0  0  0  0  0
   26.7592  -15.1090  -16.5512 C   0  0  0  0  0  0  0  0  0  0  0  0
   25.8332  -15.7871  -17.2949 C   0  0  0  0  0  0  0  0  0  0  0  0
   24.9299  -16.6028  -16.6629 C   0  0  0  0  0  0  0  0  0  0  0  0
   24.6681  -19.8049  -13.6277 C   0  0  0  0  0  0  0  0  0  0  0  0
   23.8169  -20.6143  -13.1672 O   0  0  0  0  0  0  0  0  0  0  0  0
   30.0982  -19.6563  -13.0538 C   0  0  0  0  0  0  0  0  0  0  0  0
   28.6815  -20.0554  -13.3352 C   0  0  0  0  0  0  0  0  0  0  0  0
   27.9536  -20.4377  -12.0990 C   0  0  2  0  0  0  0  0  0  0  0  0
   28.7736  -21.2956  -11.1557 C   0  0  0  0  0  0  0  0  0  0  0  0
   26.5164  -20.7815  -12.1939 C   0  0  2  0  0  0  0  0  0  0  0  0
   25.8513  -19.6552  -12.8562 N   0  0  0  0  0  0  0  0  0  0  0  0
   25.8225  -21.1892  -10.9807 C   0  0  0  0  0  0  0  0  0  0  0  0
   24.6128  -21.5083  -11.0580 O   0  0  0  0  0  0  0  0  0  0  0  0
   26.4321  -21.2477   -9.6987 N   0  0  0  0  0  0  0  0  0  0  0  0
   25.7090  -20.8105   -8.5384 C   0  0  1  0  0  0  0  0  0  0  0  0
   26.0420  -19.4005   -8.1008 C   0  0  0  0  0  0  0  0  0  0  0  0
   27.3528  -19.3292   -7.4101 C   0  0  0  0  0  0  0  0  0  0  0  0
   28.5616  -18.8209   -7.9018 C   0  0  0  0  0  0  0  0  0  0  0  0
   29.5200  -18.9434   -6.9638 N   0  0  0  0  0  0  0  0  0  0  0  0
   29.0053  -19.5147   -5.8575 C   0  0  0  0  0  0  0  0  0  0  0  0
   29.5601  -19.8548   -4.6351 C   0  0  0  0  0  0  0  0  0  0  0  0
   28.8018  -20.4442   -3.6432 C   0  0  0  0  0  0  0  0  0  0  0  0
   27.4781  -20.6836   -3.9057 C   0  0  0  0  0  0  0  0  0  0  0  0
   26.9207  -20.3461   -5.1238 C   0  0  0  0  0  0  0  0  0  0  0  0
   27.6745  -19.7524   -6.1295 C   0  0  0  0  0  0  0  0  0  0  0  0
   24.2547  -21.0303   -8.5953 C   0  0  0  0  0  0  0  0  0  0  0  0
   23.6472  -20.9313   -9.6791 O   0  0  0  0  0  0  0  0  0  0  0  0
   23.5608  -21.3451   -7.4520 O   0  0  0  0  0  0  0  0  0  0  0  0
  2  1  1  1
  2  3  1  0
  4  5  2  0
  4  3  1  0
  6  5  1  0
  7  6  2  0
  8  7  1  0
  8  9  2  0
  9  4  1  0
 10  2  1  0
 11 10  2  0
 12 13  1  0
 13 14  1  0
 14 15  1  6
 16 14  1  0
 16 17  1  1
 17 10  1  0
 18 16  1  0
 18 20  1  0
 19 18  2  0
 21 20  1  0
 21 22  1  6
 22 23  1  0
 23 24  2  0
 24 25  1  0
 26 25  1  0
 27 26  2  0
 28 27  1  0
 29 30  1  0
 29 28  2  0
 30 31  2  0
 31 23  1  0
 31 26  1  0
 32 21  1  0
 33 32  2  0
 34 32  1  0
M  END
$$$$
