FIW.pdb
     RDKit          3D

 34 36  0  0  1  0  0  0  0  0999 V2000
   23.2011  -18.2583  -17.5416 N   0  0  0  0  0  0  0  0  0  0  0  0
   23.6340  -18.1767  -16.1374 C   0  0  1  0  0  0  0  0  0  0  0  0
   22.3654  -18.4520  -15.3340 C   0  0  0  0  0  0  0  0  0  0  0  0
   21.4686  -17.2899  -15.5425 C   0  0  0  0  0  0  0  0  0  0  0  0
   20.2556  -17.4281  -16.1806 C   0  0  0  0  0  0  0  0  0  0  0  0
   19.4215  -16.3223  -16.3693 C   0  0  0  0  0  0  0  0  0  0  0  0
   19.8043  -15.0767  -15.9177 C   0  0  0  0  0  0  0  0  0  0  0  0
   21.0071  -14.9313  -15.2831 C   0  0  0  0  0  0  0  0  0  0  0  0
   21.8115  -16.0281  -15.1074 C   0  0  0  0  0  0  0  0  0  0  0  0
   24.6763  -19.1694  -15.8966 C   0  0  0  0  0  0  0  0  0  0  0  0
   24.5399  -20.3388  -16.3498 O   0  0  0  0  0  0  0  0  0  0  0  0
   29.7936  -17.7343  -16.1980 C   0  0  0  0  0  0  0  0  0  0  0  0
   28.5070  -18.4940  -16.3118 C   0  0  0  0  0  0  0  0  0  0  0  0
   28.2139  -19.2815  -15.0877 C   0  0  2  0  0  0  0  0  0  0  0  0
   29.4046  -20.0671  -14.5751 C   0  0  0  0  0  0  0  0  0  0  0  0
   26.9008  -19.9559  -14.9699 C   0  0  2  0  0  0  0  0  0  0  0  0
   25.8742  -18.9289  -15.1720 N   0  0  0  0  0  0  0  0  0  0  0  0
   26.6423  -20.7614  -13.7850 C   0  0  0  0  0  0  0  0  0  0  0  0
   27.3432  -21.7814  -13.5863 O   0  0  0  0  0  0  0  0  0  0  0  0
   25.6343  -20.4659  -12.8284 N   0  0  0  0  0  0  0  0  0  0  0  0
   25.3916  -21.3676  -11.7382 C   0  0  1  0  0  0  0  0  0  0  0  0
   26.6085  -21.6368  -10.8796 C   0  0  0  0  0  0  0  0  0  0  0  0
   26.6589  -20.7463   -9.6942 C   0  0  0  0  0  0  0  0  0  0  0  0
   25.6900  -19.8343   -9.2574 C   0  0  0  0  0  0  0  0  0  0  0  0
   26.1201  -19.2158   -8.1413 N   0  0  0  0  0  0  0  0  0  0  0  0
   27.3419  -19.6748   -7.8072 C   0  0  0  0  0  0  0  0  0  0  0  0
   28.2041  -19.3702   -6.7673 C   0  0  0  0  0  0  0  0  0  0  0  0
   29.4287  -19.9960   -6.6451 C   0  0  0  0  0  0  0  0  0  0  0  0
   29.7668  -20.9317   -7.5878 C   0  0  0  0  0  0  0  0  0  0  0  0
   28.9097  -21.2386   -8.6268 C   0  0  0  0  0  0  0  0  0  0  0  0
   27.6747  -20.6148   -8.7597 C   0  0  0  0  0  0  0  0  0  0  0  0
   24.2117  -21.0462  -10.9191 C   0  0  0  0  0  0  0  0  0  0  0  0
   23.6932  -19.9146  -10.9828 O   0  0  0  0  0  0  0  0  0  0  0  0
   23.6775  -21.9937  -10.0797 O   0  0  0  0  0  0  0  0  0  0  0  0
  2  1  1  6
  2  3  1  0
  4  5  2  0
  4  3  1  0
  6  5  1  0
  7  6  2  0
  8  7  1  0
  8  9  2  0
  9  4  1  0
 10  2  1  0
 11 10  2  0
 12 13  1  0
 13 14  1  0
 14 15  1  6
 16 14  1  0
 16 17  1  1
 17 10  1  0
 18 16  1  0
 18 20  1  0
 19 18  2  0
 21 20  1  0
 21 22  1  1
 22 23  1  0
 23 24  2  0
 24 25  1  0
 26 25  1  0
 27 26  2  0
 28 27  1  0
 29 30  1  0
 29 28  2  0
 30 31  2  0
 31 23  1  0
 31 26  1  0
 32 21  1  0
 33 32  2  0
 34 32  1  0
M  END
$$$$
