FIW.pdb
     RDKit          3D

 34 36  0  0  1  0  0  0  0  0999 V2000
   28.1744  -20.5290  -15.4005 N   0  0  0  0  0  0  0  0  0  0  0  0
   27.1445  -19.7065  -14.7460 C   0  0  1  0  0  0  0  0  0  0  0  0
   26.4246  -19.0131  -15.9000 C   0  0  0  0  0  0  0  0  0  0  0  0
   27.4182  -18.1246  -16.5493 C   0  0  0  0  0  0  0  0  0  0  0  0
   27.7764  -16.9198  -15.9858 C   0  0  0  0  0  0  0  0  0  0  0  0
   28.7149  -16.0935  -16.6108 C   0  0  0  0  0  0  0  0  0  0  0  0
   29.2948  -16.4761  -17.8022 C   0  0  0  0  0  0  0  0  0  0  0  0
   28.9445  -17.6710  -18.3680 C   0  0  0  0  0  0  0  0  0  0  0  0
   28.0219  -18.4677  -17.7396 C   0  0  0  0  0  0  0  0  0  0  0  0
   26.2592  -20.5703  -13.9714 C   0  0  0  0  0  0  0  0  0  0  0  0
   26.5517  -21.7882  -13.8210 O   0  0  0  0  0  0  0  0  0  0  0  0
   27.8765  -21.0686  -10.2489 C   0  0  0  0  0  0  0  0  0  0  0  0
   26.9251  -21.2475  -11.3927 C   0  0  0  0  0  0  0  0  0  0  0  0
   25.5884  -20.6703  -11.1022 C   0  0  2  0  0  0  0  0  0  0  0  0
   25.1375  -20.8808   -9.6704 C   0  0  0  0  0  0  0  0  0  0  0  0
   24.5279  -20.7717  -12.1307 C   0  0  2  0  0  0  0  0  0  0  0  0
   25.0542  -20.1482  -13.3489 N   0  0  0  0  0  0  0  0  0  0  0  0
   23.1962  -20.2856  -11.7994 C   0  0  0  0  0  0  0  0  0  0  0  0
   22.6137  -20.7625  -10.7972 O   0  0  0  0  0  0  0  0  0  0  0  0
   22.5032  -19.2961  -12.5473 N   0  0  0  0  0  0  0  0  0  0  0  0
   21.5707  -19.6872  -13.5661 C   0  0  1  0  0  0  0  0  0  0  0  0
   22.2202  -20.0985  -14.8698 C   0  0  0  0  0  0  0  0  0  0  0  0
   21.9106  -19.1496  -15.9671 C   0  0  0  0  0  0  0  0  0  0  0  0
   20.7949  -19.1424  -16.8137 C   0  0  0  0  0  0  0  0  0  0  0  0
   20.8910  -18.1174  -17.6817 N   0  0  0  0  0  0  0  0  0  0  0  0
   22.0283  -17.4319  -17.4542 C   0  0  0  0  0  0  0  0  0  0  0  0
   22.5858  -16.3171  -18.0575 C   0  0  0  0  0  0  0  0  0  0  0  0
   23.7905  -15.7969  -17.6279 C   0  0  0  0  0  0  0  0  0  0  0  0
   24.4205  -16.4196  -16.5821 C   0  0  0  0  0  0  0  0  0  0  0  0
   23.8679  -17.5320  -15.9774 C   0  0  0  0  0  0  0  0  0  0  0  0
   22.6559  -18.0641  -16.4016 C   0  0  0  0  0  0  0  0  0  0  0  0
   20.5557  -20.6624  -13.1358 C   0  0  0  0  0  0  0  0  0  0  0  0
   20.8520  -21.8677  -13.0227 O   0  0  0  0  0  0  0  0  0  0  0  0
   19.2760  -20.2468  -12.8576 O   0  0  0  0  0  0  0  0  0  0  0  0
  2  1  1  6
  2  3  1  0
  4  5  2  0
  4  3  1  0
  6  5  1  0
  7  6  2  0
  8  7  1  0
  8  9  2  0
  9  4  1  0
 10  2  1  0
 11 10  2  0
 12 13  1  0
 13 14  1  0
 14 15  1  1
 16 14  1  0
 16 17  1  6
 17 10  1  0
 18 16  1  0
 18 20  1  0
 19 18  2  0
 21 20  1  0
 21 22  1  6
 22 23  1  0
 23 24  2  0
 24 25  1  0
 26 25  1  0
 27 26  2  0
 28 27  1  0
 29 30  1  0
 29 28  2  0
 30 31  2  0
 31 23  1  0
 31 26  1  0
 32 21  1  0
 33 32  2  0
 34 32  1  0
M  END
$$$$
