FIW.pdb
     RDKit          3D

 34 36  0  0  1  0  0  0  0  0999 V2000
   25.9832  -17.6784  -16.4210 N   0  0  0  0  0  0  0  0  0  0  0  0
   26.8345  -18.1717  -15.3267 C   0  0  1  0  0  0  0  0  0  0  0  0
   27.4163  -16.9068  -14.7004 C   0  0  0  0  0  0  0  0  0  0  0  0
   28.4127  -16.3753  -15.6612 C   0  0  0  0  0  0  0  0  0  0  0  0
   28.3184  -15.0920  -16.1527 C   0  0  0  0  0  0  0  0  0  0  0  0
   29.2662  -14.6060  -17.0580 C   0  0  0  0  0  0  0  0  0  0  0  0
   30.3096  -15.4079  -17.4708 C   0  0  0  0  0  0  0  0  0  0  0  0
   30.4101  -16.6833  -16.9873 C   0  0  0  0  0  0  0  0  0  0  0  0
   29.4705  -17.1419  -16.0998 C   0  0  0  0  0  0  0  0  0  0  0  0
   26.0184  -18.9368  -14.3894 C   0  0  0  0  0  0  0  0  0  0  0  0
   24.9104  -18.4723  -14.0047 O   0  0  0  0  0  0  0  0  0  0  0  0
   24.7400  -23.7716  -15.4342 C   0  0  0  0  0  0  0  0  0  0  0  0
   24.7369  -22.3671  -14.9117 C   0  0  0  0  0  0  0  0  0  0  0  0
   25.2854  -22.2828  -13.5347 C   0  0  2  0  0  0  0  0  0  0  0  0
   24.7365  -23.3423  -12.5997 C   0  0  0  0  0  0  0  0  0  0  0  0
   25.5041  -20.9473  -12.9337 C   0  0  2  0  0  0  0  0  0  0  0  0
   26.3718  -20.2033  -13.8519 N   0  0  0  0  0  0  0  0  0  0  0  0
   25.9769  -20.8782  -11.5584 C   0  0  0  0  0  0  0  0  0  0  0  0
   27.1862  -21.1119  -11.3255 O   0  0  0  0  0  0  0  0  0  0  0  0
   25.1480  -20.5620  -10.4486 N   0  0  0  0  0  0  0  0  0  0  0  0
   25.5993  -20.8350   -9.1137 C   0  0  1  0  0  0  0  0  0  0  0  0
   26.7106  -19.9229   -8.6410 C   0  0  0  0  0  0  0  0  0  0  0  0
   27.0336  -20.1381   -7.2093 C   0  0  0  0  0  0  0  0  0  0  0  0
   26.3271  -20.8991   -6.2695 C   0  0  0  0  0  0  0  0  0  0  0  0
   26.9478  -20.8359   -5.0762 N   0  0  0  0  0  0  0  0  0  0  0  0
   28.0461  -20.0617   -5.1734 C   0  0  0  0  0  0  0  0  0  0  0  0
   29.0094  -19.6839   -4.2532 C   0  0  0  0  0  0  0  0  0  0  0  0
   30.0603  -18.8633   -4.6119 C   0  0  0  0  0  0  0  0  0  0  0  0
   30.1216  -18.4322   -5.9114 C   0  0  0  0  0  0  0  0  0  0  0  0
   29.1627  -18.8067   -6.8327 C   0  0  0  0  0  0  0  0  0  0  0  0
   28.1007  -19.6322   -6.4827 C   0  0  0  0  0  0  0  0  0  0  0  0
   24.5295  -20.9501   -8.1093 C   0  0  0  0  0  0  0  0  0  0  0  0
   24.7819  -21.3924   -6.9717 O   0  0  0  0  0  0  0  0  0  0  0  0
   23.2469  -20.5705   -8.4231 O   0  0  0  0  0  0  0  0  0  0  0  0
  2  1  1  6
  2  3  1  0
  4  5  2  0
  4  3  1  0
  6  5  1  0
  7  6  2  0
  8  7  1  0
  8  9  2  0
  9  4  1  0
 10  2  1  0
 11 10  2  0
 12 13  1  0
 13 14  1  0
 14 15  1  1
 16 14  1  0
 16 17  1  6
 17 10  1  0
 18 16  1  0
 18 20  1  0
 19 18  2  0
 21 20  1  0
 21 22  1  1
 22 23  1  0
 23 24  2  0
 24 25  1  0
 26 25  1  0
 27 26  2  0
 28 27  1  0
 29 30  1  0
 29 28  2  0
 30 31  2  0
 31 23  1  0
 31 26  1  0
 32 21  1  0
 33 32  2  0
 34 32  1  0
M  END
$$$$
