FIW.pdb
     RDKit          3D

 34 36  0  0  1  0  0  0  0  0999 V2000
   27.3357  -23.9688  -17.2270 N   0  0  0  0  0  0  0  0  0  0  0  0
   26.2606  -23.3034  -16.4738 C   0  0  1  0  0  0  0  0  0  0  0  0
   25.4446  -24.4516  -15.8853 C   0  0  0  0  0  0  0  0  0  0  0  0
   24.5849  -24.9669  -16.9777 C   0  0  0  0  0  0  0  0  0  0  0  0
   23.6039  -24.1841  -17.5456 C   0  0  0  0  0  0  0  0  0  0  0  0
   22.8016  -24.6850  -18.5750 C   0  0  0  0  0  0  0  0  0  0  0  0
   22.9834  -25.9723  -19.0353 C   0  0  0  0  0  0  0  0  0  0  0  0
   23.9553  -26.7557  -18.4767 C   0  0  0  0  0  0  0  0  0  0  0  0
   24.7322  -26.2464  -17.4678 C   0  0  0  0  0  0  0  0  0  0  0  0
   26.8494  -22.4502  -15.4467 C   0  0  0  0  0  0  0  0  0  0  0  0
   27.9065  -22.8160  -14.8633 O   0  0  0  0  0  0  0  0  0  0  0  0
   27.7823  -17.3067  -15.9024 C   0  0  0  0  0  0  0  0  0  0  0  0
   27.8519  -18.7502  -15.5062 C   0  0  0  0  0  0  0  0  0  0  0  0
   27.0047  -19.0456  -14.3234 C   0  0  2  0  0  0  0  0  0  0  0  0
   27.1401  -18.0231  -13.2125 C   0  0  0  0  0  0  0  0  0  0  0  0
   26.8542  -20.4524  -13.8863 C   0  0  2  0  0  0  0  0  0  0  0  0
   26.3207  -21.1995  -15.0294 N   0  0  0  0  0  0  0  0  0  0  0  0
   26.1102  -20.7195  -12.6636 C   0  0  0  0  0  0  0  0  0  0  0  0
   24.8581  -20.6744  -12.6993 O   0  0  0  0  0  0  0  0  0  0  0  0
   26.7167  -21.0293  -11.4167 N   0  0  0  0  0  0  0  0  0  0  0  0
   25.9060  -21.1874  -10.2428 C   0  0  1  0  0  0  0  0  0  0  0  0
   26.6633  -21.6976   -9.0359 C   0  0  0  0  0  0  0  0  0  0  0  0
   27.1236  -20.5912   -8.1615 C   0  0  0  0  0  0  0  0  0  0  0  0
   26.7508  -19.2420   -8.2073 C   0  0  0  0  0  0  0  0  0  0  0  0
   27.3976  -18.5600   -7.2431 N   0  0  0  0  0  0  0  0  0  0  0  0
   28.1928  -19.3962   -6.5477 C   0  0  0  0  0  0  0  0  0  0  0  0
   29.0496  -19.1998   -5.4777 C   0  0  0  0  0  0  0  0  0  0  0  0
   29.7686  -20.2456   -4.9340 C   0  0  0  0  0  0  0  0  0  0  0  0
   29.6082  -21.4892   -5.4874 C   0  0  0  0  0  0  0  0  0  0  0  0
   28.7546  -21.6896   -6.5549 C   0  0  0  0  0  0  0  0  0  0  0  0
   28.0260  -20.6442   -7.1102 C   0  0  0  0  0  0  0  0  0  0  0  0
   25.0707  -20.0234   -9.9052 C   0  0  0  0  0  0  0  0  0  0  0  0
   25.4818  -18.8691  -10.1330 O   0  0  0  0  0  0  0  0  0  0  0  0
   23.8334  -20.2057   -9.3364 O   0  0  0  0  0  0  0  0  0  0  0  0
  2  1  1  1
  2  3  1  0
  4  5  2  0
  4  3  1  0
  6  5  1  0
  7  6  2  0
  8  7  1  0
  8  9  2  0
  9  4  1  0
 10  2  1  0
 11 10  2  0
 12 13  1  0
 13 14  1  0
 14 15  1  1
 16 14  1  0
 16 17  1  6
 17 10  1  0
 18 16  1  0
 18 20  1  0
 19 18  2  0
 21 20  1  0
 21 22  1  1
 22 23  1  0
 23 24  2  0
 24 25  1  0
 26 25  1  0
 27 26  2  0
 28 27  1  0
 29 30  1  0
 29 28  2  0
 30 31  2  0
 31 23  1  0
 31 26  1  0
 32 21  1  0
 33 32  2  0
 34 32  1  0
M  END
$$$$
