FIW.pdb
     RDKit          3D

 34 36  0  0  1  0  0  0  0  0999 V2000
   26.7943  -20.8725  -17.6380 N   0  0  0  0  0  0  0  0  0  0  0  0
   27.5456  -21.1779  -16.4100 C   0  0  1  0  0  0  0  0  0  0  0  0
   28.9397  -20.6121  -16.6690 C   0  0  0  0  0  0  0  0  0  0  0  0
   29.5886  -21.5121  -17.6524 C   0  0  0  0  0  0  0  0  0  0  0  0
   29.9043  -22.8138  -17.3311 C   0  0  0  0  0  0  0  0  0  0  0  0
   30.5161  -23.6496  -18.2700 C   0  0  0  0  0  0  0  0  0  0  0  0
   30.8114  -23.1792  -19.5324 C   0  0  0  0  0  0  0  0  0  0  0  0
   30.5009  -21.8880  -19.8591 C   0  0  0  0  0  0  0  0  0  0  0  0
   29.9010  -21.0836  -18.9244 C   0  0  0  0  0  0  0  0  0  0  0  0
   26.8862  -20.5447  -15.2723 C   0  0  0  0  0  0  0  0  0  0  0  0
   26.3223  -19.4262  -15.4221 O   0  0  0  0  0  0  0  0  0  0  0  0
   23.0566  -18.8026  -13.9566 C   0  0  0  0  0  0  0  0  0  0  0  0
   24.0701  -19.7172  -14.5745 C   0  0  0  0  0  0  0  0  0  0  0  0
   24.4936  -20.7920  -13.6420 C   0  0  2  0  0  0  0  0  0  0  0  0
   23.3662  -21.3211  -12.7777 C   0  0  0  0  0  0  0  0  0  0  0  0
   25.8136  -20.6837  -12.9797 C   0  0  2  0  0  0  0  0  0  0  0  0
   26.8196  -21.0942  -13.9641 N   0  0  0  0  0  0  0  0  0  0  0  0
   25.9997  -21.3490  -11.6981 C   0  0  0  0  0  0  0  0  0  0  0  0
   25.7922  -22.5830  -11.6252 O   0  0  0  0  0  0  0  0  0  0  0  0
   26.4032  -20.6839  -10.5093 N   0  0  0  0  0  0  0  0  0  0  0  0
   26.4312  -21.3944   -9.2624 C   0  0  1  0  0  0  0  0  0  0  0  0
   27.7630  -21.3290   -8.5465 C   0  0  0  0  0  0  0  0  0  0  0  0
   27.8281  -20.1892   -7.5993 C   0  0  0  0  0  0  0  0  0  0  0  0
   27.1380  -18.9723   -7.6637 C   0  0  0  0  0  0  0  0  0  0  0  0
   27.4780  -18.2021   -6.6127 N   0  0  0  0  0  0  0  0  0  0  0  0
   28.3710  -18.8517   -5.8409 C   0  0  0  0  0  0  0  0  0  0  0  0
   29.0220  -18.5054   -4.6687 C   0  0  0  0  0  0  0  0  0  0  0  0
   29.9117  -19.3689   -4.0612 C   0  0  0  0  0  0  0  0  0  0  0  0
   30.1321  -20.5841   -4.6554 C   0  0  0  0  0  0  0  0  0  0  0  0
   29.4849  -20.9336   -5.8248 C   0  0  0  0  0  0  0  0  0  0  0  0
   28.5874  -20.0723   -6.4450 C   0  0  0  0  0  0  0  0  0  0  0  0
   25.3129  -21.0952   -8.3534 C   0  0  0  0  0  0  0  0  0  0  0  0
   24.5607  -20.1278   -8.5814 O   0  0  0  0  0  0  0  0  0  0  0  0
   25.0944  -21.8819   -7.2484 O   0  0  0  0  0  0  0  0  0  0  0  0
  2  1  1  6
  2  3  1  0
  4  5  2  0
  4  3  1  0
  6  5  1  0
  7  6  2  0
  8  7  1  0
  8  9  2  0
  9  4  1  0
 10  2  1  0
 11 10  2  0
 12 13  1  0
 13 14  1  0
 14 15  1  1
 16 14  1  0
 16 17  1  6
 17 10  1  0
 18 16  1  0
 18 20  1  0
 19 18  2  0
 21 20  1  0
 21 22  1  1
 22 23  1  0
 23 24  2  0
 24 25  1  0
 26 25  1  0
 27 26  2  0
 28 27  1  0
 29 30  1  0
 29 28  2  0
 30 31  2  0
 31 23  1  0
 31 26  1  0
 32 21  1  0
 33 32  2  0
 34 32  1  0
M  END
$$$$
