FIW.pdb
     RDKit          3D

 34 36  0  0  1  0  0  0  0  0999 V2000
   22.5688  -18.8723  -17.9686 N   0  0  0  0  0  0  0  0  0  0  0  0
   23.0658  -18.2641  -16.7241 C   0  0  1  0  0  0  0  0  0  0  0  0
   21.8539  -18.2580  -15.7958 C   0  0  0  0  0  0  0  0  0  0  0  0
   20.9393  -17.2038  -16.2963 C   0  0  0  0  0  0  0  0  0  0  0  0
   19.7127  -17.5194  -16.8380 C   0  0  0  0  0  0  0  0  0  0  0  0
   18.8619  -16.5135  -17.3055 C   0  0  0  0  0  0  0  0  0  0  0  0
   19.2418  -15.1898  -17.2297 C   0  0  0  0  0  0  0  0  0  0  0  0
   20.4580  -14.8684  -16.6931 C   0  0  0  0  0  0  0  0  0  0  0  0
   21.2786  -15.8694  -16.2399 C   0  0  0  0  0  0  0  0  0  0  0  0
   24.1673  -19.0669  -16.2024 C   0  0  0  0  0  0  0  0  0  0  0  0
   24.1042  -20.3254  -16.2626 O   0  0  0  0  0  0  0  0  0  0  0  0
   28.9157  -18.4979  -17.9159 C   0  0  0  0  0  0  0  0  0  0  0  0
   27.6184  -18.9663  -17.3302 C   0  0  0  0  0  0  0  0  0  0  0  0
   27.6568  -19.0026  -15.8465 C   0  0  2  0  0  0  0  0  0  0  0  0
   28.9577  -19.5453  -15.2889 C   0  0  0  0  0  0  0  0  0  0  0  0
   26.4318  -19.3887  -15.1096 C   0  0  2  0  0  0  0  0  0  0  0  0
   25.3468  -18.5400  -15.6117 N   0  0  0  0  0  0  0  0  0  0  0  0
   26.4795  -19.4111  -13.6547 C   0  0  0  0  0  0  0  0  0  0  0  0
   26.5960  -18.3250  -13.0399 O   0  0  0  0  0  0  0  0  0  0  0  0
   26.4046  -20.5970  -12.8758 N   0  0  0  0  0  0  0  0  0  0  0  0
   26.4603  -20.5209  -11.4436 C   0  0  1  0  0  0  0  0  0  0  0  0
   25.4595  -19.5600  -10.8389 C   0  0  0  0  0  0  0  0  0  0  0  0
   24.1137  -20.1701  -10.7087 C   0  0  0  0  0  0  0  0  0  0  0  0
   23.5252  -20.7280   -9.5669 C   0  0  0  0  0  0  0  0  0  0  0  0
   22.2924  -21.1794   -9.8667 N   0  0  0  0  0  0  0  0  0  0  0  0
   22.0255  -20.9480  -11.1669 C   0  0  0  0  0  0  0  0  0  0  0  0
   20.9200  -21.2142  -11.9573 C   0  0  0  0  0  0  0  0  0  0  0  0
   20.8949  -20.8691  -13.2939 C   0  0  0  0  0  0  0  0  0  0  0  0
   22.0015  -20.2526  -13.8172 C   0  0  0  0  0  0  0  0  0  0  0  0
   23.1065  -19.9853  -13.0323 C   0  0  0  0  0  0  0  0  0  0  0  0
   23.1427  -20.3282  -11.6858 C   0  0  0  0  0  0  0  0  0  0  0  0
   26.4480  -21.8206  -10.7531 C   0  0  0  0  0  0  0  0  0  0  0  0
   26.2505  -22.8704  -11.3953 O   0  0  0  0  0  0  0  0  0  0  0  0
   26.6538  -21.8812   -9.3959 O   0  0  0  0  0  0  0  0  0  0  0  0
  2  1  1  6
  2  3  1  0
  4  5  2  0
  4  3  1  0
  6  5  1  0
  7  6  2  0
  8  7  1  0
  8  9  2  0
  9  4  1  0
 10  2  1  0
 11 10  2  0
 12 13  1  0
 13 14  1  0
 14 15  1  6
 16 14  1  0
 16 17  1  1
 17 10  1  0
 18 16  1  0
 18 20  1  0
 19 18  2  0
 21 20  1  0
 21 22  1  1
 22 23  1  0
 23 24  2  0
 24 25  1  0
 26 25  1  0
 27 26  2  0
 28 27  1  0
 29 30  1  0
 29 28  2  0
 30 31  2  0
 31 23  1  0
 31 26  1  0
 32 21  1  0
 33 32  2  0
 34 32  1  0
M  END
$$$$
