FIW.pdb
     RDKit          3D

 34 36  0  0  1  0  0  0  0  0999 V2000
   25.1583  -23.0907  -17.6727 N   0  0  0  0  0  0  0  0  0  0  0  0
   24.5517  -22.1856  -16.6834 C   0  0  1  0  0  0  0  0  0  0  0  0
   23.3279  -22.9447  -16.1766 C   0  0  0  0  0  0  0  0  0  0  0  0
   22.2380  -22.6939  -17.1499 C   0  0  0  0  0  0  0  0  0  0  0  0
   21.7582  -23.6986  -17.9610 C   0  0  0  0  0  0  0  0  0  0  0  0
   20.7299  -23.4457  -18.8735 C   0  0  0  0  0  0  0  0  0  0  0  0
   20.1822  -22.1838  -18.9728 C   0  0  0  0  0  0  0  0  0  0  0  0
   20.6531  -21.1809  -18.1709 C   0  0  0  0  0  0  0  0  0  0  0  0
   21.6624  -21.4487  -17.2819 C   0  0  0  0  0  0  0  0  0  0  0  0
   25.5188  -21.9112  -15.6255 C   0  0  0  0  0  0  0  0  0  0  0  0
   26.4165  -22.7588  -15.3665 O   0  0  0  0  0  0  0  0  0  0  0  0
   28.3843  -17.6894  -15.7459 C   0  0  0  0  0  0  0  0  0  0  0  0
   27.8174  -19.0586  -15.5234 C   0  0  0  0  0  0  0  0  0  0  0  0
   27.2229  -19.2033  -14.1707 C   0  0  2  0  0  0  0  0  0  0  0  0
   28.0506  -18.5611  -13.0750 C   0  0  0  0  0  0  0  0  0  0  0  0
   26.5645  -20.4805  -13.8129 C   0  0  2  0  0  0  0  0  0  0  0  0
   25.5414  -20.7330  -14.8322 N   0  0  0  0  0  0  0  0  0  0  0  0
   26.0404  -20.6326  -12.4632 C   0  0  0  0  0  0  0  0  0  0  0  0
   24.9710  -20.0512  -12.1640 O   0  0  0  0  0  0  0  0  0  0  0  0
   26.6696  -21.4037  -11.4492 N   0  0  0  0  0  0  0  0  0  0  0  0
   26.3638  -21.1611  -10.0679 C   0  0  1  0  0  0  0  0  0  0  0  0
   27.5612  -21.2539   -9.1469 C   0  0  0  0  0  0  0  0  0  0  0  0
   27.2839  -20.6616   -7.8155 C   0  0  0  0  0  0  0  0  0  0  0  0
   26.0458  -20.2912   -7.2759 C   0  0  0  0  0  0  0  0  0  0  0  0
   26.2225  -19.7868   -6.0399 N   0  0  0  0  0  0  0  0  0  0  0  0
   27.5321  -19.8023   -5.7237 C   0  0  0  0  0  0  0  0  0  0  0  0
   28.2272  -19.4024   -4.5947 C   0  0  0  0  0  0  0  0  0  0  0  0
   29.6001  -19.5262   -4.5172 C   0  0  0  0  0  0  0  0  0  0  0  0
   30.2571  -20.0590   -5.5956 C   0  0  0  0  0  0  0  0  0  0  0  0
   29.5676  -20.4592   -6.7238 C   0  0  0  0  0  0  0  0  0  0  0  0
   28.1857  -20.3392   -6.8128 C   0  0  0  0  0  0  0  0  0  0  0  0
   25.5772  -19.9436   -9.8120 C   0  0  0  0  0  0  0  0  0  0  0  0
   26.0308  -18.8261  -10.1262 O   0  0  0  0  0  0  0  0  0  0  0  0
   24.3387  -20.0351   -9.2241 O   0  0  0  0  0  0  0  0  0  0  0  0
  2  1  1  6
  2  3  1  0
  4  5  2  0
  4  3  1  0
  6  5  1  0
  7  6  2  0
  8  7  1  0
  8  9  2  0
  9  4  1  0
 10  2  1  0
 11 10  2  0
 12 13  1  0
 13 14  1  0
 14 15  1  1
 16 14  1  0
 16 17  1  6
 17 10  1  0
 18 16  1  0
 18 20  1  0
 19 18  2  0
 21 20  1  0
 21 22  1  1
 22 23  1  0
 23 24  2  0
 24 25  1  0
 26 25  1  0
 27 26  2  0
 28 27  1  0
 29 30  1  0
 29 28  2  0
 30 31  2  0
 31 23  1  0
 31 26  1  0
 32 21  1  0
 33 32  2  0
 34 32  1  0
M  END
$$$$
