FIW.pdb
     RDKit          3D

 34 36  0  0  1  0  0  0  0  0999 V2000
   22.0295  -14.3835  -20.3298 N   0  0  0  0  0  0  0  0  0  0  0  0
   21.8716  -14.4195  -18.8671 C   0  0  1  0  0  0  0  0  0  0  0  0
   20.3940  -14.1111  -18.6385 C   0  0  0  0  0  0  0  0  0  0  0  0
   20.2036  -12.6763  -18.9599 C   0  0  0  0  0  0  0  0  0  0  0  0
   20.7110  -11.6877  -18.1459 C   0  0  0  0  0  0  0  0  0  0  0  0
   20.5228  -10.3393  -18.4631 C   0  0  0  0  0  0  0  0  0  0  0  0
   19.8250   -9.9822  -19.5979 C   0  0  0  0  0  0  0  0  0  0  0  0
   19.3181  -10.9579  -20.4111 C   0  0  0  0  0  0  0  0  0  0  0  0
   19.5132  -12.2751  -20.0831 C   0  0  0  0  0  0  0  0  0  0  0  0
   22.2513  -15.7396  -18.3743 C   0  0  0  0  0  0  0  0  0  0  0  0
   21.9584  -16.7647  -19.0489 O   0  0  0  0  0  0  0  0  0  0  0  0
   27.0800  -16.9317  -16.6184 C   0  0  0  0  0  0  0  0  0  0  0  0
   25.7091  -16.9276  -17.2234 C   0  0  0  0  0  0  0  0  0  0  0  0
   24.6665  -17.3291  -16.2456 C   0  0  2  0  0  0  0  0  0  0  0  0
   25.0866  -18.4800  -15.3528 C   0  0  0  0  0  0  0  0  0  0  0  0
   23.2492  -17.3334  -16.6743 C   0  0  2  0  0  0  0  0  0  0  0  0
   22.9464  -15.9835  -17.1597 N   0  0  0  0  0  0  0  0  0  0  0  0
   22.2455  -17.8146  -15.7358 C   0  0  0  0  0  0  0  0  0  0  0  0
   22.1791  -17.2846  -14.6018 O   0  0  0  0  0  0  0  0  0  0  0  0
   21.3266  -18.8596  -16.0224 N   0  0  0  0  0  0  0  0  0  0  0  0
   20.3257  -19.2207  -15.0590 C   0  0  1  0  0  0  0  0  0  0  0  0
   18.9668  -18.6096  -15.3247 C   0  0  0  0  0  0  0  0  0  0  0  0
   18.2431  -19.3169  -16.4093 C   0  0  0  0  0  0  0  0  0  0  0  0
   17.6268  -20.5735  -16.3597 C   0  0  0  0  0  0  0  0  0  0  0  0
   17.0823  -20.8590  -17.5577 N   0  0  0  0  0  0  0  0  0  0  0  0
   17.3069  -19.8440  -18.4146 C   0  0  0  0  0  0  0  0  0  0  0  0
   16.9633  -19.6456  -19.7414 C   0  0  0  0  0  0  0  0  0  0  0  0
   17.3213  -18.4916  -20.4094 C   0  0  0  0  0  0  0  0  0  0  0  0
   18.0297  -17.5442  -19.7173 C   0  0  0  0  0  0  0  0  0  0  0  0
   18.3746  -17.7381  -18.3936 C   0  0  0  0  0  0  0  0  0  0  0  0
   18.0196  -18.8958  -17.7113 C   0  0  0  0  0  0  0  0  0  0  0  0
   20.2255  -20.6625  -14.7803 C   0  0  0  0  0  0  0  0  0  0  0  0
   20.8115  -21.4849  -15.5109 O   0  0  0  0  0  0  0  0  0  0  0  0
   19.4840  -21.1074  -13.7126 O   0  0  0  0  0  0  0  0  0  0  0  0
  2  1  1  6
  2  3  1  0
  4  5  2  0
  4  3  1  0
  6  5  1  0
  7  6  2  0
  8  7  1  0
  8  9  2  0
  9  4  1  0
 10  2  1  0
 11 10  2  0
 12 13  1  0
 13 14  1  0
 14 15  1  6
 16 14  1  0
 16 17  1  1
 17 10  1  0
 18 16  1  0
 18 20  1  0
 19 18  2  0
 21 20  1  0
 21 22  1  6
 22 23  1  0
 23 24  2  0
 24 25  1  0
 26 25  1  0
 27 26  2  0
 28 27  1  0
 29 30  1  0
 29 28  2  0
 30 31  2  0
 31 23  1  0
 31 26  1  0
 32 21  1  0
 33 32  2  0
 34 32  1  0
M  END
$$$$
