FIW.pdb
     RDKit          3D

 34 36  0  0  1  0  0  0  0  0999 V2000
   23.3273  -18.7540  -18.3320 N   0  0  0  0  0  0  0  0  0  0  0  0
   23.7994  -18.2240  -17.0428 C   0  0  1  0  0  0  0  0  0  0  0  0
   22.5211  -17.9646  -16.2496 C   0  0  0  0  0  0  0  0  0  0  0  0
   21.8848  -16.7661  -16.8473 C   0  0  0  0  0  0  0  0  0  0  0  0
   22.4342  -15.5125  -16.6924 C   0  0  0  0  0  0  0  0  0  0  0  0
   21.8218  -14.3925  -17.2624 C   0  0  0  0  0  0  0  0  0  0  0  0
   20.6572  -14.5301  -17.9883 C   0  0  0  0  0  0  0  0  0  0  0  0
   20.1056  -15.7715  -18.1466 C   0  0  0  0  0  0  0  0  0  0  0  0
   20.7212  -16.8580  -17.5799 C   0  0  0  0  0  0  0  0  0  0  0  0
   24.6645  -19.2108  -16.4044 C   0  0  0  0  0  0  0  0  0  0  0  0
   24.3361  -20.4288  -16.4174 O   0  0  0  0  0  0  0  0  0  0  0  0
   29.2222  -20.2723  -18.0338 C   0  0  0  0  0  0  0  0  0  0  0  0
   27.8782  -20.1075  -17.3919 C   0  0  0  0  0  0  0  0  0  0  0  0
   27.9732  -20.0209  -15.9129 C   0  0  2  0  0  0  0  0  0  0  0  0
   29.0698  -20.8873  -15.3259 C   0  0  0  0  0  0  0  0  0  0  0  0
   26.7247  -19.9413  -15.1206 C   0  0  2  0  0  0  0  0  0  0  0  0
   25.8874  -18.9129  -15.7460 N   0  0  0  0  0  0  0  0  0  0  0  0
   26.8315  -19.7575  -13.6803 C   0  0  0  0  0  0  0  0  0  0  0  0
   27.2321  -18.6533  -13.2428 O   0  0  0  0  0  0  0  0  0  0  0  0
   26.5104  -20.7598  -12.7258 N   0  0  0  0  0  0  0  0  0  0  0  0
   26.6852  -20.5005  -11.3249 C   0  0  1  0  0  0  0  0  0  0  0  0
   25.6655  -19.5451  -10.7439 C   0  0  0  0  0  0  0  0  0  0  0  0
   24.3225  -20.1657  -10.6358 C   0  0  0  0  0  0  0  0  0  0  0  0
   23.7226  -20.7352   -9.5057 C   0  0  0  0  0  0  0  0  0  0  0  0
   22.4974  -21.1935   -9.8252 N   0  0  0  0  0  0  0  0  0  0  0  0
   22.2464  -20.9556  -11.1273 C   0  0  0  0  0  0  0  0  0  0  0  0
   21.1537  -21.2246  -11.9343 C   0  0  0  0  0  0  0  0  0  0  0  0
   21.1441  -20.8711  -13.2689 C   0  0  0  0  0  0  0  0  0  0  0  0
   22.2532  -20.2433  -13.7732 C   0  0  0  0  0  0  0  0  0  0  0  0
   23.3455  -19.9731  -12.9717 C   0  0  0  0  0  0  0  0  0  0  0  0
   23.3660  -20.3245  -11.6270 C   0  0  0  0  0  0  0  0  0  0  0  0
   26.8412  -21.7008  -10.4874 C   0  0  0  0  0  0  0  0  0  0  0  0
   26.7390  -22.8357  -10.9923 O   0  0  0  0  0  0  0  0  0  0  0  0
   27.0995  -21.5740   -9.1439 O   0  0  0  0  0  0  0  0  0  0  0  0
  2  1  1  6
  2  3  1  0
  4  5  2  0
  4  3  1  0
  6  5  1  0
  7  6  2  0
  8  7  1  0
  8  9  2  0
  9  4  1  0
 10  2  1  0
 11 10  2  0
 12 13  1  0
 13 14  1  0
 14 15  1  1
 16 14  1  0
 16 17  1  6
 17 10  1  0
 18 16  1  0
 18 20  1  0
 19 18  2  0
 21 20  1  0
 21 22  1  1
 22 23  1  0
 23 24  2  0
 24 25  1  0
 26 25  1  0
 27 26  2  0
 28 27  1  0
 29 30  1  0
 29 28  2  0
 30 31  2  0
 31 23  1  0
 31 26  1  0
 32 21  1  0
 33 32  2  0
 34 32  1  0
M  END
$$$$
