FIW.pdb
     RDKit          3D

 34 36  0  0  1  0  0  0  0  0999 V2000
   19.8629  -19.9250  -14.2595 N   0  0  0  0  0  0  0  0  0  0  0  0
   21.0987  -19.1940  -13.9368 C   0  0  1  0  0  0  0  0  0  0  0  0
   20.6326  -18.0273  -13.0696 C   0  0  0  0  0  0  0  0  0  0  0  0
   20.0560  -17.0170  -13.9888 C   0  0  0  0  0  0  0  0  0  0  0  0
   18.7128  -16.7126  -13.9652 C   0  0  0  0  0  0  0  0  0  0  0  0
   18.1848  -15.7573  -14.8387 C   0  0  0  0  0  0  0  0  0  0  0  0
   19.0049  -15.1068  -15.7368 C   0  0  0  0  0  0  0  0  0  0  0  0
   20.3396  -15.4035  -15.7663 C   0  0  0  0  0  0  0  0  0  0  0  0
   20.8388  -16.3436  -14.9014 C   0  0  0  0  0  0  0  0  0  0  0  0
   22.0149  -20.0851  -13.2322 C   0  0  0  0  0  0  0  0  0  0  0  0
   21.5611  -20.9033  -12.3860 O   0  0  0  0  0  0  0  0  0  0  0  0
   24.8964  -23.4138  -15.7187 C   0  0  0  0  0  0  0  0  0  0  0  0
   24.0894  -22.5952  -14.7574 C   0  0  0  0  0  0  0  0  0  0  0  0
   24.9444  -21.8960  -13.7653 C   0  0  2  0  0  0  0  0  0  0  0  0
   26.1319  -22.7182  -13.3050 C   0  0  0  0  0  0  0  0  0  0  0  0
   24.2971  -21.0647  -12.7247 C   0  0  2  0  0  0  0  0  0  0  0  0
   23.4226  -20.1154  -13.4201 N   0  0  0  0  0  0  0  0  0  0  0  0
   25.1447  -20.4069  -11.7405 C   0  0  0  0  0  0  0  0  0  0  0  0
   25.6820  -19.3156  -12.0428 O   0  0  0  0  0  0  0  0  0  0  0  0
   25.4087  -20.9274  -10.4452 N   0  0  0  0  0  0  0  0  0  0  0  0
   26.3347  -20.2579   -9.5766 C   0  0  1  0  0  0  0  0  0  0  0  0
   25.7306  -19.8038   -8.2653 C   0  0  0  0  0  0  0  0  0  0  0  0
   26.7045  -19.0516   -7.4370 C   0  0  0  0  0  0  0  0  0  0  0  0
   27.0943  -17.7126   -7.5647 C   0  0  0  0  0  0  0  0  0  0  0  0
   28.0048  -17.4133   -6.6188 N   0  0  0  0  0  0  0  0  0  0  0  0
   28.2450  -18.4983   -5.8571 C   0  0  0  0  0  0  0  0  0  0  0  0
   29.0800  -18.7151   -4.7738 C   0  0  0  0  0  0  0  0  0  0  0  0
   29.1452  -19.9475   -4.1548 C   0  0  0  0  0  0  0  0  0  0  0  0
   28.3554  -20.9540   -4.6466 C   0  0  0  0  0  0  0  0  0  0  0  0
   27.5211  -20.7419   -5.7270 C   0  0  0  0  0  0  0  0  0  0  0  0
   27.4475  -19.5056   -6.3579 C   0  0  0  0  0  0  0  0  0  0  0  0
   27.6103  -20.9625   -9.3696 C   0  0  0  0  0  0  0  0  0  0  0  0
   27.6314  -22.2042   -9.2649 O   0  0  0  0  0  0  0  0  0  0  0  0
   28.7839  -20.2525   -9.2901 O   0  0  0  0  0  0  0  0  0  0  0  0
  2  1  1  1
  2  3  1  0
  4  5  2  0
  4  3  1  0
  6  5  1  0
  7  6  2  0
  8  7  1  0
  8  9  2  0
  9  4  1  0
 10  2  1  0
 11 10  2  0
 12 13  1  0
 13 14  1  0
 14 15  1  1
 16 14  1  0
 16 17  1  6
 17 10  1  0
 18 16  1  0
 18 20  1  0
 19 18  2  0
 21 20  1  0
 21 22  1  1
 22 23  1  0
 23 24  2  0
 24 25  1  0
 26 25  1  0
 27 26  2  0
 28 27  1  0
 29 30  1  0
 29 28  2  0
 30 31  2  0
 31 23  1  0
 31 26  1  0
 32 21  1  0
 33 32  2  0
 34 32  1  0
M  END
$$$$
