FIW.pdb
     RDKit          3D

 34 36  0  0  1  0  0  0  0  0999 V2000
   20.2633  -18.0632  -16.6800 N   0  0  0  0  0  0  0  0  0  0  0  0
   21.5966  -18.6745  -16.7986 C   0  0  1  0  0  0  0  0  0  0  0  0
   22.3736  -17.7160  -17.6976 C   0  0  0  0  0  0  0  0  0  0  0  0
   21.9496  -17.9997  -19.0897 C   0  0  0  0  0  0  0  0  0  0  0  0
   21.2177  -17.0854  -19.8149 C   0  0  0  0  0  0  0  0  0  0  0  0
   20.8257  -17.3684  -21.1266 C   0  0  0  0  0  0  0  0  0  0  0  0
   21.1683  -18.5694  -21.7116 C   0  0  0  0  0  0  0  0  0  0  0  0
   21.8950  -19.4824  -20.9982 C   0  0  0  0  0  0  0  0  0  0  0  0
   22.2701  -19.1865  -19.7127 C   0  0  0  0  0  0  0  0  0  0  0  0
   22.1882  -18.8008  -15.4705 C   0  0  0  0  0  0  0  0  0  0  0  0
   22.5648  -17.7660  -14.8549 O   0  0  0  0  0  0  0  0  0  0  0  0
   21.1056  -20.7410  -10.1855 C   0  0  0  0  0  0  0  0  0  0  0  0
   22.2964  -20.4291  -11.0400 C   0  0  0  0  0  0  0  0  0  0  0  0
   21.9515  -20.3868  -12.4834 C   0  0  2  0  0  0  0  0  0  0  0  0
   20.9409  -21.4391  -12.8944 C   0  0  0  0  0  0  0  0  0  0  0  0
   23.0239  -20.1082  -13.4659 C   0  0  2  0  0  0  0  0  0  0  0  0
   22.3851  -20.0283  -14.7832 N   0  0  0  0  0  0  0  0  0  0  0  0
   24.1925  -20.9764  -13.4770 C   0  0  0  0  0  0  0  0  0  0  0  0
   24.0199  -22.2170  -13.5255 O   0  0  0  0  0  0  0  0  0  0  0  0
   25.5322  -20.5053  -13.4334 N   0  0  0  0  0  0  0  0  0  0  0  0
   26.4219  -20.9632  -12.4043 C   0  0  1  0  0  0  0  0  0  0  0  0
   26.9681  -19.8581  -11.5262 C   0  0  0  0  0  0  0  0  0  0  0  0
   28.0170  -20.3522  -10.6010 C   0  0  0  0  0  0  0  0  0  0  0  0
   29.1723  -21.0792  -10.9143 C   0  0  0  0  0  0  0  0  0  0  0  0
   29.8636  -21.3392   -9.7883 N   0  0  0  0  0  0  0  0  0  0  0  0
   29.2201  -20.8158   -8.7267 C   0  0  0  0  0  0  0  0  0  0  0  0
   29.5053  -20.8045   -7.3716 C   0  0  0  0  0  0  0  0  0  0  0  0
   28.6650  -20.1857   -6.4676 C   0  0  0  0  0  0  0  0  0  0  0  0
   27.5355  -19.5803   -6.9537 C   0  0  0  0  0  0  0  0  0  0  0  0
   27.2472  -19.5893   -8.3047 C   0  0  0  0  0  0  0  0  0  0  0  0
   28.0858  -20.2092   -9.2236 C   0  0  0  0  0  0  0  0  0  0  0  0
   25.9160  -22.0902  -11.6040 C   0  0  0  0  0  0  0  0  0  0  0  0
   25.1936  -21.8796  -10.6104 O   0  0  0  0  0  0  0  0  0  0  0  0
   26.2394  -23.3800  -11.9497 O   0  0  0  0  0  0  0  0  0  0  0  0
  2  1  1  1
  2  3  1  0
  4  5  2  0
  4  3  1  0
  6  5  1  0
  7  6  2  0
  8  7  1  0
  8  9  2  0
  9  4  1  0
 10  2  1  0
 11 10  2  0
 12 13  1  0
 13 14  1  0
 14 15  1  6
 16 14  1  0
 16 17  1  6
 17 10  1  0
 18 16  1  0
 18 20  1  0
 19 18  2  0
 21 20  1  0
 21 22  1  1
 22 23  1  0
 23 24  2  0
 24 25  1  0
 26 25  1  0
 27 26  2  0
 28 27  1  0
 29 30  1  0
 29 28  2  0
 30 31  2  0
 31 23  1  0
 31 26  1  0
 32 21  1  0
 33 32  2  0
 34 32  1  0
M  END
$$$$
