FIW.pdb
     RDKit          3D

 34 36  0  0  1  0  0  0  0  0999 V2000
   28.2994  -19.4373  -15.9244 N   0  0  0  0  0  0  0  0  0  0  0  0
   27.3970  -18.9394  -14.8739 C   0  0  1  0  0  0  0  0  0  0  0  0
   26.3960  -18.0610  -15.6202 C   0  0  0  0  0  0  0  0  0  0  0  0
   27.1134  -16.8173  -15.9900 C   0  0  0  0  0  0  0  0  0  0  0  0
   27.4494  -15.8766  -15.0415 C   0  0  0  0  0  0  0  0  0  0  0  0
   28.1259  -14.7090  -15.4066 C   0  0  0  0  0  0  0  0  0  0  0  0
   28.4658  -14.4848  -16.7243 C   0  0  0  0  0  0  0  0  0  0  0  0
   28.1358  -15.4141  -17.6719 C   0  0  0  0  0  0  0  0  0  0  0  0
   27.4721  -16.5532  -17.2941 C   0  0  0  0  0  0  0  0  0  0  0  0
   26.7616  -20.0722  -14.2085 C   0  0  0  0  0  0  0  0  0  0  0  0
   26.4586  -21.0980  -14.8774 O   0  0  0  0  0  0  0  0  0  0  0  0
   25.9340  -20.8147   -8.4611 C   0  0  0  0  0  0  0  0  0  0  0  0
   25.5138  -20.3483   -9.8218 C   0  0  0  0  0  0  0  0  0  0  0  0
   25.8496  -21.3358  -10.8783 C   0  0  2  0  0  0  0  0  0  0  0  0
   27.2170  -21.9663  -10.7036 C   0  0  0  0  0  0  0  0  0  0  0  0
   25.4474  -21.0519  -12.2749 C   0  0  2  0  0  0  0  0  0  0  0  0
   26.4421  -20.1261  -12.8255 N   0  0  0  0  0  0  0  0  0  0  0  0
   24.0853  -20.6014  -12.5230 C   0  0  0  0  0  0  0  0  0  0  0  0
   23.8369  -19.3744  -12.4616 O   0  0  0  0  0  0  0  0  0  0  0  0
   23.0050  -21.4711  -12.8315 N   0  0  0  0  0  0  0  0  0  0  0  0
   21.7647  -20.9335  -13.3138 C   0  0  1  0  0  0  0  0  0  0  0  0
   21.9032  -20.0934  -14.5651 C   0  0  0  0  0  0  0  0  0  0  0  0
   20.6442  -20.0538  -15.3486 C   0  0  0  0  0  0  0  0  0  0  0  0
   19.3650  -19.6898  -14.9098 C   0  0  0  0  0  0  0  0  0  0  0  0
   18.4903  -19.7913  -15.9286 N   0  0  0  0  0  0  0  0  0  0  0  0
   19.1291  -20.2098  -17.0385 C   0  0  0  0  0  0  0  0  0  0  0  0
   18.6942  -20.4684  -18.3276 C   0  0  0  0  0  0  0  0  0  0  0  0
   19.5683  -20.8977  -19.3063 C   0  0  0  0  0  0  0  0  0  0  0  0
   20.8850  -21.0608  -18.9623 C   0  0  0  0  0  0  0  0  0  0  0  0
   21.3231  -20.8040  -17.6776 C   0  0  0  0  0  0  0  0  0  0  0  0
   20.4520  -20.3715  -16.6845 C   0  0  0  0  0  0  0  0  0  0  0  0
   20.6715  -21.9114  -13.4367 C   0  0  0  0  0  0  0  0  0  0  0  0
   20.8852  -23.0312  -13.9404 O   0  0  0  0  0  0  0  0  0  0  0  0
   19.4097  -21.5922  -12.9965 O   0  0  0  0  0  0  0  0  0  0  0  0
  2  1  1  6
  2  3  1  0
  4  5  2  0
  4  3  1  0
  6  5  1  0
  7  6  2  0
  8  7  1  0
  8  9  2  0
  9  4  1  0
 10  2  1  0
 11 10  2  0
 12 13  1  0
 13 14  1  0
 14 15  1  6
 16 14  1  0
 16 17  1  1
 17 10  1  0
 18 16  1  0
 18 20  1  0
 19 18  2  0
 21 20  1  0
 21 22  1  6
 22 23  1  0
 23 24  2  0
 24 25  1  0
 26 25  1  0
 27 26  2  0
 28 27  1  0
 29 30  1  0
 29 28  2  0
 30 31  2  0
 31 23  1  0
 31 26  1  0
 32 21  1  0
 33 32  2  0
 34 32  1  0
M  END
$$$$
