FIW.pdb
     RDKit          3D

 34 36  0  0  1  0  0  0  0  0999 V2000
   26.9756  -18.4465  -16.5541 N   0  0  0  0  0  0  0  0  0  0  0  0
   26.2293  -18.0387  -15.3531 C   0  0  1  0  0  0  0  0  0  0  0  0
   25.2568  -16.9744  -15.8554 C   0  0  0  0  0  0  0  0  0  0  0  0
   26.0504  -15.7409  -16.0725 C   0  0  0  0  0  0  0  0  0  0  0  0
   26.6065  -15.0531  -15.0165 C   0  0  0  0  0  0  0  0  0  0  0  0
   27.3521  -13.8916  -15.2383 C   0  0  0  0  0  0  0  0  0  0  0  0
   27.5401  -13.4195  -16.5204 C   0  0  0  0  0  0  0  0  0  0  0  0
   26.9912  -14.0968  -17.5742 C   0  0  0  0  0  0  0  0  0  0  0  0
   26.2630  -15.2343  -17.3364 C   0  0  0  0  0  0  0  0  0  0  0  0
   25.5475  -19.2008  -14.7924 C   0  0  0  0  0  0  0  0  0  0  0  0
   25.1913  -20.1418  -15.5535 O   0  0  0  0  0  0  0  0  0  0  0  0
   26.1294  -21.0792   -9.4408 C   0  0  0  0  0  0  0  0  0  0  0  0
   25.3562  -20.3498  -10.4970 C   0  0  0  0  0  0  0  0  0  0  0  0
   25.3391  -21.0872  -11.7854 C   0  0  2  0  0  0  0  0  0  0  0  0
   26.6865  -21.6672  -12.1677 C   0  0  0  0  0  0  0  0  0  0  0  0
   24.5300  -20.5518  -12.9041 C   0  0  2  0  0  0  0  0  0  0  0  0
   25.2376  -19.3746  -13.4170 N   0  0  0  0  0  0  0  0  0  0  0  0
   23.1191  -20.2813  -12.6679 C   0  0  0  0  0  0  0  0  0  0  0  0
   22.7952  -19.1893  -12.1447 O   0  0  0  0  0  0  0  0  0  0  0  0
   22.0720  -21.1851  -12.9927 N   0  0  0  0  0  0  0  0  0  0  0  0
   20.7034  -20.8013  -12.7929 C   0  0  1  0  0  0  0  0  0  0  0  0
   20.3204  -19.5080  -13.4793 C   0  0  0  0  0  0  0  0  0  0  0  0
   20.1941  -19.6758  -14.9477 C   0  0  0  0  0  0  0  0  0  0  0  0
   19.1645  -20.3035  -15.6599 C   0  0  0  0  0  0  0  0  0  0  0  0
   19.4265  -20.2475  -16.9795 N   0  0  0  0  0  0  0  0  0  0  0  0
   20.5932  -19.6063  -17.1864 C   0  0  0  0  0  0  0  0  0  0  0  0
   21.2968  -19.2908  -18.3366 C   0  0  0  0  0  0  0  0  0  0  0  0
   22.4978  -18.6122  -18.2786 C   0  0  0  0  0  0  0  0  0  0  0  0
   22.9747  -18.2587  -17.0432 C   0  0  0  0  0  0  0  0  0  0  0  0
   22.2760  -18.5715  -15.8932 C   0  0  0  0  0  0  0  0  0  0  0  0
   21.0663  -19.2543  -15.9398 C   0  0  0  0  0  0  0  0  0  0  0  0
   19.7179  -21.8636  -13.0511 C   0  0  0  0  0  0  0  0  0  0  0  0
   20.0641  -22.9144  -13.6249 O   0  0  0  0  0  0  0  0  0  0  0  0
   18.4109  -21.6998  -12.6605 O   0  0  0  0  0  0  0  0  0  0  0  0
  2  1  1  6
  2  3  1  0
  4  5  2  0
  4  3  1  0
  6  5  1  0
  7  6  2  0
  8  7  1  0
  8  9  2  0
  9  4  1  0
 10  2  1  0
 11 10  2  0
 12 13  1  0
 13 14  1  0
 14 15  1  6
 16 14  1  0
 16 17  1  1
 17 10  1  0
 18 16  1  0
 18 20  1  0
 19 18  2  0
 21 20  1  0
 21 22  1  6
 22 23  1  0
 23 24  2  0
 24 25  1  0
 26 25  1  0
 27 26  2  0
 28 27  1  0
 29 30  1  0
 29 28  2  0
 30 31  2  0
 31 23  1  0
 31 26  1  0
 32 21  1  0
 33 32  2  0
 34 32  1  0
M  END
$$$$
