PGY.pdb
     RDKit          3D

 24 25  0  0  1  0  0  0  0  0999 V2000
    7.4372  -14.9268   19.8086 N   0  0  0  0  0  0  0  0  0  0  0  0
    6.4475  -13.9436   19.4919 C   0  0  0  0  0  0  0  0  0  0  0  0
    7.1520  -12.5868   19.4980 C   0  0  0  0  0  0  0  0  0  0  0  0
    8.3192  -12.9031   20.4431 C   0  0  0  0  0  0  0  0  0  0  0  0
    8.7202  -14.2668   19.9011 C   0  0  1  0  0  0  0  0  0  0  0  0
    9.6668  -14.9632   20.7647 C   0  0  0  0  0  0  0  0  0  0  0  0
   10.8119  -14.4876   20.9469 O   0  0  0  0  0  0  0  0  0  0  0  0
    9.3168  -16.1678   21.4020 N   0  0  0  0  0  0  0  0  0  0  0  0
   10.2749  -16.9649   22.1438 C   0  0  0  0  0  0  0  0  0  0  0  0
   10.2834  -16.4970   23.5472 C   0  0  0  0  0  0  0  0  0  0  0  0
   11.3451  -16.1278   24.1077 O   0  0  0  0  0  0  0  0  0  0  0  0
    6.3997  -10.6334   26.6667 O   0  0  0  0  0  0  0  0  0  0  0  0
    6.7344  -11.9773   26.5331 C   0  0  0  0  0  0  0  0  0  0  0  0
    5.7198  -12.9185   26.5796 C   0  0  0  0  0  0  0  0  0  0  0  0
    6.0225  -14.2542   26.4502 C   0  0  0  0  0  0  0  0  0  0  0  0
    7.3260  -14.6572   26.2751 C   0  0  0  0  0  0  0  0  0  0  0  0
    7.6151  -16.1091   26.1379 C   0  0  0  0  0  0  0  0  0  0  0  0
    9.0575  -16.3255   25.7026 C   0  0  2  0  0  0  0  0  0  0  0  0
    9.0553  -16.4716   24.2600 N   0  0  0  0  0  0  0  0  0  0  0  0
    9.6286  -17.5336   26.3515 C   0  0  0  0  0  0  0  0  0  0  0  0
    9.5957  -18.6311   25.7391 O   0  0  0  0  0  0  0  0  0  0  0  0
    8.3304  -13.7160   26.2296 C   0  0  0  0  0  0  0  0  0  0  0  0
    8.0325  -12.3795   26.3586 C   0  0  0  0  0  0  0  0  0  0  0  0
   10.2054  -17.5225   27.6133 O   0  0  0  0  0  0  0  0  0  0  0  0
  1  5  1  0
  2  1  1  0
  3  4  1  0
  3  2  1  0
  4  5  1  0
  5  6  1  1
  6  7  2  0
  8  6  1  0
  8  9  1  0
  9 10  1  0
 10 19  1  0
 10 11  2  0
 12 13  1  0
 13 14  2  0
 14 15  1  0
 16 17  1  0
 16 15  2  0
 18 17  1  1
 18 20  1  0
 19 18  1  0
 20 24  1  0
 21 20  2  0
 22 16  1  0
 23 22  2  0
 23 13  1  0
M  END
$$$$
