PGY.pdb
     RDKit          3D

 24 25  0  0  1  0  0  0  0  0999 V2000
    7.6409  -16.6313   21.0904 N   0  0  0  0  0  0  0  0  0  0  0  0
    6.2700  -16.3077   20.8406 C   0  0  0  0  0  0  0  0  0  0  0  0
    6.2441  -14.8826   20.2876 C   0  0  0  0  0  0  0  0  0  0  0  0
    7.5490  -14.3449   20.8908 C   0  0  0  0  0  0  0  0  0  0  0  0
    8.4591  -15.5344   20.6240 C   0  0  1  0  0  0  0  0  0  0  0  0
    9.7391  -15.4341   21.3155 C   0  0  0  0  0  0  0  0  0  0  0  0
   10.5460  -14.5265   21.0064 O   0  0  0  0  0  0  0  0  0  0  0  0
   10.0884  -16.3436   22.3308 N   0  0  0  0  0  0  0  0  0  0  0  0
   11.3345  -16.2502   23.0669 C   0  0  0  0  0  0  0  0  0  0  0  0
   11.0190  -16.1773   24.5104 C   0  0  0  0  0  0  0  0  0  0  0  0
   11.9191  -16.0043   25.3692 O   0  0  0  0  0  0  0  0  0  0  0  0
    6.6187  -10.8624   26.0627 O   0  0  0  0  0  0  0  0  0  0  0  0
    6.9151  -12.2201   26.1297 C   0  0  0  0  0  0  0  0  0  0  0  0
    7.3110  -12.7506   27.3460 C   0  0  0  0  0  0  0  0  0  0  0  0
    7.6102  -14.0900   27.4407 C   0  0  0  0  0  0  0  0  0  0  0  0
    7.5178  -14.9022   26.3343 C   0  0  0  0  0  0  0  0  0  0  0  0
    7.8481  -16.3450   26.4747 C   0  0  0  0  0  0  0  0  0  0  0  0
    9.3442  -16.5672   26.3051 C   0  0  2  0  0  0  0  0  0  0  0  0
    9.6639  -16.3079   24.9149 N   0  0  0  0  0  0  0  0  0  0  0  0
    9.7170  -17.9558   26.6791 C   0  0  0  0  0  0  0  0  0  0  0  0
    9.7191  -18.2834   27.8929 O   0  0  0  0  0  0  0  0  0  0  0  0
    7.1233  -14.3684   25.1276 C   0  0  0  0  0  0  0  0  0  0  0  0
    6.8232  -13.0298   25.0282 C   0  0  0  0  0  0  0  0  0  0  0  0
   10.0684  -18.9279   25.7537 O   0  0  0  0  0  0  0  0  0  0  0  0
  1  5  1  0
  2  1  1  0
  3  4  1  0
  3  2  1  0
  4  5  1  0
  5  6  1  1
  6  7  2  0
  8  6  1  0
  8  9  1  0
  9 10  1  0
 10 19  1  0
 10 11  2  0
 12 13  1  0
 13 14  2  0
 14 15  1  0
 16 17  1  0
 16 15  2  0
 18 17  1  6
 18 20  1  0
 19 18  1  0
 20 24  1  0
 21 20  2  0
 22 16  1  0
 23 22  2  0
 23 13  1  0
M  END
$$$$
