PGY.pdb
     RDKit          3D

 24 25  0  0  1  0  0  0  0  0999 V2000
    8.2856  -15.0311   19.4728 N   0  0  0  0  0  0  0  0  0  0  0  0
    7.1363  -14.4064   18.8936 C   0  0  0  0  0  0  0  0  0  0  0  0
    7.1503  -12.9459   19.3450 C   0  0  0  0  0  0  0  0  0  0  0  0
    7.9588  -13.0815   20.6426 C   0  0  0  0  0  0  0  0  0  0  0  0
    9.0557  -14.0183   20.1594 C   0  0  1  0  0  0  0  0  0  0  0  0
    9.8670  -14.5494   21.2487 C   0  0  0  0  0  0  0  0  0  0  0  0
   10.5691  -13.7743   21.9392 O   0  0  0  0  0  0  0  0  0  0  0  0
    9.8768  -15.9256   21.5416 N   0  0  0  0  0  0  0  0  0  0  0  0
   10.7337  -16.5001   22.5609 C   0  0  0  0  0  0  0  0  0  0  0  0
   10.0019  -16.4875   23.8466 C   0  0  0  0  0  0  0  0  0  0  0  0
   10.6041  -16.5961   24.9436 O   0  0  0  0  0  0  0  0  0  0  0  0
    6.9339  -10.7564   27.2340 O   0  0  0  0  0  0  0  0  0  0  0  0
    6.8446  -12.0044   26.6254 C   0  0  0  0  0  0  0  0  0  0  0  0
    6.2078  -13.0278   27.3070 C   0  0  0  0  0  0  0  0  0  0  0  0
    6.1053  -14.2717   26.7287 C   0  0  0  0  0  0  0  0  0  0  0  0
    6.6318  -14.5022   25.4790 C   0  0  0  0  0  0  0  0  0  0  0  0
    6.5013  -15.8590   24.8852 C   0  0  0  0  0  0  0  0  0  0  0  0
    7.8111  -16.6238   25.0126 C   0  0  2  0  0  0  0  0  0  0  0  0
    8.5888  -16.3488   23.8202 N   0  0  0  0  0  0  0  0  0  0  0  0
    7.5595  -18.0814   25.1505 C   0  0  0  0  0  0  0  0  0  0  0  0
    7.7696  -18.8348   24.1662 O   0  0  0  0  0  0  0  0  0  0  0  0
    7.2639  -13.4801   24.8063 C   0  0  0  0  0  0  0  0  0  0  0  0
    7.3688  -12.2347   25.3806 C   0  0  0  0  0  0  0  0  0  0  0  0
    7.0991  -18.6699   26.3195 O   0  0  0  0  0  0  0  0  0  0  0  0
  1  5  1  0
  2  1  1  0
  3  4  1  0
  3  2  1  0
  4  5  1  0
  5  6  1  1
  6  7  2  0
  8  6  1  0
  8  9  1  0
  9 10  1  0
 10 19  1  0
 10 11  2  0
 12 13  1  0
 13 14  2  0
 14 15  1  0
 16 17  1  0
 16 15  2  0
 18 17  1  6
 18 20  1  0
 19 18  1  0
 20 24  1  0
 21 20  2  0
 22 16  1  0
 23 22  2  0
 23 13  1  0
M  END
$$$$
