PGY.pdb
     RDKit          3D

 24 25  0  0  1  0  0  0  0  0999 V2000
    7.7359  -15.1279   20.1141 N   0  0  0  0  0  0  0  0  0  0  0  0
    6.5682  -14.3803   19.7618 C   0  0  0  0  0  0  0  0  0  0  0  0
    7.0259  -12.9490   19.4806 C   0  0  0  0  0  0  0  0  0  0  0  0
    8.3054  -12.9130   20.3275 C   0  0  0  0  0  0  0  0  0  0  0  0
    8.8888  -14.2691   19.9607 C   0  0  1  0  0  0  0  0  0  0  0  0
   10.0106  -14.6514   20.8106 C   0  0  0  0  0  0  0  0  0  0  0  0
   11.0457  -13.9453   20.8327 O   0  0  0  0  0  0  0  0  0  0  0  0
    9.9529  -15.8064   21.6121 N   0  0  0  0  0  0  0  0  0  0  0  0
   11.0310  -16.1932   22.5018 C   0  0  0  0  0  0  0  0  0  0  0  0
   10.4974  -16.2583   23.8800 C   0  0  0  0  0  0  0  0  0  0  0  0
   11.2606  -16.3434   24.8740 O   0  0  0  0  0  0  0  0  0  0  0  0
    6.9673  -10.5462   26.5241 O   0  0  0  0  0  0  0  0  0  0  0  0
    6.9931  -11.9142   26.2714 C   0  0  0  0  0  0  0  0  0  0  0  0
    7.0984  -12.3417   24.9586 C   0  0  0  0  0  0  0  0  0  0  0  0
    7.1262  -13.6886   24.6803 C   0  0  0  0  0  0  0  0  0  0  0  0
    7.0497  -14.6100   25.6988 C   0  0  0  0  0  0  0  0  0  0  0  0
    7.0837  -16.0573   25.3601 C   0  0  0  0  0  0  0  0  0  0  0  0
    8.5175  -16.5679   25.3504 C   0  0  2  0  0  0  0  0  0  0  0  0
    9.0896  -16.2225   24.0637 N   0  0  0  0  0  0  0  0  0  0  0  0
    8.5555  -18.0376   25.5642 C   0  0  0  0  0  0  0  0  0  0  0  0
    8.3515  -18.4940   26.7177 O   0  0  0  0  0  0  0  0  0  0  0  0
    6.9452  -14.1783   27.0023 C   0  0  0  0  0  0  0  0  0  0  0  0
    6.9171  -12.8326   27.2854 C   0  0  0  0  0  0  0  0  0  0  0  0
    8.8067  -18.9507   24.5503 O   0  0  0  0  0  0  0  0  0  0  0  0
  1  5  1  0
  2  1  1  0
  3  4  1  0
  3  2  1  0
  4  5  1  0
  5  6  1  1
  6  7  2  0
  8  6  1  0
  8  9  1  0
  9 10  1  0
 10 19  1  0
 10 11  2  0
 12 13  1  0
 13 14  2  0
 14 15  1  0
 16 17  1  0
 16 15  2  0
 18 17  1  6
 18 20  1  0
 19 18  1  0
 20 24  1  0
 21 20  2  0
 22 16  1  0
 23 22  2  0
 23 13  1  0
M  END
$$$$
