PGY.pdb
     RDKit          3D

 24 25  0  0  1  0  0  0  0  0999 V2000
    8.5199  -14.8130   18.7629 N   0  0  0  0  0  0  0  0  0  0  0  0
    8.2118  -14.0400   17.5993 C   0  0  0  0  0  0  0  0  0  0  0  0
    7.9143  -12.6185   18.0769 C   0  0  0  0  0  0  0  0  0  0  0  0
    7.4687  -12.9145   19.5155 C   0  0  0  0  0  0  0  0  0  0  0  0
    8.5339  -13.9279   19.9059 C   0  0  1  0  0  0  0  0  0  0  0  0
    8.2379  -14.6042   21.1636 C   0  0  0  0  0  0  0  0  0  0  0  0
    8.1774  -13.9449   22.2276 O   0  0  0  0  0  0  0  0  0  0  0  0
    8.0174  -15.9933   21.2059 N   0  0  0  0  0  0  0  0  0  0  0  0
    7.5240  -16.6690   22.3905 C   0  0  0  0  0  0  0  0  0  0  0  0
    8.4874  -16.4448   23.4905 C   0  0  0  0  0  0  0  0  0  0  0  0
    9.7050  -16.2374   23.2622 O   0  0  0  0  0  0  0  0  0  0  0  0
    6.0763  -10.6041   26.1819 O   0  0  0  0  0  0  0  0  0  0  0  0
    6.6083  -11.8677   26.4189 C   0  0  0  0  0  0  0  0  0  0  0  0
    5.7674  -12.9647   26.3365 C   0  0  0  0  0  0  0  0  0  0  0  0
    6.2670  -14.2256   26.5661 C   0  0  0  0  0  0  0  0  0  0  0  0
    7.5957  -14.4004   26.8766 C   0  0  0  0  0  0  0  0  0  0  0  0
    8.1004  -15.7779   27.1173 C   0  0  0  0  0  0  0  0  0  0  0  0
    8.9235  -16.2579   25.9304 C   0  0  2  0  0  0  0  0  0  0  0  0
    8.0069  -16.4682   24.8268 N   0  0  0  0  0  0  0  0  0  0  0  0
    9.6435  -17.5145   26.2614 C   0  0  0  0  0  0  0  0  0  0  0  0
    9.2251  -18.6023   25.7897 O   0  0  0  0  0  0  0  0  0  0  0  0
    8.4268  -13.3052   26.9569 C   0  0  0  0  0  0  0  0  0  0  0  0
    7.9317  -12.0425   26.7281 C   0  0  0  0  0  0  0  0  0  0  0  0
   10.7678  -17.5597   27.0730 O   0  0  0  0  0  0  0  0  0  0  0  0
  1  5  1  0
  2  1  1  0
  3  4  1  0
  3  2  1  0
  4  5  1  0
  5  6  1  1
  6  7  2  0
  8  6  1  0
  8  9  1  0
  9 10  1  0
 10 19  1  0
 10 11  2  0
 12 13  1  0
 13 14  2  0
 14 15  1  0
 16 17  1  0
 16 15  2  0
 18 17  1  1
 18 20  1  0
 19 18  1  0
 20 24  1  0
 21 20  2  0
 22 16  1  0
 23 22  2  0
 23 13  1  0
M  END
$$$$
