SQA.pdb
     RDKit          3D

 21 20  0  0  1  0  0  0  0  0999 V2000
   19.4297  -11.6325  -16.0927 O   0  0  0  0  0  0  0  0  0  0  0  0
   18.8508  -12.0082  -14.8908 C   0  0  0  0  0  0  0  0  0  0  0  0
   17.4219  -11.5076  -14.9028 C   0  0  2  0  0  0  0  0  0  0  0  0
   16.7318  -11.8294  -16.1116 N   0  0  0  0  0  0  0  0  0  0  0  0
   17.4558  -10.0191  -14.7004 C   0  0  0  0  0  0  0  0  0  0  0  0
   17.1444   -9.2283  -15.6397 O   0  0  0  0  0  0  0  0  0  0  0  0
   16.4783   -7.6295   -9.0920 N   0  0  0  0  0  0  0  0  0  0  0  0
   16.7680   -6.4543   -9.8254 C   0  0  0  0  0  0  0  0  0  0  0  0
   16.6894   -5.3551   -9.2418 O   0  0  0  0  0  0  0  0  0  0  0  0
   17.1571   -6.4998  -11.2538 C   0  0  0  0  0  0  0  0  0  0  0  0
   17.2126   -7.8667  -11.8346 C   0  0  0  0  0  0  0  0  0  0  0  0
   17.7368   -7.9666  -13.2518 C   0  0  2  0  0  0  0  0  0  0  0  0
   17.8277   -9.4311  -13.4809 N   0  0  0  0  0  0  0  0  0  0  0  0
   19.0990   -7.3823  -13.2850 C   0  0  0  0  0  0  0  0  0  0  0  0
   20.0151   -8.0124  -12.6837 O   0  0  0  0  0  0  0  0  0  0  0  0
   21.0493   -4.8383  -15.1197 C   0  0  0  0  0  0  0  0  0  0  0  0
   20.8386   -5.7717  -13.9371 C   0  0  2  0  0  0  0  0  0  0  0  0
   19.4371   -6.1776  -13.9433 N   0  0  0  0  0  0  0  0  0  0  0  0
   21.2116   -5.1306  -12.6666 C   0  0  0  0  0  0  0  0  0  0  0  0
   22.5142   -4.9447  -12.2322 O   0  0  0  0  0  0  0  0  0  0  0  0
   20.2874   -4.7228  -11.9229 O   0  0  0  0  0  0  0  0  0  0  0  0
  1  2  1  0
  3  2  1  0
  3  4  1  6
  5  3  1  0
  5 13  1  0
  6  5  2  0
  7  8  1  0
  8 10  1  0
  8  9  2  0
 10 11  1  0
 12 11  1  1
 12 13  1  0
 12 14  1  0
 14 15  2  0
 14 18  1  0
 17 16  1  6
 17 19  1  0
 18 17  1  0
 19 20  1  0
 21 19  2  0
M  END
$$$$
