SQA.pdb
     RDKit          3D

 21 20  0  0  1  0  0  0  0  0999 V2000
   15.5514   -8.4574  -14.8829 O   0  0  0  0  0  0  0  0  0  0  0  0
   15.7976   -8.6658  -16.2307 C   0  0  0  0  0  0  0  0  0  0  0  0
   16.6222   -9.9303  -16.3480 C   0  0  2  0  0  0  0  0  0  0  0  0
   16.0702  -11.0227  -15.6113 N   0  0  0  0  0  0  0  0  0  0  0  0
   18.0096   -9.6195  -15.8616 C   0  0  0  0  0  0  0  0  0  0  0  0
   18.3746   -9.9390  -14.6914 O   0  0  0  0  0  0  0  0  0  0  0  0
   22.7180  -11.3493  -17.9672 N   0  0  0  0  0  0  0  0  0  0  0  0
   23.3806  -10.1502  -17.6118 C   0  0  0  0  0  0  0  0  0  0  0  0
   24.6229  -10.1668  -17.5055 O   0  0  0  0  0  0  0  0  0  0  0  0
   22.6405   -8.8912  -17.3655 C   0  0  0  0  0  0  0  0  0  0  0  0
   21.1642   -9.0090  -17.4908 C   0  0  0  0  0  0  0  0  0  0  0  0
   20.3690   -8.7864  -16.2214 C   0  0  2  0  0  0  0  0  0  0  0  0
   18.9625   -8.9694  -16.6618 N   0  0  0  0  0  0  0  0  0  0  0  0
   20.5662   -7.3816  -15.7906 C   0  0  0  0  0  0  0  0  0  0  0  0
   19.9782   -6.4827  -16.4569 O   0  0  0  0  0  0  0  0  0  0  0  0
   21.8877   -5.5011  -12.8748 C   0  0  0  0  0  0  0  0  0  0  0  0
   21.2944   -5.5895  -14.2729 C   0  0  2  0  0  0  0  0  0  0  0  0
   21.3600   -6.9863  -14.6894 N   0  0  0  0  0  0  0  0  0  0  0  0
   21.9984   -4.7085  -15.2178 C   0  0  0  0  0  0  0  0  0  0  0  0
   21.7540   -3.3519  -15.3595 O   0  0  0  0  0  0  0  0  0  0  0  0
   22.8820   -5.2189  -15.9472 O   0  0  0  0  0  0  0  0  0  0  0  0
  1  2  1  0
  3  2  1  0
  3  4  1  1
  5  3  1  0
  5 13  1  0
  6  5  2  0
  7  8  1  0
  8 10  1  0
  8  9  2  0
 10 11  1  0
 12 11  1  6
 12 13  1  0
 12 14  1  0
 14 15  2  0
 14 18  1  0
 17 16  1  1
 17 19  1  0
 18 17  1  0
 19 20  1  0
 21 19  2  0
M  END
$$$$
