SQA.pdb
     RDKit          3D

 21 20  0  0  1  0  0  0  0  0999 V2000
   19.6380   -8.4884  -14.5448 O   0  0  0  0  0  0  0  0  0  0  0  0
   19.4627   -9.6623  -13.8293 C   0  0  0  0  0  0  0  0  0  0  0  0
   18.1554  -10.2762  -14.2839 C   0  0  2  0  0  0  0  0  0  0  0  0
   18.0290  -10.3216  -15.7061 N   0  0  0  0  0  0  0  0  0  0  0  0
   17.0376   -9.4702  -13.6849 C   0  0  0  0  0  0  0  0  0  0  0  0
   16.3722   -8.6565  -14.3918 O   0  0  0  0  0  0  0  0  0  0  0  0
   13.1223  -11.6911   -9.6151 N   0  0  0  0  0  0  0  0  0  0  0  0
   12.8025  -10.3155   -9.5238 C   0  0  0  0  0  0  0  0  0  0  0  0
   11.8529   -9.9735   -8.7916 O   0  0  0  0  0  0  0  0  0  0  0  0
   13.5607   -9.2851  -10.2702 C   0  0  0  0  0  0  0  0  0  0  0  0
   14.7638   -9.7962  -10.9774 C   0  0  0  0  0  0  0  0  0  0  0  0
   15.5654   -8.7715  -11.7524 C   0  0  2  0  0  0  0  0  0  0  0  0
   16.6741   -9.5713  -12.3326 N   0  0  0  0  0  0  0  0  0  0  0  0
   16.1229   -7.7927  -10.7884 C   0  0  0  0  0  0  0  0  0  0  0  0
   16.9378   -8.2280   -9.9257 O   0  0  0  0  0  0  0  0  0  0  0  0
   16.2216   -4.1213  -10.1864 C   0  0  0  0  0  0  0  0  0  0  0  0
   16.5070   -5.5683   -9.8137 C   0  0  2  0  0  0  0  0  0  0  0  0
   15.8071   -6.4146  -10.7744 N   0  0  0  0  0  0  0  0  0  0  0  0
   16.0974   -5.8636   -8.4319 C   0  0  0  0  0  0  0  0  0  0  0  0
   14.9767   -6.6008   -8.0844 O   0  0  0  0  0  0  0  0  0  0  0  0
   16.8110   -5.4180   -7.5015 O   0  0  0  0  0  0  0  0  0  0  0  0
  1  2  1  0
  3  2  1  0
  3  4  1  6
  5  3  1  0
  5 13  1  0
  6  5  2  0
  7  8  1  0
  8 10  1  0
  8  9  2  0
 10 11  1  0
 12 11  1  1
 12 13  1  0
 12 14  1  0
 14 15  2  0
 14 18  1  0
 17 16  1  6
 17 19  1  0
 18 17  1  0
 19 20  1  0
 21 19  2  0
M  END
$$$$
