SQA.pdb
     RDKit          3D

 21 20  0  0  1  0  0  0  0  0999 V2000
   21.1574   -7.8587  -12.2239 O   0  0  0  0  0  0  0  0  0  0  0  0
   19.8851   -7.3249  -12.0942 C   0  0  0  0  0  0  0  0  0  0  0  0
   18.9092   -8.3501  -12.6320 C   0  0  2  0  0  0  0  0  0  0  0  0
   19.0851   -8.6050  -14.0266 N   0  0  0  0  0  0  0  0  0  0  0  0
   17.5196   -7.8450  -12.3639 C   0  0  0  0  0  0  0  0  0  0  0  0
   16.9039   -7.1491  -13.2249 O   0  0  0  0  0  0  0  0  0  0  0  0
   13.3903  -11.1221   -9.2901 N   0  0  0  0  0  0  0  0  0  0  0  0
   12.7155   -9.8793   -9.3455 C   0  0  0  0  0  0  0  0  0  0  0  0
   11.5487   -9.8168   -8.9098 O   0  0  0  0  0  0  0  0  0  0  0  0
   13.3558   -8.6658   -9.9033 C   0  0  0  0  0  0  0  0  0  0  0  0
   14.7714   -8.8501  -10.3167 C   0  0  0  0  0  0  0  0  0  0  0  0
   15.4483   -7.6419  -10.9291 C   0  0  2  0  0  0  0  0  0  0  0  0
   16.8374   -8.1108  -11.1660 N   0  0  0  0  0  0  0  0  0  0  0  0
   15.4655   -6.5575   -9.9182 C   0  0  0  0  0  0  0  0  0  0  0  0
   16.0891   -6.7785   -8.8411 O   0  0  0  0  0  0  0  0  0  0  0  0
   14.6827   -2.9527   -9.5946 C   0  0  0  0  0  0  0  0  0  0  0  0
   14.9885   -4.3232   -9.0093 C   0  0  2  0  0  0  0  0  0  0  0  0
   14.8375   -5.3013  -10.0815 N   0  0  0  0  0  0  0  0  0  0  0  0
   14.1150   -4.6324   -7.8666 C   0  0  0  0  0  0  0  0  0  0  0  0
   14.3008   -4.1492   -6.5813 O   0  0  0  0  0  0  0  0  0  0  0  0
   13.1326   -5.3861   -8.0675 O   0  0  0  0  0  0  0  0  0  0  0  0
  1  2  1  0
  3  2  1  0
  3  4  1  6
  5  3  1  0
  5 13  1  0
  6  5  2  0
  7  8  1  0
  8 10  1  0
  8  9  2  0
 10 11  1  0
 12 11  1  1
 12 13  1  0
 12 14  1  0
 14 15  2  0
 14 18  1  0
 17 16  1  6
 17 19  1  0
 18 17  1  0
 19 20  1  0
 21 19  2  0
M  END
$$$$
