RRG.pdb
     RDKit          3D

 27 26  0  0  1  0  0  0  0  0999 V2000
   18.3084  -21.2808  -16.7406 N   0  0  0  0  0  0  0  0  0  0  0  0
   18.3276  -19.9563  -17.2341 C   0  0  0  0  0  0  0  0  0  0  0  0
   17.7203  -19.7279  -18.3599 N   0  0  0  0  0  0  0  0  0  0  0  0
   18.9548  -18.8794  -16.5936 N   0  0  0  0  0  0  0  0  0  0  0  0
   19.5368  -18.9502  -15.2458 C   0  0  0  0  0  0  0  0  0  0  0  0
   20.9267  -19.5159  -15.4036 C   0  0  0  0  0  0  0  0  0  0  0  0
   21.5811  -19.8163  -14.0859 C   0  0  0  0  0  0  0  0  0  0  0  0
   22.0711  -21.2387  -14.0402 C   0  0  2  0  0  0  0  0  0  0  0  0
   22.5352  -21.6318  -15.3532 N   0  0  0  0  0  0  0  0  0  0  0  0
   20.8973  -22.0931  -13.6578 C   0  0  0  0  0  0  0  0  0  0  0  0
   20.2319  -22.6593  -14.5817 O   0  0  0  0  0  0  0  0  0  0  0  0
   17.6740  -18.7886  -18.8114 N   0  0  0  0  0  0  0  0  0  0  0  0
   17.6274  -24.6855   -6.4547 C   0  0  0  0  0  0  0  0  0  0  0  0
   17.1671  -25.7780   -7.2717 N   0  0  0  0  0  0  0  0  0  0  0  0
   16.0182  -26.2826   -6.9500 N   0  0  0  0  0  0  0  0  0  0  0  0
   17.9434  -26.2398   -8.3498 C   0  0  0  0  0  0  0  0  0  0  0  0
   19.0216  -25.4339   -8.8528 C   0  0  0  0  0  0  0  0  0  0  0  0
   18.7077  -24.7052  -10.1015 C   0  0  0  0  0  0  0  0  0  0  0  0
   19.7193  -23.8296  -10.7031 C   0  0  2  0  0  0  0  0  0  0  0  0
   19.4029  -22.9950  -11.8678 N   0  0  0  0  0  0  0  0  0  0  0  0
   20.5785  -22.2350  -12.2991 C   0  0  0  0  0  0  0  0  0  0  0  0
   18.2025  -22.1449  -11.8586 O   0  0  0  0  0  0  0  0  0  0  0  0
   18.2208  -20.9849  -11.3762 N   0  0  0  0  0  0  0  0  0  0  0  0
   15.5304  -27.0448   -7.4291 C   0  0  0  0  0  0  0  0  0  0  0  0
   16.9538  -22.5990  -12.3840 C   0  0  0  0  0  0  0  0  0  0  0  0
   16.2368  -21.8855  -13.3837 O   0  0  0  0  0  0  0  0  0  0  0  0
   15.6718  -20.5766  -13.0399 O   0  0  0  0  0  0  0  0  0  0  0  0
  2  1  1  0
  3  2  2  0
  4  2  1  0
  5  4  1  0
  6  5  1  0
  7  8  1  0
  7  6  1  0
  8 10  1  0
  8  9  1  6
 10 11  2  0
 13 12  1  0
 13 14  2  0
 15 16  1  0
 15 13  1  0
 17 16  1  0
 18 17  1  0
 19 18  1  6
 19 21  1  0
 20 10  1  0
 20 19  1  0
 21 22  2  0
 23 24  1  0
 23 21  1  0
 25 26  1  0
 25 24  1  0
 27 25  2  0
M  END
$$$$
