RRG.pdb
     RDKit          3D

 27 26  0  0  1  0  0  0  0  0999 V2000
   23.4806  -29.3703  -16.0842 N   0  0  0  0  0  0  0  0  0  0  0  0
   23.5857  -28.3347  -17.0406 C   0  0  0  0  0  0  0  0  0  0  0  0
   24.4306  -28.5017  -18.0136 N   0  0  0  0  0  0  0  0  0  0  0  0
   22.8434  -27.1466  -17.0093 N   0  0  0  0  0  0  0  0  0  0  0  0
   21.9539  -26.7618  -15.9042 C   0  0  0  0  0  0  0  0  0  0  0  0
   20.6305  -27.4409  -16.1571 C   0  0  0  0  0  0  0  0  0  0  0  0
   19.5981  -27.0979  -15.1221 C   0  0  0  0  0  0  0  0  0  0  0  0
   20.1115  -27.3801  -13.7357 C   0  0  2  0  0  0  0  0  0  0  0  0
   20.1450  -28.8098  -13.5150 N   0  0  0  0  0  0  0  0  0  0  0  0
   19.1403  -26.7573  -12.7749 C   0  0  0  0  0  0  0  0  0  0  0  0
   17.9634  -27.2341  -12.7068 O   0  0  0  0  0  0  0  0  0  0  0  0
   24.5543  -27.8213  -18.7947 N   0  0  0  0  0  0  0  0  0  0  0  0
   17.5523  -26.0696   -4.7275 C   0  0  0  0  0  0  0  0  0  0  0  0
   16.7144  -25.2729   -5.5857 N   0  0  0  0  0  0  0  0  0  0  0  0
   15.4416  -25.3345   -5.3525 N   0  0  0  0  0  0  0  0  0  0  0  0
   17.2801  -24.4833   -6.6028 C   0  0  0  0  0  0  0  0  0  0  0  0
   18.1744  -25.0782   -7.5574 C   0  0  0  0  0  0  0  0  0  0  0  0
   18.6034  -24.1676   -8.6417 C   0  0  0  0  0  0  0  0  0  0  0  0
   19.3398  -24.7057   -9.7906 C   0  0  2  0  0  0  0  0  0  0  0  0
   18.6568  -25.0103  -11.0531 N   0  0  0  0  0  0  0  0  0  0  0  0
   19.5654  -25.6753  -11.9900 C   0  0  0  0  0  0  0  0  0  0  0  0
   17.8707  -23.9695  -11.7332 O   0  0  0  0  0  0  0  0  0  0  0  0
   18.4168  -23.0990  -12.4562 N   0  0  0  0  0  0  0  0  0  0  0  0
   14.7020  -24.8513   -5.8702 C   0  0  0  0  0  0  0  0  0  0  0  0
   16.4509  -23.8872  -11.5957 C   0  0  0  0  0  0  0  0  0  0  0  0
   15.6863  -22.8242  -12.1507 O   0  0  0  0  0  0  0  0  0  0  0  0
   15.5806  -21.5706  -11.3971 O   0  0  0  0  0  0  0  0  0  0  0  0
  2  1  1  0
  3  2  2  0
  4  2  1  0
  5  4  1  0
  6  5  1  0
  7  8  1  0
  7  6  1  0
  8 10  1  0
  8  9  1  1
 10 11  2  0
 13 12  1  0
 13 14  2  0
 15 16  1  0
 15 13  1  0
 17 16  1  0
 18 17  1  0
 19 18  1  1
 19 21  1  0
 20 10  1  0
 20 19  1  0
 21 22  2  0
 23 24  1  0
 23 21  1  0
 25 26  1  0
 25 24  1  0
 27 25  2  0
M  END
$$$$
