RRG.pdb
     RDKit          3D

 27 26  0  0  1  0  0  0  0  0999 V2000
   19.3421  -18.9353  -15.7751 N   0  0  0  0  0  0  0  0  0  0  0  0
   20.1399  -18.3982  -16.8112 C   0  0  0  0  0  0  0  0  0  0  0  0
   19.6687  -17.3766  -17.4613 N   0  0  0  0  0  0  0  0  0  0  0  0
   21.3979  -18.8917  -17.1816 N   0  0  0  0  0  0  0  0  0  0  0  0
   22.1168  -19.9438  -16.4490 C   0  0  0  0  0  0  0  0  0  0  0  0
   22.8334  -19.2645  -15.3081 C   0  0  0  0  0  0  0  0  0  0  0  0
   23.5655  -20.2347  -14.4264 C   0  0  0  0  0  0  0  0  0  0  0  0
   24.9305  -20.5420  -14.9814 C   0  0  2  0  0  0  0  0  0  0  0  0
   24.8168  -21.5533  -16.0101 N   0  0  0  0  0  0  0  0  0  0  0  0
   25.7513  -21.0847  -13.8474 C   0  0  0  0  0  0  0  0  0  0  0  0
   25.5518  -22.2834  -13.4729 O   0  0  0  0  0  0  0  0  0  0  0  0
   20.1736  -16.9070  -18.2442 N   0  0  0  0  0  0  0  0  0  0  0  0
   32.1504  -23.2462  -12.9875 C   0  0  0  0  0  0  0  0  0  0  0  0
   32.4359  -22.8459  -11.6342 N   0  0  0  0  0  0  0  0  0  0  0  0
   33.6406  -23.0751  -11.2167 N   0  0  0  0  0  0  0  0  0  0  0  0
   31.4424  -22.2404  -10.8440 C   0  0  0  0  0  0  0  0  0  0  0  0
   30.0875  -22.1807  -11.3188 C   0  0  0  0  0  0  0  0  0  0  0  0
   29.7993  -21.0263  -12.1981 C   0  0  0  0  0  0  0  0  0  0  0  0
   28.6874  -20.1269  -11.8717 C   0  0  2  0  0  0  0  0  0  0  0  0
   27.2954  -20.5852  -11.9456 N   0  0  0  0  0  0  0  0  0  0  0  0
   26.7052  -20.2518  -13.2441 C   0  0  0  0  0  0  0  0  0  0  0  0
   26.3619  -20.2798  -10.8507 O   0  0  0  0  0  0  0  0  0  0  0  0
   26.0592  -19.0970  -10.5541 N   0  0  0  0  0  0  0  0  0  0  0  0
   34.0132  -22.8705  -10.2852 C   0  0  0  0  0  0  0  0  0  0  0  0
   25.7638  -21.3097  -10.0614 C   0  0  0  0  0  0  0  0  0  0  0  0
   24.8618  -21.0348   -8.9967 O   0  0  0  0  0  0  0  0  0  0  0  0
   23.4362  -20.8880   -9.3075 O   0  0  0  0  0  0  0  0  0  0  0  0
  2  1  1  0
  3  2  2  0
  4  2  1  0
  5  4  1  0
  6  5  1  0
  7  8  1  0
  7  6  1  0
  8 10  1  0
  8  9  1  6
 10 11  2  0
 13 12  1  0
 13 14  2  0
 15 16  1  0
 15 13  1  0
 17 16  1  0
 18 17  1  0
 19 18  1  6
 19 21  1  0
 20 10  1  0
 20 19  1  0
 21 22  2  0
 23 24  1  0
 23 21  1  0
 25 26  1  0
 25 24  1  0
 27 25  2  0
M  END
$$$$
