RRG.pdb
     RDKit          3D

 27 26  0  0  1  0  0  0  0  0999 V2000
   16.2056  -21.0920    1.8885 N   0  0  0  0  0  0  0  0  0  0  0  0
   14.8386  -20.8255    1.6466 C   0  0  0  0  0  0  0  0  0  0  0  0
   14.0741  -20.6337    2.6796 N   0  0  0  0  0  0  0  0  0  0  0  0
   14.2564  -20.7550    0.3740 N   0  0  0  0  0  0  0  0  0  0  0  0
   13.8806  -21.9304   -0.4245 C   0  0  0  0  0  0  0  0  0  0  0  0
   15.1667  -22.6049   -0.8340 C   0  0  0  0  0  0  0  0  0  0  0  0
   14.9343  -23.8651   -1.6166 C   0  0  0  0  0  0  0  0  0  0  0  0
   14.6703  -23.5574   -3.0662 C   0  0  2  0  0  0  0  0  0  0  0  0
   13.2431  -23.5417   -3.3042 N   0  0  0  0  0  0  0  0  0  0  0  0
   15.2900  -24.6653   -3.8679 C   0  0  0  0  0  0  0  0  0  0  0  0
   14.8447  -25.8468   -3.7163 O   0  0  0  0  0  0  0  0  0  0  0  0
   13.0549  -20.4211    2.6128 N   0  0  0  0  0  0  0  0  0  0  0  0
   19.7899  -25.9872  -11.7800 C   0  0  0  0  0  0  0  0  0  0  0  0
   19.3475  -26.9797  -10.8354 N   0  0  0  0  0  0  0  0  0  0  0  0
   18.8449  -28.0610  -11.3418 N   0  0  0  0  0  0  0  0  0  0  0  0
   19.4739  -26.7559   -9.4527 C   0  0  0  0  0  0  0  0  0  0  0  0
   18.5889  -25.8363   -8.7923 C   0  0  0  0  0  0  0  0  0  0  0  0
   18.7315  -25.8025   -7.3201 C   0  0  0  0  0  0  0  0  0  0  0  0
   17.8699  -24.9173   -6.5290 C   0  0  2  0  0  0  0  0  0  0  0  0
   17.1755  -25.4069   -5.3326 N   0  0  0  0  0  0  0  0  0  0  0  0
   16.3346  -24.3574   -4.7520 C   0  0  0  0  0  0  0  0  0  0  0  0
   17.9263  -26.1172   -4.2860 O   0  0  0  0  0  0  0  0  0  0  0  0
   18.6291  -25.5008   -3.4465 N   0  0  0  0  0  0  0  0  0  0  0  0
   18.5094  -28.8786  -10.8248 C   0  0  0  0  0  0  0  0  0  0  0  0
   17.9058  -27.5419   -4.1794 C   0  0  0  0  0  0  0  0  0  0  0  0
   18.7191  -28.2542   -3.2554 O   0  0  0  0  0  0  0  0  0  0  0  0
   18.6766  -29.7200   -3.2709 O   0  0  0  0  0  0  0  0  0  0  0  0
  2  1  1  0
  3  2  2  0
  4  2  1  0
  5  4  1  0
  6  5  1  0
  7  8  1  0
  7  6  1  0
  8 10  1  0
  8  9  1  1
 10 11  2  0
 13 12  1  0
 13 14  2  0
 15 16  1  0
 15 13  1  0
 17 16  1  0
 18 17  1  0
 19 18  1  6
 19 21  1  0
 20 10  1  0
 20 19  1  0
 21 22  2  0
 23 24  1  0
 23 21  1  0
 25 26  1  0
 25 24  1  0
 27 25  2  0
M  END
$$$$
