RRG.pdb
     RDKit          3D

 27 26  0  0  1  0  0  0  0  0999 V2000
   26.0808  -23.3714  -15.6651 N   0  0  0  0  0  0  0  0  0  0  0  0
   27.2567  -23.5490  -16.4295 C   0  0  0  0  0  0  0  0  0  0  0  0
   27.6209  -24.7681  -16.6932 N   0  0  0  0  0  0  0  0  0  0  0  0
   28.0511  -22.5036  -16.9186 N   0  0  0  0  0  0  0  0  0  0  0  0
   28.6777  -21.4805  -16.0696 C   0  0  0  0  0  0  0  0  0  0  0  0
   27.9911  -20.1749  -16.3867 C   0  0  0  0  0  0  0  0  0  0  0  0
   27.1546  -19.6702  -15.2465 C   0  0  0  0  0  0  0  0  0  0  0  0
   25.7013  -19.9997  -15.4581 C   0  0  2  0  0  0  0  0  0  0  0  0
   25.1372  -19.0909  -16.4327 N   0  0  0  0  0  0  0  0  0  0  0  0
   25.0109  -19.7973  -14.1403 C   0  0  0  0  0  0  0  0  0  0  0  0
   24.7753  -18.6087  -13.7546 O   0  0  0  0  0  0  0  0  0  0  0  0
   28.5011  -25.0121  -17.1972 N   0  0  0  0  0  0  0  0  0  0  0  0
   18.2195  -23.6467  -10.4577 C   0  0  0  0  0  0  0  0  0  0  0  0
   18.4243  -22.3968   -9.7728 N   0  0  0  0  0  0  0  0  0  0  0  0
   17.4329  -21.9746   -9.0537 N   0  0  0  0  0  0  0  0  0  0  0  0
   19.6431  -21.7061   -9.8968 C   0  0  0  0  0  0  0  0  0  0  0  0
   20.6594  -22.2007  -10.7842 C   0  0  0  0  0  0  0  0  0  0  0  0
   21.8386  -21.3168  -10.9146 C   0  0  0  0  0  0  0  0  0  0  0  0
   22.8613  -21.6173  -11.9225 C   0  0  2  0  0  0  0  0  0  0  0  0
   24.0664  -20.7899  -12.0491 N   0  0  0  0  0  0  0  0  0  0  0  0
   24.6524  -20.9236  -13.3848 C   0  0  0  0  0  0  0  0  0  0  0  0
   25.1074  -20.8439  -11.0112 O   0  0  0  0  0  0  0  0  0  0  0  0
   25.9812  -21.7467  -11.0014 N   0  0  0  0  0  0  0  0  0  0  0  0
   17.4090  -21.1217   -8.4877 C   0  0  0  0  0  0  0  0  0  0  0  0
   25.1696  -19.8827   -9.9559 C   0  0  0  0  0  0  0  0  0  0  0  0
   26.1335  -19.9500   -8.9123 O   0  0  0  0  0  0  0  0  0  0  0  0
   25.7119  -20.4556   -7.6018 O   0  0  0  0  0  0  0  0  0  0  0  0
  2  1  1  0
  3  2  2  0
  4  2  1  0
  5  4  1  0
  6  5  1  0
  7  8  1  0
  7  6  1  0
  8 10  1  0
  8  9  1  6
 10 11  2  0
 13 12  1  0
 13 14  2  0
 15 16  1  0
 15 13  1  0
 17 16  1  0
 18 17  1  0
 19 18  1  6
 19 21  1  0
 20 10  1  0
 20 19  1  0
 21 22  2  0
 23 24  1  0
 23 21  1  0
 25 26  1  0
 25 24  1  0
 27 25  2  0
M  END
$$$$
