RRG.pdb
     RDKit          3D

 27 26  0  0  1  0  0  0  0  0999 V2000
   29.7392  -19.2274  -18.9996 N   0  0  0  0  0  0  0  0  0  0  0  0
   29.7443  -20.1408  -20.0786 C   0  0  0  0  0  0  0  0  0  0  0  0
   30.8842  -20.3810  -20.6543 N   0  0  0  0  0  0  0  0  0  0  0  0
   28.6082  -20.8005  -20.5658 N   0  0  0  0  0  0  0  0  0  0  0  0
   27.2721  -20.6911  -19.9630 C   0  0  0  0  0  0  0  0  0  0  0  0
   26.7361  -22.0962  -19.8404 C   0  0  0  0  0  0  0  0  0  0  0  0
   26.0130  -22.3276  -18.5449 C   0  0  0  0  0  0  0  0  0  0  0  0
   26.9837  -22.6094  -17.4297 C   0  0  2  0  0  0  0  0  0  0  0  0
   27.2621  -24.0285  -17.3790 N   0  0  0  0  0  0  0  0  0  0  0  0
   26.3137  -22.1942  -16.1519 C   0  0  0  0  0  0  0  0  0  0  0  0
   25.5007  -23.0028  -15.6021 O   0  0  0  0  0  0  0  0  0  0  0  0
   30.9966  -21.0251  -21.4672 N   0  0  0  0  0  0  0  0  0  0  0  0
   26.0517  -19.9123   -8.5817 C   0  0  0  0  0  0  0  0  0  0  0  0
   24.9746  -20.4426   -9.3766 N   0  0  0  0  0  0  0  0  0  0  0  0
   23.7888  -20.3421   -8.8649 N   0  0  0  0  0  0  0  0  0  0  0  0
   25.2321  -21.0235  -10.6313 C   0  0  0  0  0  0  0  0  0  0  0  0
   26.5451  -20.9302  -11.2077 C   0  0  0  0  0  0  0  0  0  0  0  0
   26.7619  -19.7268  -12.0406 C   0  0  0  0  0  0  0  0  0  0  0  0
   27.0063  -19.8760  -13.4793 C   0  0  2  0  0  0  0  0  0  0  0  0
   25.9995  -20.4789  -14.3603 N   0  0  0  0  0  0  0  0  0  0  0  0
   26.6080  -20.9330  -15.6129 C   0  0  0  0  0  0  0  0  0  0  0  0
   24.7322  -19.7775  -14.6162 O   0  0  0  0  0  0  0  0  0  0  0  0
   24.6801  -18.7583  -15.3491 N   0  0  0  0  0  0  0  0  0  0  0  0
   22.9075  -20.6174   -9.3075 C   0  0  0  0  0  0  0  0  0  0  0  0
   23.5009  -20.2102  -14.0347 C   0  0  0  0  0  0  0  0  0  0  0  0
   22.2401  -19.9908  -14.6551 O   0  0  0  0  0  0  0  0  0  0  0  0
   21.0438  -20.5661  -14.0316 O   0  0  0  0  0  0  0  0  0  0  0  0
  2  1  1  0
  3  2  2  0
  4  2  1  0
  5  4  1  0
  6  5  1  0
  7  8  1  0
  7  6  1  0
  8 10  1  0
  8  9  1  1
 10 11  2  0
 13 12  1  0
 13 14  2  0
 15 16  1  0
 15 13  1  0
 17 16  1  0
 18 17  1  0
 19 18  1  1
 19 21  1  0
 20 10  1  0
 20 19  1  0
 21 22  2  0
 23 24  1  0
 23 21  1  0
 25 26  1  0
 25 24  1  0
 27 25  2  0
M  END
$$$$
