RRG.pdb
     RDKit          3D

 27 26  0  0  1  0  0  0  0  0999 V2000
   26.7441  -27.3647  -16.4957 N   0  0  0  0  0  0  0  0  0  0  0  0
   27.1542  -26.8759  -17.7572 C   0  0  0  0  0  0  0  0  0  0  0  0
   27.6150  -27.7386  -18.6126 N   0  0  0  0  0  0  0  0  0  0  0  0
   27.0975  -25.5303  -18.1440 N   0  0  0  0  0  0  0  0  0  0  0  0
   26.8356  -24.4190  -17.2183 C   0  0  0  0  0  0  0  0  0  0  0  0
   25.4899  -23.8500  -17.5947 C   0  0  0  0  0  0  0  0  0  0  0  0
   25.0586  -22.7362  -16.6847 C   0  0  0  0  0  0  0  0  0  0  0  0
   25.0647  -23.1828  -15.2473 C   0  0  2  0  0  0  0  0  0  0  0  0
   23.8310  -23.8794  -14.9530 N   0  0  0  0  0  0  0  0  0  0  0  0
   25.1416  -21.9425  -14.4047 C   0  0  0  0  0  0  0  0  0  0  0  0
   24.2498  -21.0489  -14.5569 O   0  0  0  0  0  0  0  0  0  0  0  0
   27.9321  -27.4864  -19.5740 N   0  0  0  0  0  0  0  0  0  0  0  0
   22.5814  -21.3066   -9.7502 C   0  0  0  0  0  0  0  0  0  0  0  0
   23.3363  -20.8216   -8.6242 N   0  0  0  0  0  0  0  0  0  0  0  0
   22.7898  -20.9861   -7.4612 N   0  0  0  0  0  0  0  0  0  0  0  0
   24.5910  -20.2151   -8.8137 C   0  0  0  0  0  0  0  0  0  0  0  0
   25.1541  -20.1317  -10.1331 C   0  0  0  0  0  0  0  0  0  0  0  0
   26.4247  -20.8705  -10.3022 C   0  0  0  0  0  0  0  0  0  0  0  0
   27.1750  -20.7436  -11.5564 C   0  0  2  0  0  0  0  0  0  0  0  0
   26.4847  -20.5351  -12.8344 N   0  0  0  0  0  0  0  0  0  0  0  0
   26.1917  -21.8152  -13.4833 C   0  0  0  0  0  0  0  0  0  0  0  0
   27.0120  -19.5632  -13.8045 O   0  0  0  0  0  0  0  0  0  0  0  0
   27.9214  -19.8695  -14.6155 N   0  0  0  0  0  0  0  0  0  0  0  0
   23.1747  -20.6928   -6.5589 C   0  0  0  0  0  0  0  0  0  0  0  0
   26.5276  -18.2203  -13.8645 C   0  0  0  0  0  0  0  0  0  0  0  0
   27.0477  -17.2566  -14.7720 O   0  0  0  0  0  0  0  0  0  0  0  0
   26.5613  -17.2642  -16.1555 O   0  0  0  0  0  0  0  0  0  0  0  0
  2  1  1  0
  3  2  2  0
  4  2  1  0
  5  4  1  0
  6  5  1  0
  7  8  1  0
  7  6  1  0
  8 10  1  0
  8  9  1  1
 10 11  2  0
 13 12  1  0
 13 14  2  0
 15 16  1  0
 15 13  1  0
 17 16  1  0
 18 17  1  0
 19 18  1  1
 19 21  1  0
 20 10  1  0
 20 19  1  0
 21 22  2  0
 23 24  1  0
 23 21  1  0
 25 26  1  0
 25 24  1  0
 27 25  2  0
M  END
$$$$
