RRG.pdb
     RDKit          3D

 27 26  0  0  1  0  0  0  0  0999 V2000
   22.4388  -11.2874    5.6739 N   0  0  0  0  0  0  0  0  0  0  0  0
   21.5064  -11.2274    6.7348 C   0  0  0  0  0  0  0  0  0  0  0  0
   21.9784  -11.1606    7.9436 N   0  0  0  0  0  0  0  0  0  0  0  0
   20.1150  -11.2353    6.5703 N   0  0  0  0  0  0  0  0  0  0  0  0
   19.2447  -12.3461    6.9817 C   0  0  0  0  0  0  0  0  0  0  0  0
   18.5009  -12.7934    5.7475 C   0  0  0  0  0  0  0  0  0  0  0  0
   17.5371  -13.9104    6.0269 C   0  0  0  0  0  0  0  0  0  0  0  0
   16.8431  -14.3505    4.7659 C   0  0  2  0  0  0  0  0  0  0  0  0
   15.5961  -13.6301    4.6246 N   0  0  0  0  0  0  0  0  0  0  0  0
   16.5500  -15.8152    4.9169 C   0  0  0  0  0  0  0  0  0  0  0  0
   15.7231  -16.1799    5.8115 O   0  0  0  0  0  0  0  0  0  0  0  0
   21.3801  -11.1576    8.7983 N   0  0  0  0  0  0  0  0  0  0  0  0
   15.7578  -22.9830   -0.0790 C   0  0  0  0  0  0  0  0  0  0  0  0
   14.5659  -22.2285    0.2100 N   0  0  0  0  0  0  0  0  0  0  0  0
   13.4698  -22.6751   -0.3167 N   0  0  0  0  0  0  0  0  0  0  0  0
   14.6259  -21.0829    1.0237 C   0  0  0  0  0  0  0  0  0  0  0  0
   15.8807  -20.6724    1.5909 C   0  0  0  0  0  0  0  0  0  0  0  0
   15.8294  -19.3856    2.3193 C   0  0  0  0  0  0  0  0  0  0  0  0
   17.0527  -18.8451    2.9219 C   0  0  2  0  0  0  0  0  0  0  0  0
   17.0214  -18.1710    4.2249 N   0  0  0  0  0  0  0  0  0  0  0  0
   17.1974  -16.7253    4.0681 C   0  0  0  0  0  0  0  0  0  0  0  0
   17.8382  -18.6818    5.3365 O   0  0  0  0  0  0  0  0  0  0  0  0
   18.8985  -18.1091    5.6919 N   0  0  0  0  0  0  0  0  0  0  0  0
   12.5271  -22.3026   -0.1720 C   0  0  0  0  0  0  0  0  0  0  0  0
   17.4755  -19.8605    6.0581 C   0  0  0  0  0  0  0  0  0  0  0  0
   18.3010  -20.4262    7.0687 O   0  0  0  0  0  0  0  0  0  0  0  0
   17.8388  -21.6382    7.7527 O   0  0  0  0  0  0  0  0  0  0  0  0
  2  1  1  0
  3  2  2  0
  4  2  1  0
  5  4  1  0
  6  5  1  0
  7  8  1  0
  7  6  1  0
  8 10  1  0
  8  9  1  1
 10 11  2  0
 13 12  1  0
 13 14  2  0
 15 16  1  0
 15 13  1  0
 17 16  1  0
 18 17  1  0
 19 18  1  6
 19 21  1  0
 20 10  1  0
 20 19  1  0
 21 22  2  0
 23 24  1  0
 23 21  1  0
 25 26  1  0
 25 24  1  0
 27 25  2  0
M  END
$$$$
