RRG.pdb
     RDKit          3D

 27 26  0  0  1  0  0  0  0  0999 V2000
   17.9550  -21.3071  -14.7956 N   0  0  0  0  0  0  0  0  0  0  0  0
   16.9080  -22.0718  -15.3590 C   0  0  0  0  0  0  0  0  0  0  0  0
   16.0273  -21.4428  -16.0782 N   0  0  0  0  0  0  0  0  0  0  0  0
   16.7576  -23.4551  -15.1943 N   0  0  0  0  0  0  0  0  0  0  0  0
   17.7720  -24.3254  -14.5828 C   0  0  0  0  0  0  0  0  0  0  0  0
   18.8520  -24.5246  -15.6174 C   0  0  0  0  0  0  0  0  0  0  0  0
   19.9005  -25.5050  -15.1766 C   0  0  0  0  0  0  0  0  0  0  0  0
   20.5471  -25.0603  -13.8923 C   0  0  2  0  0  0  0  0  0  0  0  0
   21.7494  -24.3126  -14.1908 N   0  0  0  0  0  0  0  0  0  0  0  0
   20.9167  -26.3035  -13.1359 C   0  0  0  0  0  0  0  0  0  0  0  0
   21.9333  -26.9659  -13.5164 O   0  0  0  0  0  0  0  0  0  0  0  0
   15.1926  -21.9029  -16.5025 N   0  0  0  0  0  0  0  0  0  0  0  0
   16.8585  -24.9537   -6.8100 C   0  0  0  0  0  0  0  0  0  0  0  0
   17.0298  -24.8829   -8.2379 N   0  0  0  0  0  0  0  0  0  0  0  0
   16.1322  -24.2090   -8.8845 N   0  0  0  0  0  0  0  0  0  0  0  0
   18.1217  -25.5162   -8.8582 C   0  0  0  0  0  0  0  0  0  0  0  0
   18.8843  -26.4978   -8.1373 C   0  0  0  0  0  0  0  0  0  0  0  0
   19.9603  -27.1355   -8.9275 C   0  0  0  0  0  0  0  0  0  0  0  0
   19.6126  -27.9855  -10.0714 C   0  0  2  0  0  0  0  0  0  0  0  0
   20.3876  -27.9345  -11.3164 N   0  0  0  0  0  0  0  0  0  0  0  0
   20.1292  -26.6876  -12.0404 C   0  0  0  0  0  0  0  0  0  0  0  0
   20.3822  -29.0848  -12.2332 O   0  0  0  0  0  0  0  0  0  0  0  0
   19.6460  -29.1122  -13.2509 N   0  0  0  0  0  0  0  0  0  0  0  0
   16.1172  -24.0211   -9.8909 C   0  0  0  0  0  0  0  0  0  0  0  0
   21.2018  -30.2329  -12.0060 C   0  0  0  0  0  0  0  0  0  0  0  0
   21.2563  -31.3283  -12.9115 O   0  0  0  0  0  0  0  0  0  0  0  0
   20.0489  -32.1382  -13.1035 O   0  0  0  0  0  0  0  0  0  0  0  0
  2  1  1  0
  3  2  2  0
  4  2  1  0
  5  4  1  0
  6  5  1  0
  7  8  1  0
  7  6  1  0
  8 10  1  0
  8  9  1  6
 10 11  2  0
 13 12  1  0
 13 14  2  0
 15 16  1  0
 15 13  1  0
 17 16  1  0
 18 17  1  0
 19 18  1  1
 19 21  1  0
 20 10  1  0
 20 19  1  0
 21 22  2  0
 23 24  1  0
 23 21  1  0
 25 26  1  0
 25 24  1  0
 27 25  2  0
M  END
$$$$
