RRG.pdb
     RDKit          3D

 27 26  0  0  1  0  0  0  0  0999 V2000
   17.8119  -23.0504    4.8244 N   0  0  0  0  0  0  0  0  0  0  0  0
   16.7499  -22.9420    3.8977 C   0  0  0  0  0  0  0  0  0  0  0  0
   16.7610  -23.7467    2.8775 N   0  0  0  0  0  0  0  0  0  0  0  0
   15.6921  -22.0294    4.0055 N   0  0  0  0  0  0  0  0  0  0  0  0
   14.8582  -21.5999    2.8738 C   0  0  0  0  0  0  0  0  0  0  0  0
   15.0467  -20.1090    2.7384 C   0  0  0  0  0  0  0  0  0  0  0  0
   14.6578  -19.3623    3.9817 C   0  0  0  0  0  0  0  0  0  0  0  0
   14.6792  -17.8759    3.7456 C   0  0  2  0  0  0  0  0  0  0  0  0
   14.6518  -17.6126    2.3230 N   0  0  0  0  0  0  0  0  0  0  0  0
   15.9693  -17.3614    4.3157 C   0  0  0  0  0  0  0  0  0  0  0  0
   16.9931  -17.3222    3.5625 O   0  0  0  0  0  0  0  0  0  0  0  0
   16.0527  -23.7191    2.1120 N   0  0  0  0  0  0  0  0  0  0  0  0
   20.1400  -11.9234    5.0525 C   0  0  0  0  0  0  0  0  0  0  0  0
   20.0809  -11.7320    6.4784 N   0  0  0  0  0  0  0  0  0  0  0  0
   21.2211  -11.6564    7.0886 N   0  0  0  0  0  0  0  0  0  0  0  0
   18.8409  -11.6326    7.1346 C   0  0  0  0  0  0  0  0  0  0  0  0
   17.7317  -12.4331    6.6946 C   0  0  0  0  0  0  0  0  0  0  0  0
   17.9962  -13.8887    6.6828 C   0  0  0  0  0  0  0  0  0  0  0  0
   16.9147  -14.8188    6.3403 C   0  0  2  0  0  0  0  0  0  0  0  0
   17.1655  -16.2590    6.2143 N   0  0  0  0  0  0  0  0  0  0  0  0
   15.9981  -16.9443    5.6548 C   0  0  0  0  0  0  0  0  0  0  0  0
   17.7209  -17.0105    7.3503 O   0  0  0  0  0  0  0  0  0  0  0  0
   16.9884  -17.6920    8.1102 N   0  0  0  0  0  0  0  0  0  0  0  0
   21.3685  -11.5648    8.0977 C   0  0  0  0  0  0  0  0  0  0  0  0
   19.1168  -16.9925    7.6551 C   0  0  0  0  0  0  0  0  0  0  0  0
   19.9101  -18.1725    7.6895 O   0  0  0  0  0  0  0  0  0  0  0  0
   19.4014  -19.3366    8.4221 O   0  0  0  0  0  0  0  0  0  0  0  0
  2  1  1  0
  3  2  2  0
  4  2  1  0
  5  4  1  0
  6  5  1  0
  7  8  1  0
  7  6  1  0
  8 10  1  0
  8  9  1  6
 10 11  2  0
 13 12  1  0
 13 14  2  0
 15 16  1  0
 15 13  1  0
 17 16  1  0
 18 17  1  0
 19 18  1  6
 19 21  1  0
 20 10  1  0
 20 19  1  0
 21 22  2  0
 23 24  1  0
 23 21  1  0
 25 26  1  0
 25 24  1  0
 27 25  2  0
M  END
$$$$
