RRG.pdb
     RDKit          3D

 27 26  0  0  1  0  0  0  0  0999 V2000
   27.1061  -18.4302  -20.3780 N   0  0  0  0  0  0  0  0  0  0  0  0
   28.1067  -17.7139  -19.6822 C   0  0  0  0  0  0  0  0  0  0  0  0
   28.2615  -16.4588  -19.9805 N   0  0  0  0  0  0  0  0  0  0  0  0
   28.9383  -18.2646  -18.6980 N   0  0  0  0  0  0  0  0  0  0  0  0
   28.4989  -19.2675  -17.7174 C   0  0  0  0  0  0  0  0  0  0  0  0
   27.2655  -19.9215  -18.2898 C   0  0  0  0  0  0  0  0  0  0  0  0
   26.6860  -20.9619  -17.3752 C   0  0  0  0  0  0  0  0  0  0  0  0
   27.5373  -21.1319  -16.1456 C   0  0  2  0  0  0  0  0  0  0  0  0
   28.4970  -22.1922  -16.3657 N   0  0  0  0  0  0  0  0  0  0  0  0
   26.6162  -21.5271  -15.0278 C   0  0  0  0  0  0  0  0  0  0  0  0
   26.3746  -22.7626  -14.8482 O   0  0  0  0  0  0  0  0  0  0  0  0
   28.9467  -15.8320  -19.5049 N   0  0  0  0  0  0  0  0  0  0  0  0
   22.2247  -19.8151   -9.5498 C   0  0  0  0  0  0  0  0  0  0  0  0
   22.7691  -20.8424   -8.7005 N   0  0  0  0  0  0  0  0  0  0  0  0
   21.9059  -21.5996   -8.1007 N   0  0  0  0  0  0  0  0  0  0  0  0
   24.1608  -20.9883   -8.5586 C   0  0  0  0  0  0  0  0  0  0  0  0
   25.0029  -20.9899   -9.7229 C   0  0  0  0  0  0  0  0  0  0  0  0
   24.6348  -19.9844  -10.7438 C   0  0  0  0  0  0  0  0  0  0  0  0
   25.4118  -19.8941  -11.9848 C   0  0  1  0  0  0  0  0  0  0  0  0
   25.2032  -20.8478  -13.0803 N   0  0  0  0  0  0  0  0  0  0  0  0
   26.0573  -20.5218  -14.2247 C   0  0  0  0  0  0  0  0  0  0  0  0
   23.8382  -21.1749  -13.5202 O   0  0  0  0  0  0  0  0  0  0  0  0
   23.0345  -21.7867  -12.7730 N   0  0  0  0  0  0  0  0  0  0  0  0
   22.1119  -22.3782   -7.4685 C   0  0  0  0  0  0  0  0  0  0  0  0
   23.3623  -20.8265  -14.8216 C   0  0  0  0  0  0  0  0  0  0  0  0
   22.0102  -21.0148  -15.2203 O   0  0  0  0  0  0  0  0  0  0  0  0
   20.9578  -20.3119  -14.4792 O   0  0  0  0  0  0  0  0  0  0  0  0
  2  1  1  0
  3  2  2  0
  4  2  1  0
  5  4  1  0
  6  5  1  0
  7  8  1  0
  7  6  1  0
  8 10  1  0
  8  9  1  6
 10 11  2  0
 13 12  1  0
 13 14  2  0
 15 16  1  0
 15 13  1  0
 17 16  1  0
 18 17  1  0
 19 18  1  1
 19 21  1  0
 20 10  1  0
 20 19  1  0
 21 22  2  0
 23 24  1  0
 23 21  1  0
 25 26  1  0
 25 24  1  0
 27 25  2  0
M  END
$$$$
