YVA.pdb
     RDKit          3D

 25 25  0  0  1  0  0  0  0  0999 V2000
    7.1766  -23.4832   29.3690 O   0  0  0  0  0  0  0  0  0  0  0  0
    7.4859  -22.3135   28.6658 C   0  0  0  0  0  0  0  0  0  0  0  0
    8.7308  -21.7271   28.7496 C   0  0  0  0  0  0  0  0  0  0  0  0
    9.0303  -20.5669   28.0492 C   0  0  0  0  0  0  0  0  0  0  0  0
    8.0924  -19.9509   27.2382 C   0  0  0  0  0  0  0  0  0  0  0  0
    8.3969  -18.7087   26.4816 C   0  0  0  0  0  0  0  0  0  0  0  0
    8.3997  -18.9491   24.9890 C   0  0  2  0  0  0  0  0  0  0  0  0
    9.4003  -19.9020   24.6249 N   0  0  0  0  0  0  0  0  0  0  0  0
    8.7054  -17.5888   24.3731 C   0  0  0  0  0  0  0  0  0  0  0  0
    9.9065  -17.3212   24.1746 O   0  0  0  0  0  0  0  0  0  0  0  0
    6.8498  -20.5516   27.1653 C   0  0  0  0  0  0  0  0  0  0  0  0
    6.5481  -21.7050   27.8601 C   0  0  0  0  0  0  0  0  0  0  0  0
    7.1135  -13.6006   22.0693 C   0  0  0  0  0  0  0  0  0  0  0  0
    7.0354  -15.1006   22.3716 C   0  0  1  0  0  0  0  0  0  0  0  0
    7.9676  -15.6953   21.2917 C   0  0  0  0  0  0  0  0  0  0  0  0
    7.6631  -15.3656   23.7231 C   0  0  2  0  0  0  0  0  0  0  0  0
    7.6325  -16.7583   24.0824 N   0  0  0  0  0  0  0  0  0  0  0  0
    7.2295  -14.5763   24.8418 C   0  0  0  0  0  0  0  0  0  0  0  0
    6.0033  -14.7630   25.2311 O   0  0  0  0  0  0  0  0  0  0  0  0
    8.4310  -12.3192   27.6115 C   0  0  0  0  0  0  0  0  0  0  0  0
    7.3804  -12.8865   26.6793 C   0  0  2  0  0  0  0  0  0  0  0  0
    7.9570  -13.6197   25.5897 N   0  0  0  0  0  0  0  0  0  0  0  0
    6.4412  -11.8277   26.2356 C   0  0  0  0  0  0  0  0  0  0  0  0
    5.6411  -11.2615   27.0227 O   0  0  0  0  0  0  0  0  0  0  0  0
    6.4077  -11.4130   24.9130 O   0  0  0  0  0  0  0  0  0  0  0  0
  2  1  1  0
  3  2  2  0
  4  3  1  0
  5 11  1  0
  5  4  2  0
  6  7  1  0
  6  5  1  0
  7  8  1  1
  9  7  1  0
 10  9  2  0
 11 12  2  0
 12  2  1  0
 14 16  1  0
 14 13  1  6
 15 14  1  0
 16 17  1  1
 17  9  1  0
 18 22  1  0
 18 16  1  0
 19 18  2  0
 21 20  1  6
 21 23  1  0
 21 22  1  0
 23 25  1  0
 24 23  2  0
M  END
$$$$
