YVA.pdb
     RDKit          3D

 25 25  0  0  1  0  0  0  0  0999 V2000
    8.4842  -19.5323   29.2636 O   0  0  0  0  0  0  0  0  0  0  0  0
    8.1552  -19.3525   27.9154 C   0  0  0  0  0  0  0  0  0  0  0  0
    9.0512  -18.8112   27.0182 C   0  0  0  0  0  0  0  0  0  0  0  0
    8.7176  -18.6359   25.6824 C   0  0  0  0  0  0  0  0  0  0  0  0
    7.4727  -18.9971   25.1958 C   0  0  0  0  0  0  0  0  0  0  0  0
    7.0999  -18.8162   23.7688 C   0  0  0  0  0  0  0  0  0  0  0  0
    6.2362  -17.5920   23.5669 C   0  0  2  0  0  0  0  0  0  0  0  0
    5.8459  -17.4596   22.1987 N   0  0  0  0  0  0  0  0  0  0  0  0
    7.1129  -16.4192   23.9902 C   0  0  0  0  0  0  0  0  0  0  0  0
    8.0089  -16.0744   23.1954 O   0  0  0  0  0  0  0  0  0  0  0  0
    6.5867  -19.5381   26.1082 C   0  0  0  0  0  0  0  0  0  0  0  0
    6.9144  -19.7139   27.4371 C   0  0  0  0  0  0  0  0  0  0  0  0
    7.2988  -12.5733   27.0796 C   0  0  0  0  0  0  0  0  0  0  0  0
    6.5287  -13.6564   26.3171 C   0  0  1  0  0  0  0  0  0  0  0  0
    6.0006  -12.8741   25.0931 C   0  0  0  0  0  0  0  0  0  0  0  0
    7.5064  -14.6973   25.8155 C   0  0  2  0  0  0  0  0  0  0  0  0
    6.8492  -15.8291   25.2181 N   0  0  0  0  0  0  0  0  0  0  0  0
    8.5283  -15.1596   26.7124 C   0  0  0  0  0  0  0  0  0  0  0  0
    8.1144  -15.7564   27.7905 O   0  0  0  0  0  0  0  0  0  0  0  0
   12.2491  -15.7608   26.9792 C   0  0  0  0  0  0  0  0  0  0  0  0
   10.8418  -15.6467   27.5278 C   0  0  2  0  0  0  0  0  0  0  0  0
    9.9345  -15.0609   26.5839 N   0  0  0  0  0  0  0  0  0  0  0  0
   10.8414  -14.9566   28.8407 C   0  0  0  0  0  0  0  0  0  0  0  0
   10.3579  -13.8071   28.9994 O   0  0  0  0  0  0  0  0  0  0  0  0
   11.3833  -15.5617   29.9644 O   0  0  0  0  0  0  0  0  0  0  0  0
  2  1  1  0
  3  2  2  0
  4  3  1  0
  5 11  1  0
  5  4  2  0
  6  7  1  0
  6  5  1  0
  7  8  1  6
  9  7  1  0
 10  9  2  0
 11 12  2  0
 12  2  1  0
 14 16  1  0
 14 13  1  1
 15 14  1  0
 16 17  1  1
 17  9  1  0
 18 22  1  0
 18 16  1  0
 19 18  2  0
 21 20  1  6
 21 23  1  0
 21 22  1  0
 23 25  1  0
 24 23  2  0
M  END
$$$$
