YVA.pdb
     RDKit          3D

 25 25  0  0  1  0  0  0  0  0999 V2000
    6.0330  -19.6316   17.4578 O   0  0  0  0  0  0  0  0  0  0  0  0
    6.5572  -19.0103   18.5970 C   0  0  0  0  0  0  0  0  0  0  0  0
    7.8678  -19.1946   18.9829 C   0  0  0  0  0  0  0  0  0  0  0  0
    8.3806  -18.5750   20.1141 C   0  0  0  0  0  0  0  0  0  0  0  0
    7.5981  -17.7471   20.9010 C   0  0  0  0  0  0  0  0  0  0  0  0
    8.1317  -17.0762   22.1148 C   0  0  0  0  0  0  0  0  0  0  0  0
    8.3427  -15.5963   21.8891 C   0  0  2  0  0  0  0  0  0  0  0  0
    9.2907  -15.3669   20.8449 N   0  0  0  0  0  0  0  0  0  0  0  0
    8.8705  -15.0681   23.2179 C   0  0  0  0  0  0  0  0  0  0  0  0
   10.1085  -15.0475   23.3602 O   0  0  0  0  0  0  0  0  0  0  0  0
    6.2869  -17.5732   20.5001 C   0  0  0  0  0  0  0  0  0  0  0  0
    5.7733  -18.1873   19.3762 C   0  0  0  0  0  0  0  0  0  0  0  0
    7.4287  -12.6019   27.2940 C   0  0  0  0  0  0  0  0  0  0  0  0
    7.0583  -13.2008   25.9333 C   0  0  1  0  0  0  0  0  0  0  0  0
    7.0295  -11.9486   25.0278 C   0  0  0  0  0  0  0  0  0  0  0  0
    8.1888  -14.0892   25.4604 C   0  0  2  0  0  0  0  0  0  0  0  0
    7.9404  -14.6536   24.1606 N   0  0  0  0  0  0  0  0  0  0  0  0
    8.6609  -15.1186   26.3435 C   0  0  0  0  0  0  0  0  0  0  0  0
    7.7761  -15.9890   26.7302 O   0  0  0  0  0  0  0  0  0  0  0  0
   11.4793  -17.2167   27.2117 C   0  0  0  0  0  0  0  0  0  0  0  0
   10.2967  -16.4174   27.7188 C   0  0  2  0  0  0  0  0  0  0  0  0
    9.9659  -15.3237   26.8519 N   0  0  0  0  0  0  0  0  0  0  0  0
   10.5058  -16.0012   29.1270 C   0  0  0  0  0  0  0  0  0  0  0  0
   10.4908  -14.7961   29.4843 O   0  0  0  0  0  0  0  0  0  0  0  0
   10.7298  -16.9402   30.1222 O   0  0  0  0  0  0  0  0  0  0  0  0
  2  1  1  0
  3  2  2  0
  4  3  1  0
  5 11  1  0
  5  4  2  0
  6  7  1  0
  6  5  1  0
  7  8  1  6
  9  7  1  0
 10  9  2  0
 11 12  2  0
 12  2  1  0
 14 16  1  0
 14 13  1  1
 15 14  1  0
 16 17  1  6
 17  9  1  0
 18 22  1  0
 18 16  1  0
 19 18  2  0
 21 20  1  6
 21 23  1  0
 21 22  1  0
 23 25  1  0
 24 23  2  0
M  END
$$$$
