YVA.pdb
     RDKit          3D

 25 25  0  0  1  0  0  0  0  0999 V2000
    6.0360  -10.2522   26.6924 O   0  0  0  0  0  0  0  0  0  0  0  0
    6.3487  -11.6130   26.5992 C   0  0  0  0  0  0  0  0  0  0  0  0
    7.5127  -12.0484   26.0022 C   0  0  0  0  0  0  0  0  0  0  0  0
    7.8161  -13.3998   25.9134 C   0  0  0  0  0  0  0  0  0  0  0  0
    6.9634  -14.3659   26.4200 C   0  0  0  0  0  0  0  0  0  0  0  0
    7.2734  -15.8166   26.3333 C   0  0  0  0  0  0  0  0  0  0  0  0
    6.4415  -16.5041   25.2746 C   0  0  2  0  0  0  0  0  0  0  0  0
    5.9169  -17.7421   25.7584 N   0  0  0  0  0  0  0  0  0  0  0  0
    7.4022  -16.7453   24.1160 C   0  0  0  0  0  0  0  0  0  0  0  0
    7.8562  -17.8998   23.9962 O   0  0  0  0  0  0  0  0  0  0  0  0
    5.8012  -13.9125   27.0151 C   0  0  0  0  0  0  0  0  0  0  0  0
    5.4959  -12.5698   27.1053 C   0  0  0  0  0  0  0  0  0  0  0  0
    8.9014  -14.5751   19.8783 C   0  0  0  0  0  0  0  0  0  0  0  0
    8.1540  -14.4471   21.2097 C   0  0  1  0  0  0  0  0  0  0  0  0
    6.6775  -14.4884   20.7549 C   0  0  0  0  0  0  0  0  0  0  0  0
    8.4169  -15.6820   22.0445 C   0  0  2  0  0  0  0  0  0  0  0  0
    7.6962  -15.6701   23.2895 N   0  0  0  0  0  0  0  0  0  0  0  0
    9.7803  -16.0618   22.2878 C   0  0  0  0  0  0  0  0  0  0  0  0
   10.4812  -15.2405   23.0118 O   0  0  0  0  0  0  0  0  0  0  0  0
   12.2045  -18.9199   22.1727 C   0  0  0  0  0  0  0  0  0  0  0  0
   11.8584  -17.4455   22.1415 C   0  0  2  0  0  0  0  0  0  0  0  0
   10.4725  -17.2168   21.8513 N   0  0  0  0  0  0  0  0  0  0  0  0
   12.7720  -16.7079   21.2353 C   0  0  0  0  0  0  0  0  0  0  0  0
   12.4958  -16.4903   20.0284 O   0  0  0  0  0  0  0  0  0  0  0  0
   13.9876  -16.2206   21.6907 O   0  0  0  0  0  0  0  0  0  0  0  0
  2  1  1  0
  3  2  2  0
  4  3  1  0
  5 11  1  0
  5  4  2  0
  6  7  1  0
  6  5  1  0
  7  8  1  1
  9  7  1  0
 10  9  2  0
 11 12  2  0
 12  2  1  0
 14 16  1  0
 14 13  1  6
 15 14  1  0
 16 17  1  1
 17  9  1  0
 18 22  1  0
 18 16  1  0
 19 18  2  0
 21 20  1  6
 21 23  1  0
 21 22  1  0
 23 25  1  0
 24 23  2  0
M  END
$$$$
