YVA.pdb
     RDKit          3D

 25 25  0  0  1  0  0  0  0  0999 V2000
    5.8843  -10.2497   28.3675 O   0  0  0  0  0  0  0  0  0  0  0  0
    6.3549  -11.3195   27.5978 C   0  0  0  0  0  0  0  0  0  0  0  0
    7.1411  -12.3120   28.1430 C   0  0  0  0  0  0  0  0  0  0  0  0
    7.6042  -13.3700   27.3733 C   0  0  0  0  0  0  0  0  0  0  0  0
    7.2961  -13.4725   26.0273 C   0  0  0  0  0  0  0  0  0  0  0  0
    7.7837  -14.5987   25.1893 C   0  0  0  0  0  0  0  0  0  0  0  0
    6.6406  -15.3849   24.5888 C   0  0  2  0  0  0  0  0  0  0  0  0
    6.1931  -16.4045   25.4844 N   0  0  0  0  0  0  0  0  0  0  0  0
    7.2134  -16.0014   23.3179 C   0  0  0  0  0  0  0  0  0  0  0  0
    7.4253  -17.2295   23.3376 O   0  0  0  0  0  0  0  0  0  0  0  0
    6.5072  -12.4694   25.4966 C   0  0  0  0  0  0  0  0  0  0  0  0
    6.0448  -11.4159   26.2586 C   0  0  0  0  0  0  0  0  0  0  0  0
    8.5957  -13.2228   20.2114 C   0  0  0  0  0  0  0  0  0  0  0  0
    7.6833  -14.4171   19.9135 C   0  0  1  0  0  0  0  0  0  0  0  0
    8.2298  -14.9079   18.5536 C   0  0  0  0  0  0  0  0  0  0  0  0
    7.9410  -15.5028   20.9360 C   0  0  2  0  0  0  0  0  0  0  0  0
    7.4535  -15.1558   22.2442 N   0  0  0  0  0  0  0  0  0  0  0  0
    9.2722  -16.0297   21.0489 C   0  0  0  0  0  0  0  0  0  0  0  0
   10.0837  -15.3699   21.8210 O   0  0  0  0  0  0  0  0  0  0  0  0
   11.3108  -19.1163   20.6629 C   0  0  0  0  0  0  0  0  0  0  0  0
   11.1760  -17.6076   20.6745 C   0  0  2  0  0  0  0  0  0  0  0  0
    9.8280  -17.1788   20.4371 N   0  0  0  0  0  0  0  0  0  0  0  0
   12.1560  -16.9830   19.7528 C   0  0  0  0  0  0  0  0  0  0  0  0
   11.8443  -16.5917   18.5996 O   0  0  0  0  0  0  0  0  0  0  0  0
   13.4773  -16.8027   20.1327 O   0  0  0  0  0  0  0  0  0  0  0  0
  2  1  1  0
  3  2  2  0
  4  3  1  0
  5 11  1  0
  5  4  2  0
  6  7  1  0
  6  5  1  0
  7  8  1  1
  9  7  1  0
 10  9  2  0
 11 12  2  0
 12  2  1  0
 14 16  1  0
 14 13  1  1
 15 14  1  0
 16 17  1  1
 17  9  1  0
 18 22  1  0
 18 16  1  0
 19 18  2  0
 21 20  1  6
 21 23  1  0
 21 22  1  0
 23 25  1  0
 24 23  2  0
M  END
$$$$
