YVA.pdb
     RDKit          3D

 25 25  0  0  1  0  0  0  0  0999 V2000
    6.6562  -10.6178   27.3259 O   0  0  0  0  0  0  0  0  0  0  0  0
    6.8489  -11.9841   27.0924 C   0  0  0  0  0  0  0  0  0  0  0  0
    5.8012  -12.8793   27.1313 C   0  0  0  0  0  0  0  0  0  0  0  0
    6.0001  -14.2331   26.8987 C   0  0  0  0  0  0  0  0  0  0  0  0
    7.2575  -14.7402   26.6182 C   0  0  0  0  0  0  0  0  0  0  0  0
    7.4875  -16.1865   26.3666 C   0  0  0  0  0  0  0  0  0  0  0  0
    6.5387  -16.7306   25.3229 C   0  0  2  0  0  0  0  0  0  0  0  0
    5.9398  -17.9518   25.7611 N   0  0  0  0  0  0  0  0  0  0  0  0
    7.4050  -16.9699   24.0918 C   0  0  0  0  0  0  0  0  0  0  0  0
    7.7915  -18.1389   23.8978 O   0  0  0  0  0  0  0  0  0  0  0  0
    8.2965  -13.8294   26.5831 C   0  0  0  0  0  0  0  0  0  0  0  0
    8.1029  -12.4827   26.8138 C   0  0  0  0  0  0  0  0  0  0  0  0
    8.8788  -14.7757   19.8717 C   0  0  0  0  0  0  0  0  0  0  0  0
    8.1210  -14.6584   21.1981 C   0  0  1  0  0  0  0  0  0  0  0  0
    6.6507  -14.7955   20.7418 C   0  0  0  0  0  0  0  0  0  0  0  0
    8.4514  -15.8554   22.0634 C   0  0  2  0  0  0  0  0  0  0  0  0
    7.6953  -15.8774   23.2872 N   0  0  0  0  0  0  0  0  0  0  0  0
    9.8318  -16.1263   22.3525 C   0  0  0  0  0  0  0  0  0  0  0  0
   10.4399  -15.2550   23.1014 O   0  0  0  0  0  0  0  0  0  0  0  0
   12.4796  -18.8043   22.1990 C   0  0  0  0  0  0  0  0  0  0  0  0
   11.9993  -17.3737   22.3310 C   0  0  2  0  0  0  0  0  0  0  0  0
   10.6285  -17.2204   21.9377 N   0  0  0  0  0  0  0  0  0  0  0  0
   12.9143  -16.4427   21.6267 C   0  0  0  0  0  0  0  0  0  0  0  0
   12.6931  -16.0325   20.4592 O   0  0  0  0  0  0  0  0  0  0  0  0
   14.0693  -15.9796   22.2381 O   0  0  0  0  0  0  0  0  0  0  0  0
  2  1  1  0
  3  2  2  0
  4  3  1  0
  5 11  1  0
  5  4  2  0
  6  7  1  0
  6  5  1  0
  7  8  1  1
  9  7  1  0
 10  9  2  0
 11 12  2  0
 12  2  1  0
 14 16  1  0
 14 13  1  6
 15 14  1  0
 16 17  1  1
 17  9  1  0
 18 22  1  0
 18 16  1  0
 19 18  2  0
 21 20  1  6
 21 23  1  0
 21 22  1  0
 23 25  1  0
 24 23  2  0
M  END
$$$$
