YVA.pdb
     RDKit          3D

 25 25  0  0  1  0  0  0  0  0999 V2000
    6.9987  -13.5062   15.9112 O   0  0  0  0  0  0  0  0  0  0  0  0
    7.1329  -13.8033   17.2721 C   0  0  0  0  0  0  0  0  0  0  0  0
    7.4301  -12.8276   18.1996 C   0  0  0  0  0  0  0  0  0  0  0  0
    7.5616  -13.1300   19.5478 C   0  0  0  0  0  0  0  0  0  0  0  0
    7.4000  -14.4226   20.0168 C   0  0  0  0  0  0  0  0  0  0  0  0
    7.5373  -14.7630   21.4567 C   0  0  0  0  0  0  0  0  0  0  0  0
    8.9508  -14.5511   21.9495 C   0  0  2  0  0  0  0  0  0  0  0  0
    9.8757  -15.3567   21.2165 N   0  0  0  0  0  0  0  0  0  0  0  0
    8.9217  -14.9673   23.4155 C   0  0  0  0  0  0  0  0  0  0  0  0
    9.7406  -15.8390   23.7663 O   0  0  0  0  0  0  0  0  0  0  0  0
    7.1025  -15.3885   19.0740 C   0  0  0  0  0  0  0  0  0  0  0  0
    6.9709  -15.0920   17.7328 C   0  0  0  0  0  0  0  0  0  0  0  0
    7.0615  -13.2272   27.7282 C   0  0  0  0  0  0  0  0  0  0  0  0
    6.9010  -13.3710   26.2113 C   0  0  1  0  0  0  0  0  0  0  0  0
    7.1398  -11.9238   25.7240 C   0  0  0  0  0  0  0  0  0  0  0  0
    8.0242  -14.2321   25.6751 C   0  0  2  0  0  0  0  0  0  0  0  0
    7.9937  -14.3494   24.2415 N   0  0  0  0  0  0  0  0  0  0  0  0
    8.2222  -15.5313   26.2543 C   0  0  0  0  0  0  0  0  0  0  0  0
    7.1527  -16.2514   26.4200 O   0  0  0  0  0  0  0  0  0  0  0  0
   10.1981  -18.4693   26.5716 C   0  0  0  0  0  0  0  0  0  0  0  0
    9.4613  -17.4034   27.3561 C   0  0  2  0  0  0  0  0  0  0  0  0
    9.4286  -16.1451   26.6685 N   0  0  0  0  0  0  0  0  0  0  0  0
    9.9963  -17.2989   28.7356 C   0  0  0  0  0  0  0  0  0  0  0  0
   10.0953  -18.2928   29.4988 O   0  0  0  0  0  0  0  0  0  0  0  0
   10.4155  -16.0802   29.2472 O   0  0  0  0  0  0  0  0  0  0  0  0
  2  1  1  0
  3  2  2  0
  4  3  1  0
  5 11  1  0
  5  4  2  0
  6  7  1  0
  6  5  1  0
  7  8  1  6
  9  7  1  0
 10  9  2  0
 11 12  2  0
 12  2  1  0
 14 16  1  0
 14 13  1  1
 15 14  1  0
 16 17  1  6
 17  9  1  0
 18 22  1  0
 18 16  1  0
 19 18  2  0
 21 20  1  6
 21 23  1  0
 21 22  1  0
 23 25  1  0
 24 23  2  0
M  END
$$$$
