YYV.pdb
     RDKit          3D

 32 33  0  0  1  0  0  0  0  0999 V2000
   29.3918  -19.6760   -2.7911 O   0  0  0  0  0  0  0  0  0  0  0  0
   28.7069  -19.9434   -3.9568 C   0  0  0  0  0  0  0  0  0  0  0  0
   29.4239  -20.2760   -5.1077 C   0  0  0  0  0  0  0  0  0  0  0  0
   28.7537  -20.5515   -6.3022 C   0  0  0  0  0  0  0  0  0  0  0  0
   27.3817  -20.4937   -6.3398 C   0  0  0  0  0  0  0  0  0  0  0  0
   26.6326  -20.7767   -7.5780 C   0  0  0  0  0  0  0  0  0  0  0  0
   26.9310  -19.6603   -8.5559 C   0  0  2  0  0  0  0  0  0  0  0  0
   26.4839  -18.4217   -7.9508 N   0  0  0  0  0  0  0  0  0  0  0  0
   26.2679  -19.8830   -9.8737 C   0  0  0  0  0  0  0  0  0  0  0  0
   25.0534  -19.6038  -10.0442 O   0  0  0  0  0  0  0  0  0  0  0  0
   26.7071  -20.1635   -5.1898 C   0  0  0  0  0  0  0  0  0  0  0  0
   27.3320  -19.8880   -4.0043 C   0  0  0  0  0  0  0  0  0  0  0  0
   27.3108  -18.8236  -18.3821 O   0  0  0  0  0  0  0  0  0  0  0  0
   27.5042  -19.1996  -17.0748 C   0  0  0  0  0  0  0  0  0  0  0  0
   27.3905  -20.5372  -16.7074 C   0  0  0  0  0  0  0  0  0  0  0  0
   27.5851  -20.9115  -15.3949 C   0  0  0  0  0  0  0  0  0  0  0  0
   27.8898  -19.9363  -14.4785 C   0  0  0  0  0  0  0  0  0  0  0  0
   28.1017  -20.3282  -13.0609 C   0  0  0  0  0  0  0  0  0  0  0  0
   26.8036  -20.1020  -12.3210 C   0  0  2  0  0  0  0  0  0  0  0  0
   27.0514  -20.4199  -10.9286 N   0  0  0  0  0  0  0  0  0  0  0  0
   25.7249  -21.0041  -12.7889 C   0  0  0  0  0  0  0  0  0  0  0  0
   25.7636  -22.2453  -12.5959 O   0  0  0  0  0  0  0  0  0  0  0  0
   28.0055  -18.6057  -14.8304 C   0  0  0  0  0  0  0  0  0  0  0  0
   27.8118  -18.2465  -16.1267 C   0  0  0  0  0  0  0  0  0  0  0  0
   21.6475  -19.7643  -13.6317 C   0  0  0  0  0  0  0  0  0  0  0  0
   22.1984  -21.1149  -13.3016 C   0  0  2  0  0  0  0  0  0  0  0  0
   22.3007  -21.3719  -11.8243 C   0  0  0  0  0  0  0  0  0  0  0  0
   23.5390  -21.3787  -14.0000 C   0  0  2  0  0  0  0  0  0  0  0  0
   24.5751  -20.5026  -13.4902 N   0  0  0  0  0  0  0  0  0  0  0  0
   23.3882  -21.2570  -15.4694 C   0  0  0  0  0  0  0  0  0  0  0  0
   22.6238  -22.2122  -16.1233 O   0  0  0  0  0  0  0  0  0  0  0  0
   23.9069  -20.3461  -16.1608 O   0  0  0  0  0  0  0  0  0  0  0  0
  2  1  1  0
  3  2  2  0
  4  3  1  0
  5  4  2  0
  5 11  1  0
  6  5  1  0
  7  8  1  1
  7  9  1  0
  7  6  1  0
  9 20  1  0
 10  9  2  0
 11 12  2  0
 12  2  1  0
 14 13  1  0
 15 14  2  0
 16 15  1  0
 17 16  2  0
 17 23  1  0
 18 17  1  0
 19 18  1  6
 20 19  1  0
 21 29  1  0
 21 19  1  0
 22 21  2  0
 23 24  2  0
 24 14  1  0
 26 25  1  1
 26 27  1  0
 26 28  1  0
 28 29  1  1
 28 30  1  0
 30 31  1  0
 32 30  2  0
M  END
$$$$
