YYV.pdb
     RDKit          3D

 32 33  0  0  1  0  0  0  0  0999 V2000
   16.6973   -4.1360  -22.0723 O   0  0  0  0  0  0  0  0  0  0  0  0
   16.6734   -4.7077  -20.8185 C   0  0  0  0  0  0  0  0  0  0  0  0
   17.6287   -4.3233  -19.8757 C   0  0  0  0  0  0  0  0  0  0  0  0
   17.6264   -4.8875  -18.5976 C   0  0  0  0  0  0  0  0  0  0  0  0
   16.6772   -5.8253  -18.2712 C   0  0  0  0  0  0  0  0  0  0  0  0
   16.6366   -6.4473  -16.9348 C   0  0  0  0  0  0  0  0  0  0  0  0
   18.0188   -6.9917  -16.6438 C   0  0  2  0  0  0  0  0  0  0  0  0
   18.2228   -8.1409  -17.5027 N   0  0  0  0  0  0  0  0  0  0  0  0
   18.1803   -7.3608  -15.2073 C   0  0  0  0  0  0  0  0  0  0  0  0
   17.7067   -8.4352  -14.7563 O   0  0  0  0  0  0  0  0  0  0  0  0
   15.7519   -6.1810  -19.2221 C   0  0  0  0  0  0  0  0  0  0  0  0
   15.7260   -5.6483  -20.4820 C   0  0  0  0  0  0  0  0  0  0  0  0
   23.4076  -10.6030  -15.2226 O   0  0  0  0  0  0  0  0  0  0  0  0
   22.7132   -9.5899  -14.6066 C   0  0  0  0  0  0  0  0  0  0  0  0
   22.5318   -8.3715  -15.2545 C   0  0  0  0  0  0  0  0  0  0  0  0
   21.8346   -7.3569  -14.6339 C   0  0  0  0  0  0  0  0  0  0  0  0
   21.3341   -7.5855  -13.3766 C   0  0  0  0  0  0  0  0  0  0  0  0
   20.5810   -6.4990  -12.6982 C   0  0  0  0  0  0  0  0  0  0  0  0
   19.1099   -6.7254  -12.9586 C   0  0  2  0  0  0  0  0  0  0  0  0
   18.8854   -6.4607  -14.3660 N   0  0  0  0  0  0  0  0  0  0  0  0
   18.2528   -5.7869  -12.1964 C   0  0  0  0  0  0  0  0  0  0  0  0
   18.2902   -4.5454  -12.3872 O   0  0  0  0  0  0  0  0  0  0  0  0
   21.5074   -8.7900  -12.7232 C   0  0  0  0  0  0  0  0  0  0  0  0
   22.1960   -9.7842  -13.3430 C   0  0  0  0  0  0  0  0  0  0  0  0
   14.5127   -6.0554  -11.8728 C   0  0  0  0  0  0  0  0  0  0  0  0
   15.0134   -5.8331  -10.4812 C   0  0  2  0  0  0  0  0  0  0  0  0
   14.1319   -4.9268   -9.6685 C   0  0  0  0  0  0  0  0  0  0  0  0
   16.4689   -5.3476  -10.4614 C   0  0  2  0  0  0  0  0  0  0  0  0
   17.3314   -6.2516  -11.1961 N   0  0  0  0  0  0  0  0  0  0  0  0
   16.9306   -5.1574   -9.0660 C   0  0  0  0  0  0  0  0  0  0  0  0
   16.4839   -4.0356   -8.3831 O   0  0  0  0  0  0  0  0  0  0  0  0
   17.6995   -5.9452   -8.4617 O   0  0  0  0  0  0  0  0  0  0  0  0
  2  1  1  0
  3  2  2  0
  4  3  1  0
  5  4  2  0
  5 11  1  0
  6  5  1  0
  7  8  1  6
  7  9  1  0
  7  6  1  0
  9 20  1  0
 10  9  2  0
 11 12  2  0
 12  2  1  0
 14 13  1  0
 15 14  2  0
 16 15  1  0
 17 16  2  0
 17 23  1  0
 18 17  1  0
 19 18  1  1
 20 19  1  0
 21 29  1  0
 21 19  1  0
 22 21  2  0
 23 24  2  0
 24 14  1  0
 26 25  1  6
 26 27  1  0
 26 28  1  0
 28 29  1  1
 28 30  1  0
 30 31  1  0
 32 30  2  0
M  END
$$$$
