YYV.pdb
     RDKit          3D

 32 33  0  0  1  0  0  0  0  0999 V2000
   27.2982  -16.9684  -22.3369 O   0  0  0  0  0  0  0  0  0  0  0  0
   26.6980  -17.7435  -21.3681 C   0  0  0  0  0  0  0  0  0  0  0  0
   25.9529  -18.8597  -21.7530 C   0  0  0  0  0  0  0  0  0  0  0  0
   25.3345  -19.6619  -20.7908 C   0  0  0  0  0  0  0  0  0  0  0  0
   25.4628  -19.3469  -19.4599 C   0  0  0  0  0  0  0  0  0  0  0  0
   24.8277  -20.1648  -18.4101 C   0  0  0  0  0  0  0  0  0  0  0  0
   25.9238  -20.9425  -17.7134 C   0  0  2  0  0  0  0  0  0  0  0  0
   26.2789  -22.0557  -18.5705 N   0  0  0  0  0  0  0  0  0  0  0  0
   25.4974  -21.4187  -16.3653 C   0  0  0  0  0  0  0  0  0  0  0  0
   24.6024  -22.2934  -16.2394 O   0  0  0  0  0  0  0  0  0  0  0  0
   26.2028  -18.2421  -19.1155 C   0  0  0  0  0  0  0  0  0  0  0  0
   26.8210  -17.4358  -20.0318 C   0  0  0  0  0  0  0  0  0  0  0  0
   24.7506  -20.8397   -7.7405 O   0  0  0  0  0  0  0  0  0  0  0  0
   25.2414  -20.7655   -9.0217 C   0  0  0  0  0  0  0  0  0  0  0  0
   25.3774  -19.5302   -9.6483 C   0  0  0  0  0  0  0  0  0  0  0  0
   25.8701  -19.4589  -10.9339 C   0  0  0  0  0  0  0  0  0  0  0  0
   26.2161  -20.6281  -11.5641 C   0  0  0  0  0  0  0  0  0  0  0  0
   26.7482  -20.5632  -12.9499 C   0  0  0  0  0  0  0  0  0  0  0  0
   25.6939  -21.1248  -13.8754 C   0  0  2  0  0  0  0  0  0  0  0  0
   26.1340  -20.8530  -15.2296 N   0  0  0  0  0  0  0  0  0  0  0  0
   24.3810  -20.4595  -13.7018 C   0  0  0  0  0  0  0  0  0  0  0  0
   24.2275  -19.2274  -13.8956 O   0  0  0  0  0  0  0  0  0  0  0  0
   26.0858  -21.8599  -10.9531 C   0  0  0  0  0  0  0  0  0  0  0  0
   25.5992  -21.9201   -9.6857 C   0  0  0  0  0  0  0  0  0  0  0  0
   20.5920  -22.2029  -14.3212 C   0  0  0  0  0  0  0  0  0  0  0  0
   20.9430  -20.7591  -14.1510 C   0  0  2  0  0  0  0  0  0  0  0  0
   21.4121  -20.1063  -15.4209 C   0  0  0  0  0  0  0  0  0  0  0  0
   21.9506  -20.5395  -13.0148 C   0  0  2  0  0  0  0  0  0  0  0  0
   23.2121  -21.1934  -13.3014 N   0  0  0  0  0  0  0  0  0  0  0  0
   21.3782  -20.9881  -11.7234 C   0  0  0  0  0  0  0  0  0  0  0  0
   20.3243  -20.2580  -11.1936 O   0  0  0  0  0  0  0  0  0  0  0  0
   21.7846  -21.9855  -11.0778 O   0  0  0  0  0  0  0  0  0  0  0  0
  2  1  1  0
  3  2  2  0
  4  3  1  0
  5  4  2  0
  5 11  1  0
  6  5  1  0
  7  8  1  6
  7  9  1  0
  7  6  1  0
  9 20  1  0
 10  9  2  0
 11 12  2  0
 12  2  1  0
 14 13  1  0
 15 14  2  0
 16 15  1  0
 17 16  2  0
 17 23  1  0
 18 17  1  0
 19 18  1  1
 20 19  1  0
 21 29  1  0
 21 19  1  0
 22 21  2  0
 23 24  2  0
 24 14  1  0
 26 25  1  6
 26 27  1  0
 26 28  1  0
 28 29  1  6
 28 30  1  0
 30 31  1  0
 32 30  2  0
M  END
$$$$
