YYV.pdb
     RDKit          3D

 32 33  0  0  1  0  0  0  0  0999 V2000
   27.5549  -13.1929  -22.1994 O   0  0  0  0  0  0  0  0  0  0  0  0
   27.1489  -14.1948  -21.3446 C   0  0  0  0  0  0  0  0  0  0  0  0
   27.3443  -14.0396  -19.9709 C   0  0  0  0  0  0  0  0  0  0  0  0
   26.9418  -15.0402  -19.0829 C   0  0  0  0  0  0  0  0  0  0  0  0
   26.3511  -16.1814  -19.5685 C   0  0  0  0  0  0  0  0  0  0  0  0
   25.9105  -17.2634  -18.6687 C   0  0  0  0  0  0  0  0  0  0  0  0
   27.1517  -17.9585  -18.1508 C   0  0  2  0  0  0  0  0  0  0  0  0
   27.7811  -18.6195  -19.2764 N   0  0  0  0  0  0  0  0  0  0  0  0
   26.8323  -18.9330  -17.0672 C   0  0  0  0  0  0  0  0  0  0  0  0
   26.5093  -20.1186  -17.3353 O   0  0  0  0  0  0  0  0  0  0  0  0
   26.1737  -16.3022  -20.9252 C   0  0  0  0  0  0  0  0  0  0  0  0
   26.5560  -15.3421  -21.8218 C   0  0  0  0  0  0  0  0  0  0  0  0
   25.5035  -21.6437   -8.9311 O   0  0  0  0  0  0  0  0  0  0  0  0
   25.9382  -20.9398  -10.0280 C   0  0  0  0  0  0  0  0  0  0  0  0
   25.5025  -19.6349  -10.2396 C   0  0  0  0  0  0  0  0  0  0  0  0
   25.9404  -18.9311  -11.3411 C   0  0  0  0  0  0  0  0  0  0  0  0
   26.8060  -19.5506  -12.2074 C   0  0  0  0  0  0  0  0  0  0  0  0
   27.2845  -18.8015  -13.3982 C   0  0  0  0  0  0  0  0  0  0  0  0
   26.5242  -19.3119  -14.6002 C   0  0  2  0  0  0  0  0  0  0  0  0
   26.9046  -18.4792  -15.7241 N   0  0  0  0  0  0  0  0  0  0  0  0
   25.0574  -19.1791  -14.4359 C   0  0  0  0  0  0  0  0  0  0  0  0
   24.4991  -18.0599  -14.3138 O   0  0  0  0  0  0  0  0  0  0  0  0
   27.2457  -20.8448  -12.0086 C   0  0  0  0  0  0  0  0  0  0  0  0
   26.8085  -21.5306  -10.9199 C   0  0  0  0  0  0  0  0  0  0  0  0
   20.5329  -20.8190  -15.2459 C   0  0  0  0  0  0  0  0  0  0  0  0
   22.0172  -20.9578  -15.3661 C   0  0  2  0  0  0  0  0  0  0  0  0
   22.4764  -22.3857  -15.4602 C   0  0  0  0  0  0  0  0  0  0  0  0
   22.7595  -20.2136  -14.2482 C   0  0  2  0  0  0  0  0  0  0  0  0
   24.1956  -20.3289  -14.4078 N   0  0  0  0  0  0  0  0  0  0  0  0
   22.3120  -20.6973  -12.9206 C   0  0  0  0  0  0  0  0  0  0  0  0
   21.2991  -19.9957  -12.2834 O   0  0  0  0  0  0  0  0  0  0  0  0
   22.7897  -21.7003  -12.3352 O   0  0  0  0  0  0  0  0  0  0  0  0
  2  1  1  0
  3  2  2  0
  4  3  1  0
  5  4  2  0
  5 11  1  0
  6  5  1  0
  7  8  1  6
  7  9  1  0
  7  6  1  0
  9 20  1  0
 10  9  2  0
 11 12  2  0
 12  2  1  0
 14 13  1  0
 15 14  2  0
 16 15  1  0
 17 16  2  0
 17 23  1  0
 18 17  1  0
 19 18  1  1
 20 19  1  0
 21 29  1  0
 21 19  1  0
 22 21  2  0
 23 24  2  0
 24 14  1  0
 26 25  1  1
 26 27  1  0
 26 28  1  0
 28 29  1  6
 28 30  1  0
 30 31  1  0
 32 30  2  0
M  END
$$$$
