YYV.pdb
     RDKit          3D

 32 33  0  0  1  0  0  0  0  0999 V2000
   19.2542   -7.2989  -22.9333 O   0  0  0  0  0  0  0  0  0  0  0  0
   20.2747   -7.1077  -22.0270 C   0  0  0  0  0  0  0  0  0  0  0  0
   21.4890   -7.7696  -22.2179 C   0  0  0  0  0  0  0  0  0  0  0  0
   22.5394   -7.5929  -21.3138 C   0  0  0  0  0  0  0  0  0  0  0  0
   22.3720   -6.7624  -20.2325 C   0  0  0  0  0  0  0  0  0  0  0  0
   23.4527   -6.5460  -19.2529 C   0  0  0  0  0  0  0  0  0  0  0  0
   23.5095   -7.7674  -18.3604 C   0  0  2  0  0  0  0  0  0  0  0  0
   23.7402   -8.9172  -19.2117 N   0  0  0  0  0  0  0  0  0  0  0  0
   22.2591   -7.9327  -17.5636 C   0  0  0  0  0  0  0  0  0  0  0  0
   21.3620   -8.7375  -17.9235 O   0  0  0  0  0  0  0  0  0  0  0  0
   21.1648   -6.1264  -20.0743 C   0  0  0  0  0  0  0  0  0  0  0  0
   20.1164   -6.2773  -20.9403 C   0  0  0  0  0  0  0  0  0  0  0  0
   22.8767  -13.1234  -14.4889 O   0  0  0  0  0  0  0  0  0  0  0  0
   22.5376  -11.7946  -14.4046 C   0  0  0  0  0  0  0  0  0  0  0  0
   21.2395  -11.4241  -14.0655 C   0  0  0  0  0  0  0  0  0  0  0  0
   20.9022  -10.0900  -13.9817 C   0  0  0  0  0  0  0  0  0  0  0  0
   21.8737   -9.1556  -14.2397 C   0  0  0  0  0  0  0  0  0  0  0  0
   21.5214   -7.7146  -14.1523 C   0  0  0  0  0  0  0  0  0  0  0  0
   20.9779   -7.2905  -15.4970 C   0  0  2  0  0  0  0  0  0  0  0  0
   22.1143   -7.1528  -16.3863 N   0  0  0  0  0  0  0  0  0  0  0  0
   20.3056   -5.9710  -15.4411 C   0  0  0  0  0  0  0  0  0  0  0  0
   20.8957   -4.9083  -15.7601 O   0  0  0  0  0  0  0  0  0  0  0  0
   23.1652   -9.5104  -14.5771 C   0  0  0  0  0  0  0  0  0  0  0  0
   23.4882  -10.8280  -14.6572 C   0  0  0  0  0  0  0  0  0  0  0  0
   17.5939   -2.6232  -16.4991 C   0  0  0  0  0  0  0  0  0  0  0  0
   18.2205   -3.9807  -16.4623 C   0  0  2  0  0  0  0  0  0  0  0  0
   17.6089   -4.9458  -17.4387 C   0  0  0  0  0  0  0  0  0  0  0  0
   18.2402   -4.5698  -15.0456 C   0  0  2  0  0  0  0  0  0  0  0  0
   18.9386   -5.8397  -15.0174 N   0  0  0  0  0  0  0  0  0  0  0  0
   16.8609   -4.6876  -14.5163 C   0  0  0  0  0  0  0  0  0  0  0  0
   16.2517   -3.5383  -14.0343 O   0  0  0  0  0  0  0  0  0  0  0  0
   16.2078   -5.7594  -14.4757 O   0  0  0  0  0  0  0  0  0  0  0  0
  2  1  1  0
  3  2  2  0
  4  3  1  0
  5  4  2  0
  5 11  1  0
  6  5  1  0
  7  8  1  6
  7  9  1  0
  7  6  1  0
  9 20  1  0
 10  9  2  0
 11 12  2  0
 12  2  1  0
 14 13  1  0
 15 14  2  0
 16 15  1  0
 17 16  2  0
 17 23  1  0
 18 17  1  0
 19 18  1  1
 20 19  1  0
 21 29  1  0
 21 19  1  0
 22 21  2  0
 23 24  2  0
 24 14  1  0
 26 25  1  1
 26 27  1  0
 26 28  1  0
 28 29  1  6
 28 30  1  0
 30 31  1  0
 32 30  2  0
M  END
$$$$
