YYV.pdb
     RDKit          3D

 32 33  0  0  1  0  0  0  0  0999 V2000
   16.8184  -24.3376  -12.2477 O   0  0  0  0  0  0  0  0  0  0  0  0
   17.9691  -23.6310  -12.5236 C   0  0  0  0  0  0  0  0  0  0  0  0
   19.1809  -24.3161  -12.6298 C   0  0  0  0  0  0  0  0  0  0  0  0
   20.3616  -23.6234  -12.9087 C   0  0  0  0  0  0  0  0  0  0  0  0
   20.3253  -22.2607  -13.0787 C   0  0  0  0  0  0  0  0  0  0  0  0
   21.5464  -21.4886  -13.3743 C   0  0  0  0  0  0  0  0  0  0  0  0
   22.2489  -21.2265  -12.0592 C   0  0  2  0  0  0  0  0  0  0  0  0
   21.4257  -20.3041  -11.3032 N   0  0  0  0  0  0  0  0  0  0  0  0
   23.6215  -20.6780  -12.2614 C   0  0  0  0  0  0  0  0  0  0  0  0
   23.8081  -19.4475  -12.4434 O   0  0  0  0  0  0  0  0  0  0  0  0
   19.1167  -21.6176  -12.9676 C   0  0  0  0  0  0  0  0  0  0  0  0
   17.9426  -22.2652  -12.6956 C   0  0  0  0  0  0  0  0  0  0  0  0
   26.7016  -19.2432   -6.5921 O   0  0  0  0  0  0  0  0  0  0  0  0
   26.7546  -19.9058   -7.7946 C   0  0  0  0  0  0  0  0  0  0  0  0
   25.7026  -20.7282   -8.1871 C   0  0  0  0  0  0  0  0  0  0  0  0
   25.7586  -21.3918   -9.3942 C   0  0  0  0  0  0  0  0  0  0  0  0
   26.8685  -21.2166  -10.1823 C   0  0  0  0  0  0  0  0  0  0  0  0
   26.9397  -21.9270  -11.4855 C   0  0  0  0  0  0  0  0  0  0  0  0
   26.0788  -21.1707  -12.4705 C   0  0  2  0  0  0  0  0  0  0  0  0
   24.7098  -21.5891  -12.2418 N   0  0  0  0  0  0  0  0  0  0  0  0
   26.4074  -21.5041  -13.8767 C   0  0  0  0  0  0  0  0  0  0  0  0
   26.6027  -22.6871  -14.2529 O   0  0  0  0  0  0  0  0  0  0  0  0
   27.9189  -20.4034   -9.8041 C   0  0  0  0  0  0  0  0  0  0  0  0
   27.8546  -19.7534   -8.6124 C   0  0  0  0  0  0  0  0  0  0  0  0
   25.4745  -18.8434  -17.1413 C   0  0  0  0  0  0  0  0  0  0  0  0
   25.6463  -20.3286  -17.1813 C   0  0  2  0  0  0  0  0  0  0  0  0
   24.3794  -21.0830  -16.8905 C   0  0  0  0  0  0  0  0  0  0  0  0
   26.7895  -20.8026  -16.2740 C   0  0  2  0  0  0  0  0  0  0  0  0
   26.5198  -20.4865  -14.8853 N   0  0  0  0  0  0  0  0  0  0  0  0
   28.0796  -20.2321  -16.7285 C   0  0  0  0  0  0  0  0  0  0  0  0
   28.7995  -20.9370  -17.6820 O   0  0  0  0  0  0  0  0  0  0  0  0
   28.5635  -19.1527  -16.3071 O   0  0  0  0  0  0  0  0  0  0  0  0
  2  1  1  0
  3  2  2  0
  4  3  1  0
  5  4  2  0
  5 11  1  0
  6  5  1  0
  7  8  1  1
  7  9  1  0
  7  6  1  0
  9 20  1  0
 10  9  2  0
 11 12  2  0
 12  2  1  0
 14 13  1  0
 15 14  2  0
 16 15  1  0
 17 16  2  0
 17 23  1  0
 18 17  1  0
 19 18  1  1
 20 19  1  0
 21 29  1  0
 21 19  1  0
 22 21  2  0
 23 24  2  0
 24 14  1  0
 26 25  1  1
 26 27  1  0
 26 28  1  0
 28 29  1  1
 28 30  1  0
 30 31  1  0
 32 30  2  0
M  END
$$$$
