YYV.pdb
     RDKit          3D

 32 33  0  0  1  0  0  0  0  0999 V2000
   26.8290  -19.8870  -24.0330 O   0  0  0  0  0  0  0  0  0  0  0  0
   26.6850  -19.7220  -22.6724 C   0  0  0  0  0  0  0  0  0  0  0  0
   27.4602  -18.7642  -22.0160 C   0  0  0  0  0  0  0  0  0  0  0  0
   27.3333  -18.5771  -20.6373 C   0  0  0  0  0  0  0  0  0  0  0  0
   26.4398  -19.3420  -19.9277 C   0  0  0  0  0  0  0  0  0  0  0  0
   26.2725  -19.1791  -18.4717 C   0  0  0  0  0  0  0  0  0  0  0  0
   24.8527  -18.7151  -18.2257 C   0  0  2  0  0  0  0  0  0  0  0  0
   24.7099  -17.4098  -18.8388 N   0  0  0  0  0  0  0  0  0  0  0  0
   24.5291  -18.6619  -16.7702 C   0  0  0  0  0  0  0  0  0  0  0  0
   25.0717  -17.8145  -16.0155 O   0  0  0  0  0  0  0  0  0  0  0  0
   25.6927  -20.2753  -20.6042 C   0  0  0  0  0  0  0  0  0  0  0  0
   25.7921  -20.4839  -21.9527 C   0  0  0  0  0  0  0  0  0  0  0  0
   20.1853  -20.4058   -9.4849 O   0  0  0  0  0  0  0  0  0  0  0  0
   20.5702  -20.3268  -10.8015 C   0  0  0  0  0  0  0  0  0  0  0  0
   20.4519  -19.1253  -11.4941 C   0  0  0  0  0  0  0  0  0  0  0  0
   20.8388  -19.0491  -12.8151 C   0  0  0  0  0  0  0  0  0  0  0  0
   21.3363  -20.1794  -13.4138 C   0  0  0  0  0  0  0  0  0  0  0  0
   21.7564  -20.1089  -14.8373 C   0  0  0  0  0  0  0  0  0  0  0  0
   23.1861  -19.6207  -14.8725 C   0  0  2  0  0  0  0  0  0  0  0  0
   23.5895  -19.5981  -16.2646 N   0  0  0  0  0  0  0  0  0  0  0  0
   24.1111  -20.5375  -14.1653 C   0  0  0  0  0  0  0  0  0  0  0  0
   24.3045  -21.7176  -14.5517 O   0  0  0  0  0  0  0  0  0  0  0  0
   21.4586  -21.3775  -12.7375 C   0  0  0  0  0  0  0  0  0  0  0  0
   21.0745  -21.4429  -11.4356 C   0  0  0  0  0  0  0  0  0  0  0  0
   27.5061  -19.3658  -11.7946 C   0  0  0  0  0  0  0  0  0  0  0  0
   27.1625  -20.6816  -12.4168 C   0  0  2  0  0  0  0  0  0  0  0  0
   27.5781  -20.7863  -13.8573 C   0  0  0  0  0  0  0  0  0  0  0  0
   25.6783  -21.0317  -12.2457 C   0  0  2  0  0  0  0  0  0  0  0  0
   24.8367  -20.1213  -12.9967 N   0  0  0  0  0  0  0  0  0  0  0  0
   25.3166  -21.0579  -10.8087 C   0  0  0  0  0  0  0  0  0  0  0  0
   25.8820  -22.0463  -10.0164 O   0  0  0  0  0  0  0  0  0  0  0  0
   24.5320  -20.2442  -10.2616 O   0  0  0  0  0  0  0  0  0  0  0  0
  2  1  1  0
  3  2  2  0
  4  3  1  0
  5  4  2  0
  5 11  1  0
  6  5  1  0
  7  8  1  1
  7  9  1  0
  7  6  1  0
  9 20  1  0
 10  9  2  0
 11 12  2  0
 12  2  1  0
 14 13  1  0
 15 14  2  0
 16 15  1  0
 17 16  2  0
 17 23  1  0
 18 17  1  0
 19 18  1  6
 20 19  1  0
 21 29  1  0
 21 19  1  0
 22 21  2  0
 23 24  2  0
 24 14  1  0
 26 25  1  6
 26 27  1  0
 26 28  1  0
 28 29  1  6
 28 30  1  0
 30 31  1  0
 32 30  2  0
M  END
$$$$
