YYV.pdb
     RDKit          3D

 32 33  0  0  1  0  0  0  0  0999 V2000
   30.1447  -16.3678  -20.6381 O   0  0  0  0  0  0  0  0  0  0  0  0
   29.2343  -17.1359  -19.9448 C   0  0  0  0  0  0  0  0  0  0  0  0
   28.6880  -18.2650  -20.5578 C   0  0  0  0  0  0  0  0  0  0  0  0
   27.7631  -19.0604  -19.8768 C   0  0  0  0  0  0  0  0  0  0  0  0
   27.3922  -18.7259  -18.5971 C   0  0  0  0  0  0  0  0  0  0  0  0
   26.4198  -19.5359  -17.8404 C   0  0  0  0  0  0  0  0  0  0  0  0
   27.2032  -20.4260  -16.8993 C   0  0  2  0  0  0  0  0  0  0  0  0
   27.8029  -21.4783  -17.6950 N   0  0  0  0  0  0  0  0  0  0  0  0
   26.3401  -20.9938  -15.8229 C   0  0  0  0  0  0  0  0  0  0  0  0
   25.7444  -22.0904  -15.9797 O   0  0  0  0  0  0  0  0  0  0  0  0
   27.9487  -17.6088  -18.0234 C   0  0  0  0  0  0  0  0  0  0  0  0
   28.8564  -16.8086  -18.6619 C   0  0  0  0  0  0  0  0  0  0  0  0
   22.3775  -21.3900   -8.1211 O   0  0  0  0  0  0  0  0  0  0  0  0
   23.2159  -21.0291   -9.1480 C   0  0  0  0  0  0  0  0  0  0  0  0
   24.5077  -21.5438   -9.2102 C   0  0  0  0  0  0  0  0  0  0  0  0
   25.3467  -21.1798  -10.2417 C   0  0  0  0  0  0  0  0  0  0  0  0
   24.8727  -20.3075  -11.1893 C   0  0  0  0  0  0  0  0  0  0  0  0
   25.7684  -19.9082  -12.3057 C   0  0  0  0  0  0  0  0  0  0  0  0
   25.3458  -20.6798  -13.5343 C   0  0  2  0  0  0  0  0  0  0  0  0
   26.2128  -20.2568  -14.6164 N   0  0  0  0  0  0  0  0  0  0  0  0
   23.9555  -20.3694  -13.9429 C   0  0  0  0  0  0  0  0  0  0  0  0
   23.6137  -19.2224  -14.3259 O   0  0  0  0  0  0  0  0  0  0  0  0
   23.5931  -19.7899  -11.1388 C   0  0  0  0  0  0  0  0  0  0  0  0
   22.7734  -20.1544  -10.1181 C   0  0  0  0  0  0  0  0  0  0  0  0
   19.7747  -21.4875  -16.0262 C   0  0  0  0  0  0  0  0  0  0  0  0
   21.1948  -21.7442  -15.6334 C   0  0  2  0  0  0  0  0  0  0  0  0
   21.5544  -23.2034  -15.6185 C   0  0  0  0  0  0  0  0  0  0  0  0
   21.5555  -21.0750  -14.3005 C   0  0  2  0  0  0  0  0  0  0  0  0
   22.9233  -21.3693  -13.9214 N   0  0  0  0  0  0  0  0  0  0  0  0
   20.5935  -21.4736  -13.2459 C   0  0  0  0  0  0  0  0  0  0  0  0
   21.0494  -22.3067  -12.2347 O   0  0  0  0  0  0  0  0  0  0  0  0
   19.3932  -21.1066  -13.2078 O   0  0  0  0  0  0  0  0  0  0  0  0
  2  1  1  0
  3  2  2  0
  4  3  1  0
  5  4  2  0
  5 11  1  0
  6  5  1  0
  7  8  1  6
  7  9  1  0
  7  6  1  0
  9 20  1  0
 10  9  2  0
 11 12  2  0
 12  2  1  0
 14 13  1  0
 15 14  2  0
 16 15  1  0
 17 16  2  0
 17 23  1  0
 18 17  1  0
 19 18  1  1
 20 19  1  0
 21 29  1  0
 21 19  1  0
 22 21  2  0
 23 24  2  0
 24 14  1  0
 26 25  1  1
 26 27  1  0
 26 28  1  0
 28 29  1  1
 28 30  1  0
 30 31  1  0
 32 30  2  0
M  END
$$$$
