PEY.pdb
     RDKit          3D

 29 30  0  0  1  0  0  0  0  0999 V2000
    8.8696  -14.3612   19.3285 N   0  0  0  0  0  0  0  0  0  0  0  0
    8.7998  -13.2791   18.3635 C   0  0  0  0  0  0  0  0  0  0  0  0
    7.4201  -12.7189   18.6123 C   0  0  0  0  0  0  0  0  0  0  0  0
    7.0164  -13.1871   20.0063 C   0  0  0  0  0  0  0  0  0  0  0  0
    8.3435  -13.7196   20.5222 C   0  0  1  0  0  0  0  0  0  0  0  0
    8.1672  -14.7346   21.5817 C   0  0  0  0  0  0  0  0  0  0  0  0
    7.4747  -14.4801   22.6058 O   0  0  0  0  0  0  0  0  0  0  0  0
    8.7781  -16.0333   21.4726 N   0  0  0  0  0  0  0  0  0  0  0  0
    8.5250  -17.0516   22.4601 C   0  0  1  0  0  0  0  0  0  0  0  0
    9.0260  -18.4145   22.0396 C   0  0  0  0  0  0  0  0  0  0  0  0
    8.3682  -18.9231   20.8027 C   0  0  0  0  0  0  0  0  0  0  0  0
    8.9526  -20.2403   20.4526 C   0  0  0  0  0  0  0  0  0  0  0  0
    8.7895  -21.2292   21.2084 O   0  0  0  0  0  0  0  0  0  0  0  0
    9.0818  -16.6518   23.7828 C   0  0  0  0  0  0  0  0  0  0  0  0
   10.2082  -16.0687   23.8708 O   0  0  0  0  0  0  0  0  0  0  0  0
    9.6845  -20.4076   19.2950 O   0  0  0  0  0  0  0  0  0  0  0  0
    6.4491  -10.7267   25.7082 O   0  0  0  0  0  0  0  0  0  0  0  0
    6.7637  -12.0408   26.0499 C   0  0  0  0  0  0  0  0  0  0  0  0
    7.9753  -12.3503   26.5952 C   0  0  0  0  0  0  0  0  0  0  0  0
    8.2955  -13.6464   26.9363 C   0  0  0  0  0  0  0  0  0  0  0  0
    7.3630  -14.6369   26.7157 C   0  0  0  0  0  0  0  0  0  0  0  0
    7.7230  -16.0106   27.0831 C   0  0  0  0  0  0  0  0  0  0  0  0
    8.8839  -16.5787   26.3020 C   0  0  2  0  0  0  0  0  0  0  0  0
    8.3635  -16.9153   24.9687 N   0  0  0  0  0  0  0  0  0  0  0  0
    9.5056  -17.7343   26.9460 C   0  0  0  0  0  0  0  0  0  0  0  0
   10.2499  -17.5456   28.1112 O   0  0  0  0  0  0  0  0  0  0  0  0
    6.1403  -14.3420   26.1683 C   0  0  0  0  0  0  0  0  0  0  0  0
    5.8467  -13.0471   25.8383 C   0  0  0  0  0  0  0  0  0  0  0  0
    9.3810  -18.8886   26.4694 O   0  0  0  0  0  0  0  0  0  0  0  0
  1  5  1  0
  2  3  1  0
  2  1  1  0
  3  4  1  0
  5  4  1  0
  6  7  2  0
  5  6  1  1
  8  6  1  0
  9  8  1  0
  9 10  1  6
 11 10  1  0
 12 11  1  0
 13 12  2  0
 14  9  1  0
 14 15  2  0
 16 12  1  0
 18 17  1  0
 19 18  2  0
 20 19  1  0
 21 20  2  0
 21 27  1  0
 22 21  1  0
 23 24  1  0
 23 22  1  1
 24 14  1  0
 25 23  1  0
 26 25  1  0
 27 28  2  0
 28 18  1  0
 29 25  2  0
M  END
$$$$
