PEY.pdb
     RDKit          3D

 29 30  0  0  1  0  0  0  0  0999 V2000
    8.9721  -14.2243   17.9974 N   0  0  0  0  0  0  0  0  0  0  0  0
    8.7027  -13.1035   17.1151 C   0  0  0  0  0  0  0  0  0  0  0  0
    7.3343  -12.6594   17.5729 C   0  0  0  0  0  0  0  0  0  0  0  0
    7.1518  -13.2250   18.9773 C   0  0  0  0  0  0  0  0  0  0  0  0
    8.5682  -13.6835   19.2849 C   0  0  1  0  0  0  0  0  0  0  0  0
    8.6023  -14.7603   20.2964 C   0  0  0  0  0  0  0  0  0  0  0  0
    8.0188  -14.6172   21.4064 O   0  0  0  0  0  0  0  0  0  0  0  0
    9.2989  -15.9939   20.0420 N   0  0  0  0  0  0  0  0  0  0  0  0
    9.4265  -16.9935   21.0720 C   0  0  1  0  0  0  0  0  0  0  0  0
   10.0956  -18.2578   20.5831 C   0  0  0  0  0  0  0  0  0  0  0  0
    9.6855  -18.6399   19.2020 C   0  0  0  0  0  0  0  0  0  0  0  0
   10.7110  -19.5439   18.6273 C   0  0  0  0  0  0  0  0  0  0  0  0
   11.1901  -20.4793   19.3136 O   0  0  0  0  0  0  0  0  0  0  0  0
   10.1243  -16.4348   22.2637 C   0  0  0  0  0  0  0  0  0  0  0  0
   11.2991  -15.9575   22.1717 O   0  0  0  0  0  0  0  0  0  0  0  0
   11.1587  -19.3781   17.3328 O   0  0  0  0  0  0  0  0  0  0  0  0
   10.9657  -14.1507   30.8097 O   0  0  0  0  0  0  0  0  0  0  0  0
   10.4992  -14.5647   29.5633 C   0  0  0  0  0  0  0  0  0  0  0  0
   10.1355  -13.6536   28.6153 C   0  0  0  0  0  0  0  0  0  0  0  0
    9.6732  -14.0531   27.3801 C   0  0  0  0  0  0  0  0  0  0  0  0
    9.5826  -15.4023   27.1137 C   0  0  0  0  0  0  0  0  0  0  0  0
    9.0862  -15.8079   25.7944 C   0  0  0  0  0  0  0  0  0  0  0  0
   10.1633  -15.9711   24.7485 C   0  0  2  0  0  0  0  0  0  0  0  0
    9.4888  -16.4258   23.5238 N   0  0  0  0  0  0  0  0  0  0  0  0
   11.2274  -16.8890   25.1508 C   0  0  0  0  0  0  0  0  0  0  0  0
   10.9923  -18.2639   25.1096 O   0  0  0  0  0  0  0  0  0  0  0  0
    9.9444  -16.3309   28.0563 C   0  0  0  0  0  0  0  0  0  0  0  0
   10.4004  -15.9083   29.2750 C   0  0  0  0  0  0  0  0  0  0  0  0
   12.3445  -16.4617   25.5311 O   0  0  0  0  0  0  0  0  0  0  0  0
  1  5  1  0
  2  3  1  0
  2  1  1  0
  3  4  1  0
  5  4  1  0
  6  7  2  0
  5  6  1  1
  8  6  1  0
  9  8  1  0
  9 10  1  6
 11 10  1  0
 12 11  1  0
 13 12  2  0
 14  9  1  0
 14 15  2  0
 16 12  1  0
 18 17  1  0
 19 18  2  0
 20 19  1  0
 21 20  2  0
 21 27  1  0
 22 21  1  0
 23 24  1  0
 23 22  1  1
 24 14  1  0
 25 23  1  0
 26 25  1  0
 27 28  2  0
 28 18  1  0
 29 25  2  0
M  END
$$$$
