PEY.pdb
     RDKit          3D

 29 30  0  0  1  0  0  0  0  0999 V2000
    8.8948  -14.1196   18.1513 N   0  0  0  0  0  0  0  0  0  0  0  0
    8.4538  -12.9842   17.3616 C   0  0  0  0  0  0  0  0  0  0  0  0
    7.1265  -12.6496   17.9985 C   0  0  0  0  0  0  0  0  0  0  0  0
    7.1494  -13.2821   19.3859 C   0  0  0  0  0  0  0  0  0  0  0  0
    8.6176  -13.6588   19.5018 C   0  0  1  0  0  0  0  0  0  0  0  0
    8.8384  -14.7709   20.4496 C   0  0  0  0  0  0  0  0  0  0  0  0
    8.4188  -14.6950   21.6375 O   0  0  0  0  0  0  0  0  0  0  0  0
    9.5346  -15.9634   20.0432 N   0  0  0  0  0  0  0  0  0  0  0  0
    9.8165  -17.0110   20.9916 C   0  0  1  0  0  0  0  0  0  0  0  0
   10.5828  -18.1632   20.3829 C   0  0  0  0  0  0  0  0  0  0  0  0
   10.7982  -19.2898   21.3346 C   0  0  0  0  0  0  0  0  0  0  0  0
   11.5092  -20.3852   20.6320 C   0  0  0  0  0  0  0  0  0  0  0  0
   12.1244  -21.2642   21.2836 O   0  0  0  0  0  0  0  0  0  0  0  0
   10.5163  -16.4637   22.1875 C   0  0  0  0  0  0  0  0  0  0  0  0
   11.5381  -15.7173   22.0646 O   0  0  0  0  0  0  0  0  0  0  0  0
   11.5105  -20.4624   19.2544 O   0  0  0  0  0  0  0  0  0  0  0  0
   11.0424  -14.4291   30.7628 O   0  0  0  0  0  0  0  0  0  0  0  0
   10.7394  -14.6451   29.4195 C   0  0  0  0  0  0  0  0  0  0  0  0
   11.2823  -15.6967   28.7410 C   0  0  0  0  0  0  0  0  0  0  0  0
   10.9889  -15.9185   27.4129 C   0  0  0  0  0  0  0  0  0  0  0  0
   10.1291  -15.0521   26.7730 C   0  0  0  0  0  0  0  0  0  0  0  0
    9.8307  -15.3033   25.3590 C   0  0  0  0  0  0  0  0  0  0  0  0
   10.7446  -16.3091   24.7003 C   0  0  2  0  0  0  0  0  0  0  0  0
   10.0536  -16.7666   23.4858 N   0  0  0  0  0  0  0  0  0  0  0  0
   11.1002  -17.4272   25.5723 C   0  0  0  0  0  0  0  0  0  0  0  0
   10.3744  -18.6159   25.4854 O   0  0  0  0  0  0  0  0  0  0  0  0
    9.5749  -13.9901   27.4413 C   0  0  0  0  0  0  0  0  0  0  0  0
    9.8823  -13.7918   28.7597 C   0  0  0  0  0  0  0  0  0  0  0  0
   12.0440  -17.3351   26.3944 O   0  0  0  0  0  0  0  0  0  0  0  0
  1  5  1  0
  2  3  1  0
  2  1  1  0
  3  4  1  0
  5  4  1  0
  6  7  2  0
  5  6  1  1
  8  6  1  0
  9  8  1  0
  9 10  1  6
 11 10  1  0
 12 11  1  0
 13 12  2  0
 14  9  1  0
 14 15  2  0
 16 12  1  0
 18 17  1  0
 19 18  2  0
 20 19  1  0
 21 20  2  0
 21 27  1  0
 22 21  1  0
 23 24  1  0
 23 22  1  1
 24 14  1  0
 25 23  1  0
 26 25  1  0
 27 28  2  0
 28 18  1  0
 29 25  2  0
M  END
$$$$
