PEY.pdb
     RDKit          3D

 29 30  0  0  1  0  0  0  0  0999 V2000
    8.7945  -14.2787   19.3518 N   0  0  0  0  0  0  0  0  0  0  0  0
    8.5956  -13.1972   18.4043 C   0  0  0  0  0  0  0  0  0  0  0  0
    7.2387  -12.6693   18.8038 C   0  0  0  0  0  0  0  0  0  0  0  0
    6.9999  -13.1486   20.2316 C   0  0  0  0  0  0  0  0  0  0  0  0
    8.3870  -13.6510   20.5981 C   0  0  1  0  0  0  0  0  0  0  0  0
    8.3501  -14.6713   21.6665 C   0  0  0  0  0  0  0  0  0  0  0  0
    7.7597  -14.4376   22.7573 O   0  0  0  0  0  0  0  0  0  0  0  0
    8.9838  -15.9516   21.4905 N   0  0  0  0  0  0  0  0  0  0  0  0
    8.8892  -16.9664   22.5092 C   0  0  1  0  0  0  0  0  0  0  0  0
    9.4855  -18.2873   22.0789 C   0  0  0  0  0  0  0  0  0  0  0  0
    9.2488  -19.3831   23.0610 C   0  0  0  0  0  0  0  0  0  0  0  0
    9.8680  -20.6301   22.5504 C   0  0  0  0  0  0  0  0  0  0  0  0
   10.9088  -21.0872   23.0830 O   0  0  0  0  0  0  0  0  0  0  0  0
    9.4905  -16.4883   23.7856 C   0  0  0  0  0  0  0  0  0  0  0  0
   10.6262  -15.9169   23.8018 O   0  0  0  0  0  0  0  0  0  0  0  0
    9.3174  -21.3119   21.4848 O   0  0  0  0  0  0  0  0  0  0  0  0
    5.8685  -11.0423   25.4835 O   0  0  0  0  0  0  0  0  0  0  0  0
    6.4559  -12.2344   25.9034 C   0  0  0  0  0  0  0  0  0  0  0  0
    7.6988  -12.2410   26.4657 C   0  0  0  0  0  0  0  0  0  0  0  0
    8.2879  -13.4145   26.8839 C   0  0  0  0  0  0  0  0  0  0  0  0
    7.5948  -14.5949   26.7238 C   0  0  0  0  0  0  0  0  0  0  0  0
    8.2392  -15.8337   27.1729 C   0  0  0  0  0  0  0  0  0  0  0  0
    9.3877  -16.2872   26.3034 C   0  0  2  0  0  0  0  0  0  0  0  0
    8.8051  -16.6627   25.0068 N   0  0  0  0  0  0  0  0  0  0  0  0
   10.1582  -17.3841   26.8866 C   0  0  0  0  0  0  0  0  0  0  0  0
   10.1972  -18.6140   26.2284 O   0  0  0  0  0  0  0  0  0  0  0  0
    6.3443  -14.6051   26.1602 C   0  0  0  0  0  0  0  0  0  0  0  0
    5.7814  -13.4263   25.7532 C   0  0  0  0  0  0  0  0  0  0  0  0
   10.7824  -17.2376   27.9654 O   0  0  0  0  0  0  0  0  0  0  0  0
  1  5  1  0
  2  3  1  0
  2  1  1  0
  3  4  1  0
  5  4  1  0
  6  7  2  0
  5  6  1  1
  8  6  1  0
  9  8  1  0
  9 10  1  6
 11 10  1  0
 12 11  1  0
 13 12  2  0
 14  9  1  0
 14 15  2  0
 16 12  1  0
 18 17  1  0
 19 18  2  0
 20 19  1  0
 21 20  2  0
 21 27  1  0
 22 21  1  0
 23 24  1  0
 23 22  1  1
 24 14  1  0
 25 23  1  0
 26 25  1  0
 27 28  2  0
 28 18  1  0
 29 25  2  0
M  END
$$$$
