PEY.pdb
     RDKit          3D

 29 30  0  0  1  0  0  0  0  0999 V2000
    9.0724  -14.0634   19.6684 N   0  0  0  0  0  0  0  0  0  0  0  0
    8.7809  -12.9511   18.7824 C   0  0  0  0  0  0  0  0  0  0  0  0
    7.2745  -12.8767   18.8496 C   0  0  0  0  0  0  0  0  0  0  0  0
    6.8696  -13.6054   20.1265 C   0  0  0  0  0  0  0  0  0  0  0  0
    8.2206  -13.7588   20.8063 C   0  0  1  0  0  0  0  0  0  0  0  0
    8.2476  -14.8947   21.7512 C   0  0  0  0  0  0  0  0  0  0  0  0
    7.3529  -15.0177   22.6330 O   0  0  0  0  0  0  0  0  0  0  0  0
    9.2904  -15.8849   21.6898 N   0  0  0  0  0  0  0  0  0  0  0  0
    9.3194  -16.9827   22.6227 C   0  0  1  0  0  0  0  0  0  0  0  0
   10.2822  -18.0744   22.2146 C   0  0  0  0  0  0  0  0  0  0  0  0
    9.9173  -18.7229   20.9231 C   0  0  0  0  0  0  0  0  0  0  0  0
   10.9360  -19.7492   20.5942 C   0  0  0  0  0  0  0  0  0  0  0  0
   10.6222  -20.9637   20.5465 O   0  0  0  0  0  0  0  0  0  0  0  0
    9.6037  -16.4943   24.0012 C   0  0  0  0  0  0  0  0  0  0  0  0
   10.5477  -15.6723   24.2239 O   0  0  0  0  0  0  0  0  0  0  0  0
   12.2438  -19.3943   20.3349 O   0  0  0  0  0  0  0  0  0  0  0  0
    6.2070  -10.8781   25.7141 O   0  0  0  0  0  0  0  0  0  0  0  0
    6.5866  -12.1778   26.0449 C   0  0  0  0  0  0  0  0  0  0  0  0
    7.6709  -12.4082   26.8400 C   0  0  0  0  0  0  0  0  0  0  0  0
    8.0541  -13.6894   27.1725 C   0  0  0  0  0  0  0  0  0  0  0  0
    7.3171  -14.7468   26.6843 C   0  0  0  0  0  0  0  0  0  0  0  0
    7.7418  -16.1030   27.0474 C   0  0  0  0  0  0  0  0  0  0  0  0
    9.0783  -16.5100   26.4739 C   0  0  2  0  0  0  0  0  0  0  0  0
    8.8245  -16.9388   25.0906 N   0  0  0  0  0  0  0  0  0  0  0  0
    9.7475  -17.5538   27.2481 C   0  0  0  0  0  0  0  0  0  0  0  0
    9.9568  -18.8047   26.6661 O   0  0  0  0  0  0  0  0  0  0  0  0
    6.2242  -14.5317   25.8838 C   0  0  0  0  0  0  0  0  0  0  0  0
    5.8645  -13.2499   25.5682 C   0  0  0  0  0  0  0  0  0  0  0  0
   10.1352  -17.3434   28.4230 O   0  0  0  0  0  0  0  0  0  0  0  0
  1  5  1  0
  2  3  1  0
  2  1  1  0
  3  4  1  0
  5  4  1  0
  6  7  2  0
  5  6  1  1
  8  6  1  0
  9  8  1  0
  9 10  1  6
 11 10  1  0
 12 11  1  0
 13 12  2  0
 14  9  1  0
 14 15  2  0
 16 12  1  0
 18 17  1  0
 19 18  2  0
 20 19  1  0
 21 20  2  0
 21 27  1  0
 22 21  1  0
 23 24  1  0
 23 22  1  1
 24 14  1  0
 25 23  1  0
 26 25  1  0
 27 28  2  0
 28 18  1  0
 29 25  2  0
M  END
$$$$
