PEY.pdb
     RDKit          3D

 29 30  0  0  1  0  0  0  0  0999 V2000
    9.1586  -14.5727   18.2396 N   0  0  0  0  0  0  0  0  0  0  0  0
    8.8610  -13.5949   17.2088 C   0  0  0  0  0  0  0  0  0  0  0  0
    7.4118  -13.2730   17.4839 C   0  0  0  0  0  0  0  0  0  0  0  0
    7.1473  -13.7013   18.9234 C   0  0  0  0  0  0  0  0  0  0  0  0
    8.5658  -13.9487   19.4111 C   0  0  1  0  0  0  0  0  0  0  0  0
    8.6125  -14.8976   20.5430 C   0  0  0  0  0  0  0  0  0  0  0  0
    8.0196  -14.6350   21.6259 O   0  0  0  0  0  0  0  0  0  0  0  0
    9.3323  -16.1397   20.4392 N   0  0  0  0  0  0  0  0  0  0  0  0
    9.3268  -17.0870   21.5250 C   0  0  1  0  0  0  0  0  0  0  0  0
   10.2326  -18.2713   21.2752 C   0  0  0  0  0  0  0  0  0  0  0  0
   10.1435  -19.3103   22.3400 C   0  0  0  0  0  0  0  0  0  0  0  0
   10.9281  -20.4974   21.9223 C   0  0  0  0  0  0  0  0  0  0  0  0
   12.0375  -20.7454   22.4545 O   0  0  0  0  0  0  0  0  0  0  0  0
    9.6548  -16.4134   22.8126 C   0  0  0  0  0  0  0  0  0  0  0  0
   10.4849  -15.4514   22.8565 O   0  0  0  0  0  0  0  0  0  0  0  0
   10.4590  -21.3507   20.9449 O   0  0  0  0  0  0  0  0  0  0  0  0
    6.1542  -10.9009   28.1250 O   0  0  0  0  0  0  0  0  0  0  0  0
    6.5654  -11.8836   27.2262 C   0  0  0  0  0  0  0  0  0  0  0  0
    5.7326  -12.9073   26.8807 C   0  0  0  0  0  0  0  0  0  0  0  0
    6.1299  -13.8835   25.9930 C   0  0  0  0  0  0  0  0  0  0  0  0
    7.3958  -13.8095   25.4532 C   0  0  0  0  0  0  0  0  0  0  0  0
    7.8014  -14.8589   24.5120 C   0  0  0  0  0  0  0  0  0  0  0  0
    8.7159  -15.9048   25.1040 C   0  0  2  0  0  0  0  0  0  0  0  0
    9.0455  -16.8347   24.0139 N   0  0  0  0  0  0  0  0  0  0  0  0
    8.1345  -16.6014   26.2501 C   0  0  0  0  0  0  0  0  0  0  0  0
    7.3384  -17.7263   26.0307 O   0  0  0  0  0  0  0  0  0  0  0  0
    8.2451  -12.7864   25.7903 C   0  0  0  0  0  0  0  0  0  0  0  0
    7.8265  -11.8295   26.6741 C   0  0  0  0  0  0  0  0  0  0  0  0
    8.3392  -16.2052   27.4232 O   0  0  0  0  0  0  0  0  0  0  0  0
  1  5  1  0
  2  3  1  0
  2  1  1  0
  3  4  1  0
  5  4  1  0
  6  7  2  0
  5  6  1  1
  8  6  1  0
  9  8  1  0
  9 10  1  6
 11 10  1  0
 12 11  1  0
 13 12  2  0
 14  9  1  0
 14 15  2  0
 16 12  1  0
 18 17  1  0
 19 18  2  0
 20 19  1  0
 21 20  2  0
 21 27  1  0
 22 21  1  0
 23 24  1  0
 23 22  1  6
 24 14  1  0
 25 23  1  0
 26 25  1  0
 27 28  2  0
 28 18  1  0
 29 25  2  0
M  END
$$$$
