PEY.pdb
     RDKit          3D

 29 30  0  0  1  0  0  0  0  0999 V2000
    9.0887  -14.0661   19.1963 N   0  0  0  0  0  0  0  0  0  0  0  0
    8.9262  -12.9553   18.2761 C   0  0  0  0  0  0  0  0  0  0  0  0
    7.4726  -12.5945   18.4658 C   0  0  0  0  0  0  0  0  0  0  0  0
    7.0613  -13.1814   19.8118 C   0  0  0  0  0  0  0  0  0  0  0  0
    8.4183  -13.5602   20.3828 C   0  0  1  0  0  0  0  0  0  0  0  0
    8.3232  -14.6417   21.3854 C   0  0  0  0  0  0  0  0  0  0  0  0
    7.5423  -14.5363   22.3714 O   0  0  0  0  0  0  0  0  0  0  0  0
    9.1155  -15.8371   21.2630 N   0  0  0  0  0  0  0  0  0  0  0  0
    8.9819  -16.9100   22.2157 C   0  0  1  0  0  0  0  0  0  0  0  0
    9.6370  -18.1912   21.7525 C   0  0  0  0  0  0  0  0  0  0  0  0
    9.1913  -18.6184   20.3960 C   0  0  0  0  0  0  0  0  0  0  0  0
    9.9682  -19.8137   19.9874 C   0  0  0  0  0  0  0  0  0  0  0  0
   10.8900  -20.2527   20.7176 O   0  0  0  0  0  0  0  0  0  0  0  0
    9.4891  -16.4923   23.5528 C   0  0  0  0  0  0  0  0  0  0  0  0
   10.5742  -15.8398   23.6679 O   0  0  0  0  0  0  0  0  0  0  0  0
    9.6968  -20.4663   18.8025 O   0  0  0  0  0  0  0  0  0  0  0  0
    6.0194  -11.0267   25.9351 O   0  0  0  0  0  0  0  0  0  0  0  0
    6.5328  -12.2998   26.1768 C   0  0  0  0  0  0  0  0  0  0  0  0
    5.7332  -13.4023   26.0983 C   0  0  0  0  0  0  0  0  0  0  0  0
    6.2314  -14.6650   26.3354 C   0  0  0  0  0  0  0  0  0  0  0  0
    7.5649  -14.7991   26.6569 C   0  0  0  0  0  0  0  0  0  0  0  0
    8.0763  -16.1507   26.9081 C   0  0  0  0  0  0  0  0  0  0  0  0
    9.2761  -16.5265   26.0715 C   0  0  2  0  0  0  0  0  0  0  0  0
    8.7687  -16.8162   24.7223 N   0  0  0  0  0  0  0  0  0  0  0  0
   10.0330  -17.6521   26.6165 C   0  0  0  0  0  0  0  0  0  0  0  0
   10.7401  -17.4840   27.8078 O   0  0  0  0  0  0  0  0  0  0  0  0
    8.3820  -13.7004   26.7398 C   0  0  0  0  0  0  0  0  0  0  0  0
    7.8628  -12.4575   26.4996 C   0  0  0  0  0  0  0  0  0  0  0  0
   10.0567  -18.7626   26.0323 O   0  0  0  0  0  0  0  0  0  0  0  0
  1  5  1  0
  2  3  1  0
  2  1  1  0
  3  4  1  0
  5  4  1  0
  6  7  2  0
  5  6  1  1
  8  6  1  0
  9  8  1  0
  9 10  1  6
 11 10  1  0
 12 11  1  0
 13 12  2  0
 14  9  1  0
 14 15  2  0
 16 12  1  0
 18 17  1  0
 19 18  2  0
 20 19  1  0
 21 20  2  0
 21 27  1  0
 22 21  1  0
 23 24  1  0
 23 22  1  1
 24 14  1  0
 25 23  1  0
 26 25  1  0
 27 28  2  0
 28 18  1  0
 29 25  2  0
M  END
$$$$
