PEY.pdb
     RDKit          3D

 29 30  0  0  1  0  0  0  0  0999 V2000
    9.1199  -14.2050   19.2179 N   0  0  0  0  0  0  0  0  0  0  0  0
    8.9613  -13.1090   18.2794 C   0  0  0  0  0  0  0  0  0  0  0  0
    7.5025  -12.7567   18.4446 C   0  0  0  0  0  0  0  0  0  0  0  0
    7.0778  -13.3272   19.7936 C   0  0  0  0  0  0  0  0  0  0  0  0
    8.4299  -13.6871   20.3879 C   0  0  1  0  0  0  0  0  0  0  0  0
    8.3296  -14.7546   21.4049 C   0  0  0  0  0  0  0  0  0  0  0  0
    7.6400  -14.5847   22.4482 O   0  0  0  0  0  0  0  0  0  0  0  0
    9.0130  -16.0095   21.2315 N   0  0  0  0  0  0  0  0  0  0  0  0
    8.9343  -17.0363   22.2394 C   0  0  1  0  0  0  0  0  0  0  0  0
    9.6517  -18.3060   21.8411 C   0  0  0  0  0  0  0  0  0  0  0  0
    9.4562  -19.4179   22.8141 C   0  0  0  0  0  0  0  0  0  0  0  0
   10.1128  -20.6393   22.2888 C   0  0  0  0  0  0  0  0  0  0  0  0
    9.6577  -21.2185   21.2724 O   0  0  0  0  0  0  0  0  0  0  0  0
    9.4220  -16.5247   23.5509 C   0  0  0  0  0  0  0  0  0  0  0  0
   10.5388  -15.9246   23.6463 O   0  0  0  0  0  0  0  0  0  0  0  0
   11.2323  -21.1634   22.9018 O   0  0  0  0  0  0  0  0  0  0  0  0
    6.1722  -10.7456   26.0046 O   0  0  0  0  0  0  0  0  0  0  0  0
    6.6101  -12.0505   26.2242 C   0  0  0  0  0  0  0  0  0  0  0  0
    7.9371  -12.3253   26.3809 C   0  0  0  0  0  0  0  0  0  0  0  0
    8.3797  -13.6120   26.5985 C   0  0  0  0  0  0  0  0  0  0  0  0
    7.4512  -14.6289   26.6560 C   0  0  0  0  0  0  0  0  0  0  0  0
    7.9418  -15.9920   26.8861 C   0  0  0  0  0  0  0  0  0  0  0  0
    9.1487  -16.3658   26.0590 C   0  0  2  0  0  0  0  0  0  0  0  0
    8.6472  -16.6985   24.7175 N   0  0  0  0  0  0  0  0  0  0  0  0
    9.9265  -17.4631   26.6317 C   0  0  0  0  0  0  0  0  0  0  0  0
   10.6420  -17.2477   27.8103 O   0  0  0  0  0  0  0  0  0  0  0  0
    6.1134  -14.3689   26.5005 C   0  0  0  0  0  0  0  0  0  0  0  0
    5.6996  -13.0827   26.2856 C   0  0  0  0  0  0  0  0  0  0  0  0
    9.9607  -18.5909   26.0823 O   0  0  0  0  0  0  0  0  0  0  0  0
  1  5  1  0
  2  3  1  0
  2  1  1  0
  3  4  1  0
  5  4  1  0
  6  7  2  0
  5  6  1  1
  8  6  1  0
  9  8  1  0
  9 10  1  6
 11 10  1  0
 12 11  1  0
 13 12  2  0
 14  9  1  0
 14 15  2  0
 16 12  1  0
 18 17  1  0
 19 18  2  0
 20 19  1  0
 21 20  2  0
 21 27  1  0
 22 21  1  0
 23 24  1  0
 23 22  1  1
 24 14  1  0
 25 23  1  0
 26 25  1  0
 27 28  2  0
 28 18  1  0
 29 25  2  0
M  END
$$$$
