PEY.pdb
     RDKit          3D

 29 30  0  0  1  0  0  0  0  0999 V2000
    8.8271  -14.5171   18.0158 N   0  0  0  0  0  0  0  0  0  0  0  0
    8.4002  -13.4846   17.0890 C   0  0  0  0  0  0  0  0  0  0  0  0
    7.1212  -12.9952   17.7244 C   0  0  0  0  0  0  0  0  0  0  0  0
    7.1820  -13.4240   19.1866 C   0  0  0  0  0  0  0  0  0  0  0  0
    8.6357  -13.8550   19.2957 C   0  0  1  0  0  0  0  0  0  0  0  0
    8.8515  -14.8307   20.3844 C   0  0  0  0  0  0  0  0  0  0  0  0
    8.5475  -14.5419   21.5749 O   0  0  0  0  0  0  0  0  0  0  0  0
    9.4115  -16.1291   20.1154 N   0  0  0  0  0  0  0  0  0  0  0  0
    9.5156  -17.1169   21.1593 C   0  0  1  0  0  0  0  0  0  0  0  0
   10.1776  -18.3941   20.6949 C   0  0  0  0  0  0  0  0  0  0  0  0
   10.2795  -19.4235   21.7679 C   0  0  0  0  0  0  0  0  0  0  0  0
   10.9431  -20.6300   21.2172 C   0  0  0  0  0  0  0  0  0  0  0  0
   12.1933  -20.6766   21.1144 O   0  0  0  0  0  0  0  0  0  0  0  0
   10.2041  -16.5504   22.3529 C   0  0  0  0  0  0  0  0  0  0  0  0
   11.3746  -16.0621   22.2643 O   0  0  0  0  0  0  0  0  0  0  0  0
   10.2056  -21.7218   20.8079 O   0  0  0  0  0  0  0  0  0  0  0  0
   10.9011  -14.2285   30.9023 O   0  0  0  0  0  0  0  0  0  0  0  0
   10.4571  -14.5857   29.6303 C   0  0  0  0  0  0  0  0  0  0  0  0
   10.1751  -15.8857   29.3279 C   0  0  0  0  0  0  0  0  0  0  0  0
    9.7356  -16.2487   28.0734 C   0  0  0  0  0  0  0  0  0  0  0  0
    9.5835  -15.2675   27.1175 C   0  0  0  0  0  0  0  0  0  0  0  0
    9.1169  -15.6736   25.7875 C   0  0  0  0  0  0  0  0  0  0  0  0
   10.2214  -16.0598   24.8327 C   0  0  2  0  0  0  0  0  0  0  0  0
    9.5642  -16.5461   23.6107 N   0  0  0  0  0  0  0  0  0  0  0  0
   11.1416  -17.0537   25.3825 C   0  0  0  0  0  0  0  0  0  0  0  0
   10.7586  -18.3953   25.4083 O   0  0  0  0  0  0  0  0  0  0  0  0
    9.8629  -13.9558   27.4058 C   0  0  0  0  0  0  0  0  0  0  0  0
   10.2978  -13.6215   28.6591 C   0  0  0  0  0  0  0  0  0  0  0  0
   12.2659  -16.7206   25.8298 O   0  0  0  0  0  0  0  0  0  0  0  0
  1  5  1  0
  2  3  1  0
  2  1  1  0
  3  4  1  0
  5  4  1  0
  6  7  2  0
  5  6  1  1
  8  6  1  0
  9  8  1  0
  9 10  1  6
 11 10  1  0
 12 11  1  0
 13 12  2  0
 14  9  1  0
 14 15  2  0
 16 12  1  0
 18 17  1  0
 19 18  2  0
 20 19  1  0
 21 20  2  0
 21 27  1  0
 22 21  1  0
 23 24  1  0
 23 22  1  1
 24 14  1  0
 25 23  1  0
 26 25  1  0
 27 28  2  0
 28 18  1  0
 29 25  2  0
M  END
$$$$
