PEY.pdb
     RDKit          3D

 29 30  0  0  1  0  0  0  0  0999 V2000
    8.7610  -15.0126   17.4955 N   0  0  0  0  0  0  0  0  0  0  0  0
    8.4637  -14.1087   16.3993 C   0  0  0  0  0  0  0  0  0  0  0  0
    7.3267  -13.2896   16.9612 C   0  0  0  0  0  0  0  0  0  0  0  0
    7.3986  -13.4461   18.4764 C   0  0  0  0  0  0  0  0  0  0  0  0
    8.7610  -14.1030   18.6295 C   0  0  1  0  0  0  0  0  0  0  0  0
    8.8698  -14.8844   19.8791 C   0  0  0  0  0  0  0  0  0  0  0  0
    8.7190  -14.3259   21.0008 O   0  0  0  0  0  0  0  0  0  0  0  0
    9.1494  -16.2960   19.8481 N   0  0  0  0  0  0  0  0  0  0  0  0
    9.1321  -17.0770   21.0590 C   0  0  1  0  0  0  0  0  0  0  0  0
    9.8555  -18.3967   20.9166 C   0  0  0  0  0  0  0  0  0  0  0  0
    9.8694  -19.1946   22.1754 C   0  0  0  0  0  0  0  0  0  0  0  0
   10.6101  -20.4572   21.9379 C   0  0  0  0  0  0  0  0  0  0  0  0
    9.9921  -21.5140   21.6607 O   0  0  0  0  0  0  0  0  0  0  0  0
    9.6647  -16.2855   22.2032 C   0  0  0  0  0  0  0  0  0  0  0  0
   10.8266  -15.7709   22.1601 O   0  0  0  0  0  0  0  0  0  0  0  0
   11.9870  -20.4983   22.0157 O   0  0  0  0  0  0  0  0  0  0  0  0
    5.5413  -11.7736   28.2822 O   0  0  0  0  0  0  0  0  0  0  0  0
    6.3429  -12.2939   27.2676 C   0  0  0  0  0  0  0  0  0  0  0  0
    7.6473  -11.9144   27.1434 C   0  0  0  0  0  0  0  0  0  0  0  0
    8.4477  -12.4231   26.1437 C   0  0  0  0  0  0  0  0  0  0  0  0
    7.9046  -13.3315   25.2610 C   0  0  0  0  0  0  0  0  0  0  0  0
    8.7715  -13.8601   24.2024 C   0  0  0  0  0  0  0  0  0  0  0  0
    9.3188  -15.2402   24.4788 C   0  0  2  0  0  0  0  0  0  0  0  0
    8.8833  -16.0920   23.3623 N   0  0  0  0  0  0  0  0  0  0  0  0
    8.8965  -15.7835   25.7685 C   0  0  0  0  0  0  0  0  0  0  0  0
    9.4818  -15.2952   26.9374 O   0  0  0  0  0  0  0  0  0  0  0  0
    6.5947  -13.7233   25.3724 C   0  0  0  0  0  0  0  0  0  0  0  0
    5.8210  -13.2033   26.3739 C   0  0  0  0  0  0  0  0  0  0  0  0
    8.0196  -16.6784   25.8406 O   0  0  0  0  0  0  0  0  0  0  0  0
  1  5  1  0
  2  3  1  0
  2  1  1  0
  3  4  1  0
  5  4  1  0
  6  7  2  0
  5  6  1  1
  8  6  1  0
  9  8  1  0
  9 10  1  6
 11 10  1  0
 12 11  1  0
 13 12  2  0
 14  9  1  0
 14 15  2  0
 16 12  1  0
 18 17  1  0
 19 18  2  0
 20 19  1  0
 21 20  2  0
 21 27  1  0
 22 21  1  0
 23 24  1  0
 23 22  1  6
 24 14  1  0
 25 23  1  0
 26 25  1  0
 27 28  2  0
 28 18  1  0
 29 25  2  0
M  END
$$$$
