GCF.pdb
     RDKit          3D

 22 22  0  0  1  0  0  0  0  0999 V2000
   27.5135  -18.5649  -18.6565 N   0  0  0  0  0  0  0  0  0  0  0  0
   26.1255  -18.9410  -18.8510 C   0  0  0  0  0  0  0  0  0  0  0  0
   25.3004  -18.5835  -17.6674 C   0  0  0  0  0  0  0  0  0  0  0  0
   25.2686  -17.4077  -17.2773 O   0  0  0  0  0  0  0  0  0  0  0  0
   24.5373  -19.5765  -16.9649 N   0  0  0  0  0  0  0  0  0  0  0  0
   23.6441  -19.2274  -15.8817 C   0  0  1  0  0  0  0  0  0  0  0  0
   22.5508  -18.3075  -16.4423 C   0  0  0  0  0  0  0  0  0  0  0  0
   21.3968  -17.7777  -15.1865 S   0  0  0  0  0  0  0  0  0  0  0  0
   22.9458  -20.4595  -15.4412 C   0  0  0  0  0  0  0  0  0  0  0  0
   22.3785  -21.1609  -16.3103 O   0  0  0  0  0  0  0  0  0  0  0  0
   22.8901  -20.8780  -14.0950 N   0  0  0  0  0  0  0  0  0  0  0  0
   22.2626  -22.1380  -13.7731 C   0  0  1  0  0  0  0  0  0  0  0  0
   23.2424  -23.0862  -13.1204 C   0  0  0  0  0  0  0  0  0  0  0  0
   24.3330  -23.4322  -14.0478 C   0  0  0  0  0  0  0  0  0  0  0  0
   24.3466  -24.6547  -14.6830 C   0  0  0  0  0  0  0  0  0  0  0  0
   25.3676  -24.9548  -15.5471 C   0  0  0  0  0  0  0  0  0  0  0  0
   26.3994  -24.0879  -15.8211 C   0  0  0  0  0  0  0  0  0  0  0  0
   26.3984  -22.8596  -15.1914 C   0  0  0  0  0  0  0  0  0  0  0  0
   25.3782  -22.5481  -14.3221 C   0  0  0  0  0  0  0  0  0  0  0  0
   21.0829  -21.8242  -12.9391 C   0  0  0  0  0  0  0  0  0  0  0  0
   20.9077  -20.6716  -12.4826 O   0  0  0  0  0  0  0  0  0  0  0  0
   20.1309  -22.7814  -12.6301 O   0  0  0  0  0  0  0  0  0  0  0  0
  2  1  1  0
  3  2  1  0
  4  3  2  0
  5  3  1  0
  6  5  1  0
  6  9  1  0
  6  7  1  6
  8  7  1  0
  9 10  2  0
 11  9  1  0
 11 12  1  0
 12 13  1  1
 13 14  1  0
 14 19  2  0
 15 16  2  0
 15 14  1  0
 16 17  1  0
 17 18  2  0
 19 18  1  0
 20 12  1  0
 20 22  1  0
 21 20  2  0
M  END
$$$$
