GCF.pdb
     RDKit          3D

 22 22  0  0  1  0  0  0  0  0999 V2000
   27.9307  -21.0604  -16.2272 N   0  0  0  0  0  0  0  0  0  0  0  0
   27.9669  -21.7133  -14.9317 C   0  0  0  0  0  0  0  0  0  0  0  0
   27.3024  -20.8836  -13.8926 C   0  0  0  0  0  0  0  0  0  0  0  0
   27.7703  -19.7723  -13.6067 O   0  0  0  0  0  0  0  0  0  0  0  0
   26.1258  -21.3456  -13.2116 N   0  0  0  0  0  0  0  0  0  0  0  0
   25.5034  -20.5765  -12.1560 C   0  0  1  0  0  0  0  0  0  0  0  0
   24.0134  -20.9423  -12.1139 C   0  0  0  0  0  0  0  0  0  0  0  0
   23.1926  -20.2891  -10.6686 S   0  0  0  0  0  0  0  0  0  0  0  0
   26.0652  -21.0288  -10.8599 C   0  0  0  0  0  0  0  0  0  0  0  0
   26.1528  -22.2606  -10.6507 O   0  0  0  0  0  0  0  0  0  0  0  0
   26.5040  -20.1410   -9.8550 N   0  0  0  0  0  0  0  0  0  0  0  0
   26.9702  -20.6743   -8.5967 C   0  0  1  0  0  0  0  0  0  0  0  0
   28.2324  -19.9781   -8.1414 C   0  0  0  0  0  0  0  0  0  0  0  0
   28.2921  -19.9111   -6.6713 C   0  0  0  0  0  0  0  0  0  0  0  0
   27.8529  -18.7872   -6.0062 C   0  0  0  0  0  0  0  0  0  0  0  0
   27.9114  -18.7473   -4.6373 C   0  0  0  0  0  0  0  0  0  0  0  0
   28.3933  -19.7857   -3.8751 C   0  0  0  0  0  0  0  0  0  0  0  0
   28.8369  -20.9178   -4.5286 C   0  0  0  0  0  0  0  0  0  0  0  0
   28.7825  -20.9684   -5.9027 C   0  0  0  0  0  0  0  0  0  0  0  0
   25.8447  -20.5622   -7.6448 C   0  0  0  0  0  0  0  0  0  0  0  0
   25.0298  -19.6148   -7.7228 O   0  0  0  0  0  0  0  0  0  0  0  0
   25.6452  -21.4903   -6.6364 O   0  0  0  0  0  0  0  0  0  0  0  0
  2  1  1  0
  3  2  1  0
  4  3  2  0
  5  3  1  0
  6  5  1  0
  6  9  1  0
  6  7  1  1
  8  7  1  0
  9 10  2  0
 11  9  1  0
 11 12  1  0
 12 13  1  1
 13 14  1  0
 14 19  2  0
 15 16  2  0
 15 14  1  0
 16 17  1  0
 17 18  2  0
 19 18  1  0
 20 12  1  0
 20 22  1  0
 21 20  2  0
M  END
$$$$
