GCF.pdb
     RDKit          3D

 22 22  0  0  1  0  0  0  0  0999 V2000
   23.4164  -33.8982  -13.8817 N   0  0  0  0  0  0  0  0  0  0  0  0
   23.9199  -32.8752  -12.9841 C   0  0  0  0  0  0  0  0  0  0  0  0
   23.7638  -33.2824  -11.5630 C   0  0  0  0  0  0  0  0  0  0  0  0
   23.1778  -34.3400  -11.2913 O   0  0  0  0  0  0  0  0  0  0  0  0
   24.2800  -32.4722  -10.4958 N   0  0  0  0  0  0  0  0  0  0  0  0
   23.9869  -32.7603   -9.1086 C   0  0  1  0  0  0  0  0  0  0  0  0
   24.9552  -31.9482   -8.2376 C   0  0  0  0  0  0  0  0  0  0  0  0
   24.7874  -32.3249   -6.5000 S   0  0  0  0  0  0  0  0  0  0  0  0
   22.6339  -32.2357   -8.8020 C   0  0  0  0  0  0  0  0  0  0  0  0
   22.0956  -32.5808   -7.7250 O   0  0  0  0  0  0  0  0  0  0  0  0
   21.9267  -31.3696   -9.6624 N   0  0  0  0  0  0  0  0  0  0  0  0
   20.6635  -30.8206   -9.2285 C   0  0  1  0  0  0  0  0  0  0  0  0
   20.6471  -29.3148   -9.3609 C   0  0  0  0  0  0  0  0  0  0  0  0
   20.6275  -28.9140  -10.7780 C   0  0  0  0  0  0  0  0  0  0  0  0
   19.4341  -28.8225  -11.4603 C   0  0  0  0  0  0  0  0  0  0  0  0
   19.4372  -28.4418  -12.7772 C   0  0  0  0  0  0  0  0  0  0  0  0
   20.5865  -28.1403  -13.4695 C   0  0  0  0  0  0  0  0  0  0  0  0
   21.7894  -28.2280  -12.7982 C   0  0  0  0  0  0  0  0  0  0  0  0
   21.7976  -28.6091  -11.4759 C   0  0  0  0  0  0  0  0  0  0  0  0
   19.6120  -31.5045  -10.0109 C   0  0  0  0  0  0  0  0  0  0  0  0
   18.4039  -31.3862   -9.7037 O   0  0  0  0  0  0  0  0  0  0  0  0
   19.9145  -32.2971  -11.1055 O   0  0  0  0  0  0  0  0  0  0  0  0
  2  1  1  0
  3  2  1  0
  4  3  2  0
  5  3  1  0
  6  5  1  0
  6  9  1  0
  6  7  1  1
  8  7  1  0
  9 10  2  0
 11  9  1  0
 11 12  1  0
 12 13  1  6
 13 14  1  0
 14 19  2  0
 15 16  2  0
 15 14  1  0
 16 17  1  0
 17 18  2  0
 19 18  1  0
 20 12  1  0
 20 22  1  0
 21 20  2  0
M  END
$$$$
