GCF.pdb
     RDKit          3D

 22 22  0  0  1  0  0  0  0  0999 V2000
   26.0188  -15.3759  -19.2543 N   0  0  0  0  0  0  0  0  0  0  0  0
   25.4636  -16.6775  -18.9326 C   0  0  0  0  0  0  0  0  0  0  0  0
   24.5326  -16.5944  -17.7768 C   0  0  0  0  0  0  0  0  0  0  0  0
   24.8088  -15.8547  -16.8217 O   0  0  0  0  0  0  0  0  0  0  0  0
   23.3160  -17.3565  -17.7449 N   0  0  0  0  0  0  0  0  0  0  0  0
   22.4444  -17.3547  -16.5902 C   0  0  1  0  0  0  0  0  0  0  0  0
   21.0016  -17.1745  -17.0815 C   0  0  0  0  0  0  0  0  0  0  0  0
   20.5217  -15.4565  -17.1690 S   0  0  0  0  0  0  0  0  0  0  0  0
   22.4929  -18.7015  -15.9708 C   0  0  0  0  0  0  0  0  0  0  0  0
   22.4589  -19.7011  -16.7249 O   0  0  0  0  0  0  0  0  0  0  0  0
   22.5752  -18.9099  -14.5778 N   0  0  0  0  0  0  0  0  0  0  0  0
   22.7078  -20.2560  -14.0724 C   0  0  1  0  0  0  0  0  0  0  0  0
   23.9351  -20.3947  -13.2008 C   0  0  0  0  0  0  0  0  0  0  0  0
   25.1630  -20.2031  -13.9913 C   0  0  0  0  0  0  0  0  0  0  0  0
   25.7263  -21.2605  -14.6716 C   0  0  0  0  0  0  0  0  0  0  0  0
   26.8658  -21.0598  -15.4065 C   0  0  0  0  0  0  0  0  0  0  0  0
   27.4912  -19.8389  -15.5051 C   0  0  0  0  0  0  0  0  0  0  0  0
   26.9376  -18.7707  -14.8283 C   0  0  0  0  0  0  0  0  0  0  0  0
   25.7936  -18.9613  -14.0876 C   0  0  0  0  0  0  0  0  0  0  0  0
   21.4406  -20.5773  -13.3821 C   0  0  0  0  0  0  0  0  0  0  0  0
   21.1582  -21.7579  -13.0752 O   0  0  0  0  0  0  0  0  0  0  0  0
   20.5210  -19.5969  -13.0487 O   0  0  0  0  0  0  0  0  0  0  0  0
  2  1  1  0
  3  2  1  0
  4  3  2  0
  5  3  1  0
  6  5  1  0
  6  9  1  0
  6  7  1  6
  8  7  1  0
  9 10  2  0
 11  9  1  0
 11 12  1  0
 12 13  1  1
 13 14  1  0
 14 19  2  0
 15 16  2  0
 15 14  1  0
 16 17  1  0
 17 18  2  0
 19 18  1  0
 20 12  1  0
 20 22  1  0
 21 20  2  0
M  END
$$$$
