GCF.pdb
     RDKit          3D

 22 22  0  0  1  0  0  0  0  0999 V2000
   18.7691  -25.5644   -9.9785 N   0  0  0  0  0  0  0  0  0  0  0  0
   18.6813  -26.9775   -9.6601 C   0  0  0  0  0  0  0  0  0  0  0  0
   17.9871  -27.1945   -8.3637 C   0  0  0  0  0  0  0  0  0  0  0  0
   17.6926  -26.2197   -7.6576 O   0  0  0  0  0  0  0  0  0  0  0  0
   17.6502  -28.5153   -7.9121 N   0  0  0  0  0  0  0  0  0  0  0  0
   16.8820  -28.7366   -6.7063 C   0  0  1  0  0  0  0  0  0  0  0  0
   16.0886  -30.0392   -6.8781 C   0  0  0  0  0  0  0  0  0  0  0  0
   15.3572  -30.5979   -5.3477 S   0  0  0  0  0  0  0  0  0  0  0  0
   17.8292  -28.9868   -5.5927 C   0  0  0  0  0  0  0  0  0  0  0  0
   18.7728  -29.7874   -5.7871 O   0  0  0  0  0  0  0  0  0  0  0  0
   17.7188  -28.3685   -4.3293 N   0  0  0  0  0  0  0  0  0  0  0  0
   18.8028  -28.4963   -3.3840 C   0  0  1  0  0  0  0  0  0  0  0  0
   19.2376  -27.1450   -2.8642 C   0  0  0  0  0  0  0  0  0  0  0  0
   18.0800  -26.3719   -2.3830 C   0  0  0  0  0  0  0  0  0  0  0  0
   17.4227  -25.5030   -3.2263 C   0  0  0  0  0  0  0  0  0  0  0  0
   16.3437  -24.7973   -2.7605 C   0  0  0  0  0  0  0  0  0  0  0  0
   15.8709  -24.9096   -1.4740 C   0  0  0  0  0  0  0  0  0  0  0  0
   16.5202  -25.7766   -0.6183 C   0  0  0  0  0  0  0  0  0  0  0  0
   17.6044  -26.4899   -1.0757 C   0  0  0  0  0  0  0  0  0  0  0  0
   18.3407  -29.4254   -2.3309 C   0  0  0  0  0  0  0  0  0  0  0  0
   17.1358  -29.7559   -2.2501 O   0  0  0  0  0  0  0  0  0  0  0  0
   19.2113  -29.9644   -1.3985 O   0  0  0  0  0  0  0  0  0  0  0  0
  2  1  1  0
  3  2  1  0
  4  3  2  0
  5  3  1  0
  6  5  1  0
  6  9  1  0
  6  7  1  6
  8  7  1  0
  9 10  2  0
 11  9  1  0
 11 12  1  0
 12 13  1  1
 13 14  1  0
 14 19  2  0
 15 16  2  0
 15 14  1  0
 16 17  1  0
 17 18  2  0
 19 18  1  0
 20 12  1  0
 20 22  1  0
 21 20  2  0
M  END
$$$$
