GCF.pdb
     RDKit          3D

 22 22  0  0  1  0  0  0  0  0999 V2000
   44.1188   -8.5103   -9.3529 N   0  0  0  0  0  0  0  0  0  0  0  0
   42.9745   -7.6769   -9.6720 C   0  0  0  0  0  0  0  0  0  0  0  0
   42.3265   -7.1579   -8.4390 C   0  0  0  0  0  0  0  0  0  0  0  0
   42.6219   -7.6492   -7.3404 O   0  0  0  0  0  0  0  0  0  0  0  0
   41.3624   -6.0953   -8.4958 N   0  0  0  0  0  0  0  0  0  0  0  0
   40.7097   -5.5926   -7.3066 C   0  0  1  0  0  0  0  0  0  0  0  0
   41.4248   -4.3039   -6.8782 C   0  0  0  0  0  0  0  0  0  0  0  0
   40.5612   -3.4488   -5.5697 S   0  0  0  0  0  0  0  0  0  0  0  0
   39.3311   -5.1851   -7.6716 C   0  0  0  0  0  0  0  0  0  0  0  0
   39.1256   -4.7691   -8.8350 O   0  0  0  0  0  0  0  0  0  0  0  0
   38.2440   -5.2434   -6.7742 N   0  0  0  0  0  0  0  0  0  0  0  0
   36.9412   -4.8027   -7.2143 C   0  0  1  0  0  0  0  0  0  0  0  0
   35.8596   -5.2536   -6.2594 C   0  0  0  0  0  0  0  0  0  0  0  0
   36.1819   -4.8564   -4.8782 C   0  0  0  0  0  0  0  0  0  0  0  0
   36.8168   -5.7368   -4.0296 C   0  0  0  0  0  0  0  0  0  0  0  0
   37.1132   -5.3454   -2.7498 C   0  0  0  0  0  0  0  0  0  0  0  0
   36.8067   -4.0994   -2.2550 C   0  0  0  0  0  0  0  0  0  0  0  0
   36.1702   -3.2073   -3.0944 C   0  0  0  0  0  0  0  0  0  0  0  0
   35.8681   -3.5900   -4.3812 C   0  0  0  0  0  0  0  0  0  0  0  0
   37.0230   -3.3361   -7.3813 C   0  0  0  0  0  0  0  0  0  0  0  0
   37.8978   -2.6696   -6.7829 O   0  0  0  0  0  0  0  0  0  0  0  0
   36.1448   -2.6434   -8.1980 O   0  0  0  0  0  0  0  0  0  0  0  0
  2  1  1  0
  3  2  1  0
  4  3  2  0
  5  3  1  0
  6  5  1  0
  6  9  1  0
  6  7  1  6
  8  7  1  0
  9 10  2  0
 11  9  1  0
 11 12  1  0
 12 13  1  1
 13 14  1  0
 14 19  2  0
 15 16  2  0
 15 14  1  0
 16 17  1  0
 17 18  2  0
 19 18  1  0
 20 12  1  0
 20 22  1  0
 21 20  2  0
M  END
$$$$
