GCF.pdb
     RDKit          3D

 22 22  0  0  1  0  0  0  0  0999 V2000
   22.9114  -13.1812  -19.5155 N   0  0  0  0  0  0  0  0  0  0  0  0
   22.3942  -12.4611  -18.3667 C   0  0  0  0  0  0  0  0  0  0  0  0
   22.5033  -10.9912  -18.5597 C   0  0  0  0  0  0  0  0  0  0  0  0
   23.6220  -10.4584  -18.5750 O   0  0  0  0  0  0  0  0  0  0  0  0
   21.3347  -10.1742  -18.7291 N   0  0  0  0  0  0  0  0  0  0  0  0
   21.4274   -8.7516  -18.9755 C   0  0  1  0  0  0  0  0  0  0  0  0
   20.2743   -8.3523  -19.9065 C   0  0  0  0  0  0  0  0  0  0  0  0
   20.6421   -8.6769  -21.6236 S   0  0  0  0  0  0  0  0  0  0  0  0
   21.1760   -8.0425  -17.6972 C   0  0  0  0  0  0  0  0  0  0  0  0
   20.2583   -8.4651  -16.9568 O   0  0  0  0  0  0  0  0  0  0  0  0
   21.9183   -6.9187  -17.2770 N   0  0  0  0  0  0  0  0  0  0  0  0
   21.7436   -6.4199  -15.9332 C   0  0  1  0  0  0  0  0  0  0  0  0
   23.0611   -6.3662  -15.1939 C   0  0  0  0  0  0  0  0  0  0  0  0
   23.6414   -7.7132  -15.0596 C   0  0  0  0  0  0  0  0  0  0  0  0
   23.1298   -8.6045  -14.1419 C   0  0  0  0  0  0  0  0  0  0  0  0
   23.6804   -9.8554  -14.0369 C   0  0  0  0  0  0  0  0  0  0  0  0
   24.7353  -10.2795  -14.8107 C   0  0  0  0  0  0  0  0  0  0  0  0
   25.2578   -9.3966  -15.7341 C   0  0  0  0  0  0  0  0  0  0  0  0
   24.7125   -8.1383  -15.8478 C   0  0  0  0  0  0  0  0  0  0  0  0
   21.0661   -5.1112  -16.0506 C   0  0  0  0  0  0  0  0  0  0  0  0
   20.8535   -4.5967  -17.1721 O   0  0  0  0  0  0  0  0  0  0  0  0
   20.6418   -4.4054  -14.9371 O   0  0  0  0  0  0  0  0  0  0  0  0
  2  1  1  0
  3  2  1  0
  4  3  2  0
  5  3  1  0
  6  5  1  0
  6  9  1  0
  6  7  1  6
  8  7  1  0
  9 10  2  0
 11  9  1  0
 11 12  1  0
 12 13  1  6
 13 14  1  0
 14 19  2  0
 15 16  2  0
 15 14  1  0
 16 17  1  0
 17 18  2  0
 19 18  1  0
 20 12  1  0
 20 22  1  0
 21 20  2  0
M  END
$$$$
