GCF.pdb
     RDKit          3D

 22 22  0  0  1  0  0  0  0  0999 V2000
   29.5657  -22.0807  -16.1391 N   0  0  0  0  0  0  0  0  0  0  0  0
   28.1915  -22.1727  -15.6818 C   0  0  0  0  0  0  0  0  0  0  0  0
   27.8652  -21.0744  -14.7348 C   0  0  0  0  0  0  0  0  0  0  0  0
   28.2123  -19.9149  -15.0009 O   0  0  0  0  0  0  0  0  0  0  0  0
   27.1537  -21.3310  -13.5143 N   0  0  0  0  0  0  0  0  0  0  0  0
   26.5214  -20.2694  -12.7618 C   0  0  1  0  0  0  0  0  0  0  0  0
   25.2728  -19.8171  -13.5314 C   0  0  0  0  0  0  0  0  0  0  0  0
   24.1151  -21.1511  -13.7950 S   0  0  0  0  0  0  0  0  0  0  0  0
   26.0230  -20.8387  -11.4861 C   0  0  0  0  0  0  0  0  0  0  0  0
   25.7739  -22.0655  -11.4431 O   0  0  0  0  0  0  0  0  0  0  0  0
   25.8169  -20.0674  -10.3229 N   0  0  0  0  0  0  0  0  0  0  0  0
   25.3654  -20.7181   -9.1155 C   0  0  1  0  0  0  0  0  0  0  0  0
   25.5838  -19.8387   -7.9055 C   0  0  0  0  0  0  0  0  0  0  0  0
   26.9907  -19.8845   -7.4722 C   0  0  0  0  0  0  0  0  0  0  0  0
   27.5206  -18.8629   -6.7148 C   0  0  0  0  0  0  0  0  0  0  0  0
   28.8307  -18.9277   -6.3166 C   0  0  0  0  0  0  0  0  0  0  0  0
   29.6625  -19.9750   -6.6367 C   0  0  0  0  0  0  0  0  0  0  0  0
   29.1446  -21.0054   -7.3954 C   0  0  0  0  0  0  0  0  0  0  0  0
   27.8306  -20.9504   -7.8003 C   0  0  0  0  0  0  0  0  0  0  0  0
   23.9531  -21.0943   -9.3384 C   0  0  0  0  0  0  0  0  0  0  0  0
   23.2852  -20.5660  -10.2563 O   0  0  0  0  0  0  0  0  0  0  0  0
   23.3149  -22.0372   -8.5501 O   0  0  0  0  0  0  0  0  0  0  0  0
  2  1  1  0
  3  2  1  0
  4  3  2  0
  5  3  1  0
  6  5  1  0
  6  9  1  0
  6  7  1  6
  8  7  1  0
  9 10  2  0
 11  9  1  0
 11 12  1  0
 12 13  1  1
 13 14  1  0
 14 19  2  0
 15 16  2  0
 15 14  1  0
 16 17  1  0
 17 18  2  0
 19 18  1  0
 20 12  1  0
 20 22  1  0
 21 20  2  0
M  END
$$$$
