GCF.pdb
     RDKit          3D

 22 22  0  0  1  0  0  0  0  0999 V2000
   20.4229  -15.7740  -17.5558 N   0  0  0  0  0  0  0  0  0  0  0  0
   19.8712  -14.5701  -16.9625 C   0  0  0  0  0  0  0  0  0  0  0  0
   20.7796  -13.4097  -17.1571 C   0  0  0  0  0  0  0  0  0  0  0  0
   21.9882  -13.5321  -16.9123 O   0  0  0  0  0  0  0  0  0  0  0  0
   20.2830  -12.1460  -17.6244 N   0  0  0  0  0  0  0  0  0  0  0  0
   21.1673  -11.0380  -17.9128 C   0  0  1  0  0  0  0  0  0  0  0  0
   20.5257  -10.1911  -19.0205 C   0  0  0  0  0  0  0  0  0  0  0  0
   20.8589  -10.8378  -20.6514 S   0  0  0  0  0  0  0  0  0  0  0  0
   21.2191  -10.1627  -16.7165 C   0  0  0  0  0  0  0  0  0  0  0  0
   20.1770  -10.0312  -16.0341 O   0  0  0  0  0  0  0  0  0  0  0  0
   22.3818   -9.4735  -16.3119 N   0  0  0  0  0  0  0  0  0  0  0  0
   22.3412   -8.6608  -15.1190 C   0  0  1  0  0  0  0  0  0  0  0  0
   23.3516   -9.1348  -14.0994 C   0  0  0  0  0  0  0  0  0  0  0  0
   24.5457   -9.6857  -14.7627 C   0  0  0  0  0  0  0  0  0  0  0  0
   24.8523  -11.0240  -14.6474 C   0  0  0  0  0  0  0  0  0  0  0  0
   25.9649  -11.5180  -15.2775 C   0  0  0  0  0  0  0  0  0  0  0  0
   26.8091  -10.7383  -16.0329 C   0  0  0  0  0  0  0  0  0  0  0  0
   26.5140   -9.3956  -16.1567 C   0  0  0  0  0  0  0  0  0  0  0  0
   25.3993   -8.8893  -15.5283 C   0  0  0  0  0  0  0  0  0  0  0  0
   22.5353   -7.2607  -15.5521 C   0  0  0  0  0  0  0  0  0  0  0  0
   22.3739   -6.3125  -14.7506 O   0  0  0  0  0  0  0  0  0  0  0  0
   22.9002   -6.9409  -16.8493 O   0  0  0  0  0  0  0  0  0  0  0  0
  2  1  1  0
  3  2  1  0
  4  3  2  0
  5  3  1  0
  6  5  1  0
  6  9  1  0
  6  7  1  6
  8  7  1  0
  9 10  2  0
 11  9  1  0
 11 12  1  0
 12 13  1  1
 13 14  1  0
 14 19  2  0
 15 16  2  0
 15 14  1  0
 16 17  1  0
 17 18  2  0
 19 18  1  0
 20 12  1  0
 20 22  1  0
 21 20  2  0
M  END
$$$$
