GCF.pdb
     RDKit          3D

 22 22  0  0  1  0  0  0  0  0999 V2000
   27.8383  -21.6859  -16.6813 N   0  0  0  0  0  0  0  0  0  0  0  0
   27.5842  -20.7303  -15.6193 C   0  0  0  0  0  0  0  0  0  0  0  0
   26.6645  -21.2945  -14.5968 C   0  0  0  0  0  0  0  0  0  0  0  0
   25.6979  -21.9812  -14.9568 O   0  0  0  0  0  0  0  0  0  0  0  0
   26.8746  -21.0588  -13.1960 N   0  0  0  0  0  0  0  0  0  0  0  0
   25.9237  -21.4965  -12.1974 C   0  0  1  0  0  0  0  0  0  0  0  0
   26.5216  -21.2137  -10.8125 C   0  0  0  0  0  0  0  0  0  0  0  0
   25.3275  -21.4186   -9.5005 S   0  0  0  0  0  0  0  0  0  0  0  0
   24.7181  -20.6384  -12.2977 C   0  0  0  0  0  0  0  0  0  0  0  0
   24.8751  -19.3957  -12.3021 O   0  0  0  0  0  0  0  0  0  0  0  0
   23.4075  -21.1530  -12.3881 N   0  0  0  0  0  0  0  0  0  0  0  0
   22.3015  -20.2407  -12.5602 C   0  0  1  0  0  0  0  0  0  0  0  0
   22.2903  -19.6509  -13.9521 C   0  0  0  0  0  0  0  0  0  0  0  0
   21.7417  -20.6124  -14.9236 C   0  0  0  0  0  0  0  0  0  0  0  0
   20.3953  -20.6164  -15.2164 C   0  0  0  0  0  0  0  0  0  0  0  0
   19.9058  -21.5153  -16.1281 C   0  0  0  0  0  0  0  0  0  0  0  0
   20.6977  -22.4316  -16.7798 C   0  0  0  0  0  0  0  0  0  0  0  0
   22.0485  -22.4388  -16.4958 C   0  0  0  0  0  0  0  0  0  0  0  0
   22.5505  -21.5405  -15.5822 C   0  0  0  0  0  0  0  0  0  0  0  0
   21.0750  -20.9902  -12.2148 C   0  0  0  0  0  0  0  0  0  0  0  0
   19.9849  -20.3967  -12.0501 O   0  0  0  0  0  0  0  0  0  0  0  0
   21.0787  -22.3664  -12.0602 O   0  0  0  0  0  0  0  0  0  0  0  0
  2  1  1  0
  3  2  1  0
  4  3  2  0
  5  3  1  0
  6  5  1  0
  6  9  1  0
  6  7  1  1
  8  7  1  0
  9 10  2  0
 11  9  1  0
 11 12  1  0
 12 13  1  6
 13 14  1  0
 14 19  2  0
 15 16  2  0
 15 14  1  0
 16 17  1  0
 17 18  2  0
 19 18  1  0
 20 12  1  0
 20 22  1  0
 21 20  2  0
M  END
$$$$
