GCF.pdb
     RDKit          3D

 22 22  0  0  1  0  0  0  0  0999 V2000
   18.2071  -11.1766  -15.8640 N   0  0  0  0  0  0  0  0  0  0  0  0
   17.4975   -9.9727  -15.4730 C   0  0  0  0  0  0  0  0  0  0  0  0
   17.8348   -9.5780  -14.0801 C   0  0  0  0  0  0  0  0  0  0  0  0
   17.2463  -10.1179  -13.1326 O   0  0  0  0  0  0  0  0  0  0  0  0
   18.8319   -8.5808  -13.8100 N   0  0  0  0  0  0  0  0  0  0  0  0
   19.1489   -8.1642  -12.4613 C   0  0  1  0  0  0  0  0  0  0  0  0
   20.5405   -7.5169  -12.4763 C   0  0  0  0  0  0  0  0  0  0  0  0
   21.8535   -8.7229  -12.3726 S   0  0  0  0  0  0  0  0  0  0  0  0
   18.2075   -7.0846  -12.0763 C   0  0  0  0  0  0  0  0  0  0  0  0
   17.9315   -6.2087  -12.9281 O   0  0  0  0  0  0  0  0  0  0  0  0
   17.6102   -6.9974  -10.8011 N   0  0  0  0  0  0  0  0  0  0  0  0
   16.6449   -5.9546  -10.5438 C   0  0  1  0  0  0  0  0  0  0  0  0
   15.2742   -6.3408  -11.0508 C   0  0  0  0  0  0  0  0  0  0  0  0
   14.6417   -7.3227  -10.1537 C   0  0  0  0  0  0  0  0  0  0  0  0
   15.0107   -8.6493  -10.2009 C   0  0  0  0  0  0  0  0  0  0  0  0
   14.4141   -9.5462   -9.3530 C   0  0  0  0  0  0  0  0  0  0  0  0
   13.4490   -9.1900   -8.4403 C   0  0  0  0  0  0  0  0  0  0  0  0
   13.0696   -7.8640   -8.3825 C   0  0  0  0  0  0  0  0  0  0  0  0
   13.6622   -6.9554   -9.2290 C   0  0  0  0  0  0  0  0  0  0  0  0
   16.6937   -5.6795   -9.0921 C   0  0  0  0  0  0  0  0  0  0  0  0
   15.9483   -4.8152   -8.5771 O   0  0  0  0  0  0  0  0  0  0  0  0
   17.5566   -6.3584   -8.2482 O   0  0  0  0  0  0  0  0  0  0  0  0
  2  1  1  0
  3  2  1  0
  4  3  2  0
  5  3  1  0
  6  5  1  0
  6  9  1  0
  6  7  1  6
  8  7  1  0
  9 10  2  0
 11  9  1  0
 11 12  1  0
 12 13  1  1
 13 14  1  0
 14 19  2  0
 15 16  2  0
 15 14  1  0
 16 17  1  0
 17 18  2  0
 19 18  1  0
 20 12  1  0
 20 22  1  0
 21 20  2  0
M  END
$$$$
