PPK.pdb
     RDKit          3D

 24 25  0  0  1  0  0  0  0  0999 V2000
    9.1035  -13.7210   21.0260 N   0  0  0  0  0  0  0  0  0  0  0  0
    8.3711  -14.4763   20.0592 C   0  0  0  0  0  0  0  0  0  0  0  0
    6.9775  -13.8941   20.0110 C   0  0  0  0  0  0  0  0  0  0  0  0
    6.8732  -13.1956   21.3285 C   0  0  0  0  0  0  0  0  0  0  0  0
    8.1875  -13.2346   22.0263 C   0  0  1  0  0  0  0  0  0  0  0  0
    8.1671  -14.1245   23.2326 C   0  0  0  0  0  0  0  0  0  0  0  0
    8.5055  -15.3087   23.0446 O   0  0  0  0  0  0  0  0  0  0  0  0
    7.7935  -13.6714   24.5032 N   0  0  0  0  0  0  0  0  0  0  0  0
    7.6776  -12.2141   24.7882 C   0  0  0  0  0  0  0  0  0  0  0  0
    6.2592  -12.2139   25.3356 C   0  0  0  0  0  0  0  0  0  0  0  0
    6.0511  -13.6091   25.9505 C   0  0  0  0  0  0  0  0  0  0  0  0
    7.4421  -14.1922   25.7469 C   0  0  1  0  0  0  0  0  0  0  0  0
    7.5334  -15.5986   26.0488 C   0  0  0  0  0  0  0  0  0  0  0  0
    6.5241  -16.2769   26.3129 O   0  0  0  0  0  0  0  0  0  0  0  0
    8.7843  -16.3055   26.0651 N   0  0  0  0  0  0  0  0  0  0  0  0
    8.9279  -17.7195   26.3165 C   0  0  1  0  0  0  0  0  0  0  0  0
    9.7654  -18.4214   25.3273 C   0  0  0  0  0  0  0  0  0  0  0  0
    9.9923  -19.8743   25.4936 C   0  0  0  0  0  0  0  0  0  0  0  0
   10.9174  -20.4861   24.4766 C   0  0  0  0  0  0  0  0  0  0  0  0
   11.0641  -21.9704   24.7432 C   0  0  0  0  0  0  0  0  0  0  0  0
   11.8550  -22.5570   23.6673 N   0  0  0  0  0  0  0  0  0  0  0  0
    9.3657  -18.0041   27.6986 C   0  0  0  0  0  0  0  0  0  0  0  0
    9.9159  -16.9853   28.4547 O   0  0  0  0  0  0  0  0  0  0  0  0
    9.2853  -19.1197   28.2737 O   0  0  0  0  0  0  0  0  0  0  0  0
  1  2  1  0
  3  2  1  0
  4  5  1  0
  4  3  1  0
  5  1  1  0
  6  7  2  0
  5  6  1  1
  8  6  1  0
  9  8  1  0
 10  9  1  0
 11 10  1  0
 11 12  1  0
 12  8  1  0
 12 13  1  6
 14 13  2  0
 15 13  1  0
 16 22  1  0
 16 15  1  0
 17 18  1  0
 16 17  1  6
 18 19  1  0
 20 19  1  0
 20 21  1  0
 22 23  1  0
 24 22  2  0
M  END
$$$$
