PPK.pdb
     RDKit          3D

 24 25  0  0  1  0  0  0  0  0999 V2000
    8.8609  -14.4068   21.1696 N   0  0  0  0  0  0  0  0  0  0  0  0
    8.2701  -15.5118   20.4827 C   0  0  0  0  0  0  0  0  0  0  0  0
    6.7790  -15.2680   20.4597 C   0  0  0  0  0  0  0  0  0  0  0  0
    6.5905  -14.3095   21.5912 C   0  0  0  0  0  0  0  0  0  0  0  0
    7.9156  -13.8983   22.1307 C   0  0  1  0  0  0  0  0  0  0  0  0
    8.1713  -14.4526   23.5000 C   0  0  0  0  0  0  0  0  0  0  0  0
    8.7148  -15.5728   23.5440 O   0  0  0  0  0  0  0  0  0  0  0  0
    7.8276  -13.7683   24.6717 N   0  0  0  0  0  0  0  0  0  0  0  0
    7.7821  -12.2798   24.6986 C   0  0  0  0  0  0  0  0  0  0  0  0
    6.3689  -12.1172   25.2352 C   0  0  0  0  0  0  0  0  0  0  0  0
    6.0997  -13.3728   26.0832 C   0  0  0  0  0  0  0  0  0  0  0  0
    7.4604  -14.0475   25.9865 C   0  0  1  0  0  0  0  0  0  0  0  0
    7.4876  -15.3827   26.5287 C   0  0  0  0  0  0  0  0  0  0  0  0
    6.4434  -15.9793   26.8486 O   0  0  0  0  0  0  0  0  0  0  0  0
    8.7107  -16.1081   26.7345 N   0  0  0  0  0  0  0  0  0  0  0  0
    8.7906  -17.5096   27.0699 C   0  0  1  0  0  0  0  0  0  0  0  0
    8.6110  -18.4120   25.9183 C   0  0  0  0  0  0  0  0  0  0  0  0
    8.7584  -19.8693   26.1294 C   0  0  0  0  0  0  0  0  0  0  0  0
    8.6475  -20.6995   24.8793 C   0  0  0  0  0  0  0  0  0  0  0  0
    8.8624  -22.1618   25.2132 C   0  0  0  0  0  0  0  0  0  0  0  0
    8.7916  -22.9330   23.9775 N   0  0  0  0  0  0  0  0  0  0  0  0
   10.0133  -17.8377   27.8316 C   0  0  0  0  0  0  0  0  0  0  0  0
    9.9827  -18.8814   28.7385 O   0  0  0  0  0  0  0  0  0  0  0  0
   11.1156  -17.2403   27.7337 O   0  0  0  0  0  0  0  0  0  0  0  0
  1  2  1  0
  3  2  1  0
  4  5  1  0
  4  3  1  0
  5  1  1  0
  6  7  2  0
  5  6  1  1
  8  6  1  0
  9  8  1  0
 10  9  1  0
 11 10  1  0
 11 12  1  0
 12  8  1  0
 12 13  1  6
 14 13  2  0
 15 13  1  0
 16 22  1  0
 16 15  1  0
 17 18  1  0
 16 17  1  6
 18 19  1  0
 20 19  1  0
 20 21  1  0
 22 23  1  0
 24 22  2  0
M  END
$$$$
