PPK.pdb
     RDKit          3D

 24 25  0  0  1  0  0  0  0  0999 V2000
    8.6573  -14.1944   21.3781 N   0  0  0  0  0  0  0  0  0  0  0  0
    8.1865  -15.4392   20.8578 C   0  0  0  0  0  0  0  0  0  0  0  0
    6.6849  -15.4462   21.0273 C   0  0  0  0  0  0  0  0  0  0  0  0
    6.4765  -14.4323   22.1059 C   0  0  0  0  0  0  0  0  0  0  0  0
    7.7668  -13.7621   22.4251 C   0  0  1  0  0  0  0  0  0  0  0  0
    8.2863  -14.1398   23.7797 C   0  0  0  0  0  0  0  0  0  0  0  0
    9.0066  -15.1553   23.8258 O   0  0  0  0  0  0  0  0  0  0  0  0
    7.9915  -13.4085   24.9362 N   0  0  0  0  0  0  0  0  0  0  0  0
    7.7264  -11.9445   24.8644 C   0  0  0  0  0  0  0  0  0  0  0  0
    6.3823  -11.9341   25.5748 C   0  0  0  0  0  0  0  0  0  0  0  0
    6.4120  -13.1341   26.5376 C   0  0  0  0  0  0  0  0  0  0  0  0
    7.8361  -13.6178   26.3049 C   0  0  1  0  0  0  0  0  0  0  0  0
    8.1307  -14.8823   26.9309 C   0  0  0  0  0  0  0  0  0  0  0  0
    7.2288  -15.6735   27.2613 O   0  0  0  0  0  0  0  0  0  0  0  0
    9.4730  -15.3104   27.2131 N   0  0  0  0  0  0  0  0  0  0  0  0
    9.8301  -16.6031   27.7466 C   0  0  1  0  0  0  0  0  0  0  0  0
   10.6304  -17.4304   26.8259 C   0  0  0  0  0  0  0  0  0  0  0  0
   11.1074  -18.7515   27.2921 C   0  0  0  0  0  0  0  0  0  0  0  0
   11.9599  -19.4970   26.3014 C   0  0  0  0  0  0  0  0  0  0  0  0
   12.4308  -20.8027   26.9092 C   0  0  0  0  0  0  0  0  0  0  0  0
   13.3749  -21.4266   25.9891 N   0  0  0  0  0  0  0  0  0  0  0  0
   10.4612  -16.5077   29.0791 C   0  0  0  0  0  0  0  0  0  0  0  0
   10.7977  -15.2625   29.5779 O   0  0  0  0  0  0  0  0  0  0  0  0
   10.7325  -17.4804   29.8287 O   0  0  0  0  0  0  0  0  0  0  0  0
  1  2  1  0
  3  2  1  0
  4  5  1  0
  4  3  1  0
  5  1  1  0
  6  7  2  0
  5  6  1  1
  8  6  1  0
  9  8  1  0
 10  9  1  0
 11 10  1  0
 11 12  1  0
 12  8  1  0
 12 13  1  6
 14 13  2  0
 15 13  1  0
 16 22  1  0
 16 15  1  0
 17 18  1  0
 16 17  1  6
 18 19  1  0
 20 19  1  0
 20 21  1  0
 22 23  1  0
 24 22  2  0
M  END
$$$$
