PPK.pdb
     RDKit          3D

 24 25  0  0  1  0  0  0  0  0999 V2000
    8.8428  -17.8630   17.5572 N   0  0  0  0  0  0  0  0  0  0  0  0
    8.6096  -19.1397   18.1552 C   0  0  0  0  0  0  0  0  0  0  0  0
    7.1906  -19.1286   18.6746 C   0  0  0  0  0  0  0  0  0  0  0  0
    6.9027  -17.6670   18.7981 C   0  0  0  0  0  0  0  0  0  0  0  0
    8.0311  -16.8802   18.2291 C   0  0  1  0  0  0  0  0  0  0  0  0
    8.8090  -16.1528   19.2842 C   0  0  0  0  0  0  0  0  0  0  0  0
    9.4979  -16.8617   20.0424 O   0  0  0  0  0  0  0  0  0  0  0  0
    8.7769  -14.7606   19.4257 N   0  0  0  0  0  0  0  0  0  0  0  0
    8.4826  -13.8832   18.2586 C   0  0  0  0  0  0  0  0  0  0  0  0
    7.3368  -13.0912   18.8681 C   0  0  0  0  0  0  0  0  0  0  0  0
    7.6024  -13.0762   20.3838 C   0  0  0  0  0  0  0  0  0  0  0  0
    8.9419  -13.7979   20.4194 C   0  0  1  0  0  0  0  0  0  0  0  0
    9.3890  -14.1294   21.7489 C   0  0  0  0  0  0  0  0  0  0  0  0
   10.4984  -13.7612   22.1759 O   0  0  0  0  0  0  0  0  0  0  0  0
    8.5913  -14.9002   22.6624 N   0  0  0  0  0  0  0  0  0  0  0  0
    8.8695  -15.0549   24.0702 C   0  0  1  0  0  0  0  0  0  0  0  0
    7.7160  -14.7716   24.9430 C   0  0  0  0  0  0  0  0  0  0  0  0
    7.4623  -13.3720   25.3513 C   0  0  0  0  0  0  0  0  0  0  0  0
    6.2461  -13.1806   26.2165 C   0  0  0  0  0  0  0  0  0  0  0  0
    6.0574  -11.7078   26.5185 C   0  0  0  0  0  0  0  0  0  0  0  0
    4.8504  -11.5520   27.3221 N   0  0  0  0  0  0  0  0  0  0  0  0
    9.4792  -16.3637   24.3833 C   0  0  0  0  0  0  0  0  0  0  0  0
   10.0985  -16.5434   25.6067 O   0  0  0  0  0  0  0  0  0  0  0  0
    9.4915  -17.3635   23.6204 O   0  0  0  0  0  0  0  0  0  0  0  0
  1  2  1  0
  3  2  1  0
  4  5  1  0
  4  3  1  0
  5  1  1  0
  6  7  2  0
  5  6  1  1
  8  6  1  0
  9  8  1  0
 10  9  1  0
 11 10  1  0
 11 12  1  0
 12  8  1  0
 12 13  1  1
 14 13  2  0
 15 13  1  0
 16 22  1  0
 16 15  1  0
 17 18  1  0
 16 17  1  1
 18 19  1  0
 20 19  1  0
 20 21  1  0
 22 23  1  0
 24 22  2  0
M  END
$$$$
