PPK.pdb
     RDKit          3D

 24 25  0  0  1  0  0  0  0  0999 V2000
    8.7010  -14.1506   21.3214 N   0  0  0  0  0  0  0  0  0  0  0  0
    8.1999  -15.3713   20.7732 C   0  0  0  0  0  0  0  0  0  0  0  0
    6.6945  -15.3222   20.8952 C   0  0  0  0  0  0  0  0  0  0  0  0
    6.4906  -14.3113   21.9774 C   0  0  0  0  0  0  0  0  0  0  0  0
    7.7947  -13.6943   22.3443 C   0  0  1  0  0  0  0  0  0  0  0  0
    8.2558  -14.1045   23.7106 C   0  0  0  0  0  0  0  0  0  0  0  0
    8.9102  -15.1628   23.7722 O   0  0  0  0  0  0  0  0  0  0  0  0
    7.9784  -13.3570   24.8610 N   0  0  0  0  0  0  0  0  0  0  0  0
    7.7063  -11.8953   24.7720 C   0  0  0  0  0  0  0  0  0  0  0  0
    6.3747  -11.8792   25.5057 C   0  0  0  0  0  0  0  0  0  0  0  0
    6.4261  -13.0646   26.4856 C   0  0  0  0  0  0  0  0  0  0  0  0
    7.8478  -13.5464   26.2353 C   0  0  1  0  0  0  0  0  0  0  0  0
    8.1583  -14.8002   26.8747 C   0  0  0  0  0  0  0  0  0  0  0  0
    7.2649  -15.5647   27.2822 O   0  0  0  0  0  0  0  0  0  0  0  0
    9.5078  -15.2478   27.0830 N   0  0  0  0  0  0  0  0  0  0  0  0
    9.8746  -16.5394   27.6125 C   0  0  1  0  0  0  0  0  0  0  0  0
   10.7629  -17.3177   26.7305 C   0  0  0  0  0  0  0  0  0  0  0  0
   11.2378  -18.6413   27.1915 C   0  0  0  0  0  0  0  0  0  0  0  0
   12.2000  -19.3238   26.2574 C   0  0  0  0  0  0  0  0  0  0  0  0
   12.6254  -20.6557   26.8414 C   0  0  0  0  0  0  0  0  0  0  0  0
   13.6005  -21.2636   25.9433 N   0  0  0  0  0  0  0  0  0  0  0  0
   10.4124  -16.4531   28.9858 C   0  0  0  0  0  0  0  0  0  0  0  0
   10.5246  -17.6071   29.7395 O   0  0  0  0  0  0  0  0  0  0  0  0
   10.7896  -15.3975   29.5560 O   0  0  0  0  0  0  0  0  0  0  0  0
  1  2  1  0
  3  2  1  0
  4  5  1  0
  4  3  1  0
  5  1  1  0
  6  7  2  0
  5  6  1  1
  8  6  1  0
  9  8  1  0
 10  9  1  0
 11 10  1  0
 11 12  1  0
 12  8  1  0
 12 13  1  6
 14 13  2  0
 15 13  1  0
 16 22  1  0
 16 15  1  0
 17 18  1  0
 16 17  1  6
 18 19  1  0
 20 19  1  0
 20 21  1  0
 22 23  1  0
 24 22  2  0
M  END
$$$$
