PPK.pdb
     RDKit          3D

 24 25  0  0  1  0  0  0  0  0999 V2000
    8.8582  -14.2309   21.1801 N   0  0  0  0  0  0  0  0  0  0  0  0
    8.2376  -15.2203   20.3568 C   0  0  0  0  0  0  0  0  0  0  0  0
    6.7802  -14.8398   20.2359 C   0  0  0  0  0  0  0  0  0  0  0  0
    6.5762  -13.9588   21.4262 C   0  0  0  0  0  0  0  0  0  0  0  0
    7.8795  -13.7140   22.1026 C   0  0  1  0  0  0  0  0  0  0  0  0
    7.9672  -14.3942   23.4358 C   0  0  0  0  0  0  0  0  0  0  0  0
    8.3465  -15.5808   23.4207 O   0  0  0  0  0  0  0  0  0  0  0  0
    7.6468  -13.7520   24.6375 N   0  0  0  0  0  0  0  0  0  0  0  0
    7.6645  -12.2657   24.7348 C   0  0  0  0  0  0  0  0  0  0  0  0
    6.2566  -12.0685   25.2739 C   0  0  0  0  0  0  0  0  0  0  0  0
    5.9298  -13.3501   26.0605 C   0  0  0  0  0  0  0  0  0  0  0  0
    7.2611  -14.0771   25.9363 C   0  0  1  0  0  0  0  0  0  0  0  0
    7.2286  -15.4363   26.4147 C   0  0  0  0  0  0  0  0  0  0  0  0
    6.1563  -16.0119   26.6749 O   0  0  0  0  0  0  0  0  0  0  0  0
    8.4209  -16.2112   26.6215 N   0  0  0  0  0  0  0  0  0  0  0  0
    8.4428  -17.6117   26.9698 C   0  0  1  0  0  0  0  0  0  0  0  0
    8.4995  -18.5168   25.8078 C   0  0  0  0  0  0  0  0  0  0  0  0
    8.4875  -19.9774   26.0452 C   0  0  0  0  0  0  0  0  0  0  0  0
    8.6232  -20.8168   24.8037 C   0  0  0  0  0  0  0  0  0  0  0  0
    8.5612  -22.2863   25.1680 C   0  0  0  0  0  0  0  0  0  0  0  0
    8.6865  -23.0710   23.9452 N   0  0  0  0  0  0  0  0  0  0  0  0
    9.4940  -17.9299   27.9580 C   0  0  0  0  0  0  0  0  0  0  0  0
    9.3321  -19.0265   28.7848 O   0  0  0  0  0  0  0  0  0  0  0  0
   10.5566  -17.2788   28.1273 O   0  0  0  0  0  0  0  0  0  0  0  0
  1  2  1  0
  3  2  1  0
  4  5  1  0
  4  3  1  0
  5  1  1  0
  6  7  2  0
  5  6  1  1
  8  6  1  0
  9  8  1  0
 10  9  1  0
 11 10  1  0
 11 12  1  0
 12  8  1  0
 12 13  1  6
 14 13  2  0
 15 13  1  0
 16 22  1  0
 16 15  1  0
 17 18  1  0
 16 17  1  6
 18 19  1  0
 20 19  1  0
 20 21  1  0
 22 23  1  0
 24 22  2  0
M  END
$$$$
