PPK.pdb
     RDKit          3D

 24 25  0  0  1  0  0  0  0  0999 V2000
    8.6726  -13.8342   21.2527 N   0  0  0  0  0  0  0  0  0  0  0  0
    8.3572  -15.0796   20.6272 C   0  0  0  0  0  0  0  0  0  0  0  0
    6.8740  -15.3012   20.8131 C   0  0  0  0  0  0  0  0  0  0  0  0
    6.5598  -14.4233   21.9816 C   0  0  0  0  0  0  0  0  0  0  0  0
    7.7581  -13.6184   22.3451 C   0  0  1  0  0  0  0  0  0  0  0  0
    8.3547  -14.0419   23.6536 C   0  0  0  0  0  0  0  0  0  0  0  0
    9.2295  -14.9270   23.5951 O   0  0  0  0  0  0  0  0  0  0  0  0
    7.9661  -13.4882   24.8790 N   0  0  0  0  0  0  0  0  0  0  0  0
    7.5758  -12.0541   24.9770 C   0  0  0  0  0  0  0  0  0  0  0  0
    6.2174  -12.2450   25.6325 C   0  0  0  0  0  0  0  0  0  0  0  0
    6.3262  -13.5494   26.4417 C   0  0  0  0  0  0  0  0  0  0  0  0
    7.7930  -13.8794   26.2051 C   0  0  1  0  0  0  0  0  0  0  0  0
    8.1803  -15.1832   26.6822 C   0  0  0  0  0  0  0  0  0  0  0  0
    7.3426  -16.0821   26.8794 O   0  0  0  0  0  0  0  0  0  0  0  0
    9.5469  -15.5296   26.9598 N   0  0  0  0  0  0  0  0  0  0  0  0
    9.9968  -16.8358   27.3778 C   0  0  1  0  0  0  0  0  0  0  0  0
   10.9733  -17.4538   26.4628 C   0  0  0  0  0  0  0  0  0  0  0  0
   11.4861  -18.8052   26.7802 C   0  0  0  0  0  0  0  0  0  0  0  0
   12.5339  -19.3187   25.8302 C   0  0  0  0  0  0  0  0  0  0  0  0
   12.9361  -20.7262   26.2212 C   0  0  0  0  0  0  0  0  0  0  0  0
   14.0365  -21.1478   25.3619 N   0  0  0  0  0  0  0  0  0  0  0  0
   10.4793  -16.8452   28.7742 C   0  0  0  0  0  0  0  0  0  0  0  0
   10.5715  -18.0497   29.4474 O   0  0  0  0  0  0  0  0  0  0  0  0
   10.8248  -15.8311   29.4329 O   0  0  0  0  0  0  0  0  0  0  0  0
  1  2  1  0
  3  2  1  0
  4  5  1  0
  4  3  1  0
  5  1  1  0
  6  7  2  0
  5  6  1  1
  8  6  1  0
  9  8  1  0
 10  9  1  0
 11 10  1  0
 11 12  1  0
 12  8  1  0
 12 13  1  6
 14 13  2  0
 15 13  1  0
 16 22  1  0
 16 15  1  0
 17 18  1  0
 16 17  1  6
 18 19  1  0
 20 19  1  0
 20 21  1  0
 22 23  1  0
 24 22  2  0
M  END
$$$$
