PPK.pdb
     RDKit          3D

 24 25  0  0  1  0  0  0  0  0999 V2000
    9.1037  -13.9974   21.2840 N   0  0  0  0  0  0  0  0  0  0  0  0
    8.3269  -14.6536   20.2800 C   0  0  0  0  0  0  0  0  0  0  0  0
    7.0536  -13.8560   20.1189 C   0  0  0  0  0  0  0  0  0  0  0  0
    6.9732  -13.1104   21.4120 C   0  0  0  0  0  0  0  0  0  0  0  0
    8.2120  -13.3397   22.2050 C   0  0  1  0  0  0  0  0  0  0  0  0
    7.9630  -14.1779   23.4229 C   0  0  0  0  0  0  0  0  0  0  0  0
    8.1049  -15.4073   23.2792 O   0  0  0  0  0  0  0  0  0  0  0  0
    7.5926  -13.6313   24.6571 N   0  0  0  0  0  0  0  0  0  0  0  0
    7.7370  -12.1719   24.9177 C   0  0  0  0  0  0  0  0  0  0  0  0
    6.3092  -11.8894   25.3570 C   0  0  0  0  0  0  0  0  0  0  0  0
    5.7949  -13.2044   25.9689 C   0  0  0  0  0  0  0  0  0  0  0  0
    7.0600  -14.0455   25.8762 C   0  0  1  0  0  0  0  0  0  0  0  0
    6.8591  -15.4359   26.1985 C   0  0  0  0  0  0  0  0  0  0  0  0
    5.7902  -15.8455   26.6866 O   0  0  0  0  0  0  0  0  0  0  0  0
    7.8701  -16.4333   25.9801 N   0  0  0  0  0  0  0  0  0  0  0  0
    7.7479  -17.8239   26.3470 C   0  0  1  0  0  0  0  0  0  0  0  0
    7.5714  -18.7324   25.1998 C   0  0  0  0  0  0  0  0  0  0  0  0
    7.3841  -20.1769   25.4612 C   0  0  0  0  0  0  0  0  0  0  0  0
    7.2686  -21.0290   24.2264 C   0  0  0  0  0  0  0  0  0  0  0  0
    7.0270  -22.4724   24.6193 C   0  0  0  0  0  0  0  0  0  0  0  0
    6.9024  -23.2674   23.4030 N   0  0  0  0  0  0  0  0  0  0  0  0
    8.8439  -18.2716   27.2308 C   0  0  0  0  0  0  0  0  0  0  0  0
    8.6832  -19.4289   27.9706 O   0  0  0  0  0  0  0  0  0  0  0  0
    9.9450  -17.6831   27.3823 O   0  0  0  0  0  0  0  0  0  0  0  0
  1  2  1  0
  3  2  1  0
  4  5  1  0
  4  3  1  0
  5  1  1  0
  6  7  2  0
  5  6  1  1
  8  6  1  0
  9  8  1  0
 10  9  1  0
 11 10  1  0
 11 12  1  0
 12  8  1  0
 12 13  1  6
 14 13  2  0
 15 13  1  0
 16 22  1  0
 16 15  1  0
 17 18  1  0
 16 17  1  6
 18 19  1  0
 20 19  1  0
 20 21  1  0
 22 23  1  0
 24 22  2  0
M  END
$$$$
