ILK.pdb
     RDKit          3D

 26 25  0  0  1  0  0  0  0  0999 V2000
   29.3919  -18.8876  -18.9780 C   0  0  0  0  0  0  0  0  0  0  0  0
   28.4268  -18.1618  -18.0912 C   0  0  0  0  0  0  0  0  0  0  0  0
   27.6763  -19.1387  -17.2363 C   0  0  2  0  0  0  0  0  0  0  0  0
   27.0276  -20.1518  -18.1310 C   0  0  0  0  0  0  0  0  0  0  0  0
   26.6374  -18.4319  -16.3905 C   0  0  2  0  0  0  0  0  0  0  0  0
   27.1866  -17.3462  -15.6399 N   0  0  0  0  0  0  0  0  0  0  0  0
   26.0246  -19.4733  -15.4943 C   0  0  0  0  0  0  0  0  0  0  0  0
   25.5400  -20.5333  -15.9643 O   0  0  0  0  0  0  0  0  0  0  0  0
   25.8191  -20.0520   -9.3321 C   0  0  0  0  0  0  0  0  0  0  0  0
   25.4366  -20.6848  -10.6526 C   0  0  2  0  0  0  0  0  0  0  0  0
   25.5051  -22.1785  -10.6223 C   0  0  0  0  0  0  0  0  0  0  0  0
   25.9566  -19.9999  -11.8403 C   0  0  0  0  0  0  0  0  0  0  0  0
   25.3971  -20.2528  -13.1809 C   0  0  2  0  0  0  0  0  0  0  0  0
   26.0045  -19.2338  -14.0978 N   0  0  0  0  0  0  0  0  0  0  0  0
   23.9469  -20.1550  -13.3728 C   0  0  0  0  0  0  0  0  0  0  0  0
   23.3614  -19.0119  -13.2896 O   0  0  0  0  0  0  0  0  0  0  0  0
   23.0915  -21.2516  -13.6638 N   0  0  0  0  0  0  0  0  0  0  0  0
   21.6832  -21.0392  -13.7316 C   0  0  1  0  0  0  0  0  0  0  0  0
   21.0209  -21.9022  -14.7963 C   0  0  0  0  0  0  0  0  0  0  0  0
   19.5546  -21.5626  -14.9561 C   0  0  0  0  0  0  0  0  0  0  0  0
   18.9466  -22.5005  -15.9631 C   0  0  0  0  0  0  0  0  0  0  0  0
   17.5591  -22.0976  -16.3887 C   0  0  0  0  0  0  0  0  0  0  0  0
   17.0866  -22.9519  -17.4882 N   0  0  0  0  0  0  0  0  0  0  0  0
   20.9602  -21.2706  -12.4679 C   0  0  0  0  0  0  0  0  0  0  0  0
   21.3156  -22.0981  -11.6093 O   0  0  0  0  0  0  0  0  0  0  0  0
   19.7898  -20.5294  -12.1760 O   0  0  0  0  0  0  0  0  0  0  0  0
  2  1  1  0
  3  2  1  0
  3  4  1  6
  5  3  1  0
  5  6  1  1
  7  5  1  0
  8  7  2  0
 10  9  1  1
 10 12  1  0
 11 10  1  0
 13 12  1  1
 13 15  1  0
 13 14  1  0
 14  7  1  0
 15 16  2  0
 17 15  1  0
 17 18  1  0
 18 24  1  0
 18 19  1  6
 20 19  1  0
 21 20  1  0
 22 21  1  0
 23 22  1  0
 24 25  2  0
 24 26  1  0
M  END
$$$$
