ILK.pdb
     RDKit          3D

 26 25  0  0  1  0  0  0  0  0999 V2000
   26.4232  -21.3955  -19.9094 C   0  0  0  0  0  0  0  0  0  0  0  0
   27.0596  -21.5768  -18.5653 C   0  0  0  0  0  0  0  0  0  0  0  0
   26.0045  -21.7180  -17.5093 C   0  0  2  0  0  0  0  0  0  0  0  0
   25.1584  -20.4803  -17.5154 C   0  0  0  0  0  0  0  0  0  0  0  0
   26.6281  -21.9303  -16.1453 C   0  0  2  0  0  0  0  0  0  0  0  0
   27.4635  -23.0894  -16.0981 N   0  0  0  0  0  0  0  0  0  0  0  0
   25.4958  -22.0208  -15.1590 C   0  0  0  0  0  0  0  0  0  0  0  0
   24.7235  -23.0121  -15.1432 O   0  0  0  0  0  0  0  0  0  0  0  0
   25.1214  -22.4340  -10.6018 C   0  0  0  0  0  0  0  0  0  0  0  0
   25.6170  -21.0634  -11.0094 C   0  0  2  0  0  0  0  0  0  0  0  0
   26.1432  -20.2694   -9.8565 C   0  0  0  0  0  0  0  0  0  0  0  0
   24.7786  -20.3697  -11.9922 C   0  0  0  0  0  0  0  0  0  0  0  0
   24.2564  -21.0634  -13.1841 C   0  0  2  0  0  0  0  0  0  0  0  0
   25.3156  -20.9574  -14.2399 N   0  0  0  0  0  0  0  0  0  0  0  0
   23.0198  -20.5750  -13.8023 C   0  0  0  0  0  0  0  0  0  0  0  0
   23.0039  -19.4340  -14.3974 O   0  0  0  0  0  0  0  0  0  0  0  0
   21.7858  -21.2791  -13.8138 N   0  0  0  0  0  0  0  0  0  0  0  0
   20.6367  -20.6640  -14.3916 C   0  0  1  0  0  0  0  0  0  0  0  0
   19.9398  -21.5723  -15.3948 C   0  0  0  0  0  0  0  0  0  0  0  0
   18.8118  -20.8558  -16.1055 C   0  0  0  0  0  0  0  0  0  0  0  0
   18.1864  -21.7992  -17.0966 C   0  0  0  0  0  0  0  0  0  0  0  0
   17.1154  -21.1546  -17.9368 C   0  0  0  0  0  0  0  0  0  0  0  0
   16.4802  -22.1471  -18.8163 N   0  0  0  0  0  0  0  0  0  0  0  0
   19.6188  -20.2190  -13.4226 C   0  0  0  0  0  0  0  0  0  0  0  0
   19.5198  -20.6704  -12.2673 O   0  0  0  0  0  0  0  0  0  0  0  0
   18.6814  -19.2228  -13.7877 O   0  0  0  0  0  0  0  0  0  0  0  0
  2  1  1  0
  3  2  1  0
  3  4  1  1
  5  3  1  0
  5  6  1  6
  7  5  1  0
  8  7  2  0
 10  9  1  1
 10 12  1  0
 11 10  1  0
 13 12  1  1
 13 15  1  0
 13 14  1  0
 14  7  1  0
 15 16  2  0
 17 15  1  0
 17 18  1  0
 18 24  1  0
 18 19  1  6
 20 19  1  0
 21 20  1  0
 22 21  1  0
 23 22  1  0
 24 25  2  0
 24 26  1  0
M  END
$$$$
