ILK.pdb
     RDKit          3D

 26 25  0  0  1  0  0  0  0  0999 V2000
   16.8860  -22.5748  -13.1882 C   0  0  0  0  0  0  0  0  0  0  0  0
   17.9716  -22.7428  -12.1694 C   0  0  0  0  0  0  0  0  0  0  0  0
   19.1385  -21.8644  -12.5088 C   0  0  2  0  0  0  0  0  0  0  0  0
   19.6253  -22.2304  -13.8788 C   0  0  0  0  0  0  0  0  0  0  0  0
   20.2483  -22.0202  -11.4897 C   0  0  2  0  0  0  0  0  0  0  0  0
   19.8116  -21.7466  -10.1563 N   0  0  0  0  0  0  0  0  0  0  0  0
   21.3585  -21.0968  -11.9115 C   0  0  0  0  0  0  0  0  0  0  0  0
   21.2362  -19.8490  -11.8243 O   0  0  0  0  0  0  0  0  0  0  0  0
   27.0008  -21.6587  -10.9629 C   0  0  0  0  0  0  0  0  0  0  0  0
   25.7669  -20.8544  -11.3108 C   0  0  2  0  0  0  0  0  0  0  0  0
   25.0838  -20.2886  -10.1066 C   0  0  0  0  0  0  0  0  0  0  0  0
   24.9278  -21.4338  -12.3645 C   0  0  0  0  0  0  0  0  0  0  0  0
   23.6894  -20.7710  -12.8134 C   0  0  2  0  0  0  0  0  0  0  0  0
   22.5552  -21.6661  -12.4132 N   0  0  0  0  0  0  0  0  0  0  0  0
   23.5078  -20.5042  -14.2436 C   0  0  0  0  0  0  0  0  0  0  0  0
   23.2501  -21.4718  -15.0521 O   0  0  0  0  0  0  0  0  0  0  0  0
   23.5843  -19.2192  -14.8451 N   0  0  0  0  0  0  0  0  0  0  0  0
   23.3556  -19.0899  -16.2465 C   0  0  1  0  0  0  0  0  0  0  0  0
   22.6903  -17.7678  -16.6022 C   0  0  0  0  0  0  0  0  0  0  0  0
   22.4459  -17.6500  -18.0913 C   0  0  0  0  0  0  0  0  0  0  0  0
   21.7738  -16.3331  -18.3696 C   0  0  0  0  0  0  0  0  0  0  0  0
   21.4349  -16.1341  -19.8235 C   0  0  0  0  0  0  0  0  0  0  0  0
   20.7398  -14.8538  -20.0225 N   0  0  0  0  0  0  0  0  0  0  0  0
   24.5617  -19.2131  -17.0850 C   0  0  0  0  0  0  0  0  0  0  0  0
   25.7222  -19.1689  -16.6382 O   0  0  0  0  0  0  0  0  0  0  0  0
   24.4361  -19.3933  -18.4837 O   0  0  0  0  0  0  0  0  0  0  0  0
  2  1  1  0
  3  2  1  0
  3  4  1  6
  5  3  1  0
  5  6  1  1
  7  5  1  0
  8  7  2  0
 10  9  1  1
 10 12  1  0
 11 10  1  0
 13 12  1  6
 13 15  1  0
 13 14  1  0
 14  7  1  0
 15 16  2  0
 17 15  1  0
 17 18  1  0
 18 24  1  0
 18 19  1  1
 20 19  1  0
 21 20  1  0
 22 21  1  0
 23 22  1  0
 24 25  2  0
 24 26  1  0
M  END
$$$$
