ILK.pdb
     RDKit          3D

 26 25  0  0  1  0  0  0  0  0999 V2000
   19.3453  -21.2438  -15.6676 C   0  0  0  0  0  0  0  0  0  0  0  0
   19.7994  -21.3727  -14.2457 C   0  0  0  0  0  0  0  0  0  0  0  0
   21.2236  -20.9221  -14.1158 C   0  0  2  0  0  0  0  0  0  0  0  0
   22.0792  -21.7974  -14.9816 C   0  0  0  0  0  0  0  0  0  0  0  0
   21.6830  -20.9868  -12.6738 C   0  0  2  0  0  0  0  0  0  0  0  0
   20.8254  -20.2593  -11.7913 N   0  0  0  0  0  0  0  0  0  0  0  0
   23.0909  -20.4579  -12.6420 C   0  0  0  0  0  0  0  0  0  0  0  0
   23.3466  -19.2674  -12.9530 O   0  0  0  0  0  0  0  0  0  0  0  0
   25.4964  -19.6425   -9.4662 C   0  0  0  0  0  0  0  0  0  0  0  0
   25.7493  -21.1117   -9.7270 C   0  0  2  0  0  0  0  0  0  0  0  0
   26.4257  -21.7967   -8.5824 C   0  0  0  0  0  0  0  0  0  0  0  0
   26.2089  -21.4290  -11.0827 C   0  0  0  0  0  0  0  0  0  0  0  0
   25.5523  -20.8550  -12.2717 C   0  0  2  0  0  0  0  0  0  0  0  0
   24.1323  -21.3358  -12.2509 N   0  0  0  0  0  0  0  0  0  0  0  0
   26.0732  -21.1923  -13.6001 C   0  0  0  0  0  0  0  0  0  0  0  0
   25.6761  -22.2618  -14.1956 O   0  0  0  0  0  0  0  0  0  0  0  0
   27.0099  -20.4090  -14.3268 N   0  0  0  0  0  0  0  0  0  0  0  0
   26.9504  -20.3936  -15.7512 C   0  0  1  0  0  0  0  0  0  0  0  0
   25.5823  -19.9691  -16.2663 C   0  0  0  0  0  0  0  0  0  0  0  0
   25.5028  -20.0579  -17.7751 C   0  0  0  0  0  0  0  0  0  0  0  0
   24.1200  -19.6578  -18.2123 C   0  0  0  0  0  0  0  0  0  0  0  0
   23.9136  -19.7617  -19.7005 C   0  0  0  0  0  0  0  0  0  0  0  0
   22.5215  -19.4456  -20.0533 N   0  0  0  0  0  0  0  0  0  0  0  0
   27.9514  -19.5304  -16.4038 C   0  0  0  0  0  0  0  0  0  0  0  0
   28.1380  -19.4953  -17.6335 O   0  0  0  0  0  0  0  0  0  0  0  0
   28.7677  -18.6774  -15.6224 O   0  0  0  0  0  0  0  0  0  0  0  0
  2  1  1  0
  3  2  1  0
  3  4  1  6
  5  3  1  0
  5  6  1  1
  7  5  1  0
  8  7  2  0
 10  9  1  1
 10 12  1  0
 11 10  1  0
 13 12  1  1
 13 15  1  0
 13 14  1  0
 14  7  1  0
 15 16  2  0
 17 15  1  0
 17 18  1  0
 18 24  1  0
 18 19  1  1
 20 19  1  0
 21 20  1  0
 22 21  1  0
 23 22  1  0
 24 25  2  0
 24 26  1  0
M  END
$$$$
