ILK.pdb
     RDKit          3D

 26 25  0  0  1  0  0  0  0  0999 V2000
   23.8117  -21.1964   -8.1586 C   0  0  0  0  0  0  0  0  0  0  0  0
   23.4509  -21.4364   -9.5928 C   0  0  0  0  0  0  0  0  0  0  0  0
   24.4621  -20.7933  -10.4941 C   0  0  2  0  0  0  0  0  0  0  0  0
   24.5431  -19.3357  -10.1528 C   0  0  0  0  0  0  0  0  0  0  0  0
   24.0865  -20.9796  -11.9497 C   0  0  2  0  0  0  0  0  0  0  0  0
   23.8507  -22.3492  -12.2848 N   0  0  0  0  0  0  0  0  0  0  0  0
   25.2055  -20.3924  -12.7659 C   0  0  0  0  0  0  0  0  0  0  0  0
   25.3223  -19.1497  -12.9120 O   0  0  0  0  0  0  0  0  0  0  0  0
   29.2778  -19.2605  -12.4338 C   0  0  0  0  0  0  0  0  0  0  0  0
   29.1729  -20.7700  -12.4624 C   0  0  2  0  0  0  0  0  0  0  0  0
   30.4185  -21.4479  -11.9875 C   0  0  0  0  0  0  0  0  0  0  0  0
   28.5018  -21.3210  -13.6439 C   0  0  0  0  0  0  0  0  0  0  0  0
   27.2672  -20.7176  -14.1789 C   0  0  2  0  0  0  0  0  0  0  0  0
   26.1333  -21.2755  -13.3720 N   0  0  0  0  0  0  0  0  0  0  0  0
   26.9164  -20.9507  -15.5832 C   0  0  0  0  0  0  0  0  0  0  0  0
   26.4691  -22.0991  -15.9537 O   0  0  0  0  0  0  0  0  0  0  0  0
   27.0203  -19.9812  -16.6168 N   0  0  0  0  0  0  0  0  0  0  0  0
   26.5431  -20.2990  -17.9222 C   0  0  1  0  0  0  0  0  0  0  0  0
   25.8149  -19.1299  -18.5701 C   0  0  0  0  0  0  0  0  0  0  0  0
   25.2979  -19.4891  -19.9465 C   0  0  0  0  0  0  0  0  0  0  0  0
   24.4600  -18.3509  -20.4621 C   0  0  0  0  0  0  0  0  0  0  0  0
   23.4707  -18.7712  -21.5170 C   0  0  0  0  0  0  0  0  0  0  0  0
   22.2361  -19.2753  -20.8974 N   0  0  0  0  0  0  0  0  0  0  0  0
   27.5802  -20.7481  -18.8687 C   0  0  0  0  0  0  0  0  0  0  0  0
   27.4091  -21.6553  -19.7028 O   0  0  0  0  0  0  0  0  0  0  0  0
   28.8578  -20.1380  -18.8608 O   0  0  0  0  0  0  0  0  0  0  0  0
  2  1  1  0
  3  2  1  0
  3  4  1  1
  5  3  1  0
  5  6  1  6
  7  5  1  0
  8  7  2  0
 10  9  1  6
 10 12  1  0
 11 10  1  0
 13 12  1  1
 13 15  1  0
 13 14  1  0
 14  7  1  0
 15 16  2  0
 17 15  1  0
 17 18  1  0
 18 24  1  0
 18 19  1  6
 20 19  1  0
 21 20  1  0
 22 21  1  0
 23 22  1  0
 24 25  2  0
 24 26  1  0
M  END
$$$$
