ILK.pdb
     RDKit          3D

 26 25  0  0  1  0  0  0  0  0999 V2000
   26.1774  -14.6761  -17.7557 C   0  0  0  0  0  0  0  0  0  0  0  0
   27.1413  -15.6686  -17.1809 C   0  0  0  0  0  0  0  0  0  0  0  0
   26.3973  -16.7543  -16.4625 C   0  0  2  0  0  0  0  0  0  0  0  0
   25.6150  -16.1337  -15.3443 C   0  0  0  0  0  0  0  0  0  0  0  0
   27.3513  -17.8024  -15.9278 C   0  0  2  0  0  0  0  0  0  0  0  0
   28.1640  -18.3790  -16.9528 N   0  0  0  0  0  0  0  0  0  0  0  0
   26.5121  -18.8404  -15.2340 C   0  0  0  0  0  0  0  0  0  0  0  0
   25.8740  -19.7044  -15.8865 O   0  0  0  0  0  0  0  0  0  0  0  0
   26.1090  -20.4148   -9.2607 C   0  0  0  0  0  0  0  0  0  0  0  0
   25.7163  -20.7901  -10.6733 C   0  0  2  0  0  0  0  0  0  0  0  0
   25.6874  -22.2688  -10.8947 C   0  0  0  0  0  0  0  0  0  0  0  0
   26.3061  -19.9524  -11.7223 C   0  0  0  0  0  0  0  0  0  0  0  0
   25.7637  -19.9409  -13.0935 C   0  0  2  0  0  0  0  0  0  0  0  0
   26.4548  -18.8251  -13.8182 N   0  0  0  0  0  0  0  0  0  0  0  0
   24.3273  -19.7179  -13.2847 C   0  0  0  0  0  0  0  0  0  0  0  0
   23.8142  -18.5659  -13.0282 O   0  0  0  0  0  0  0  0  0  0  0  0
   23.4104  -20.6956  -13.7562 N   0  0  0  0  0  0  0  0  0  0  0  0
   22.0257  -20.3680  -13.8457 C   0  0  1  0  0  0  0  0  0  0  0  0
   21.4969  -20.4835  -15.2684 C   0  0  0  0  0  0  0  0  0  0  0  0
   20.0670  -19.9983  -15.3726 C   0  0  0  0  0  0  0  0  0  0  0  0
   19.6109  -20.1364  -16.7996 C   0  0  0  0  0  0  0  0  0  0  0  0
   18.2577  -19.5255  -17.0529 C   0  0  0  0  0  0  0  0  0  0  0  0
   17.9549  -19.5168  -18.4917 N   0  0  0  0  0  0  0  0  0  0  0  0
   21.1416  -21.1726  -12.9830 C   0  0  0  0  0  0  0  0  0  0  0  0
   21.3301  -22.3764  -12.7308 O   0  0  0  0  0  0  0  0  0  0  0  0
   20.0020  -20.5795  -12.3880 O   0  0  0  0  0  0  0  0  0  0  0  0
  2  1  1  0
  3  2  1  0
  3  4  1  1
  5  3  1  0
  5  6  1  6
  7  5  1  0
  8  7  2  0
 10  9  1  1
 10 12  1  0
 11 10  1  0
 13 12  1  1
 13 15  1  0
 13 14  1  0
 14  7  1  0
 15 16  2  0
 17 15  1  0
 17 18  1  0
 18 24  1  0
 18 19  1  6
 20 19  1  0
 21 20  1  0
 22 21  1  0
 23 22  1  0
 24 25  2  0
 24 26  1  0
M  END
$$$$
