ILK.pdb
     RDKit          3D

 26 25  0  0  1  0  0  0  0  0999 V2000
   26.7848  -18.4559  -19.5912 C   0  0  0  0  0  0  0  0  0  0  0  0
   25.7171  -18.0346  -18.6282 C   0  0  0  0  0  0  0  0  0  0  0  0
   25.4872  -19.1104  -17.6093 C   0  0  2  0  0  0  0  0  0  0  0  0
   25.1878  -20.3905  -18.3301 C   0  0  0  0  0  0  0  0  0  0  0  0
   24.3483  -18.7428  -16.6808 C   0  0  2  0  0  0  0  0  0  0  0  0
   24.5482  -17.4808  -16.0398 N   0  0  0  0  0  0  0  0  0  0  0  0
   24.2243  -19.8603  -15.6814 C   0  0  0  0  0  0  0  0  0  0  0  0
   24.0585  -21.0498  -16.0517 O   0  0  0  0  0  0  0  0  0  0  0  0
   23.2035  -21.2492  -10.4043 C   0  0  0  0  0  0  0  0  0  0  0  0
   24.6301  -20.9363  -10.8008 C   0  0  2  0  0  0  0  0  0  0  0  0
   25.4753  -20.5121   -9.6422 C   0  0  0  0  0  0  0  0  0  0  0  0
   24.7745  -20.1984  -12.0596 C   0  0  0  0  0  0  0  0  0  0  0  0
   24.0640  -20.6165  -13.2823 C   0  0  2  0  0  0  0  0  0  0  0  0
   24.2987  -19.5430  -14.3023 N   0  0  0  0  0  0  0  0  0  0  0  0
   22.6117  -20.8096  -13.2261 C   0  0  0  0  0  0  0  0  0  0  0  0
   21.8484  -19.8488  -12.8381 O   0  0  0  0  0  0  0  0  0  0  0  0
   21.9384  -22.0083  -13.5847 N   0  0  0  0  0  0  0  0  0  0  0  0
   20.5326  -22.1101  -13.3698 C   0  0  1  0  0  0  0  0  0  0  0  0
   20.0812  -23.5517  -13.1822 C   0  0  0  0  0  0  0  0  0  0  0  0
   18.5751  -23.6543  -13.0735 C   0  0  0  0  0  0  0  0  0  0  0  0
   18.1922  -25.1073  -12.9981 C   0  0  0  0  0  0  0  0  0  0  0  0
   17.8807  -25.7106  -14.3424 C   0  0  0  0  0  0  0  0  0  0  0  0
   17.4729  -27.1158  -14.1972 N   0  0  0  0  0  0  0  0  0  0  0  0
   20.0240  -21.3387  -12.2212 C   0  0  0  0  0  0  0  0  0  0  0  0
   18.9405  -20.7268  -12.2244 O   0  0  0  0  0  0  0  0  0  0  0  0
   20.7811  -21.2645  -11.0272 O   0  0  0  0  0  0  0  0  0  0  0  0
  2  1  1  0
  3  2  1  0
  3  4  1  6
  5  3  1  0
  5  6  1  1
  7  5  1  0
  8  7  2  0
 10  9  1  1
 10 12  1  0
 11 10  1  0
 13 12  1  1
 13 15  1  0
 13 14  1  0
 14  7  1  0
 15 16  2  0
 17 15  1  0
 17 18  1  0
 18 24  1  0
 18 19  1  1
 20 19  1  0
 21 20  1  0
 22 21  1  0
 23 22  1  0
 24 25  2  0
 24 26  1  0
M  END
$$$$
