AKI.pdb
     RDKit          3D

 23 22  0  0  1  0  0  0  0  0999 V2000
    8.4635  -12.3334   19.2034 C   0  0  0  0  0  0  0  0  0  0  0  0
    8.3844  -13.8319   18.9958 C   0  0  2  0  0  0  0  0  0  0  0  0
    7.5110  -14.1139   17.8975 N   0  0  0  0  0  0  0  0  0  0  0  0
    7.9514  -14.5437   20.2238 C   0  0  0  0  0  0  0  0  0  0  0  0
    6.7356  -14.5010   20.5309 O   0  0  0  0  0  0  0  0  0  0  0  0
    8.8524  -15.2604   21.0504 N   0  0  0  0  0  0  0  0  0  0  0  0
    8.4010  -15.9859   22.2342 C   0  0  1  0  0  0  0  0  0  0  0  0
    8.8691  -17.4124   22.1056 C   0  0  0  0  0  0  0  0  0  0  0  0
    8.0289  -18.2717   21.2296 C   0  0  0  0  0  0  0  0  0  0  0  0
    8.6522  -19.6369   21.0319 C   0  0  0  0  0  0  0  0  0  0  0  0
    7.8438  -20.4535   20.0213 C   0  0  0  0  0  0  0  0  0  0  0  0
    8.4398  -21.7566   19.8353 N   0  0  0  0  0  0  0  0  0  0  0  0
    8.8548  -15.3396   23.4764 C   0  0  0  0  0  0  0  0  0  0  0  0
   10.0593  -15.0212   23.5833 O   0  0  0  0  0  0  0  0  0  0  0  0
    5.8099  -11.7300   26.1103 C   0  0  0  0  0  0  0  0  0  0  0  0
    6.9115  -12.5173   25.4364 C   0  0  0  0  0  0  0  0  0  0  0  0
    7.5545  -13.4789   26.4006 C   0  0  2  0  0  0  0  0  0  0  0  0
    8.1080  -12.7628   27.5853 C   0  0  0  0  0  0  0  0  0  0  0  0
    8.5347  -14.3981   25.7202 C   0  0  2  0  0  0  0  0  0  0  0  0
    7.9966  -15.0533   24.5717 N   0  0  0  0  0  0  0  0  0  0  0  0
    8.9445  -15.4096   26.7593 C   0  0  0  0  0  0  0  0  0  0  0  0
   10.0356  -15.2428   27.5750 O   0  0  0  0  0  0  0  0  0  0  0  0
    8.2544  -16.4489   26.8807 O   0  0  0  0  0  0  0  0  0  0  0  0
  2  1  1  1
  2  3  1  0
  4  5  2  0
  4  2  1  0
  6  4  1  0
  7  6  1  0
  7  8  1  6
  9 10  1  0
  9  8  1  0
 10 11  1  0
 11 12  1  0
 13  7  1  0
 13 20  1  0
 14 13  2  0
 16 15  1  0
 17 16  1  0
 17 19  1  0
 17 18  1  1
 19 20  1  6
 19 21  1  0
 21 22  1  0
 23 21  2  0
M  END
$$$$
