AKI.pdb
     RDKit          3D

 23 22  0  0  1  0  0  0  0  0999 V2000
    8.2463  -13.0769   19.1836 C   0  0  0  0  0  0  0  0  0  0  0  0
    7.9386  -14.5589   19.2454 C   0  0  2  0  0  0  0  0  0  0  0  0
    7.0274  -14.8991   18.1954 N   0  0  0  0  0  0  0  0  0  0  0  0
    7.4076  -14.9642   20.5705 C   0  0  0  0  0  0  0  0  0  0  0  0
    6.2660  -14.5580   20.8963 O   0  0  0  0  0  0  0  0  0  0  0  0
    8.1364  -15.7834   21.4686 N   0  0  0  0  0  0  0  0  0  0  0  0
    7.5829  -16.1997   22.7538 C   0  0  1  0  0  0  0  0  0  0  0  0
    7.6357  -17.7045   22.8115 C   0  0  0  0  0  0  0  0  0  0  0  0
    6.4106  -18.3942   22.3265 C   0  0  0  0  0  0  0  0  0  0  0  0
    6.6009  -19.8953   22.2842 C   0  0  0  0  0  0  0  0  0  0  0  0
    5.3778  -20.5730   21.6627 C   0  0  0  0  0  0  0  0  0  0  0  0
    5.5374  -22.0091   21.6752 N   0  0  0  0  0  0  0  0  0  0  0  0
    8.2755  -15.5545   23.8810 C   0  0  0  0  0  0  0  0  0  0  0  0
    9.5192  -15.4339   23.8331 O   0  0  0  0  0  0  0  0  0  0  0  0
    6.0391  -11.3659   26.4332 C   0  0  0  0  0  0  0  0  0  0  0  0
    6.9662  -12.3336   25.7322 C   0  0  0  0  0  0  0  0  0  0  0  0
    7.6099  -13.2733   26.7173 C   0  0  2  0  0  0  0  0  0  0  0  0
    8.4035  -12.5255   27.7340 C   0  0  0  0  0  0  0  0  0  0  0  0
    8.3672  -14.3826   26.0355 C   0  0  2  0  0  0  0  0  0  0  0  0
    7.6078  -15.0558   25.0315 N   0  0  0  0  0  0  0  0  0  0  0  0
    8.7665  -15.3431   27.1258 C   0  0  0  0  0  0  0  0  0  0  0  0
    9.8931  -15.1772   27.8920 O   0  0  0  0  0  0  0  0  0  0  0  0
    8.0333  -16.3371   27.3391 O   0  0  0  0  0  0  0  0  0  0  0  0
  2  1  1  1
  2  3  1  0
  4  5  2  0
  4  2  1  0
  6  4  1  0
  7  6  1  0
  7  8  1  1
  9 10  1  0
  9  8  1  0
 10 11  1  0
 11 12  1  0
 13  7  1  0
 13 20  1  0
 14 13  2  0
 16 15  1  0
 17 16  1  0
 17 19  1  0
 17 18  1  6
 19 20  1  6
 19 21  1  0
 21 22  1  0
 23 21  2  0
M  END
$$$$
