AKI.pdb
     RDKit          3D

 23 22  0  0  1  0  0  0  0  0999 V2000
    8.5365  -20.1945   22.7007 C   0  0  0  0  0  0  0  0  0  0  0  0
    8.6514  -19.1826   21.5794 C   0  0  2  0  0  0  0  0  0  0  0  0
    9.6601  -19.6078   20.6572 N   0  0  0  0  0  0  0  0  0  0  0  0
    8.9283  -17.8158   22.0867 C   0  0  0  0  0  0  0  0  0  0  0  0
   10.0748  -17.5762   22.5366 O   0  0  0  0  0  0  0  0  0  0  0  0
    7.9547  -16.7858   22.0805 N   0  0  0  0  0  0  0  0  0  0  0  0
    8.2502  -15.4436   22.5730 C   0  0  1  0  0  0  0  0  0  0  0  0
    7.6167  -14.4568   21.6269 C   0  0  0  0  0  0  0  0  0  0  0  0
    8.3019  -14.3175   20.3143 C   0  0  0  0  0  0  0  0  0  0  0  0
    7.4874  -13.4808   19.3510 C   0  0  0  0  0  0  0  0  0  0  0  0
    8.2184  -13.3391   18.0142 C   0  0  0  0  0  0  0  0  0  0  0  0
    7.4419  -12.5350   17.0986 N   0  0  0  0  0  0  0  0  0  0  0  0
    7.8153  -15.2661   23.9680 C   0  0  0  0  0  0  0  0  0  0  0  0
    6.7536  -15.8113   24.3409 O   0  0  0  0  0  0  0  0  0  0  0  0
    9.6524  -13.5308   29.6332 C   0  0  0  0  0  0  0  0  0  0  0  0
    8.6023  -14.0422   28.6725 C   0  0  0  0  0  0  0  0  0  0  0  0
    9.0658  -13.9089   27.2459 C   0  0  2  0  0  0  0  0  0  0  0  0
    9.5321  -12.5222   26.9593 C   0  0  0  0  0  0  0  0  0  0  0  0
    8.0506  -14.4348   26.2652 C   0  0  2  0  0  0  0  0  0  0  0  0
    8.5377  -14.5045   24.9251 N   0  0  0  0  0  0  0  0  0  0  0  0
    6.8712  -13.5005   26.3484 C   0  0  0  0  0  0  0  0  0  0  0  0
    5.9397  -13.5610   27.3546 O   0  0  0  0  0  0  0  0  0  0  0  0
    6.7390  -12.6303   25.4561 O   0  0  0  0  0  0  0  0  0  0  0  0
  2  1  1  1
  2  3  1  0
  4  5  2  0
  4  2  1  0
  6  4  1  0
  7  6  1  0
  7  8  1  6
  9 10  1  0
  9  8  1  0
 10 11  1  0
 11 12  1  0
 13  7  1  0
 13 20  1  0
 14 13  2  0
 16 15  1  0
 17 16  1  0
 17 19  1  0
 17 18  1  6
 19 20  1  6
 19 21  1  0
 21 22  1  0
 23 21  2  0
M  END
$$$$
