AKI.pdb
     RDKit          3D

 23 22  0  0  1  0  0  0  0  0999 V2000
    8.2316  -12.3220   20.3921 C   0  0  0  0  0  0  0  0  0  0  0  0
    8.3048  -13.7452   19.8786 C   0  0  2  0  0  0  0  0  0  0  0  0
    7.2062  -13.9881   18.9938 N   0  0  0  0  0  0  0  0  0  0  0  0
    8.3355  -14.7364   20.9825 C   0  0  0  0  0  0  0  0  0  0  0  0
    7.2628  -14.9765   21.5877 O   0  0  0  0  0  0  0  0  0  0  0  0
    9.5192  -15.4118   21.3714 N   0  0  0  0  0  0  0  0  0  0  0  0
    9.5214  -16.4121   22.4349 C   0  0  1  0  0  0  0  0  0  0  0  0
   10.2314  -17.6350   21.9145 C   0  0  0  0  0  0  0  0  0  0  0  0
    9.3766  -18.5753   21.1419 C   0  0  0  0  0  0  0  0  0  0  0  0
   10.1882  -19.7178   20.5696 C   0  0  0  0  0  0  0  0  0  0  0  0
    9.3152  -20.5987   19.6733 C   0  0  0  0  0  0  0  0  0  0  0  0
   10.1139  -21.6267   19.0462 N   0  0  0  0  0  0  0  0  0  0  0  0
   10.1119  -15.8870   23.6768 C   0  0  0  0  0  0  0  0  0  0  0  0
   11.2005  -15.2751   23.6132 O   0  0  0  0  0  0  0  0  0  0  0  0
    9.6472  -12.6776   28.5748 C   0  0  0  0  0  0  0  0  0  0  0  0
   10.2545  -13.9462   28.0189 C   0  0  0  0  0  0  0  0  0  0  0  0
    9.5256  -14.3952   26.7800 C   0  0  2  0  0  0  0  0  0  0  0  0
    8.0771  -14.6133   27.0578 C   0  0  0  0  0  0  0  0  0  0  0  0
   10.2077  -15.5573   26.1070 C   0  0  2  0  0  0  0  0  0  0  0  0
    9.5120  -16.0359   24.9559 N   0  0  0  0  0  0  0  0  0  0  0  0
   10.3069  -16.6405   27.1499 C   0  0  0  0  0  0  0  0  0  0  0  0
   11.2484  -16.6321   28.1485 O   0  0  0  0  0  0  0  0  0  0  0  0
    9.4904  -17.5901   27.0990 O   0  0  0  0  0  0  0  0  0  0  0  0
  2  1  1  1
  2  3  1  0
  4  5  2  0
  4  2  1  0
  6  4  1  0
  7  6  1  0
  7  8  1  6
  9 10  1  0
  9  8  1  0
 10 11  1  0
 11 12  1  0
 13  7  1  0
 13 20  1  0
 14 13  2  0
 16 15  1  0
 17 16  1  0
 17 19  1  0
 17 18  1  1
 19 20  1  6
 19 21  1  0
 21 22  1  0
 23 21  2  0
M  END
$$$$
