AKI.pdb
     RDKit          3D

 23 22  0  0  1  0  0  0  0  0999 V2000
    8.0125  -12.1760   19.3916 C   0  0  0  0  0  0  0  0  0  0  0  0
    8.3075  -13.6274   19.0735 C   0  0  2  0  0  0  0  0  0  0  0  0
    7.6333  -13.9956   17.8658 N   0  0  0  0  0  0  0  0  0  0  0  0
    7.9388  -14.5303   20.1919 C   0  0  0  0  0  0  0  0  0  0  0  0
    6.7243  -14.8008   20.3539 O   0  0  0  0  0  0  0  0  0  0  0  0
    8.8989  -15.0899   21.0716 N   0  0  0  0  0  0  0  0  0  0  0  0
    8.5094  -15.8928   22.2270 C   0  0  1  0  0  0  0  0  0  0  0  0
    9.1166  -17.2619   22.0614 C   0  0  0  0  0  0  0  0  0  0  0  0
    8.3512  -18.1854   21.1822 C   0  0  0  0  0  0  0  0  0  0  0  0
    9.0593  -19.5141   21.0256 C   0  0  0  0  0  0  0  0  0  0  0  0
    8.2114  -20.4781   20.1928 C   0  0  0  0  0  0  0  0  0  0  0  0
    8.8964  -21.7400   20.0312 N   0  0  0  0  0  0  0  0  0  0  0  0
    8.8853  -15.2445   23.4939 C   0  0  0  0  0  0  0  0  0  0  0  0
   10.0090  -14.7030   23.5821 O   0  0  0  0  0  0  0  0  0  0  0  0
    5.6461  -11.8375   25.7585 C   0  0  0  0  0  0  0  0  0  0  0  0
    6.8034  -12.6529   25.2262 C   0  0  0  0  0  0  0  0  0  0  0  0
    7.3922  -13.5222   26.3057 C   0  0  2  0  0  0  0  0  0  0  0  0
    7.8202  -12.7073   27.4785 C   0  0  0  0  0  0  0  0  0  0  0  0
    8.4552  -14.4482   25.7753 C   0  0  2  0  0  0  0  0  0  0  0  0
    8.0386  -15.1971   24.6336 N   0  0  0  0  0  0  0  0  0  0  0  0
    8.8044  -15.3731   26.9125 C   0  0  0  0  0  0  0  0  0  0  0  0
    8.5000  -16.7114   26.9075 O   0  0  0  0  0  0  0  0  0  0  0  0
    9.4000  -14.8940   27.9059 O   0  0  0  0  0  0  0  0  0  0  0  0
  2  1  1  1
  2  3  1  0
  4  5  2  0
  4  2  1  0
  6  4  1  0
  7  6  1  0
  7  8  1  6
  9 10  1  0
  9  8  1  0
 10 11  1  0
 11 12  1  0
 13  7  1  0
 13 20  1  0
 14 13  2  0
 16 15  1  0
 17 16  1  0
 17 19  1  0
 17 18  1  1
 19 20  1  6
 19 21  1  0
 21 22  1  0
 23 21  2  0
M  END
$$$$
