AKI.pdb
     RDKit          3D

 23 22  0  0  1  0  0  0  0  0999 V2000
   12.4414  -18.3883   22.7822 C   0  0  0  0  0  0  0  0  0  0  0  0
   12.0713  -17.5057   21.6080 C   0  0  2  0  0  0  0  0  0  0  0  0
   13.2644  -17.0387   20.9700 N   0  0  0  0  0  0  0  0  0  0  0  0
   11.1997  -16.3748   22.0123 C   0  0  0  0  0  0  0  0  0  0  0  0
   11.7194  -15.4333   22.6589 O   0  0  0  0  0  0  0  0  0  0  0  0
    9.8189  -16.3226   21.6972 N   0  0  0  0  0  0  0  0  0  0  0  0
    8.9823  -15.1910   22.0859 C   0  0  1  0  0  0  0  0  0  0  0  0
    7.9037  -15.0376   21.0449 C   0  0  0  0  0  0  0  0  0  0  0  0
    8.1422  -13.9594   20.0488 C   0  0  0  0  0  0  0  0  0  0  0  0
    7.8654  -14.4372   18.6394 C   0  0  0  0  0  0  0  0  0  0  0  0
    8.3443  -13.4022   17.6191 C   0  0  0  0  0  0  0  0  0  0  0  0
    8.1745  -13.9044   16.2749 N   0  0  0  0  0  0  0  0  0  0  0  0
    8.4500  -15.3488   23.4491 C   0  0  0  0  0  0  0  0  0  0  0  0
    8.5238  -16.4701   23.9976 O   0  0  0  0  0  0  0  0  0  0  0  0
    6.3907  -10.9666   26.4068 C   0  0  0  0  0  0  0  0  0  0  0  0
    7.2917  -12.1309   26.0605 C   0  0  0  0  0  0  0  0  0  0  0  0
    6.5227  -13.4257   26.0575 C   0  0  2  0  0  0  0  0  0  0  0  0
    5.9354  -13.7052   27.3990 C   0  0  0  0  0  0  0  0  0  0  0  0
    7.3256  -14.5641   25.4848 C   0  0  2  0  0  0  0  0  0  0  0  0
    7.8515  -14.2918   24.1858 N   0  0  0  0  0  0  0  0  0  0  0  0
    6.3929  -15.7467   25.4375 C   0  0  0  0  0  0  0  0  0  0  0  0
    5.6860  -16.0962   24.3141 O   0  0  0  0  0  0  0  0  0  0  0  0
    6.2597  -16.4396   26.4734 O   0  0  0  0  0  0  0  0  0  0  0  0
  2  1  1  1
  2  3  1  0
  4  5  2  0
  4  2  1  0
  6  4  1  0
  7  6  1  0
  7  8  1  6
  9 10  1  0
  9  8  1  0
 10 11  1  0
 11 12  1  0
 13  7  1  0
 13 20  1  0
 14 13  2  0
 16 15  1  0
 17 16  1  0
 17 19  1  0
 17 18  1  1
 19 20  1  6
 19 21  1  0
 21 22  1  0
 23 21  2  0
M  END
$$$$
