AKI.pdb
     RDKit          3D

 23 22  0  0  1  0  0  0  0  0999 V2000
    7.3508  -12.8540   19.0843 C   0  0  0  0  0  0  0  0  0  0  0  0
    8.3429  -13.8369   19.6713 C   0  0  2  0  0  0  0  0  0  0  0  0
    8.5861  -14.8863   18.7289 N   0  0  0  0  0  0  0  0  0  0  0  0
    7.8865  -14.3797   20.9747 C   0  0  0  0  0  0  0  0  0  0  0  0
    7.6682  -13.5680   21.9063 O   0  0  0  0  0  0  0  0  0  0  0  0
    7.6916  -15.7653   21.2002 N   0  0  0  0  0  0  0  0  0  0  0  0
    7.1191  -16.2702   22.4447 C   0  0  1  0  0  0  0  0  0  0  0  0
    6.9378  -17.7587   22.2969 C   0  0  0  0  0  0  0  0  0  0  0  0
    6.4039  -18.4483   23.5016 C   0  0  0  0  0  0  0  0  0  0  0  0
    6.3534  -19.9482   23.3036 C   0  0  0  0  0  0  0  0  0  0  0  0
    5.7553  -20.6312   24.5354 C   0  0  0  0  0  0  0  0  0  0  0  0
    5.9123  -22.0646   24.4422 N   0  0  0  0  0  0  0  0  0  0  0  0
    7.9380  -15.9019   23.6111 C   0  0  0  0  0  0  0  0  0  0  0  0
    9.1669  -16.1312   23.5796 O   0  0  0  0  0  0  0  0  0  0  0  0
    6.6853  -11.2810   25.8802 C   0  0  0  0  0  0  0  0  0  0  0  0
    7.4237  -12.4522   25.2716 C   0  0  0  0  0  0  0  0  0  0  0  0
    7.8336  -13.4407   26.3312 C   0  0  2  0  0  0  0  0  0  0  0  0
    8.7824  -12.8252   27.3025 C   0  0  0  0  0  0  0  0  0  0  0  0
    8.3098  -14.7427   25.7423 C   0  0  2  0  0  0  0  0  0  0  0  0
    7.4096  -15.2952   24.7819 N   0  0  0  0  0  0  0  0  0  0  0  0
    8.4820  -15.6854   26.9052 C   0  0  0  0  0  0  0  0  0  0  0  0
    9.6369  -15.7583   27.6431 O   0  0  0  0  0  0  0  0  0  0  0  0
    7.5243  -16.4349   27.2088 O   0  0  0  0  0  0  0  0  0  0  0  0
  2  1  1  6
  2  3  1  0
  4  5  2  0
  4  2  1  0
  6  4  1  0
  7  6  1  0
  7  8  1  6
  9 10  1  0
  9  8  1  0
 10 11  1  0
 11 12  1  0
 13  7  1  0
 13 20  1  0
 14 13  2  0
 16 15  1  0
 17 16  1  0
 17 19  1  0
 17 18  1  6
 19 20  1  6
 19 21  1  0
 21 22  1  0
 23 21  2  0
M  END
$$$$
