AKI.pdb
     RDKit          3D

 23 22  0  0  1  0  0  0  0  0999 V2000
    8.3285  -12.3670   19.2939 C   0  0  0  0  0  0  0  0  0  0  0  0
    8.3776  -13.8638   19.0665 C   0  0  2  0  0  0  0  0  0  0  0  0
    7.5345  -14.2043   17.9611 N   0  0  0  0  0  0  0  0  0  0  0  0
    8.0032  -14.6262   20.2833 C   0  0  0  0  0  0  0  0  0  0  0  0
    6.7999  -14.6132   20.6387 O   0  0  0  0  0  0  0  0  0  0  0  0
    8.9458  -15.3585   21.0474 N   0  0  0  0  0  0  0  0  0  0  0  0
    8.5596  -16.0934   22.2483 C   0  0  1  0  0  0  0  0  0  0  0  0
    9.1862  -17.4615   22.1717 C   0  0  0  0  0  0  0  0  0  0  0  0
    8.2594  -18.5922   22.4445 C   0  0  0  0  0  0  0  0  0  0  0  0
    8.1544  -19.5211   21.2540 C   0  0  0  0  0  0  0  0  0  0  0  0
    7.1463  -20.6380   21.5333 C   0  0  0  0  0  0  0  0  0  0  0  0
    7.0061  -21.4907   20.3752 N   0  0  0  0  0  0  0  0  0  0  0  0
    8.9185  -15.3624   23.4745 C   0  0  0  0  0  0  0  0  0  0  0  0
   10.0329  -14.7983   23.5340 O   0  0  0  0  0  0  0  0  0  0  0  0
    5.7010  -11.9821   26.0143 C   0  0  0  0  0  0  0  0  0  0  0  0
    6.8806  -12.7094   25.4085 C   0  0  0  0  0  0  0  0  0  0  0  0
    7.4765  -13.6827   26.3911 C   0  0  2  0  0  0  0  0  0  0  0  0
    7.9233  -12.9880   27.6322 C   0  0  0  0  0  0  0  0  0  0  0  0
    8.5274  -14.5580   25.7601 C   0  0  2  0  0  0  0  0  0  0  0  0
    8.0652  -15.2589   24.6055 N   0  0  0  0  0  0  0  0  0  0  0  0
    8.9545  -15.5297   26.8297 C   0  0  0  0  0  0  0  0  0  0  0  0
    9.9782  -15.2727   27.7070 O   0  0  0  0  0  0  0  0  0  0  0  0
    8.3442  -16.6209   26.9183 O   0  0  0  0  0  0  0  0  0  0  0  0
  2  1  1  1
  2  3  1  0
  4  5  2  0
  4  2  1  0
  6  4  1  0
  7  6  1  0
  7  8  1  1
  9 10  1  0
  9  8  1  0
 10 11  1  0
 11 12  1  0
 13  7  1  0
 13 20  1  0
 14 13  2  0
 16 15  1  0
 17 16  1  0
 17 19  1  0
 17 18  1  1
 19 20  1  6
 19 21  1  0
 21 22  1  0
 23 21  2  0
M  END
$$$$
