AKI.pdb
     RDKit          3D

 23 22  0  0  1  0  0  0  0  0999 V2000
    8.3354  -20.8340   25.3069 C   0  0  0  0  0  0  0  0  0  0  0  0
    8.5244  -20.2385   23.9269 C   0  0  2  0  0  0  0  0  0  0  0  0
    9.6088  -20.9008   23.2682 N   0  0  0  0  0  0  0  0  0  0  0  0
    8.7410  -18.7713   23.9767 C   0  0  0  0  0  0  0  0  0  0  0  0
    9.6346  -18.3340   24.7414 O   0  0  0  0  0  0  0  0  0  0  0  0
    7.9830  -17.8594   23.2004 N   0  0  0  0  0  0  0  0  0  0  0  0
    8.2771  -16.4295   23.1866 C   0  0  1  0  0  0  0  0  0  0  0  0
    7.8827  -15.8919   21.8354 C   0  0  0  0  0  0  0  0  0  0  0  0
    8.1772  -14.4496   21.6237 C   0  0  0  0  0  0  0  0  0  0  0  0
    7.8229  -14.0130   20.2183 C   0  0  0  0  0  0  0  0  0  0  0  0
    8.1887  -12.5424   20.0060 C   0  0  0  0  0  0  0  0  0  0  0  0
    7.6967  -12.0807   18.7282 N   0  0  0  0  0  0  0  0  0  0  0  0
    7.6208  -15.7266   24.3010 C   0  0  0  0  0  0  0  0  0  0  0  0
    6.4201  -15.9760   24.5456 O   0  0  0  0  0  0  0  0  0  0  0  0
   10.3814  -13.5515   28.7110 C   0  0  0  0  0  0  0  0  0  0  0  0
    9.3786  -14.3422   27.9007 C   0  0  0  0  0  0  0  0  0  0  0  0
    8.4345  -13.4257   27.1682 C   0  0  2  0  0  0  0  0  0  0  0  0
    7.6917  -12.5485   28.1177 C   0  0  0  0  0  0  0  0  0  0  0  0
    7.5555  -14.1703   26.1978 C   0  0  2  0  0  0  0  0  0  0  0  0
    8.2774  -14.7722   25.1233 N   0  0  0  0  0  0  0  0  0  0  0  0
    6.5717  -13.1587   25.6691 C   0  0  0  0  0  0  0  0  0  0  0  0
    5.4771  -12.7377   26.3821 O   0  0  0  0  0  0  0  0  0  0  0  0
    6.7660  -12.6828   24.5259 O   0  0  0  0  0  0  0  0  0  0  0  0
  2  1  1  1
  2  3  1  0
  4  5  2  0
  4  2  1  0
  6  4  1  0
  7  6  1  0
  7  8  1  6
  9 10  1  0
  9  8  1  0
 10 11  1  0
 11 12  1  0
 13  7  1  0
 13 20  1  0
 14 13  2  0
 16 15  1  0
 17 16  1  0
 17 19  1  0
 17 18  1  1
 19 20  1  6
 19 21  1  0
 21 22  1  0
 23 21  2  0
M  END
$$$$
