AKI.pdb
     RDKit          3D

 23 22  0  0  1  0  0  0  0  0999 V2000
    8.7496  -13.0660   19.5480 C   0  0  0  0  0  0  0  0  0  0  0  0
    8.0735  -14.4183   19.4537 C   0  0  2  0  0  0  0  0  0  0  0  0
    7.0610  -14.3738   18.4430 N   0  0  0  0  0  0  0  0  0  0  0  0
    7.5137  -14.8549   20.7568 C   0  0  0  0  0  0  0  0  0  0  0  0
    6.4702  -14.2917   21.1673 O   0  0  0  0  0  0  0  0  0  0  0  0
    8.1095  -15.8726   21.5429 N   0  0  0  0  0  0  0  0  0  0  0  0
    7.5517  -16.2780   22.8297 C   0  0  1  0  0  0  0  0  0  0  0  0
    7.6497  -17.7788   22.9211 C   0  0  0  0  0  0  0  0  0  0  0  0
    7.1948  -18.3597   24.2124 C   0  0  0  0  0  0  0  0  0  0  0  0
    7.3994  -19.8591   24.2472 C   0  0  0  0  0  0  0  0  0  0  0  0
    6.9006  -20.4372   25.5733 C   0  0  0  0  0  0  0  0  0  0  0  0
    7.2023  -21.8480   25.6526 N   0  0  0  0  0  0  0  0  0  0  0  0
    8.2090  -15.5877   23.9513 C   0  0  0  0  0  0  0  0  0  0  0  0
    9.4545  -15.4771   23.9425 O   0  0  0  0  0  0  0  0  0  0  0  0
    5.7115  -11.5153   26.5896 C   0  0  0  0  0  0  0  0  0  0  0  0
    6.7401  -12.3501   25.8599 C   0  0  0  0  0  0  0  0  0  0  0  0
    7.4189  -13.3118   26.7992 C   0  0  2  0  0  0  0  0  0  0  0  0
    8.1644  -12.5852   27.8664 C   0  0  0  0  0  0  0  0  0  0  0  0
    8.2367  -14.3428   26.0663 C   0  0  2  0  0  0  0  0  0  0  0  0
    7.5050  -15.0341   25.0540 N   0  0  0  0  0  0  0  0  0  0  0  0
    8.7234  -15.3084   27.1158 C   0  0  0  0  0  0  0  0  0  0  0  0
    8.2452  -16.5896   27.2316 O   0  0  0  0  0  0  0  0  0  0  0  0
    9.6052  -14.9193   27.9171 O   0  0  0  0  0  0  0  0  0  0  0  0
  2  1  1  1
  2  3  1  0
  4  5  2  0
  4  2  1  0
  6  4  1  0
  7  6  1  0
  7  8  1  1
  9 10  1  0
  9  8  1  0
 10 11  1  0
 11 12  1  0
 13  7  1  0
 13 20  1  0
 14 13  2  0
 16 15  1  0
 17 16  1  0
 17 19  1  0
 17 18  1  1
 19 20  1  6
 19 21  1  0
 21 22  1  0
 23 21  2  0
M  END
$$$$
