AKI.pdb
     RDKit          3D

 23 22  0  0  1  0  0  0  0  0999 V2000
    8.4590  -12.6592   19.3898 C   0  0  0  0  0  0  0  0  0  0  0  0
    8.1214  -14.1339   19.3123 C   0  0  2  0  0  0  0  0  0  0  0  0
    7.2094  -14.3563   18.2318 N   0  0  0  0  0  0  0  0  0  0  0  0
    7.5753  -14.6499   20.5919 C   0  0  0  0  0  0  0  0  0  0  0  0
    6.4920  -14.1704   21.0053 O   0  0  0  0  0  0  0  0  0  0  0  0
    8.2270  -15.6524   21.3528 N   0  0  0  0  0  0  0  0  0  0  0  0
    7.6895  -16.1249   22.6254 C   0  0  1  0  0  0  0  0  0  0  0  0
    7.8918  -17.6169   22.6844 C   0  0  0  0  0  0  0  0  0  0  0  0
    7.4265  -18.2639   23.9400 C   0  0  0  0  0  0  0  0  0  0  0  0
    7.5860  -19.7679   23.8795 C   0  0  0  0  0  0  0  0  0  0  0  0
    7.1009  -20.4109   25.1806 C   0  0  0  0  0  0  0  0  0  0  0  0
    7.2011  -21.8500   25.0988 N   0  0  0  0  0  0  0  0  0  0  0  0
    8.2887  -15.4160   23.7677 C   0  0  0  0  0  0  0  0  0  0  0  0
    9.5077  -15.1398   23.7319 O   0  0  0  0  0  0  0  0  0  0  0  0
    5.5273  -11.6278   26.4717 C   0  0  0  0  0  0  0  0  0  0  0  0
    6.6127  -12.3924   25.7474 C   0  0  0  0  0  0  0  0  0  0  0  0
    7.3261  -13.3325   26.6829 C   0  0  2  0  0  0  0  0  0  0  0  0
    7.9981  -12.5868   27.7853 C   0  0  0  0  0  0  0  0  0  0  0  0
    8.2244  -14.2937   25.9495 C   0  0  2  0  0  0  0  0  0  0  0  0
    7.5566  -15.0231   24.9200 N   0  0  0  0  0  0  0  0  0  0  0  0
    8.7660  -15.2346   26.9945 C   0  0  0  0  0  0  0  0  0  0  0  0
    8.3771  -16.5473   27.0914 O   0  0  0  0  0  0  0  0  0  0  0  0
    9.6098  -14.7941   27.8100 O   0  0  0  0  0  0  0  0  0  0  0  0
  2  1  1  1
  2  3  1  0
  4  5  2  0
  4  2  1  0
  6  4  1  0
  7  6  1  0
  7  8  1  1
  9 10  1  0
  9  8  1  0
 10 11  1  0
 11 12  1  0
 13  7  1  0
 13 20  1  0
 14 13  2  0
 16 15  1  0
 17 16  1  0
 17 19  1  0
 17 18  1  1
 19 20  1  6
 19 21  1  0
 21 22  1  0
 23 21  2  0
M  END
$$$$
