AKI.pdb
     RDKit          3D

 23 22  0  0  1  0  0  0  0  0999 V2000
    8.5767  -12.5079   19.6129 C   0  0  0  0  0  0  0  0  0  0  0  0
    8.0843  -13.9206   19.3754 C   0  0  2  0  0  0  0  0  0  0  0  0
    7.0131  -13.8971   18.4264 N   0  0  0  0  0  0  0  0  0  0  0  0
    7.6721  -14.5876   20.6353 C   0  0  0  0  0  0  0  0  0  0  0  0
    6.6038  -14.2136   21.1768 O   0  0  0  0  0  0  0  0  0  0  0  0
    8.4339  -15.6187   21.2396 N   0  0  0  0  0  0  0  0  0  0  0  0
    8.0157  -16.2570   22.4843 C   0  0  1  0  0  0  0  0  0  0  0  0
    8.3747  -17.7177   22.3952 C   0  0  0  0  0  0  0  0  0  0  0  0
    8.0695  -18.5140   23.6136 C   0  0  0  0  0  0  0  0  0  0  0  0
    8.4192  -19.9743   23.4220 C   0  0  0  0  0  0  0  0  0  0  0  0
    8.0457  -20.7823   24.6667 C   0  0  0  0  0  0  0  0  0  0  0  0
    6.6952  -21.2839   24.5547 N   0  0  0  0  0  0  0  0  0  0  0  0
    8.5970  -15.5909   23.6612 C   0  0  0  0  0  0  0  0  0  0  0  0
    9.8124  -15.2971   23.6469 O   0  0  0  0  0  0  0  0  0  0  0  0
    5.9359  -11.6820   25.9008 C   0  0  0  0  0  0  0  0  0  0  0  0
    7.1022  -12.4936   25.3828 C   0  0  0  0  0  0  0  0  0  0  0  0
    7.6209  -13.4295   26.4425 C   0  0  2  0  0  0  0  0  0  0  0  0
    8.2510  -12.6757   27.5638 C   0  0  0  0  0  0  0  0  0  0  0  0
    8.4869  -14.5190   25.8663 C   0  0  2  0  0  0  0  0  0  0  0  0
    7.8513  -15.2588   24.8239 N   0  0  0  0  0  0  0  0  0  0  0  0
    8.8340  -15.4257   27.0188 C   0  0  0  0  0  0  0  0  0  0  0  0
    8.2467  -16.6517   27.2080 O   0  0  0  0  0  0  0  0  0  0  0  0
    9.6989  -15.0385   27.8392 O   0  0  0  0  0  0  0  0  0  0  0  0
  2  1  1  1
  2  3  1  0
  4  5  2  0
  4  2  1  0
  6  4  1  0
  7  6  1  0
  7  8  1  6
  9 10  1  0
  9  8  1  0
 10 11  1  0
 11 12  1  0
 13  7  1  0
 13 20  1  0
 14 13  2  0
 16 15  1  0
 17 16  1  0
 17 19  1  0
 17 18  1  1
 19 20  1  6
 19 21  1  0
 21 22  1  0
 23 21  2  0
M  END
$$$$
