PTY.pdb
     RDKit          3D

 27 28  0  0  1  0  0  0  0  0999 V2000
   26.8660  -22.0789  -18.5689 N   0  0  0  0  0  0  0  0  0  0  0  0
   27.1444  -22.3437  -19.9635 C   0  0  0  0  0  0  0  0  0  0  0  0
   28.5706  -21.9725  -20.2117 C   0  0  0  0  0  0  0  0  0  0  0  0
   29.1533  -21.6957  -18.8419 C   0  0  0  0  0  0  0  0  0  0  0  0
   28.1264  -22.3155  -17.9337 C   0  0  1  0  0  0  0  0  0  0  0  0
   28.2016  -21.8023  -16.5556 C   0  0  0  0  0  0  0  0  0  0  0  0
   29.2695  -21.9698  -15.9224 O   0  0  0  0  0  0  0  0  0  0  0  0
   28.4879  -18.4177  -15.4326 C   0  0  0  0  0  0  0  0  0  0  0  0
   27.3168  -18.9772  -14.6966 C   0  0  1  0  0  0  0  0  0  0  0  0
   26.1578  -18.5591  -15.3965 O   0  0  0  0  0  0  0  0  0  0  0  0
   27.2572  -20.4622  -14.6305 C   0  0  2  0  0  0  0  0  0  0  0  0
   27.1490  -21.1302  -15.8923 N   0  0  0  0  0  0  0  0  0  0  0  0
   26.1106  -20.8580  -13.7726 C   0  0  0  0  0  0  0  0  0  0  0  0
   25.0328  -21.3142  -14.2614 O   0  0  0  0  0  0  0  0  0  0  0  0
   20.8786  -22.0077   -6.7464 O   0  0  0  0  0  0  0  0  0  0  0  0
   21.9650  -21.7371   -7.5770 C   0  0  0  0  0  0  0  0  0  0  0  0
   22.6370  -22.7188   -8.2712 C   0  0  0  0  0  0  0  0  0  0  0  0
   23.7038  -22.3923   -9.0772 C   0  0  0  0  0  0  0  0  0  0  0  0
   24.1362  -21.0960   -9.2209 C   0  0  0  0  0  0  0  0  0  0  0  0
   25.3001  -20.7921  -10.1045 C   0  0  0  0  0  0  0  0  0  0  0  0
   24.9957  -21.0052  -11.5476 C   0  0  2  0  0  0  0  0  0  0  0  0
   26.1726  -20.7391  -12.3363 N   0  0  0  0  0  0  0  0  0  0  0  0
   23.8602  -20.1192  -11.9498 C   0  0  0  0  0  0  0  0  0  0  0  0
   22.6073  -20.6763  -12.0076 O   0  0  0  0  0  0  0  0  0  0  0  0
   23.4743  -20.1055   -8.5335 C   0  0  0  0  0  0  0  0  0  0  0  0
   22.4157  -20.4444   -7.7361 C   0  0  0  0  0  0  0  0  0  0  0  0
   24.0075  -18.9148  -12.2295 O   0  0  0  0  0  0  0  0  0  0  0  0
  1  5  1  0
  1  2  1  0
  2  3  1  0
  4  3  1  0
  5  4  1  0
  6  7  2  0
  5  6  1  1
  9  8  1  6
 10  9  1  0
 11  9  1  0
 11 12  1  6
 12  6  1  0
 13 11  1  0
 14 13  2  0
 16 17  2  0
 16 15  1  0
 18 17  1  0
 19 18  2  0
 21 20  1  1
 20 19  1  0
 21 22  1  0
 22 13  1  0
 23 24  1  0
 23 21  1  0
 25 19  1  0
 25 26  2  0
 26 16  1  0
 27 23  2  0
M  END
$$$$
