PTY.pdb
     RDKit          3D

 27 28  0  0  1  0  0  0  0  0999 V2000
   26.4780  -21.3996  -18.3517 N   0  0  0  0  0  0  0  0  0  0  0  0
   26.5586  -21.5025  -19.7923 C   0  0  0  0  0  0  0  0  0  0  0  0
   27.8028  -20.7941  -20.2210 C   0  0  0  0  0  0  0  0  0  0  0  0
   28.5417  -20.4774  -18.9380 C   0  0  0  0  0  0  0  0  0  0  0  0
   27.8509  -21.3761  -17.9487 C   0  0  1  0  0  0  0  0  0  0  0  0
   28.0524  -20.9486  -16.5540 C   0  0  0  0  0  0  0  0  0  0  0  0
   29.2266  -20.8811  -16.1228 O   0  0  0  0  0  0  0  0  0  0  0  0
   27.7356  -17.6676  -15.1909 C   0  0  0  0  0  0  0  0  0  0  0  0
   26.8757  -18.5323  -14.3312 C   0  0  1  0  0  0  0  0  0  0  0  0
   25.5479  -18.3846  -14.8032 O   0  0  0  0  0  0  0  0  0  0  0  0
   27.1829  -19.9870  -14.3831 C   0  0  2  0  0  0  0  0  0  0  0  0
   27.0097  -20.6069  -15.6621 N   0  0  0  0  0  0  0  0  0  0  0  0
   26.3374  -20.6911  -13.3848 C   0  0  0  0  0  0  0  0  0  0  0  0
   25.3198  -21.3677  -13.7249 O   0  0  0  0  0  0  0  0  0  0  0  0
   28.7368  -18.2848   -6.2438 O   0  0  0  0  0  0  0  0  0  0  0  0
   28.2023  -19.1918   -7.1576 C   0  0  0  0  0  0  0  0  0  0  0  0
   26.8556  -19.4718   -7.2312 C   0  0  0  0  0  0  0  0  0  0  0  0
   26.3846  -20.3773   -8.1546 C   0  0  0  0  0  0  0  0  0  0  0  0
   27.2229  -21.0290   -9.0266 C   0  0  0  0  0  0  0  0  0  0  0  0
   26.6646  -22.0050  -10.0082 C   0  0  0  0  0  0  0  0  0  0  0  0
   25.8090  -21.3546  -11.0405 C   0  0  2  0  0  0  0  0  0  0  0  0
   26.6379  -20.6352  -11.9750 N   0  0  0  0  0  0  0  0  0  0  0  0
   24.8301  -20.4445  -10.3698 C   0  0  0  0  0  0  0  0  0  0  0  0
   23.7761  -21.0207   -9.7062 O   0  0  0  0  0  0  0  0  0  0  0  0
   28.5701  -20.7590   -8.9643 C   0  0  0  0  0  0  0  0  0  0  0  0
   29.0243  -19.8568   -8.0417 C   0  0  0  0  0  0  0  0  0  0  0  0
   24.9347  -19.2038  -10.3912 O   0  0  0  0  0  0  0  0  0  0  0  0
  1  5  1  0
  1  2  1  0
  2  3  1  0
  4  3  1  0
  5  4  1  0
  6  7  2  0
  5  6  1  1
  9  8  1  6
 10  9  1  0
 11  9  1  0
 11 12  1  6
 12  6  1  0
 13 11  1  0
 14 13  2  0
 16 17  2  0
 16 15  1  0
 18 17  1  0
 19 18  2  0
 21 20  1  1
 20 19  1  0
 21 22  1  0
 22 13  1  0
 23 24  1  0
 23 21  1  0
 25 19  1  0
 25 26  2  0
 26 16  1  0
 27 23  2  0
M  END
$$$$
