PTY.pdb
     RDKit          3D

 27 28  0  0  1  0  0  0  0  0999 V2000
   28.7459  -24.0337  -17.5798 N   0  0  0  0  0  0  0  0  0  0  0  0
   29.4917  -24.5909  -18.6870 C   0  0  0  0  0  0  0  0  0  0  0  0
   29.7812  -23.4738  -19.6367 C   0  0  0  0  0  0  0  0  0  0  0  0
   29.3598  -22.2146  -18.9090 C   0  0  0  0  0  0  0  0  0  0  0  0
   29.2475  -22.6966  -17.4883 C   0  0  1  0  0  0  0  0  0  0  0  0
   28.4231  -21.8100  -16.6500 C   0  0  0  0  0  0  0  0  0  0  0  0
   28.6587  -20.5801  -16.6848 O   0  0  0  0  0  0  0  0  0  0  0  0
   25.2535  -20.6319  -17.2005 C   0  0  0  0  0  0  0  0  0  0  0  0
   25.1526  -21.1838  -15.8179 C   0  0  1  0  0  0  0  0  0  0  0  0
   24.5403  -22.4567  -15.9307 O   0  0  0  0  0  0  0  0  0  0  0  0
   26.4501  -21.3995  -15.1227 C   0  0  2  0  0  0  0  0  0  0  0  0
   27.3789  -22.2500  -15.8040 N   0  0  0  0  0  0  0  0  0  0  0  0
   26.1830  -21.9573  -13.7720 C   0  0  0  0  0  0  0  0  0  0  0  0
   26.7746  -22.9950  -13.3453 O   0  0  0  0  0  0  0  0  0  0  0  0
   28.1365  -19.5842   -5.8570 O   0  0  0  0  0  0  0  0  0  0  0  0
   27.7976  -19.7832   -7.1945 C   0  0  0  0  0  0  0  0  0  0  0  0
   26.8222  -19.0508   -7.8346 C   0  0  0  0  0  0  0  0  0  0  0  0
   26.5299  -19.2916   -9.1579 C   0  0  0  0  0  0  0  0  0  0  0  0
   27.1870  -20.2556   -9.8836 C   0  0  0  0  0  0  0  0  0  0  0  0
   26.8321  -20.4816  -11.3157 C   0  0  0  0  0  0  0  0  0  0  0  0
   25.5454  -21.2154  -11.4788 C   0  0  2  0  0  0  0  0  0  0  0  0
   25.2319  -21.3397  -12.8803 N   0  0  0  0  0  0  0  0  0  0  0  0
   24.4650  -20.4894  -10.7425 C   0  0  0  0  0  0  0  0  0  0  0  0
   23.8147  -19.4766  -11.4019 O   0  0  0  0  0  0  0  0  0  0  0  0
   28.1634  -20.9944   -9.2571 C   0  0  0  0  0  0  0  0  0  0  0  0
   28.4435  -20.7444   -7.9416 C   0  0  0  0  0  0  0  0  0  0  0  0
   24.1395  -20.7656   -9.5728 O   0  0  0  0  0  0  0  0  0  0  0  0
  1  5  1  0
  1  2  1  0
  2  3  1  0
  4  3  1  0
  5  4  1  0
  6  7  2  0
  5  6  1  1
  9  8  1  6
 10  9  1  0
 11  9  1  0
 11 12  1  6
 12  6  1  0
 13 11  1  0
 14 13  2  0
 16 17  2  0
 16 15  1  0
 18 17  1  0
 19 18  2  0
 21 20  1  6
 20 19  1  0
 21 22  1  0
 22 13  1  0
 23 24  1  0
 23 21  1  0
 25 19  1  0
 25 26  2  0
 26 16  1  0
 27 23  2  0
M  END
$$$$
