PTY.pdb
     RDKit          3D

 27 28  0  0  1  0  0  0  0  0999 V2000
   18.4730  -10.1211  -15.9636 N   0  0  0  0  0  0  0  0  0  0  0  0
   18.2034  -11.5375  -16.0806 C   0  0  0  0  0  0  0  0  0  0  0  0
   18.5219  -11.9375  -17.4849 C   0  0  0  0  0  0  0  0  0  0  0  0
   19.1979  -10.7295  -18.0984 C   0  0  0  0  0  0  0  0  0  0  0  0
   19.5509   -9.9170  -16.8824 C   0  0  1  0  0  0  0  0  0  0  0  0
   19.8015   -8.5005  -17.1975 C   0  0  0  0  0  0  0  0  0  0  0  0
   20.8018   -8.2212  -17.8980 O   0  0  0  0  0  0  0  0  0  0  0  0
   17.6562   -5.8101  -19.0535 C   0  0  0  0  0  0  0  0  0  0  0  0
   18.0389   -5.3454  -17.6883 C   0  0  1  0  0  0  0  0  0  0  0  0
   16.9290   -5.6001  -16.8450 O   0  0  0  0  0  0  0  0  0  0  0  0
   19.2011   -6.0471  -17.0799 C   0  0  2  0  0  0  0  0  0  0  0  0
   18.9893   -7.4274  -16.7634 N   0  0  0  0  0  0  0  0  0  0  0  0
   19.6057   -5.3237  -15.8470 C   0  0  0  0  0  0  0  0  0  0  0  0
   19.0649   -5.5574  -14.7237 O   0  0  0  0  0  0  0  0  0  0  0  0
   22.3316   -9.6308  -12.7540 O   0  0  0  0  0  0  0  0  0  0  0  0
   22.3462   -8.2904  -13.1368 C   0  0  0  0  0  0  0  0  0  0  0  0
   22.7632   -7.8738  -14.3817 C   0  0  0  0  0  0  0  0  0  0  0  0
   22.7560   -6.5358  -14.7042 C   0  0  0  0  0  0  0  0  0  0  0  0
   22.3399   -5.5757  -13.8136 C   0  0  0  0  0  0  0  0  0  0  0  0
   22.3532   -4.1366  -14.2089 C   0  0  0  0  0  0  0  0  0  0  0  0
   21.0157   -3.6509  -14.6516 C   0  0  2  0  0  0  0  0  0  0  0  0
   20.6378   -4.3162  -15.8732 N   0  0  0  0  0  0  0  0  0  0  0  0
   21.0632   -2.1673  -14.8329 C   0  0  0  0  0  0  0  0  0  0  0  0
   20.8322   -1.6718  -16.0917 O   0  0  0  0  0  0  0  0  0  0  0  0
   21.9208   -5.9776  -12.5667 C   0  0  0  0  0  0  0  0  0  0  0  0
   21.9332   -7.3107  -12.2599 C   0  0  0  0  0  0  0  0  0  0  0  0
   21.3006   -1.3784  -13.8991 O   0  0  0  0  0  0  0  0  0  0  0  0
  1  5  1  0
  1  2  1  0
  2  3  1  0
  4  3  1  0
  5  4  1  0
  6  7  2  0
  5  6  1  6
  9  8  1  6
 10  9  1  0
 11  9  1  0
 11 12  1  1
 12  6  1  0
 13 11  1  0
 14 13  2  0
 16 17  2  0
 16 15  1  0
 18 17  1  0
 19 18  2  0
 21 20  1  6
 20 19  1  0
 21 22  1  0
 22 13  1  0
 23 24  1  0
 23 21  1  0
 25 19  1  0
 25 26  2  0
 26 16  1  0
 27 23  2  0
M  END
$$$$
