PTY.pdb
     RDKit          3D

 27 28  0  0  1  0  0  0  0  0999 V2000
   23.7012  -17.9304  -16.9878 N   0  0  0  0  0  0  0  0  0  0  0  0
   23.1284  -17.3770  -18.1953 C   0  0  0  0  0  0  0  0  0  0  0  0
   23.6182  -18.2031  -19.3404 C   0  0  0  0  0  0  0  0  0  0  0  0
   24.3159  -19.3876  -18.7057 C   0  0  0  0  0  0  0  0  0  0  0  0
   23.8136  -19.3248  -17.2890 C   0  0  1  0  0  0  0  0  0  0  0  0
   24.6690  -20.0677  -16.3483 C   0  0  0  0  0  0  0  0  0  0  0  0
   24.7332  -21.3130  -16.4687 O   0  0  0  0  0  0  0  0  0  0  0  0
   28.2983  -20.4629  -15.8635 C   0  0  0  0  0  0  0  0  0  0  0  0
   27.7330  -19.9576  -14.5784 C   0  0  1  0  0  0  0  0  0  0  0  0
   27.9347  -18.5551  -14.5677 O   0  0  0  0  0  0  0  0  0  0  0  0
   26.2727  -20.1756  -14.3964 C   0  0  2  0  0  0  0  0  0  0  0  0
   25.4270  -19.4727  -15.3135 N   0  0  0  0  0  0  0  0  0  0  0  0
   25.9013  -19.7984  -13.0083 C   0  0  0  0  0  0  0  0  0  0  0  0
   25.3925  -18.6697  -12.7327 O   0  0  0  0  0  0  0  0  0  0  0  0
   19.8106  -19.7837  -12.6168 O   0  0  0  0  0  0  0  0  0  0  0  0
   21.0169  -20.0986  -11.9929 C   0  0  0  0  0  0  0  0  0  0  0  0
   21.9229  -20.9892  -12.5253 C   0  0  0  0  0  0  0  0  0  0  0  0
   23.0988  -21.2614  -11.8640 C   0  0  0  0  0  0  0  0  0  0  0  0
   23.4134  -20.6670  -10.6659 C   0  0  0  0  0  0  0  0  0  0  0  0
   24.7000  -20.9971   -9.9852 C   0  0  0  0  0  0  0  0  0  0  0  0
   25.8586  -20.2552  -10.5577 C   0  0  2  0  0  0  0  0  0  0  0  0
   26.1053  -20.7051  -11.9048 N   0  0  0  0  0  0  0  0  0  0  0  0
   27.0573  -20.4619   -9.6877 C   0  0  0  0  0  0  0  0  0  0  0  0
   26.9916  -20.0071   -8.3945 O   0  0  0  0  0  0  0  0  0  0  0  0
   22.5179  -19.7755  -10.1227 C   0  0  0  0  0  0  0  0  0  0  0  0
   21.3530  -19.5143  -10.7908 C   0  0  0  0  0  0  0  0  0  0  0  0
   28.0952  -21.0220  -10.0871 O   0  0  0  0  0  0  0  0  0  0  0  0
  1  5  1  0
  1  2  1  0
  2  3  1  0
  4  3  1  0
  5  4  1  0
  6  7  2  0
  5  6  1  1
  9  8  1  6
 10  9  1  0
 11  9  1  0
 11 12  1  6
 12  6  1  0
 13 11  1  0
 14 13  2  0
 16 17  2  0
 16 15  1  0
 18 17  1  0
 19 18  2  0
 21 20  1  1
 20 19  1  0
 21 22  1  0
 22 13  1  0
 23 24  1  0
 23 21  1  0
 25 19  1  0
 25 26  2  0
 26 16  1  0
 27 23  2  0
M  END
$$$$
