PTY.pdb
     RDKit          3D

 27 28  0  0  1  0  0  0  0  0999 V2000
   27.2990  -19.3548  -16.0950 N   0  0  0  0  0  0  0  0  0  0  0  0
   28.2125  -19.0340  -17.1697 C   0  0  0  0  0  0  0  0  0  0  0  0
   29.0266  -17.8612  -16.7276 C   0  0  0  0  0  0  0  0  0  0  0  0
   28.6877  -17.6714  -15.2642 C   0  0  0  0  0  0  0  0  0  0  0  0
   28.0294  -18.9804  -14.9228 C   0  0  1  0  0  0  0  0  0  0  0  0
   27.2011  -18.9012  -13.7079 C   0  0  0  0  0  0  0  0  0  0  0  0
   26.8470  -17.7674  -13.3097 O   0  0  0  0  0  0  0  0  0  0  0  0
   23.7934  -19.6509  -13.2416 C   0  0  0  0  0  0  0  0  0  0  0  0
   24.4735  -20.4066  -12.1495 C   0  0  1  0  0  0  0  0  0  0  0  0
   24.5530  -21.7557  -12.5755 O   0  0  0  0  0  0  0  0  0  0  0  0
   25.8655  -19.9759  -11.8492 C   0  0  2  0  0  0  0  0  0  0  0  0
   26.7746  -20.0193  -12.9546 N   0  0  0  0  0  0  0  0  0  0  0  0
   26.4005  -20.8179  -10.7484 C   0  0  0  0  0  0  0  0  0  0  0  0
   27.3222  -21.6679  -10.9406 O   0  0  0  0  0  0  0  0  0  0  0  0
   28.8549  -18.7446   -3.0359 O   0  0  0  0  0  0  0  0  0  0  0  0
   28.6130  -19.2750   -4.3022 C   0  0  0  0  0  0  0  0  0  0  0  0
   27.9184  -18.5935   -5.2771 C   0  0  0  0  0  0  0  0  0  0  0  0
   27.7098  -19.1678   -6.5104 C   0  0  0  0  0  0  0  0  0  0  0  0
   28.1772  -20.4232   -6.8160 C   0  0  0  0  0  0  0  0  0  0  0  0
   27.9229  -21.0048   -8.1669 C   0  0  0  0  0  0  0  0  0  0  0  0
   26.5133  -21.4559   -8.3409 C   0  0  2  0  0  0  0  0  0  0  0  0
   25.8914  -20.7059   -9.4033 N   0  0  0  0  0  0  0  0  0  0  0  0
   25.7762  -21.2848   -7.0511 C   0  0  0  0  0  0  0  0  0  0  0  0
   24.7665  -20.3561   -7.0130 O   0  0  0  0  0  0  0  0  0  0  0  0
   28.8727  -21.1151   -5.8519 C   0  0  0  0  0  0  0  0  0  0  0  0
   29.0726  -20.5321   -4.6307 C   0  0  0  0  0  0  0  0  0  0  0  0
   26.0407  -21.9431   -6.0277 O   0  0  0  0  0  0  0  0  0  0  0  0
  1  5  1  0
  1  2  1  0
  2  3  1  0
  4  3  1  0
  5  4  1  0
  6  7  2  0
  5  6  1  1
  9  8  1  6
 10  9  1  0
 11  9  1  0
 11 12  1  6
 12  6  1  0
 13 11  1  0
 14 13  2  0
 16 17  2  0
 16 15  1  0
 18 17  1  0
 19 18  2  0
 21 20  1  1
 20 19  1  0
 21 22  1  0
 22 13  1  0
 23 24  1  0
 23 21  1  0
 25 19  1  0
 25 26  2  0
 26 16  1  0
 27 23  2  0
M  END
$$$$
