PTY.pdb
     RDKit          3D

 27 28  0  0  1  0  0  0  0  0999 V2000
   16.1017  -22.6273    1.8085 N   0  0  0  0  0  0  0  0  0  0  0  0
   15.6810  -23.3288    0.6154 C   0  0  0  0  0  0  0  0  0  0  0  0
   14.3155  -22.8328    0.2647 C   0  0  0  0  0  0  0  0  0  0  0  0
   14.0722  -21.6552    1.1848 C   0  0  0  0  0  0  0  0  0  0  0  0
   15.4598  -21.3545    1.6824 C   0  0  1  0  0  0  0  0  0  0  0  0
   15.4602  -20.5644    2.9250 C   0  0  0  0  0  0  0  0  0  0  0  0
   15.0427  -19.3844    2.8724 O   0  0  0  0  0  0  0  0  0  0  0  0
   16.0294  -20.3722    7.9214 C   0  0  0  0  0  0  0  0  0  0  0  0
   16.2290  -21.0853    6.6261 C   0  0  1  0  0  0  0  0  0  0  0  0
   15.3914  -22.2278    6.6564 O   0  0  0  0  0  0  0  0  0  0  0  0
   15.8492  -20.3155    5.4110 C   0  0  2  0  0  0  0  0  0  0  0  0
   15.9003  -21.0449    4.1799 N   0  0  0  0  0  0  0  0  0  0  0  0
   16.7291  -19.1232    5.3048 C   0  0  0  0  0  0  0  0  0  0  0  0
   17.8650  -19.1753    4.7426 O   0  0  0  0  0  0  0  0  0  0  0  0
   19.9834  -10.9593    5.5686 O   0  0  0  0  0  0  0  0  0  0  0  0
   19.1519  -12.0771    5.5179 C   0  0  0  0  0  0  0  0  0  0  0  0
   18.3261  -12.4413    6.5584 C   0  0  0  0  0  0  0  0  0  0  0  0
   17.5262  -13.5563    6.4518 C   0  0  0  0  0  0  0  0  0  0  0  0
   17.5176  -14.3395    5.3229 C   0  0  0  0  0  0  0  0  0  0  0  0
   16.6346  -15.5410    5.2561 C   0  0  0  0  0  0  0  0  0  0  0  0
   17.2669  -16.7513    5.8528 C   0  0  2  0  0  0  0  0  0  0  0  0
   16.3283  -17.8452    5.8406 N   0  0  0  0  0  0  0  0  0  0  0  0
   17.7191  -16.4386    7.2435 C   0  0  0  0  0  0  0  0  0  0  0  0
   16.9054  -16.8235    8.2794 O   0  0  0  0  0  0  0  0  0  0  0  0
   18.3372  -13.9874    4.2761 C   0  0  0  0  0  0  0  0  0  0  0  0
   19.1270  -12.8768    4.3957 C   0  0  0  0  0  0  0  0  0  0  0  0
   18.7890  -15.8517    7.4916 O   0  0  0  0  0  0  0  0  0  0  0  0
  1  5  1  0
  1  2  1  0
  2  3  1  0
  4  3  1  0
  5  4  1  0
  6  7  2  0
  5  6  1  1
  9  8  1  1
 10  9  1  0
 11  9  1  0
 11 12  1  6
 12  6  1  0
 13 11  1  0
 14 13  2  0
 16 17  2  0
 16 15  1  0
 18 17  1  0
 19 18  2  0
 21 20  1  1
 20 19  1  0
 21 22  1  0
 22 13  1  0
 23 24  1  0
 23 21  1  0
 25 19  1  0
 25 26  2  0
 26 16  1  0
 27 23  2  0
M  END
$$$$
