PTY.pdb
     RDKit          3D

 27 28  0  0  1  0  0  0  0  0999 V2000
   19.6656  -11.4026  -18.6722 N   0  0  0  0  0  0  0  0  0  0  0  0
   19.3114  -12.7666  -18.9985 C   0  0  0  0  0  0  0  0  0  0  0  0
   20.5284  -13.4185  -19.5710 C   0  0  0  0  0  0  0  0  0  0  0  0
   21.6518  -12.4284  -19.3471 C   0  0  0  0  0  0  0  0  0  0  0  0
   21.0513  -11.4985  -18.3282 C   0  0  1  0  0  0  0  0  0  0  0  0
   21.7392  -10.1978  -18.2695 C   0  0  0  0  0  0  0  0  0  0  0  0
   22.9454  -10.1844  -17.9313 O   0  0  0  0  0  0  0  0  0  0  0  0
   22.4992   -7.5778  -20.9843 C   0  0  0  0  0  0  0  0  0  0  0  0
   21.7542   -6.9444  -19.8573 C   0  0  1  0  0  0  0  0  0  0  0  0
   20.3928   -6.8922  -20.2469 O   0  0  0  0  0  0  0  0  0  0  0  0
   21.7965   -7.6877  -18.5693 C   0  0  2  0  0  0  0  0  0  0  0  0
   21.1324   -8.9562  -18.5692 N   0  0  0  0  0  0  0  0  0  0  0  0
   21.2108   -6.8339  -17.5040 C   0  0  0  0  0  0  0  0  0  0  0  0
   19.9609   -6.7864  -17.2932 O   0  0  0  0  0  0  0  0  0  0  0  0
   17.9052  -10.2169  -13.7007 O   0  0  0  0  0  0  0  0  0  0  0  0
   18.8256   -9.1798  -13.8448 C   0  0  0  0  0  0  0  0  0  0  0  0
   20.1814   -9.3558  -13.6773 C   0  0  0  0  0  0  0  0  0  0  0  0
   21.0434   -8.2941  -13.8324 C   0  0  0  0  0  0  0  0  0  0  0  0
   20.5960   -7.0357  -14.1551 C   0  0  0  0  0  0  0  0  0  0  0  0
   21.5698   -5.9152  -14.3094 C   0  0  0  0  0  0  0  0  0  0  0  0
   21.4383   -5.2174  -15.6196 C   0  0  2  0  0  0  0  0  0  0  0  0
   22.0432   -6.0148  -16.6570 N   0  0  0  0  0  0  0  0  0  0  0  0
   22.0779   -3.8687  -15.5282 C   0  0  0  0  0  0  0  0  0  0  0  0
   21.4791   -2.9333  -14.7220 O   0  0  0  0  0  0  0  0  0  0  0  0
   19.2445   -6.8456  -14.3255 C   0  0  0  0  0  0  0  0  0  0  0  0
   18.3993   -7.9097  -14.1683 C   0  0  0  0  0  0  0  0  0  0  0  0
   23.1163   -3.5686  -16.1464 O   0  0  0  0  0  0  0  0  0  0  0  0
  1  5  1  0
  1  2  1  0
  2  3  1  0
  4  3  1  0
  5  4  1  0
  6  7  2  0
  5  6  1  6
  9  8  1  6
 10  9  1  0
 11  9  1  0
 11 12  1  6
 12  6  1  0
 13 11  1  0
 14 13  2  0
 16 17  2  0
 16 15  1  0
 18 17  1  0
 19 18  2  0
 21 20  1  1
 20 19  1  0
 21 22  1  0
 22 13  1  0
 23 24  1  0
 23 21  1  0
 25 19  1  0
 25 26  2  0
 26 16  1  0
 27 23  2  0
M  END
$$$$
