YLM.pdb
     RDKit          3D

 29 29  0  0  1  0  0  0  0  0999 V2000
    8.4653  -18.8588   29.0781 O   0  0  0  0  0  0  0  0  0  0  0  0
    7.7909  -18.8867   27.8661 C   0  0  0  0  0  0  0  0  0  0  0  0
    7.5794  -20.0877   27.1805 C   0  0  0  0  0  0  0  0  0  0  0  0
    6.9125  -20.1166   25.9817 C   0  0  0  0  0  0  0  0  0  0  0  0
    6.4233  -18.9834   25.3983 C   0  0  0  0  0  0  0  0  0  0  0  0
    5.7064  -18.9370   24.1229 C   0  0  0  0  0  0  0  0  0  0  0  0
    6.5564  -19.2405   22.9126 C   0  0  2  0  0  0  0  0  0  0  0  0
    7.4298  -20.3519   23.3173 N   0  0  0  0  0  0  0  0  0  0  0  0
    7.4397  -18.1029   22.5750 C   0  0  0  0  0  0  0  0  0  0  0  0
    8.7002  -18.2374   22.7526 O   0  0  0  0  0  0  0  0  0  0  0  0
    6.6281  -17.7780   26.0728 C   0  0  0  0  0  0  0  0  0  0  0  0
    7.2983  -17.7356   27.2810 C   0  0  0  0  0  0  0  0  0  0  0  0
    6.9047  -12.2108   20.7521 C   0  0  0  0  0  0  0  0  0  0  0  0
    7.7175  -13.4967   20.5252 C   0  0  2  0  0  0  0  0  0  0  0  0
    7.9897  -13.5652   19.0719 C   0  0  0  0  0  0  0  0  0  0  0  0
    6.9862  -14.5966   21.1545 C   0  0  0  0  0  0  0  0  0  0  0  0
    7.7295  -15.7755   21.6578 C   0  0  2  0  0  0  0  0  0  0  0  0
    6.9252  -16.8807   22.0647 N   0  0  0  0  0  0  0  0  0  0  0  0
    8.8027  -15.4506   22.6348 C   0  0  0  0  0  0  0  0  0  0  0  0
    9.9380  -15.0454   22.2064 O   0  0  0  0  0  0  0  0  0  0  0  0
    6.4446  -11.5553   26.7032 C   0  0  0  0  0  0  0  0  0  0  0  0
    7.4398  -12.4964   27.8753 S   0  0  0  0  0  0  0  0  0  0  0  0
    8.8093  -13.2538   27.0023 C   0  0  0  0  0  0  0  0  0  0  0  0
    8.3701  -14.1445   25.9243 C   0  0  0  0  0  0  0  0  0  0  0  0
    9.3893  -14.7055   24.9843 C   0  0  2  0  0  0  0  0  0  0  0  0
    8.6347  -15.5666   24.0370 N   0  0  0  0  0  0  0  0  0  0  0  0
   10.3471  -15.5755   25.6401 C   0  0  0  0  0  0  0  0  0  0  0  0
   10.2275  -16.8373   25.4922 O   0  0  0  0  0  0  0  0  0  0  0  0
   11.4209  -15.2077   26.4305 O   0  0  0  0  0  0  0  0  0  0  0  0
  2  3  2  0
  2  1  1  0
  4  3  1  0
  5  4  2  0
  6  5  1  0
  7  9  1  0
  7  6  1  0
  7  8  1  1
  9 10  2  0
 11  5  1  0
 11 12  2  0
 12  2  1  0
 14 13  1  6
 14 15  1  0
 16 14  1  0
 17 16  1  1
 18 17  1  0
 18  9  1  0
 19 20  2  0
 19 17  1  0
 22 23  1  0
 22 21  1  0
 23 24  1  0
 25 24  1  1
 25 27  1  0
 25 26  1  0
 26 19  1  0
 27 29  1  0
 28 27  2  0
M  END
$$$$
