YLM.pdb
     RDKit          3D

 29 29  0  0  1  0  0  0  0  0999 V2000
    8.0682  -21.2789   30.1497 O   0  0  0  0  0  0  0  0  0  0  0  0
    7.9119  -20.4647   29.0373 C   0  0  0  0  0  0  0  0  0  0  0  0
    8.9730  -19.6978   28.5442 C   0  0  0  0  0  0  0  0  0  0  0  0
    8.8197  -18.8923   27.4441 C   0  0  0  0  0  0  0  0  0  0  0  0
    7.6324  -18.7968   26.7769 C   0  0  0  0  0  0  0  0  0  0  0  0
    7.3942  -17.9582   25.6009 C   0  0  0  0  0  0  0  0  0  0  0  0
    7.0135  -18.7186   24.3534 C   0  0  2  0  0  0  0  0  0  0  0  0
    7.6930  -20.0177   24.4649 N   0  0  0  0  0  0  0  0  0  0  0  0
    7.5431  -18.0613   23.1386 C   0  0  0  0  0  0  0  0  0  0  0  0
    8.6378  -18.4975   22.6386 O   0  0  0  0  0  0  0  0  0  0  0  0
    6.5654  -19.5575   27.2594 C   0  0  0  0  0  0  0  0  0  0  0  0
    6.7071  -20.3728   28.3666 C   0  0  0  0  0  0  0  0  0  0  0  0
    8.3534  -13.8473   20.3954 C   0  0  0  0  0  0  0  0  0  0  0  0
    7.1671  -13.4007   21.2666 C   0  0  2  0  0  0  0  0  0  0  0  0
    7.6307  -12.2170   22.0247 C   0  0  0  0  0  0  0  0  0  0  0  0
    6.7013  -14.5715   22.0100 C   0  0  0  0  0  0  0  0  0  0  0  0
    7.5207  -15.8061   22.0181 C   0  0  2  0  0  0  0  0  0  0  0  0
    6.8712  -16.9709   22.5235 N   0  0  0  0  0  0  0  0  0  0  0  0
    8.8925  -15.6263   22.5636 C   0  0  0  0  0  0  0  0  0  0  0  0
    9.8259  -15.2186   21.7896 O   0  0  0  0  0  0  0  0  0  0  0  0
    8.8733  -13.3093   28.2559 C   0  0  0  0  0  0  0  0  0  0  0  0
   10.4860  -14.0843   28.4763 S   0  0  0  0  0  0  0  0  0  0  0  0
   11.1337  -14.5508   26.8718 C   0  0  0  0  0  0  0  0  0  0  0  0
   10.0883  -15.0016   25.9487 C   0  0  0  0  0  0  0  0  0  0  0  0
   10.4554  -15.3193   24.5340 C   0  0  2  0  0  0  0  0  0  0  0  0
    9.2285  -15.8855   23.9155 N   0  0  0  0  0  0  0  0  0  0  0  0
   11.4693  -16.3515   24.4297 C   0  0  0  0  0  0  0  0  0  0  0  0
   12.6420  -16.1023   24.8667 O   0  0  0  0  0  0  0  0  0  0  0  0
   11.3299  -17.6239   23.9060 O   0  0  0  0  0  0  0  0  0  0  0  0
  2  3  2  0
  2  1  1  0
  4  3  1  0
  5  4  2  0
  6  5  1  0
  7  9  1  0
  7  6  1  0
  7  8  1  1
  9 10  2  0
 11  5  1  0
 11 12  2  0
 12  2  1  0
 14 13  1  1
 14 15  1  0
 16 14  1  0
 17 16  1  1
 18 17  1  0
 18  9  1  0
 19 20  2  0
 19 17  1  0
 22 23  1  0
 22 21  1  0
 23 24  1  0
 25 24  1  1
 25 27  1  0
 25 26  1  0
 26 19  1  0
 27 29  1  0
 28 27  2  0
M  END
$$$$
