YLM.pdb
     RDKit          3D

 29 29  0  0  1  0  0  0  0  0999 V2000
    6.8692  -23.2870   18.4820 O   0  0  0  0  0  0  0  0  0  0  0  0
    7.3590  -22.2458   19.2571 C   0  0  0  0  0  0  0  0  0  0  0  0
    8.7214  -21.9281   19.2686 C   0  0  0  0  0  0  0  0  0  0  0  0
    9.2071  -20.8986   20.0347 C   0  0  0  0  0  0  0  0  0  0  0  0
    8.3929  -20.1350   20.8207 C   0  0  0  0  0  0  0  0  0  0  0  0
    8.8392  -19.0255   21.6649 C   0  0  0  0  0  0  0  0  0  0  0  0
    8.4959  -17.6544   21.1342 C   0  0  2  0  0  0  0  0  0  0  0  0
    9.3001  -17.4952   19.9137 N   0  0  0  0  0  0  0  0  0  0  0  0
    8.9231  -16.5914   22.0701 C   0  0  0  0  0  0  0  0  0  0  0  0
   10.1097  -16.1239   21.9596 O   0  0  0  0  0  0  0  0  0  0  0  0
    7.0307  -20.4423   20.8180 C   0  0  0  0  0  0  0  0  0  0  0  0
    6.5291  -21.4768   20.0506 C   0  0  0  0  0  0  0  0  0  0  0  0
    7.1206  -13.7356   26.6326 C   0  0  0  0  0  0  0  0  0  0  0  0
    7.4435  -13.0582   25.2900 C   0  0  2  0  0  0  0  0  0  0  0  0
    6.6176  -11.8311   25.2345 C   0  0  0  0  0  0  0  0  0  0  0  0
    7.2787  -14.0626   24.2391 C   0  0  0  0  0  0  0  0  0  0  0  0
    8.3817  -15.0102   23.9538 C   0  0  2  0  0  0  0  0  0  0  0  0
    8.0559  -16.0853   23.0753 N   0  0  0  0  0  0  0  0  0  0  0  0
    9.1331  -15.4547   25.1579 C   0  0  0  0  0  0  0  0  0  0  0  0
    8.4869  -15.8311   26.1958 O   0  0  0  0  0  0  0  0  0  0  0  0
   10.7309  -14.1028   31.5270 C   0  0  0  0  0  0  0  0  0  0  0  0
   10.3258  -13.6458   29.8308 S   0  0  0  0  0  0  0  0  0  0  0  0
   10.5031  -15.0865   28.7799 C   0  0  0  0  0  0  0  0  0  0  0  0
   10.9900  -14.7521   27.4385 C   0  0  0  0  0  0  0  0  0  0  0  0
   11.2639  -15.8570   26.4683 C   0  0  2  0  0  0  0  0  0  0  0  0
   10.5484  -15.4853   25.2200 N   0  0  0  0  0  0  0  0  0  0  0  0
   10.7060  -17.1293   26.8858 C   0  0  0  0  0  0  0  0  0  0  0  0
    9.4964  -17.3962   26.5788 O   0  0  0  0  0  0  0  0  0  0  0  0
   11.3350  -18.1369   27.5942 O   0  0  0  0  0  0  0  0  0  0  0  0
  2  3  2  0
  2  1  1  0
  4  3  1  0
  5  4  2  0
  6  5  1  0
  7  9  1  0
  7  6  1  0
  7  8  1  6
  9 10  2  0
 11  5  1  0
 11 12  2  0
 12  2  1  0
 14 13  1  1
 14 15  1  0
 16 14  1  0
 17 16  1  1
 18 17  1  0
 18  9  1  0
 19 20  2  0
 19 17  1  0
 22 23  1  0
 22 21  1  0
 23 24  1  0
 25 24  1  1
 25 27  1  0
 25 26  1  0
 26 19  1  0
 27 29  1  0
 28 27  2  0
M  END
$$$$
