YLM.pdb
     RDKit          3D

 29 29  0  0  1  0  0  0  0  0999 V2000
    6.0562  -23.1329   28.6297 O   0  0  0  0  0  0  0  0  0  0  0  0
    6.3058  -22.0922   27.7469 C   0  0  0  0  0  0  0  0  0  0  0  0
    5.4261  -21.8033   26.6981 C   0  0  0  0  0  0  0  0  0  0  0  0
    5.6718  -20.7743   25.8243 C   0  0  0  0  0  0  0  0  0  0  0  0
    6.7795  -19.9834   25.9309 C   0  0  0  0  0  0  0  0  0  0  0  0
    7.1083  -18.8725   25.0360 C   0  0  0  0  0  0  0  0  0  0  0  0
    7.2098  -19.2492   23.5775 C   0  0  2  0  0  0  0  0  0  0  0  0
    8.0601  -20.4482   23.5418 N   0  0  0  0  0  0  0  0  0  0  0  0
    7.9098  -18.2046   22.7983 C   0  0  0  0  0  0  0  0  0  0  0  0
    9.1608  -18.3512   22.5701 O   0  0  0  0  0  0  0  0  0  0  0  0
    7.6654  -20.2618   26.9737 C   0  0  0  0  0  0  0  0  0  0  0  0
    7.4292  -21.2954   27.8605 C   0  0  0  0  0  0  0  0  0  0  0  0
    6.4117  -12.6142   20.4956 C   0  0  0  0  0  0  0  0  0  0  0  0
    7.5735  -13.5563   20.8538 C   0  0  2  0  0  0  0  0  0  0  0  0
    8.4513  -13.6050   19.6630 C   0  0  0  0  0  0  0  0  0  0  0  0
    6.9919  -14.8045   21.3481 C   0  0  0  0  0  0  0  0  0  0  0  0
    7.8727  -15.8351   21.9462 C   0  0  2  0  0  0  0  0  0  0  0  0
    7.2318  -17.0578   22.3045 N   0  0  0  0  0  0  0  0  0  0  0  0
    8.7783  -15.3238   23.0094 C   0  0  0  0  0  0  0  0  0  0  0  0
    9.7320  -14.5323   22.6924 O   0  0  0  0  0  0  0  0  0  0  0  0
    8.1138  -10.4919   26.7241 C   0  0  0  0  0  0  0  0  0  0  0  0
    6.8079  -11.7342   26.6884 S   0  0  0  0  0  0  0  0  0  0  0  0
    7.5099  -13.3312   27.0985 C   0  0  0  0  0  0  0  0  0  0  0  0
    7.5788  -14.2324   25.9447 C   0  0  0  0  0  0  0  0  0  0  0  0
    8.9173  -14.6896   25.4584 C   0  0  2  0  0  0  0  0  0  0  0  0
    8.6409  -15.6701   24.3765 N   0  0  0  0  0  0  0  0  0  0  0  0
    9.6716  -15.4089   26.4674 C   0  0  0  0  0  0  0  0  0  0  0  0
   10.0071  -14.7934   27.5337 O   0  0  0  0  0  0  0  0  0  0  0  0
   10.0872  -16.7275   26.4325 O   0  0  0  0  0  0  0  0  0  0  0  0
  2  3  2  0
  2  1  1  0
  4  3  1  0
  5  4  2  0
  6  5  1  0
  7  9  1  0
  7  6  1  0
  7  8  1  1
  9 10  2  0
 11  5  1  0
 11 12  2  0
 12  2  1  0
 14 13  1  6
 14 15  1  0
 16 14  1  0
 17 16  1  1
 18 17  1  0
 18  9  1  0
 19 20  2  0
 19 17  1  0
 22 23  1  0
 22 21  1  0
 23 24  1  0
 25 24  1  1
 25 27  1  0
 25 26  1  0
 26 19  1  0
 27 29  1  0
 28 27  2  0
M  END
$$$$
