YLM.pdb
     RDKit          3D

 29 29  0  0  1  0  0  0  0  0999 V2000
   11.3559  -15.1840   31.1965 O   0  0  0  0  0  0  0  0  0  0  0  0
   10.6256  -15.2771   30.0206 C   0  0  0  0  0  0  0  0  0  0  0  0
   10.4577  -14.1708   29.1809 C   0  0  0  0  0  0  0  0  0  0  0  0
    9.7356  -14.2616   28.0176 C   0  0  0  0  0  0  0  0  0  0  0  0
    9.1471  -15.4276   27.6205 C   0  0  0  0  0  0  0  0  0  0  0  0
    8.3613  -15.5983   26.3972 C   0  0  0  0  0  0  0  0  0  0  0  0
    9.0126  -16.4667   25.3479 C   0  0  2  0  0  0  0  0  0  0  0  0
   10.3705  -15.9277   25.1824 N   0  0  0  0  0  0  0  0  0  0  0  0
    8.3357  -16.3310   24.0396 C   0  0  0  0  0  0  0  0  0  0  0  0
    7.3921  -17.1478   23.7548 O   0  0  0  0  0  0  0  0  0  0  0  0
    9.3074  -16.5392   28.4501 C   0  0  0  0  0  0  0  0  0  0  0  0
   10.0323  -16.4607   29.6244 C   0  0  0  0  0  0  0  0  0  0  0  0
    7.7497  -12.4658   19.2838 C   0  0  0  0  0  0  0  0  0  0  0  0
    7.6544  -13.9363   19.7244 C   0  0  2  0  0  0  0  0  0  0  0  0
    6.2629  -14.3619   19.4536 C   0  0  0  0  0  0  0  0  0  0  0  0
    8.1590  -14.0189   21.0952 C   0  0  0  0  0  0  0  0  0  0  0  0
    8.3599  -15.3465   21.7218 C   0  0  2  0  0  0  0  0  0  0  0  0
    8.7059  -15.3267   23.1052 N   0  0  0  0  0  0  0  0  0  0  0  0
    9.2064  -16.2761   20.9273 C   0  0  0  0  0  0  0  0  0  0  0  0
    8.7555  -16.7488   19.8274 O   0  0  0  0  0  0  0  0  0  0  0  0
   11.8550  -12.5584   19.2962 C   0  0  0  0  0  0  0  0  0  0  0  0
   12.7398  -13.8820   18.4506 S   0  0  0  0  0  0  0  0  0  0  0  0
   11.8476  -15.4193   18.6785 C   0  0  0  0  0  0  0  0  0  0  0  0
   12.3022  -16.1689   19.8531 C   0  0  0  0  0  0  0  0  0  0  0  0
   11.4597  -17.2915   20.3697 C   0  0  2  0  0  0  0  0  0  0  0  0
   10.5063  -16.6736   21.3275 N   0  0  0  0  0  0  0  0  0  0  0  0
   12.2182  -18.2652   21.1317 C   0  0  0  0  0  0  0  0  0  0  0  0
   13.1231  -18.9381   20.5343 O   0  0  0  0  0  0  0  0  0  0  0  0
   12.0938  -18.5709   22.4748 O   0  0  0  0  0  0  0  0  0  0  0  0
  2  3  2  0
  2  1  1  0
  4  3  1  0
  5  4  2  0
  6  5  1  0
  7  9  1  0
  7  6  1  0
  7  8  1  6
  9 10  2  0
 11  5  1  0
 11 12  2  0
 12  2  1  0
 14 13  1  1
 14 15  1  0
 16 14  1  0
 17 16  1  6
 18 17  1  0
 18  9  1  0
 19 20  2  0
 19 17  1  0
 22 23  1  0
 22 21  1  0
 23 24  1  0
 25 24  1  1
 25 27  1  0
 25 26  1  0
 26 19  1  0
 27 29  1  0
 28 27  2  0
M  END
$$$$
