YLM.pdb
     RDKit          3D

 29 29  0  0  1  0  0  0  0  0999 V2000
   10.7827  -25.1680   20.4679 O   0  0  0  0  0  0  0  0  0  0  0  0
   10.7676  -23.8375   20.8605 C   0  0  0  0  0  0  0  0  0  0  0  0
   11.7961  -23.2993   21.6413 C   0  0  0  0  0  0  0  0  0  0  0  0
   11.7824  -21.9835   22.0302 C   0  0  0  0  0  0  0  0  0  0  0  0
   10.7719  -21.1355   21.6785 C   0  0  0  0  0  0  0  0  0  0  0  0
   10.6885  -19.7242   22.0581 C   0  0  0  0  0  0  0  0  0  0  0  0
   10.9528  -18.7538   20.9322 C   0  0  2  0  0  0  0  0  0  0  0  0
   12.4047  -18.8038   20.7058 N   0  0  0  0  0  0  0  0  0  0  0  0
   10.6290  -17.3660   21.3292 C   0  0  0  0  0  0  0  0  0  0  0  0
   11.4551  -16.7393   22.0799 O   0  0  0  0  0  0  0  0  0  0  0  0
    9.7392  -21.6608   20.8990 C   0  0  0  0  0  0  0  0  0  0  0  0
    9.7415  -22.9844   20.5009 C   0  0  0  0  0  0  0  0  0  0  0  0
    6.3310  -13.0738   20.0417 C   0  0  0  0  0  0  0  0  0  0  0  0
    7.5219  -13.4427   20.9426 C   0  0  2  0  0  0  0  0  0  0  0  0
    8.5239  -12.3675   20.7676 C   0  0  0  0  0  0  0  0  0  0  0  0
    7.9058  -14.8180   20.6237 C   0  0  0  0  0  0  0  0  0  0  0  0
    8.9506  -15.4913   21.4303 C   0  0  2  0  0  0  0  0  0  0  0  0
    9.4367  -16.7230   20.9007 N   0  0  0  0  0  0  0  0  0  0  0  0
    8.6470  -15.5668   22.8843 C   0  0  0  0  0  0  0  0  0  0  0  0
    7.9664  -16.5533   23.3316 O   0  0  0  0  0  0  0  0  0  0  0  0
    6.9089  -11.0794   26.7335 C   0  0  0  0  0  0  0  0  0  0  0  0
    5.8118  -12.4776   27.0356 S   0  0  0  0  0  0  0  0  0  0  0  0
    6.6816  -13.9962   26.6499 C   0  0  0  0  0  0  0  0  0  0  0  0
    7.4248  -13.9181   25.3891 C   0  0  0  0  0  0  0  0  0  0  0  0
    8.7089  -14.6732   25.2544 C   0  0  2  0  0  0  0  0  0  0  0  0
    9.0773  -14.5908   23.8171 N   0  0  0  0  0  0  0  0  0  0  0  0
    8.5694  -16.0862   25.5515 C   0  0  0  0  0  0  0  0  0  0  0  0
    8.7041  -16.4725   26.7602 O   0  0  0  0  0  0  0  0  0  0  0  0
    8.2916  -17.1129   24.6674 O   0  0  0  0  0  0  0  0  0  0  0  0
  2  3  2  0
  2  1  1  0
  4  3  1  0
  5  4  2  0
  6  5  1  0
  7  9  1  0
  7  6  1  0
  7  8  1  1
  9 10  2  0
 11  5  1  0
 11 12  2  0
 12  2  1  0
 14 13  1  6
 14 15  1  0
 16 14  1  0
 17 16  1  6
 18 17  1  0
 18  9  1  0
 19 20  2  0
 19 17  1  0
 22 23  1  0
 22 21  1  0
 23 24  1  0
 25 24  1  6
 25 27  1  0
 25 26  1  0
 26 19  1  0
 27 29  1  0
 28 27  2  0
M  END
$$$$
