YLM.pdb
     RDKit          3D

 29 29  0  0  1  0  0  0  0  0999 V2000
    3.6921  -23.5497   24.2171 O   0  0  0  0  0  0  0  0  0  0  0  0
    4.5454  -22.4833   23.9738 C   0  0  0  0  0  0  0  0  0  0  0  0
    4.0657  -21.2707   23.4670 C   0  0  0  0  0  0  0  0  0  0  0  0
    4.9087  -20.2152   23.2259 C   0  0  0  0  0  0  0  0  0  0  0  0
    6.2505  -20.2914   23.4659 C   0  0  0  0  0  0  0  0  0  0  0  0
    7.2091  -19.2103   23.2307 C   0  0  0  0  0  0  0  0  0  0  0  0
    7.3917  -18.8370   21.7792 C   0  0  2  0  0  0  0  0  0  0  0  0
    8.0477  -19.9965   21.1571 N   0  0  0  0  0  0  0  0  0  0  0  0
    8.3153  -17.6912   21.6293 C   0  0  0  0  0  0  0  0  0  0  0  0
    9.5731  -17.9249   21.5851 O   0  0  0  0  0  0  0  0  0  0  0  0
    6.7417  -21.4966   23.9719 C   0  0  0  0  0  0  0  0  0  0  0  0
    5.9029  -22.5671   24.2190 C   0  0  0  0  0  0  0  0  0  0  0  0
    8.6308  -14.3345   18.6184 C   0  0  0  0  0  0  0  0  0  0  0  0
    7.5018  -14.0586   19.6259 C   0  0  2  0  0  0  0  0  0  0  0  0
    6.7637  -12.8834   19.1112 C   0  0  0  0  0  0  0  0  0  0  0  0
    8.1077  -13.9793   20.9553 C   0  0  0  0  0  0  0  0  0  0  0  0
    8.6773  -15.1997   21.5733 C   0  0  2  0  0  0  0  0  0  0  0  0
    7.8419  -16.3549   21.5344 N   0  0  0  0  0  0  0  0  0  0  0  0
    9.2958  -14.9780   22.9076 C   0  0  0  0  0  0  0  0  0  0  0  0
   10.2481  -14.1318   23.0236 O   0  0  0  0  0  0  0  0  0  0  0  0
    6.0231  -11.7168   26.8536 C   0  0  0  0  0  0  0  0  0  0  0  0
    7.6553  -12.2341   27.4178 S   0  0  0  0  0  0  0  0  0  0  0  0
    7.7863  -14.0153   27.2711 C   0  0  0  0  0  0  0  0  0  0  0  0
    7.9027  -14.4616   25.8799 C   0  0  0  0  0  0  0  0  0  0  0  0
    9.1654  -15.1274   25.4334 C   0  0  2  0  0  0  0  0  0  0  0  0
    8.8818  -15.6632   24.0767 N   0  0  0  0  0  0  0  0  0  0  0  0
    9.5218  -16.2723   26.2496 C   0  0  0  0  0  0  0  0  0  0  0  0
    9.0387  -17.4136   25.9453 O   0  0  0  0  0  0  0  0  0  0  0  0
   10.3542  -16.2976   27.3539 O   0  0  0  0  0  0  0  0  0  0  0  0
  2  3  2  0
  2  1  1  0
  4  3  1  0
  5  4  2  0
  6  5  1  0
  7  9  1  0
  7  6  1  0
  7  8  1  6
  9 10  2  0
 11  5  1  0
 11 12  2  0
 12  2  1  0
 14 13  1  6
 14 15  1  0
 16 14  1  0
 17 16  1  1
 18 17  1  0
 18  9  1  0
 19 20  2  0
 19 17  1  0
 22 23  1  0
 22 21  1  0
 23 24  1  0
 25 24  1  1
 25 27  1  0
 25 26  1  0
 26 19  1  0
 27 29  1  0
 28 27  2  0
M  END
$$$$
