YLM.pdb
     RDKit          3D

 29 29  0  0  1  0  0  0  0  0999 V2000
    7.3615  -12.4818   16.5575 O   0  0  0  0  0  0  0  0  0  0  0  0
    7.5317  -13.1065   17.7845 C   0  0  0  0  0  0  0  0  0  0  0  0
    8.3740  -12.5675   18.7629 C   0  0  0  0  0  0  0  0  0  0  0  0
    8.5431  -13.1844   19.9768 C   0  0  0  0  0  0  0  0  0  0  0  0
    7.9031  -14.3483   20.2924 C   0  0  0  0  0  0  0  0  0  0  0  0
    8.0369  -15.0632   21.5628 C   0  0  0  0  0  0  0  0  0  0  0  0
    8.7203  -16.4056   21.4596 C   0  0  2  0  0  0  0  0  0  0  0  0
    7.6996  -17.3243   20.9342 N   0  0  0  0  0  0  0  0  0  0  0  0
    9.1103  -16.9159   22.7922 C   0  0  0  0  0  0  0  0  0  0  0  0
    8.1929  -17.1008   23.6656 O   0  0  0  0  0  0  0  0  0  0  0  0
    7.0594  -14.8964   19.3241 C   0  0  0  0  0  0  0  0  0  0  0  0
    6.8807  -14.2847   18.0975 C   0  0  0  0  0  0  0  0  0  0  0  0
   11.4707  -20.5170   24.2439 C   0  0  0  0  0  0  0  0  0  0  0  0
   12.4392  -19.4519   23.7023 C   0  0  2  0  0  0  0  0  0  0  0  0
   13.7823  -20.0740   23.7009 C   0  0  0  0  0  0  0  0  0  0  0  0
   12.2323  -18.2313   24.4820 C   0  0  0  0  0  0  0  0  0  0  0  0
   10.9226  -17.5406   24.4253 C   0  0  2  0  0  0  0  0  0  0  0  0
   10.4634  -17.2012   23.1185 N   0  0  0  0  0  0  0  0  0  0  0  0
   10.7770  -16.4244   25.3974 C   0  0  0  0  0  0  0  0  0  0  0  0
   11.4894  -15.3717   25.2535 O   0  0  0  0  0  0  0  0  0  0  0  0
    7.1334  -10.8766   26.7137 C   0  0  0  0  0  0  0  0  0  0  0  0
    7.3605  -12.6291   26.3569 S   0  0  0  0  0  0  0  0  0  0  0  0
    8.3201  -13.3736   27.6745 C   0  0  0  0  0  0  0  0  0  0  0  0
    8.4893  -14.8194   27.5042 C   0  0  0  0  0  0  0  0  0  0  0  0
    9.8686  -15.3976   27.5281 C   0  0  2  0  0  0  0  0  0  0  0  0
    9.8781  -16.4629   26.4920 N   0  0  0  0  0  0  0  0  0  0  0  0
   10.1859  -16.0553   28.7814 C   0  0  0  0  0  0  0  0  0  0  0  0
   10.3796  -15.3354   29.8172 O   0  0  0  0  0  0  0  0  0  0  0  0
   10.3047  -17.4128   29.0178 O   0  0  0  0  0  0  0  0  0  0  0  0
  2  3  2  0
  2  1  1  0
  4  3  1  0
  5  4  2  0
  6  5  1  0
  7  9  1  0
  7  6  1  0
  7  8  1  1
  9 10  2  0
 11  5  1  0
 11 12  2  0
 12  2  1  0
 14 13  1  1
 14 15  1  0
 16 14  1  0
 17 16  1  6
 18 17  1  0
 18  9  1  0
 19 20  2  0
 19 17  1  0
 22 23  1  0
 22 21  1  0
 23 24  1  0
 25 24  1  1
 25 27  1  0
 25 26  1  0
 26 19  1  0
 27 29  1  0
 28 27  2  0
M  END
$$$$
