YLM.pdb
     RDKit          3D

 29 29  0  0  1  0  0  0  0  0999 V2000
    7.7845  -14.5794   14.4312 O   0  0  0  0  0  0  0  0  0  0  0  0
    8.1106  -14.3869   15.7658 C   0  0  0  0  0  0  0  0  0  0  0  0
    7.4755  -13.4050   16.5339 C   0  0  0  0  0  0  0  0  0  0  0  0
    7.7971  -13.2136   17.8540 C   0  0  0  0  0  0  0  0  0  0  0  0
    8.7468  -13.9654   18.4838 C   0  0  0  0  0  0  0  0  0  0  0  0
    9.1438  -13.8165   19.8849 C   0  0  0  0  0  0  0  0  0  0  0  0
    9.0738  -15.0876   20.6965 C   0  0  2  0  0  0  0  0  0  0  0  0
    7.6609  -15.4933   20.6664 N   0  0  0  0  0  0  0  0  0  0  0  0
    9.4186  -14.8420   22.1140 C   0  0  0  0  0  0  0  0  0  0  0  0
   10.6041  -14.4474   22.3925 O   0  0  0  0  0  0  0  0  0  0  0  0
    9.3880  -14.9490   17.7278 C   0  0  0  0  0  0  0  0  0  0  0  0
    9.0730  -15.1516   16.3972 C   0  0  0  0  0  0  0  0  0  0  0  0
    7.6936  -12.0400   25.4857 C   0  0  0  0  0  0  0  0  0  0  0  0
    6.7389  -13.2011   25.1599 C   0  0  2  0  0  0  0  0  0  0  0  0
    5.5243  -12.9822   25.9771 C   0  0  0  0  0  0  0  0  0  0  0  0
    7.4858  -14.4472   25.3333 C   0  0  0  0  0  0  0  0  0  0  0  0
    8.7030  -14.6889   24.5236 C   0  0  2  0  0  0  0  0  0  0  0  0
    8.4743  -15.0321   23.1584 N   0  0  0  0  0  0  0  0  0  0  0  0
    9.7098  -15.5654   25.1793 C   0  0  0  0  0  0  0  0  0  0  0  0
   10.9373  -15.2056   25.1960 O   0  0  0  0  0  0  0  0  0  0  0  0
    9.6769  -13.2853   29.2340 C   0  0  0  0  0  0  0  0  0  0  0  0
   10.7334  -14.6440   29.7704 S   0  0  0  0  0  0  0  0  0  0  0  0
   11.1715  -15.6401   28.3465 C   0  0  0  0  0  0  0  0  0  0  0  0
   10.1646  -16.6593   28.0373 C   0  0  0  0  0  0  0  0  0  0  0  0
   10.2926  -17.4473   26.7725 C   0  0  2  0  0  0  0  0  0  0  0  0
    9.3794  -16.7971   25.7971 N   0  0  0  0  0  0  0  0  0  0  0  0
    9.8271  -18.8146   26.9069 C   0  0  0  0  0  0  0  0  0  0  0  0
    8.5965  -19.0659   26.6810 O   0  0  0  0  0  0  0  0  0  0  0  0
   10.5677  -19.9299   27.2536 O   0  0  0  0  0  0  0  0  0  0  0  0
  2  3  2  0
  2  1  1  0
  4  3  1  0
  5  4  2  0
  6  5  1  0
  7  9  1  0
  7  6  1  0
  7  8  1  1
  9 10  2  0
 11  5  1  0
 11 12  2  0
 12  2  1  0
 14 13  1  1
 14 15  1  0
 16 14  1  0
 17 16  1  1
 18 17  1  0
 18  9  1  0
 19 20  2  0
 19 17  1  0
 22 23  1  0
 22 21  1  0
 23 24  1  0
 25 24  1  1
 25 27  1  0
 25 26  1  0
 26 19  1  0
 27 29  1  0
 28 27  2  0
M  END
$$$$
