YLM.pdb
     RDKit          3D

 29 29  0  0  1  0  0  0  0  0999 V2000
    5.3196  -22.6664   27.9740 O   0  0  0  0  0  0  0  0  0  0  0  0
    6.0043  -21.7547   27.1837 C   0  0  0  0  0  0  0  0  0  0  0  0
    7.3767  -21.5384   27.3480 C   0  0  0  0  0  0  0  0  0  0  0  0
    8.0551  -20.6370   26.5670 C   0  0  0  0  0  0  0  0  0  0  0  0
    7.4318  -19.9086   25.5951 C   0  0  0  0  0  0  0  0  0  0  0  0
    8.0883  -18.9291   24.7276 C   0  0  0  0  0  0  0  0  0  0  0  0
    7.5161  -18.8412   23.3332 C   0  0  2  0  0  0  0  0  0  0  0  0
    7.7634  -20.1571   22.7257 N   0  0  0  0  0  0  0  0  0  0  0  0
    8.2437  -17.8476   22.5135 C   0  0  0  0  0  0  0  0  0  0  0  0
    9.1537  -18.2656   21.7161 O   0  0  0  0  0  0  0  0  0  0  0  0
    6.0618  -20.1154   25.4212 C   0  0  0  0  0  0  0  0  0  0  0  0
    5.3671  -21.0205   26.2015 C   0  0  0  0  0  0  0  0  0  0  0  0
    7.6340  -14.4155   19.5505 C   0  0  0  0  0  0  0  0  0  0  0  0
    7.0996  -14.0592   20.9481 C   0  0  2  0  0  0  0  0  0  0  0  0
    6.3691  -12.7804   20.8000 C   0  0  0  0  0  0  0  0  0  0  0  0
    8.2266  -14.1195   21.8791 C   0  0  0  0  0  0  0  0  0  0  0  0
    8.8541  -15.4268   22.1840 C   0  0  2  0  0  0  0  0  0  0  0  0
    7.9574  -16.4582   22.5916 N   0  0  0  0  0  0  0  0  0  0  0  0
   10.0638  -15.3387   23.0447 C   0  0  0  0  0  0  0  0  0  0  0  0
   10.9910  -14.5121   22.7391 O   0  0  0  0  0  0  0  0  0  0  0  0
    8.7254  -13.3074   28.9807 C   0  0  0  0  0  0  0  0  0  0  0  0
    9.5373  -14.8574   28.5467 S   0  0  0  0  0  0  0  0  0  0  0  0
   10.3496  -14.6669   26.9607 C   0  0  0  0  0  0  0  0  0  0  0  0
   10.9347  -15.9181   26.4705 C   0  0  0  0  0  0  0  0  0  0  0  0
   11.4488  -15.9793   25.0673 C   0  0  2  0  0  0  0  0  0  0  0  0
   10.2492  -16.1325   24.2037 N   0  0  0  0  0  0  0  0  0  0  0  0
   12.2743  -17.1454   24.8164 C   0  0  0  0  0  0  0  0  0  0  0  0
   13.4882  -17.1307   25.2096 O   0  0  0  0  0  0  0  0  0  0  0  0
   11.9073  -18.3223   24.1895 O   0  0  0  0  0  0  0  0  0  0  0  0
  2  3  2  0
  2  1  1  0
  4  3  1  0
  5  4  2  0
  6  5  1  0
  7  9  1  0
  7  6  1  0
  7  8  1  6
  9 10  2  0
 11  5  1  0
 11 12  2  0
 12  2  1  0
 14 13  1  6
 14 15  1  0
 16 14  1  0
 17 16  1  1
 18 17  1  0
 18  9  1  0
 19 20  2  0
 19 17  1  0
 22 23  1  0
 22 21  1  0
 23 24  1  0
 25 24  1  1
 25 27  1  0
 25 26  1  0
 26 19  1  0
 27 29  1  0
 28 27  2  0
M  END
$$$$
