LDT.pdb
     RDKit          3D

 24 23  0  0  1  0  0  0  0  0999 V2000
   18.6867  -10.9181  -18.5133 C   0  0  0  0  0  0  0  0  0  0  0  0
   17.5204  -10.8169  -17.5506 C   0  0  2  0  0  0  0  0  0  0  0  0
   16.2167  -10.5532  -18.2705 C   0  0  0  0  0  0  0  0  0  0  0  0
   17.7759   -9.6368  -16.6381 C   0  0  0  0  0  0  0  0  0  0  0  0
   19.0269   -9.9118  -15.8044 C   0  0  2  0  0  0  0  0  0  0  0  0
   18.7761  -11.0479  -14.9573 N   0  0  0  0  0  0  0  0  0  0  0  0
   19.3010   -8.6771  -15.0382 C   0  0  0  0  0  0  0  0  0  0  0  0
   18.5889   -8.4597  -14.0241 O   0  0  0  0  0  0  0  0  0  0  0  0
   20.3132   -7.7396  -15.3859 N   0  0  0  0  0  0  0  0  0  0  0  0
   20.5561   -6.5296  -14.6291 C   0  0  1  0  0  0  0  0  0  0  0  0
   22.0141   -6.2527  -14.4444 C   0  0  0  0  0  0  0  0  0  0  0  0
   22.3038   -5.0647  -13.6430 C   0  0  0  0  0  0  0  0  0  0  0  0
   22.5764   -3.9695  -14.1502 O   0  0  0  0  0  0  0  0  0  0  0  0
   19.8079   -5.3757  -15.1820 C   0  0  0  0  0  0  0  0  0  0  0  0
   19.8755   -5.1759  -16.4223 O   0  0  0  0  0  0  0  0  0  0  0  0
   22.2711   -5.1720  -12.2600 O   0  0  0  0  0  0  0  0  0  0  0  0
   16.1352   -2.1942  -15.0119 C   0  0  0  0  0  0  0  0  0  0  0  0
   16.8546   -3.3740  -14.4012 C   0  0  1  0  0  0  0  0  0  0  0  0
   16.1306   -4.5082  -14.6855 O   0  0  0  0  0  0  0  0  0  0  0  0
   18.2544   -3.4392  -14.9941 C   0  0  2  0  0  0  0  0  0  0  0  0
   19.0337   -4.4986  -14.4082 N   0  0  0  0  0  0  0  0  0  0  0  0
   18.9126   -2.1155  -14.8191 C   0  0  0  0  0  0  0  0  0  0  0  0
   18.4801   -1.0064  -15.5301 O   0  0  0  0  0  0  0  0  0  0  0  0
   19.8746   -1.9654  -14.0258 O   0  0  0  0  0  0  0  0  0  0  0  0
  2  4  1  0
  2  1  1  6
  3  2  1  0
  5  6  1  1
  5  4  1  0
  5  7  1  0
  7  8  2  0
  9  7  1  0
  9 10  1  0
 10 14  1  0
 10 11  1  6
 12 11  1  0
 13 12  2  0
 14 15  2  0
 16 12  1  0
 18 17  1  6
 18 19  1  0
 20 18  1  0
 21 14  1  0
 20 21  1  1
 22 20  1  0
 22 23  1  0
 24 22  2  0
M  END
$$$$
