LDT.pdb
     RDKit          3D

 24 23  0  0  1  0  0  0  0  0999 V2000
   17.9444  -13.9624  -15.9178 C   0  0  0  0  0  0  0  0  0  0  0  0
   18.8896  -13.5479  -17.0277 C   0  0  2  0  0  0  0  0  0  0  0  0
   19.7803  -14.6892  -17.4651 C   0  0  0  0  0  0  0  0  0  0  0  0
   19.7895  -12.4587  -16.4852 C   0  0  0  0  0  0  0  0  0  0  0  0
   18.9447  -11.2259  -16.1655 C   0  0  2  0  0  0  0  0  0  0  0  0
   17.9005  -11.1146  -17.1496 N   0  0  0  0  0  0  0  0  0  0  0  0
   19.8668  -10.0699  -16.1776 C   0  0  0  0  0  0  0  0  0  0  0  0
   20.8421  -10.1040  -15.3835 O   0  0  0  0  0  0  0  0  0  0  0  0
   19.7075   -8.9409  -17.0285 N   0  0  0  0  0  0  0  0  0  0  0  0
   20.6757   -7.8668  -17.0976 C   0  0  1  0  0  0  0  0  0  0  0  0
   20.7439   -7.2437  -18.4553 C   0  0  0  0  0  0  0  0  0  0  0  0
   21.7373   -6.1781  -18.5787 C   0  0  0  0  0  0  0  0  0  0  0  0
   22.7749   -6.1536  -17.9050 O   0  0  0  0  0  0  0  0  0  0  0  0
   20.4791   -6.8785  -16.0105 C   0  0  0  0  0  0  0  0  0  0  0  0
   19.3596   -6.3095  -15.9339 O   0  0  0  0  0  0  0  0  0  0  0  0
   21.5052   -5.1553  -19.4873 O   0  0  0  0  0  0  0  0  0  0  0  0
   20.0280   -7.3422  -12.6109 C   0  0  0  0  0  0  0  0  0  0  0  0
   21.2048   -6.3953  -12.6337 C   0  0  1  0  0  0  0  0  0  0  0  0
   22.3517   -7.1369  -12.4716 O   0  0  0  0  0  0  0  0  0  0  0  0
   21.1982   -5.6566  -13.9640 C   0  0  2  0  0  0  0  0  0  0  0  0
   21.4619   -6.5424  -15.0679 N   0  0  0  0  0  0  0  0  0  0  0  0
   22.1903   -4.5484  -13.9033 C   0  0  0  0  0  0  0  0  0  0  0  0
   22.0110   -3.4796  -13.0382 O   0  0  0  0  0  0  0  0  0  0  0  0
   23.2141   -4.5493  -14.6307 O   0  0  0  0  0  0  0  0  0  0  0  0
  2  4  1  0
  2  1  1  1
  3  2  1  0
  5  6  1  6
  5  4  1  0
  5  7  1  0
  7  8  2  0
  9  7  1  0
  9 10  1  0
 10 14  1  0
 10 11  1  6
 12 11  1  0
 13 12  2  0
 14 15  2  0
 16 12  1  0
 18 17  1  6
 18 19  1  0
 20 18  1  0
 21 14  1  0
 20 21  1  6
 22 20  1  0
 22 23  1  0
 24 22  2  0
M  END
$$$$
