LDT.pdb
     RDKit          3D

 24 23  0  0  1  0  0  0  0  0999 V2000
   19.6956  -10.1405  -19.4922 C   0  0  0  0  0  0  0  0  0  0  0  0
   18.7797  -10.7828  -18.4697 C   0  0  2  0  0  0  0  0  0  0  0  0
   17.3621  -10.9068  -18.9820 C   0  0  0  0  0  0  0  0  0  0  0  0
   18.7405   -9.8818  -17.2543 C   0  0  0  0  0  0  0  0  0  0  0  0
   20.1599   -9.7086  -16.7150 C   0  0  2  0  0  0  0  0  0  0  0  0
   20.5666  -10.9366  -16.0842 N   0  0  0  0  0  0  0  0  0  0  0  0
   20.1154   -8.5697  -15.7728 C   0  0  0  0  0  0  0  0  0  0  0  0
   19.4930   -8.7408  -14.6929 O   0  0  0  0  0  0  0  0  0  0  0  0
   20.7315   -7.3121  -16.0238 N   0  0  0  0  0  0  0  0  0  0  0  0
   20.7278   -6.2301  -15.0619 C   0  0  1  0  0  0  0  0  0  0  0  0
   22.1074   -5.7785  -14.7027 C   0  0  0  0  0  0  0  0  0  0  0  0
   22.1497   -4.7038  -13.7124 C   0  0  0  0  0  0  0  0  0  0  0  0
   21.7658   -4.8575  -12.5461 O   0  0  0  0  0  0  0  0  0  0  0  0
   19.8419   -5.1200  -15.4863 C   0  0  0  0  0  0  0  0  0  0  0  0
   19.9729   -4.6840  -16.6592 O   0  0  0  0  0  0  0  0  0  0  0  0
   22.6398   -3.4642  -14.0976 O   0  0  0  0  0  0  0  0  0  0  0  0
   15.8848   -2.2792  -14.9527 C   0  0  0  0  0  0  0  0  0  0  0  0
   16.7093   -3.4092  -14.3821 C   0  0  1  0  0  0  0  0  0  0  0  0
   16.0113   -4.5802  -14.5644 O   0  0  0  0  0  0  0  0  0  0  0  0
   18.0480   -3.4363  -15.1048 C   0  0  2  0  0  0  0  0  0  0  0  0
   18.8719   -4.5307  -14.6621 N   0  0  0  0  0  0  0  0  0  0  0  0
   18.7272   -2.1263  -14.9077 C   0  0  0  0  0  0  0  0  0  0  0  0
   18.5688   -1.0978  -15.8242 O   0  0  0  0  0  0  0  0  0  0  0  0
   19.4601   -1.9155  -13.9099 O   0  0  0  0  0  0  0  0  0  0  0  0
  2  4  1  0
  2  1  1  6
  3  2  1  0
  5  6  1  1
  5  4  1  0
  5  7  1  0
  7  8  2  0
  9  7  1  0
  9 10  1  0
 10 14  1  0
 10 11  1  6
 12 11  1  0
 13 12  2  0
 14 15  2  0
 16 12  1  0
 18 17  1  6
 18 19  1  0
 20 18  1  0
 21 14  1  0
 20 21  1  1
 22 20  1  0
 22 23  1  0
 24 22  2  0
M  END
$$$$
