LDT.pdb
     RDKit          3D

 24 23  0  0  1  0  0  0  0  0999 V2000
   26.7315  -32.4041   -9.2146 C   0  0  0  0  0  0  0  0  0  0  0  0
   25.5066  -33.1599   -8.7396 C   0  0  2  0  0  0  0  0  0  0  0  0
   24.2427  -32.6575   -9.4010 C   0  0  0  0  0  0  0  0  0  0  0  0
   25.3621  -32.9173   -7.2527 C   0  0  0  0  0  0  0  0  0  0  0  0
   26.5423  -33.5598   -6.5248 C   0  0  2  0  0  0  0  0  0  0  0  0
   27.0572  -34.6308   -7.3366 N   0  0  0  0  0  0  0  0  0  0  0  0
   26.0267  -34.0286   -5.2205 C   0  0  0  0  0  0  0  0  0  0  0  0
   25.6229  -33.1522   -4.4132 O   0  0  0  0  0  0  0  0  0  0  0  0
   25.9662  -35.3984   -4.8408 N   0  0  0  0  0  0  0  0  0  0  0  0
   25.5131  -35.8323   -3.5361 C   0  0  1  0  0  0  0  0  0  0  0  0
   24.1341  -36.4099   -3.5718 C   0  0  0  0  0  0  0  0  0  0  0  0
   23.5520  -36.6586   -2.2539 C   0  0  0  0  0  0  0  0  0  0  0  0
   24.1002  -36.2976   -1.2048 O   0  0  0  0  0  0  0  0  0  0  0  0
   26.5012  -36.7197   -2.8779 C   0  0  0  0  0  0  0  0  0  0  0  0
   26.9432  -37.6941   -3.5397 O   0  0  0  0  0  0  0  0  0  0  0  0
   22.3376  -37.3255   -2.1790 O   0  0  0  0  0  0  0  0  0  0  0  0
   29.9278  -36.2191   -1.9526 C   0  0  0  0  0  0  0  0  0  0  0  0
   29.2456  -36.5934   -0.6577 C   0  0  1  0  0  0  0  0  0  0  0  0
   28.9549  -35.4334    0.0216 O   0  0  0  0  0  0  0  0  0  0  0  0
   27.9857  -37.3788   -0.9910 C   0  0  2  0  0  0  0  0  0  0  0  0
   26.9695  -36.5380   -1.5682 N   0  0  0  0  0  0  0  0  0  0  0  0
   27.5000  -38.0544    0.2434 C   0  0  0  0  0  0  0  0  0  0  0  0
   26.2938  -37.6932    0.8244 O   0  0  0  0  0  0  0  0  0  0  0  0
   28.1655  -38.9673    0.7920 O   0  0  0  0  0  0  0  0  0  0  0  0
  2  4  1  0
  2  1  1  6
  3  2  1  0
  5  6  1  6
  5  4  1  0
  5  7  1  0
  7  8  2  0
  9  7  1  0
  9 10  1  0
 10 14  1  0
 10 11  1  6
 12 11  1  0
 13 12  2  0
 14 15  2  0
 16 12  1  0
 18 17  1  6
 18 19  1  0
 20 18  1  0
 21 14  1  0
 20 21  1  1
 22 20  1  0
 22 23  1  0
 24 22  2  0
M  END
$$$$
