LDT.pdb
     RDKit          3D

 24 23  0  0  1  0  0  0  0  0999 V2000
   18.9331  -14.6810  -15.7381 C   0  0  0  0  0  0  0  0  0  0  0  0
   19.7138  -13.7505  -16.6447 C   0  0  2  0  0  0  0  0  0  0  0  0
   21.0377  -14.3505  -17.0626 C   0  0  0  0  0  0  0  0  0  0  0  0
   20.0187  -12.4915  -15.8620 C   0  0  0  0  0  0  0  0  0  0  0  0
   19.3871  -11.2957  -16.5737 C   0  0  2  0  0  0  0  0  0  0  0  0
   19.9942  -11.1578  -17.8713 N   0  0  0  0  0  0  0  0  0  0  0  0
   19.6186  -10.1204  -15.7067 C   0  0  0  0  0  0  0  0  0  0  0  0
   19.1512  -10.1658  -14.5395 O   0  0  0  0  0  0  0  0  0  0  0  0
   20.3317   -8.9610  -16.1211 N   0  0  0  0  0  0  0  0  0  0  0  0
   20.4052   -7.7568  -15.3209 C   0  0  1  0  0  0  0  0  0  0  0  0
   21.8078   -7.2661  -15.1523 C   0  0  0  0  0  0  0  0  0  0  0  0
   21.9214   -6.0149  -14.4044 C   0  0  0  0  0  0  0  0  0  0  0  0
   22.2847   -4.9553  -14.9303 O   0  0  0  0  0  0  0  0  0  0  0  0
   19.4761   -6.7119  -15.8131 C   0  0  0  0  0  0  0  0  0  0  0  0
   19.5325   -6.4076  -17.0326 O   0  0  0  0  0  0  0  0  0  0  0  0
   21.6090   -6.0182  -13.0525 O   0  0  0  0  0  0  0  0  0  0  0  0
   15.3935   -4.0760  -15.5215 C   0  0  0  0  0  0  0  0  0  0  0  0
   16.2874   -5.0966  -14.8572 C   0  0  1  0  0  0  0  0  0  0  0  0
   15.7039   -6.3335  -15.0032 O   0  0  0  0  0  0  0  0  0  0  0  0
   17.6546   -5.0397  -15.5228 C   0  0  2  0  0  0  0  0  0  0  0  0
   18.5434   -6.0465  -15.0040 N   0  0  0  0  0  0  0  0  0  0  0  0
   18.2169   -3.6723  -15.3495 C   0  0  0  0  0  0  0  0  0  0  0  0
   18.0049   -2.6896  -16.3046 O   0  0  0  0  0  0  0  0  0  0  0  0
   18.8967   -3.3702  -14.3377 O   0  0  0  0  0  0  0  0  0  0  0  0
  2  4  1  0
  2  1  1  1
  3  2  1  0
  5  6  1  6
  5  4  1  0
  5  7  1  0
  7  8  2  0
  9  7  1  0
  9 10  1  0
 10 14  1  0
 10 11  1  6
 12 11  1  0
 13 12  2  0
 14 15  2  0
 16 12  1  0
 18 17  1  6
 18 19  1  0
 20 18  1  0
 21 14  1  0
 20 21  1  1
 22 20  1  0
 22 23  1  0
 24 22  2  0
M  END
$$$$
