LDT.pdb
     RDKit          3D

 24 23  0  0  1  0  0  0  0  0999 V2000
   22.3242  -15.9067  -18.2058 C   0  0  0  0  0  0  0  0  0  0  0  0
   21.1416  -16.4320  -17.4166 C   0  0  2  0  0  0  0  0  0  0  0  0
   20.6408  -15.4196  -16.4108 C   0  0  0  0  0  0  0  0  0  0  0  0
   21.6068  -17.6446  -16.6396 C   0  0  0  0  0  0  0  0  0  0  0  0
   22.2574  -18.6361  -17.6035 C   0  0  2  0  0  0  0  0  0  0  0  0
   21.2207  -19.3254  -18.3255 N   0  0  0  0  0  0  0  0  0  0  0  0
   23.0808  -19.5458  -16.7782 C   0  0  0  0  0  0  0  0  0  0  0  0
   22.4746  -20.4218  -16.1087 O   0  0  0  0  0  0  0  0  0  0  0  0
   24.5001  -19.4799  -16.7057 N   0  0  0  0  0  0  0  0  0  0  0  0
   25.2874  -20.3815  -15.8914 C   0  0  1  0  0  0  0  0  0  0  0  0
   26.7121  -20.4611  -16.3389 C   0  0  0  0  0  0  0  0  0  0  0  0
   27.5143  -21.4490  -15.6191 C   0  0  0  0  0  0  0  0  0  0  0  0
   27.0833  -22.0715  -14.6404 O   0  0  0  0  0  0  0  0  0  0  0  0
   25.1450  -20.0837  -14.4463 C   0  0  0  0  0  0  0  0  0  0  0  0
   25.4666  -18.9329  -14.0526 O   0  0  0  0  0  0  0  0  0  0  0  0
   28.8091  -21.6966  -16.0522 O   0  0  0  0  0  0  0  0  0  0  0  0
   22.4371  -21.8971  -11.9760 C   0  0  0  0  0  0  0  0  0  0  0  0
   23.1188  -20.5892  -11.6490 C   0  0  1  0  0  0  0  0  0  0  0  0
   23.0208  -20.3851  -10.2924 O   0  0  0  0  0  0  0  0  0  0  0  0
   24.5695  -20.6808  -12.0988 C   0  0  2  0  0  0  0  0  0  0  0  0
   24.6754  -21.0041  -13.4977 N   0  0  0  0  0  0  0  0  0  0  0  0
   25.2730  -21.6825  -11.2515 C   0  0  0  0  0  0  0  0  0  0  0  0
   25.4605  -21.4610   -9.8955 O   0  0  0  0  0  0  0  0  0  0  0  0
   25.7151  -22.7525  -11.7380 O   0  0  0  0  0  0  0  0  0  0  0  0
  2  4  1  0
  2  1  1  1
  3  2  1  0
  5  6  1  1
  5  4  1  0
  5  7  1  0
  7  8  2  0
  9  7  1  0
  9 10  1  0
 10 14  1  0
 10 11  1  6
 12 11  1  0
 13 12  2  0
 14 15  2  0
 16 12  1  0
 18 17  1  1
 18 19  1  0
 20 18  1  0
 21 14  1  0
 20 21  1  6
 22 20  1  0
 22 23  1  0
 24 22  2  0
M  END
$$$$
