LDT.pdb
     RDKit          3D

 24 23  0  0  1  0  0  0  0  0999 V2000
   31.2907  -23.4050  -11.4568 C   0  0  0  0  0  0  0  0  0  0  0  0
   31.6597  -21.9476  -11.6494 C   0  0  2  0  0  0  0  0  0  0  0  0
   31.9603  -21.2638  -10.3343 C   0  0  0  0  0  0  0  0  0  0  0  0
   30.4650  -21.2453  -12.2577 C   0  0  0  0  0  0  0  0  0  0  0  0
   30.1564  -21.8715  -13.6172 C   0  0  2  0  0  0  0  0  0  0  0  0
   31.2600  -21.6145  -14.5046 N   0  0  0  0  0  0  0  0  0  0  0  0
   28.8934  -21.2605  -14.0843 C   0  0  0  0  0  0  0  0  0  0  0  0
   28.9191  -20.0361  -14.3726 O   0  0  0  0  0  0  0  0  0  0  0  0
   27.6721  -21.9773  -14.2212 N   0  0  0  0  0  0  0  0  0  0  0  0
   26.4311  -21.3458  -14.6174 C   0  0  1  0  0  0  0  0  0  0  0  0
   26.0304  -21.6970  -16.0147 C   0  0  0  0  0  0  0  0  0  0  0  0
   24.7815  -21.0779  -16.4558 C   0  0  0  0  0  0  0  0  0  0  0  0
   24.4140  -19.9646  -16.0600 O   0  0  0  0  0  0  0  0  0  0  0  0
   25.3547  -21.5780  -13.6252 C   0  0  0  0  0  0  0  0  0  0  0  0
   25.1370  -22.7640  -13.2664 O   0  0  0  0  0  0  0  0  0  0  0  0
   23.9788  -21.7675  -17.3532 O   0  0  0  0  0  0  0  0  0  0  0  0
   22.8727  -20.3972   -9.7253 C   0  0  0  0  0  0  0  0  0  0  0  0
   24.0006  -20.1923  -10.7092 C   0  0  1  0  0  0  0  0  0  0  0  0
   25.1288  -20.7866  -10.1939 O   0  0  0  0  0  0  0  0  0  0  0  0
   23.5955  -20.8153  -12.0371 C   0  0  2  0  0  0  0  0  0  0  0  0
   24.5692  -20.5591  -13.0662 N   0  0  0  0  0  0  0  0  0  0  0  0
   22.2504  -20.3034  -12.4176 C   0  0  0  0  0  0  0  0  0  0  0  0
   21.1087  -20.7560  -11.7738 O   0  0  0  0  0  0  0  0  0  0  0  0
   22.1112  -19.4504  -13.3288 O   0  0  0  0  0  0  0  0  0  0  0  0
  2  4  1  0
  2  1  1  1
  3  2  1  0
  5  6  1  6
  5  4  1  0
  5  7  1  0
  7  8  2  0
  9  7  1  0
  9 10  1  0
 10 14  1  0
 10 11  1  6
 12 11  1  0
 13 12  2  0
 14 15  2  0
 16 12  1  0
 18 17  1  1
 18 19  1  0
 20 18  1  0
 21 14  1  0
 20 21  1  6
 22 20  1  0
 22 23  1  0
 24 22  2  0
M  END
$$$$
