LDT.pdb
     RDKit          3D

 24 23  0  0  1  0  0  0  0  0999 V2000
   27.6142  -18.4846   -6.4765 C   0  0  0  0  0  0  0  0  0  0  0  0
   27.6968  -19.9970   -6.4207 C   0  0  2  0  0  0  0  0  0  0  0  0
   29.0880  -20.4727   -6.0661 C   0  0  0  0  0  0  0  0  0  0  0  0
   27.3793  -20.5281   -7.8018 C   0  0  0  0  0  0  0  0  0  0  0  0
   25.9486  -20.1371   -8.1705 C   0  0  2  0  0  0  0  0  0  0  0  0
   25.0531  -20.6805   -7.1835 N   0  0  0  0  0  0  0  0  0  0  0  0
   25.7013  -20.6766   -9.5250 C   0  0  0  0  0  0  0  0  0  0  0  0
   26.4331  -21.6255   -9.9084 O   0  0  0  0  0  0  0  0  0  0  0  0
   24.6938  -20.1835  -10.4002 N   0  0  0  0  0  0  0  0  0  0  0  0
   24.5289  -20.6623  -11.7564 C   0  0  1  0  0  0  0  0  0  0  0  0
   23.1786  -20.3450  -12.3155 C   0  0  0  0  0  0  0  0  0  0  0  0
   22.0640  -20.8851  -11.5387 C   0  0  0  0  0  0  0  0  0  0  0  0
   21.5855  -22.0063  -11.7514 O   0  0  0  0  0  0  0  0  0  0  0  0
   25.6414  -20.2252  -12.6331 C   0  0  0  0  0  0  0  0  0  0  0  0
   26.2430  -19.1633  -12.3277 O   0  0  0  0  0  0  0  0  0  0  0  0
   21.5233  -20.1084  -10.5239 O   0  0  0  0  0  0  0  0  0  0  0  0
   29.3329  -21.1097  -15.6024 C   0  0  0  0  0  0  0  0  0  0  0  0
   28.1901  -21.6309  -14.7631 C   0  0  1  0  0  0  0  0  0  0  0  0
   28.7060  -22.0697  -13.5661 O   0  0  0  0  0  0  0  0  0  0  0  0
   27.1906  -20.5013  -14.5623 C   0  0  2  0  0  0  0  0  0  0  0  0
   26.0602  -20.9218  -13.7762 N   0  0  0  0  0  0  0  0  0  0  0  0
   26.7694  -19.9897  -15.8953 C   0  0  0  0  0  0  0  0  0  0  0  0
   27.6657  -19.3235  -16.7174 O   0  0  0  0  0  0  0  0  0  0  0  0
   25.5951  -20.1458  -16.3124 O   0  0  0  0  0  0  0  0  0  0  0  0
  2  4  1  0
  2  1  1  6
  3  2  1  0
  5  6  1  1
  5  4  1  0
  5  7  1  0
  7  8  2  0
  9  7  1  0
  9 10  1  0
 10 14  1  0
 10 11  1  6
 12 11  1  0
 13 12  2  0
 14 15  2  0
 16 12  1  0
 18 17  1  6
 18 19  1  0
 20 18  1  0
 21 14  1  0
 20 21  1  6
 22 20  1  0
 22 23  1  0
 24 22  2  0
M  END
$$$$
