LDT.pdb
     RDKit          3D

 24 23  0  0  1  0  0  0  0  0999 V2000
   17.6045  -13.8349  -20.1409 C   0  0  0  0  0  0  0  0  0  0  0  0
   17.5602  -14.5858  -18.8251 C   0  0  2  0  0  0  0  0  0  0  0  0
   16.1975  -15.1885  -18.5657 C   0  0  0  0  0  0  0  0  0  0  0  0
   17.8295  -13.5914  -17.7165 C   0  0  0  0  0  0  0  0  0  0  0  0
   19.1993  -12.9519  -17.9410 C   0  0  2  0  0  0  0  0  0  0  0  0
   20.2130  -13.9573  -17.7593 N   0  0  0  0  0  0  0  0  0  0  0  0
   19.3111  -11.8451  -16.9669 C   0  0  0  0  0  0  0  0  0  0  0  0
   19.4300  -12.1566  -15.7537 O   0  0  0  0  0  0  0  0  0  0  0  0
   19.2912  -10.4692  -17.3284 N   0  0  0  0  0  0  0  0  0  0  0  0
   19.3925   -9.4005  -16.3570 C   0  0  1  0  0  0  0  0  0  0  0  0
   20.4614   -9.6494  -15.3413 C   0  0  0  0  0  0  0  0  0  0  0  0
   20.5528   -8.6260  -14.3012 C   0  0  0  0  0  0  0  0  0  0  0  0
   19.5537   -8.0997  -13.7952 O   0  0  0  0  0  0  0  0  0  0  0  0
   19.5035   -8.0738  -17.0086 C   0  0  0  0  0  0  0  0  0  0  0  0
   20.4710   -7.8862  -17.7907 O   0  0  0  0  0  0  0  0  0  0  0  0
   21.8098   -8.2311  -13.8662 O   0  0  0  0  0  0  0  0  0  0  0  0
   16.8159   -4.8384  -16.2687 C   0  0  0  0  0  0  0  0  0  0  0  0
   17.1564   -5.2432  -17.6838 C   0  0  1  0  0  0  0  0  0  0  0  0
   17.1196   -4.1155  -18.4702 O   0  0  0  0  0  0  0  0  0  0  0  0
   18.5389   -5.8788  -17.6795 C   0  0  2  0  0  0  0  0  0  0  0  0
   18.5986   -7.0214  -16.8057 N   0  0  0  0  0  0  0  0  0  0  0  0
   19.5413   -4.8463  -17.2986 C   0  0  0  0  0  0  0  0  0  0  0  0
   19.8112   -3.7740  -18.1352 O   0  0  0  0  0  0  0  0  0  0  0  0
   20.1690   -4.9162  -16.2131 O   0  0  0  0  0  0  0  0  0  0  0  0
  2  4  1  0
  2  1  1  6
  3  2  1  0
  5  6  1  1
  5  4  1  0
  5  7  1  0
  7  8  2  0
  9  7  1  0
  9 10  1  0
 10 14  1  0
 10 11  1  6
 12 11  1  0
 13 12  2  0
 14 15  2  0
 16 12  1  0
 18 17  1  1
 18 19  1  0
 20 18  1  0
 21 14  1  0
 20 21  1  1
 22 20  1  0
 22 23  1  0
 24 22  2  0
M  END
$$$$
