LDT.pdb
     RDKit          3D

 24 23  0  0  1  0  0  0  0  0999 V2000
   24.1302  -15.2262  -14.8601 C   0  0  0  0  0  0  0  0  0  0  0  0
   24.7590  -14.6143  -16.0960 C   0  0  2  0  0  0  0  0  0  0  0  0
   26.2517  -14.4307  -15.9368 C   0  0  0  0  0  0  0  0  0  0  0  0
   24.1557  -13.2396  -16.2886 C   0  0  0  0  0  0  0  0  0  0  0  0
   22.6513  -13.3819  -16.5166 C   0  0  2  0  0  0  0  0  0  0  0  0
   22.4359  -14.2388  -17.6527 N   0  0  0  0  0  0  0  0  0  0  0  0
   22.1266  -12.0151  -16.7243 C   0  0  0  0  0  0  0  0  0  0  0  0
   22.2730  -11.5105  -17.8675 O   0  0  0  0  0  0  0  0  0  0  0  0
   21.4757  -11.2562  -15.7120 N   0  0  0  0  0  0  0  0  0  0  0  0
   20.8181   -9.9941  -15.9774 C   0  0  1  0  0  0  0  0  0  0  0  0
   19.3758  -10.0057  -15.5822 C   0  0  0  0  0  0  0  0  0  0  0  0
   18.6765   -8.7443  -15.8218 C   0  0  0  0  0  0  0  0  0  0  0  0
   19.0312   -7.9414  -16.6940 O   0  0  0  0  0  0  0  0  0  0  0  0
   21.5707   -8.8513  -15.4076 C   0  0  0  0  0  0  0  0  0  0  0  0
   22.0628   -8.9910  -14.2581 O   0  0  0  0  0  0  0  0  0  0  0  0
   17.5723   -8.4377  -15.0394 O   0  0  0  0  0  0  0  0  0  0  0  0
   23.5697   -4.3559  -15.7570 C   0  0  0  0  0  0  0  0  0  0  0  0
   22.8151   -5.4514  -16.4730 C   0  0  1  0  0  0  0  0  0  0  0  0
   23.6281   -5.9522  -17.4628 O   0  0  0  0  0  0  0  0  0  0  0  0
   22.4463   -6.5212  -15.4557 C   0  0  2  0  0  0  0  0  0  0  0  0
   21.7653   -7.6307  -16.0706 N   0  0  0  0  0  0  0  0  0  0  0  0
   21.6219   -5.9004  -14.3829 C   0  0  0  0  0  0  0  0  0  0  0  0
   22.1703   -5.6086  -13.1431 O   0  0  0  0  0  0  0  0  0  0  0  0
   20.4109   -5.6241  -14.5685 O   0  0  0  0  0  0  0  0  0  0  0  0
  2  4  1  0
  2  1  1  1
  3  2  1  0
  5  6  1  6
  5  4  1  0
  5  7  1  0
  7  8  2  0
  9  7  1  0
  9 10  1  0
 10 14  1  0
 10 11  1  1
 12 11  1  0
 13 12  2  0
 14 15  2  0
 16 12  1  0
 18 17  1  1
 18 19  1  0
 20 18  1  0
 21 14  1  0
 20 21  1  6
 22 20  1  0
 22 23  1  0
 24 22  2  0
M  END
$$$$
