LDT.pdb
     RDKit          3D

 24 23  0  0  1  0  0  0  0  0999 V2000
   17.3752  -13.1057  -14.4344 C   0  0  0  0  0  0  0  0  0  0  0  0
   17.7739  -13.1263  -15.8965 C   0  0  2  0  0  0  0  0  0  0  0  0
   18.9842  -14.0005  -16.1383 C   0  0  0  0  0  0  0  0  0  0  0  0
   18.1531  -11.7155  -16.2918 C   0  0  0  0  0  0  0  0  0  0  0  0
   16.8933  -10.9585  -16.7109 C   0  0  2  0  0  0  0  0  0  0  0  0
   16.2950  -11.6414  -17.8276 N   0  0  0  0  0  0  0  0  0  0  0  0
   17.3211   -9.5830  -17.0448 C   0  0  0  0  0  0  0  0  0  0  0  0
   17.8563   -9.4042  -18.1693 O   0  0  0  0  0  0  0  0  0  0  0  0
   17.1598   -8.4713  -16.1716 N   0  0  0  0  0  0  0  0  0  0  0  0
   17.6199   -7.1393  -16.5030 C   0  0  1  0  0  0  0  0  0  0  0  0
   16.4922   -6.1933  -16.7674 C   0  0  0  0  0  0  0  0  0  0  0  0
   16.9135   -4.8586  -17.1900 C   0  0  0  0  0  0  0  0  0  0  0  0
   17.7660   -4.6762  -18.0682 O   0  0  0  0  0  0  0  0  0  0  0  0
   18.5893   -6.6281  -15.5050 C   0  0  0  0  0  0  0  0  0  0  0  0
   18.3777   -6.8970  -14.2943 O   0  0  0  0  0  0  0  0  0  0  0  0
   16.3335   -3.7548  -16.5812 O   0  0  0  0  0  0  0  0  0  0  0  0
   23.0181   -5.6595  -14.0488 C   0  0  0  0  0  0  0  0  0  0  0  0
   22.0400   -6.1607  -15.0853 C   0  0  1  0  0  0  0  0  0  0  0  0
   21.9476   -7.5270  -14.9586 O   0  0  0  0  0  0  0  0  0  0  0  0
   20.6990   -5.4833  -14.8438 C   0  0  2  0  0  0  0  0  0  0  0  0
   19.7219   -5.8668  -15.8292 N   0  0  0  0  0  0  0  0  0  0  0  0
   20.9025   -4.0089  -14.8209 C   0  0  0  0  0  0  0  0  0  0  0  0
   21.1082   -3.3376  -13.6251 O   0  0  0  0  0  0  0  0  0  0  0  0
   20.8940   -3.3329  -15.8793 O   0  0  0  0  0  0  0  0  0  0  0  0
  2  4  1  0
  2  1  1  1
  3  2  1  0
  5  6  1  6
  5  4  1  0
  5  7  1  0
  7  8  2  0
  9  7  1  0
  9 10  1  0
 10 14  1  0
 10 11  1  1
 12 11  1  0
 13 12  2  0
 14 15  2  0
 16 12  1  0
 18 17  1  1
 18 19  1  0
 20 18  1  0
 21 14  1  0
 20 21  1  6
 22 20  1  0
 22 23  1  0
 24 22  2  0
M  END
$$$$
