RAL.pdb
     RDKit          3D

 25 24  0  0  1  0  0  0  0  0999 V2000
   24.8437  -24.3170  -14.6043 N   0  0  0  0  0  0  0  0  0  0  0  0
   24.8158  -23.1632  -15.4111 C   0  0  0  0  0  0  0  0  0  0  0  0
   24.8897  -23.2928  -16.6849 N   0  0  0  0  0  0  0  0  0  0  0  0
   24.7071  -21.8717  -14.8218 N   0  0  0  0  0  0  0  0  0  0  0  0
   24.5332  -21.7578  -13.3852 C   0  0  0  0  0  0  0  0  0  0  0  0
   23.0804  -21.8720  -13.0806 C   0  0  0  0  0  0  0  0  0  0  0  0
   22.3358  -20.5918  -12.9494 C   0  0  0  0  0  0  0  0  0  0  0  0
   20.8835  -20.6972  -12.6381 C   0  0  2  0  0  0  0  0  0  0  0  0
   20.4763  -21.8810  -11.9491 N   0  0  0  0  0  0  0  0  0  0  0  0
   20.1467  -20.6344  -13.9264 C   0  0  0  0  0  0  0  0  0  0  0  0
   19.8951  -21.6996  -14.5351 O   0  0  0  0  0  0  0  0  0  0  0  0
   24.9568  -22.5194  -17.3606 C   0  0  0  0  0  0  0  0  0  0  0  0
   18.1582  -18.0926  -15.8462 C   0  0  1  0  0  0  0  0  0  0  0  0
   18.8232  -19.4521  -15.6781 N   0  0  0  0  0  0  0  0  0  0  0  0
   19.7104  -19.4166  -14.5059 C   0  0  0  0  0  0  0  0  0  0  0  0
   19.6792  -19.7389  -16.8676 O   0  0  0  0  0  0  0  0  0  0  0  0
   20.8801  -19.3829  -16.9158 C   0  0  0  0  0  0  0  0  0  0  0  0
   21.2145  -23.1138  -20.5661 C   0  0  2  0  0  0  0  0  0  0  0  0
   19.8667  -22.5177  -20.9068 C   0  0  0  0  0  0  0  0  0  0  0  0
   19.0105  -23.6317  -21.4989 C   0  0  0  0  0  0  0  0  0  0  0  0
   19.1697  -22.0395  -19.6792 C   0  0  1  0  0  0  0  0  0  0  0  0
   19.8148  -20.7947  -19.1597 N   0  0  0  0  0  0  0  0  0  0  0  0
   19.0935  -20.4290  -17.9464 C   0  0  0  0  0  0  0  0  0  0  0  0
   19.8604  -19.6661  -20.0871 O   0  0  0  0  0  0  0  0  0  0  0  0
   20.9606  -19.3444  -20.8644 O   0  0  0  0  0  0  0  0  0  0  0  0
  1  2  1  0
  2  4  1  0
  2  3  2  0
  4  5  1  0
  6  5  1  0
  6  7  1  0
  7  8  1  0
  8  9  1  6
 10 11  2  0
 10  8  1  0
 13 12  1  1
 13 14  1  0
 13 15  1  0
 14 10  1  0
 15 22  1  0
 16 15  2  0
 18 20  1  0
 18 17  1  6
 19 18  1  0
 21 20  1  1
 21 23  1  0
 22 21  1  0
 23 25  2  0
 23 24  1  0
M  END
$$$$
