RAL.pdb
     RDKit          3D

 25 24  0  0  1  0  0  0  0  0999 V2000
   18.4694  -26.6719   -7.2100 N   0  0  0  0  0  0  0  0  0  0  0  0
   17.9492  -25.5968   -6.4640 C   0  0  0  0  0  0  0  0  0  0  0  0
   16.8951  -25.7822   -5.7573 N   0  0  0  0  0  0  0  0  0  0  0  0
   18.5837  -24.3226   -6.4937 N   0  0  0  0  0  0  0  0  0  0  0  0
   18.3281  -23.4264   -7.6066 C   0  0  0  0  0  0  0  0  0  0  0  0
   19.4305  -23.5835   -8.5949 C   0  0  0  0  0  0  0  0  0  0  0  0
   19.4779  -22.5778   -9.6888 C   0  0  0  0  0  0  0  0  0  0  0  0
   18.6563  -22.8703  -10.8958 C   0  0  2  0  0  0  0  0  0  0  0  0
   18.3425  -24.2462  -11.1198 N   0  0  0  0  0  0  0  0  0  0  0  0
   19.4052  -22.3678  -12.0761 C   0  0  0  0  0  0  0  0  0  0  0  0
   20.2503  -23.1134  -12.6221 O   0  0  0  0  0  0  0  0  0  0  0  0
   16.4085  -25.0589   -5.2103 C   0  0  0  0  0  0  0  0  0  0  0  0
   19.3389  -19.4616  -14.4482 C   0  0  1  0  0  0  0  0  0  0  0  0
   20.0193  -20.6418  -13.7678 N   0  0  0  0  0  0  0  0  0  0  0  0
   19.2080  -21.0737  -12.6198 C   0  0  0  0  0  0  0  0  0  0  0  0
   21.3447  -20.2117  -13.2313 O   0  0  0  0  0  0  0  0  0  0  0  0
   21.5221  -19.9966  -12.0091 C   0  0  0  0  0  0  0  0  0  0  0  0
   25.8704  -20.4332  -11.5507 C   0  0  2  0  0  0  0  0  0  0  0  0
   25.4922  -21.4224  -12.6308 C   0  0  0  0  0  0  0  0  0  0  0  0
   25.6871  -22.8218  -12.0577 C   0  0  0  0  0  0  0  0  0  0  0  0
   24.0508  -21.2960  -12.9883 C   0  0  1  0  0  0  0  0  0  0  0  0
   23.8095  -20.0398  -13.7625 N   0  0  0  0  0  0  0  0  0  0  0  0
   22.4030  -20.0529  -14.1467 C   0  0  0  0  0  0  0  0  0  0  0  0
   24.6580  -19.8418  -14.9359 O   0  0  0  0  0  0  0  0  0  0  0  0
   25.7200  -18.9541  -14.9846 O   0  0  0  0  0  0  0  0  0  0  0  0
  1  2  1  0
  2  4  1  0
  2  3  2  0
  4  5  1  0
  6  5  1  0
  6  7  1  0
  7  8  1  0
  8  9  1  6
 10 11  2  0
 10  8  1  0
 13 12  1  6
 13 14  1  0
 13 15  1  0
 14 10  1  0
 15 22  1  0
 16 15  2  0
 18 20  1  0
 18 17  1  6
 19 18  1  0
 21 20  1  1
 21 23  1  0
 22 21  1  0
 23 25  2  0
 23 24  1  0
M  END
$$$$
