RAL.pdb
     RDKit          3D

 25 24  0  0  1  0  0  0  0  0999 V2000
   28.4437  -27.9888  -17.3535 N   0  0  0  0  0  0  0  0  0  0  0  0
   27.1805  -27.7085  -16.7979 C   0  0  0  0  0  0  0  0  0  0  0  0
   26.4841  -28.6725  -16.3178 N   0  0  0  0  0  0  0  0  0  0  0  0
   26.6834  -26.3747  -16.7696 N   0  0  0  0  0  0  0  0  0  0  0  0
   27.4581  -25.3135  -17.3865 C   0  0  0  0  0  0  0  0  0  0  0  0
   28.5807  -24.9639  -16.4732 C   0  0  0  0  0  0  0  0  0  0  0  0
   28.3668  -23.7844  -15.5937 C   0  0  0  0  0  0  0  0  0  0  0  0
   28.0568  -22.4965  -16.2739 C   0  0  2  0  0  0  0  0  0  0  0  0
   29.1355  -21.8927  -16.9904 N   0  0  0  0  0  0  0  0  0  0  0  0
   27.6008  -21.5415  -15.2316 C   0  0  0  0  0  0  0  0  0  0  0  0
   28.4034  -21.1898  -14.3367 O   0  0  0  0  0  0  0  0  0  0  0  0
   25.5448  -28.5833  -15.9070 C   0  0  0  0  0  0  0  0  0  0  0  0
   24.8408  -19.1070  -14.6877 C   0  0  1  0  0  0  0  0  0  0  0  0
   25.9361  -20.0246  -14.1612 N   0  0  0  0  0  0  0  0  0  0  0  0
   26.2898  -21.0036  -15.1999 C   0  0  0  0  0  0  0  0  0  0  0  0
   25.4214  -20.7943  -12.9898 O   0  0  0  0  0  0  0  0  0  0  0  0
   24.9025  -21.9276  -13.1231 C   0  0  0  0  0  0  0  0  0  0  0  0
   27.2739  -19.0724   -8.0912 C   0  0  2  0  0  0  0  0  0  0  0  0
   26.7980  -19.9465   -9.2302 C   0  0  0  0  0  0  0  0  0  0  0  0
   27.1260  -21.3904   -8.8664 C   0  0  0  0  0  0  0  0  0  0  0  0
   25.3178  -19.8626   -9.3841 C   0  0  2  0  0  0  0  0  0  0  0  0
   24.8594  -20.7103  -10.5273 N   0  0  0  0  0  0  0  0  0  0  0  0
   25.5367  -20.2055  -11.7158 C   0  0  0  0  0  0  0  0  0  0  0  0
   23.4150  -20.7600  -10.7444 O   0  0  0  0  0  0  0  0  0  0  0  0
   22.5731  -21.6879  -10.1541 O   0  0  0  0  0  0  0  0  0  0  0  0
  1  2  1  0
  2  4  1  0
  2  3  2  0
  4  5  1  0
  6  5  1  0
  6  7  1  0
  7  8  1  0
  8  9  1  1
 10 11  2  0
 10  8  1  0
 13 12  1  6
 13 14  1  0
 13 15  1  0
 14 10  1  0
 15 22  1  0
 16 15  2  0
 18 20  1  0
 18 17  1  6
 19 18  1  0
 21 20  1  1
 21 23  1  0
 22 21  1  0
 23 25  2  0
 23 24  1  0
M  END
$$$$
