RAL.pdb
     RDKit          3D

 25 24  0  0  1  0  0  0  0  0999 V2000
   18.5857  -18.9297  -14.1788 N   0  0  0  0  0  0  0  0  0  0  0  0
   18.7541  -19.9828  -15.0984 C   0  0  0  0  0  0  0  0  0  0  0  0
   18.3366  -19.8310  -16.3014 N   0  0  0  0  0  0  0  0  0  0  0  0
   19.3784  -21.1983  -14.6987 N   0  0  0  0  0  0  0  0  0  0  0  0
   20.8274  -21.2735  -14.6570 C   0  0  0  0  0  0  0  0  0  0  0  0
   21.3734  -19.9185  -14.9441 C   0  0  0  0  0  0  0  0  0  0  0  0
   22.8493  -19.7715  -14.8414 C   0  0  0  0  0  0  0  0  0  0  0  0
   23.4992  -20.4061  -13.6615 C   0  0  2  0  0  0  0  0  0  0  0  0
   22.9886  -20.0202  -12.3840 N   0  0  0  0  0  0  0  0  0  0  0  0
   24.9425  -20.0579  -13.7079 C   0  0  0  0  0  0  0  0  0  0  0  0
   25.5885  -20.2831  -14.7569 O   0  0  0  0  0  0  0  0  0  0  0  0
   18.2903  -20.5712  -17.0149 C   0  0  0  0  0  0  0  0  0  0  0  0
   27.7105  -18.2003  -12.5726 C   0  0  2  0  0  0  0  0  0  0  0  0
   27.0948  -19.5926  -12.5379 N   0  0  0  0  0  0  0  0  0  0  0  0
   25.6307  -19.4777  -12.6129 C   0  0  0  0  0  0  0  0  0  0  0  0
   27.4174  -20.2480  -11.2356 O   0  0  0  0  0  0  0  0  0  0  0  0
   28.3831  -21.0385  -11.1176 C   0  0  0  0  0  0  0  0  0  0  0  0
   28.3488  -18.5709   -6.6051 C   0  0  1  0  0  0  0  0  0  0  0  0
   28.0978  -19.4852   -7.7837 C   0  0  0  0  0  0  0  0  0  0  0  0
   29.0234  -20.6877   -7.6348 C   0  0  0  0  0  0  0  0  0  0  0  0
   26.7016  -20.0066   -7.7661 C   0  0  2  0  0  0  0  0  0  0  0  0
   26.4344  -20.8343   -8.9824 N   0  0  0  0  0  0  0  0  0  0  0  0
   26.5976  -19.9499  -10.1300 C   0  0  0  0  0  0  0  0  0  0  0  0
   25.1325  -21.4968   -9.0286 O   0  0  0  0  0  0  0  0  0  0  0  0
   24.0919  -21.1058   -9.8547 O   0  0  0  0  0  0  0  0  0  0  0  0
  1  2  1  0
  2  4  1  0
  2  3  2  0
  4  5  1  0
  6  5  1  0
  6  7  1  0
  7  8  1  0
  8  9  1  1
 10 11  2  0
 10  8  1  0
 13 12  1  6
 13 14  1  0
 13 15  1  0
 14 10  1  0
 15 22  1  0
 16 15  2  0
 18 20  1  0
 18 17  1  6
 19 18  1  0
 21 20  1  6
 21 23  1  0
 22 21  1  0
 23 25  2  0
 23 24  1  0
M  END
$$$$
