RAL.pdb
     RDKit          3D

 25 24  0  0  1  0  0  0  0  0999 V2000
   30.3994  -23.8352  -17.9557 N   0  0  0  0  0  0  0  0  0  0  0  0
   30.2659  -22.7504  -18.8435 C   0  0  0  0  0  0  0  0  0  0  0  0
   30.2508  -22.9775  -20.1056 N   0  0  0  0  0  0  0  0  0  0  0  0
   30.1495  -21.4209  -18.3476 N   0  0  0  0  0  0  0  0  0  0  0  0
   29.5372  -21.1964  -17.0508 C   0  0  0  0  0  0  0  0  0  0  0  0
   28.0632  -21.1069  -17.2401 C   0  0  0  0  0  0  0  0  0  0  0  0
   27.2504  -20.9768  -16.0020 C   0  0  0  0  0  0  0  0  0  0  0  0
   27.8133  -21.5957  -14.7701 C   0  0  2  0  0  0  0  0  0  0  0  0
   28.4838  -22.8448  -14.9485 N   0  0  0  0  0  0  0  0  0  0  0  0
   26.6880  -21.8049  -13.8233 C   0  0  0  0  0  0  0  0  0  0  0  0
   25.7412  -22.5521  -14.1604 O   0  0  0  0  0  0  0  0  0  0  0  0
   30.1854  -22.2599  -20.8404 C   0  0  0  0  0  0  0  0  0  0  0  0
   25.6852  -20.7413  -10.3417 C   0  0  1  0  0  0  0  0  0  0  0  0
   25.4712  -21.4402  -11.6775 N   0  0  0  0  0  0  0  0  0  0  0  0
   26.6329  -21.1947  -12.5451 C   0  0  0  0  0  0  0  0  0  0  0  0
   24.2808  -20.8536  -12.3620 O   0  0  0  0  0  0  0  0  0  0  0  0
   24.3144  -19.7120  -12.8786 C   0  0  0  0  0  0  0  0  0  0  0  0
   20.5543  -20.4984  -15.7623 C   0  0  2  0  0  0  0  0  0  0  0  0
   20.3819  -21.7438  -14.9211 C   0  0  0  0  0  0  0  0  0  0  0  0
   20.0660  -22.8956  -15.8690 C   0  0  0  0  0  0  0  0  0  0  0  0
   21.6498  -22.0932  -14.2199 C   0  0  1  0  0  0  0  0  0  0  0  0
   21.8726  -21.1850  -13.0532 N   0  0  0  0  0  0  0  0  0  0  0  0
   23.1053  -21.6275  -12.4125 C   0  0  0  0  0  0  0  0  0  0  0  0
   20.7849  -21.1208  -12.0791 O   0  0  0  0  0  0  0  0  0  0  0  0
   20.5650  -22.0729  -11.0976 O   0  0  0  0  0  0  0  0  0  0  0  0
  1  2  1  0
  2  4  1  0
  2  3  2  0
  4  5  1  0
  6  5  1  0
  6  7  1  0
  7  8  1  0
  8  9  1  6
 10 11  2  0
 10  8  1  0
 13 12  1  1
 13 14  1  0
 13 15  1  0
 14 10  1  0
 15 22  1  0
 16 15  2  0
 18 20  1  0
 18 17  1  1
 19 18  1  0
 21 20  1  6
 21 23  1  0
 22 21  1  0
 23 25  2  0
 23 24  1  0
M  END
$$$$
