RAL.pdb
     RDKit          3D

 25 24  0  0  1  0  0  0  0  0999 V2000
   17.3211  -22.4433  -11.7831 N   0  0  0  0  0  0  0  0  0  0  0  0
   17.8482  -22.9110  -13.0023 C   0  0  0  0  0  0  0  0  0  0  0  0
   17.0487  -23.3914  -13.8824 N   0  0  0  0  0  0  0  0  0  0  0  0
   19.2482  -22.8515  -13.2544 N   0  0  0  0  0  0  0  0  0  0  0  0
   20.1288  -22.2866  -12.2482 C   0  0  0  0  0  0  0  0  0  0  0  0
   20.2500  -20.8246  -12.5019 C   0  0  0  0  0  0  0  0  0  0  0  0
   21.1484  -20.0730  -11.5863 C   0  0  0  0  0  0  0  0  0  0  0  0
   22.5158  -19.7746  -12.0949 C   0  0  2  0  0  0  0  0  0  0  0  0
   22.7971  -20.2127  -13.4255 N   0  0  0  0  0  0  0  0  0  0  0  0
   23.4840  -20.4285  -11.1775 C   0  0  0  0  0  0  0  0  0  0  0  0
   23.1258  -20.6990  -10.0083 O   0  0  0  0  0  0  0  0  0  0  0  0
   17.3294  -23.7970  -14.7856 C   0  0  0  0  0  0  0  0  0  0  0  0
   26.7190  -22.2696  -11.3845 C   0  0  2  0  0  0  0  0  0  0  0  0
   25.6793  -21.4679  -10.6133 N   0  0  0  0  0  0  0  0  0  0  0  0
   24.8057  -20.7645  -11.5643 C   0  0  0  0  0  0  0  0  0  0  0  0
   26.3627  -20.4252   -9.7914 O   0  0  0  0  0  0  0  0  0  0  0  0
   26.5065  -19.2506  -10.2050 C   0  0  0  0  0  0  0  0  0  0  0  0
   28.3887  -17.9198   -5.6518 C   0  0  2  0  0  0  0  0  0  0  0  0
   28.5151  -19.4212   -5.5180 C   0  0  0  0  0  0  0  0  0  0  0  0
   28.2194  -19.7773   -4.0652 C   0  0  0  0  0  0  0  0  0  0  0  0
   27.4959  -20.1184   -6.3526 C   0  0  1  0  0  0  0  0  0  0  0  0
   27.8738  -20.0638   -7.7983 N   0  0  0  0  0  0  0  0  0  0  0  0
   26.8466  -20.8017   -8.5237 C   0  0  0  0  0  0  0  0  0  0  0  0
   29.2016  -20.5767   -8.1294 O   0  0  0  0  0  0  0  0  0  0  0  0
   30.3362  -19.7883   -8.2260 O   0  0  0  0  0  0  0  0  0  0  0  0
  1  2  1  0
  2  4  1  0
  2  3  2  0
  4  5  1  0
  6  5  1  0
  6  7  1  0
  7  8  1  0
  8  9  1  6
 10 11  2  0
 10  8  1  0
 13 12  1  6
 13 14  1  0
 13 15  1  0
 14 10  1  0
 15 22  1  0
 16 15  2  0
 18 20  1  0
 18 17  1  1
 19 18  1  0
 21 20  1  6
 21 23  1  0
 22 21  1  0
 23 25  2  0
 23 24  1  0
M  END
$$$$
