VNN.pdb
     RDKit          3D

 24 23  0  0  1  0  0  0  0  0999 V2000
   20.5787  -16.5114  -17.4258 C   0  0  0  0  0  0  0  0  0  0  0  0
   21.0848  -15.2185  -16.8408 C   0  0  2  0  0  0  0  0  0  0  0  0
   20.8293  -14.1210  -17.8531 C   0  0  0  0  0  0  0  0  0  0  0  0
   22.5783  -15.2525  -16.5859 C   0  0  2  0  0  0  0  0  0  0  0  0
   22.8318  -16.3534  -15.6771 N   0  0  0  0  0  0  0  0  0  0  0  0
   23.0556  -13.9811  -15.9731 C   0  0  0  0  0  0  0  0  0  0  0  0
   22.6559  -13.6561  -14.8340 O   0  0  0  0  0  0  0  0  0  0  0  0
   25.4313   -9.5720  -15.0820 N   0  0  0  0  0  0  0  0  0  0  0  0
   26.2768  -10.2952  -15.9793 C   0  0  0  0  0  0  0  0  0  0  0  0
   27.4242   -9.8075  -16.1306 O   0  0  0  0  0  0  0  0  0  0  0  0
   25.7866  -11.5202  -16.6524 C   0  0  0  0  0  0  0  0  0  0  0  0
   24.4358  -11.8539  -16.1274 C   0  0  2  0  0  0  0  0  0  0  0  0
   23.9542  -13.1049  -16.6235 N   0  0  0  0  0  0  0  0  0  0  0  0
   23.4540  -10.7537  -16.3073 C   0  0  0  0  0  0  0  0  0  0  0  0
   23.1524  -10.4284  -17.4804 O   0  0  0  0  0  0  0  0  0  0  0  0
   19.6441   -7.1666  -15.6392 N   0  0  0  0  0  0  0  0  0  0  0  0
   19.3691   -8.5371  -15.4061 C   0  0  0  0  0  0  0  0  0  0  0  0
   18.1257   -8.8291  -15.3413 O   0  0  0  0  0  0  0  0  0  0  0  0
   20.4444   -9.5386  -15.2518 C   0  0  0  0  0  0  0  0  0  0  0  0
   21.8214   -9.0102  -15.4998 C   0  0  2  0  0  0  0  0  0  0  0  0
   22.8349  -10.0470  -15.2492 N   0  0  0  0  0  0  0  0  0  0  0  0
   22.1269   -7.7756  -14.7669 C   0  0  0  0  0  0  0  0  0  0  0  0
   23.2369   -7.7117  -13.9568 O   0  0  0  0  0  0  0  0  0  0  0  0
   21.3892   -6.7694  -14.8652 O   0  0  0  0  0  0  0  0  0  0  0  0
  2  1  1  6
  2  4  1  0
  3  2  1  0
  4  6  1  0
  4  5  1  1
  6  7  2  0
  8  9  1  0
  9 11  1  0
 10  9  2  0
 12 11  1  6
 12 14  1  0
 13  6  1  0
 13 12  1  0
 14 21  1  0
 14 15  2  0
 17 19  1  0
 17 16  1  0
 18 17  2  0
 20 19  1  1
 20 22  1  0
 21 20  1  0
 22 24  2  0
 22 23  1  0
M  END
$$$$
