VNN.pdb
     RDKit          3D

 24 23  0  0  1  0  0  0  0  0999 V2000
   15.0962  -12.4363  -14.7252 C   0  0  0  0  0  0  0  0  0  0  0  0
   15.9080  -12.2590  -15.9820 C   0  0  2  0  0  0  0  0  0  0  0  0
   16.4027  -13.6252  -16.4100 C   0  0  0  0  0  0  0  0  0  0  0  0
   17.1299  -11.3918  -15.7554 C   0  0  2  0  0  0  0  0  0  0  0  0
   17.9636  -12.0732  -14.7845 N   0  0  0  0  0  0  0  0  0  0  0  0
   16.7549  -10.0477  -15.2333 C   0  0  0  0  0  0  0  0  0  0  0  0
   16.0083   -9.3081  -15.9104 O   0  0  0  0  0  0  0  0  0  0  0  0
   16.4954   -9.7667  -10.2363 N   0  0  0  0  0  0  0  0  0  0  0  0
   16.2063   -8.7995  -11.2481 C   0  0  0  0  0  0  0  0  0  0  0  0
   14.9847   -8.5614  -11.4158 O   0  0  0  0  0  0  0  0  0  0  0  0
   17.3021   -8.1577  -12.0105 C   0  0  0  0  0  0  0  0  0  0  0  0
   16.9953   -8.2413  -13.4633 C   0  0  2  0  0  0  0  0  0  0  0  0
   17.2072   -9.5536  -13.9885 N   0  0  0  0  0  0  0  0  0  0  0  0
   17.6766   -7.1909  -14.2628 C   0  0  0  0  0  0  0  0  0  0  0  0
   18.9111   -7.3098  -14.4491 O   0  0  0  0  0  0  0  0  0  0  0  0
   17.7240   -3.8848  -19.1097 N   0  0  0  0  0  0  0  0  0  0  0  0
   18.3642   -4.4128  -17.9610 C   0  0  0  0  0  0  0  0  0  0  0  0
   19.5437   -3.9644  -17.7530 O   0  0  0  0  0  0  0  0  0  0  0  0
   17.7085   -5.4030  -17.0819 C   0  0  0  0  0  0  0  0  0  0  0  0
   17.7677   -5.0710  -15.6249 C   0  0  2  0  0  0  0  0  0  0  0  0
   17.0315   -6.0658  -14.8291 N   0  0  0  0  0  0  0  0  0  0  0  0
   17.3344   -3.7051  -15.3068 C   0  0  0  0  0  0  0  0  0  0  0  0
   16.2349   -3.4997  -14.5059 O   0  0  0  0  0  0  0  0  0  0  0  0
   17.9518   -2.7130  -15.7551 O   0  0  0  0  0  0  0  0  0  0  0  0
  2  1  1  1
  2  4  1  0
  3  2  1  0
  4  6  1  0
  4  5  1  1
  6  7  2  0
  8  9  1  0
  9 11  1  0
 10  9  2  0
 12 11  1  1
 12 14  1  0
 13  6  1  0
 13 12  1  0
 14 21  1  0
 14 15  2  0
 17 19  1  0
 17 16  1  0
 18 17  2  0
 20 19  1  6
 20 22  1  0
 21 20  1  0
 22 24  2  0
 22 23  1  0
M  END
$$$$
