VNN.pdb
     RDKit          3D

 24 23  0  0  1  0  0  0  0  0999 V2000
   21.1563  -13.3125  -19.7120 C   0  0  0  0  0  0  0  0  0  0  0  0
   22.4818  -12.5982  -19.7658 C   0  0  2  0  0  0  0  0  0  0  0  0
   23.5552  -13.6336  -20.0303 C   0  0  0  0  0  0  0  0  0  0  0  0
   22.8228  -11.9266  -18.4509 C   0  0  2  0  0  0  0  0  0  0  0  0
   23.0130  -12.9778  -17.4706 N   0  0  0  0  0  0  0  0  0  0  0  0
   21.7290  -11.0198  -18.0024 C   0  0  0  0  0  0  0  0  0  0  0  0
   21.4419  -10.0130  -18.6856 O   0  0  0  0  0  0  0  0  0  0  0  0
   17.8342  -13.3139  -16.4834 N   0  0  0  0  0  0  0  0  0  0  0  0
   18.0596  -11.9066  -16.5915 C   0  0  0  0  0  0  0  0  0  0  0  0
   17.5018  -11.3575  -17.5736 O   0  0  0  0  0  0  0  0  0  0  0  0
   18.8954  -11.1997  -15.5937 C   0  0  0  0  0  0  0  0  0  0  0  0
   19.9386  -10.4139  -16.3050 C   0  0  2  0  0  0  0  0  0  0  0  0
   20.9834  -11.2409  -16.8219 N   0  0  0  0  0  0  0  0  0  0  0  0
   20.4569   -9.2758  -15.5031 C   0  0  0  0  0  0  0  0  0  0  0  0
   21.5741   -9.4139  -14.9505 O   0  0  0  0  0  0  0  0  0  0  0  0
   22.9851   -4.4430  -15.5438 N   0  0  0  0  0  0  0  0  0  0  0  0
   22.4224   -5.4187  -14.6838 C   0  0  0  0  0  0  0  0  0  0  0  0
   22.5211   -5.1525  -13.4368 O   0  0  0  0  0  0  0  0  0  0  0  0
   21.7759   -6.6425  -15.2011 C   0  0  0  0  0  0  0  0  0  0  0  0
   20.4153   -6.9073  -14.6395 C   0  0  2  0  0  0  0  0  0  0  0  0
   19.7795   -8.0471  -15.3188 N   0  0  0  0  0  0  0  0  0  0  0  0
   19.5357   -5.7322  -14.6295 C   0  0  0  0  0  0  0  0  0  0  0  0
   18.9194   -5.3228  -15.7893 O   0  0  0  0  0  0  0  0  0  0  0  0
   19.3335   -5.0883  -13.5756 O   0  0  0  0  0  0  0  0  0  0  0  0
  2  1  1  1
  2  4  1  0
  3  2  1  0
  4  6  1  0
  4  5  1  1
  6  7  2  0
  8  9  1  0
  9 11  1  0
 10  9  2  0
 12 11  1  1
 12 14  1  0
 13  6  1  0
 13 12  1  0
 14 21  1  0
 14 15  2  0
 17 19  1  0
 17 16  1  0
 18 17  2  0
 20 19  1  6
 20 22  1  0
 21 20  1  0
 22 24  2  0
 22 23  1  0
M  END
$$$$
