VNN.pdb
     RDKit          3D

 24 23  0  0  1  0  0  0  0  0999 V2000
   15.5121  -10.3513  -16.9497 C   0  0  0  0  0  0  0  0  0  0  0  0
   16.7053  -11.2600  -17.0933 C   0  0  2  0  0  0  0  0  0  0  0  0
   16.2244  -12.5633  -17.6971 C   0  0  0  0  0  0  0  0  0  0  0  0
   17.3348  -11.5924  -15.7556 C   0  0  2  0  0  0  0  0  0  0  0  0
   16.3349  -12.2952  -14.9754 N   0  0  0  0  0  0  0  0  0  0  0  0
   17.7564  -10.3608  -15.0307 C   0  0  0  0  0  0  0  0  0  0  0  0
   17.0004   -9.8614  -14.1694 O   0  0  0  0  0  0  0  0  0  0  0  0
   22.5361   -8.0601  -15.9915 N   0  0  0  0  0  0  0  0  0  0  0  0
   21.7036   -8.9672  -15.2655 C   0  0  0  0  0  0  0  0  0  0  0  0
   21.8275  -10.1733  -15.5931 O   0  0  0  0  0  0  0  0  0  0  0  0
   20.7832   -8.4691  -14.2173 C   0  0  0  0  0  0  0  0  0  0  0  0
   19.3992   -8.4418  -14.7609 C   0  0  2  0  0  0  0  0  0  0  0  0
   18.9903   -9.7135  -15.2694 N   0  0  0  0  0  0  0  0  0  0  0  0
   19.1784   -7.3414  -15.7342 C   0  0  0  0  0  0  0  0  0  0  0  0
   19.4624   -7.5611  -16.9358 O   0  0  0  0  0  0  0  0  0  0  0  0
   15.2295   -3.9085  -14.9728 N   0  0  0  0  0  0  0  0  0  0  0  0
   16.1629   -4.4373  -15.8987 C   0  0  0  0  0  0  0  0  0  0  0  0
   15.6984   -5.3515  -16.6628 O   0  0  0  0  0  0  0  0  0  0  0  0
   17.5599   -3.9603  -15.9647 C   0  0  0  0  0  0  0  0  0  0  0  0
   18.5460   -4.9948  -16.4055 C   0  0  2  0  0  0  0  0  0  0  0  0
   18.6704   -6.0632  -15.4016 N   0  0  0  0  0  0  0  0  0  0  0  0
   19.8586   -4.4492  -16.7713 C   0  0  0  0  0  0  0  0  0  0  0  0
   19.9545   -3.4711  -17.7340 O   0  0  0  0  0  0  0  0  0  0  0  0
   20.9035   -4.8611  -16.2193 O   0  0  0  0  0  0  0  0  0  0  0  0
  2  1  1  1
  2  4  1  0
  3  2  1  0
  4  6  1  0
  4  5  1  1
  6  7  2  0
  8  9  1  0
  9 11  1  0
 10  9  2  0
 12 11  1  6
 12 14  1  0
 13  6  1  0
 13 12  1  0
 14 21  1  0
 14 15  2  0
 17 19  1  0
 17 16  1  0
 18 17  2  0
 20 19  1  1
 20 22  1  0
 21 20  1  0
 22 24  2  0
 22 23  1  0
M  END
$$$$
