VNN.pdb
     RDKit          3D

 24 23  0  0  1  0  0  0  0  0999 V2000
   24.4581  -18.7107  -18.4540 C   0  0  0  0  0  0  0  0  0  0  0  0
   25.2593  -18.0249  -17.3780 C   0  0  2  0  0  0  0  0  0  0  0  0
   26.6811  -18.5406  -17.4599 C   0  0  0  0  0  0  0  0  0  0  0  0
   24.7457  -18.3481  -15.9894 C   0  0  2  0  0  0  0  0  0  0  0  0
   24.9967  -19.7573  -15.7581 N   0  0  0  0  0  0  0  0  0  0  0  0
   23.2855  -18.0767  -15.8716 C   0  0  0  0  0  0  0  0  0  0  0  0
   22.8576  -16.9141  -16.0395 O   0  0  0  0  0  0  0  0  0  0  0  0
   20.5199  -15.9935  -17.6657 N   0  0  0  0  0  0  0  0  0  0  0  0
   20.2484  -16.8661  -16.5667 C   0  0  0  0  0  0  0  0  0  0  0  0
   19.9338  -16.2857  -15.4984 O   0  0  0  0  0  0  0  0  0  0  0  0
   20.3455  -18.3350  -16.7305 C   0  0  0  0  0  0  0  0  0  0  0  0
   20.9207  -18.9237  -15.4919 C   0  0  2  0  0  0  0  0  0  0  0  0
   22.3386  -19.0834  -15.5742 N   0  0  0  0  0  0  0  0  0  0  0  0
   20.2311  -20.1684  -15.0652 C   0  0  0  0  0  0  0  0  0  0  0  0
   20.8942  -21.2328  -15.0712 O   0  0  0  0  0  0  0  0  0  0  0  0
   18.8491  -24.2511  -13.7184 N   0  0  0  0  0  0  0  0  0  0  0  0
   19.1783  -23.3330  -12.6903 C   0  0  0  0  0  0  0  0  0  0  0  0
   19.6609  -23.8657  -11.6325 O   0  0  0  0  0  0  0  0  0  0  0  0
   18.9745  -21.8775  -12.8424 C   0  0  0  0  0  0  0  0  0  0  0  0
   18.2974  -21.4779  -14.1147 C   0  0  2  0  0  0  0  0  0  0  0  0
   18.8793  -20.2381  -14.6524 N   0  0  0  0  0  0  0  0  0  0  0  0
   16.8367  -21.3803  -14.0073 C   0  0  0  0  0  0  0  0  0  0  0  0
   16.0405  -22.3876  -14.5011 O   0  0  0  0  0  0  0  0  0  0  0  0
   16.2956  -20.3879  -13.4701 O   0  0  0  0  0  0  0  0  0  0  0  0
  2  1  1  6
  2  4  1  0
  3  2  1  0
  4  6  1  0
  4  5  1  6
  6  7  2  0
  8  9  1  0
  9 11  1  0
 10  9  2  0
 12 11  1  6
 12 14  1  0
 13  6  1  0
 13 12  1  0
 14 21  1  0
 14 15  2  0
 17 19  1  0
 17 16  1  0
 18 17  2  0
 20 19  1  1
 20 22  1  0
 21 20  1  0
 22 24  2  0
 22 23  1  0
M  END
$$$$
