VNN.pdb
     RDKit          3D

 24 23  0  0  1  0  0  0  0  0999 V2000
   18.1287  -13.8599  -15.8106 C   0  0  0  0  0  0  0  0  0  0  0  0
   16.7242  -13.4035  -16.1089 C   0  0  2  0  0  0  0  0  0  0  0  0
   16.1340  -14.3570  -17.1271 C   0  0  0  0  0  0  0  0  0  0  0  0
   16.6917  -12.0182  -16.7224 C   0  0  2  0  0  0  0  0  0  0  0  0
   17.2663  -12.1247  -18.0493 N   0  0  0  0  0  0  0  0  0  0  0  0
   17.4808  -11.0460  -15.9148 C   0  0  0  0  0  0  0  0  0  0  0  0
   17.1014  -10.7495  -14.7611 O   0  0  0  0  0  0  0  0  0  0  0  0
   22.7673   -8.1377  -15.2460 N   0  0  0  0  0  0  0  0  0  0  0  0
   21.5465   -8.7393  -14.8092 C   0  0  0  0  0  0  0  0  0  0  0  0
   21.1332   -8.3414  -13.6921 O   0  0  0  0  0  0  0  0  0  0  0  0
   20.8628   -9.7495  -15.6494 C   0  0  0  0  0  0  0  0  0  0  0  0
   19.4170   -9.4114  -15.7336 C   0  0  2  0  0  0  0  0  0  0  0  0
   18.6591  -10.4282  -16.3927 N   0  0  0  0  0  0  0  0  0  0  0  0
   19.1679   -8.0597  -16.2971 C   0  0  0  0  0  0  0  0  0  0  0  0
   19.3513   -7.8988  -17.5272 O   0  0  0  0  0  0  0  0  0  0  0  0
   17.1096   -3.3820  -17.6867 N   0  0  0  0  0  0  0  0  0  0  0  0
   17.0023   -3.6650  -16.3023 C   0  0  0  0  0  0  0  0  0  0  0  0
   16.6784   -2.6636  -15.5757 O   0  0  0  0  0  0  0  0  0  0  0  0
   17.2484   -5.0154  -15.7555 C   0  0  0  0  0  0  0  0  0  0  0  0
   18.5561   -5.6175  -16.1608 C   0  0  2  0  0  0  0  0  0  0  0  0
   18.7384   -6.9410  -15.5444 N   0  0  0  0  0  0  0  0  0  0  0  0
   19.7137   -4.7491  -15.9149 C   0  0  0  0  0  0  0  0  0  0  0  0
   19.8848   -3.6025  -16.6557 O   0  0  0  0  0  0  0  0  0  0  0  0
   20.5574   -5.0344  -15.0357 O   0  0  0  0  0  0  0  0  0  0  0  0
  2  1  1  6
  2  4  1  0
  3  2  1  0
  4  6  1  0
  4  5  1  6
  6  7  2  0
  8  9  1  0
  9 11  1  0
 10  9  2  0
 12 11  1  6
 12 14  1  0
 13  6  1  0
 13 12  1  0
 14 21  1  0
 14 15  2  0
 17 19  1  0
 17 16  1  0
 18 17  2  0
 20 19  1  1
 20 22  1  0
 21 20  1  0
 22 24  2  0
 22 23  1  0
M  END
$$$$
