VNN.pdb
     RDKit          3D

 24 23  0  0  1  0  0  0  0  0999 V2000
   25.1992  -13.8685  -16.9742 C   0  0  0  0  0  0  0  0  0  0  0  0
   24.4388  -14.2485  -15.7302 C   0  0  2  0  0  0  0  0  0  0  0  0
   25.0713  -15.5042  -15.1666 C   0  0  0  0  0  0  0  0  0  0  0  0
   22.9877  -14.5720  -16.0239 C   0  0  2  0  0  0  0  0  0  0  0  0
   22.9778  -15.6395  -17.0050 N   0  0  0  0  0  0  0  0  0  0  0  0
   22.2651  -13.3884  -16.5687 C   0  0  0  0  0  0  0  0  0  0  0  0
   22.5954  -12.9205  -17.6800 O   0  0  0  0  0  0  0  0  0  0  0  0
   18.0893  -10.4096  -18.3648 N   0  0  0  0  0  0  0  0  0  0  0  0
   18.3364  -10.6832  -16.9838 C   0  0  0  0  0  0  0  0  0  0  0  0
   17.9179   -9.8050  -16.1896 O   0  0  0  0  0  0  0  0  0  0  0  0
   19.0367  -11.9230  -16.5760 C   0  0  0  0  0  0  0  0  0  0  0  0
   20.4681  -11.6097  -16.3219 C   0  0  2  0  0  0  0  0  0  0  0  0
   21.2047  -12.7532  -15.8829 N   0  0  0  0  0  0  0  0  0  0  0  0
   20.6572  -10.4346  -15.4329 C   0  0  0  0  0  0  0  0  0  0  0  0
   20.6968  -10.6403  -14.1965 O   0  0  0  0  0  0  0  0  0  0  0  0
   20.1385   -5.4265  -15.8076 N   0  0  0  0  0  0  0  0  0  0  0  0
   21.5088   -5.7534  -15.9618 C   0  0  0  0  0  0  0  0  0  0  0  0
   22.2149   -4.8459  -16.5216 O   0  0  0  0  0  0  0  0  0  0  0  0
   22.0640   -7.0450  -15.5069 C   0  0  0  0  0  0  0  0  0  0  0  0
   21.0494   -7.9915  -14.9487 C   0  0  2  0  0  0  0  0  0  0  0  0
   20.7957   -9.1000  -15.8824 N   0  0  0  0  0  0  0  0  0  0  0  0
   19.7985   -7.3465  -14.5317 C   0  0  0  0  0  0  0  0  0  0  0  0
   19.7318   -6.6867  -13.3264 O   0  0  0  0  0  0  0  0  0  0  0  0
   18.7805   -7.3860  -15.2585 O   0  0  0  0  0  0  0  0  0  0  0  0
  2  1  1  6
  2  4  1  0
  3  2  1  0
  4  6  1  0
  4  5  1  6
  6  7  2  0
  8  9  1  0
  9 11  1  0
 10  9  2  0
 12 11  1  1
 12 14  1  0
 13  6  1  0
 13 12  1  0
 14 21  1  0
 14 15  2  0
 17 19  1  0
 17 16  1  0
 18 17  2  0
 20 19  1  6
 20 22  1  0
 21 20  1  0
 22 24  2  0
 22 23  1  0
M  END
$$$$
