VNN.pdb
     RDKit          3D

 24 23  0  0  1  0  0  0  0  0999 V2000
   19.0676  -12.7421  -18.5823 C   0  0  0  0  0  0  0  0  0  0  0  0
   20.1687  -12.0154  -17.8545 C   0  0  2  0  0  0  0  0  0  0  0  0
   21.3109  -12.9894  -17.6519 C   0  0  0  0  0  0  0  0  0  0  0  0
   19.7329  -11.5456  -16.4813 C   0  0  2  0  0  0  0  0  0  0  0  0
   19.2320  -12.7063  -15.7714 N   0  0  0  0  0  0  0  0  0  0  0  0
   18.6593  -10.5166  -16.5728 C   0  0  0  0  0  0  0  0  0  0  0  0
   18.1350  -10.2674  -17.6800 O   0  0  0  0  0  0  0  0  0  0  0  0
   15.3412  -10.5827  -15.8189 N   0  0  0  0  0  0  0  0  0  0  0  0
   15.2494   -9.7771  -14.6417 C   0  0  0  0  0  0  0  0  0  0  0  0
   14.2342   -9.9918  -13.9342 O   0  0  0  0  0  0  0  0  0  0  0  0
   16.2993   -8.7804  -14.3283 C   0  0  0  0  0  0  0  0  0  0  0  0
   17.2566   -8.7117  -15.4643 C   0  0  2  0  0  0  0  0  0  0  0  0
   18.1921   -9.7921  -15.4523 N   0  0  0  0  0  0  0  0  0  0  0  0
   17.9177   -7.3871  -15.5881 C   0  0  0  0  0  0  0  0  0  0  0  0
   18.9531   -7.1874  -14.9093 O   0  0  0  0  0  0  0  0  0  0  0  0
   19.4816   -2.7193  -18.8395 N   0  0  0  0  0  0  0  0  0  0  0  0
   18.4578   -2.9999  -17.9007 C   0  0  0  0  0  0  0  0  0  0  0  0
   18.1074   -2.0043  -17.1785 O   0  0  0  0  0  0  0  0  0  0  0  0
   17.8520   -4.3419  -17.7771 C   0  0  0  0  0  0  0  0  0  0  0  0
   18.1752   -5.0507  -16.5004 C   0  0  2  0  0  0  0  0  0  0  0  0
   17.4621   -6.3350  -16.4176 N   0  0  0  0  0  0  0  0  0  0  0  0
   17.9572   -4.2394  -15.2967 C   0  0  0  0  0  0  0  0  0  0  0  0
   16.9870   -4.5985  -14.3899 O   0  0  0  0  0  0  0  0  0  0  0  0
   18.6435   -3.2162  -15.0770 O   0  0  0  0  0  0  0  0  0  0  0  0
  2  1  1  1
  2  4  1  0
  3  2  1  0
  4  6  1  0
  4  5  1  1
  6  7  2  0
  8  9  1  0
  9 11  1  0
 10  9  2  0
 12 11  1  1
 12 14  1  0
 13  6  1  0
 13 12  1  0
 14 21  1  0
 14 15  2  0
 17 19  1  0
 17 16  1  0
 18 17  2  0
 20 19  1  6
 20 22  1  0
 21 20  1  0
 22 24  2  0
 22 23  1  0
M  END
$$$$
