SWC.pdb
     RDKit          3D

 27 28  0  0  1  0  0  0  0  0999 V2000
   12.2031  -17.4562   20.9056 O   0  0  0  0  0  0  0  0  0  0  0  0
   10.8730  -17.8139   21.0679 C   0  0  0  0  0  0  0  0  0  0  0  0
    9.9903  -16.5866   21.0150 C   0  0  2  0  0  0  0  0  0  0  0  0
   10.4910  -15.6082   20.0760 N   0  0  0  0  0  0  0  0  0  0  0  0
    9.9775  -15.9538   22.3620 C   0  0  0  0  0  0  0  0  0  0  0  0
   10.5368  -14.8172   22.5518 O   0  0  0  0  0  0  0  0  0  0  0  0
    9.3358  -16.6425   23.4063 N   0  0  0  0  0  0  0  0  0  0  0  0
    9.2580  -16.0779   24.7503 C   0  0  1  0  0  0  0  0  0  0  0  0
    7.9285  -16.3443   25.3660 C   0  0  0  0  0  0  0  0  0  0  0  0
    7.0508  -15.1957   25.4954 C   0  0  0  0  0  0  0  0  0  0  0  0
    5.6482  -15.2669   25.4827 C   0  0  0  0  0  0  0  0  0  0  0  0
    5.1432  -14.0432   25.5878 N   0  0  0  0  0  0  0  0  0  0  0  0
    6.1431  -13.1447   25.6720 C   0  0  0  0  0  0  0  0  0  0  0  0
    6.1476  -11.7658   25.8086 C   0  0  0  0  0  0  0  0  0  0  0  0
    7.3219  -11.0770   25.8917 C   0  0  0  0  0  0  0  0  0  0  0  0
    8.5212  -11.7727   25.8381 C   0  0  0  0  0  0  0  0  0  0  0  0
    8.5241  -13.1443   25.7016 C   0  0  0  0  0  0  0  0  0  0  0  0
    7.3457  -13.8567   25.6154 C   0  0  0  0  0  0  0  0  0  0  0  0
   10.4277  -16.4916   25.5039 C   0  0  0  0  0  0  0  0  0  0  0  0
   11.2722  -17.3362   25.1102 O   0  0  0  0  0  0  0  0  0  0  0  0
   10.6956  -15.9285   26.8061 N   0  0  0  0  0  0  0  0  0  0  0  0
   11.8007  -16.4241   27.5862 C   0  0  1  0  0  0  0  0  0  0  0  0
   12.0811  -15.5275   28.7857 C   0  0  0  0  0  0  0  0  0  0  0  0
   11.1539  -13.9820   28.6473 S   0  0  0  0  0  0  0  0  0  0  0  0
   11.6066  -17.8308   27.9979 C   0  0  0  0  0  0  0  0  0  0  0  0
   10.5430  -18.4216   27.7108 O   0  0  0  0  0  0  0  0  0  0  0  0
   12.5771  -18.5172   28.6978 O   0  0  0  0  0  0  0  0  0  0  0  0
  1  2  1  0
  3  2  1  0
  3  4  1  6
  5  3  1  0
  6  5  2  0
  7  5  1  0
  8  7  1  0
  9 10  1  0
  8  9  1  1
 10 18  1  0
 11 10  2  0
 11 12  1  0
 12 13  1  0
 13 14  1  0
 14 15  2  0
 16 15  1  0
 17 16  2  0
 18 13  2  0
 18 17  1  0
 19  8  1  0
 19 20  2  0
 21 19  1  0
 22 21  1  0
 22 23  1  1
 24 23  1  0
 25 22  1  0
 26 25  2  0
 27 25  1  0
M  END
$$$$
