SWC.pdb
     RDKit          3D

 27 28  0  0  1  0  0  0  0  0999 V2000
    6.8544  -20.8046   20.9123 O   0  0  0  0  0  0  0  0  0  0  0  0
    6.2565  -20.4280   22.1057 C   0  0  0  0  0  0  0  0  0  0  0  0
    5.4464  -19.1656   21.9103 C   0  0  2  0  0  0  0  0  0  0  0  0
    5.1107  -18.9558   20.5199 N   0  0  0  0  0  0  0  0  0  0  0  0
    6.2631  -18.0045   22.3574 C   0  0  0  0  0  0  0  0  0  0  0  0
    6.7608  -17.1917   21.5017 O   0  0  0  0  0  0  0  0  0  0  0  0
    6.4657  -17.8354   23.7383 N   0  0  0  0  0  0  0  0  0  0  0  0
    7.2636  -16.7283   24.2567 C   0  0  1  0  0  0  0  0  0  0  0  0
    6.8796  -16.4027   25.6582 C   0  0  0  0  0  0  0  0  0  0  0  0
    7.5717  -15.2765   26.2574 C   0  0  0  0  0  0  0  0  0  0  0  0
    8.8031  -15.3699   26.9263 C   0  0  0  0  0  0  0  0  0  0  0  0
    9.1482  -14.1724   27.3848 N   0  0  0  0  0  0  0  0  0  0  0  0
    8.2041  -13.2702   27.0553 C   0  0  0  0  0  0  0  0  0  0  0  0
    8.0989  -11.9070   27.2804 C   0  0  0  0  0  0  0  0  0  0  0  0
    7.0265  -11.2039   26.8156 C   0  0  0  0  0  0  0  0  0  0  0  0
    6.0339  -11.8691   26.1102 C   0  0  0  0  0  0  0  0  0  0  0  0
    6.1317  -13.2251   25.8832 C   0  0  0  0  0  0  0  0  0  0  0  0
    7.2091  -13.9517   26.3467 C   0  0  0  0  0  0  0  0  0  0  0  0
    8.6670  -17.0000   24.0044 C   0  0  0  0  0  0  0  0  0  0  0  0
    9.2174  -18.1214   24.1495 O   0  0  0  0  0  0  0  0  0  0  0  0
    9.5460  -15.9476   23.5522 N   0  0  0  0  0  0  0  0  0  0  0  0
   10.9032  -16.2585   23.1828 C   0  0  1  0  0  0  0  0  0  0  0  0
   11.4646  -15.2290   22.2100 C   0  0  0  0  0  0  0  0  0  0  0  0
   12.6762  -15.9969   21.1100 S   0  0  0  0  0  0  0  0  0  0  0  0
   11.7797  -16.4199   24.3626 C   0  0  0  0  0  0  0  0  0  0  0  0
   12.9768  -16.7447   24.2080 O   0  0  0  0  0  0  0  0  0  0  0  0
   11.3080  -16.2198   25.6433 O   0  0  0  0  0  0  0  0  0  0  0  0
  1  2  1  0
  3  2  1  0
  3  4  1  6
  5  3  1  0
  6  5  2  0
  7  5  1  0
  8  7  1  0
  9 10  1  0
  8  9  1  1
 10 18  1  0
 11 10  2  0
 11 12  1  0
 12 13  1  0
 13 14  1  0
 14 15  2  0
 16 15  1  0
 17 16  2  0
 18 13  2  0
 18 17  1  0
 19  8  1  0
 19 20  2  0
 21 19  1  0
 22 21  1  0
 22 23  1  6
 24 23  1  0
 25 22  1  0
 26 25  2  0
 27 25  1  0
M  END
$$$$
