SWC.pdb
     RDKit          3D

 27 28  0  0  1  0  0  0  0  0999 V2000
    8.8034  -16.2640   19.0553 O   0  0  0  0  0  0  0  0  0  0  0  0
    7.5855  -16.3605   19.7118 C   0  0  0  0  0  0  0  0  0  0  0  0
    7.3074  -15.0929   20.4889 C   0  0  2  0  0  0  0  0  0  0  0  0
    7.4339  -13.9174   19.6571 N   0  0  0  0  0  0  0  0  0  0  0  0
    8.3081  -14.9798   21.5848 C   0  0  0  0  0  0  0  0  0  0  0  0
    9.2840  -14.1555   21.4917 O   0  0  0  0  0  0  0  0  0  0  0  0
    8.1438  -15.8024   22.7131 N   0  0  0  0  0  0  0  0  0  0  0  0
    9.1036  -15.7797   23.8129 C   0  0  1  0  0  0  0  0  0  0  0  0
    8.4321  -16.0510   25.1141 C   0  0  0  0  0  0  0  0  0  0  0  0
    7.3854  -15.1190   25.4912 C   0  0  0  0  0  0  0  0  0  0  0  0
    6.0220  -15.4482   25.5644 C   0  0  0  0  0  0  0  0  0  0  0  0
    5.3253  -14.3701   25.9041 N   0  0  0  0  0  0  0  0  0  0  0  0
    6.1574  -13.3234   26.0653 C   0  0  0  0  0  0  0  0  0  0  0  0
    5.9361  -12.0040   26.4261 C   0  0  0  0  0  0  0  0  0  0  0  0
    6.9755  -11.1281   26.5396 C   0  0  0  0  0  0  0  0  0  0  0  0
    8.2661  -11.5716   26.2891 C   0  0  0  0  0  0  0  0  0  0  0  0
    8.4936  -12.8825   25.9291 C   0  0  0  0  0  0  0  0  0  0  0  0
    7.4539  -13.7816   25.8090 C   0  0  0  0  0  0  0  0  0  0  0  0
   10.2357  -16.6203   23.4680 C   0  0  0  0  0  0  0  0  0  0  0  0
   10.1483  -17.7694   22.9648 O   0  0  0  0  0  0  0  0  0  0  0  0
   11.5849  -16.1593   23.6953 N   0  0  0  0  0  0  0  0  0  0  0  0
   12.6965  -17.0269   23.4005 C   0  0  1  0  0  0  0  0  0  0  0  0
   13.9017  -16.2378   22.9042 C   0  0  0  0  0  0  0  0  0  0  0  0
   14.4201  -15.0318   24.1469 S   0  0  0  0  0  0  0  0  0  0  0  0
   13.0515  -17.8886   24.5483 C   0  0  0  0  0  0  0  0  0  0  0  0
   13.9227  -18.7750   24.4143 O   0  0  0  0  0  0  0  0  0  0  0  0
   12.4415  -17.7401   25.7766 O   0  0  0  0  0  0  0  0  0  0  0  0
  1  2  1  0
  3  2  1  0
  3  4  1  6
  5  3  1  0
  6  5  2  0
  7  5  1  0
  8  7  1  0
  9 10  1  0
  8  9  1  1
 10 18  1  0
 11 10  2  0
 11 12  1  0
 12 13  1  0
 13 14  1  0
 14 15  2  0
 16 15  1  0
 17 16  2  0
 18 13  2  0
 18 17  1  0
 19  8  1  0
 19 20  2  0
 21 19  1  0
 22 21  1  0
 22 23  1  1
 24 23  1  0
 25 22  1  0
 26 25  2  0
 27 25  1  0
M  END
$$$$
