SWC.pdb
     RDKit          3D

 27 28  0  0  1  0  0  0  0  0999 V2000
   11.4000  -18.4849   19.8202 O   0  0  0  0  0  0  0  0  0  0  0  0
   10.2776  -18.0181   19.1524 C   0  0  0  0  0  0  0  0  0  0  0  0
   10.2779  -16.5057   19.1212 C   0  0  2  0  0  0  0  0  0  0  0  0
   11.5043  -15.9828   18.5624 N   0  0  0  0  0  0  0  0  0  0  0  0
   10.1681  -16.0030   20.5178 C   0  0  0  0  0  0  0  0  0  0  0  0
   11.2036  -15.5734   21.1374 O   0  0  0  0  0  0  0  0  0  0  0  0
    8.8999  -16.0173   21.1244 N   0  0  0  0  0  0  0  0  0  0  0  0
    8.7167  -15.5849   22.5066 C   0  0  1  0  0  0  0  0  0  0  0  0
    7.2950  -15.2300   22.7718 C   0  0  0  0  0  0  0  0  0  0  0  0
    6.9805  -14.8616   24.1400 C   0  0  0  0  0  0  0  0  0  0  0  0
    6.4413  -15.7422   25.0921 C   0  0  0  0  0  0  0  0  0  0  0  0
    6.2399  -15.0907   26.2315 N   0  0  0  0  0  0  0  0  0  0  0  0
    6.6198  -13.8059   26.0937 C   0  0  0  0  0  0  0  0  0  0  0  0
    6.6277  -12.7369   26.9753 C   0  0  0  0  0  0  0  0  0  0  0  0
    7.0913  -11.5147   26.5855 C   0  0  0  0  0  0  0  0  0  0  0  0
    7.5585  -11.3487   25.2896 C   0  0  0  0  0  0  0  0  0  0  0  0
    7.5529  -12.4076   24.4072 C   0  0  0  0  0  0  0  0  0  0  0  0
    7.0870  -13.6502   24.7845 C   0  0  0  0  0  0  0  0  0  0  0  0
    9.3281  -16.5605   23.3907 C   0  0  0  0  0  0  0  0  0  0  0  0
    9.3141  -17.8042   23.2050 O   0  0  0  0  0  0  0  0  0  0  0  0
   10.0168  -16.1340   24.5859 N   0  0  0  0  0  0  0  0  0  0  0  0
   10.6273  -17.1136   25.4478 C   0  0  1  0  0  0  0  0  0  0  0  0
   12.1476  -17.0594   25.3621 C   0  0  0  0  0  0  0  0  0  0  0  0
   12.7177  -17.7946   23.8124 S   0  0  0  0  0  0  0  0  0  0  0  0
   10.1613  -16.9946   26.8459 C   0  0  0  0  0  0  0  0  0  0  0  0
    9.2767  -16.1608   27.1375 O   0  0  0  0  0  0  0  0  0  0  0  0
   10.6810  -17.7865   27.8486 O   0  0  0  0  0  0  0  0  0  0  0  0
  1  2  1  0
  3  2  1  0
  3  4  1  1
  5  3  1  0
  6  5  2  0
  7  5  1  0
  8  7  1  0
  9 10  1  0
  8  9  1  1
 10 18  1  0
 11 10  2  0
 11 12  1  0
 12 13  1  0
 13 14  1  0
 14 15  2  0
 16 15  1  0
 17 16  2  0
 18 13  2  0
 18 17  1  0
 19  8  1  0
 19 20  2  0
 21 19  1  0
 22 21  1  0
 22 23  1  1
 24 23  1  0
 25 22  1  0
 26 25  2  0
 27 25  1  0
M  END
$$$$
