SWC.pdb
     RDKit          3D

 27 28  0  0  1  0  0  0  0  0999 V2000
    8.9427  -16.0309   19.3245 O   0  0  0  0  0  0  0  0  0  0  0  0
    7.7342  -16.3815   19.9076 C   0  0  0  0  0  0  0  0  0  0  0  0
    7.2791  -15.2990   20.8611 C   0  0  2  0  0  0  0  0  0  0  0  0
    7.1598  -14.0193   20.1993 N   0  0  0  0  0  0  0  0  0  0  0  0
    8.2971  -15.1570   21.9375 C   0  0  0  0  0  0  0  0  0  0  0  0
    9.1474  -14.1996   21.9061 O   0  0  0  0  0  0  0  0  0  0  0  0
    8.2905  -16.1023   22.9781 N   0  0  0  0  0  0  0  0  0  0  0  0
    9.1924  -15.9786   24.1194 C   0  0  1  0  0  0  0  0  0  0  0  0
    8.4609  -16.1708   25.4022 C   0  0  0  0  0  0  0  0  0  0  0  0
    7.4477  -15.1772   25.7066 C   0  0  0  0  0  0  0  0  0  0  0  0
    6.0658  -15.4276   25.6948 C   0  0  0  0  0  0  0  0  0  0  0  0
    5.4120  -14.3084   25.9834 N   0  0  0  0  0  0  0  0  0  0  0  0
    6.2910  -13.3093   26.1911 C   0  0  0  0  0  0  0  0  0  0  0  0
    6.1234  -11.9761   26.5296 C   0  0  0  0  0  0  0  0  0  0  0  0
    7.2021  -11.1598   26.7039 C   0  0  0  0  0  0  0  0  0  0  0  0
    8.4784  -11.6784   26.5386 C   0  0  0  0  0  0  0  0  0  0  0  0
    8.6525  -13.0035   26.2013 C   0  0  0  0  0  0  0  0  0  0  0  0
    7.5726  -13.8429   26.0204 C   0  0  0  0  0  0  0  0  0  0  0  0
   10.3566  -16.8156   23.8932 C   0  0  0  0  0  0  0  0  0  0  0  0
   10.3490  -17.8950   23.2480 O   0  0  0  0  0  0  0  0  0  0  0  0
   11.6450  -16.4347   24.4218 N   0  0  0  0  0  0  0  0  0  0  0  0
   12.7380  -17.3724   24.3872 C   0  0  1  0  0  0  0  0  0  0  0  0
   14.0586  -16.6764   24.0819 C   0  0  0  0  0  0  0  0  0  0  0  0
   13.8091  -15.3528   22.8765 S   0  0  0  0  0  0  0  0  0  0  0  0
   12.8248  -18.1743   25.6264 C   0  0  0  0  0  0  0  0  0  0  0  0
   11.9881  -18.0009   26.5389 O   0  0  0  0  0  0  0  0  0  0  0  0
   13.8140  -19.1187   25.8057 O   0  0  0  0  0  0  0  0  0  0  0  0
  1  2  1  0
  3  2  1  0
  3  4  1  6
  5  3  1  0
  6  5  2  0
  7  5  1  0
  8  7  1  0
  9 10  1  0
  8  9  1  1
 10 18  1  0
 11 10  2  0
 11 12  1  0
 12 13  1  0
 13 14  1  0
 14 15  2  0
 16 15  1  0
 17 16  2  0
 18 13  2  0
 18 17  1  0
 19  8  1  0
 19 20  2  0
 21 19  1  0
 22 21  1  0
 22 23  1  1
 24 23  1  0
 25 22  1  0
 26 25  2  0
 27 25  1  0
M  END
$$$$
