SWC.pdb
     RDKit          3D

 27 28  0  0  1  0  0  0  0  0999 V2000
    9.2405  -15.6514   19.0271 O   0  0  0  0  0  0  0  0  0  0  0  0
    8.0535  -16.0656   19.6128 C   0  0  0  0  0  0  0  0  0  0  0  0
    7.5012  -14.9758   20.5047 C   0  0  2  0  0  0  0  0  0  0  0  0
    7.4765  -13.6962   19.8325 N   0  0  0  0  0  0  0  0  0  0  0  0
    8.3858  -14.8435   21.6943 C   0  0  0  0  0  0  0  0  0  0  0  0
    9.2829  -13.9304   21.7390 O   0  0  0  0  0  0  0  0  0  0  0  0
    8.2019  -15.7480   22.7548 N   0  0  0  0  0  0  0  0  0  0  0  0
    9.1182  -15.7793   23.8908 C   0  0  1  0  0  0  0  0  0  0  0  0
    8.3911  -16.0765   25.1561 C   0  0  0  0  0  0  0  0  0  0  0  0
    7.4208  -15.0821   25.5755 C   0  0  0  0  0  0  0  0  0  0  0  0
    6.0458  -15.3300   25.7188 C   0  0  0  0  0  0  0  0  0  0  0  0
    5.4311  -14.2105   26.0823 N   0  0  0  0  0  0  0  0  0  0  0  0
    6.3300  -13.2136   26.1926 C   0  0  0  0  0  0  0  0  0  0  0  0
    6.2044  -11.8812   26.5516 C   0  0  0  0  0  0  0  0  0  0  0  0
    7.2977  -11.0673   26.6056 C   0  0  0  0  0  0  0  0  0  0  0  0
    8.5461  -11.5877   26.2961 C   0  0  0  0  0  0  0  0  0  0  0  0
    8.6783  -12.9120   25.9375 C   0  0  0  0  0  0  0  0  0  0  0  0
    7.5831  -13.7490   25.8771 C   0  0  0  0  0  0  0  0  0  0  0  0
   10.2461  -16.6323   23.5633 C   0  0  0  0  0  0  0  0  0  0  0  0
   10.2545  -17.4870   22.6409 O   0  0  0  0  0  0  0  0  0  0  0  0
   11.4755  -16.5399   24.3148 N   0  0  0  0  0  0  0  0  0  0  0  0
   12.5901  -17.3847   23.9697 C   0  0  1  0  0  0  0  0  0  0  0  0
   13.4477  -16.7560   22.8785 C   0  0  0  0  0  0  0  0  0  0  0  0
   14.2077  -15.2287   23.4762 S   0  0  0  0  0  0  0  0  0  0  0  0
   13.4016  -17.7482   25.1511 C   0  0  0  0  0  0  0  0  0  0  0  0
   13.1307  -17.2545   26.2671 O   0  0  0  0  0  0  0  0  0  0  0  0
   14.4608  -18.6265   25.0550 O   0  0  0  0  0  0  0  0  0  0  0  0
  1  2  1  0
  3  2  1  0
  3  4  1  6
  5  3  1  0
  6  5  2  0
  7  5  1  0
  8  7  1  0
  9 10  1  0
  8  9  1  1
 10 18  1  0
 11 10  2  0
 11 12  1  0
 12 13  1  0
 13 14  1  0
 14 15  2  0
 16 15  1  0
 17 16  2  0
 18 13  2  0
 18 17  1  0
 19  8  1  0
 19 20  2  0
 21 19  1  0
 22 21  1  0
 22 23  1  6
 24 23  1  0
 25 22  1  0
 26 25  2  0
 27 25  1  0
M  END
$$$$
