SWC.pdb
     RDKit          3D

 27 28  0  0  1  0  0  0  0  0999 V2000
    8.7360  -16.8033   19.5578 O   0  0  0  0  0  0  0  0  0  0  0  0
    7.4944  -16.9299   20.1626 C   0  0  0  0  0  0  0  0  0  0  0  0
    7.1283  -15.6496   20.8803 C   0  0  2  0  0  0  0  0  0  0  0  0
    7.0882  -14.5225   19.9758 N   0  0  0  0  0  0  0  0  0  0  0  0
    8.1687  -15.3676   21.9066 C   0  0  0  0  0  0  0  0  0  0  0  0
    9.0417  -14.4507   21.7125 O   0  0  0  0  0  0  0  0  0  0  0  0
    8.1574  -16.1367   23.0834 N   0  0  0  0  0  0  0  0  0  0  0  0
    9.1814  -15.9656   24.1097 C   0  0  1  0  0  0  0  0  0  0  0  0
    8.5898  -16.0459   25.4739 C   0  0  0  0  0  0  0  0  0  0  0  0
    7.5409  -15.0860   25.7651 C   0  0  0  0  0  0  0  0  0  0  0  0
    6.1689  -15.3862   25.7542 C   0  0  0  0  0  0  0  0  0  0  0  0
    5.4747  -14.2880   26.0285 N   0  0  0  0  0  0  0  0  0  0  0  0
    6.3167  -13.2555   26.2258 C   0  0  0  0  0  0  0  0  0  0  0  0
    6.1005  -11.9253   26.5483 C   0  0  0  0  0  0  0  0  0  0  0  0
    7.1488  -11.0686   26.7146 C   0  0  0  0  0  0  0  0  0  0  0  0
    8.4433  -11.5428   26.5573 C   0  0  0  0  0  0  0  0  0  0  0  0
    8.6656  -12.8646   26.2359 C   0  0  0  0  0  0  0  0  0  0  0  0
    7.6171  -13.7445   26.0633 C   0  0  0  0  0  0  0  0  0  0  0  0
   10.2922  -16.8541   23.8200 C   0  0  0  0  0  0  0  0  0  0  0  0
   10.1778  -18.0152   23.3508 O   0  0  0  0  0  0  0  0  0  0  0  0
   11.6505  -16.4315   24.0671 N   0  0  0  0  0  0  0  0  0  0  0  0
   12.7341  -17.3627   23.8832 C   0  0  1  0  0  0  0  0  0  0  0  0
   13.9052  -16.7164   23.1537 C   0  0  0  0  0  0  0  0  0  0  0  0
   13.3316  -15.8826   21.6560 S   0  0  0  0  0  0  0  0  0  0  0  0
   13.1648  -17.9764   25.1576 C   0  0  0  0  0  0  0  0  0  0  0  0
   14.1183  -18.7847   25.1674 O   0  0  0  0  0  0  0  0  0  0  0  0
   12.5370  -17.6786   26.3491 O   0  0  0  0  0  0  0  0  0  0  0  0
  1  2  1  0
  3  2  1  0
  3  4  1  6
  5  3  1  0
  6  5  2  0
  7  5  1  0
  8  7  1  0
  9 10  1  0
  8  9  1  1
 10 18  1  0
 11 10  2  0
 11 12  1  0
 12 13  1  0
 13 14  1  0
 14 15  2  0
 16 15  1  0
 17 16  2  0
 18 13  2  0
 18 17  1  0
 19  8  1  0
 19 20  2  0
 21 19  1  0
 22 21  1  0
 22 23  1  1
 24 23  1  0
 25 22  1  0
 26 25  2  0
 27 25  1  0
M  END
$$$$
