SWC.pdb
     RDKit          3D

 27 28  0  0  1  0  0  0  0  0999 V2000
    8.5974  -15.8042   18.7706 O   0  0  0  0  0  0  0  0  0  0  0  0
    7.3935  -15.8562   19.4573 C   0  0  0  0  0  0  0  0  0  0  0  0
    7.2409  -14.6373   20.3401 C   0  0  2  0  0  0  0  0  0  0  0  0
    7.4598  -13.4130   19.6033 N   0  0  0  0  0  0  0  0  0  0  0  0
    8.2633  -14.7032   21.4196 C   0  0  0  0  0  0  0  0  0  0  0  0
    9.3482  -14.0284   21.3297 O   0  0  0  0  0  0  0  0  0  0  0  0
    7.9966  -15.5245   22.5291 N   0  0  0  0  0  0  0  0  0  0  0  0
    8.9543  -15.6538   23.6233 C   0  0  1  0  0  0  0  0  0  0  0  0
    8.2658  -15.9942   24.8991 C   0  0  0  0  0  0  0  0  0  0  0  0
    7.3537  -14.9888   25.4125 C   0  0  0  0  0  0  0  0  0  0  0  0
    5.9851  -15.2057   25.6414 C   0  0  0  0  0  0  0  0  0  0  0  0
    5.4274  -14.0827   26.0786 N   0  0  0  0  0  0  0  0  0  0  0  0
    6.3590  -13.1131   26.1568 C   0  0  0  0  0  0  0  0  0  0  0  0
    6.2948  -11.7898   26.5626 C   0  0  0  0  0  0  0  0  0  0  0  0
    7.4113  -11.0063   26.5662 C   0  0  0  0  0  0  0  0  0  0  0  0
    8.6213  -11.5486   26.1574 C   0  0  0  0  0  0  0  0  0  0  0  0
    8.6923  -12.8641   25.7519 C   0  0  0  0  0  0  0  0  0  0  0  0
    7.5728  -13.6704   25.7414 C   0  0  0  0  0  0  0  0  0  0  0  0
   10.0342  -16.5284   23.2037 C   0  0  0  0  0  0  0  0  0  0  0  0
   10.0810  -17.1315   22.1011 O   0  0  0  0  0  0  0  0  0  0  0  0
   11.1644  -16.7629   24.0710 N   0  0  0  0  0  0  0  0  0  0  0  0
   12.4282  -17.1627   23.5069 C   0  0  1  0  0  0  0  0  0  0  0  0
   12.8943  -16.1834   22.4368 C   0  0  0  0  0  0  0  0  0  0  0  0
   14.4813  -16.7096   21.7498 S   0  0  0  0  0  0  0  0  0  0  0  0
   13.4637  -17.3623   24.5433 C   0  0  0  0  0  0  0  0  0  0  0  0
   13.5122  -16.5956   25.5295 O   0  0  0  0  0  0  0  0  0  0  0  0
   14.3879  -18.3820   24.4514 O   0  0  0  0  0  0  0  0  0  0  0  0
  1  2  1  0
  3  2  1  0
  3  4  1  6
  5  3  1  0
  6  5  2  0
  7  5  1  0
  8  7  1  0
  9 10  1  0
  8  9  1  1
 10 18  1  0
 11 10  2  0
 11 12  1  0
 12 13  1  0
 13 14  1  0
 14 15  2  0
 16 15  1  0
 17 16  2  0
 18 13  2  0
 18 17  1  0
 19  8  1  0
 19 20  2  0
 21 19  1  0
 22 21  1  0
 22 23  1  6
 24 23  1  0
 25 22  1  0
 26 25  2  0
 27 25  1  0
M  END
$$$$
