SWC.pdb
     RDKit          3D

 27 28  0  0  1  0  0  0  0  0999 V2000
    9.1583  -17.2670   19.6981 O   0  0  0  0  0  0  0  0  0  0  0  0
    7.8653  -17.1153   20.1763 C   0  0  0  0  0  0  0  0  0  0  0  0
    7.6834  -15.7343   20.7659 C   0  0  2  0  0  0  0  0  0  0  0  0
    7.9181  -14.6990   19.7846 N   0  0  0  0  0  0  0  0  0  0  0  0
    8.6755  -15.5519   21.8603 C   0  0  0  0  0  0  0  0  0  0  0  0
    9.6843  -14.7789   21.7011 O   0  0  0  0  0  0  0  0  0  0  0  0
    8.4662  -16.2519   23.0614 N   0  0  0  0  0  0  0  0  0  0  0  0
    9.3397  -16.0554   24.2145 C   0  0  1  0  0  0  0  0  0  0  0  0
    8.5818  -16.1935   25.4890 C   0  0  0  0  0  0  0  0  0  0  0  0
    7.4939  -15.2525   25.6821 C   0  0  0  0  0  0  0  0  0  0  0  0
    6.1330  -15.5963   25.6344 C   0  0  0  0  0  0  0  0  0  0  0  0
    5.3959  -14.5070   25.8167 N   0  0  0  0  0  0  0  0  0  0  0  0
    6.1983  -13.4386   25.9868 C   0  0  0  0  0  0  0  0  0  0  0  0
    5.9298  -12.0998   26.2227 C   0  0  0  0  0  0  0  0  0  0  0  0
    6.9446  -11.2021   26.3803 C   0  0  0  0  0  0  0  0  0  0  0  0
    8.2578  -11.6430   26.3021 C   0  0  0  0  0  0  0  0  0  0  0  0
    8.5322  -12.9732   26.0671 C   0  0  0  0  0  0  0  0  0  0  0  0
    7.5181  -13.8945   25.9046 C   0  0  0  0  0  0  0  0  0  0  0  0
   10.5212  -16.8840   24.0576 C   0  0  0  0  0  0  0  0  0  0  0  0
   10.5275  -18.0348   23.5504 O   0  0  0  0  0  0  0  0  0  0  0  0
   11.8118  -16.4080   24.4961 N   0  0  0  0  0  0  0  0  0  0  0  0
   12.9464  -17.2954   24.4754 C   0  0  1  0  0  0  0  0  0  0  0  0
   14.2135  -16.5682   24.0428 C   0  0  0  0  0  0  0  0  0  0  0  0
   13.9069  -15.6063   22.5435 S   0  0  0  0  0  0  0  0  0  0  0  0
   13.1365  -17.9881   25.7677 C   0  0  0  0  0  0  0  0  0  0  0  0
   14.0907  -18.7826   25.9128 O   0  0  0  0  0  0  0  0  0  0  0  0
   12.2811  -17.7800   26.8295 O   0  0  0  0  0  0  0  0  0  0  0  0
  1  2  1  0
  3  2  1  0
  3  4  1  6
  5  3  1  0
  6  5  2  0
  7  5  1  0
  8  7  1  0
  9 10  1  0
  8  9  1  1
 10 18  1  0
 11 10  2  0
 11 12  1  0
 12 13  1  0
 13 14  1  0
 14 15  2  0
 16 15  1  0
 17 16  2  0
 18 13  2  0
 18 17  1  0
 19  8  1  0
 19 20  2  0
 21 19  1  0
 22 21  1  0
 22 23  1  1
 24 23  1  0
 25 22  1  0
 26 25  2  0
 27 25  1  0
M  END
$$$$
