QDA.pdb
     RDKit          3D

 23 22  0  0  1  0  0  0  0  0999 V2000
   27.2238   -9.9746  -16.6656 N   0  0  0  0  0  0  0  0  0  0  0  0
   27.0341  -11.0750  -15.7609 C   0  0  0  0  0  0  0  0  0  0  0  0
   28.0475  -11.7365  -15.4075 O   0  0  0  0  0  0  0  0  0  0  0  0
   25.6533  -11.3531  -15.3067 C   0  0  0  0  0  0  0  0  0  0  0  0
   24.6746  -10.2771  -15.7147 C   0  0  0  0  0  0  0  0  0  0  0  0
   23.2898  -10.5693  -15.1206 C   0  0  2  0  0  0  0  0  0  0  0  0
   22.8414  -11.7616  -15.8630 N   0  0  0  0  0  0  0  0  0  0  0  0
   22.3931   -9.4521  -15.4849 C   0  0  0  0  0  0  0  0  0  0  0  0
   21.8529   -9.4364  -16.6123 O   0  0  0  0  0  0  0  0  0  0  0  0
   22.0859   -8.3562  -14.6210 N   0  0  0  0  0  0  0  0  0  0  0  0
   21.1979   -7.2815  -15.0442 C   0  0  1  0  0  0  0  0  0  0  0  0
   19.8074   -7.4867  -14.4546 C   0  0  0  0  0  0  0  0  0  0  0  0
   18.8674   -6.4477  -14.9147 C   0  0  0  0  0  0  0  0  0  0  0  0
   18.2713   -5.6970  -14.0993 O   0  0  0  0  0  0  0  0  0  0  0  0
   21.7237   -5.9467  -14.7474 C   0  0  0  0  0  0  0  0  0  0  0  0
   22.2064   -5.6805  -13.5917 O   0  0  0  0  0  0  0  0  0  0  0  0
   18.6163   -6.2729  -16.2678 O   0  0  0  0  0  0  0  0  0  0  0  0
   22.2635   -2.6024  -16.4777 C   0  0  0  0  0  0  0  0  0  0  0  0
   22.3142   -3.5587  -15.2767 C   0  0  2  0  0  0  0  0  0  0  0  0
   21.7535   -4.8560  -15.6689 N   0  0  0  0  0  0  0  0  0  0  0  0
   21.5403   -2.9431  -14.1807 C   0  0  0  0  0  0  0  0  0  0  0  0
   22.1478   -2.0777  -13.2792 O   0  0  0  0  0  0  0  0  0  0  0  0
   20.3086   -3.2228  -14.0810 O   0  0  0  0  0  0  0  0  0  0  0  0
  2  1  1  0
  2  3  2  0
  4  2  1  0
  5  4  1  0
  6  8  1  0
  6  5  1  0
  6  7  1  6
  8 10  1  0
  9  8  2  0
 11 10  1  0
 11 15  1  0
 11 12  1  1
 12 13  1  0
 13 14  2  0
 13 17  1  0
 15 16  2  0
 15 20  1  0
 19 21  1  0
 19 18  1  6
 20 19  1  0
 21 22  1  0
 23 21  2  0
M  END
$$$$
