QDA.pdb
     RDKit          3D

 23 22  0  0  1  0  0  0  0  0999 V2000
   14.9056  -10.3225  -14.3700 N   0  0  0  0  0  0  0  0  0  0  0  0
   15.0035  -11.7556  -14.3275 C   0  0  0  0  0  0  0  0  0  0  0  0
   13.9624  -12.4158  -14.0631 O   0  0  0  0  0  0  0  0  0  0  0  0
   16.3285  -12.3562  -14.5993 C   0  0  0  0  0  0  0  0  0  0  0  0
   17.3825  -11.3251  -14.9284 C   0  0  0  0  0  0  0  0  0  0  0  0
   17.3335  -10.9774  -16.4226 C   0  0  2  0  0  0  0  0  0  0  0  0
   17.9341  -12.1578  -17.0705 N   0  0  0  0  0  0  0  0  0  0  0  0
   18.2385   -9.8316  -16.6534 C   0  0  0  0  0  0  0  0  0  0  0  0
   19.4312  -10.0399  -16.9652 O   0  0  0  0  0  0  0  0  0  0  0  0
   17.8426   -8.4630  -16.5454 N   0  0  0  0  0  0  0  0  0  0  0  0
   18.7944   -7.3789  -16.7491 C   0  0  1  0  0  0  0  0  0  0  0  0
   18.1002   -6.1850  -17.3939 C   0  0  0  0  0  0  0  0  0  0  0  0
   19.0507   -5.0913  -17.6679 C   0  0  0  0  0  0  0  0  0  0  0  0
   18.8406   -3.9221  -17.2524 O   0  0  0  0  0  0  0  0  0  0  0  0
   19.5081   -6.9993  -15.5273 C   0  0  0  0  0  0  0  0  0  0  0  0
   18.8618   -6.7071  -14.4612 O   0  0  0  0  0  0  0  0  0  0  0  0
   20.2075   -5.3280  -18.3963 O   0  0  0  0  0  0  0  0  0  0  0  0
   22.9128   -7.3186  -14.0241 C   0  0  0  0  0  0  0  0  0  0  0  0
   21.5500   -6.6148  -14.1081 C   0  0  2  0  0  0  0  0  0  0  0  0
   20.9285   -6.9197  -15.4011 N   0  0  0  0  0  0  0  0  0  0  0  0
   21.7831   -5.1662  -13.9472 C   0  0  0  0  0  0  0  0  0  0  0  0
   22.0201   -4.6184  -12.6924 O   0  0  0  0  0  0  0  0  0  0  0  0
   21.7618   -4.4333  -14.9805 O   0  0  0  0  0  0  0  0  0  0  0  0
  2  1  1  0
  2  3  2  0
  4  2  1  0
  5  4  1  0
  6  8  1  0
  6  5  1  0
  6  7  1  6
  8 10  1  0
  9  8  2  0
 11 10  1  0
 11 15  1  0
 11 12  1  1
 12 13  1  0
 13 14  2  0
 13 17  1  0
 15 16  2  0
 15 20  1  0
 19 21  1  0
 19 18  1  6
 20 19  1  0
 21 22  1  0
 23 21  2  0
M  END
$$$$
