QDA.pdb
     RDKit          3D

 23 22  0  0  1  0  0  0  0  0999 V2000
   17.5855  -13.6761  -14.8658 N   0  0  0  0  0  0  0  0  0  0  0  0
   17.6078  -14.0424  -16.2553 C   0  0  0  0  0  0  0  0  0  0  0  0
   17.4085  -15.2505  -16.5556 O   0  0  0  0  0  0  0  0  0  0  0  0
   17.8644  -12.9670  -17.2391 C   0  0  0  0  0  0  0  0  0  0  0  0
   18.0731  -11.6182  -16.5914 C   0  0  0  0  0  0  0  0  0  0  0  0
   18.2869  -10.5433  -17.6660 C   0  0  2  0  0  0  0  0  0  0  0  0
   19.4874  -11.0088  -18.3844 N   0  0  0  0  0  0  0  0  0  0  0  0
   18.6363   -9.2798  -16.9830 C   0  0  0  0  0  0  0  0  0  0  0  0
   17.8147   -8.7525  -16.2019 O   0  0  0  0  0  0  0  0  0  0  0  0
   19.8788   -8.5946  -17.1510 N   0  0  0  0  0  0  0  0  0  0  0  0
   20.1641   -7.3546  -16.4415 C   0  0  1  0  0  0  0  0  0  0  0  0
   21.6054   -7.3531  -15.9456 C   0  0  0  0  0  0  0  0  0  0  0  0
   21.8150   -8.3645  -14.8930 C   0  0  0  0  0  0  0  0  0  0  0  0
   21.1087   -8.3813  -13.8515 O   0  0  0  0  0  0  0  0  0  0  0  0
   19.8570   -6.1561  -17.2260 C   0  0  0  0  0  0  0  0  0  0  0  0
   20.2088   -6.0757  -18.4546 O   0  0  0  0  0  0  0  0  0  0  0  0
   22.8038   -9.3281  -15.0276 O   0  0  0  0  0  0  0  0  0  0  0  0
   17.5030   -3.4185  -17.5645 C   0  0  0  0  0  0  0  0  0  0  0  0
   18.9853   -3.8211  -17.5714 C   0  0  2  0  0  0  0  0  0  0  0  0
   19.1667   -5.0085  -16.7298 N   0  0  0  0  0  0  0  0  0  0  0  0
   19.7637   -2.6738  -17.0648 C   0  0  0  0  0  0  0  0  0  0  0  0
   19.8207   -1.4821  -17.7771 O   0  0  0  0  0  0  0  0  0  0  0  0
   20.3791   -2.8011  -15.9647 O   0  0  0  0  0  0  0  0  0  0  0  0
  2  1  1  0
  2  3  2  0
  4  2  1  0
  5  4  1  0
  6  8  1  0
  6  5  1  0
  6  7  1  6
  8 10  1  0
  9  8  2  0
 11 10  1  0
 11 15  1  0
 11 12  1  6
 12 13  1  0
 13 14  2  0
 13 17  1  0
 15 16  2  0
 15 20  1  0
 19 21  1  0
 19 18  1  1
 20 19  1  0
 21 22  1  0
 23 21  2  0
M  END
$$$$
