QDA.pdb
     RDKit          3D

 23 22  0  0  1  0  0  0  0  0999 V2000
   11.5104   -8.9150   -9.8625 N   0  0  0  0  0  0  0  0  0  0  0  0
   11.9995  -10.2490   -9.6468 C   0  0  0  0  0  0  0  0  0  0  0  0
   11.2261  -11.0868   -9.1088 O   0  0  0  0  0  0  0  0  0  0  0  0
   13.3850  -10.5441  -10.0755 C   0  0  0  0  0  0  0  0  0  0  0  0
   14.0498   -9.3709  -10.7564 C   0  0  0  0  0  0  0  0  0  0  0  0
   15.5756   -9.5339  -10.7200 C   0  0  2  0  0  0  0  0  0  0  0  0
   15.9453   -9.0178   -9.3893 N   0  0  0  0  0  0  0  0  0  0  0  0
   16.1551   -8.6230  -11.7297 C   0  0  0  0  0  0  0  0  0  0  0  0
   16.0055   -8.8736  -12.9455 O   0  0  0  0  0  0  0  0  0  0  0  0
   16.8944   -7.4419  -11.4136 N   0  0  0  0  0  0  0  0  0  0  0  0
   17.4702   -6.6044  -12.4575 C   0  0  1  0  0  0  0  0  0  0  0  0
   16.9207   -5.1864  -12.3556 C   0  0  0  0  0  0  0  0  0  0  0  0
   17.5036   -4.3064  -13.3854 C   0  0  0  0  0  0  0  0  0  0  0  0
   18.2832   -3.3672  -13.0789 O   0  0  0  0  0  0  0  0  0  0  0  0
   18.9350   -6.6212  -12.4695 C   0  0  0  0  0  0  0  0  0  0  0  0
   19.5965   -6.3923  -11.3972 O   0  0  0  0  0  0  0  0  0  0  0  0
   17.2032   -4.4948  -14.7266 O   0  0  0  0  0  0  0  0  0  0  0  0
   21.8196   -7.3867  -14.8095 C   0  0  0  0  0  0  0  0  0  0  0  0
   21.1994   -6.7437  -13.5599 C   0  0  2  0  0  0  0  0  0  0  0  0
   19.7405   -6.8824  -13.6196 N   0  0  0  0  0  0  0  0  0  0  0  0
   21.6083   -5.3256  -13.5358 C   0  0  0  0  0  0  0  0  0  0  0  0
   22.8166   -4.9428  -12.9665 O   0  0  0  0  0  0  0  0  0  0  0  0
   20.8311   -4.4650  -14.0463 O   0  0  0  0  0  0  0  0  0  0  0  0
  2  1  1  0
  2  3  2  0
  4  2  1  0
  5  4  1  0
  6  8  1  0
  6  5  1  0
  6  7  1  1
  8 10  1  0
  9  8  2  0
 11 10  1  0
 11 15  1  0
 11 12  1  1
 12 13  1  0
 13 14  2  0
 13 17  1  0
 15 16  2  0
 15 20  1  0
 19 21  1  0
 19 18  1  6
 20 19  1  0
 21 22  1  0
 23 21  2  0
M  END
$$$$
