QDA.pdb
     RDKit          3D

 23 22  0  0  1  0  0  0  0  0999 V2000
   15.3659  -12.6255  -14.3735 N   0  0  0  0  0  0  0  0  0  0  0  0
   14.8667  -13.3441  -15.5136 C   0  0  0  0  0  0  0  0  0  0  0  0
   13.7228  -13.8679  -15.4329 O   0  0  0  0  0  0  0  0  0  0  0  0
   15.7380  -13.4170  -16.7077 C   0  0  0  0  0  0  0  0  0  0  0  0
   16.9614  -12.5379  -16.5946 C   0  0  0  0  0  0  0  0  0  0  0  0
   17.7254  -12.5216  -17.9258 C   0  0  2  0  0  0  0  0  0  0  0  0
   18.4035  -13.8306  -17.9496 N   0  0  0  0  0  0  0  0  0  0  0  0
   18.7693  -11.4786  -17.8389 C   0  0  0  0  0  0  0  0  0  0  0  0
   19.9436  -11.8024  -17.5575 O   0  0  0  0  0  0  0  0  0  0  0  0
   18.5324  -10.0869  -18.0596 N   0  0  0  0  0  0  0  0  0  0  0  0
   19.6013   -9.1052  -17.9316 C   0  0  1  0  0  0  0  0  0  0  0  0
   19.3020   -7.8874  -18.7979 C   0  0  0  0  0  0  0  0  0  0  0  0
   20.3963   -6.9006  -18.7383 C   0  0  0  0  0  0  0  0  0  0  0  0
   20.1824   -5.7052  -18.4081 O   0  0  0  0  0  0  0  0  0  0  0  0
   19.8785   -8.7306  -16.5427 C   0  0  0  0  0  0  0  0  0  0  0  0
   18.9374   -8.3108  -15.7825 O   0  0  0  0  0  0  0  0  0  0  0  0
   21.6971   -7.2703  -19.0479 O   0  0  0  0  0  0  0  0  0  0  0  0
   22.5037   -9.2340  -13.9205 C   0  0  0  0  0  0  0  0  0  0  0  0
   21.3265   -8.4394  -14.5056 C   0  0  2  0  0  0  0  0  0  0  0  0
   21.1623   -8.7915  -15.9199 N   0  0  0  0  0  0  0  0  0  0  0  0
   21.6263   -7.0040  -14.3359 C   0  0  0  0  0  0  0  0  0  0  0  0
   21.8031   -6.1785  -15.4395 O   0  0  0  0  0  0  0  0  0  0  0  0
   21.7188   -6.5422  -13.1597 O   0  0  0  0  0  0  0  0  0  0  0  0
  2  1  1  0
  2  3  2  0
  4  2  1  0
  5  4  1  0
  6  8  1  0
  6  5  1  0
  6  7  1  1
  8 10  1  0
  9  8  2  0
 11 10  1  0
 11 15  1  0
 11 12  1  6
 12 13  1  0
 13 14  2  0
 13 17  1  0
 15 16  2  0
 15 20  1  0
 19 21  1  0
 19 18  1  6
 20 19  1  0
 21 22  1  0
 23 21  2  0
M  END
$$$$
