QDA.pdb
     RDKit          3D

 23 22  0  0  1  0  0  0  0  0999 V2000
   17.4254  -13.9102  -17.4315 N   0  0  0  0  0  0  0  0  0  0  0  0
   18.1212  -13.8817  -16.1744 C   0  0  0  0  0  0  0  0  0  0  0  0
   17.9459  -14.8409  -15.3752 O   0  0  0  0  0  0  0  0  0  0  0  0
   18.9993  -12.7206  -15.9081 C   0  0  0  0  0  0  0  0  0  0  0  0
   18.9310  -11.6732  -16.9947 C   0  0  0  0  0  0  0  0  0  0  0  0
   19.6933  -10.4130  -16.5627 C   0  0  2  0  0  0  0  0  0  0  0  0
   19.5622  -10.4178  -15.0942 N   0  0  0  0  0  0  0  0  0  0  0  0
   18.9567   -9.2377  -17.0736 C   0  0  0  0  0  0  0  0  0  0  0  0
   18.8839   -9.0427  -18.3065 O   0  0  0  0  0  0  0  0  0  0  0  0
   18.3006   -8.2789  -16.2418 N   0  0  0  0  0  0  0  0  0  0  0  0
   17.6696   -7.0919  -16.8034 C   0  0  1  0  0  0  0  0  0  0  0  0
   16.2697   -6.9186  -16.2260 C   0  0  0  0  0  0  0  0  0  0  0  0
   16.2795   -6.9988  -14.7535 C   0  0  0  0  0  0  0  0  0  0  0  0
   16.7742   -7.9895  -14.1553 O   0  0  0  0  0  0  0  0  0  0  0  0
   18.4770   -5.8795  -16.6471 C   0  0  0  0  0  0  0  0  0  0  0  0
   19.2213   -5.7225  -15.6170 O   0  0  0  0  0  0  0  0  0  0  0  0
   15.7389   -5.9762  -13.9877 O   0  0  0  0  0  0  0  0  0  0  0  0
   19.4400   -2.7781  -18.6099 C   0  0  0  0  0  0  0  0  0  0  0  0
   19.3651   -3.6270  -17.3319 C   0  0  2  0  0  0  0  0  0  0  0  0
   18.5189   -4.7990  -17.5801 N   0  0  0  0  0  0  0  0  0  0  0  0
   18.8115   -2.7761  -16.2604 C   0  0  0  0  0  0  0  0  0  0  0  0
   19.6258   -1.8964  -15.5576 O   0  0  0  0  0  0  0  0  0  0  0  0
   17.5757   -2.8667  -15.9961 O   0  0  0  0  0  0  0  0  0  0  0  0
  2  1  1  0
  2  3  2  0
  4  2  1  0
  5  4  1  0
  6  8  1  0
  6  5  1  0
  6  7  1  1
  8 10  1  0
  9  8  2  0
 11 10  1  0
 11 15  1  0
 11 12  1  1
 12 13  1  0
 13 14  2  0
 13 17  1  0
 15 16  2  0
 15 20  1  0
 19 21  1  0
 19 18  1  6
 20 19  1  0
 21 22  1  0
 23 21  2  0
M  END
$$$$
