QDA.pdb
     RDKit          3D

 23 22  0  0  1  0  0  0  0  0999 V2000
   15.8811  -12.5721  -14.3709 N   0  0  0  0  0  0  0  0  0  0  0  0
   15.3149  -12.3164  -15.6668 C   0  0  0  0  0  0  0  0  0  0  0  0
   14.1836  -12.8070  -15.9294 O   0  0  0  0  0  0  0  0  0  0  0  0
   16.1067  -11.4899  -16.6050 C   0  0  0  0  0  0  0  0  0  0  0  0
   17.4497  -11.0882  -16.0417 C   0  0  0  0  0  0  0  0  0  0  0  0
   18.4458  -10.8328  -17.1812 C   0  0  2  0  0  0  0  0  0  0  0  0
   18.8666  -12.1882  -17.5808 N   0  0  0  0  0  0  0  0  0  0  0  0
   19.6251  -10.1485  -16.6103 C   0  0  0  0  0  0  0  0  0  0  0  0
   19.8205  -10.1813  -15.3758 O   0  0  0  0  0  0  0  0  0  0  0  0
   20.5887   -9.4316  -17.3843 N   0  0  0  0  0  0  0  0  0  0  0  0
   21.7167   -8.7564  -16.7564 C   0  0  1  0  0  0  0  0  0  0  0  0
   22.9809   -8.9689  -17.5808 C   0  0  0  0  0  0  0  0  0  0  0  0
   23.4252  -10.3743  -17.5351 C   0  0  0  0  0  0  0  0  0  0  0  0
   23.3728  -11.1108  -18.5543 O   0  0  0  0  0  0  0  0  0  0  0  0
   21.4683   -7.3362  -16.4965 C   0  0  0  0  0  0  0  0  0  0  0  0
   21.3331   -6.5118  -17.4670 O   0  0  0  0  0  0  0  0  0  0  0  0
   23.9147  -10.9214  -16.3580 O   0  0  0  0  0  0  0  0  0  0  0  0
   19.7517   -4.9448  -14.7946 C   0  0  0  0  0  0  0  0  0  0  0  0
   21.2262   -5.2972  -15.0421 C   0  0  2  0  0  0  0  0  0  0  0  0
   21.3552   -6.7498  -15.1992 N   0  0  0  0  0  0  0  0  0  0  0  0
   22.0042   -4.8058  -13.8880 C   0  0  0  0  0  0  0  0  0  0  0  0
   22.2222   -3.4460  -13.7035 O   0  0  0  0  0  0  0  0  0  0  0  0
   22.4692   -5.6535  -13.0691 O   0  0  0  0  0  0  0  0  0  0  0  0
  2  1  1  0
  2  3  2  0
  4  2  1  0
  5  4  1  0
  6  8  1  0
  6  5  1  0
  6  7  1  1
  8 10  1  0
  9  8  2  0
 11 10  1  0
 11 15  1  0
 11 12  1  6
 12 13  1  0
 13 14  2  0
 13 17  1  0
 15 16  2  0
 15 20  1  0
 19 21  1  0
 19 18  1  1
 20 19  1  0
 21 22  1  0
 23 21  2  0
M  END
$$$$
