EKI.pdb
     RDKit          3D

 27 26  0  0  1  0  0  0  0  0999 V2000
   20.5680  -26.0571  -16.2710 N   0  0  0  0  0  0  0  0  0  0  0  0
   21.0109  -24.7261  -16.4760 C   0  0  1  0  0  0  0  0  0  0  0  0
   19.9926  -23.6498  -16.3791 C   0  0  0  0  0  0  0  0  0  0  0  0
   18.9556  -23.6111  -17.4546 C   0  0  0  0  0  0  0  0  0  0  0  0
   19.3450  -23.0200  -18.7297 C   0  0  0  0  0  0  0  0  0  0  0  0
   20.4518  -22.5100  -18.9799 O   0  0  0  0  0  0  0  0  0  0  0  0
   22.2352  -24.4044  -15.6579 C   0  0  0  0  0  0  0  0  0  0  0  0
   22.3971  -25.0002  -14.5620 O   0  0  0  0  0  0  0  0  0  0  0  0
   18.4038  -23.0182  -19.7719 O   0  0  0  0  0  0  0  0  0  0  0  0
   23.1939  -23.4739  -16.0674 N   0  0  0  0  0  0  0  0  0  0  0  0
   24.4124  -23.1643  -15.2635 C   0  0  1  0  0  0  0  0  0  0  0  0
   25.4761  -22.7120  -16.2005 C   0  0  0  0  0  0  0  0  0  0  0  0
   26.7706  -22.2891  -15.5868 C   0  0  0  0  0  0  0  0  0  0  0  0
   27.7407  -21.7250  -16.6082 C   0  0  0  0  0  0  0  0  0  0  0  0
   28.1135  -22.7177  -17.6753 C   0  0  0  0  0  0  0  0  0  0  0  0
   28.9690  -22.1130  -18.6875 N   0  0  0  0  0  0  0  0  0  0  0  0
   23.9811  -22.2498  -14.2162 C   0  0  0  0  0  0  0  0  0  0  0  0
   23.0624  -21.4197  -14.4982 O   0  0  0  0  0  0  0  0  0  0  0  0
   23.6624  -20.6790   -8.4023 C   0  0  0  0  0  0  0  0  0  0  0  0
   24.2130  -20.1829   -9.6762 C   0  0  0  0  0  0  0  0  0  0  0  0
   24.6778  -21.1644  -10.6915 C   0  0  2  0  0  0  0  0  0  0  0  0
   26.1846  -21.2705  -10.7545 C   0  0  0  0  0  0  0  0  0  0  0  0
   23.9500  -21.1663  -11.9561 C   0  0  2  0  0  0  0  0  0  0  0  0
   24.4416  -22.1531  -12.9017 N   0  0  0  0  0  0  0  0  0  0  0  0
   23.8163  -19.8987  -12.6769 C   0  0  0  0  0  0  0  0  0  0  0  0
   22.9849  -18.9841  -12.4459 O   0  0  0  0  0  0  0  0  0  0  0  0
   24.6928  -19.6365  -13.7484 O   0  0  0  0  0  0  0  0  0  0  0  0
  2  1  1  1
  3  2  1  0
  4  3  1  0
  5  4  1  0
  5  6  2  0
  7  2  1  0
  7  8  2  0
  9  5  1  0
 10  7  1  0
 11 10  1  0
 11 12  1  6
 13 12  1  0
 13 14  1  0
 15 14  1  0
 16 15  1  0
 17 11  1  0
 18 17  2  0
 19 20  1  0
 20 21  1  0
 21 22  1  6
 21 23  1  0
 23 25  1  0
 23 24  1  6
 24 17  1  0
 25 27  1  0
 26 25  2  0
M  END
$$$$
