EKI.pdb
     RDKit          3D

 27 26  0  0  1  0  0  0  0  0999 V2000
   19.0389  -10.1325  -19.5062 N   0  0  0  0  0  0  0  0  0  0  0  0
   20.3587   -9.6168  -19.4603 C   0  0  1  0  0  0  0  0  0  0  0  0
   20.6847   -8.5037  -20.3873 C   0  0  0  0  0  0  0  0  0  0  0  0
   19.5867   -7.5328  -20.6792 C   0  0  0  0  0  0  0  0  0  0  0  0
   19.9115   -6.1147  -20.5777 C   0  0  0  0  0  0  0  0  0  0  0  0
   21.0393   -5.6490  -20.3353 O   0  0  0  0  0  0  0  0  0  0  0  0
   20.7981   -9.3100  -18.0516 C   0  0  0  0  0  0  0  0  0  0  0  0
   19.9292   -8.9427  -17.2194 O   0  0  0  0  0  0  0  0  0  0  0  0
   18.8764   -5.1847  -20.7668 O   0  0  0  0  0  0  0  0  0  0  0  0
   22.1275   -9.4171  -17.6350 N   0  0  0  0  0  0  0  0  0  0  0  0
   22.5499   -9.1971  -16.2207 C   0  0  1  0  0  0  0  0  0  0  0  0
   23.8626   -9.8700  -16.0252 C   0  0  0  0  0  0  0  0  0  0  0  0
   23.8238  -11.2741  -15.5173 C   0  0  0  0  0  0  0  0  0  0  0  0
   24.3345  -12.2749  -16.5373 C   0  0  0  0  0  0  0  0  0  0  0  0
   24.0770  -13.7027  -16.1396 C   0  0  0  0  0  0  0  0  0  0  0  0
   24.4770  -14.6275  -17.1917 N   0  0  0  0  0  0  0  0  0  0  0  0
   22.4707   -7.7610  -15.9965 C   0  0  0  0  0  0  0  0  0  0  0  0
   23.0220   -6.9986  -16.8494 O   0  0  0  0  0  0  0  0  0  0  0  0
   19.5766   -2.7241  -15.7824 C   0  0  0  0  0  0  0  0  0  0  0  0
   20.7121   -3.4774  -15.2208 C   0  0  0  0  0  0  0  0  0  0  0  0
   20.7699   -4.9494  -15.4207 C   0  0  2  0  0  0  0  0  0  0  0  0
   19.4132   -5.6075  -15.3117 C   0  0  0  0  0  0  0  0  0  0  0  0
   21.9005   -5.6328  -14.8013 C   0  0  2  0  0  0  0  0  0  0  0  0
   21.8513   -7.0768  -14.9488 N   0  0  0  0  0  0  0  0  0  0  0  0
   22.1934   -5.3466  -13.3954 C   0  0  0  0  0  0  0  0  0  0  0  0
   22.5012   -4.2321  -12.9012 O   0  0  0  0  0  0  0  0  0  0  0  0
   22.1345   -6.4035  -12.4656 O   0  0  0  0  0  0  0  0  0  0  0  0
  2  1  1  1
  3  2  1  0
  4  3  1  0
  5  4  1  0
  5  6  2  0
  7  2  1  0
  7  8  2  0
  9  5  1  0
 10  7  1  0
 11 10  1  0
 11 12  1  6
 13 12  1  0
 13 14  1  0
 15 14  1  0
 16 15  1  0
 17 11  1  0
 18 17  2  0
 19 20  1  0
 20 21  1  0
 21 22  1  1
 21 23  1  0
 23 25  1  0
 23 24  1  1
 24 17  1  0
 25 27  1  0
 26 25  2  0
M  END
$$$$
