EKI.pdb
     RDKit          3D

 27 26  0  0  1  0  0  0  0  0999 V2000
   26.4755  -20.9549  -14.3873 N   0  0  0  0  0  0  0  0  0  0  0  0
   27.3757  -20.3800  -13.4551 C   0  0  1  0  0  0  0  0  0  0  0  0
   28.2980  -19.3317  -13.9604 C   0  0  0  0  0  0  0  0  0  0  0  0
   29.1317  -19.6901  -15.1478 C   0  0  0  0  0  0  0  0  0  0  0  0
   28.4262  -20.1495  -16.3387 C   0  0  0  0  0  0  0  0  0  0  0  0
   27.6099  -19.4797  -16.9964 O   0  0  0  0  0  0  0  0  0  0  0  0
   26.6799  -19.9422  -12.1919 C   0  0  0  0  0  0  0  0  0  0  0  0
   26.2082  -18.7771  -12.1406 O   0  0  0  0  0  0  0  0  0  0  0  0
   28.6781  -21.4540  -16.7938 O   0  0  0  0  0  0  0  0  0  0  0  0
   26.5384  -20.7762  -11.0798 N   0  0  0  0  0  0  0  0  0  0  0  0
   25.6417  -20.4467   -9.9333 C   0  0  1  0  0  0  0  0  0  0  0  0
   24.3564  -21.1687  -10.1352 C   0  0  0  0  0  0  0  0  0  0  0  0
   23.1336  -20.3247  -10.2878 C   0  0  0  0  0  0  0  0  0  0  0  0
   22.5735  -20.3632  -11.6976 C   0  0  0  0  0  0  0  0  0  0  0  0
   21.3901  -19.4534  -11.8849 C   0  0  0  0  0  0  0  0  0  0  0  0
   20.8872  -19.5107  -13.2509 N   0  0  0  0  0  0  0  0  0  0  0  0
   26.4094  -20.7286   -8.7290 C   0  0  0  0  0  0  0  0  0  0  0  0
   27.1030  -21.7921   -8.7059 O   0  0  0  0  0  0  0  0  0  0  0  0
   30.1958  -18.0516   -6.1142 C   0  0  0  0  0  0  0  0  0  0  0  0
   29.2782  -19.0980   -6.5992 C   0  0  0  0  0  0  0  0  0  0  0  0
   28.0811  -19.4399   -5.7867 C   0  0  2  0  0  0  0  0  0  0  0  0
   28.3888  -19.5506   -4.3107 C   0  0  0  0  0  0  0  0  0  0  0  0
   27.1829  -20.4351   -6.3629 C   0  0  2  0  0  0  0  0  0  0  0  0
   26.5020  -19.9719   -7.5592 N   0  0  0  0  0  0  0  0  0  0  0  0
   26.1733  -21.0397   -5.4915 C   0  0  0  0  0  0  0  0  0  0  0  0
   26.3816  -21.7064   -4.4459 O   0  0  0  0  0  0  0  0  0  0  0  0
   24.8133  -20.8805   -5.8234 O   0  0  0  0  0  0  0  0  0  0  0  0
  2  1  1  6
  3  2  1  0
  4  3  1  0
  5  4  1  0
  5  6  2  0
  7  2  1  0
  7  8  2  0
  9  5  1  0
 10  7  1  0
 11 10  1  0
 11 12  1  1
 13 12  1  0
 13 14  1  0
 15 14  1  0
 16 15  1  0
 17 11  1  0
 18 17  2  0
 19 20  1  0
 20 21  1  0
 21 22  1  1
 21 23  1  0
 23 25  1  0
 23 24  1  6
 24 17  1  0
 25 27  1  0
 26 25  2  0
M  END
$$$$
