EKI.pdb
     RDKit          3D

 27 26  0  0  1  0  0  0  0  0999 V2000
   18.5137   -8.2799  -15.4066 N   0  0  0  0  0  0  0  0  0  0  0  0
   18.6280   -8.6668  -14.0475 C   0  0  1  0  0  0  0  0  0  0  0  0
   19.7883   -8.1377  -13.2868 C   0  0  0  0  0  0  0  0  0  0  0  0
   21.1354   -8.3233  -13.9068 C   0  0  0  0  0  0  0  0  0  0  0  0
   21.8026   -7.1291  -14.4124 C   0  0  0  0  0  0  0  0  0  0  0  0
   21.3889   -5.9630  -14.2834 O   0  0  0  0  0  0  0  0  0  0  0  0
   17.3376   -8.4732  -13.2932 C   0  0  0  0  0  0  0  0  0  0  0  0
   16.6252   -7.4744  -13.5709 O   0  0  0  0  0  0  0  0  0  0  0  0
   23.0135   -7.2919  -15.1047 O   0  0  0  0  0  0  0  0  0  0  0  0
   16.9030   -9.3561  -12.3012 N   0  0  0  0  0  0  0  0  0  0  0  0
   15.5742   -9.2290  -11.6339 C   0  0  1  0  0  0  0  0  0  0  0  0
   15.0346  -10.5997  -11.4240 C   0  0  0  0  0  0  0  0  0  0  0  0
   13.7285  -10.7000  -10.7063 C   0  0  0  0  0  0  0  0  0  0  0  0
   13.2358  -12.1309  -10.5943 C   0  0  0  0  0  0  0  0  0  0  0  0
   11.8431  -12.2308  -10.0343 C   0  0  0  0  0  0  0  0  0  0  0  0
   11.3781  -13.6111  -10.0104 N   0  0  0  0  0  0  0  0  0  0  0  0
   15.7899   -8.3863  -10.4667 C   0  0  0  0  0  0  0  0  0  0  0  0
   16.7469   -8.6883   -9.6886 O   0  0  0  0  0  0  0  0  0  0  0  0
   17.6777   -3.7539  -10.3675 C   0  0  0  0  0  0  0  0  0  0  0  0
   17.0943   -5.0719  -10.0597 C   0  0  0  0  0  0  0  0  0  0  0  0
   15.8989   -5.1430   -9.1787 C   0  0  2  0  0  0  0  0  0  0  0  0
   15.9533   -4.1514   -8.0388 C   0  0  0  0  0  0  0  0  0  0  0  0
   15.4056   -6.4835   -8.8809 C   0  0  2  0  0  0  0  0  0  0  0  0
   15.0779   -7.2533  -10.0681 N   0  0  0  0  0  0  0  0  0  0  0  0
   14.2819   -6.6142   -7.9512 C   0  0  0  0  0  0  0  0  0  0  0  0
   13.0934   -6.9049   -8.2411 O   0  0  0  0  0  0  0  0  0  0  0  0
   14.5143   -6.4006   -6.5780 O   0  0  0  0  0  0  0  0  0  0  0  0
  2  1  1  6
  3  2  1  0
  4  3  1  0
  5  4  1  0
  5  6  2  0
  7  2  1  0
  7  8  2  0
  9  5  1  0
 10  7  1  0
 11 10  1  0
 11 12  1  1
 13 12  1  0
 13 14  1  0
 15 14  1  0
 16 15  1  0
 17 11  1  0
 18 17  2  0
 19 20  1  0
 20 21  1  0
 21 22  1  1
 21 23  1  0
 23 25  1  0
 23 24  1  6
 24 17  1  0
 25 27  1  0
 26 25  2  0
M  END
$$$$
