EKI.pdb
     RDKit          3D

 27 26  0  0  1  0  0  0  0  0999 V2000
   17.3017  -27.4833   -3.5868 N   0  0  0  0  0  0  0  0  0  0  0  0
   16.3281  -27.1931   -2.5980 C   0  0  1  0  0  0  0  0  0  0  0  0
   16.4944  -27.8398   -1.2718 C   0  0  0  0  0  0  0  0  0  0  0  0
   16.1941  -29.3020   -1.1983 C   0  0  0  0  0  0  0  0  0  0  0  0
   14.8312  -29.7153   -1.5125 C   0  0  0  0  0  0  0  0  0  0  0  0
   14.4287  -30.0814   -2.6313 O   0  0  0  0  0  0  0  0  0  0  0  0
   16.0811  -25.7123   -2.4640 C   0  0  0  0  0  0  0  0  0  0  0  0
   17.0626  -24.9592   -2.2366 O   0  0  0  0  0  0  0  0  0  0  0  0
   13.8824  -29.7049   -0.4772 O   0  0  0  0  0  0  0  0  0  0  0  0
   14.8095  -25.1452   -2.5822 N   0  0  0  0  0  0  0  0  0  0  0  0
   14.5747  -23.6725   -2.5260 C   0  0  1  0  0  0  0  0  0  0  0  0
   13.5777  -23.3277   -3.5753 C   0  0  0  0  0  0  0  0  0  0  0  0
   13.1756  -21.8921   -3.6679 C   0  0  0  0  0  0  0  0  0  0  0  0
   12.1920  -21.6361   -4.7947 C   0  0  0  0  0  0  0  0  0  0  0  0
   11.8324  -20.1827   -4.9420 C   0  0  0  0  0  0  0  0  0  0  0  0
   10.8242  -19.9872   -5.9751 N   0  0  0  0  0  0  0  0  0  0  0  0
   14.2496  -23.3702   -1.1396 C   0  0  0  0  0  0  0  0  0  0  0  0
   13.7530  -24.3009   -0.4327 O   0  0  0  0  0  0  0  0  0  0  0  0
   16.6096  -21.5504    3.9760 C   0  0  0  0  0  0  0  0  0  0  0  0
   15.3789  -21.6818    3.1758 C   0  0  0  0  0  0  0  0  0  0  0  0
   15.4916  -21.9843    1.7246 C   0  0  2  0  0  0  0  0  0  0  0  0
   16.6532  -21.2735    1.0681 C   0  0  0  0  0  0  0  0  0  0  0  0
   14.2344  -22.0421    0.9862 C   0  0  2  0  0  0  0  0  0  0  0  0
   14.4153  -22.1679   -0.4494 N   0  0  0  0  0  0  0  0  0  0  0  0
   13.2525  -20.9795    1.2117 C   0  0  0  0  0  0  0  0  0  0  0  0
   12.7732  -20.2004    0.3489 O   0  0  0  0  0  0  0  0  0  0  0  0
   12.7674  -20.7758    2.5187 O   0  0  0  0  0  0  0  0  0  0  0  0
  2  1  1  6
  3  2  1  0
  4  3  1  0
  5  4  1  0
  5  6  2  0
  7  2  1  0
  7  8  2  0
  9  5  1  0
 10  7  1  0
 11 10  1  0
 11 12  1  6
 13 12  1  0
 13 14  1  0
 15 14  1  0
 16 15  1  0
 17 11  1  0
 18 17  2  0
 19 20  1  0
 20 21  1  0
 21 22  1  6
 21 23  1  0
 23 25  1  0
 23 24  1  6
 24 17  1  0
 25 27  1  0
 26 25  2  0
M  END
$$$$
