EKI.pdb
     RDKit          3D

 27 26  0  0  1  0  0  0  0  0999 V2000
   25.0014  -23.5261  -14.9156 N   0  0  0  0  0  0  0  0  0  0  0  0
   24.7288  -22.1390  -14.8095 C   0  0  1  0  0  0  0  0  0  0  0  0
   25.4882  -21.2281  -15.7030 C   0  0  0  0  0  0  0  0  0  0  0  0
   26.9709  -21.4113  -15.7411 C   0  0  0  0  0  0  0  0  0  0  0  0
   27.7198  -20.5649  -16.6630 C   0  0  0  0  0  0  0  0  0  0  0  0
   28.4910  -20.9716  -17.5504 O   0  0  0  0  0  0  0  0  0  0  0  0
   23.2506  -21.8477  -14.8500 C   0  0  0  0  0  0  0  0  0  0  0  0
   22.6216  -22.0865  -15.9129 O   0  0  0  0  0  0  0  0  0  0  0  0
   27.5688  -19.1731  -16.5530 O   0  0  0  0  0  0  0  0  0  0  0  0
   22.5537  -21.3249  -13.7574 N   0  0  0  0  0  0  0  0  0  0  0  0
   21.1006  -20.9896  -13.8130 C   0  0  1  0  0  0  0  0  0  0  0  0
   20.4277  -21.6817  -12.6806 C   0  0  0  0  0  0  0  0  0  0  0  0
   19.7882  -22.9963  -12.9870 C   0  0  0  0  0  0  0  0  0  0  0  0
   19.2130  -23.6643  -11.7518 C   0  0  0  0  0  0  0  0  0  0  0  0
   18.3924  -24.8839  -12.0716 C   0  0  0  0  0  0  0  0  0  0  0  0
   17.8286  -25.4757  -10.8658 N   0  0  0  0  0  0  0  0  0  0  0  0
   21.0256  -19.5372  -13.8763 C   0  0  0  0  0  0  0  0  0  0  0  0
   21.5876  -18.8756  -12.9495 O   0  0  0  0  0  0  0  0  0  0  0  0
   23.0007  -16.3278  -17.3615 C   0  0  0  0  0  0  0  0  0  0  0  0
   22.3486  -16.9438  -16.1922 C   0  0  0  0  0  0  0  0  0  0  0  0
   20.9297  -16.6102  -15.8993 C   0  0  2  0  0  0  0  0  0  0  0  0
   20.6291  -15.1380  -16.0663 C   0  0  0  0  0  0  0  0  0  0  0  0
   20.3386  -17.2914  -14.7522 C   0  0  2  0  0  0  0  0  0  0  0  0
   20.4104  -18.7392  -14.8428 N   0  0  0  0  0  0  0  0  0  0  0  0
   18.9669  -16.9442  -14.3756 C   0  0  0  0  0  0  0  0  0  0  0  0
   18.5998  -15.9521  -13.6958 O   0  0  0  0  0  0  0  0  0  0  0  0
   17.9180  -17.7837  -14.8002 O   0  0  0  0  0  0  0  0  0  0  0  0
  2  1  1  6
  3  2  1  0
  4  3  1  0
  5  4  1  0
  5  6  2  0
  7  2  1  0
  7  8  2  0
  9  5  1  0
 10  7  1  0
 11 10  1  0
 11 12  1  1
 13 12  1  0
 13 14  1  0
 15 14  1  0
 16 15  1  0
 17 11  1  0
 18 17  2  0
 19 20  1  0
 20 21  1  0
 21 22  1  1
 21 23  1  0
 23 25  1  0
 23 24  1  6
 24 17  1  0
 25 27  1  0
 26 25  2  0
M  END
$$$$
