EKI.pdb
     RDKit          3D

 27 26  0  0  1  0  0  0  0  0999 V2000
   28.0814  -21.5333  -16.2642 N   0  0  0  0  0  0  0  0  0  0  0  0
   28.2652  -20.1926  -15.8418 C   0  0  1  0  0  0  0  0  0  0  0  0
   28.2783  -19.1454  -16.8944 C   0  0  0  0  0  0  0  0  0  0  0  0
   27.2380  -19.2567  -17.9617 C   0  0  0  0  0  0  0  0  0  0  0  0
   27.6701  -19.0248  -19.3351 C   0  0  0  0  0  0  0  0  0  0  0  0
   28.0467  -17.9332  -19.7979 O   0  0  0  0  0  0  0  0  0  0  0  0
   27.3433  -19.8249  -14.7075 C   0  0  0  0  0  0  0  0  0  0  0  0
   27.4541  -18.6830  -14.1914 O   0  0  0  0  0  0  0  0  0  0  0  0
   27.6667  -20.1140  -20.2216 O   0  0  0  0  0  0  0  0  0  0  0  0
   26.3741  -20.6989  -14.2085 N   0  0  0  0  0  0  0  0  0  0  0  0
   25.3120  -20.2657  -13.2538 C   0  0  1  0  0  0  0  0  0  0  0  0
   24.0043  -20.7484  -13.7743 C   0  0  0  0  0  0  0  0  0  0  0  0
   23.0750  -19.7094  -14.3110 C   0  0  0  0  0  0  0  0  0  0  0  0
   21.7887  -20.3048  -14.8526 C   0  0  0  0  0  0  0  0  0  0  0  0
   20.8655  -19.2729  -15.4411 C   0  0  0  0  0  0  0  0  0  0  0  0
   19.6498  -19.8834  -15.9620 N   0  0  0  0  0  0  0  0  0  0  0  0
   25.7424  -20.7219  -11.9401 C   0  0  0  0  0  0  0  0  0  0  0  0
   26.3814  -21.8174  -11.8751 O   0  0  0  0  0  0  0  0  0  0  0  0
   28.4369  -19.7426   -6.6525 C   0  0  0  0  0  0  0  0  0  0  0  0
   27.4686  -20.5062   -7.4595 C   0  0  0  0  0  0  0  0  0  0  0  0
   26.9476  -19.9079   -8.7168 C   0  0  2  0  0  0  0  0  0  0  0  0
   26.6847  -18.4243   -8.5926 C   0  0  0  0  0  0  0  0  0  0  0  0
   25.9660  -20.7062   -9.4435 C   0  0  2  0  0  0  0  0  0  0  0  0
   25.5539  -20.1071  -10.7008 N   0  0  0  0  0  0  0  0  0  0  0  0
   24.7515  -21.1174   -8.7363 C   0  0  0  0  0  0  0  0  0  0  0  0
   23.5675  -20.8151   -9.0328 O   0  0  0  0  0  0  0  0  0  0  0  0
   24.8789  -21.9394   -7.5991 O   0  0  0  0  0  0  0  0  0  0  0  0
  2  1  1  6
  3  2  1  0
  4  3  1  0
  5  4  1  0
  5  6  2  0
  7  2  1  0
  7  8  2  0
  9  5  1  0
 10  7  1  0
 11 10  1  0
 11 12  1  6
 13 12  1  0
 13 14  1  0
 15 14  1  0
 16 15  1  0
 17 11  1  0
 18 17  2  0
 19 20  1  0
 20 21  1  0
 21 22  1  1
 21 23  1  0
 23 25  1  0
 23 24  1  6
 24 17  1  0
 25 27  1  0
 26 25  2  0
M  END
$$$$
