PCK.pdb
     RDKit          3D

 23 23  0  0  1  0  0  0  0  0999 V2000
    6.9563  -14.6829   20.7991 N   0  0  0  0  0  0  0  0  0  0  0  0
    6.6552  -14.3733   19.4031 C   0  0  0  0  0  0  0  0  0  0  0  0
    7.5736  -13.2593   18.9967 C   0  0  0  0  0  0  0  0  0  0  0  0
    8.4321  -13.0135   20.2445 C   0  0  0  0  0  0  0  0  0  0  0  0
    8.3648  -14.3567   20.9113 C   0  0  1  0  0  0  0  0  0  0  0  0
    8.8030  -14.3279   22.3277 C   0  0  0  0  0  0  0  0  0  0  0  0
   10.0283  -14.1907   22.5785 O   0  0  0  0  0  0  0  0  0  0  0  0
    7.9235  -14.4459   23.4236 N   0  0  0  0  0  0  0  0  0  0  0  0
    8.3447  -14.4622   24.8110 C   0  0  1  0  0  0  0  0  0  0  0  0
    7.3405  -13.5784   25.5621 C   0  0  0  0  0  0  0  0  0  0  0  0
    5.7014  -14.3333   25.2519 S   0  0  0  0  0  0  0  0  0  0  0  0
    8.3633  -15.8310   25.3692 C   0  0  0  0  0  0  0  0  0  0  0  0
    7.3094  -16.5062   25.3283 O   0  0  0  0  0  0  0  0  0  0  0  0
    9.5162  -16.4115   25.9466 N   0  0  0  0  0  0  0  0  0  0  0  0
    9.5088  -17.7520   26.5446 C   0  0  1  0  0  0  0  0  0  0  0  0
   10.5217  -18.5865   25.8195 C   0  0  0  0  0  0  0  0  0  0  0  0
   10.2242  -18.7932   24.3719 C   0  0  0  0  0  0  0  0  0  0  0  0
   11.3738  -19.5768   23.7322 C   0  0  0  0  0  0  0  0  0  0  0  0
   11.1426  -19.7312   22.2429 C   0  0  0  0  0  0  0  0  0  0  0  0
   12.2277  -20.3908   21.5840 N   0  0  0  0  0  0  0  0  0  0  0  0
    9.8240  -17.6877   27.9733 C   0  0  0  0  0  0  0  0  0  0  0  0
   10.2234  -16.6009   28.4658 O   0  0  0  0  0  0  0  0  0  0  0  0
    9.7039  -18.7638   28.8208 O   0  0  0  0  0  0  0  0  0  0  0  0
  1  2  1  0
  2  3  1  0
  4  3  1  0
  5  1  1  0
  5  4  1  0
  5  6  1  1
  6  7  2  0
  8  6  1  0
  9  8  1  0
  9 12  1  0
  9 10  1  1
 11 10  1  0
 12 14  1  0
 13 12  2  0
 14 15  1  0
 15 21  1  0
 16 17  1  0
 15 16  1  6
 18 19  1  0
 18 17  1  0
 19 20  1  0
 21 22  2  0
 21 23  1  0
M  END
$$$$
