PCK.pdb
     RDKit          3D

 23 23  0  0  1  0  0  0  0  0999 V2000
    6.1091  -18.0514   20.5083 N   0  0  0  0  0  0  0  0  0  0  0  0
    5.0279  -18.4248   19.5990 C   0  0  0  0  0  0  0  0  0  0  0  0
    4.9627  -17.3632   18.5414 C   0  0  0  0  0  0  0  0  0  0  0  0
    6.1112  -16.4114   18.9011 C   0  0  0  0  0  0  0  0  0  0  0  0
    7.0299  -17.3351   19.6469 C   0  0  1  0  0  0  0  0  0  0  0  0
    8.0635  -16.6203   20.4341 C   0  0  0  0  0  0  0  0  0  0  0  0
    9.2686  -16.7295   20.0892 O   0  0  0  0  0  0  0  0  0  0  0  0
    7.7781  -15.8170   21.5574 N   0  0  0  0  0  0  0  0  0  0  0  0
    8.7825  -15.1370   22.3517 C   0  0  1  0  0  0  0  0  0  0  0  0
    8.0311  -14.0526   23.1349 C   0  0  0  0  0  0  0  0  0  0  0  0
    6.8320  -14.9541   24.1847 S   0  0  0  0  0  0  0  0  0  0  0  0
    9.4831  -16.0604   23.2693 C   0  0  0  0  0  0  0  0  0  0  0  0
    8.8511  -17.0396   23.7275 O   0  0  0  0  0  0  0  0  0  0  0  0
   10.8333  -15.8880   23.6526 N   0  0  0  0  0  0  0  0  0  0  0  0
   11.6221  -16.9630   24.2664 C   0  0  1  0  0  0  0  0  0  0  0  0
   11.7364  -18.0780   23.2704 C   0  0  0  0  0  0  0  0  0  0  0  0
   12.4614  -19.2805   23.7754 C   0  0  0  0  0  0  0  0  0  0  0  0
   12.4864  -20.3470   22.6768 C   0  0  0  0  0  0  0  0  0  0  0  0
   13.2380  -21.5744   23.1500 C   0  0  0  0  0  0  0  0  0  0  0  0
   13.2422  -22.6245   22.1784 N   0  0  0  0  0  0  0  0  0  0  0  0
   12.9498  -16.4807   24.6524 C   0  0  0  0  0  0  0  0  0  0  0  0
   13.4047  -15.4379   24.1150 O   0  0  0  0  0  0  0  0  0  0  0  0
   13.7388  -17.1112   25.5855 O   0  0  0  0  0  0  0  0  0  0  0  0
  1  2  1  0
  2  3  1  0
  4  3  1  0
  5  1  1  0
  5  4  1  0
  5  6  1  1
  6  7  2  0
  8  6  1  0
  9  8  1  0
  9 12  1  0
  9 10  1  1
 11 10  1  0
 12 14  1  0
 13 12  2  0
 14 15  1  0
 15 21  1  0
 16 17  1  0
 15 16  1  6
 18 19  1  0
 18 17  1  0
 19 20  1  0
 21 22  2  0
 21 23  1  0
M  END
$$$$
