PCK.pdb
     RDKit          3D

 23 23  0  0  1  0  0  0  0  0999 V2000
    7.0454  -14.9162   20.6623 N   0  0  0  0  0  0  0  0  0  0  0  0
    6.7575  -14.6903   19.2476 C   0  0  0  0  0  0  0  0  0  0  0  0
    7.4412  -13.4118   18.8632 C   0  0  0  0  0  0  0  0  0  0  0  0
    8.1644  -12.9789   20.1453 C   0  0  0  0  0  0  0  0  0  0  0  0
    8.3466  -14.2997   20.8350 C   0  0  1  0  0  0  0  0  0  0  0  0
    8.6964  -14.1657   22.2699 C   0  0  0  0  0  0  0  0  0  0  0  0
    9.9114  -14.1321   22.5950 O   0  0  0  0  0  0  0  0  0  0  0  0
    7.7429  -14.0726   23.3045 N   0  0  0  0  0  0  0  0  0  0  0  0
    8.0714  -13.8744   24.7028 C   0  0  1  0  0  0  0  0  0  0  0  0
    6.8823  -13.1164   25.3072 C   0  0  0  0  0  0  0  0  0  0  0  0
    7.3184  -12.8505   27.0656 S   0  0  0  0  0  0  0  0  0  0  0  0
    8.2938  -15.1548   25.4074 C   0  0  0  0  0  0  0  0  0  0  0  0
    7.3408  -15.9628   25.4916 O   0  0  0  0  0  0  0  0  0  0  0  0
    9.5330  -15.5080   25.9901 N   0  0  0  0  0  0  0  0  0  0  0  0
    9.7681  -16.8177   26.6097 C   0  0  1  0  0  0  0  0  0  0  0  0
   10.9853  -17.4181   25.9721 C   0  0  0  0  0  0  0  0  0  0  0  0
   11.0963  -18.8975   26.1329 C   0  0  0  0  0  0  0  0  0  0  0  0
   12.3860  -19.3778   25.4614 C   0  0  0  0  0  0  0  0  0  0  0  0
   12.4906  -20.8873   25.5389 C   0  0  0  0  0  0  0  0  0  0  0  0
   13.5823  -21.4024   24.7711 N   0  0  0  0  0  0  0  0  0  0  0  0
    9.9584  -16.6842   28.0555 C   0  0  0  0  0  0  0  0  0  0  0  0
   10.2265  -15.5535   28.5379 O   0  0  0  0  0  0  0  0  0  0  0  0
    9.8565  -17.7406   28.9298 O   0  0  0  0  0  0  0  0  0  0  0  0
  1  2  1  0
  2  3  1  0
  4  3  1  0
  5  1  1  0
  5  4  1  0
  5  6  1  1
  6  7  2  0
  8  6  1  0
  9  8  1  0
  9 12  1  0
  9 10  1  1
 11 10  1  0
 12 14  1  0
 13 12  2  0
 14 15  1  0
 15 21  1  0
 16 17  1  0
 15 16  1  6
 18 19  1  0
 18 17  1  0
 19 20  1  0
 21 22  2  0
 21 23  1  0
M  END
$$$$
