PCK.pdb
     RDKit          3D

 23 23  0  0  1  0  0  0  0  0999 V2000
    6.9310  -14.7103   20.6935 N   0  0  0  0  0  0  0  0  0  0  0  0
    6.6479  -14.4410   19.2854 C   0  0  0  0  0  0  0  0  0  0  0  0
    7.3931  -13.1907   18.9231 C   0  0  0  0  0  0  0  0  0  0  0  0
    8.1435  -12.8213   20.2095 C   0  0  0  0  0  0  0  0  0  0  0  0
    8.2623  -14.1635   20.8710 C   0  0  1  0  0  0  0  0  0  0  0  0
    8.6254  -14.0771   22.3062 C   0  0  0  0  0  0  0  0  0  0  0  0
    9.8415  -14.1239   22.6257 O   0  0  0  0  0  0  0  0  0  0  0  0
    7.6836  -13.9442   23.3472 N   0  0  0  0  0  0  0  0  0  0  0  0
    8.0281  -13.7009   24.7344 C   0  0  1  0  0  0  0  0  0  0  0  0
    6.8208  -12.9758   25.3430 C   0  0  0  0  0  0  0  0  0  0  0  0
    7.2359  -12.7398   27.1107 S   0  0  0  0  0  0  0  0  0  0  0  0
    8.3129  -14.9549   25.4637 C   0  0  0  0  0  0  0  0  0  0  0  0
    7.3604  -15.7281   25.7153 O   0  0  0  0  0  0  0  0  0  0  0  0
    9.6109  -15.3203   25.8896 N   0  0  0  0  0  0  0  0  0  0  0  0
    9.8697  -16.5286   26.6818 C   0  0  1  0  0  0  0  0  0  0  0  0
   11.0928  -17.1930   26.1239 C   0  0  0  0  0  0  0  0  0  0  0  0
   11.5465  -18.3889   26.8924 C   0  0  0  0  0  0  0  0  0  0  0  0
   11.1740  -19.6540   26.1141 C   0  0  0  0  0  0  0  0  0  0  0  0
   11.5243  -20.8900   26.9173 C   0  0  0  0  0  0  0  0  0  0  0  0
   11.1258  -22.0996   26.2657 N   0  0  0  0  0  0  0  0  0  0  0  0
   10.0655  -16.1944   28.0941 C   0  0  0  0  0  0  0  0  0  0  0  0
   10.0265  -17.1124   28.9536 O   0  0  0  0  0  0  0  0  0  0  0  0
   10.2959  -14.9145   28.5407 O   0  0  0  0  0  0  0  0  0  0  0  0
  1  2  1  0
  2  3  1  0
  4  3  1  0
  5  1  1  0
  5  4  1  0
  5  6  1  1
  6  7  2  0
  8  6  1  0
  9  8  1  0
  9 12  1  0
  9 10  1  1
 11 10  1  0
 12 14  1  0
 13 12  2  0
 14 15  1  0
 15 21  1  0
 16 17  1  0
 15 16  1  6
 18 19  1  0
 18 17  1  0
 19 20  1  0
 21 22  2  0
 21 23  1  0
M  END
$$$$
