PCK.pdb
     RDKit          3D

 23 23  0  0  1  0  0  0  0  0999 V2000
    9.2486  -13.9573   18.4212 N   0  0  0  0  0  0  0  0  0  0  0  0
    8.7917  -13.0010   17.4152 C   0  0  0  0  0  0  0  0  0  0  0  0
    7.2983  -12.9262   17.5325 C   0  0  0  0  0  0  0  0  0  0  0  0
    6.9715  -13.8645   18.7018 C   0  0  0  0  0  0  0  0  0  0  0  0
    8.2589  -13.8254   19.4728 C   0  0  1  0  0  0  0  0  0  0  0  0
    8.3769  -14.9186   20.4679 C   0  0  0  0  0  0  0  0  0  0  0  0
    7.4334  -15.1008   21.2802 O   0  0  0  0  0  0  0  0  0  0  0  0
    9.4920  -15.7766   20.5624 N   0  0  0  0  0  0  0  0  0  0  0  0
    9.6223  -16.8426   21.5366 C   0  0  1  0  0  0  0  0  0  0  0  0
   10.0483  -18.0840   20.7420 C   0  0  0  0  0  0  0  0  0  0  0  0
   11.6548  -17.6459   19.9805 S   0  0  0  0  0  0  0  0  0  0  0  0
   10.6154  -16.5196   22.5830 C   0  0  0  0  0  0  0  0  0  0  0  0
   11.4588  -15.6241   22.3488 O   0  0  0  0  0  0  0  0  0  0  0  0
   10.6557  -17.1757   23.8351 N   0  0  0  0  0  0  0  0  0  0  0  0
   11.5837  -16.7817   24.9020 C   0  0  1  0  0  0  0  0  0  0  0  0
   11.2222  -17.5529   26.1360 C   0  0  0  0  0  0  0  0  0  0  0  0
   12.1865  -17.3944   27.2637 C   0  0  0  0  0  0  0  0  0  0  0  0
   11.7725  -18.3218   28.4097 C   0  0  0  0  0  0  0  0  0  0  0  0
   12.7972  -18.2730   29.5245 C   0  0  0  0  0  0  0  0  0  0  0  0
   12.4595  -19.1302   30.6190 N   0  0  0  0  0  0  0  0  0  0  0  0
   12.9696  -17.0527   24.5143 C   0  0  0  0  0  0  0  0  0  0  0  0
   13.2325  -18.0974   23.8642 O   0  0  0  0  0  0  0  0  0  0  0  0
   14.0159  -16.2156   24.8230 O   0  0  0  0  0  0  0  0  0  0  0  0
  1  2  1  0
  2  3  1  0
  4  3  1  0
  5  1  1  0
  5  4  1  0
  5  6  1  1
  6  7  2  0
  8  6  1  0
  9  8  1  0
  9 12  1  0
  9 10  1  6
 11 10  1  0
 12 14  1  0
 13 12  2  0
 14 15  1  0
 15 21  1  0
 16 17  1  0
 15 16  1  1
 18 19  1  0
 18 17  1  0
 19 20  1  0
 21 22  2  0
 21 23  1  0
M  END
$$$$
