PCK.pdb
     RDKit          3D

 23 23  0  0  1  0  0  0  0  0999 V2000
    6.9167  -14.7195   21.0221 N   0  0  0  0  0  0  0  0  0  0  0  0
    6.5125  -14.3955   19.6558 C   0  0  0  0  0  0  0  0  0  0  0  0
    7.3752  -13.2540   19.2059 C   0  0  0  0  0  0  0  0  0  0  0  0
    8.3127  -13.0075   20.3954 C   0  0  0  0  0  0  0  0  0  0  0  0
    8.3220  -14.3621   21.0422 C   0  0  1  0  0  0  0  0  0  0  0  0
    8.8568  -14.3450   22.4252 C   0  0  0  0  0  0  0  0  0  0  0  0
   10.1036  -14.3755   22.5913 O   0  0  0  0  0  0  0  0  0  0  0  0
    8.0474  -14.2962   23.5789 N   0  0  0  0  0  0  0  0  0  0  0  0
    8.5559  -14.3421   24.9360 C   0  0  1  0  0  0  0  0  0  0  0  0
    7.6366  -13.4285   25.7570 C   0  0  0  0  0  0  0  0  0  0  0  0
    5.9564  -14.1305   25.5651 S   0  0  0  0  0  0  0  0  0  0  0  0
    8.5579  -15.7161   25.4816 C   0  0  0  0  0  0  0  0  0  0  0  0
    7.4675  -16.3262   25.5653 O   0  0  0  0  0  0  0  0  0  0  0  0
    9.7343  -16.3717   25.9129 N   0  0  0  0  0  0  0  0  0  0  0  0
    9.7343  -17.7615   26.3852 C   0  0  1  0  0  0  0  0  0  0  0  0
   10.7784  -18.5113   25.6133 C   0  0  0  0  0  0  0  0  0  0  0  0
   10.5995  -18.4641   24.1326 C   0  0  0  0  0  0  0  0  0  0  0  0
   11.7901  -19.1560   23.4629 C   0  0  0  0  0  0  0  0  0  0  0  0
   11.7227  -18.9843   21.9591 C   0  0  0  0  0  0  0  0  0  0  0  0
   12.8006  -19.6381   21.2827 N   0  0  0  0  0  0  0  0  0  0  0  0
   10.0132  -17.8243   27.8215 C   0  0  0  0  0  0  0  0  0  0  0  0
   10.0431  -18.9448   28.3930 O   0  0  0  0  0  0  0  0  0  0  0  0
   10.2508  -16.7108   28.5924 O   0  0  0  0  0  0  0  0  0  0  0  0
  1  2  1  0
  2  3  1  0
  4  3  1  0
  5  1  1  0
  5  4  1  0
  5  6  1  1
  6  7  2  0
  8  6  1  0
  9  8  1  0
  9 12  1  0
  9 10  1  1
 11 10  1  0
 12 14  1  0
 13 12  2  0
 14 15  1  0
 15 21  1  0
 16 17  1  0
 15 16  1  6
 18 19  1  0
 18 17  1  0
 19 20  1  0
 21 22  2  0
 21 23  1  0
M  END
$$$$
