PCK.pdb
     RDKit          3D

 23 23  0  0  1  0  0  0  0  0999 V2000
    7.1159  -14.6396   20.7670 N   0  0  0  0  0  0  0  0  0  0  0  0
    6.8400  -14.3423   19.3631 C   0  0  0  0  0  0  0  0  0  0  0  0
    7.2904  -12.9324   19.1201 C   0  0  0  0  0  0  0  0  0  0  0  0
    7.8778  -12.4941   20.4682 C   0  0  0  0  0  0  0  0  0  0  0  0
    8.2754  -13.8174   21.0548 C   0  0  1  0  0  0  0  0  0  0  0  0
    8.5455  -13.7529   22.5114 C   0  0  0  0  0  0  0  0  0  0  0  0
    9.7274  -13.5636   22.8990 O   0  0  0  0  0  0  0  0  0  0  0  0
    7.5504  -13.8917   23.5009 N   0  0  0  0  0  0  0  0  0  0  0  0
    7.7995  -13.8111   24.9270 C   0  0  1  0  0  0  0  0  0  0  0  0
    6.4991  -13.2851   25.5484 C   0  0  0  0  0  0  0  0  0  0  0  0
    6.8086  -13.2333   27.3524 S   0  0  0  0  0  0  0  0  0  0  0  0
    8.1655  -15.1232   25.5014 C   0  0  0  0  0  0  0  0  0  0  0  0
    7.2858  -16.0120   25.5668 O   0  0  0  0  0  0  0  0  0  0  0  0
    9.4628  -15.4194   25.9798 N   0  0  0  0  0  0  0  0  0  0  0  0
    9.7809  -16.6753   26.6699 C   0  0  1  0  0  0  0  0  0  0  0  0
   10.8533  -17.3728   25.8877 C   0  0  0  0  0  0  0  0  0  0  0  0
   10.4431  -17.7817   24.5125 C   0  0  0  0  0  0  0  0  0  0  0  0
   11.6154  -18.4940   23.8321 C   0  0  0  0  0  0  0  0  0  0  0  0
   11.1959  -19.0236   22.4761 C   0  0  0  0  0  0  0  0  0  0  0  0
   12.2567  -19.7053   21.8004 N   0  0  0  0  0  0  0  0  0  0  0  0
   10.2290  -16.4186   28.0402 C   0  0  0  0  0  0  0  0  0  0  0  0
   10.3879  -15.2303   28.4220 O   0  0  0  0  0  0  0  0  0  0  0  0
   10.4873  -17.4182   28.9484 O   0  0  0  0  0  0  0  0  0  0  0  0
  1  2  1  0
  2  3  1  0
  4  3  1  0
  5  1  1  0
  5  4  1  0
  5  6  1  1
  6  7  2  0
  8  6  1  0
  9  8  1  0
  9 12  1  0
  9 10  1  1
 11 10  1  0
 12 14  1  0
 13 12  2  0
 14 15  1  0
 15 21  1  0
 16 17  1  0
 15 16  1  6
 18 19  1  0
 18 17  1  0
 19 20  1  0
 21 22  2  0
 21 23  1  0
M  END
$$$$
