PCK.pdb
     RDKit          3D

 23 23  0  0  1  0  0  0  0  0999 V2000
    7.2812  -14.6805   20.5412 N   0  0  0  0  0  0  0  0  0  0  0  0
    7.0034  -14.3821   19.1380 C   0  0  0  0  0  0  0  0  0  0  0  0
    7.5731  -13.0224   18.8612 C   0  0  0  0  0  0  0  0  0  0  0  0
    8.2257  -12.6173   20.1895 C   0  0  0  0  0  0  0  0  0  0  0  0
    8.5154  -13.9615   20.7916 C   0  0  1  0  0  0  0  0  0  0  0  0
    8.8209  -13.8983   22.2414 C   0  0  0  0  0  0  0  0  0  0  0  0
   10.0234  -13.9479   22.6082 O   0  0  0  0  0  0  0  0  0  0  0  0
    7.8379  -13.7848   23.2461 N   0  0  0  0  0  0  0  0  0  0  0  0
    8.1230  -13.7479   24.6673 C   0  0  1  0  0  0  0  0  0  0  0  0
    6.9186  -13.0534   25.3162 C   0  0  0  0  0  0  0  0  0  0  0  0
    7.2937  -13.0034   27.1078 S   0  0  0  0  0  0  0  0  0  0  0  0
    8.3175  -15.1012   25.2296 C   0  0  0  0  0  0  0  0  0  0  0  0
    7.3540  -15.9009   25.2066 O   0  0  0  0  0  0  0  0  0  0  0  0
    9.5411  -15.5330   25.7917 N   0  0  0  0  0  0  0  0  0  0  0  0
    9.7287  -16.8869   26.3268 C   0  0  1  0  0  0  0  0  0  0  0  0
   10.8324  -17.5411   25.5508 C   0  0  0  0  0  0  0  0  0  0  0  0
   10.3927  -18.6921   24.7091 C   0  0  0  0  0  0  0  0  0  0  0  0
   11.5817  -19.1897   23.8823 C   0  0  0  0  0  0  0  0  0  0  0  0
   11.1996  -20.4315   23.1030 C   0  0  0  0  0  0  0  0  0  0  0  0
   12.2780  -20.9354   22.3093 N   0  0  0  0  0  0  0  0  0  0  0  0
   10.0593  -16.8430   27.7528 C   0  0  0  0  0  0  0  0  0  0  0  0
   10.2241  -17.9220   28.3785 O   0  0  0  0  0  0  0  0  0  0  0  0
   10.2046  -15.6710   28.4569 O   0  0  0  0  0  0  0  0  0  0  0  0
  1  2  1  0
  2  3  1  0
  4  3  1  0
  5  1  1  0
  5  4  1  0
  5  6  1  1
  6  7  2  0
  8  6  1  0
  9  8  1  0
  9 12  1  0
  9 10  1  1
 11 10  1  0
 12 14  1  0
 13 12  2  0
 14 15  1  0
 15 21  1  0
 16 17  1  0
 15 16  1  6
 18 19  1  0
 18 17  1  0
 19 20  1  0
 21 22  2  0
 21 23  1  0
M  END
$$$$
