PCK.pdb
     RDKit          3D

 23 23  0  0  1  0  0  0  0  0999 V2000
    8.2026  -15.2272   18.1286 N   0  0  0  0  0  0  0  0  0  0  0  0
    7.6553  -14.6690   16.8940 C   0  0  0  0  0  0  0  0  0  0  0  0
    7.3492  -13.2263   17.1670 C   0  0  0  0  0  0  0  0  0  0  0  0
    7.8118  -13.0174   18.6150 C   0  0  0  0  0  0  0  0  0  0  0  0
    8.8566  -14.0877   18.7424 C   0  0  1  0  0  0  0  0  0  0  0  0
    9.2330  -14.3718   20.1483 C   0  0  0  0  0  0  0  0  0  0  0  0
   10.4438  -14.5813   20.4192 O   0  0  0  0  0  0  0  0  0  0  0  0
    8.3097  -14.4225   21.2129 N   0  0  0  0  0  0  0  0  0  0  0  0
    8.6660  -14.6992   22.5909 C   0  0  1  0  0  0  0  0  0  0  0  0
    7.3949  -14.4409   23.4103 C   0  0  0  0  0  0  0  0  0  0  0  0
    7.8314  -14.8760   25.1345 S   0  0  0  0  0  0  0  0  0  0  0  0
    9.1383  -16.0881   22.7737 C   0  0  0  0  0  0  0  0  0  0  0  0
    8.4403  -17.0208   22.3142 O   0  0  0  0  0  0  0  0  0  0  0  0
   10.3413  -16.4106   23.4434 N   0  0  0  0  0  0  0  0  0  0  0  0
   10.7888  -17.7949   23.6377 C   0  0  1  0  0  0  0  0  0  0  0  0
   12.0890  -17.9661   22.9108 C   0  0  0  0  0  0  0  0  0  0  0  0
   12.7164  -19.3091   23.0825 C   0  0  0  0  0  0  0  0  0  0  0  0
   14.0543  -19.3347   22.3380 C   0  0  0  0  0  0  0  0  0  0  0  0
   14.6725  -20.7159   22.4111 C   0  0  0  0  0  0  0  0  0  0  0  0
   15.9818  -20.7628   21.8363 N   0  0  0  0  0  0  0  0  0  0  0  0
   10.9529  -18.0951   25.0617 C   0  0  0  0  0  0  0  0  0  0  0  0
   10.8302  -17.1676   25.9030 O   0  0  0  0  0  0  0  0  0  0  0  0
   11.2353  -19.3533   25.5390 O   0  0  0  0  0  0  0  0  0  0  0  0
  1  2  1  0
  2  3  1  0
  4  3  1  0
  5  1  1  0
  5  4  1  0
  5  6  1  1
  6  7  2  0
  8  6  1  0
  9  8  1  0
  9 12  1  0
  9 10  1  1
 11 10  1  0
 12 14  1  0
 13 12  2  0
 14 15  1  0
 15 21  1  0
 16 17  1  0
 15 16  1  6
 18 19  1  0
 18 17  1  0
 19 20  1  0
 21 22  2  0
 21 23  1  0
M  END
$$$$
