PCK.pdb
     RDKit          3D

 23 23  0  0  1  0  0  0  0  0999 V2000
    8.1635  -14.4300   20.2380 N   0  0  0  0  0  0  0  0  0  0  0  0
    7.3017  -14.7965   19.1162 C   0  0  0  0  0  0  0  0  0  0  0  0
    6.2206  -15.6778   19.6679 C   0  0  0  0  0  0  0  0  0  0  0  0
    6.5163  -15.7285   21.1727 C   0  0  0  0  0  0  0  0  0  0  0  0
    7.2529  -14.4350   21.3667 C   0  0  1  0  0  0  0  0  0  0  0  0
    7.9857  -14.3678   22.6541 C   0  0  0  0  0  0  0  0  0  0  0  0
    9.1319  -14.8820   22.7245 O   0  0  0  0  0  0  0  0  0  0  0  0
    7.4736  -13.7574   23.8175 N   0  0  0  0  0  0  0  0  0  0  0  0
    8.1367  -13.7713   25.1069 C   0  0  1  0  0  0  0  0  0  0  0  0
    7.2488  -12.9395   26.0415 C   0  0  0  0  0  0  0  0  0  0  0  0
    8.0647  -13.0121   27.6791 S   0  0  0  0  0  0  0  0  0  0  0  0
    8.3096  -15.1442   25.6271 C   0  0  0  0  0  0  0  0  0  0  0  0
    7.3135  -15.9028   25.6514 O   0  0  0  0  0  0  0  0  0  0  0  0
    9.5478  -15.6390   26.0982 N   0  0  0  0  0  0  0  0  0  0  0  0
    9.7232  -17.0251   26.5480 C   0  0  1  0  0  0  0  0  0  0  0  0
   10.7812  -17.6571   25.6940 C   0  0  0  0  0  0  0  0  0  0  0  0
   11.1866  -19.0253   26.1304 C   0  0  0  0  0  0  0  0  0  0  0  0
   12.3209  -19.5218   25.2295 C   0  0  0  0  0  0  0  0  0  0  0  0
   12.7727  -20.9017   25.6621 C   0  0  0  0  0  0  0  0  0  0  0  0
   13.7376  -21.4683   24.7706 N   0  0  0  0  0  0  0  0  0  0  0  0
   10.1080  -17.0705   27.9603 C   0  0  0  0  0  0  0  0  0  0  0  0
   10.4377  -16.0045   28.5416 O   0  0  0  0  0  0  0  0  0  0  0  0
   10.1270  -18.2299   28.6993 O   0  0  0  0  0  0  0  0  0  0  0  0
  1  2  1  0
  2  3  1  0
  4  3  1  0
  5  1  1  0
  5  4  1  0
  5  6  1  1
  6  7  2  0
  8  6  1  0
  9  8  1  0
  9 12  1  0
  9 10  1  1
 11 10  1  0
 12 14  1  0
 13 12  2  0
 14 15  1  0
 15 21  1  0
 16 17  1  0
 15 16  1  6
 18 19  1  0
 18 17  1  0
 19 20  1  0
 21 22  2  0
 21 23  1  0
M  END
$$$$
