YWD.pdb
     RDKit          3D

 35 37  0  0  1  0  0  0  0  0999 V2000
   10.8023  -20.9249   14.8822 O   0  0  0  0  0  0  0  0  0  0  0  0
   10.7687  -20.2243   16.0914 C   0  0  0  0  0  0  0  0  0  0  0  0
   11.8424  -19.4720   16.5172 C   0  0  0  0  0  0  0  0  0  0  0  0
   11.7808  -18.7875   17.7215 C   0  0  0  0  0  0  0  0  0  0  0  0
   10.6350  -18.8716   18.4806 C   0  0  0  0  0  0  0  0  0  0  0  0
   10.5620  -18.1417   19.7727 C   0  0  0  0  0  0  0  0  0  0  0  0
   10.0579  -16.7370   19.5982 C   0  0  2  0  0  0  0  0  0  0  0  0
   10.9396  -15.9716   18.7757 N   0  0  0  0  0  0  0  0  0  0  0  0
    9.9037  -16.1427   20.9647 C   0  0  0  0  0  0  0  0  0  0  0  0
   10.8494  -15.5329   21.5189 O   0  0  0  0  0  0  0  0  0  0  0  0
    9.5606  -19.6168   18.0672 C   0  0  0  0  0  0  0  0  0  0  0  0
    9.6352  -20.2926   16.8675 C   0  0  0  0  0  0  0  0  0  0  0  0
    8.6611  -16.2579   21.6767 N   0  0  0  0  0  0  0  0  0  0  0  0
    8.5501  -15.7141   22.9749 C   0  0  1  0  0  0  0  0  0  0  0  0
    7.1682  -15.3630   23.4448 C   0  0  0  0  0  0  0  0  0  0  0  0
    7.0899  -15.0011   24.8700 C   0  0  0  0  0  0  0  0  0  0  0  0
    6.8903  -15.8705   25.9466 C   0  0  0  0  0  0  0  0  0  0  0  0
    6.8627  -15.1726   27.0836 N   0  0  0  0  0  0  0  0  0  0  0  0
    7.0365  -13.8552   26.8271 C   0  0  0  0  0  0  0  0  0  0  0  0
    7.0875  -12.7621   27.6675 C   0  0  0  0  0  0  0  0  0  0  0  0
    7.2853  -11.5129   27.1420 C   0  0  0  0  0  0  0  0  0  0  0  0
    7.4273  -11.3989   25.7758 C   0  0  0  0  0  0  0  0  0  0  0  0
    7.3772  -12.4854   24.9314 C   0  0  0  0  0  0  0  0  0  0  0  0
    7.1779  -13.7535   25.4448 C   0  0  0  0  0  0  0  0  0  0  0  0
    9.1757  -16.5371   24.0394 C   0  0  0  0  0  0  0  0  0  0  0  0
    8.7768  -17.7269   24.1371 O   0  0  0  0  0  0  0  0  0  0  0  0
   10.1626  -16.0895   24.9279 N   0  0  0  0  0  0  0  0  0  0  0  0
   10.8853  -16.9873   25.8248 C   0  0  1  0  0  0  0  0  0  0  0  0
   12.3122  -16.5190   25.8202 C   0  0  0  0  0  0  0  0  0  0  0  0
   13.0810  -16.9046   24.6209 C   0  0  0  0  0  0  0  0  0  0  0  0
   13.0432  -18.1088   24.1821 O   0  0  0  0  0  0  0  0  0  0  0  0
   10.3492  -16.7929   27.2150 C   0  0  0  0  0  0  0  0  0  0  0  0
   10.7312  -17.5260   28.3049 O   0  0  0  0  0  0  0  0  0  0  0  0
   13.8604  -15.9823   23.9434 O   0  0  0  0  0  0  0  0  0  0  0  0
    9.4868  -15.8852   27.3673 O   0  0  0  0  0  0  0  0  0  0  0  0
  2  1  1  0
  3  2  2  0
  4  3  1  0
  5  4  2  0
  5 11  1  0
  6  5  1  0
  7  6  1  0
  7  8  1  6
  9  7  1  0
  9 13  1  0
 10  9  2  0
 11 12  2  0
 12  2  1  0
 14 13  1  0
 14 25  1  0
 14 15  1  1
 16 17  2  0
 16 15  1  0
 18 17  1  0
 19 24  2  0
 19 18  1  0
 20 19  1  0
 21 22  1  0
 21 20  2  0
 22 23  2  0
 23 24  1  0
 24 16  1  0
 25 27  1  0
 25 26  2  0
 27 28  1  0
 28 29  1  1
 30 31  2  0
 30 29  1  0
 32 28  1  0
 32 33  1  0
 34 30  1  0
 35 32  2  0
M  END
$$$$
