YWD.pdb
     RDKit          3D

 35 37  0  0  1  0  0  0  0  0999 V2000
    7.4069  -13.2634   16.2516 O   0  0  0  0  0  0  0  0  0  0  0  0
    7.6852  -13.4696   17.6059 C   0  0  0  0  0  0  0  0  0  0  0  0
    6.7083  -13.8824   18.4864 C   0  0  0  0  0  0  0  0  0  0  0  0
    7.0133  -14.0789   19.8247 C   0  0  0  0  0  0  0  0  0  0  0  0
    8.3015  -13.8559   20.2567 C   0  0  0  0  0  0  0  0  0  0  0  0
    8.6356  -14.0635   21.6896 C   0  0  0  0  0  0  0  0  0  0  0  0
    9.4684  -15.2963   21.9007 C   0  0  2  0  0  0  0  0  0  0  0  0
    8.8444  -16.4445   21.3248 N   0  0  0  0  0  0  0  0  0  0  0  0
    9.6777  -15.4489   23.3763 C   0  0  0  0  0  0  0  0  0  0  0  0
   10.3696  -14.6266   24.0232 O   0  0  0  0  0  0  0  0  0  0  0  0
    9.2817  -13.4453   19.3900 C   0  0  0  0  0  0  0  0  0  0  0  0
    8.9648  -13.2537   18.0617 C   0  0  0  0  0  0  0  0  0  0  0  0
    9.0872  -16.5477   24.0893 N   0  0  0  0  0  0  0  0  0  0  0  0
    9.4023  -16.7427   25.4516 C   0  0  1  0  0  0  0  0  0  0  0  0
    8.2468  -16.8539   26.4035 C   0  0  0  0  0  0  0  0  0  0  0  0
    7.2982  -15.7297   26.3340 C   0  0  0  0  0  0  0  0  0  0  0  0
    5.9549  -15.7879   25.9506 C   0  0  0  0  0  0  0  0  0  0  0  0
    5.4246  -14.5644   25.9985 N   0  0  0  0  0  0  0  0  0  0  0  0
    6.3548  -13.6677   26.4014 C   0  0  0  0  0  0  0  0  0  0  0  0
    6.2794  -12.3051   26.6044 C   0  0  0  0  0  0  0  0  0  0  0  0
    7.3875  -11.6216   27.0295 C   0  0  0  0  0  0  0  0  0  0  0  0
    8.5483  -12.3345   27.2397 C   0  0  0  0  0  0  0  0  0  0  0  0
    8.6306  -13.6942   27.0388 C   0  0  0  0  0  0  0  0  0  0  0  0
    7.5218  -14.3998   26.6095 C   0  0  0  0  0  0  0  0  0  0  0  0
   10.2954  -17.8982   25.7145 C   0  0  0  0  0  0  0  0  0  0  0  0
    9.9488  -18.6768   26.6407 O   0  0  0  0  0  0  0  0  0  0  0  0
   11.4773  -18.1779   25.0154 N   0  0  0  0  0  0  0  0  0  0  0  0
   12.2841  -19.3683   25.2703 C   0  0  1  0  0  0  0  0  0  0  0  0
   13.3053  -19.4213   24.1705 C   0  0  0  0  0  0  0  0  0  0  0  0
   12.7417  -19.3826   22.8070 C   0  0  0  0  0  0  0  0  0  0  0  0
   13.3130  -18.6986   21.8851 O   0  0  0  0  0  0  0  0  0  0  0  0
   13.0215  -19.1667   26.5639 C   0  0  0  0  0  0  0  0  0  0  0  0
   13.8295  -20.1012   27.1517 O   0  0  0  0  0  0  0  0  0  0  0  0
   11.5870  -20.0777   22.4900 O   0  0  0  0  0  0  0  0  0  0  0  0
   12.8719  -18.0511   27.1329 O   0  0  0  0  0  0  0  0  0  0  0  0
  2  1  1  0
  3  2  2  0
  4  3  1  0
  5  4  2  0
  5 11  1  0
  6  5  1  0
  7  6  1  0
  7  8  1  1
  9  7  1  0
  9 13  1  0
 10  9  2  0
 11 12  2  0
 12  2  1  0
 14 13  1  0
 14 25  1  0
 14 15  1  1
 16 17  2  0
 16 15  1  0
 18 17  1  0
 19 24  2  0
 19 18  1  0
 20 19  1  0
 21 22  1  0
 21 20  2  0
 22 23  2  0
 23 24  1  0
 24 16  1  0
 25 27  1  0
 25 26  2  0
 27 28  1  0
 28 29  1  6
 30 31  2  0
 30 29  1  0
 32 28  1  0
 32 33  1  0
 34 30  1  0
 35 32  2  0
M  END
$$$$
