YWD.pdb
     RDKit          3D

 35 37  0  0  1  0  0  0  0  0999 V2000
    7.1881  -13.8470   15.1509 O   0  0  0  0  0  0  0  0  0  0  0  0
    7.5529  -13.8681   16.5002 C   0  0  0  0  0  0  0  0  0  0  0  0
    6.9128  -13.0783   17.4310 C   0  0  0  0  0  0  0  0  0  0  0  0
    7.2961  -13.1200   18.7629 C   0  0  0  0  0  0  0  0  0  0  0  0
    8.3213  -13.9592   19.1378 C   0  0  0  0  0  0  0  0  0  0  0  0
    8.7382  -14.0085   20.5631 C   0  0  0  0  0  0  0  0  0  0  0  0
    8.6412  -15.3965   21.1304 C   0  0  2  0  0  0  0  0  0  0  0  0
    7.3020  -15.8882   21.0635 N   0  0  0  0  0  0  0  0  0  0  0  0
    9.1523  -15.3428   22.5376 C   0  0  0  0  0  0  0  0  0  0  0  0
    9.7849  -14.3461   22.9618 O   0  0  0  0  0  0  0  0  0  0  0  0
    8.9654  -14.7496   18.2208 C   0  0  0  0  0  0  0  0  0  0  0  0
    8.5742  -14.6984   16.8994 C   0  0  0  0  0  0  0  0  0  0  0  0
    8.9285  -16.4384   23.4398 N   0  0  0  0  0  0  0  0  0  0  0  0
    9.5088  -16.4097   24.7265 C   0  0  1  0  0  0  0  0  0  0  0  0
    8.5678  -16.4799   25.8941 C   0  0  0  0  0  0  0  0  0  0  0  0
    7.4869  -15.4805   25.8581 C   0  0  0  0  0  0  0  0  0  0  0  0
    6.1638  -15.6898   25.4579 C   0  0  0  0  0  0  0  0  0  0  0  0
    5.4847  -14.5446   25.5477 N   0  0  0  0  0  0  0  0  0  0  0  0
    6.2935  -13.5561   25.9955 C   0  0  0  0  0  0  0  0  0  0  0  0
    6.0475  -12.2227   26.2507 C   0  0  0  0  0  0  0  0  0  0  0  0
    7.0591  -11.4243   26.7143 C   0  0  0  0  0  0  0  0  0  0  0  0
    8.2985  -11.9952   26.9093 C   0  0  0  0  0  0  0  0  0  0  0  0
    8.5508  -13.3250   26.6565 C   0  0  0  0  0  0  0  0  0  0  0  0
    7.5413  -14.1452   26.1877 C   0  0  0  0  0  0  0  0  0  0  0  0
   10.5560  -17.4371   24.9493 C   0  0  0  0  0  0  0  0  0  0  0  0
   10.2784  -18.6102   24.5870 O   0  0  0  0  0  0  0  0  0  0  0  0
   11.8109  -17.1964   25.5249 N   0  0  0  0  0  0  0  0  0  0  0  0
   12.7746  -18.2601   25.7942 C   0  0  1  0  0  0  0  0  0  0  0  0
   14.1163  -17.5916   25.8858 C   0  0  0  0  0  0  0  0  0  0  0  0
   14.5938  -16.9976   24.6220 C   0  0  0  0  0  0  0  0  0  0  0  0
   14.0791  -17.3490   23.5015 O   0  0  0  0  0  0  0  0  0  0  0  0
   12.4654  -18.8422   27.1445 C   0  0  0  0  0  0  0  0  0  0  0  0
   13.1011  -19.9246   27.6883 O   0  0  0  0  0  0  0  0  0  0  0  0
   15.6057  -16.0525   24.6129 O   0  0  0  0  0  0  0  0  0  0  0  0
   11.5520  -18.2795   27.8078 O   0  0  0  0  0  0  0  0  0  0  0  0
  2  1  1  0
  3  2  2  0
  4  3  1  0
  5  4  2  0
  5 11  1  0
  6  5  1  0
  7  6  1  0
  7  8  1  1
  9  7  1  0
  9 13  1  0
 10  9  2  0
 11 12  2  0
 12  2  1  0
 14 13  1  0
 14 25  1  0
 14 15  1  1
 16 17  2  0
 16 15  1  0
 18 17  1  0
 19 24  2  0
 19 18  1  0
 20 19  1  0
 21 22  1  0
 21 20  2  0
 22 23  2  0
 23 24  1  0
 24 16  1  0
 25 27  1  0
 25 26  2  0
 27 28  1  0
 28 29  1  1
 30 31  2  0
 30 29  1  0
 32 28  1  0
 32 33  1  0
 34 30  1  0
 35 32  2  0
M  END
$$$$
