YWD.pdb
     RDKit          3D

 35 37  0  0  1  0  0  0  0  0999 V2000
    5.9306  -19.9393   16.2093 O   0  0  0  0  0  0  0  0  0  0  0  0
    6.5736  -19.3787   17.3168 C   0  0  0  0  0  0  0  0  0  0  0  0
    6.5837  -18.0169   17.5297 C   0  0  0  0  0  0  0  0  0  0  0  0
    7.2297  -17.4888   18.6373 C   0  0  0  0  0  0  0  0  0  0  0  0
    7.8573  -18.3432   19.5159 C   0  0  0  0  0  0  0  0  0  0  0  0
    8.5524  -17.7846   20.7043 C   0  0  0  0  0  0  0  0  0  0  0  0
    8.2216  -16.3348   20.9202 C   0  0  2  0  0  0  0  0  0  0  0  0
    8.4883  -15.5652   19.7471 N   0  0  0  0  0  0  0  0  0  0  0  0
    9.0193  -15.8631   22.0973 C   0  0  0  0  0  0  0  0  0  0  0  0
   10.0906  -15.2287   21.9445 O   0  0  0  0  0  0  0  0  0  0  0  0
    7.8538  -19.6997   19.3144 C   0  0  0  0  0  0  0  0  0  0  0  0
    7.2077  -20.2116   18.2090 C   0  0  0  0  0  0  0  0  0  0  0  0
    8.5732  -16.1281   23.4372 N   0  0  0  0  0  0  0  0  0  0  0  0
    9.3446  -15.6756   24.5295 C   0  0  1  0  0  0  0  0  0  0  0  0
    8.6450  -15.5704   25.8536 C   0  0  0  0  0  0  0  0  0  0  0  0
    7.4445  -14.7178   25.8350 C   0  0  0  0  0  0  0  0  0  0  0  0
    6.1206  -15.1365   25.6714 C   0  0  0  0  0  0  0  0  0  0  0  0
    5.3117  -14.0755   25.6947 N   0  0  0  0  0  0  0  0  0  0  0  0
    6.0319  -12.9430   25.8688 C   0  0  0  0  0  0  0  0  0  0  0  0
    5.6447  -11.6220   25.9620 C   0  0  0  0  0  0  0  0  0  0  0  0
    6.5919  -10.6505   26.1489 C   0  0  0  0  0  0  0  0  0  0  0  0
    7.9113  -11.0394   26.2373 C   0  0  0  0  0  0  0  0  0  0  0  0
    8.3046  -12.3557   26.1449 C   0  0  0  0  0  0  0  0  0  0  0  0
    7.3618  -13.3492   25.9559 C   0  0  0  0  0  0  0  0  0  0  0  0
   10.5937  -16.4435   24.7572 C   0  0  0  0  0  0  0  0  0  0  0  0
   10.7497  -16.9349   25.9055 O   0  0  0  0  0  0  0  0  0  0  0  0
   11.5944  -16.6560   23.7995 N   0  0  0  0  0  0  0  0  0  0  0  0
   12.7420  -17.5280   24.0347 C   0  0  1  0  0  0  0  0  0  0  0  0
   12.3319  -18.8919   23.5585 C   0  0  0  0  0  0  0  0  0  0  0  0
   13.3875  -19.9190   23.6548 C   0  0  0  0  0  0  0  0  0  0  0  0
   14.5421  -19.6241   24.1280 O   0  0  0  0  0  0  0  0  0  0  0  0
   13.8714  -17.0632   23.1593 C   0  0  0  0  0  0  0  0  0  0  0  0
   13.7783  -16.0529   22.2416 O   0  0  0  0  0  0  0  0  0  0  0  0
   13.1608  -21.2194   23.2372 O   0  0  0  0  0  0  0  0  0  0  0  0
   14.9747  -17.6592   23.2945 O   0  0  0  0  0  0  0  0  0  0  0  0
  2  1  1  0
  3  2  2  0
  4  3  1  0
  5  4  2  0
  5 11  1  0
  6  5  1  0
  7  6  1  0
  7  8  1  6
  9  7  1  0
  9 13  1  0
 10  9  2  0
 11 12  2  0
 12  2  1  0
 14 13  1  0
 14 25  1  0
 14 15  1  1
 16 17  2  0
 16 15  1  0
 18 17  1  0
 19 24  2  0
 19 18  1  0
 20 19  1  0
 21 22  1  0
 21 20  2  0
 22 23  2  0
 23 24  1  0
 24 16  1  0
 25 27  1  0
 25 26  2  0
 27 28  1  0
 28 29  1  6
 30 31  2  0
 30 29  1  0
 32 28  1  0
 32 33  1  0
 34 30  1  0
 35 32  2  0
M  END
$$$$
