YWD.pdb
     RDKit          3D

 35 37  0  0  1  0  0  0  0  0999 V2000
    7.2949  -13.9130   16.2175 O   0  0  0  0  0  0  0  0  0  0  0  0
    8.0156  -14.1286   17.3958 C   0  0  0  0  0  0  0  0  0  0  0  0
    8.8392  -15.2237   17.5452 C   0  0  0  0  0  0  0  0  0  0  0  0
    9.5420  -15.4121   18.7256 C   0  0  0  0  0  0  0  0  0  0  0  0
    9.4039  -14.4916   19.7403 C   0  0  0  0  0  0  0  0  0  0  0  0
   10.1531  -14.6873   21.0084 C   0  0  0  0  0  0  0  0  0  0  0  0
    9.5984  -15.8233   21.8205 C   0  0  2  0  0  0  0  0  0  0  0  0
    8.2203  -15.6113   22.1293 N   0  0  0  0  0  0  0  0  0  0  0  0
   10.4401  -15.9461   23.0537 C   0  0  0  0  0  0  0  0  0  0  0  0
   11.4817  -16.6450   23.0630 O   0  0  0  0  0  0  0  0  0  0  0  0
    8.5875  -13.3983   19.6031 C   0  0  0  0  0  0  0  0  0  0  0  0
    7.8943  -13.2231   18.4240 C   0  0  0  0  0  0  0  0  0  0  0  0
   10.0717  -15.2618   24.2622 N   0  0  0  0  0  0  0  0  0  0  0  0
    9.4357  -15.9768   25.3003 C   0  0  1  0  0  0  0  0  0  0  0  0
    7.9647  -16.2318   25.1427 C   0  0  0  0  0  0  0  0  0  0  0  0
    7.1485  -15.0103   25.0414 C   0  0  0  0  0  0  0  0  0  0  0  0
    6.2247  -14.6994   24.0392 C   0  0  0  0  0  0  0  0  0  0  0  0
    5.6933  -13.4993   24.2799 N   0  0  0  0  0  0  0  0  0  0  0  0
    6.2185  -12.9746   25.4115 C   0  0  0  0  0  0  0  0  0  0  0  0
    5.9807  -11.7787   26.0573 C   0  0  0  0  0  0  0  0  0  0  0  0
    6.6541  -11.4885   27.2140 C   0  0  0  0  0  0  0  0  0  0  0  0
    7.5541  -12.4171   27.6912 C   0  0  0  0  0  0  0  0  0  0  0  0
    7.7962  -13.6122   27.0517 C   0  0  0  0  0  0  0  0  0  0  0  0
    7.1256  -13.9212   25.8828 C   0  0  0  0  0  0  0  0  0  0  0  0
   10.0705  -17.2778   25.6263 C   0  0  0  0  0  0  0  0  0  0  0  0
    9.3952  -18.0710   26.3328 O   0  0  0  0  0  0  0  0  0  0  0  0
   11.3472  -17.6778   25.2095 N   0  0  0  0  0  0  0  0  0  0  0  0
   11.9219  -18.9749   25.5559 C   0  0  1  0  0  0  0  0  0  0  0  0
   13.2032  -19.0821   24.7799 C   0  0  0  0  0  0  0  0  0  0  0  0
   14.0064  -20.2824   25.0838 C   0  0  0  0  0  0  0  0  0  0  0  0
   13.5091  -21.4545   24.9326 O   0  0  0  0  0  0  0  0  0  0  0  0
   12.2768  -18.9558   27.0159 C   0  0  0  0  0  0  0  0  0  0  0  0
   12.3258  -20.0627   27.8183 O   0  0  0  0  0  0  0  0  0  0  0  0
   15.3095  -20.1750   25.5394 O   0  0  0  0  0  0  0  0  0  0  0  0
   12.5448  -17.8305   27.5186 O   0  0  0  0  0  0  0  0  0  0  0  0
  2  1  1  0
  3  2  2  0
  4  3  1  0
  5  4  2  0
  5 11  1  0
  6  5  1  0
  7  6  1  0
  7  8  1  1
  9  7  1  0
  9 13  1  0
 10  9  2  0
 11 12  2  0
 12  2  1  0
 14 13  1  0
 14 25  1  0
 14 15  1  6
 16 17  2  0
 16 15  1  0
 18 17  1  0
 19 24  2  0
 19 18  1  0
 20 19  1  0
 21 22  1  0
 21 20  2  0
 22 23  2  0
 23 24  1  0
 24 16  1  0
 25 27  1  0
 25 26  2  0
 27 28  1  0
 28 29  1  6
 30 31  2  0
 30 29  1  0
 32 28  1  0
 32 33  1  0
 34 30  1  0
 35 32  2  0
M  END
$$$$
