MRP.pdb
     RDKit          3D

 27 27  0  0  1  0  0  0  0  0999 V2000
   19.9916  -17.5313  -16.7490 C   0  0  0  0  0  0  0  0  0  0  0  0
   18.8163  -18.8224  -16.3534 S   0  0  0  0  0  0  0  0  0  0  0  0
   19.4688  -20.1269  -15.3177 C   0  0  0  0  0  0  0  0  0  0  0  0
   20.5952  -19.7420  -14.4296 C   0  0  0  0  0  0  0  0  0  0  0  0
   21.5689  -20.8291  -14.0959 C   0  0  2  0  0  0  0  0  0  0  0  0
   21.1391  -21.5823  -12.9448 N   0  0  0  0  0  0  0  0  0  0  0  0
   22.9341  -20.2355  -13.8535 C   0  0  0  0  0  0  0  0  0  0  0  0
   22.9809  -19.3697  -12.9444 O   0  0  0  0  0  0  0  0  0  0  0  0
   24.6845  -19.4785  -10.1749 N   0  0  0  0  0  0  0  0  0  0  0  0
   25.2890  -20.5914   -9.5270 C   0  0  0  0  0  0  0  0  0  0  0  0
   25.0002  -20.9009   -8.2909 N   0  0  0  0  0  0  0  0  0  0  0  0
   26.2254  -21.3734  -10.2549 N   0  0  0  0  0  0  0  0  0  0  0  0
   26.6545  -20.8571  -11.5654 C   0  0  0  0  0  0  0  0  0  0  0  0
   25.9583  -21.7144  -12.5916 C   0  0  0  0  0  0  0  0  0  0  0  0
   26.2742  -21.2302  -13.9693 C   0  0  0  0  0  0  0  0  0  0  0  0
   25.3717  -20.0884  -14.3487 C   0  0  2  0  0  0  0  0  0  0  0  0
   24.0464  -20.6519  -14.6145 N   0  0  0  0  0  0  0  0  0  0  0  0
   25.7962  -19.4679  -15.6400 C   0  0  0  0  0  0  0  0  0  0  0  0
   25.5316  -20.0492  -16.7480 O   0  0  0  0  0  0  0  0  0  0  0  0
   25.4631  -21.7367   -7.8788 N   0  0  0  0  0  0  0  0  0  0  0  0
   26.4935  -18.2326  -15.6927 C   0  0  0  0  0  0  0  0  0  0  0  0
   26.7656  -17.3964  -14.5450 C   0  0  0  0  0  0  0  0  0  0  0  0
   26.9322  -15.9993  -15.1486 C   0  0  0  0  0  0  0  0  0  0  0  0
   27.7418  -16.3809  -16.3809 C   0  0  2  0  0  0  0  0  0  0  0  0
   27.0247  -17.5987  -16.8712 C   0  0  0  0  0  0  0  0  0  0  0  0
   27.9273  -18.5139  -17.6280 O   0  0  0  0  0  0  0  0  0  0  0  0
   28.3378  -19.5263  -17.0332 O   0  0  0  0  0  0  0  0  0  0  0  0
  2  1  1  0
  3  2  1  0
  3  4  1  0
  4  5  1  0
  5  6  1  1
  7  8  2  0
  7  5  1  0
 10  9  1  0
 10 12  1  0
 11 10  2  0
 13 12  1  0
 13 14  1  0
 14 15  1  0
 16 15  1  6
 16 17  1  0
 17  7  1  0
 18 19  2  0
 18 16  1  0
 20 18  1  0
 21 20  1  0
 22 23  1  0
 22 21  1  0
 23 24  1  0
 24 20  1  0
 24 25  1  1
 25 27  1  0
 26 25  2  0
M  END
$$$$
