MRP.pdb
     RDKit          3D

 27 27  0  0  1  0  0  0  0  0999 V2000
   31.1952  -21.9135   -8.8583 C   0  0  0  0  0  0  0  0  0  0  0  0
   32.2631  -22.2310  -10.2596 S   0  0  0  0  0  0  0  0  0  0  0  0
   31.4752  -22.0289  -11.8529 C   0  0  0  0  0  0  0  0  0  0  0  0
   30.2028  -21.2630  -11.8500 C   0  0  0  0  0  0  0  0  0  0  0  0
   29.5268  -21.1086  -13.1769 C   0  0  2  0  0  0  0  0  0  0  0  0
   30.2939  -20.2676  -14.0609 N   0  0  0  0  0  0  0  0  0  0  0  0
   28.1436  -20.5398  -12.9823 C   0  0  0  0  0  0  0  0  0  0  0  0
   28.0900  -19.2860  -12.9253 O   0  0  0  0  0  0  0  0  0  0  0  0
   22.0051  -17.6297  -16.0430 N   0  0  0  0  0  0  0  0  0  0  0  0
   21.1667  -18.2589  -15.0814 C   0  0  0  0  0  0  0  0  0  0  0  0
   19.9228  -17.8941  -14.9179 N   0  0  0  0  0  0  0  0  0  0  0  0
   21.7099  -19.3060  -14.2897 N   0  0  0  0  0  0  0  0  0  0  0  0
   23.1044  -19.6950  -14.5585 C   0  0  0  0  0  0  0  0  0  0  0  0
   23.4114  -20.8120  -13.5938 C   0  0  0  0  0  0  0  0  0  0  0  0
   24.8141  -21.2894  -13.7857 C   0  0  0  0  0  0  0  0  0  0  0  0
   25.6901  -20.8260  -12.6543 C   0  0  2  0  0  0  0  0  0  0  0  0
   27.0230  -21.3902  -12.8778 N   0  0  0  0  0  0  0  0  0  0  0  0
   25.2394  -21.3990  -11.3500 C   0  0  0  0  0  0  0  0  0  0  0  0
   24.8470  -22.6144  -11.2852 O   0  0  0  0  0  0  0  0  0  0  0  0
   19.3474  -18.4246  -14.2321 N   0  0  0  0  0  0  0  0  0  0  0  0
   25.2296  -20.6374  -10.1521 C   0  0  0  0  0  0  0  0  0  0  0  0
   25.7817  -19.3073  -10.0230 C   0  0  0  0  0  0  0  0  0  0  0  0
   26.0980  -19.1920   -8.5295 C   0  0  0  0  0  0  0  0  0  0  0  0
   24.8457  -19.8631   -7.9810 C   0  0  2  0  0  0  0  0  0  0  0  0
   24.6985  -21.0502   -8.8792 C   0  0  0  0  0  0  0  0  0  0  0  0
   23.2790  -21.4938   -8.9938 O   0  0  0  0  0  0  0  0  0  0  0  0
   22.6650  -21.1715  -10.0265 O   0  0  0  0  0  0  0  0  0  0  0  0
  2  1  1  0
  3  2  1  0
  3  4  1  0
  4  5  1  0
  5  6  1  6
  7  8  2  0
  7  5  1  0
 10  9  1  0
 10 12  1  0
 11 10  2  0
 13 12  1  0
 13 14  1  0
 14 15  1  0
 16 15  1  6
 16 17  1  0
 17  7  1  0
 18 19  2  0
 18 16  1  0
 20 18  1  0
 21 20  1  0
 22 23  1  0
 22 21  1  0
 23 24  1  0
 24 20  1  0
 24 25  1  1
 25 27  1  0
 26 25  2  0
M  END
$$$$
