MRP.pdb
     RDKit          3D

 27 27  0  0  1  0  0  0  0  0999 V2000
   25.0779  -17.3269  -18.8565 C   0  0  0  0  0  0  0  0  0  0  0  0
   26.7592  -17.4990  -19.4468 S   0  0  0  0  0  0  0  0  0  0  0  0
   27.8247  -18.4612  -18.3795 C   0  0  0  0  0  0  0  0  0  0  0  0
   27.1361  -19.4063  -17.4640 C   0  0  0  0  0  0  0  0  0  0  0  0
   28.0103  -20.1255  -16.4843 C   0  0  2  0  0  0  0  0  0  0  0  0
   28.9307  -21.0096  -17.1540 N   0  0  0  0  0  0  0  0  0  0  0  0
   27.1572  -20.8982  -15.5096 C   0  0  0  0  0  0  0  0  0  0  0  0
   26.8863  -22.0739  -15.8597 O   0  0  0  0  0  0  0  0  0  0  0  0
   30.9706  -20.3639  -10.4487 N   0  0  0  0  0  0  0  0  0  0  0  0
   30.8752  -21.7813  -10.3744 C   0  0  0  0  0  0  0  0  0  0  0  0
   31.9412  -22.5351  -10.3212 N   0  0  0  0  0  0  0  0  0  0  0  0
   29.5844  -22.3743  -10.3583 N   0  0  0  0  0  0  0  0  0  0  0  0
   28.4286  -21.4659  -10.4430 C   0  0  0  0  0  0  0  0  0  0  0  0
   27.7915  -21.7370  -11.7822 C   0  0  0  0  0  0  0  0  0  0  0  0
   26.6089  -20.8460  -11.9816 C   0  0  0  0  0  0  0  0  0  0  0  0
   25.9779  -21.0966  -13.3236 C   0  0  2  0  0  0  0  0  0  0  0  0
   26.7197  -20.3046  -14.3071 N   0  0  0  0  0  0  0  0  0  0  0  0
   24.5811  -20.5681  -13.3730 C   0  0  0  0  0  0  0  0  0  0  0  0
   24.3572  -19.3275  -13.1577 O   0  0  0  0  0  0  0  0  0  0  0  0
   31.8105  -23.5657  -10.3806 N   0  0  0  0  0  0  0  0  0  0  0  0
   23.4670  -21.4005  -13.6573 C   0  0  0  0  0  0  0  0  0  0  0  0
   23.5585  -22.8018  -14.0013 C   0  0  0  0  0  0  0  0  0  0  0  0
   22.2738  -23.0634  -14.7919 C   0  0  0  0  0  0  0  0  0  0  0  0
   21.3104  -22.2581  -13.9300 C   0  0  2  0  0  0  0  0  0  0  0  0
   22.0831  -21.0036  -13.6718 C   0  0  0  0  0  0  0  0  0  0  0  0
   21.6844  -20.3535  -12.3898 O   0  0  0  0  0  0  0  0  0  0  0  0
   22.4199  -20.5426  -11.4045 O   0  0  0  0  0  0  0  0  0  0  0  0
  2  1  1  0
  3  2  1  0
  3  4  1  0
  4  5  1  0
  5  6  1  6
  7  8  2  0
  7  5  1  0
 10  9  1  0
 10 12  1  0
 11 10  2  0
 13 12  1  0
 13 14  1  0
 14 15  1  0
 16 15  1  1
 16 17  1  0
 17  7  1  0
 18 19  2  0
 18 16  1  0
 20 18  1  0
 21 20  1  0
 22 23  1  0
 22 21  1  0
 23 24  1  0
 24 20  1  0
 24 25  1  1
 25 27  1  0
 26 25  2  0
M  END
$$$$
