MRP.pdb
     RDKit          3D

 27 27  0  0  1  0  0  0  0  0999 V2000
   26.3329  -19.0003   -6.9165 C   0  0  0  0  0  0  0  0  0  0  0  0
   27.6793  -19.1971   -8.0798 S   0  0  0  0  0  0  0  0  0  0  0  0
   27.5412  -20.6332   -9.1375 C   0  0  0  0  0  0  0  0  0  0  0  0
   27.0466  -20.3747  -10.5138 C   0  0  0  0  0  0  0  0  0  0  0  0
   26.9452  -21.5696  -11.4100 C   0  0  2  0  0  0  0  0  0  0  0  0
   28.2428  -22.1392  -11.6725 N   0  0  0  0  0  0  0  0  0  0  0  0
   26.2717  -21.1829  -12.7028 C   0  0  0  0  0  0  0  0  0  0  0  0
   27.0373  -21.1048  -13.6958 O   0  0  0  0  0  0  0  0  0  0  0  0
   18.9383  -24.4195  -13.9139 N   0  0  0  0  0  0  0  0  0  0  0  0
   19.3590  -23.5572  -12.8637 C   0  0  0  0  0  0  0  0  0  0  0  0
   18.5515  -23.2185  -11.8940 N   0  0  0  0  0  0  0  0  0  0  0  0
   20.6906  -23.0625  -12.8848 N   0  0  0  0  0  0  0  0  0  0  0  0
   21.5289  -23.4435  -14.0338 C   0  0  0  0  0  0  0  0  0  0  0  0
   22.8858  -22.8428  -13.7683 C   0  0  0  0  0  0  0  0  0  0  0  0
   22.8240  -21.3547  -13.8861 C   0  0  0  0  0  0  0  0  0  0  0  0
   24.2051  -20.7779  -14.0348 C   0  0  2  0  0  0  0  0  0  0  0  0
   24.8833  -20.9371  -12.7466 N   0  0  0  0  0  0  0  0  0  0  0  0
   24.1543  -19.3028  -14.2674 C   0  0  0  0  0  0  0  0  0  0  0  0
   23.7272  -18.5231  -13.3481 O   0  0  0  0  0  0  0  0  0  0  0  0
   18.9128  -22.5688  -11.1659 N   0  0  0  0  0  0  0  0  0  0  0  0
   24.5710  -18.7150  -15.4905 C   0  0  0  0  0  0  0  0  0  0  0  0
   25.2479  -19.4262  -16.5520 C   0  0  0  0  0  0  0  0  0  0  0  0
   26.0080  -18.3249  -17.2958 C   0  0  0  0  0  0  0  0  0  0  0  0
   24.9265  -17.2527  -17.2783 C   0  0  2  0  0  0  0  0  0  0  0  0
   24.4147  -17.3365  -15.8752 C   0  0  0  0  0  0  0  0  0  0  0  0
   22.9941  -16.8941  -15.7694 O   0  0  0  0  0  0  0  0  0  0  0  0
   22.1174  -17.7707  -15.8711 O   0  0  0  0  0  0  0  0  0  0  0  0
  2  1  1  0
  3  2  1  0
  3  4  1  0
  4  5  1  0
  5  6  1  6
  7  8  2  0
  7  5  1  0
 10  9  1  0
 10 12  1  0
 11 10  2  0
 13 12  1  0
 13 14  1  0
 14 15  1  0
 16 15  1  1
 16 17  1  0
 17  7  1  0
 18 19  2  0
 18 16  1  0
 20 18  1  0
 21 20  1  0
 22 23  1  0
 22 21  1  0
 23 24  1  0
 24 20  1  0
 24 25  1  6
 25 27  1  0
 26 25  2  0
M  END
$$$$
