MRP.pdb
     RDKit          3D

 27 27  0  0  1  0  0  0  0  0999 V2000
   30.9222  -20.4885   -6.5620 C   0  0  0  0  0  0  0  0  0  0  0  0
   30.7890  -19.1813   -7.7779 S   0  0  0  0  0  0  0  0  0  0  0  0
   30.4131  -19.7446   -9.4337 C   0  0  0  0  0  0  0  0  0  0  0  0
   31.0544  -21.0207   -9.8413 C   0  0  0  0  0  0  0  0  0  0  0  0
   30.1288  -22.1722  -10.0836 C   0  0  2  0  0  0  0  0  0  0  0  0
   30.8455  -23.3301  -10.5555 N   0  0  0  0  0  0  0  0  0  0  0  0
   29.0663  -21.7733  -11.0769 C   0  0  0  0  0  0  0  0  0  0  0  0
   29.4364  -21.7753  -12.2774 O   0  0  0  0  0  0  0  0  0  0  0  0
   21.4159  -20.9232  -13.1612 N   0  0  0  0  0  0  0  0  0  0  0  0
   21.2791  -21.6429  -11.9418 C   0  0  0  0  0  0  0  0  0  0  0  0
   20.3710  -22.5707  -11.7952 N   0  0  0  0  0  0  0  0  0  0  0  0
   22.1582  -21.3335  -10.8695 N   0  0  0  0  0  0  0  0  0  0  0  0
   23.0944  -20.2152  -11.0719 C   0  0  0  0  0  0  0  0  0  0  0  0
   24.2812  -20.8000  -11.7947 C   0  0  0  0  0  0  0  0  0  0  0  0
   25.4394  -20.9357  -10.8607 C   0  0  0  0  0  0  0  0  0  0  0  0
   26.6487  -21.4542  -11.5892 C   0  0  2  0  0  0  0  0  0  0  0  0
   27.7676  -21.4318  -10.6446 N   0  0  0  0  0  0  0  0  0  0  0  0
   27.0535  -20.5318  -12.6929 C   0  0  0  0  0  0  0  0  0  0  0  0
   27.4109  -19.3329  -12.4276 O   0  0  0  0  0  0  0  0  0  0  0  0
   20.2688  -23.0058  -10.8556 N   0  0  0  0  0  0  0  0  0  0  0  0
   27.0615  -20.9375  -14.0531 C   0  0  0  0  0  0  0  0  0  0  0  0
   26.9875  -22.3111  -14.4984 C   0  0  0  0  0  0  0  0  0  0  0  0
   27.6417  -22.2769  -15.8822 C   0  0  0  0  0  0  0  0  0  0  0  0
   27.0292  -20.9779  -16.3894 C   0  0  2  0  0  0  0  0  0  0  0  0
   27.1611  -20.0766  -15.2029 C   0  0  0  0  0  0  0  0  0  0  0  0
   26.1137  -19.0147  -15.1866 O   0  0  0  0  0  0  0  0  0  0  0  0
   25.0849  -19.2419  -14.5252 O   0  0  0  0  0  0  0  0  0  0  0  0
  2  1  1  0
  3  2  1  0
  3  4  1  0
  4  5  1  0
  5  6  1  6
  7  8  2  0
  7  5  1  0
 10  9  1  0
 10 12  1  0
 11 10  2  0
 13 12  1  0
 13 14  1  0
 14 15  1  0
 16 15  1  1
 16 17  1  0
 17  7  1  0
 18 19  2  0
 18 16  1  0
 20 18  1  0
 21 20  1  0
 22 23  1  0
 22 21  1  0
 23 24  1  0
 24 20  1  0
 24 25  1  6
 25 27  1  0
 26 25  2  0
M  END
$$$$
