MRP.pdb
     RDKit          3D

 27 27  0  0  1  0  0  0  0  0999 V2000
   33.3123  -12.3766   -9.3425 C   0  0  0  0  0  0  0  0  0  0  0  0
   33.7765  -13.7738   -8.3239 S   0  0  0  0  0  0  0  0  0  0  0  0
   34.3875  -13.3370   -6.7003 C   0  0  0  0  0  0  0  0  0  0  0  0
   35.5301  -12.3886   -6.6755 C   0  0  0  0  0  0  0  0  0  0  0  0
   36.8801  -12.9934   -6.4455 C   0  0  2  0  0  0  0  0  0  0  0  0
   36.9677  -13.5986   -5.1405 N   0  0  0  0  0  0  0  0  0  0  0  0
   37.9464  -11.9389   -6.6065 C   0  0  0  0  0  0  0  0  0  0  0  0
   38.0810  -11.1679   -5.6238 O   0  0  0  0  0  0  0  0  0  0  0  0
   44.7321  -11.1126   -5.6891 N   0  0  0  0  0  0  0  0  0  0  0  0
   45.0579  -10.2363   -6.7612 C   0  0  0  0  0  0  0  0  0  0  0  0
   46.0426   -9.3823   -6.6694 N   0  0  0  0  0  0  0  0  0  0  0  0
   44.2854  -10.3045   -7.9516 N   0  0  0  0  0  0  0  0  0  0  0  0
   43.2301  -11.3298   -8.0076 C   0  0  0  0  0  0  0  0  0  0  0  0
   42.1088  -10.7203   -8.8101 C   0  0  0  0  0  0  0  0  0  0  0  0
   40.8900  -11.5808   -8.7312 C   0  0  0  0  0  0  0  0  0  0  0  0
   39.8366  -10.9293   -7.8780 C   0  0  2  0  0  0  0  0  0  0  0  0
   38.7112  -11.8621   -7.7894 N   0  0  0  0  0  0  0  0  0  0  0  0
   39.2800   -9.7108   -8.5400 C   0  0  0  0  0  0  0  0  0  0  0  0
   38.5261   -9.8268   -9.5665 O   0  0  0  0  0  0  0  0  0  0  0  0
   46.2188   -8.7555   -7.4810 N   0  0  0  0  0  0  0  0  0  0  0  0
   39.5553   -8.4007   -8.0678 C   0  0  0  0  0  0  0  0  0  0  0  0
   40.3632   -8.1019   -6.9065 C   0  0  0  0  0  0  0  0  0  0  0  0
   39.8598   -6.7261   -6.4619 C   0  0  0  0  0  0  0  0  0  0  0  0
   39.7221   -6.0815   -7.8349 C   0  0  2  0  0  0  0  0  0  0  0  0
   39.0761   -7.1675   -8.6356 C   0  0  0  0  0  0  0  0  0  0  0  0
   39.4060   -7.0658  -10.0868 O   0  0  0  0  0  0  0  0  0  0  0  0
   40.3874   -7.7135  -10.4927 O   0  0  0  0  0  0  0  0  0  0  0  0
  2  1  1  0
  3  2  1  0
  3  4  1  0
  4  5  1  0
  5  6  1  1
  7  8  2  0
  7  5  1  0
 10  9  1  0
 10 12  1  0
 11 10  2  0
 13 12  1  0
 13 14  1  0
 14 15  1  0
 16 15  1  6
 16 17  1  0
 17  7  1  0
 18 19  2  0
 18 16  1  0
 20 18  1  0
 21 20  1  0
 22 23  1  0
 22 21  1  0
 23 24  1  0
 24 20  1  0
 24 25  1  1
 25 27  1  0
 26 25  2  0
M  END
$$$$
