MRP.pdb
     RDKit          3D

 27 27  0  0  1  0  0  0  0  0999 V2000
   28.0014  -22.3553  -19.6480 C   0  0  0  0  0  0  0  0  0  0  0  0
   29.0961  -23.6028  -18.9767 S   0  0  0  0  0  0  0  0  0  0  0  0
   28.4814  -24.4145  -17.5059 C   0  0  0  0  0  0  0  0  0  0  0  0
   27.2072  -23.8812  -16.9603 C   0  0  0  0  0  0  0  0  0  0  0  0
   26.7191  -24.5145  -15.6946 C   0  0  2  0  0  0  0  0  0  0  0  0
   26.2570  -25.8598  -15.9262 N   0  0  0  0  0  0  0  0  0  0  0  0
   25.6160  -23.6774  -15.0969 C   0  0  0  0  0  0  0  0  0  0  0  0
   24.4544  -24.0063  -15.4445 O   0  0  0  0  0  0  0  0  0  0  0  0
   21.7352  -21.5905   -9.2223 N   0  0  0  0  0  0  0  0  0  0  0  0
   23.0301  -21.1354   -8.8484 C   0  0  0  0  0  0  0  0  0  0  0  0
   23.4361  -21.1776   -7.6072 N   0  0  0  0  0  0  0  0  0  0  0  0
   23.8885  -20.6270   -9.8598 N   0  0  0  0  0  0  0  0  0  0  0  0
   23.3481  -20.5641  -11.2281 C   0  0  0  0  0  0  0  0  0  0  0  0
   24.4399  -19.9576  -12.0724 C   0  0  0  0  0  0  0  0  0  0  0  0
   25.3958  -21.0155  -12.5186 C   0  0  0  0  0  0  0  0  0  0  0  0
   24.8369  -21.7730  -13.6916 C   0  0  2  0  0  0  0  0  0  0  0  0
   25.9133  -22.6151  -14.2177 N   0  0  0  0  0  0  0  0  0  0  0  0
   24.4815  -20.8512  -14.8126 C   0  0  0  0  0  0  0  0  0  0  0  0
   25.3794  -20.1109  -15.3429 O   0  0  0  0  0  0  0  0  0  0  0  0
   24.4030  -20.8526   -7.4014 N   0  0  0  0  0  0  0  0  0  0  0  0
   23.1621  -20.7607  -15.3283 C   0  0  0  0  0  0  0  0  0  0  0  0
   22.0780  -21.6451  -14.9636 C   0  0  0  0  0  0  0  0  0  0  0  0
   21.1327  -21.5712  -16.1657 C   0  0  0  0  0  0  0  0  0  0  0  0
   21.2183  -20.0734  -16.4283 C   0  0  2  0  0  0  0  0  0  0  0  0
   22.6845  -19.8079  -16.2963 C   0  0  0  0  0  0  0  0  0  0  0  0
   22.9642  -18.4057  -15.8714 O   0  0  0  0  0  0  0  0  0  0  0  0
   23.3215  -18.2301  -14.6929 O   0  0  0  0  0  0  0  0  0  0  0  0
  2  1  1  0
  3  2  1  0
  3  4  1  0
  4  5  1  0
  5  6  1  6
  7  8  2  0
  7  5  1  0
 10  9  1  0
 10 12  1  0
 11 10  2  0
 13 12  1  0
 13 14  1  0
 14 15  1  0
 16 15  1  1
 16 17  1  0
 17  7  1  0
 18 19  2  0
 18 16  1  0
 20 18  1  0
 21 20  1  0
 22 23  1  0
 22 21  1  0
 23 24  1  0
 24 20  1  0
 24 25  1  1
 25 27  1  0
 26 25  2  0
M  END
$$$$
