MRP.pdb
     RDKit          3D

 27 27  0  0  1  0  0  0  0  0999 V2000
   16.9308  -15.9019  -15.1845 C   0  0  0  0  0  0  0  0  0  0  0  0
   16.6442  -17.6663  -15.0846 S   0  0  0  0  0  0  0  0  0  0  0  0
   18.0923  -18.6710  -15.3911 C   0  0  0  0  0  0  0  0  0  0  0  0
   19.3946  -18.0470  -15.0445 C   0  0  0  0  0  0  0  0  0  0  0  0
   20.5034  -18.2520  -16.0294 C   0  0  2  0  0  0  0  0  0  0  0  0
   20.6329  -19.6412  -16.3907 N   0  0  0  0  0  0  0  0  0  0  0  0
   21.7992  -17.7374  -15.4543 C   0  0  0  0  0  0  0  0  0  0  0  0
   21.7675  -16.5441  -15.0626 O   0  0  0  0  0  0  0  0  0  0  0  0
   27.5247  -22.0985  -11.3985 N   0  0  0  0  0  0  0  0  0  0  0  0
   26.4281  -22.1703  -12.3018 C   0  0  0  0  0  0  0  0  0  0  0  0
   25.7666  -23.2821  -12.4849 N   0  0  0  0  0  0  0  0  0  0  0  0
   26.0568  -20.9975  -13.0123 N   0  0  0  0  0  0  0  0  0  0  0  0
   26.8077  -19.7668  -12.7131 C   0  0  0  0  0  0  0  0  0  0  0  0
   26.1920  -18.6919  -13.5724 C   0  0  0  0  0  0  0  0  0  0  0  0
   24.8497  -19.1281  -14.0626 C   0  0  0  0  0  0  0  0  0  0  0  0
   24.2037  -18.0395  -14.8748 C   0  0  2  0  0  0  0  0  0  0  0  0
   22.9359  -18.5695  -15.3812 N   0  0  0  0  0  0  0  0  0  0  0  0
   25.0074  -17.7235  -16.0942 C   0  0  0  0  0  0  0  0  0  0  0  0
   25.0292  -18.5412  -17.0773 O   0  0  0  0  0  0  0  0  0  0  0  0
   25.0297  -23.2933  -13.2195 N   0  0  0  0  0  0  0  0  0  0  0  0
   25.7628  -16.5276  -16.2135 C   0  0  0  0  0  0  0  0  0  0  0  0
   25.8258  -15.4948  -15.2035 C   0  0  0  0  0  0  0  0  0  0  0  0
   26.1897  -14.2369  -15.9968 C   0  0  0  0  0  0  0  0  0  0  0  0
   27.2234  -14.8508  -16.9318 C   0  0  2  0  0  0  0  0  0  0  0  0
   26.5659  -16.1308  -17.3406 C   0  0  0  0  0  0  0  0  0  0  0  0
   27.5609  -17.1812  -17.7034 O   0  0  0  0  0  0  0  0  0  0  0  0
   27.8402  -18.0238  -16.8321 O   0  0  0  0  0  0  0  0  0  0  0  0
  2  1  1  0
  3  2  1  0
  3  4  1  0
  4  5  1  0
  5  6  1  1
  7  8  2  0
  7  5  1  0
 10  9  1  0
 10 12  1  0
 11 10  2  0
 13 12  1  0
 13 14  1  0
 14 15  1  0
 16 15  1  1
 16 17  1  0
 17  7  1  0
 18 19  2  0
 18 16  1  0
 20 18  1  0
 21 20  1  0
 22 23  1  0
 22 21  1  0
 23 24  1  0
 24 20  1  0
 24 25  1  1
 25 27  1  0
 26 25  2  0
M  END
$$$$
