MRP.pdb
     RDKit          3D

 27 27  0  0  1  0  0  0  0  0999 V2000
   27.0752  -18.4057   -4.7501 C   0  0  0  0  0  0  0  0  0  0  0  0
   28.4978  -19.3715   -5.2482 S   0  0  0  0  0  0  0  0  0  0  0  0
   28.2111  -20.4448   -6.6503 C   0  0  0  0  0  0  0  0  0  0  0  0
   27.3246  -19.8986   -7.7092 C   0  0  0  0  0  0  0  0  0  0  0  0
   27.0307  -20.8148   -8.8562 C   0  0  2  0  0  0  0  0  0  0  0  0
   28.2443  -21.2872   -9.4736 N   0  0  0  0  0  0  0  0  0  0  0  0
   26.1695  -20.1041   -9.8700 C   0  0  0  0  0  0  0  0  0  0  0  0
   26.6005  -18.9828  -10.2375 O   0  0  0  0  0  0  0  0  0  0  0  0
   23.5386  -22.9107  -15.8677 N   0  0  0  0  0  0  0  0  0  0  0  0
   24.0679  -21.9207  -16.7414 C   0  0  0  0  0  0  0  0  0  0  0  0
   23.4820  -21.6237  -17.8709 N   0  0  0  0  0  0  0  0  0  0  0  0
   25.2609  -21.2491  -16.3620 N   0  0  0  0  0  0  0  0  0  0  0  0
   25.8005  -21.5459  -15.0245 C   0  0  0  0  0  0  0  0  0  0  0  0
   25.0345  -20.6666  -14.0691 C   0  0  0  0  0  0  0  0  0  0  0  0
   25.4915  -20.9063  -12.6670 C   0  0  0  0  0  0  0  0  0  0  0  0
   24.4833  -20.3773  -11.6842 C   0  0  2  0  0  0  0  0  0  0  0  0
   24.9777  -20.6928  -10.3424 N   0  0  0  0  0  0  0  0  0  0  0  0
   23.1819  -21.1024  -11.7993 C   0  0  0  0  0  0  0  0  0  0  0  0
   23.1448  -22.3753  -11.6816 O   0  0  0  0  0  0  0  0  0  0  0  0
   23.9137  -20.8842  -18.4620 N   0  0  0  0  0  0  0  0  0  0  0  0
   21.9570  -20.4254  -12.0363 C   0  0  0  0  0  0  0  0  0  0  0  0
   21.8316  -18.9950  -12.2058 C   0  0  0  0  0  0  0  0  0  0  0  0
   20.3815  -18.7105  -11.8051 C   0  0  0  0  0  0  0  0  0  0  0  0
   19.7222  -19.9061  -12.4799 C   0  0  2  0  0  0  0  0  0  0  0  0
   20.6513  -21.0248  -12.1293 C   0  0  0  0  0  0  0  0  0  0  0  0
   20.6196  -22.1184  -13.1433 O   0  0  0  0  0  0  0  0  0  0  0  0
   21.5973  -22.2135  -13.9065 O   0  0  0  0  0  0  0  0  0  0  0  0
  2  1  1  0
  3  2  1  0
  3  4  1  0
  4  5  1  0
  5  6  1  6
  7  8  2  0
  7  5  1  0
 10  9  1  0
 10 12  1  0
 11 10  2  0
 13 12  1  0
 13 14  1  0
 14 15  1  0
 16 15  1  6
 16 17  1  0
 17  7  1  0
 18 19  2  0
 18 16  1  0
 20 18  1  0
 21 20  1  0
 22 23  1  0
 22 21  1  0
 23 24  1  0
 24 20  1  0
 24 25  1  6
 25 27  1  0
 26 25  2  0
M  END
$$$$
