MRP.pdb
     RDKit          3D

 27 27  0  0  1  0  0  0  0  0999 V2000
   19.8680  -16.3891  -19.7654 C   0  0  0  0  0  0  0  0  0  0  0  0
   19.3594  -18.1053  -19.7364 S   0  0  0  0  0  0  0  0  0  0  0  0
   19.4652  -18.8827  -18.1287 C   0  0  0  0  0  0  0  0  0  0  0  0
   20.3328  -18.1971  -17.1373 C   0  0  0  0  0  0  0  0  0  0  0  0
   20.4307  -18.8456  -15.7915 C   0  0  2  0  0  0  0  0  0  0  0  0
   19.3504  -18.4332  -14.9314 N   0  0  0  0  0  0  0  0  0  0  0  0
   21.7593  -18.5131  -15.1597 C   0  0  0  0  0  0  0  0  0  0  0  0
   21.7782  -17.4456  -14.4976 O   0  0  0  0  0  0  0  0  0  0  0  0
   27.4046  -21.0730  -10.0595 N   0  0  0  0  0  0  0  0  0  0  0  0
   26.0041  -21.1895  -10.2798 C   0  0  0  0  0  0  0  0  0  0  0  0
   25.1473  -21.0748   -9.3001 N   0  0  0  0  0  0  0  0  0  0  0  0
   25.5436  -21.4357  -11.6010 N   0  0  0  0  0  0  0  0  0  0  0  0
   26.5013  -21.2122  -12.6970 C   0  0  0  0  0  0  0  0  0  0  0  0
   26.0128  -19.9854  -13.4243 C   0  0  0  0  0  0  0  0  0  0  0  0
   24.6345  -20.2134  -13.9541 C   0  0  0  0  0  0  0  0  0  0  0  0
   24.1620  -19.0162  -14.7322 C   0  0  2  0  0  0  0  0  0  0  0  0
   22.8701  -19.3665  -15.3262 N   0  0  0  0  0  0  0  0  0  0  0  0
   25.0600  -18.7353  -15.8930 C   0  0  0  0  0  0  0  0  0  0  0  0
   25.1059  -19.5480  -16.8793 O   0  0  0  0  0  0  0  0  0  0  0  0
   24.1354  -21.1573   -9.5279 N   0  0  0  0  0  0  0  0  0  0  0  0
   25.8809  -17.5787  -15.9518 C   0  0  0  0  0  0  0  0  0  0  0  0
   25.9385  -16.5624  -14.9250 C   0  0  0  0  0  0  0  0  0  0  0  0
   26.4110  -15.3159  -15.6780 C   0  0  0  0  0  0  0  0  0  0  0  0
   27.4640  -15.9716  -16.5617 C   0  0  2  0  0  0  0  0  0  0  0  0
   26.7666  -17.2110  -17.0257 C   0  0  0  0  0  0  0  0  0  0  0  0
   27.7260  -18.3072  -17.3466 O   0  0  0  0  0  0  0  0  0  0  0  0
   27.8178  -19.2391  -16.5278 O   0  0  0  0  0  0  0  0  0  0  0  0
  2  1  1  0
  3  2  1  0
  3  4  1  0
  4  5  1  0
  5  6  1  1
  7  8  2  0
  7  5  1  0
 10  9  1  0
 10 12  1  0
 11 10  2  0
 13 12  1  0
 13 14  1  0
 14 15  1  0
 16 15  1  6
 16 17  1  0
 17  7  1  0
 18 19  2  0
 18 16  1  0
 20 18  1  0
 21 20  1  0
 22 23  1  0
 22 21  1  0
 23 24  1  0
 24 20  1  0
 24 25  1  1
 25 27  1  0
 26 25  2  0
M  END
$$$$
