MRP.pdb
     RDKit          3D

 27 27  0  0  1  0  0  0  0  0999 V2000
   21.0614  -21.1242   -8.4425 C   0  0  0  0  0  0  0  0  0  0  0  0
   22.4390  -20.9714   -7.3095 S   0  0  0  0  0  0  0  0  0  0  0  0
   24.0491  -21.0956   -8.0791 C   0  0  0  0  0  0  0  0  0  0  0  0
   24.1186  -20.6696   -9.5002 C   0  0  0  0  0  0  0  0  0  0  0  0
   25.3879  -20.9988  -10.2226 C   0  0  2  0  0  0  0  0  0  0  0  0
   26.5143  -20.3126   -9.6418 N   0  0  0  0  0  0  0  0  0  0  0  0
   25.2525  -20.6416  -11.6817 C   0  0  0  0  0  0  0  0  0  0  0  0
   25.6357  -19.4832  -11.9808 O   0  0  0  0  0  0  0  0  0  0  0  0
   29.0812  -21.2763  -17.9389 N   0  0  0  0  0  0  0  0  0  0  0  0
   28.6226  -22.6151  -17.7943 C   0  0  0  0  0  0  0  0  0  0  0  0
   29.0093  -23.5605  -18.6091 N   0  0  0  0  0  0  0  0  0  0  0  0
   27.7247  -22.9137  -16.7347 N   0  0  0  0  0  0  0  0  0  0  0  0
   27.4213  -21.8281  -15.7874 C   0  0  0  0  0  0  0  0  0  0  0  0
   26.7437  -22.4866  -14.6127 C   0  0  0  0  0  0  0  0  0  0  0  0
   25.2594  -22.4279  -14.7730 C   0  0  0  0  0  0  0  0  0  0  0  0
   24.6936  -21.2470  -14.0333 C   0  0  2  0  0  0  0  0  0  0  0  0
   24.7298  -21.5707  -12.6055 N   0  0  0  0  0  0  0  0  0  0  0  0
   23.2467  -21.0510  -14.3506 C   0  0  0  0  0  0  0  0  0  0  0  0
   22.3739  -21.8656  -13.8922 O   0  0  0  0  0  0  0  0  0  0  0  0
   28.5782  -24.5013  -18.5006 N   0  0  0  0  0  0  0  0  0  0  0  0
   22.7874  -19.9750  -15.1546 C   0  0  0  0  0  0  0  0  0  0  0  0
   23.6203  -18.8906  -15.6247 C   0  0  0  0  0  0  0  0  0  0  0  0
   22.6269  -17.7499  -15.8612 C   0  0  0  0  0  0  0  0  0  0  0  0
   21.5029  -18.5575  -16.4968 C   0  0  2  0  0  0  0  0  0  0  0  0
   21.4404  -19.7666  -15.6182 C   0  0  0  0  0  0  0  0  0  0  0  0
   20.9182  -20.9605  -16.3441 O   0  0  0  0  0  0  0  0  0  0  0  0
   21.7541  -21.7818  -16.7614 O   0  0  0  0  0  0  0  0  0  0  0  0
  2  1  1  0
  3  2  1  0
  3  4  1  0
  4  5  1  0
  5  6  1  1
  7  8  2  0
  7  5  1  0
 10  9  1  0
 10 12  1  0
 11 10  2  0
 13 12  1  0
 13 14  1  0
 14 15  1  0
 16 15  1  6
 16 17  1  0
 17  7  1  0
 18 19  2  0
 18 16  1  0
 20 18  1  0
 21 20  1  0
 22 23  1  0
 22 21  1  0
 23 24  1  0
 24 20  1  0
 24 25  1  6
 25 27  1  0
 26 25  2  0
M  END
$$$$
