GNP.pdb
     RDKit          3D

 20 20  0  0  1  0  0  0  0  0999 V2000
   19.8329  -20.4854  -13.5797 N   0  0  0  0  0  0  0  0  0  0  0  0
   21.0453  -21.0190  -14.1733 C   0  0  0  0  0  0  0  0  0  0  0  0
   22.2489  -20.3805  -13.6060 C   0  0  0  0  0  0  0  0  0  0  0  0
   22.5615  -19.2313  -14.0000 O   0  0  0  0  0  0  0  0  0  0  0  0
   26.0073  -19.2006  -10.5073 N   0  0  0  0  0  0  0  0  0  0  0  0
   25.5996  -20.4890  -10.0788 C   0  0  0  0  0  0  0  0  0  0  0  0
   26.0660  -20.9451   -9.0202 O   0  0  0  0  0  0  0  0  0  0  0  0
   24.6482  -21.2530  -10.8783 C   0  0  0  0  0  0  0  0  0  0  0  0
   24.3578  -20.5268  -12.1961 C   0  0  2  0  0  0  0  0  0  0  0  0
   23.0340  -21.0298  -12.6492 N   0  0  0  0  0  0  0  0  0  0  0  0
   25.3993  -20.9513  -13.1321 C   0  0  0  0  0  0  0  0  0  0  0  0
   25.6286  -22.2568  -13.0491 O   0  0  0  0  0  0  0  0  0  0  0  0
   26.1310  -20.2096  -14.0350 N   0  0  0  0  0  0  0  0  0  0  0  0
   25.7291  -18.7747  -14.2869 C   0  0  0  0  0  0  0  0  0  0  0  0
   27.0579  -18.1072  -14.0437 C   0  0  0  0  0  0  0  0  0  0  0  0
   28.1082  -19.1625  -14.2650 C   0  0  0  0  0  0  0  0  0  0  0  0
   27.2204  -20.3128  -14.8805 C   0  0  1  0  0  0  0  0  0  0  0  0
   28.0470  -21.4688  -15.0615 C   0  0  0  0  0  0  0  0  0  0  0  0
   28.6236  -21.6817  -16.3412 O   0  0  0  0  0  0  0  0  0  0  0  0
   28.3211  -22.3105  -14.2310 O   0  0  0  0  0  0  0  0  0  0  0  0
  2  1  1  0
  3  2  1  0
  3  4  2  0
  6  8  1  0
  6  5  1  0
  7  6  2  0
  9 10  1  0
  9  8  1  1
 10  3  1  0
 11 12  2  0
 11  9  1  0
 13 11  1  0
 14 15  1  0
 14 13  1  0
 16 15  1  0
 16 17  1  0
 17 13  1  0
 17 18  1  1
 18 20  2  0
 18 19  1  0
M  END
$$$$
