GNP.pdb
     RDKit          3D

 20 20  0  0  1  0  0  0  0  0999 V2000
   16.5825  -15.8090  -15.8101 N   0  0  0  0  0  0  0  0  0  0  0  0
   17.5579  -15.4585  -16.8264 C   0  0  0  0  0  0  0  0  0  0  0  0
   18.8785  -15.1765  -16.2308 C   0  0  0  0  0  0  0  0  0  0  0  0
   18.9258  -14.5598  -15.1395 O   0  0  0  0  0  0  0  0  0  0  0  0
   21.6976  -17.4494  -14.6931 N   0  0  0  0  0  0  0  0  0  0  0  0
   22.3692  -17.5320  -15.9390 C   0  0  0  0  0  0  0  0  0  0  0  0
   22.9910  -18.5719  -16.2180 O   0  0  0  0  0  0  0  0  0  0  0  0
   22.3210  -16.4066  -16.8658 C   0  0  0  0  0  0  0  0  0  0  0  0
   21.4151  -15.3012  -16.3129 C   0  0  2  0  0  0  0  0  0  0  0  0
   20.0602  -15.5816  -16.8575 N   0  0  0  0  0  0  0  0  0  0  0  0
   21.9238  -14.0450  -16.8644 C   0  0  0  0  0  0  0  0  0  0  0  0
   21.7660  -13.9901  -18.1819 O   0  0  0  0  0  0  0  0  0  0  0  0
   22.5137  -12.9749  -16.2260 N   0  0  0  0  0  0  0  0  0  0  0  0
   22.5872  -12.9836  -14.7166 C   0  0  0  0  0  0  0  0  0  0  0  0
   24.0632  -12.7324  -14.5468 C   0  0  0  0  0  0  0  0  0  0  0  0
   24.5259  -12.0597  -15.8114 C   0  0  0  0  0  0  0  0  0  0  0  0
   23.1343  -11.7690  -16.4963 C   0  0  1  0  0  0  0  0  0  0  0  0
   23.3806  -11.2140  -17.7939 C   0  0  0  0  0  0  0  0  0  0  0  0
   24.0511  -12.0235  -18.7482 O   0  0  0  0  0  0  0  0  0  0  0  0
   23.0774  -10.1062  -18.1863 O   0  0  0  0  0  0  0  0  0  0  0  0
  2  1  1  0
  3  2  1  0
  3  4  2  0
  6  8  1  0
  6  5  1  0
  7  6  2  0
  9 10  1  0
  9  8  1  6
 10  3  1  0
 11 12  2  0
 11  9  1  0
 13 11  1  0
 14 15  1  0
 14 13  1  0
 16 15  1  0
 16 17  1  0
 17 13  1  0
 17 18  1  6
 18 20  2  0
 18 19  1  0
M  END
$$$$
