GNP.pdb
     RDKit          3D

 20 20  0  0  1  0  0  0  0  0999 V2000
   15.1039  -12.9245  -14.2354 N   0  0  0  0  0  0  0  0  0  0  0  0
   15.4514  -11.9960  -15.2956 C   0  0  0  0  0  0  0  0  0  0  0  0
   16.9124  -11.8104  -15.3914 C   0  0  0  0  0  0  0  0  0  0  0  0
   17.6546  -12.4909  -14.6433 O   0  0  0  0  0  0  0  0  0  0  0  0
   21.0782   -9.7264  -19.2922 N   0  0  0  0  0  0  0  0  0  0  0  0
   20.5172  -10.6656  -18.3904 C   0  0  0  0  0  0  0  0  0  0  0  0
   21.2451  -11.5597  -17.9249 O   0  0  0  0  0  0  0  0  0  0  0  0
   19.1080  -10.5699  -18.0258 C   0  0  0  0  0  0  0  0  0  0  0  0
   18.9358  -10.7616  -16.5153 C   0  0  2  0  0  0  0  0  0  0  0  0
   17.4723  -10.8996  -16.2916 N   0  0  0  0  0  0  0  0  0  0  0  0
   19.4214   -9.5304  -15.8912 C   0  0  0  0  0  0  0  0  0  0  0  0
   18.7019   -8.4776  -16.2623 O   0  0  0  0  0  0  0  0  0  0  0  0
   20.4716   -9.3368  -15.0194 N   0  0  0  0  0  0  0  0  0  0  0  0
   21.0572  -10.5382  -14.3138 C   0  0  0  0  0  0  0  0  0  0  0  0
   22.5077  -10.3439  -14.6730 C   0  0  0  0  0  0  0  0  0  0  0  0
   22.6737   -8.8807  -14.9851 C   0  0  0  0  0  0  0  0  0  0  0  0
   21.2733   -8.3340  -14.5056 C   0  0  1  0  0  0  0  0  0  0  0  0
   21.2011   -6.9405  -14.8303 C   0  0  0  0  0  0  0  0  0  0  0  0
   20.9371   -6.0243  -13.7785 O   0  0  0  0  0  0  0  0  0  0  0  0
   21.3419   -6.4353  -15.9249 O   0  0  0  0  0  0  0  0  0  0  0  0
  2  1  1  0
  3  2  1  0
  3  4  2  0
  6  8  1  0
  6  5  1  0
  7  6  2  0
  9 10  1  0
  9  8  1  6
 10  3  1  0
 11 12  2  0
 11  9  1  0
 13 11  1  0
 14 15  1  0
 14 13  1  0
 16 15  1  0
 16 17  1  0
 17 13  1  0
 17 18  1  6
 18 20  2  0
 18 19  1  0
M  END
$$$$
