GNP.pdb
     RDKit          3D

 20 20  0  0  1  0  0  0  0  0999 V2000
   20.7723  -16.4119  -16.3939 N   0  0  0  0  0  0  0  0  0  0  0  0
   19.8138  -15.3663  -16.0856 C   0  0  0  0  0  0  0  0  0  0  0  0
   20.2064  -14.0797  -16.6927 C   0  0  0  0  0  0  0  0  0  0  0  0
   21.2339  -14.0435  -17.4114 O   0  0  0  0  0  0  0  0  0  0  0  0
   19.3111   -9.8541  -19.7935 N   0  0  0  0  0  0  0  0  0  0  0  0
   18.8068   -9.8499  -18.4684 C   0  0  0  0  0  0  0  0  0  0  0  0
   18.5939   -8.7593  -17.9105 O   0  0  0  0  0  0  0  0  0  0  0  0
   18.5479  -11.1129  -17.7861 C   0  0  0  0  0  0  0  0  0  0  0  0
   19.8117  -11.5977  -17.0677 C   0  0  2  0  0  0  0  0  0  0  0  0
   19.4594  -12.9176  -16.4807 N   0  0  0  0  0  0  0  0  0  0  0  0
   20.0690  -10.6303  -16.0005 C   0  0  0  0  0  0  0  0  0  0  0  0
   19.0326  -10.5239  -15.1768 O   0  0  0  0  0  0  0  0  0  0  0  0
   21.1856   -9.8589  -15.7579 N   0  0  0  0  0  0  0  0  0  0  0  0
   22.4557  -10.1654  -16.5174 C   0  0  0  0  0  0  0  0  0  0  0  0
   22.7440   -8.7922  -17.0667 C   0  0  0  0  0  0  0  0  0  0  0  0
   22.0403   -7.8179  -16.1604 C   0  0  0  0  0  0  0  0  0  0  0  0
   21.6082   -8.7874  -14.9927 C   0  0  1  0  0  0  0  0  0  0  0  0
   20.8119   -8.0426  -14.0633 C   0  0  0  0  0  0  0  0  0  0  0  0
   19.7050   -7.3123  -14.5701 O   0  0  0  0  0  0  0  0  0  0  0  0
   20.9736   -7.9583  -12.8633 O   0  0  0  0  0  0  0  0  0  0  0  0
  2  1  1  0
  3  2  1  0
  3  4  2  0
  6  8  1  0
  6  5  1  0
  7  6  2  0
  9 10  1  0
  9  8  1  6
 10  3  1  0
 11 12  2  0
 11  9  1  0
 13 11  1  0
 14 15  1  0
 14 13  1  0
 16 15  1  0
 16 17  1  0
 17 13  1  0
 17 18  1  6
 18 20  2  0
 18 19  1  0
M  END
$$$$
