GNP.pdb
     RDKit          3D

 20 20  0  0  1  0  0  0  0  0999 V2000
   27.0500  -23.7717  -15.9717 N   0  0  0  0  0  0  0  0  0  0  0  0
   25.6145  -23.8596  -15.7750 C   0  0  0  0  0  0  0  0  0  0  0  0
   24.9366  -22.6172  -16.1934 C   0  0  0  0  0  0  0  0  0  0  0  0
   25.6386  -21.6225  -16.4958 O   0  0  0  0  0  0  0  0  0  0  0  0
   23.6575  -22.9305  -19.7657 N   0  0  0  0  0  0  0  0  0  0  0  0
   23.3237  -21.7212  -19.1053 C   0  0  0  0  0  0  0  0  0  0  0  0
   23.9552  -20.6883  -19.3887 O   0  0  0  0  0  0  0  0  0  0  0  0
   22.2547  -21.7069  -18.1129 C   0  0  0  0  0  0  0  0  0  0  0  0
   22.8128  -21.3318  -16.7360 C   0  0  2  0  0  0  0  0  0  0  0  0
   23.5428  -22.5352  -16.2565 N   0  0  0  0  0  0  0  0  0  0  0  0
   21.6519  -21.0797  -15.8817 C   0  0  0  0  0  0  0  0  0  0  0  0
   20.7680  -22.0683  -15.9539 O   0  0  0  0  0  0  0  0  0  0  0  0
   21.3755  -20.0070  -15.0610 N   0  0  0  0  0  0  0  0  0  0  0  0
   22.4797  -19.0183  -14.7659 C   0  0  0  0  0  0  0  0  0  0  0  0
   21.7703  -17.7451  -15.1486 C   0  0  0  0  0  0  0  0  0  0  0  0
   20.2967  -18.0336  -15.0417 C   0  0  0  0  0  0  0  0  0  0  0  0
   20.3406  -19.4446  -14.3365 C   0  0  1  0  0  0  0  0  0  0  0  0
   19.0002  -19.9423  -14.2460 C   0  0  0  0  0  0  0  0  0  0  0  0
   18.3956  -20.4460  -15.4276 O   0  0  0  0  0  0  0  0  0  0  0  0
   18.3006  -19.9864  -13.2552 O   0  0  0  0  0  0  0  0  0  0  0  0
  2  1  1  0
  3  2  1  0
  3  4  2  0
  6  8  1  0
  6  5  1  0
  7  6  2  0
  9 10  1  0
  9  8  1  6
 10  3  1  0
 11 12  2  0
 11  9  1  0
 13 11  1  0
 14 15  1  0
 14 13  1  0
 16 15  1  0
 16 17  1  0
 17 13  1  0
 17 18  1  6
 18 20  2  0
 18 19  1  0
M  END
$$$$
