GNP.pdb
     RDKit          3D

 20 20  0  0  1  0  0  0  0  0999 V2000
   12.9177  -10.6894  -14.3381 N   0  0  0  0  0  0  0  0  0  0  0  0
   13.4778   -9.3594  -14.4939 C   0  0  0  0  0  0  0  0  0  0  0  0
   14.3078   -8.9851  -13.3323 C   0  0  0  0  0  0  0  0  0  0  0  0
   14.1253   -9.5847  -12.2457 O   0  0  0  0  0  0  0  0  0  0  0  0
   17.8914   -9.3428  -13.3037 N   0  0  0  0  0  0  0  0  0  0  0  0
   18.2452   -7.9787  -13.4590 C   0  0  0  0  0  0  0  0  0  0  0  0
   19.2919   -7.6954  -14.0674 O   0  0  0  0  0  0  0  0  0  0  0  0
   17.3843   -6.9380  -12.9080 C   0  0  0  0  0  0  0  0  0  0  0  0
   16.1315   -7.5606  -12.2827 C   0  0  2  0  0  0  0  0  0  0  0  0
   15.2804   -7.9858  -13.4254 N   0  0  0  0  0  0  0  0  0  0  0  0
   15.4703   -6.4862  -11.5415 C   0  0  0  0  0  0  0  0  0  0  0  0
   15.3278   -5.3951  -12.2852 O   0  0  0  0  0  0  0  0  0  0  0  0
   15.0057   -6.4645  -10.2437 N   0  0  0  0  0  0  0  0  0  0  0  0
   14.8301   -7.7774   -9.5160 C   0  0  0  0  0  0  0  0  0  0  0  0
   15.6272   -7.4719   -8.2743 C   0  0  0  0  0  0  0  0  0  0  0  0
   15.6534   -5.9722   -8.1469 C   0  0  0  0  0  0  0  0  0  0  0  0
   14.6042   -5.5809   -9.2587 C   0  0  1  0  0  0  0  0  0  0  0  0
   14.5729   -4.1523   -9.3624 C   0  0  0  0  0  0  0  0  0  0  0  0
   13.8608   -3.4279   -8.3706 O   0  0  0  0  0  0  0  0  0  0  0  0
   15.0952   -3.4685  -10.2184 O   0  0  0  0  0  0  0  0  0  0  0  0
  2  1  1  0
  3  2  1  0
  3  4  2  0
  6  8  1  0
  6  5  1  0
  7  6  2  0
  9 10  1  0
  9  8  1  6
 10  3  1  0
 11 12  2  0
 11  9  1  0
 13 11  1  0
 14 15  1  0
 14 13  1  0
 16 15  1  0
 16 17  1  0
 17 13  1  0
 17 18  1  6
 18 20  2  0
 18 19  1  0
M  END
$$$$
