GNP.pdb
     RDKit          3D

 20 20  0  0  1  0  0  0  0  0999 V2000
   15.5136  -22.6162    1.9731 N   0  0  0  0  0  0  0  0  0  0  0  0
   15.0825  -21.6990    3.0122 C   0  0  0  0  0  0  0  0  0  0  0  0
   16.1444  -20.7318    3.3515 C   0  0  0  0  0  0  0  0  0  0  0  0
   17.2339  -20.7947    2.7329 O   0  0  0  0  0  0  0  0  0  0  0  0
   16.9976  -15.3618    6.0856 N   0  0  0  0  0  0  0  0  0  0  0  0
   17.2380  -16.3726    5.1209 C   0  0  0  0  0  0  0  0  0  0  0  0
   18.2746  -16.3151    4.4367 O   0  0  0  0  0  0  0  0  0  0  0  0
   16.2749  -17.4544    4.9473 C   0  0  0  0  0  0  0  0  0  0  0  0
   17.0037  -18.7868    4.7426 C   0  0  2  0  0  0  0  0  0  0  0  0
   15.9552  -19.7607    4.3386 N   0  0  0  0  0  0  0  0  0  0  0  0
   17.5501  -19.1561    6.0488 C   0  0  0  0  0  0  0  0  0  0  0  0
   16.6341  -19.0628    7.0060 O   0  0  0  0  0  0  0  0  0  0  0  0
   18.8221  -19.5627    6.3912 N   0  0  0  0  0  0  0  0  0  0  0  0
   19.7512  -20.0320    5.2955 C   0  0  0  0  0  0  0  0  0  0  0  0
   20.9354  -19.1481    5.5902 C   0  0  0  0  0  0  0  0  0  0  0  0
   20.8181  -18.7527    7.0379 C   0  0  0  0  0  0  0  0  0  0  0  0
   19.6463  -19.7070    7.4921 C   0  0  1  0  0  0  0  0  0  0  0  0
   19.3119  -19.3916    8.8490 C   0  0  0  0  0  0  0  0  0  0  0  0
   18.7841  -18.1024    9.1225 O   0  0  0  0  0  0  0  0  0  0  0  0
   19.4285  -20.1124    9.8186 O   0  0  0  0  0  0  0  0  0  0  0  0
  2  1  1  0
  3  2  1  0
  3  4  2  0
  6  8  1  0
  6  5  1  0
  7  6  2  0
  9 10  1  0
  9  8  1  1
 10  3  1  0
 11 12  2  0
 11  9  1  0
 13 11  1  0
 14 15  1  0
 14 13  1  0
 16 15  1  0
 16 17  1  0
 17 13  1  0
 17 18  1  1
 18 20  2  0
 18 19  1  0
M  END
$$$$
