GNP.pdb
     RDKit          3D

 20 20  0  0  1  0  0  0  0  0999 V2000
   18.9565  -24.9279   -6.9635 N   0  0  0  0  0  0  0  0  0  0  0  0
   17.5375  -25.0315   -6.6762 C   0  0  0  0  0  0  0  0  0  0  0  0
   17.2820  -25.0470   -5.2227 C   0  0  0  0  0  0  0  0  0  0  0  0
   18.2321  -24.7949   -4.4432 O   0  0  0  0  0  0  0  0  0  0  0  0
   14.0385  -22.4634   -4.0129 N   0  0  0  0  0  0  0  0  0  0  0  0
   14.5941  -23.2853   -3.0000 C   0  0  0  0  0  0  0  0  0  0  0  0
   15.2512  -22.7531   -2.0884 O   0  0  0  0  0  0  0  0  0  0  0  0
   14.3885  -24.7288   -3.0421 C   0  0  0  0  0  0  0  0  0  0  0  0
   15.7236  -25.4497   -3.2565 C   0  0  2  0  0  0  0  0  0  0  0  0
   16.0140  -25.3346   -4.7102 N   0  0  0  0  0  0  0  0  0  0  0  0
   15.4902  -26.8506   -2.9042 C   0  0  0  0  0  0  0  0  0  0  0  0
   14.3973  -27.3264   -3.4898 O   0  0  0  0  0  0  0  0  0  0  0  0
   16.2183  -27.6889   -2.0871 N   0  0  0  0  0  0  0  0  0  0  0  0
   17.6593  -27.3407   -1.7930 C   0  0  0  0  0  0  0  0  0  0  0  0
   17.6175  -27.3984   -0.2878 C   0  0  0  0  0  0  0  0  0  0  0  0
   16.4531  -28.2829    0.0694 C   0  0  0  0  0  0  0  0  0  0  0  0
   16.0923  -28.8559   -1.3559 C   0  0  1  0  0  0  0  0  0  0  0  0
   14.9099  -29.6552   -1.2315 C   0  0  0  0  0  0  0  0  0  0  0  0
   13.6523  -29.0043   -1.3319 O   0  0  0  0  0  0  0  0  0  0  0  0
   14.8519  -30.8533   -1.0456 O   0  0  0  0  0  0  0  0  0  0  0  0
  2  1  1  0
  3  2  1  0
  3  4  2  0
  6  8  1  0
  6  5  1  0
  7  6  2  0
  9 10  1  0
  9  8  1  6
 10  3  1  0
 11 12  2  0
 11  9  1  0
 13 11  1  0
 14 15  1  0
 14 13  1  0
 16 15  1  0
 16 17  1  0
 17 13  1  0
 17 18  1  1
 18 20  2  0
 18 19  1  0
M  END
$$$$
