GNP.pdb
     RDKit          3D

 20 20  0  0  1  0  0  0  0  0999 V2000
   16.6850  -16.8300  -15.3351 N   0  0  0  0  0  0  0  0  0  0  0  0
   16.3308  -18.2059  -15.0380 C   0  0  0  0  0  0  0  0  0  0  0  0
   15.1234  -18.2806  -14.1926 C   0  0  0  0  0  0  0  0  0  0  0  0
   14.6147  -17.2122  -13.7762 O   0  0  0  0  0  0  0  0  0  0  0  0
   10.8493  -22.1612  -12.1981 N   0  0  0  0  0  0  0  0  0  0  0  0
   11.3204  -20.9837  -12.8320 C   0  0  0  0  0  0  0  0  0  0  0  0
   10.5613  -20.0026  -12.9163 O   0  0  0  0  0  0  0  0  0  0  0  0
   12.6754  -20.9413  -13.3703 C   0  0  0  0  0  0  0  0  0  0  0  0
   13.3729  -19.6424  -12.9524 C   0  0  2  0  0  0  0  0  0  0  0  0
   14.5473  -19.5083  -13.8544 N   0  0  0  0  0  0  0  0  0  0  0  0
   13.8231  -19.8478  -11.5753 C   0  0  0  0  0  0  0  0  0  0  0  0
   14.6693  -20.8673  -11.4845 O   0  0  0  0  0  0  0  0  0  0  0  0
   13.4967  -19.1578  -10.4272 N   0  0  0  0  0  0  0  0  0  0  0  0
   12.9357  -17.7606  -10.5575 C   0  0  0  0  0  0  0  0  0  0  0  0
   11.6893  -17.9241   -9.7266 C   0  0  0  0  0  0  0  0  0  0  0  0
   11.9493  -19.0791   -8.7969 C   0  0  0  0  0  0  0  0  0  0  0  0
   13.4911  -19.2987   -9.0516 C   0  0  1  0  0  0  0  0  0  0  0  0
   13.9066  -20.4556   -8.3159 C   0  0  0  0  0  0  0  0  0  0  0  0
   14.3731  -20.2686   -6.9882 O   0  0  0  0  0  0  0  0  0  0  0  0
   13.9081  -21.6068   -8.7007 O   0  0  0  0  0  0  0  0  0  0  0  0
  2  1  1  0
  3  2  1  0
  3  4  2  0
  6  8  1  0
  6  5  1  0
  7  6  2  0
  9 10  1  0
  9  8  1  6
 10  3  1  0
 11 12  2  0
 11  9  1  0
 13 11  1  0
 14 15  1  0
 14 13  1  0
 16 15  1  0
 16 17  1  0
 17 13  1  0
 17 18  1  6
 18 20  2  0
 18 19  1  0
M  END
$$$$
