GNP.pdb
     RDKit          3D

 20 20  0  0  1  0  0  0  0  0999 V2000
   28.5330  -20.7063  -14.6671 N   0  0  0  0  0  0  0  0  0  0  0  0
   28.0253  -21.5243  -13.5808 C   0  0  0  0  0  0  0  0  0  0  0  0
   27.3532  -20.7019  -12.5561 C   0  0  0  0  0  0  0  0  0  0  0  0
   27.2520  -19.4665  -12.7489 O   0  0  0  0  0  0  0  0  0  0  0  0
   23.4665  -18.8120   -9.9946 N   0  0  0  0  0  0  0  0  0  0  0  0
   23.7369  -20.1660   -9.6729 C   0  0  0  0  0  0  0  0  0  0  0  0
   23.2208  -20.6554   -8.6530 O   0  0  0  0  0  0  0  0  0  0  0  0
   24.6081  -20.9571  -10.5349 C   0  0  0  0  0  0  0  0  0  0  0  0
   26.0643  -20.5077  -10.3748 C   0  0  2  0  0  0  0  0  0  0  0  0
   26.8353  -21.2728  -11.3902 N   0  0  0  0  0  0  0  0  0  0  0  0
   26.4701  -20.9158   -9.0295 C   0  0  0  0  0  0  0  0  0  0  0  0
   26.1013  -22.1639   -8.7651 O   0  0  0  0  0  0  0  0  0  0  0  0
   27.1456  -20.2083   -8.0580 N   0  0  0  0  0  0  0  0  0  0  0  0
   27.9866  -19.0249   -8.4778 C   0  0  0  0  0  0  0  0  0  0  0  0
   27.4126  -17.9827   -7.5531 C   0  0  0  0  0  0  0  0  0  0  0  0
   26.8072  -18.7313   -6.3960 C   0  0  0  0  0  0  0  0  0  0  0  0
   27.3499  -20.1835   -6.6905 C   0  0  1  0  0  0  0  0  0  0  0  0
   26.7763  -21.0794   -5.7310 C   0  0  0  0  0  0  0  0  0  0  0  0
   25.3850  -21.3480   -5.8189 O   0  0  0  0  0  0  0  0  0  0  0  0
   27.3512  -21.6517   -4.8281 O   0  0  0  0  0  0  0  0  0  0  0  0
  2  1  1  0
  3  2  1  0
  3  4  2  0
  6  8  1  0
  6  5  1  0
  7  6  2  0
  9 10  1  0
  9  8  1  6
 10  3  1  0
 11 12  2  0
 11  9  1  0
 13 11  1  0
 14 15  1  0
 14 13  1  0
 16 15  1  0
 16 17  1  0
 17 13  1  0
 17 18  1  1
 18 20  2  0
 18 19  1  0
M  END
$$$$
