GNP.pdb
     RDKit          3D

 20 20  0  0  1  0  0  0  0  0999 V2000
   19.3433  -20.6155  -13.4224 N   0  0  0  0  0  0  0  0  0  0  0  0
   20.3725  -20.5595  -14.4444 C   0  0  0  0  0  0  0  0  0  0  0  0
   21.5968  -19.9073  -13.9407 C   0  0  0  0  0  0  0  0  0  0  0  0
   21.4836  -18.9949  -13.0873 O   0  0  0  0  0  0  0  0  0  0  0  0
   25.9470  -21.8074  -11.2009 N   0  0  0  0  0  0  0  0  0  0  0  0
   24.9035  -20.8604  -11.3565 C   0  0  0  0  0  0  0  0  0  0  0  0
   24.8955  -19.8511  -10.6303 O   0  0  0  0  0  0  0  0  0  0  0  0
   23.8649  -21.0820  -12.3565 C   0  0  0  0  0  0  0  0  0  0  0  0
   24.0964  -20.1782  -13.5722 C   0  0  2  0  0  0  0  0  0  0  0  0
   22.8627  -20.2872  -14.3951 N   0  0  0  0  0  0  0  0  0  0  0  0
   25.2306  -20.7532  -14.2961 C   0  0  0  0  0  0  0  0  0  0  0  0
   25.1279  -22.0735  -14.3967 O   0  0  0  0  0  0  0  0  0  0  0  0
   26.3293  -20.1333  -14.8523 N   0  0  0  0  0  0  0  0  0  0  0  0
   26.3978  -18.6238  -14.8282 C   0  0  0  0  0  0  0  0  0  0  0  0
   27.7569  -18.4554  -14.1995 C   0  0  0  0  0  0  0  0  0  0  0  0
   28.5088  -19.7311  -14.4697 C   0  0  0  0  0  0  0  0  0  0  0  0
   27.5225  -20.4243  -15.4879 C   0  0  1  0  0  0  0  0  0  0  0  0
   28.0291  -21.7314  -15.7834 C   0  0  0  0  0  0  0  0  0  0  0  0
   27.2039  -22.6124  -16.5307 O   0  0  0  0  0  0  0  0  0  0  0  0
   29.1070  -22.1887  -15.4636 O   0  0  0  0  0  0  0  0  0  0  0  0
  2  1  1  0
  3  2  1  0
  3  4  2  0
  6  8  1  0
  6  5  1  0
  7  6  2  0
  9 10  1  0
  9  8  1  1
 10  3  1  0
 11 12  2  0
 11  9  1  0
 13 11  1  0
 14 15  1  0
 14 13  1  0
 16 15  1  0
 16 17  1  0
 17 13  1  0
 17 18  1  1
 18 20  2  0
 18 19  1  0
M  END
$$$$
