TSS.pdb
     RDKit          3D

 20 19  0  0  1  0  0  0  0  0999 V2000
   -5.3782  -27.8943   27.3568 C   0  0  0  0  0  0  0  0  0  0  0  0
   -3.9233  -27.6728   27.7387 C   0  0  1  0  0  0  0  0  0  0  0  0
   -3.2407  -28.8900   27.6331 O   0  0  0  0  0  0  0  0  0  0  0  0
   -3.3761  -26.6511   26.7528 C   0  0  2  0  0  0  0  0  0  0  0  0
   -1.9559  -26.5811   26.9387 N   0  0  0  0  0  0  0  0  0  0  0  0
   -4.0356  -25.3288   26.9729 C   0  0  0  0  0  0  0  0  0  0  0  0
   -3.8448  -24.6585   28.0090 O   0  0  0  0  0  0  0  0  0  0  0  0
   -6.8803  -24.0264   24.2749 O   0  0  0  0  0  0  0  0  0  0  0  0
   -6.1222  -23.0355   24.8416 C   0  0  0  0  0  0  0  0  0  0  0  0
   -5.5748  -23.5267   26.1623 C   0  0  2  0  0  0  0  0  0  0  0  0
   -4.8988  -24.8135   25.9910 N   0  0  0  0  0  0  0  0  0  0  0  0
   -6.6895  -23.7153   27.1153 C   0  0  0  0  0  0  0  0  0  0  0  0
   -7.3533  -24.7910   27.0814 O   0  0  0  0  0  0  0  0  0  0  0  0
   -7.3538  -21.3042   30.3637 O   0  0  0  0  0  0  0  0  0  0  0  0
   -7.7825  -22.6286   30.4204 C   0  0  0  0  0  0  0  0  0  0  0  0
   -8.1703  -23.0572   29.0401 C   0  0  2  0  0  0  0  0  0  0  0  0
   -7.0899  -22.7688   28.0922 N   0  0  0  0  0  0  0  0  0  0  0  0
   -9.3902  -22.3232   28.5943 C   0  0  0  0  0  0  0  0  0  0  0  0
   -9.3356  -21.5172   27.6248 O   0  0  0  0  0  0  0  0  0  0  0  0
  -10.6084  -22.5030   29.2257 O   0  0  0  0  0  0  0  0  0  0  0  0
  2  1  1  6
  3  2  1  0
  4  2  1  0
  4  6  1  0
  4  5  1  1
  6 11  1  0
  7  6  2  0
  9  8  1  0
 10  9  1  6
 11 10  1  0
 12 10  1  0
 12 17  1  0
 13 12  2  0
 15 14  1  0
 16 15  1  1
 16 17  1  0
 16 18  1  0
 18 19  2  0
 18 20  1  0
M  END
$$$$
