TSS.pdb
     RDKit          3D

 20 19  0  0  1  0  0  0  0  0999 V2000
    8.6254  -16.6030   18.1956 C   0  0  0  0  0  0  0  0  0  0  0  0
    8.6820  -15.2558   17.4932 C   0  0  1  0  0  0  0  0  0  0  0  0
    8.1560  -15.3986   16.2042 O   0  0  0  0  0  0  0  0  0  0  0  0
    7.8355  -14.3058   18.3275 C   0  0  2  0  0  0  0  0  0  0  0  0
    7.6463  -13.1053   17.5663 N   0  0  0  0  0  0  0  0  0  0  0  0
    8.5088  -14.0398   19.6344 C   0  0  0  0  0  0  0  0  0  0  0  0
    9.5723  -13.3899   19.7107 O   0  0  0  0  0  0  0  0  0  0  0  0
    6.8723  -15.6995   23.0209 O   0  0  0  0  0  0  0  0  0  0  0  0
    7.6868  -14.6220   23.2512 C   0  0  0  0  0  0  0  0  0  0  0  0
    8.6518  -14.4767   22.0967 C   0  0  2  0  0  0  0  0  0  0  0  0
    7.9371  -14.5309   20.8205 N   0  0  0  0  0  0  0  0  0  0  0  0
    9.6243  -15.5901   22.1275 C   0  0  0  0  0  0  0  0  0  0  0  0
    9.4017  -16.6216   21.4307 O   0  0  0  0  0  0  0  0  0  0  0  0
   13.3625  -15.8712   21.6540 O   0  0  0  0  0  0  0  0  0  0  0  0
   13.1096  -16.4225   22.9083 C   0  0  0  0  0  0  0  0  0  0  0  0
   11.6626  -16.7982   22.9740 C   0  0  2  0  0  0  0  0  0  0  0  0
   10.8190  -15.6022   22.8909 N   0  0  0  0  0  0  0  0  0  0  0  0
   11.3659  -17.4897   24.2621 C   0  0  0  0  0  0  0  0  0  0  0  0
   10.5567  -16.9859   25.0892 O   0  0  0  0  0  0  0  0  0  0  0  0
   11.9643  -18.6948   24.5858 O   0  0  0  0  0  0  0  0  0  0  0  0
  2  1  1  1
  3  2  1  0
  4  2  1  0
  4  6  1  0
  4  5  1  6
  6 11  1  0
  7  6  2  0
  9  8  1  0
 10  9  1  1
 11 10  1  0
 12 10  1  0
 12 17  1  0
 13 12  2  0
 15 14  1  0
 16 15  1  1
 16 17  1  0
 16 18  1  0
 18 19  2  0
 18 20  1  0
M  END
$$$$
