TSS.pdb
     RDKit          3D

 20 19  0  0  1  0  0  0  0  0999 V2000
    8.1882  -18.7492   20.0904 C   0  0  0  0  0  0  0  0  0  0  0  0
    9.2520  -18.3131   19.0955 C   0  0  1  0  0  0  0  0  0  0  0  0
    8.9845  -18.9131   17.8598 O   0  0  0  0  0  0  0  0  0  0  0  0
    9.1502  -16.7978   19.0016 C   0  0  2  0  0  0  0  0  0  0  0  0
    9.9066  -16.3787   17.8577 N   0  0  0  0  0  0  0  0  0  0  0  0
    9.6525  -16.1757   20.2636 C   0  0  0  0  0  0  0  0  0  0  0  0
   10.8693  -16.1302   20.5402 O   0  0  0  0  0  0  0  0  0  0  0  0
    6.9421  -15.1864   23.2233 O   0  0  0  0  0  0  0  0  0  0  0  0
    8.0344  -14.3623   23.1493 C   0  0  0  0  0  0  0  0  0  0  0  0
    9.1664  -15.1022   22.4739 C   0  0  2  0  0  0  0  0  0  0  0  0
    8.7371  -15.6216   21.1746 N   0  0  0  0  0  0  0  0  0  0  0  0
    9.5747  -16.2474   23.3155 C   0  0  0  0  0  0  0  0  0  0  0  0
    9.2454  -17.4171   22.9655 O   0  0  0  0  0  0  0  0  0  0  0  0
   12.3867  -19.0729   25.1749 O   0  0  0  0  0  0  0  0  0  0  0  0
   11.9606  -17.9468   24.4737 C   0  0  0  0  0  0  0  0  0  0  0  0
   10.8130  -17.3370   25.2156 C   0  0  2  0  0  0  0  0  0  0  0  0
   10.3252  -16.1458   24.5141 N   0  0  0  0  0  0  0  0  0  0  0  0
   11.2407  -16.9293   26.5853 C   0  0  0  0  0  0  0  0  0  0  0  0
   11.2103  -15.7165   26.9326 O   0  0  0  0  0  0  0  0  0  0  0  0
   11.6802  -17.8618   27.5087 O   0  0  0  0  0  0  0  0  0  0  0  0
  2  1  1  1
  3  2  1  0
  4  2  1  0
  4  6  1  0
  4  5  1  6
  6 11  1  0
  7  6  2  0
  9  8  1  0
 10  9  1  1
 11 10  1  0
 12 10  1  0
 12 17  1  0
 13 12  2  0
 15 14  1  0
 16 15  1  6
 16 17  1  0
 16 18  1  0
 18 19  2  0
 18 20  1  0
M  END
$$$$
