TSS.pdb
     RDKit          3D

 20 19  0  0  1  0  0  0  0  0999 V2000
    6.8339  -17.4223   20.9257 C   0  0  0  0  0  0  0  0  0  0  0  0
    8.0662  -17.4270   20.0352 C   0  0  1  0  0  0  0  0  0  0  0  0
    7.6834  -17.7948   18.7403 O   0  0  0  0  0  0  0  0  0  0  0  0
    8.6147  -16.0080   20.0614 C   0  0  2  0  0  0  0  0  0  0  0  0
    9.5541  -15.8822   18.9853 N   0  0  0  0  0  0  0  0  0  0  0  0
    9.2428  -15.7304   21.3883 C   0  0  0  0  0  0  0  0  0  0  0  0
   10.4224  -16.0518   21.6422 O   0  0  0  0  0  0  0  0  0  0  0  0
    6.8580  -14.3788   24.4555 O   0  0  0  0  0  0  0  0  0  0  0  0
    8.1473  -13.9175   24.5072 C   0  0  0  0  0  0  0  0  0  0  0  0
    9.0390  -14.8559   23.7266 C   0  0  2  0  0  0  0  0  0  0  0  0
    8.4930  -15.0887   22.3887 N   0  0  0  0  0  0  0  0  0  0  0  0
    9.1140  -16.1564   24.4261 C   0  0  0  0  0  0  0  0  0  0  0  0
    8.1654  -16.9821   24.2944 O   0  0  0  0  0  0  0  0  0  0  0  0
   12.3400  -18.2368   25.1213 O   0  0  0  0  0  0  0  0  0  0  0  0
   11.0860  -18.8319   25.2420 C   0  0  0  0  0  0  0  0  0  0  0  0
   10.1731  -17.8694   25.9345 C   0  0  2  0  0  0  0  0  0  0  0  0
   10.1876  -16.5707   25.2545 N   0  0  0  0  0  0  0  0  0  0  0  0
   10.6134  -17.6623   27.3447 C   0  0  0  0  0  0  0  0  0  0  0  0
   10.9068  -16.5082   27.7624 O   0  0  0  0  0  0  0  0  0  0  0  0
   10.7124  -18.7215   28.2299 O   0  0  0  0  0  0  0  0  0  0  0  0
  2  1  1  1
  3  2  1  0
  4  2  1  0
  4  6  1  0
  4  5  1  6
  6 11  1  0
  7  6  2  0
  9  8  1  0
 10  9  1  1
 11 10  1  0
 12 10  1  0
 12 17  1  0
 13 12  2  0
 15 14  1  0
 16 15  1  6
 16 17  1  0
 16 18  1  0
 18 19  2  0
 18 20  1  0
M  END
$$$$
