TSS.pdb
     RDKit          3D

 20 19  0  0  1  0  0  0  0  0999 V2000
   -5.1760  -24.7219   26.1386 C   0  0  0  0  0  0  0  0  0  0  0  0
   -4.0305  -23.7285   26.2506 C   0  0  1  0  0  0  0  0  0  0  0  0
   -3.4574  -23.5590   24.9852 O   0  0  0  0  0  0  0  0  0  0  0  0
   -4.6427  -22.4291   26.7527 C   0  0  2  0  0  0  0  0  0  0  0  0
   -3.6407  -21.4077   26.6565 N   0  0  0  0  0  0  0  0  0  0  0  0
   -5.1302  -22.6051   28.1539 C   0  0  0  0  0  0  0  0  0  0  0  0
   -4.3488  -22.8151   29.1049 O   0  0  0  0  0  0  0  0  0  0  0  0
   -9.1525  -22.0860   28.9351 O   0  0  0  0  0  0  0  0  0  0  0  0
   -8.2700  -21.7679   29.9340 C   0  0  0  0  0  0  0  0  0  0  0  0
   -7.0296  -22.6193   29.7866 C   0  0  2  0  0  0  0  0  0  0  0  0
   -6.5079  -22.5341   28.4218 N   0  0  0  0  0  0  0  0  0  0  0  0
   -7.3687  -24.0317   30.0628 C   0  0  0  0  0  0  0  0  0  0  0  0
   -8.0401  -24.6817   29.2109 O   0  0  0  0  0  0  0  0  0  0  0  0
   -5.1376  -26.4986   32.0396 O   0  0  0  0  0  0  0  0  0  0  0  0
   -6.1770  -27.0324   31.2806 C   0  0  0  0  0  0  0  0  0  0  0  0
   -7.3722  -26.1444   31.4294 C   0  0  2  0  0  0  0  0  0  0  0  0
   -6.9954  -24.7415   31.2321 N   0  0  0  0  0  0  0  0  0  0  0  0
   -7.9528  -26.2834   32.7966 C   0  0  0  0  0  0  0  0  0  0  0  0
   -7.9921  -25.2953   33.5805 O   0  0  0  0  0  0  0  0  0  0  0  0
   -8.4617  -27.4907   33.2422 O   0  0  0  0  0  0  0  0  0  0  0  0
  2  1  1  6
  3  2  1  0
  4  2  1  0
  4  6  1  0
  4  5  1  1
  6 11  1  0
  7  6  2  0
  9  8  1  0
 10  9  1  6
 11 10  1  0
 12 10  1  0
 12 17  1  0
 13 12  2  0
 15 14  1  0
 16 15  1  1
 16 17  1  0
 16 18  1  0
 18 19  2  0
 18 20  1  0
M  END
$$$$
