TSS.pdb
     RDKit          3D

 20 19  0  0  1  0  0  0  0  0999 V2000
    9.9760  -21.6436   15.3642 C   0  0  0  0  0  0  0  0  0  0  0  0
    8.9793  -20.5559   14.9968 C   0  0  1  0  0  0  0  0  0  0  0  0
    8.8684  -20.5003   13.6028 O   0  0  0  0  0  0  0  0  0  0  0  0
    7.6578  -20.9572   15.6353 C   0  0  2  0  0  0  0  0  0  0  0  0
    6.6230  -20.1694   15.0312 N   0  0  0  0  0  0  0  0  0  0  0  0
    7.7254  -20.7539   17.1139 C   0  0  0  0  0  0  0  0  0  0  0  0
    7.8709  -19.6217   17.6201 O   0  0  0  0  0  0  0  0  0  0  0  0
    6.6659  -23.8203   19.5771 O   0  0  0  0  0  0  0  0  0  0  0  0
    6.6400  -22.5541   20.1002 C   0  0  0  0  0  0  0  0  0  0  0  0
    7.7040  -21.7191   19.4251 C   0  0  2  0  0  0  0  0  0  0  0  0
    7.6234  -21.8630   17.9708 N   0  0  0  0  0  0  0  0  0  0  0  0
    9.0394  -22.1812   19.8603 C   0  0  0  0  0  0  0  0  0  0  0  0
    9.6744  -22.9995   19.1349 O   0  0  0  0  0  0  0  0  0  0  0  0
   11.9437  -20.1369   21.1540 O   0  0  0  0  0  0  0  0  0  0  0  0
   11.8297  -21.1946   22.0538 C   0  0  0  0  0  0  0  0  0  0  0  0
   11.0201  -22.2755   21.4091 C   0  0  2  0  0  0  0  0  0  0  0  0
    9.6890  -21.7748   21.0533 N   0  0  0  0  0  0  0  0  0  0  0  0
   10.8513  -23.4239   22.3462 C   0  0  0  0  0  0  0  0  0  0  0  0
    9.7189  -23.6931   22.8337 O   0  0  0  0  0  0  0  0  0  0  0  0
   11.9232  -24.2219   22.7059 O   0  0  0  0  0  0  0  0  0  0  0  0
  2  1  1  6
  3  2  1  0
  4  2  1  0
  4  6  1  0
  4  5  1  6
  6 11  1  0
  7  6  2  0
  9  8  1  0
 10  9  1  1
 11 10  1  0
 12 10  1  0
 12 17  1  0
 13 12  2  0
 15 14  1  0
 16 15  1  1
 16 17  1  0
 16 18  1  0
 18 19  2  0
 18 20  1  0
M  END
$$$$
