TSS.pdb
     RDKit          3D

 20 19  0  0  1  0  0  0  0  0999 V2000
    7.8639  -16.3346   18.8269 C   0  0  0  0  0  0  0  0  0  0  0  0
    8.3873  -15.0580   18.1884 C   0  0  1  0  0  0  0  0  0  0  0  0
    7.9103  -14.9843   16.8747 O   0  0  0  0  0  0  0  0  0  0  0  0
    7.8502  -13.9104   19.0308 C   0  0  2  0  0  0  0  0  0  0  0  0
    8.0202  -12.7002   18.2806 N   0  0  0  0  0  0  0  0  0  0  0  0
    8.5672  -13.8627   20.3406 C   0  0  0  0  0  0  0  0  0  0  0  0
    9.7442  -13.4569   20.4363 O   0  0  0  0  0  0  0  0  0  0  0  0
    6.6861  -15.3886   23.7055 O   0  0  0  0  0  0  0  0  0  0  0  0
    7.6219  -14.4136   23.9324 C   0  0  0  0  0  0  0  0  0  0  0  0
    8.6082  -14.3997   22.7869 C   0  0  2  0  0  0  0  0  0  0  0  0
    7.9070  -14.2847   21.5072 N   0  0  0  0  0  0  0  0  0  0  0  0
    9.3714  -15.6661   22.7816 C   0  0  0  0  0  0  0  0  0  0  0  0
    9.0457  -16.5779   21.9682 O   0  0  0  0  0  0  0  0  0  0  0  0
   13.0887  -16.1763   22.8653 O   0  0  0  0  0  0  0  0  0  0  0  0
   12.2434  -17.2476   22.5841 C   0  0  0  0  0  0  0  0  0  0  0  0
   11.1422  -17.2566   23.5973 C   0  0  2  0  0  0  0  0  0  0  0  0
   10.4682  -15.9552   23.6322 N   0  0  0  0  0  0  0  0  0  0  0  0
   11.6919  -17.5338   24.9561 C   0  0  0  0  0  0  0  0  0  0  0  0
   11.5090  -16.7176   25.9010 O   0  0  0  0  0  0  0  0  0  0  0  0
   12.4132  -18.6853   25.2188 O   0  0  0  0  0  0  0  0  0  0  0  0
  2  1  1  1
  3  2  1  0
  4  2  1  0
  4  6  1  0
  4  5  1  6
  6 11  1  0
  7  6  2  0
  9  8  1  0
 10  9  1  1
 11 10  1  0
 12 10  1  0
 12 17  1  0
 13 12  2  0
 15 14  1  0
 16 15  1  6
 16 17  1  0
 16 18  1  0
 18 19  2  0
 18 20  1  0
M  END
$$$$
