TSS.pdb
     RDKit          3D

 20 19  0  0  1  0  0  0  0  0999 V2000
   11.1045  -13.1640   19.8524 C   0  0  0  0  0  0  0  0  0  0  0  0
    9.8922  -12.7354   19.0412 C   0  0  1  0  0  0  0  0  0  0  0  0
   10.3292  -12.2403   17.8074 O   0  0  0  0  0  0  0  0  0  0  0  0
    9.0399  -13.9827   18.8596 C   0  0  2  0  0  0  0  0  0  0  0  0
    7.9678  -13.6536   17.9660 N   0  0  0  0  0  0  0  0  0  0  0  0
    8.5387  -14.4532   20.1861 C   0  0  0  0  0  0  0  0  0  0  0  0
    7.4676  -14.0368   20.6744 O   0  0  0  0  0  0  0  0  0  0  0  0
    8.0899  -17.8885   21.2176 O   0  0  0  0  0  0  0  0  0  0  0  0
    7.6869  -16.8647   22.0345 C   0  0  0  0  0  0  0  0  0  0  0  0
    8.8328  -15.8952   22.2130 C   0  0  2  0  0  0  0  0  0  0  0  0
    9.2870  -15.3929   20.9154 N   0  0  0  0  0  0  0  0  0  0  0  0
    9.9663  -16.5896   22.8605 C   0  0  0  0  0  0  0  0  0  0  0  0
   10.9076  -17.0338   22.1424 O   0  0  0  0  0  0  0  0  0  0  0  0
    9.9678  -17.5032   26.7924 O   0  0  0  0  0  0  0  0  0  0  0  0
   11.2680  -17.4036   26.3016 C   0  0  0  0  0  0  0  0  0  0  0  0
   11.2224  -17.5577   24.8139 C   0  0  2  0  0  0  0  0  0  0  0  0
   10.0941  -16.8062   24.2558 N   0  0  0  0  0  0  0  0  0  0  0  0
   11.0529  -18.9939   24.4477 C   0  0  0  0  0  0  0  0  0  0  0  0
    9.9932  -19.3934   23.8910 O   0  0  0  0  0  0  0  0  0  0  0  0
   12.0450  -19.9236   24.7056 O   0  0  0  0  0  0  0  0  0  0  0  0
  2  1  1  1
  3  2  1  0
  4  2  1  0
  4  6  1  0
  4  5  1  6
  6 11  1  0
  7  6  2  0
  9  8  1  0
 10  9  1  6
 11 10  1  0
 12 10  1  0
 12 17  1  0
 13 12  2  0
 15 14  1  0
 16 15  1  1
 16 17  1  0
 16 18  1  0
 18 19  2  0
 18 20  1  0
M  END
$$$$
