TSS.pdb
     RDKit          3D

 20 19  0  0  1  0  0  0  0  0999 V2000
   10.1729  -17.4627   17.7132 C   0  0  0  0  0  0  0  0  0  0  0  0
   11.5363  -16.8617   17.4107 C   0  0  1  0  0  0  0  0  0  0  0  0
   12.0708  -17.5028   16.2874 O   0  0  0  0  0  0  0  0  0  0  0  0
   11.2978  -15.3842   17.1358 C   0  0  2  0  0  0  0  0  0  0  0  0
   12.5375  -14.8162   16.6922 N   0  0  0  0  0  0  0  0  0  0  0  0
   10.7842  -14.7144   18.3685 C   0  0  0  0  0  0  0  0  0  0  0  0
   11.4660  -14.6356   19.4116 O   0  0  0  0  0  0  0  0  0  0  0  0
    6.8280  -13.5370   18.5225 O   0  0  0  0  0  0  0  0  0  0  0  0
    7.6969  -12.7220   19.1997 C   0  0  0  0  0  0  0  0  0  0  0  0
    8.9369  -13.5098   19.5560 C   0  0  2  0  0  0  0  0  0  0  0  0
    9.4962  -14.1525   18.3658 N   0  0  0  0  0  0  0  0  0  0  0  0
    8.5837  -14.5672   20.5273 C   0  0  0  0  0  0  0  0  0  0  0  0
    8.0833  -14.2381   21.6410 O   0  0  0  0  0  0  0  0  0  0  0  0
    8.3211  -18.5684   19.6467 O   0  0  0  0  0  0  0  0  0  0  0  0
    7.6000  -18.0557   20.7230 C   0  0  0  0  0  0  0  0  0  0  0  0
    8.3929  -16.9431   21.3334 C   0  0  2  0  0  0  0  0  0  0  0  0
    8.7614  -15.9574   20.3127 N   0  0  0  0  0  0  0  0  0  0  0  0
    9.6466  -17.4750   21.9422 C   0  0  0  0  0  0  0  0  0  0  0  0
    9.5978  -18.3481   22.8521 O   0  0  0  0  0  0  0  0  0  0  0  0
   10.8908  -17.0303   21.5306 O   0  0  0  0  0  0  0  0  0  0  0  0
  2  1  1  6
  3  2  1  0
  4  2  1  0
  4  6  1  0
  4  5  1  1
  6 11  1  0
  7  6  2  0
  9  8  1  0
 10  9  1  6
 11 10  1  0
 12 10  1  0
 12 17  1  0
 13 12  2  0
 15 14  1  0
 16 15  1  6
 16 17  1  0
 16 18  1  0
 18 19  2  0
 18 20  1  0
M  END
$$$$
