RVH.pdb
     RDKit          3D

 29 29  0  0  1  0  0  0  0  0999 V2000
   22.2791  -34.2076  -16.4462 N   0  0  0  0  0  0  0  0  0  0  0  0
   23.2379  -34.6291  -15.4852 C   0  0  0  0  0  0  0  0  0  0  0  0
   23.5294  -35.8746  -15.3453 N   0  0  0  0  0  0  0  0  0  0  0  0
   23.8833  -33.6573  -14.6657 N   0  0  0  0  0  0  0  0  0  0  0  0
   23.5533  -32.2257  -14.7650 C   0  0  0  0  0  0  0  0  0  0  0  0
   24.2828  -31.7118  -15.9565 C   0  0  0  0  0  0  0  0  0  0  0  0
   24.8902  -30.3555  -15.8452 C   0  0  0  0  0  0  0  0  0  0  0  0
   26.2996  -30.3119  -16.3177 C   0  0  2  0  0  0  0  0  0  0  0  0
   27.1242  -31.2036  -15.5037 N   0  0  0  0  0  0  0  0  0  0  0  0
   26.9082  -28.9516  -16.1383 C   0  0  0  0  0  0  0  0  0  0  0  0
   27.9155  -28.7599  -15.4143 O   0  0  0  0  0  0  0  0  0  0  0  0
   24.2462  -36.1988  -14.6613 C   0  0  0  0  0  0  0  0  0  0  0  0
   29.2361  -27.6897  -16.7561 C   0  0  1  0  0  0  0  0  0  0  0  0
   28.3505  -26.6767  -17.3838 C   0  0  0  0  0  0  0  0  0  0  0  0
   29.1201  -25.3780  -17.4999 C   0  0  2  0  0  0  0  0  0  0  0  0
   27.0041  -26.4877  -16.7535 N   0  0  0  0  0  0  0  0  0  0  0  0
   26.3678  -27.8077  -16.7860 C   0  0  0  0  0  0  0  0  0  0  0  0
   26.1455  -25.4935  -17.4408 O   0  0  0  0  0  0  0  0  0  0  0  0
   25.3173  -25.8650  -18.3443 N   0  0  0  0  0  0  0  0  0  0  0  0
   26.1821  -24.1076  -17.1507 C   0  0  1  0  0  0  0  0  0  0  0  0
   24.9805  -23.2982  -17.0741 C   0  0  0  0  0  0  0  0  0  0  0  0
   24.0590  -23.8056  -16.0048 C   0  0  0  0  0  0  0  0  0  0  0  0
   22.7563  -23.0911  -15.9451 C   0  0  0  0  0  0  0  0  0  0  0  0
   21.9321  -22.7607  -16.9992 N   0  0  0  0  0  0  0  0  0  0  0  0
   20.8600  -22.1232  -16.5101 C   0  0  0  0  0  0  0  0  0  0  0  0
   21.0003  -22.0514  -15.1852 N   0  0  0  0  0  0  0  0  0  0  0  0
   22.1535  -22.6398  -14.8408 C   0  0  0  0  0  0  0  0  0  0  0  0
   25.3019  -21.8721  -16.8081 O   0  0  0  0  0  0  0  0  0  0  0  0
   26.5932  -21.4741  -16.6047 O   0  0  0  0  0  0  0  0  0  0  0  0
  1  2  1  0
  2  3  2  0
  4  5  1  0
  4  2  1  0
  6  5  1  0
  7  6  1  0
  8 10  1  0
  8  7  1  0
  8  9  1  1
 10 11  2  0
 13 12  1  6
 13 15  1  0
 14 13  1  0
 15 16  1  1
 16 10  1  0
 17 15  1  0
 17 18  2  0
 19 17  1  0
 20 19  1  0
 20 27  1  0
 20 21  1  6
 22 26  1  0
 22 21  1  0
 23 22  2  0
 24 23  1  0
 24 25  1  0
 25 26  2  0
 27 29  2  0
 27 28  1  0
M  END
$$$$
