RVH.pdb
     RDKit          3D

 29 29  0  0  1  0  0  0  0  0999 V2000
   31.8896  -31.0167  -18.7363 N   0  0  0  0  0  0  0  0  0  0  0  0
   31.6253  -31.0692  -20.1320 C   0  0  0  0  0  0  0  0  0  0  0  0
   31.8381  -32.1454  -20.8046 N   0  0  0  0  0  0  0  0  0  0  0  0
   31.1186  -29.9124  -20.7936 N   0  0  0  0  0  0  0  0  0  0  0  0
   30.7851  -28.6854  -20.0509 C   0  0  0  0  0  0  0  0  0  0  0  0
   29.4158  -28.8889  -19.5039 C   0  0  0  0  0  0  0  0  0  0  0  0
   28.6934  -27.6784  -19.0203 C   0  0  0  0  0  0  0  0  0  0  0  0
   29.3451  -27.0478  -17.8417 C   0  0  2  0  0  0  0  0  0  0  0  0
   29.3636  -27.9879  -16.7221 N   0  0  0  0  0  0  0  0  0  0  0  0
   28.5699  -25.8645  -17.3399 C   0  0  0  0  0  0  0  0  0  0  0  0
   27.7757  -25.9471  -16.3715 O   0  0  0  0  0  0  0  0  0  0  0  0
   31.5927  -32.2206  -21.8150 C   0  0  0  0  0  0  0  0  0  0  0  0
   30.1904  -22.2386  -17.0237 C   0  0  2  0  0  0  0  0  0  0  0  0
   28.8951  -22.2406  -17.7492 C   0  0  0  0  0  0  0  0  0  0  0  0
   28.2198  -20.9047  -17.5216 C   0  0  2  0  0  0  0  0  0  0  0  0
   27.9808  -23.3960  -17.4758 N   0  0  0  0  0  0  0  0  0  0  0  0
   28.7007  -24.5841  -17.9431 C   0  0  0  0  0  0  0  0  0  0  0  0
   26.6642  -23.3023  -18.1510 O   0  0  0  0  0  0  0  0  0  0  0  0
   26.5871  -23.3222  -19.4292 N   0  0  0  0  0  0  0  0  0  0  0  0
   25.4401  -23.1896  -17.4473 C   0  0  1  0  0  0  0  0  0  0  0  0
   24.1643  -23.0551  -18.1250 C   0  0  0  0  0  0  0  0  0  0  0  0
   23.2631  -24.2111  -17.8065 C   0  0  0  0  0  0  0  0  0  0  0  0
   23.5823  -25.4491  -18.5659 C   0  0  0  0  0  0  0  0  0  0  0  0
   24.5836  -25.6276  -19.4960 N   0  0  0  0  0  0  0  0  0  0  0  0
   24.5238  -26.8902  -19.9402 C   0  0  0  0  0  0  0  0  0  0  0  0
   23.5145  -27.4944  -19.3105 N   0  0  0  0  0  0  0  0  0  0  0  0
   22.9413  -26.6184  -18.4745 C   0  0  0  0  0  0  0  0  0  0  0  0
   23.4839  -21.7869  -17.7557 O   0  0  0  0  0  0  0  0  0  0  0  0
   22.3660  -21.3744  -18.4248 O   0  0  0  0  0  0  0  0  0  0  0  0
  1  2  1  0
  2  3  2  0
  4  5  1  0
  4  2  1  0
  6  5  1  0
  7  6  1  0
  8 10  1  0
  8  7  1  0
  8  9  1  1
 10 11  2  0
 13 12  1  6
 13 15  1  0
 14 13  1  0
 15 16  1  1
 16 10  1  0
 17 15  1  0
 17 18  2  0
 19 17  1  0
 20 19  1  0
 20 27  1  0
 20 21  1  6
 22 26  1  0
 22 21  1  0
 23 22  2  0
 24 23  1  0
 24 25  1  0
 25 26  2  0
 27 29  2  0
 27 28  1  0
M  END
$$$$
