RVH.pdb
     RDKit          3D

 29 29  0  0  1  0  0  0  0  0999 V2000
   28.9604  -26.4740  -15.9259 N   0  0  0  0  0  0  0  0  0  0  0  0
   29.8242  -26.8409  -16.9936 C   0  0  0  0  0  0  0  0  0  0  0  0
   30.0437  -28.0783  -17.2703 N   0  0  0  0  0  0  0  0  0  0  0  0
   30.4555  -25.8226  -17.7664 N   0  0  0  0  0  0  0  0  0  0  0  0
   30.0637  -24.4085  -17.6426 C   0  0  0  0  0  0  0  0  0  0  0  0
   29.5617  -24.2357  -16.2519 C   0  0  0  0  0  0  0  0  0  0  0  0
   29.0472  -22.8872  -15.8808 C   0  0  0  0  0  0  0  0  0  0  0  0
   28.1133  -22.3254  -16.8926 C   0  0  2  0  0  0  0  0  0  0  0  0
   28.8661  -21.5999  -17.9147 N   0  0  0  0  0  0  0  0  0  0  0  0
   27.1893  -21.3043  -16.2955 C   0  0  0  0  0  0  0  0  0  0  0  0
   27.5630  -20.1343  -16.0370 O   0  0  0  0  0  0  0  0  0  0  0  0
   30.6731  -28.3647  -18.0503 C   0  0  0  0  0  0  0  0  0  0  0  0
   24.5021  -19.6459  -17.7230 C   0  0  2  0  0  0  0  0  0  0  0  0
   23.9337  -20.3319  -16.5352 C   0  0  0  0  0  0  0  0  0  0  0  0
   22.7385  -19.5372  -16.0531 C   0  0  2  0  0  0  0  0  0  0  0  0
   24.8922  -20.6493  -15.4279 N   0  0  0  0  0  0  0  0  0  0  0  0
   25.8364  -21.6176  -15.9929 C   0  0  0  0  0  0  0  0  0  0  0  0
   24.2536  -21.2123  -14.2140 O   0  0  0  0  0  0  0  0  0  0  0  0
   23.6912  -22.3623  -14.2502 N   0  0  0  0  0  0  0  0  0  0  0  0
   24.2259  -20.5358  -12.9699 C   0  0  1  0  0  0  0  0  0  0  0  0
   23.6588  -21.1313  -11.7746 C   0  0  0  0  0  0  0  0  0  0  0  0
   24.3294  -20.6022  -10.5416 C   0  0  0  0  0  0  0  0  0  0  0  0
   25.8050  -20.7852  -10.5344 C   0  0  0  0  0  0  0  0  0  0  0  0
   26.5776  -21.4066  -11.4918 N   0  0  0  0  0  0  0  0  0  0  0  0
   27.8572  -21.3539  -11.0979 C   0  0  0  0  0  0  0  0  0  0  0  0
   27.8947  -20.7180   -9.9254 N   0  0  0  0  0  0  0  0  0  0  0  0
   26.6469  -20.3719   -9.5820 C   0  0  0  0  0  0  0  0  0  0  0  0
   22.1971  -20.8806  -11.6836 O   0  0  0  0  0  0  0  0  0  0  0  0
   21.4238  -21.5759  -10.7970 O   0  0  0  0  0  0  0  0  0  0  0  0
  1  2  1  0
  2  3  2  0
  4  5  1  0
  4  2  1  0
  6  5  1  0
  7  6  1  0
  8 10  1  0
  8  7  1  0
  8  9  1  6
 10 11  2  0
 13 12  1  6
 13 15  1  0
 14 13  1  0
 15 16  1  1
 16 10  1  0
 17 15  1  0
 17 18  2  0
 19 17  1  0
 20 19  1  0
 20 27  1  0
 20 21  1  1
 22 26  1  0
 22 21  1  0
 23 22  2  0
 24 23  1  0
 24 25  1  0
 25 26  2  0
 27 29  2  0
 27 28  1  0
M  END
$$$$
