RVH.pdb
     RDKit          3D

 29 29  0  0  1  0  0  0  0  0999 V2000
   45.5929  -10.1124  -10.3369 N   0  0  0  0  0  0  0  0  0  0  0  0
   46.1100  -11.0931   -9.4474 C   0  0  0  0  0  0  0  0  0  0  0  0
   46.8287  -12.0673   -9.8836 N   0  0  0  0  0  0  0  0  0  0  0  0
   45.8267  -10.9946   -8.0535 N   0  0  0  0  0  0  0  0  0  0  0  0
   44.9827   -9.9150   -7.5145 C   0  0  0  0  0  0  0  0  0  0  0  0
   43.6696  -10.5361   -7.1890 C   0  0  0  0  0  0  0  0  0  0  0  0
   42.5354   -9.6118   -6.9060 C   0  0  0  0  0  0  0  0  0  0  0  0
   42.6406   -8.9570   -5.5749 C   0  0  2  0  0  0  0  0  0  0  0  0
   42.4667   -9.9512   -4.5171 N   0  0  0  0  0  0  0  0  0  0  0  0
   41.5407   -7.9601   -5.3530 C   0  0  0  0  0  0  0  0  0  0  0  0
   40.7345   -8.0558   -4.3957 O   0  0  0  0  0  0  0  0  0  0  0  0
   47.2150  -12.7954   -9.2453 C   0  0  0  0  0  0  0  0  0  0  0  0
   41.4344   -5.9612   -3.4881 C   0  0  2  0  0  0  0  0  0  0  0  0
   41.2953   -5.0756   -4.6716 C   0  0  0  0  0  0  0  0  0  0  0  0
   40.6781   -3.7692   -4.2187 C   0  0  2  0  0  0  0  0  0  0  0  0
   40.5912   -5.6578   -5.8595 N   0  0  0  0  0  0  0  0  0  0  0  0
   41.3598   -6.8515   -6.2238 C   0  0  0  0  0  0  0  0  0  0  0  0
   40.4979   -4.7405   -7.0205 O   0  0  0  0  0  0  0  0  0  0  0  0
   41.4201   -4.7216   -7.9089 N   0  0  0  0  0  0  0  0  0  0  0  0
   39.4131   -3.8515   -7.2188 C   0  0  1  0  0  0  0  0  0  0  0  0
   38.4297   -4.0482   -8.2673 C   0  0  0  0  0  0  0  0  0  0  0  0
   37.7571   -5.3817   -8.1287 C   0  0  0  0  0  0  0  0  0  0  0  0
   38.2499   -6.4060   -9.0874 C   0  0  0  0  0  0  0  0  0  0  0  0
   39.2343   -6.2575  -10.0406 N   0  0  0  0  0  0  0  0  0  0  0  0
   39.3686   -7.4216  -10.6903 C   0  0  0  0  0  0  0  0  0  0  0  0
   38.4952   -8.2826  -10.1647 N   0  0  0  0  0  0  0  0  0  0  0  0
   37.8144   -7.6655   -9.1897 C   0  0  0  0  0  0  0  0  0  0  0  0
   37.4007   -2.9764   -8.2550 O   0  0  0  0  0  0  0  0  0  0  0  0
   37.3539   -2.0657   -7.2373 O   0  0  0  0  0  0  0  0  0  0  0  0
  1  2  1  0
  2  3  2  0
  4  5  1  0
  4  2  1  0
  6  5  1  0
  7  6  1  0
  8 10  1  0
  8  7  1  0
  8  9  1  1
 10 11  2  0
 13 12  1  1
 13 15  1  0
 14 13  1  0
 15 16  1  1
 16 10  1  0
 17 15  1  0
 17 18  2  0
 19 17  1  0
 20 19  1  0
 20 27  1  0
 20 21  1  6
 22 26  1  0
 22 21  1  0
 23 22  2  0
 24 23  1  0
 24 25  1  0
 25 26  2  0
 27 29  2  0
 27 28  1  0
M  END
$$$$
