RVH.pdb
     RDKit          3D

 29 29  0  0  1  0  0  0  0  0999 V2000
   18.7214  -26.1794   -8.2332 N   0  0  0  0  0  0  0  0  0  0  0  0
   18.2492  -24.9513   -7.6952 C   0  0  0  0  0  0  0  0  0  0  0  0
   18.5567  -24.5928   -6.4983 N   0  0  0  0  0  0  0  0  0  0  0  0
   17.4231  -24.1074   -8.4940 N   0  0  0  0  0  0  0  0  0  0  0  0
   16.9808  -24.5133   -9.8386 C   0  0  0  0  0  0  0  0  0  0  0  0
   17.5786  -23.5340  -10.7870 C   0  0  0  0  0  0  0  0  0  0  0  0
   17.3295  -22.0900  -10.5151 C   0  0  0  0  0  0  0  0  0  0  0  0
   16.4863  -21.4423  -11.5548 C   0  0  2  0  0  0  0  0  0  0  0  0
   15.4813  -22.3874  -12.0390 N   0  0  0  0  0  0  0  0  0  0  0  0
   17.2840  -21.0700  -12.7705 C   0  0  0  0  0  0  0  0  0  0  0  0
   17.4006  -21.8394  -13.7553 O   0  0  0  0  0  0  0  0  0  0  0  0
   18.1838  -23.7171   -6.0729 C   0  0  0  0  0  0  0  0  0  0  0  0
   16.7912  -17.8616  -14.7662 C   0  0  1  0  0  0  0  0  0  0  0  0
   18.2070  -17.9946  -14.3394 C   0  0  0  0  0  0  0  0  0  0  0  0
   19.0782  -17.2793  -15.3504 C   0  0  2  0  0  0  0  0  0  0  0  0
   18.6883  -19.3846  -14.0536 N   0  0  0  0  0  0  0  0  0  0  0  0
   17.9499  -19.8177  -12.8639 C   0  0  0  0  0  0  0  0  0  0  0  0
   20.1473  -19.4845  -13.8094 O   0  0  0  0  0  0  0  0  0  0  0  0
   20.6034  -19.5390  -12.6140 N   0  0  0  0  0  0  0  0  0  0  0  0
   21.1050  -19.5269  -14.8521 C   0  0  1  0  0  0  0  0  0  0  0  0
   22.4362  -20.0718  -14.6622 C   0  0  0  0  0  0  0  0  0  0  0  0
   22.3723  -21.4551  -14.0856 C   0  0  0  0  0  0  0  0  0  0  0  0
   23.7052  -22.0753  -13.8624 C   0  0  0  0  0  0  0  0  0  0  0  0
   24.9417  -21.5088  -14.0853 N   0  0  0  0  0  0  0  0  0  0  0  0
   25.8804  -22.4060  -13.7552 C   0  0  0  0  0  0  0  0  0  0  0  0
   25.2576  -23.5088  -13.3355 N   0  0  0  0  0  0  0  0  0  0  0  0
   23.9345  -23.3085  -13.4004 C   0  0  0  0  0  0  0  0  0  0  0  0
   23.1960  -20.1074  -15.9386 O   0  0  0  0  0  0  0  0  0  0  0  0
   22.5963  -19.7639  -17.1174 O   0  0  0  0  0  0  0  0  0  0  0  0
  1  2  1  0
  2  3  2  0
  4  5  1  0
  4  2  1  0
  6  5  1  0
  7  6  1  0
  8 10  1  0
  8  7  1  0
  8  9  1  6
 10 11  2  0
 13 12  1  1
 13 15  1  0
 14 13  1  0
 15 16  1  6
 16 10  1  0
 17 15  1  0
 17 18  2  0
 19 17  1  0
 20 19  1  0
 20 27  1  0
 20 21  1  1
 22 26  1  0
 22 21  1  0
 23 22  2  0
 24 23  1  0
 24 25  1  0
 25 26  2  0
 27 29  2  0
 27 28  1  0
M  END
$$$$
