RVH.pdb
     RDKit          3D

 29 29  0  0  1  0  0  0  0  0999 V2000
   18.8704  -26.3347  -15.2811 N   0  0  0  0  0  0  0  0  0  0  0  0
   18.8984  -26.1752  -13.8689 C   0  0  0  0  0  0  0  0  0  0  0  0
   18.8891  -27.1981  -13.0882 N   0  0  0  0  0  0  0  0  0  0  0  0
   18.9363  -24.8632  -13.3121 N   0  0  0  0  0  0  0  0  0  0  0  0
   19.0801  -23.6701  -14.1631 C   0  0  0  0  0  0  0  0  0  0  0  0
   20.5216  -23.5882  -14.5253 C   0  0  0  0  0  0  0  0  0  0  0  0
   21.1858  -22.2639  -14.3640 C   0  0  0  0  0  0  0  0  0  0  0  0
   21.6836  -22.0306  -12.9823 C   0  0  2  0  0  0  0  0  0  0  0  0
   20.6323  -21.4168  -12.1725 N   0  0  0  0  0  0  0  0  0  0  0  0
   22.8170  -21.0469  -12.9543 C   0  0  0  0  0  0  0  0  0  0  0  0
   22.6317  -19.8181  -12.7778 O   0  0  0  0  0  0  0  0  0  0  0  0
   18.8876  -27.0986  -12.0505 C   0  0  0  0  0  0  0  0  0  0  0  0
   26.2023  -21.6420  -11.0955 C   0  0  2  0  0  0  0  0  0  0  0  0
   26.4292  -21.2381  -12.5061 C   0  0  0  0  0  0  0  0  0  0  0  0
   27.7206  -20.4506  -12.5739 C   0  0  2  0  0  0  0  0  0  0  0  0
   25.2952  -20.5344  -13.1876 N   0  0  0  0  0  0  0  0  0  0  0  0
   24.1643  -21.4649  -13.1275 C   0  0  0  0  0  0  0  0  0  0  0  0
   25.5703  -20.1604  -14.5956 O   0  0  0  0  0  0  0  0  0  0  0  0
   25.5209  -21.0420  -15.5231 N   0  0  0  0  0  0  0  0  0  0  0  0
   25.8948  -18.8412  -14.9963 C   0  0  1  0  0  0  0  0  0  0  0  0
   25.7416  -18.3856  -16.3653 C   0  0  0  0  0  0  0  0  0  0  0  0
   24.3454  -18.6265  -16.8578 C   0  0  0  0  0  0  0  0  0  0  0  0
   24.2213  -19.8001  -17.7625 C   0  0  0  0  0  0  0  0  0  0  0  0
   25.2348  -20.6067  -18.2334 N   0  0  0  0  0  0  0  0  0  0  0  0
   24.6926  -21.5467  -19.0193 C   0  0  0  0  0  0  0  0  0  0  0  0
   23.3744  -21.3421  -19.0459 N   0  0  0  0  0  0  0  0  0  0  0  0
   23.0870  -20.2799  -18.2817 C   0  0  0  0  0  0  0  0  0  0  0  0
   26.0654  -16.9414  -16.4968 O   0  0  0  0  0  0  0  0  0  0  0  0
   26.7342  -16.4734  -17.5928 O   0  0  0  0  0  0  0  0  0  0  0  0
  1  2  1  0
  2  3  2  0
  4  5  1  0
  4  2  1  0
  6  5  1  0
  7  6  1  0
  8 10  1  0
  8  7  1  0
  8  9  1  1
 10 11  2  0
 13 12  1  6
 13 15  1  0
 14 13  1  0
 15 16  1  1
 16 10  1  0
 17 15  1  0
 17 18  2  0
 19 17  1  0
 20 19  1  0
 20 27  1  0
 20 21  1  6
 22 26  1  0
 22 21  1  0
 23 22  2  0
 24 23  1  0
 24 25  1  0
 25 26  2  0
 27 29  2  0
 27 28  1  0
M  END
$$$$
