RPA.pdb
     RDKit          3D

 24 24  0  0  1  0  0  0  0  0999 V2000
    8.6256  -14.8982   16.9020 N   0  0  0  0  0  0  0  0  0  0  0  0
    7.8804  -13.7178   16.6910 C   0  0  0  0  0  0  0  0  0  0  0  0
    7.4827  -13.3681   15.5227 N   0  0  0  0  0  0  0  0  0  0  0  0
    7.5453  -12.8644   17.8082 N   0  0  0  0  0  0  0  0  0  0  0  0
    7.9954  -13.2846   19.0976 C   0  0  0  0  0  0  0  0  0  0  0  0
    7.2636  -14.3823   19.7652 C   0  0  0  0  0  0  0  0  0  0  0  0
    7.8273  -14.9771   21.0013 C   0  0  0  0  0  0  0  0  0  0  0  0
    9.0977  -14.4484   21.5440 C   0  0  2  0  0  0  0  0  0  0  0  0
   10.1717  -14.8562   20.7263 N   0  0  0  0  0  0  0  0  0  0  0  0
    9.2322  -14.9031   22.9629 C   0  0  0  0  0  0  0  0  0  0  0  0
   10.3382  -15.5104   23.2065 O   0  0  0  0  0  0  0  0  0  0  0  0
    6.9441  -12.4933   15.3756 N   0  0  0  0  0  0  0  0  0  0  0  0
    8.3048  -14.7316   23.9911 C   0  0  0  0  0  0  0  0  0  0  0  0
    6.9324  -14.3221   24.0320 C   0  0  0  0  0  0  0  0  0  0  0  0
    6.9890  -13.2372   25.1002 C   0  0  0  0  0  0  0  0  0  0  0  0
    7.8441  -13.9049   26.1563 C   0  0  1  0  0  0  0  0  0  0  0  0
    8.6168  -14.9757   25.4113 C   0  0  0  0  0  0  0  0  0  0  0  0
    8.1188  -16.3220   25.8163 O   0  0  0  0  0  0  0  0  0  0  0  0
    6.9794  -16.7612   25.5503 C   0  0  0  0  0  0  0  0  0  0  0  0
    9.4936  -19.5115   26.0078 C   0  0  2  0  0  0  0  0  0  0  0  0
    8.6790  -18.5610   26.8540 N   0  0  0  0  0  0  0  0  0  0  0  0
    8.9854  -17.1754   26.5546 C   0  0  0  0  0  0  0  0  0  0  0  0
    8.9606  -18.7902   28.2874 O   0  0  0  0  0  0  0  0  0  0  0  0
    9.5482  -17.8792   28.9512 O   0  0  0  0  0  0  0  0  0  0  0  0
  2  1  1  0
  2  3  2  0
  4  2  1  0
  5  4  1  0
  6  5  1  0
  7  6  1  0
  8 10  1  0
  8  7  1  0
  8  9  1  6
 10 12  1  0
 11 10  2  0
 12 13  1  0
 12 16  1  0
 13 14  1  0
 15 14  1  0
 16 15  1  0
 17 21  1  0
 16 17  1  6
 18 17  2  0
 20 19  1  6
 20 21  1  0
 22 20  1  0
 22 24  1  0
 23 22  2  0
M  END
$$$$
