RPA.pdb
     RDKit          3D

 24 24  0  0  1  0  0  0  0  0999 V2000
    9.5014  -18.7658   20.3282 N   0  0  0  0  0  0  0  0  0  0  0  0
    8.2468  -18.7613   19.6807 C   0  0  0  0  0  0  0  0  0  0  0  0
    8.0628  -19.3524   18.5572 N   0  0  0  0  0  0  0  0  0  0  0  0
    7.1247  -18.0776   20.2824 N   0  0  0  0  0  0  0  0  0  0  0  0
    7.3925  -16.8142   20.8938 C   0  0  0  0  0  0  0  0  0  0  0  0
    7.1288  -15.5913   20.1057 C   0  0  0  0  0  0  0  0  0  0  0  0
    6.4247  -14.4564   20.7505 C   0  0  0  0  0  0  0  0  0  0  0  0
    7.1751  -13.2185   21.0548 C   0  0  2  0  0  0  0  0  0  0  0  0
    7.9598  -12.8512   19.9423 N   0  0  0  0  0  0  0  0  0  0  0  0
    7.9810  -13.4459   22.2945 C   0  0  0  0  0  0  0  0  0  0  0  0
    9.2503  -13.4243   22.0949 O   0  0  0  0  0  0  0  0  0  0  0  0
    7.1469  -19.3134   18.0708 N   0  0  0  0  0  0  0  0  0  0  0  0
    7.4946  -13.6680   23.5832 C   0  0  0  0  0  0  0  0  0  0  0  0
    6.1803  -13.7511   24.1477 C   0  0  0  0  0  0  0  0  0  0  0  0
    6.3101  -12.7855   25.3189 C   0  0  0  0  0  0  0  0  0  0  0  0
    7.6505  -13.1934   25.8928 C   0  0  2  0  0  0  0  0  0  0  0  0
    8.3676  -13.8867   24.7511 C   0  0  0  0  0  0  0  0  0  0  0  0
    8.4714  -15.3461   25.0411 O   0  0  0  0  0  0  0  0  0  0  0  0
    7.5093  -16.1427   25.0001 C   0  0  0  0  0  0  0  0  0  0  0  0
   11.3644  -17.7067   25.1492 C   0  0  2  0  0  0  0  0  0  0  0  0
    9.9818  -17.2977   25.6010 N   0  0  0  0  0  0  0  0  0  0  0  0
    9.7422  -15.8832   25.3889 C   0  0  0  0  0  0  0  0  0  0  0  0
    9.8171  -17.5762   27.0439 O   0  0  0  0  0  0  0  0  0  0  0  0
    9.6439  -16.6017   27.8415 O   0  0  0  0  0  0  0  0  0  0  0  0
  2  1  1  0
  2  3  2  0
  4  2  1  0
  5  4  1  0
  6  5  1  0
  7  6  1  0
  8 10  1  0
  8  7  1  0
  8  9  1  6
 10 12  1  0
 11 10  2  0
 12 13  1  0
 12 16  1  0
 13 14  1  0
 15 14  1  0
 16 15  1  0
 17 21  1  0
 16 17  1  1
 18 17  2  0
 20 19  1  6
 20 21  1  0
 22 20  1  0
 22 24  1  0
 23 22  2  0
M  END
$$$$
