RPA.pdb
     RDKit          3D

 24 24  0  0  1  0  0  0  0  0999 V2000
   10.0318  -19.1131   19.2501 N   0  0  0  0  0  0  0  0  0  0  0  0
    9.3158  -19.6197   18.1439 C   0  0  0  0  0  0  0  0  0  0  0  0
    9.1250  -20.8775   17.9796 N   0  0  0  0  0  0  0  0  0  0  0  0
    8.7741  -18.7140   17.1565 N   0  0  0  0  0  0  0  0  0  0  0  0
    9.1601  -17.3422   17.2601 C   0  0  0  0  0  0  0  0  0  0  0  0
    8.3599  -16.3381   16.5267 C   0  0  0  0  0  0  0  0  0  0  0  0
    7.4427  -15.4537   17.2855 C   0  0  0  0  0  0  0  0  0  0  0  0
    7.8891  -14.0917   17.6513 C   0  0  2  0  0  0  0  0  0  0  0  0
    8.6205  -13.5277   16.5858 N   0  0  0  0  0  0  0  0  0  0  0  0
    8.6719  -14.1756   18.9234 C   0  0  0  0  0  0  0  0  0  0  0  0
    9.9104  -13.8609   18.7877 O   0  0  0  0  0  0  0  0  0  0  0  0
    8.6347  -21.2438   17.1415 N   0  0  0  0  0  0  0  0  0  0  0  0
    8.1941  -14.5477   20.1804 C   0  0  0  0  0  0  0  0  0  0  0  0
    6.9397  -15.0501   20.6568 C   0  0  0  0  0  0  0  0  0  0  0  0
    6.6722  -14.0991   21.8166 C   0  0  0  0  0  0  0  0  0  0  0  0
    8.0295  -14.0588   22.4863 C   0  0  2  0  0  0  0  0  0  0  0  0
    9.0081  -14.4806   21.4079 C   0  0  0  0  0  0  0  0  0  0  0  0
    9.5529  -15.8311   21.7302 O   0  0  0  0  0  0  0  0  0  0  0  0
    8.9633  -16.9055   21.4854 C   0  0  0  0  0  0  0  0  0  0  0  0
   12.9836  -17.0497   22.6508 C   0  0  2  0  0  0  0  0  0  0  0  0
   11.4782  -17.1775   22.6703 N   0  0  0  0  0  0  0  0  0  0  0  0
   10.8266  -15.9201   22.3579 C   0  0  0  0  0  0  0  0  0  0  0  0
   11.0233  -17.6054   24.0107 O   0  0  0  0  0  0  0  0  0  0  0  0
   11.3570  -18.7566   24.4339 O   0  0  0  0  0  0  0  0  0  0  0  0
  2  1  1  0
  2  3  2  0
  4  2  1  0
  5  4  1  0
  6  5  1  0
  7  6  1  0
  8 10  1  0
  8  7  1  0
  8  9  1  6
 10 12  1  0
 11 10  2  0
 12 13  1  0
 12 16  1  0
 13 14  1  0
 15 14  1  0
 16 15  1  0
 17 21  1  0
 16 17  1  1
 18 17  2  0
 20 19  1  6
 20 21  1  0
 22 20  1  0
 22 24  1  0
 23 22  2  0
M  END
$$$$
