RPA.pdb
     RDKit          3D

 24 24  0  0  1  0  0  0  0  0999 V2000
    9.2555  -13.4546   17.6315 N   0  0  0  0  0  0  0  0  0  0  0  0
    8.5721  -12.8764   18.7232 C   0  0  0  0  0  0  0  0  0  0  0  0
    9.1224  -11.9962   19.4768 N   0  0  0  0  0  0  0  0  0  0  0  0
    7.2140  -13.2727   19.0184 N   0  0  0  0  0  0  0  0  0  0  0  0
    7.0441  -14.3678   19.9203 C   0  0  0  0  0  0  0  0  0  0  0  0
    7.4991  -15.7050   19.4828 C   0  0  0  0  0  0  0  0  0  0  0  0
    8.3109  -16.5291   20.4108 C   0  0  0  0  0  0  0  0  0  0  0  0
    7.6467  -17.5752   21.2187 C   0  0  2  0  0  0  0  0  0  0  0  0
    6.4166  -17.9262   20.6255 N   0  0  0  0  0  0  0  0  0  0  0  0
    7.5023  -17.0711   22.6197 C   0  0  0  0  0  0  0  0  0  0  0  0
    6.2820  -16.9870   23.0136 O   0  0  0  0  0  0  0  0  0  0  0  0
    8.6054  -11.5613   20.2646 N   0  0  0  0  0  0  0  0  0  0  0  0
    8.5291  -16.7038   23.4901 C   0  0  0  0  0  0  0  0  0  0  0  0
    9.9428  -16.5263   23.3387 C   0  0  0  0  0  0  0  0  0  0  0  0
   10.4628  -17.3691   24.4965 C   0  0  0  0  0  0  0  0  0  0  0  0
    9.5358  -16.9415   25.6146 C   0  0  2  0  0  0  0  0  0  0  0  0
    8.3097  -16.3900   24.9139 C   0  0  0  0  0  0  0  0  0  0  0  0
    8.2497  -14.9119   25.1045 O   0  0  0  0  0  0  0  0  0  0  0  0
    9.0004  -14.0961   24.5278 C   0  0  0  0  0  0  0  0  0  0  0  0
    5.6747  -12.6500   26.6688 C   0  0  2  0  0  0  0  0  0  0  0  0
    7.0803  -12.9578   26.2078 N   0  0  0  0  0  0  0  0  0  0  0  0
    7.2797  -14.3789   25.9986 C   0  0  0  0  0  0  0  0  0  0  0  0
    8.0567  -12.5054   27.2220 O   0  0  0  0  0  0  0  0  0  0  0  0
    8.6718  -13.3765   27.9137 O   0  0  0  0  0  0  0  0  0  0  0  0
  2  1  1  0
  2  3  2  0
  4  2  1  0
  5  4  1  0
  6  5  1  0
  7  6  1  0
  8 10  1  0
  8  7  1  0
  8  9  1  6
 10 12  1  0
 11 10  2  0
 12 13  1  0
 12 16  1  0
 13 14  1  0
 15 14  1  0
 16 15  1  0
 17 21  1  0
 16 17  1  1
 18 17  2  0
 20 19  1  6
 20 21  1  0
 22 20  1  0
 22 24  1  0
 23 22  2  0
M  END
$$$$
