RPA.pdb
     RDKit          3D

 24 24  0  0  1  0  0  0  0  0999 V2000
    5.7717  -20.8584   24.9484 N   0  0  0  0  0  0  0  0  0  0  0  0
    6.3828  -20.5801   23.7066 C   0  0  0  0  0  0  0  0  0  0  0  0
    6.2808  -21.3787   22.7078 N   0  0  0  0  0  0  0  0  0  0  0  0
    7.1498  -19.3675   23.5334 N   0  0  0  0  0  0  0  0  0  0  0  0
    6.4222  -18.1902   23.1784 C   0  0  0  0  0  0  0  0  0  0  0  0
    7.1841  -16.9418   22.9609 C   0  0  0  0  0  0  0  0  0  0  0  0
    6.4455  -15.6852   22.6874 C   0  0  0  0  0  0  0  0  0  0  0  0
    7.2024  -14.4300   22.4884 C   0  0  2  0  0  0  0  0  0  0  0  0
    7.9209  -14.4937   21.2768 N   0  0  0  0  0  0  0  0  0  0  0  0
    8.0780  -14.2108   23.6814 C   0  0  0  0  0  0  0  0  0  0  0  0
    9.3327  -14.3218   23.4268 O   0  0  0  0  0  0  0  0  0  0  0  0
    6.7980  -21.2068   21.8247 N   0  0  0  0  0  0  0  0  0  0  0  0
    7.6673  -13.9110   24.9807 C   0  0  0  0  0  0  0  0  0  0  0  0
    6.3892  -13.8210   25.6220 C   0  0  0  0  0  0  0  0  0  0  0  0
    6.4995  -12.4563   26.2902 C   0  0  0  0  0  0  0  0  0  0  0  0
    7.8906  -12.5280   26.8836 C   0  0  2  0  0  0  0  0  0  0  0  0
    8.6052  -13.5908   26.0723 C   0  0  0  0  0  0  0  0  0  0  0  0
    8.8291  -14.7976   26.9197 O   0  0  0  0  0  0  0  0  0  0  0  0
    7.9402  -15.6239   27.2180 C   0  0  0  0  0  0  0  0  0  0  0  0
   11.9366  -16.7030   27.4337 C   0  0  2  0  0  0  0  0  0  0  0  0
   10.5670  -16.3236   27.9466 N   0  0  0  0  0  0  0  0  0  0  0  0
   10.1350  -15.0391   27.4303 C   0  0  0  0  0  0  0  0  0  0  0  0
   10.5842  -16.2386   29.4228 O   0  0  0  0  0  0  0  0  0  0  0  0
   10.3442  -15.1198   29.9763 O   0  0  0  0  0  0  0  0  0  0  0  0
  2  1  1  0
  2  3  2  0
  4  2  1  0
  5  4  1  0
  6  5  1  0
  7  6  1  0
  8 10  1  0
  8  7  1  0
  8  9  1  6
 10 12  1  0
 11 10  2  0
 12 13  1  0
 12 16  1  0
 13 14  1  0
 15 14  1  0
 16 15  1  0
 17 21  1  0
 16 17  1  1
 18 17  2  0
 20 19  1  6
 20 21  1  0
 22 20  1  0
 22 24  1  0
 23 22  2  0
M  END
$$$$
