RPA.pdb
     RDKit          3D

 24 24  0  0  1  0  0  0  0  0999 V2000
   10.3158  -17.0280   15.2335 N   0  0  0  0  0  0  0  0  0  0  0  0
    9.6653  -18.2802   15.2766 C   0  0  0  0  0  0  0  0  0  0  0  0
    9.7834  -19.1372   14.3294 N   0  0  0  0  0  0  0  0  0  0  0  0
    8.8383  -18.6273   16.4098 N   0  0  0  0  0  0  0  0  0  0  0  0
    8.5798  -17.5918   17.3599 C   0  0  0  0  0  0  0  0  0  0  0  0
    7.7092  -16.4707   16.9458 C   0  0  0  0  0  0  0  0  0  0  0  0
    7.3650  -15.4219   17.9362 C   0  0  0  0  0  0  0  0  0  0  0  0
    8.2163  -14.2165   18.0387 C   0  0  2  0  0  0  0  0  0  0  0  0
    9.0787  -14.1461   16.9253 N   0  0  0  0  0  0  0  0  0  0  0  0
    8.9438  -14.2602   19.3451 C   0  0  0  0  0  0  0  0  0  0  0  0
   10.2210  -14.3297   19.2214 O   0  0  0  0  0  0  0  0  0  0  0  0
    9.3693  -20.0857   14.4054 N   0  0  0  0  0  0  0  0  0  0  0  0
    8.3804  -14.2329   20.6213 C   0  0  0  0  0  0  0  0  0  0  0  0
    7.0345  -14.2319   21.1124 C   0  0  0  0  0  0  0  0  0  0  0  0
    7.0809  -13.0503   22.0730 C   0  0  0  0  0  0  0  0  0  0  0  0
    8.3871  -13.3058   22.7948 C   0  0  2  0  0  0  0  0  0  0  0  0
    9.1812  -14.1957   21.8587 C   0  0  0  0  0  0  0  0  0  0  0  0
    9.2818  -15.5657   22.4397 O   0  0  0  0  0  0  0  0  0  0  0  0
    8.3863  -16.4335   22.3571 C   0  0  0  0  0  0  0  0  0  0  0  0
   11.7789  -17.9237   22.5878 C   0  0  2  0  0  0  0  0  0  0  0  0
   10.7855  -17.2844   23.5298 N   0  0  0  0  0  0  0  0  0  0  0  0
   10.4688  -15.9247   23.1372 C   0  0  0  0  0  0  0  0  0  0  0  0
   11.3394  -17.2453   24.9003 O   0  0  0  0  0  0  0  0  0  0  0  0
   11.6541  -18.3388   25.4669 O   0  0  0  0  0  0  0  0  0  0  0  0
  2  1  1  0
  2  3  2  0
  4  2  1  0
  5  4  1  0
  6  5  1  0
  7  6  1  0
  8 10  1  0
  8  7  1  0
  8  9  1  6
 10 12  1  0
 11 10  2  0
 12 13  1  0
 12 16  1  0
 13 14  1  0
 15 14  1  0
 16 15  1  0
 17 21  1  0
 16 17  1  1
 18 17  2  0
 20 19  1  6
 20 21  1  0
 22 20  1  0
 22 24  1  0
 23 22  2  0
M  END
$$$$
