RPA.pdb
     RDKit          3D

 24 24  0  0  1  0  0  0  0  0999 V2000
   11.2675  -18.0150   22.1048 N   0  0  0  0  0  0  0  0  0  0  0  0
   10.3175  -18.6645   22.9227 C   0  0  0  0  0  0  0  0  0  0  0  0
   10.6672  -19.4710   23.8569 N   0  0  0  0  0  0  0  0  0  0  0  0
    8.9062  -18.4290   22.7191 N   0  0  0  0  0  0  0  0  0  0  0  0
    8.5513  -17.4293   21.7618 C   0  0  0  0  0  0  0  0  0  0  0  0
    9.0957  -16.0669   21.9459 C   0  0  0  0  0  0  0  0  0  0  0  0
    8.7089  -15.0012   20.9899 C   0  0  0  0  0  0  0  0  0  0  0  0
    7.7452  -13.9628   21.4154 C   0  0  2  0  0  0  0  0  0  0  0  0
    7.6706  -12.9516   20.4354 N   0  0  0  0  0  0  0  0  0  0  0  0
    8.1619  -13.4517   22.7582 C   0  0  0  0  0  0  0  0  0  0  0  0
    9.2016  -12.6973   22.7222 O   0  0  0  0  0  0  0  0  0  0  0  0
    9.9665  -19.8931   24.4954 N   0  0  0  0  0  0  0  0  0  0  0  0
    7.5474  -13.7121   23.9835 C   0  0  0  0  0  0  0  0  0  0  0  0
    6.3779  -14.4429   24.3721 C   0  0  0  0  0  0  0  0  0  0  0  0
    5.6714  -13.4112   25.2425 C   0  0  0  0  0  0  0  0  0  0  0  0
    6.8222  -12.8884   26.0761 C   0  0  2  0  0  0  0  0  0  0  0  0
    8.0649  -13.2128   25.2706 C   0  0  0  0  0  0  0  0  0  0  0  0
    8.8377  -14.2873   25.9581 O   0  0  0  0  0  0  0  0  0  0  0  0
    8.8094  -15.4937   25.6331 C   0  0  0  0  0  0  0  0  0  0  0  0
   11.1703  -14.2606   28.9683 C   0  0  1  0  0  0  0  0  0  0  0  0
   10.5343  -14.8729   27.7421 N   0  0  0  0  0  0  0  0  0  0  0  0
    9.6670  -13.9327   27.0586 C   0  0  0  0  0  0  0  0  0  0  0  0
    9.7210  -16.0468   28.1256 O   0  0  0  0  0  0  0  0  0  0  0  0
    8.4813  -15.8862   28.3560 O   0  0  0  0  0  0  0  0  0  0  0  0
  2  1  1  0
  2  3  2  0
  4  2  1  0
  5  4  1  0
  6  5  1  0
  7  6  1  0
  8 10  1  0
  8  7  1  0
  8  9  1  6
 10 12  1  0
 11 10  2  0
 12 13  1  0
 12 16  1  0
 13 14  1  0
 15 14  1  0
 16 15  1  0
 17 21  1  0
 16 17  1  1
 18 17  2  0
 20 19  1  6
 20 21  1  0
 22 20  1  0
 22 24  1  0
 23 22  2  0
M  END
$$$$
