VMR.pdb
     RDKit          3D

 27 26  0  0  1  0  0  0  0  0999 V2000
    7.9713  -15.5923   19.9019 C   0  0  0  0  0  0  0  0  0  0  0  0
    8.4891  -14.3161   19.3036 C   0  0  1  0  0  0  0  0  0  0  0  0
    8.2649  -14.2473   17.8127 C   0  0  0  0  0  0  0  0  0  0  0  0
    7.8749  -13.1373   20.0351 C   0  0  2  0  0  0  0  0  0  0  0  0
    8.3924  -11.8804   19.5104 N   0  0  0  0  0  0  0  0  0  0  0  0
    8.2752  -13.2493   21.4495 C   0  0  0  0  0  0  0  0  0  0  0  0
    9.4431  -12.9669   21.7817 O   0  0  0  0  0  0  0  0  0  0  0  0
    6.8582  -11.7259   27.7963 C   0  0  0  0  0  0  0  0  0  0  0  0
    5.4988  -11.9044   26.6171 S   0  0  0  0  0  0  0  0  0  0  0  0
    6.1119  -12.3557   25.0085 C   0  0  0  0  0  0  0  0  0  0  0  0
    6.8135  -13.6899   24.9303 C   0  0  0  0  0  0  0  0  0  0  0  0
    7.7936  -13.8515   23.8530 C   0  0  2  0  0  0  0  0  0  0  0  0
    7.4338  -13.6618   22.5121 N   0  0  0  0  0  0  0  0  0  0  0  0
    8.4501  -15.1799   23.9814 C   0  0  0  0  0  0  0  0  0  0  0  0
    7.7961  -16.2235   23.7362 O   0  0  0  0  0  0  0  0  0  0  0  0
   14.8635  -14.8977   20.2793 N   0  0  0  0  0  0  0  0  0  0  0  0
   13.6517  -15.5892   19.9776 C   0  0  0  0  0  0  0  0  0  0  0  0
   12.8401  -15.1336   19.1070 N   0  0  0  0  0  0  0  0  0  0  0  0
   13.3013  -16.8053   20.6292 N   0  0  0  0  0  0  0  0  0  0  0  0
   13.6793  -17.0592   21.9962 C   0  0  0  0  0  0  0  0  0  0  0  0
   12.5641  -17.4217   22.9041 C   0  0  0  0  0  0  0  0  0  0  0  0
   11.6022  -16.4244   23.3490 C   0  0  0  0  0  0  0  0  0  0  0  0
   10.4739  -16.7006   24.2567 C   0  0  2  0  0  0  0  0  0  0  0  0
    9.7958  -15.3407   24.3710 N   0  0  0  0  0  0  0  0  0  0  0  0
   10.7588  -17.1250   25.6258 C   0  0  0  0  0  0  0  0  0  0  0  0
   10.3724  -16.3795   26.6117 O   0  0  0  0  0  0  0  0  0  0  0  0
   11.4057  -18.2637   26.0196 O   0  0  0  0  0  0  0  0  0  0  0  0
  2  1  1  1
  2  3  1  0
  4  6  1  0
  4  2  1  0
  4  5  1  6
  6  7  2  0
  9  8  1  0
 10  9  1  0
 11 10  1  0
 12 11  1  1
 13  6  1  0
 13 12  1  0
 14 15  2  0
 14 12  1  0
 16 17  1  0
 17 18  2  0
 19 17  1  0
 19 20  1  0
 20 21  1  0
 21 22  1  0
 23 22  1  6
 23 24  1  0
 24 14  1  0
 25 23  1  0
 25 27  1  0
 26 25  2  0
M  END
$$$$
