VMR.pdb
     RDKit          3D

 27 26  0  0  1  0  0  0  0  0999 V2000
    6.8880  -17.4233   21.2928 C   0  0  0  0  0  0  0  0  0  0  0  0
    7.8048  -16.9164   20.2171 C   0  0  1  0  0  0  0  0  0  0  0  0
    7.3680  -17.3482   18.8385 C   0  0  0  0  0  0  0  0  0  0  0  0
    7.9299  -15.4092   20.3377 C   0  0  2  0  0  0  0  0  0  0  0  0
    8.9241  -14.8992   19.4026 N   0  0  0  0  0  0  0  0  0  0  0  0
    8.3914  -15.1215   21.7080 C   0  0  0  0  0  0  0  0  0  0  0  0
    9.5614  -15.4027   22.0340 O   0  0  0  0  0  0  0  0  0  0  0  0
    6.6111  -10.5957   26.6544 C   0  0  0  0  0  0  0  0  0  0  0  0
    6.6997  -12.2397   27.4026 S   0  0  0  0  0  0  0  0  0  0  0  0
    7.6396  -13.3509   26.3785 C   0  0  0  0  0  0  0  0  0  0  0  0
    7.2130  -13.4211   24.9322 C   0  0  0  0  0  0  0  0  0  0  0  0
    7.9842  -14.3160   24.0653 C   0  0  2  0  0  0  0  0  0  0  0  0
    7.6091  -14.5344   22.7330 N   0  0  0  0  0  0  0  0  0  0  0  0
    8.1380  -15.6356   24.7340 C   0  0  0  0  0  0  0  0  0  0  0  0
    7.1578  -16.4180   24.7993 O   0  0  0  0  0  0  0  0  0  0  0  0
   11.5585  -20.0604   20.8708 N   0  0  0  0  0  0  0  0  0  0  0  0
   12.7537  -19.9872   21.6479 C   0  0  0  0  0  0  0  0  0  0  0  0
   13.7323  -20.7696   21.4149 N   0  0  0  0  0  0  0  0  0  0  0  0
   12.9027  -19.0463   22.7058 N   0  0  0  0  0  0  0  0  0  0  0  0
   11.8385  -18.1419   23.0599 C   0  0  0  0  0  0  0  0  0  0  0  0
   11.4623  -18.1383   24.4944 C   0  0  0  0  0  0  0  0  0  0  0  0
   10.0722  -18.2602   24.9074 C   0  0  0  0  0  0  0  0  0  0  0  0
    9.4410  -17.4461   25.9620 C   0  0  2  0  0  0  0  0  0  0  0  0
    9.3482  -16.0707   25.3124 N   0  0  0  0  0  0  0  0  0  0  0  0
   10.1549  -17.2491   27.2219 C   0  0  0  0  0  0  0  0  0  0  0  0
   10.4864  -18.2824   27.9287 O   0  0  0  0  0  0  0  0  0  0  0  0
   10.5417  -16.0594   27.7744 O   0  0  0  0  0  0  0  0  0  0  0  0
  2  1  1  1
  2  3  1  0
  4  6  1  0
  4  2  1  0
  4  5  1  6
  6  7  2  0
  9  8  1  0
 10  9  1  0
 11 10  1  0
 12 11  1  1
 13  6  1  0
 13 12  1  0
 14 15  2  0
 14 12  1  0
 16 17  1  0
 17 18  2  0
 19 17  1  0
 19 20  1  0
 20 21  1  0
 21 22  1  0
 23 22  1  6
 23 24  1  0
 24 14  1  0
 25 23  1  0
 25 27  1  0
 26 25  2  0
M  END
$$$$
