VMR.pdb
     RDKit          3D

 27 26  0  0  1  0  0  0  0  0999 V2000
    8.6869  -12.4234   19.4864 C   0  0  0  0  0  0  0  0  0  0  0  0
    7.5709  -13.4263   19.4259 C   0  0  1  0  0  0  0  0  0  0  0  0
    6.9886  -13.5558   18.0396 C   0  0  0  0  0  0  0  0  0  0  0  0
    8.0630  -14.7536   19.9719 C   0  0  2  0  0  0  0  0  0  0  0  0
    7.0111  -15.7595   19.9036 N   0  0  0  0  0  0  0  0  0  0  0  0
    8.4070  -14.5377   21.3892 C   0  0  0  0  0  0  0  0  0  0  0  0
    9.5063  -14.0292   21.6840 O   0  0  0  0  0  0  0  0  0  0  0  0
    6.4299  -11.1176   27.0374 C   0  0  0  0  0  0  0  0  0  0  0  0
    5.9558  -12.8627   27.0569 S   0  0  0  0  0  0  0  0  0  0  0  0
    7.1377  -13.8493   26.1643 C   0  0  0  0  0  0  0  0  0  0  0  0
    6.7416  -14.2243   24.7568 C   0  0  0  0  0  0  0  0  0  0  0  0
    7.8300  -14.5889   23.8460 C   0  0  2  0  0  0  0  0  0  0  0  0
    7.5821  -14.8627   22.4943 N   0  0  0  0  0  0  0  0  0  0  0  0
    8.5946  -15.7259   24.4246 C   0  0  0  0  0  0  0  0  0  0  0  0
    8.0840  -16.8730   24.4447 O   0  0  0  0  0  0  0  0  0  0  0  0
   17.3158  -15.9087   23.7787 N   0  0  0  0  0  0  0  0  0  0  0  0
   16.9849  -17.2714   24.0457 C   0  0  0  0  0  0  0  0  0  0  0  0
   17.8903  -18.1677   24.0808 N   0  0  0  0  0  0  0  0  0  0  0  0
   15.6431  -17.6838   24.2821 N   0  0  0  0  0  0  0  0  0  0  0  0
   14.5478  -16.7510   24.2056 C   0  0  0  0  0  0  0  0  0  0  0  0
   13.2357  -17.2778   24.6533 C   0  0  0  0  0  0  0  0  0  0  0  0
   12.0414  -16.4468   24.6215 C   0  0  0  0  0  0  0  0  0  0  0  0
   10.7499  -16.8194   25.2267 C   0  0  2  0  0  0  0  0  0  0  0  0
    9.8901  -15.5888   24.9645 N   0  0  0  0  0  0  0  0  0  0  0  0
   10.6887  -17.0538   26.6679 C   0  0  0  0  0  0  0  0  0  0  0  0
   11.0527  -18.2047   27.1369 O   0  0  0  0  0  0  0  0  0  0  0  0
   10.2834  -16.1719   27.6314 O   0  0  0  0  0  0  0  0  0  0  0  0
  2  1  1  6
  2  3  1  0
  4  6  1  0
  4  2  1  0
  4  5  1  1
  6  7  2  0
  9  8  1  0
 10  9  1  0
 11 10  1  0
 12 11  1  1
 13  6  1  0
 13 12  1  0
 14 15  2  0
 14 12  1  0
 16 17  1  0
 17 18  2  0
 19 17  1  0
 19 20  1  0
 20 21  1  0
 21 22  1  0
 23 22  1  1
 23 24  1  0
 24 14  1  0
 25 23  1  0
 25 27  1  0
 26 25  2  0
M  END
$$$$
