VMR.pdb
     RDKit          3D

 27 26  0  0  1  0  0  0  0  0999 V2000
    6.6061  -19.9742   24.1316 C   0  0  0  0  0  0  0  0  0  0  0  0
    5.5400  -19.5241   23.1747 C   0  0  1  0  0  0  0  0  0  0  0  0
    4.5027  -20.5917   22.9256 C   0  0  0  0  0  0  0  0  0  0  0  0
    4.9283  -18.2315   23.6816 C   0  0  2  0  0  0  0  0  0  0  0  0
    3.8668  -17.7811   22.7909 N   0  0  0  0  0  0  0  0  0  0  0  0
    5.9975  -17.2166   23.6792 C   0  0  0  0  0  0  0  0  0  0  0  0
    6.5081  -16.8646   22.5978 O   0  0  0  0  0  0  0  0  0  0  0  0
    6.8034  -12.5202   28.3616 C   0  0  0  0  0  0  0  0  0  0  0  0
    6.8102  -11.9815   26.6353 S   0  0  0  0  0  0  0  0  0  0  0  0
    6.6606  -13.3741   25.5374 C   0  0  0  0  0  0  0  0  0  0  0  0
    7.5623  -14.5450   25.8449 C   0  0  0  0  0  0  0  0  0  0  0  0
    7.5676  -15.6400   24.8712 C   0  0  2  0  0  0  0  0  0  0  0  0
    6.5248  -16.5749   24.8271 N   0  0  0  0  0  0  0  0  0  0  0  0
    8.8566  -16.3758   24.9664 C   0  0  0  0  0  0  0  0  0  0  0  0
    8.8576  -17.5903   25.2856 O   0  0  0  0  0  0  0  0  0  0  0  0
    7.5315  -13.9911   20.2907 N   0  0  0  0  0  0  0  0  0  0  0  0
    8.4152  -13.9178   19.1721 C   0  0  0  0  0  0  0  0  0  0  0  0
    8.3464  -12.9472   18.3489 N   0  0  0  0  0  0  0  0  0  0  0  0
    9.4017  -14.9151   18.9303 N   0  0  0  0  0  0  0  0  0  0  0  0
    9.6214  -15.9931   19.8607 C   0  0  0  0  0  0  0  0  0  0  0  0
   10.5239  -15.6766   20.9941 C   0  0  0  0  0  0  0  0  0  0  0  0
   10.0711  -15.7961   22.3720 C   0  0  0  0  0  0  0  0  0  0  0  0
   10.9312  -16.1945   23.5009 C   0  0  2  0  0  0  0  0  0  0  0  0
   10.1075  -15.7761   24.7129 N   0  0  0  0  0  0  0  0  0  0  0  0
   12.2332  -15.5492   23.6566 C   0  0  0  0  0  0  0  0  0  0  0  0
   12.3142  -14.4429   24.3248 O   0  0  0  0  0  0  0  0  0  0  0  0
   13.4345  -15.9859   23.1704 O   0  0  0  0  0  0  0  0  0  0  0  0
  2  1  1  1
  2  3  1  0
  4  6  1  0
  4  2  1  0
  4  5  1  6
  6  7  2  0
  9  8  1  0
 10  9  1  0
 11 10  1  0
 12 11  1  1
 13  6  1  0
 13 12  1  0
 14 15  2  0
 14 12  1  0
 16 17  1  0
 17 18  2  0
 19 17  1  0
 19 20  1  0
 20 21  1  0
 21 22  1  0
 23 22  1  6
 23 24  1  0
 24 14  1  0
 25 23  1  0
 25 27  1  0
 26 25  2  0
M  END
$$$$
