VMR.pdb
     RDKit          3D

 27 26  0  0  1  0  0  0  0  0999 V2000
    7.2850  -21.6646   26.8241 C   0  0  0  0  0  0  0  0  0  0  0  0
    7.4788  -20.3509   26.1232 C   0  0  1  0  0  0  0  0  0  0  0  0
    8.3567  -20.4746   24.9019 C   0  0  0  0  0  0  0  0  0  0  0  0
    6.1222  -19.7525   25.8012 C   0  0  2  0  0  0  0  0  0  0  0  0
    5.3880  -20.6095   24.8796 N   0  0  0  0  0  0  0  0  0  0  0  0
    6.3662  -18.4590   25.1374 C   0  0  0  0  0  0  0  0  0  0  0  0
    6.4303  -18.4094   23.8934 O   0  0  0  0  0  0  0  0  0  0  0  0
    7.6157  -12.0561   27.7231 C   0  0  0  0  0  0  0  0  0  0  0  0
    6.8281  -11.9546   26.0983 S   0  0  0  0  0  0  0  0  0  0  0  0
    7.0549  -13.4679   25.1898 C   0  0  0  0  0  0  0  0  0  0  0  0
    6.7743  -14.7366   25.9582 C   0  0  0  0  0  0  0  0  0  0  0  0
    6.8993  -15.9930   25.2147 C   0  0  2  0  0  0  0  0  0  0  0  0
    6.5425  -17.2171   25.7959 N   0  0  0  0  0  0  0  0  0  0  0  0
    8.2816  -16.1111   24.6784 C   0  0  0  0  0  0  0  0  0  0  0  0
    9.1691  -16.6753   25.3647 O   0  0  0  0  0  0  0  0  0  0  0  0
    8.4701  -14.3342   17.0847 N   0  0  0  0  0  0  0  0  0  0  0  0
    8.2696  -13.2865   18.0333 C   0  0  0  0  0  0  0  0  0  0  0  0
    7.8773  -12.1334   17.6585 N   0  0  0  0  0  0  0  0  0  0  0  0
    8.4964  -13.4828   19.4249 N   0  0  0  0  0  0  0  0  0  0  0  0
    7.8766  -14.5696   20.1394 C   0  0  0  0  0  0  0  0  0  0  0  0
    8.7842  -15.6823   20.5101 C   0  0  0  0  0  0  0  0  0  0  0  0
    9.8941  -15.4734   21.4279 C   0  0  0  0  0  0  0  0  0  0  0  0
    9.9782  -16.0534   22.7805 C   0  0  2  0  0  0  0  0  0  0  0  0
    8.6635  -15.6155   23.4147 N   0  0  0  0  0  0  0  0  0  0  0  0
   11.0330  -15.5917   23.6806 C   0  0  0  0  0  0  0  0  0  0  0  0
   10.7303  -14.7854   24.6477 O   0  0  0  0  0  0  0  0  0  0  0  0
   12.3596  -15.9210   23.6356 O   0  0  0  0  0  0  0  0  0  0  0  0
  2  1  1  6
  2  3  1  0
  4  6  1  0
  4  2  1  0
  4  5  1  6
  6  7  2  0
  9  8  1  0
 10  9  1  0
 11 10  1  0
 12 11  1  1
 13  6  1  0
 13 12  1  0
 14 15  2  0
 14 12  1  0
 16 17  1  0
 17 18  2  0
 19 17  1  0
 19 20  1  0
 20 21  1  0
 21 22  1  0
 23 22  1  6
 23 24  1  0
 24 14  1  0
 25 23  1  0
 25 27  1  0
 26 25  2  0
M  END
$$$$
