VMR.pdb
     RDKit          3D

 27 26  0  0  1  0  0  0  0  0999 V2000
   10.3023  -14.2519   28.2107 C   0  0  0  0  0  0  0  0  0  0  0  0
   10.8128  -15.5740   28.7070 C   0  0  1  0  0  0  0  0  0  0  0  0
   11.6915  -15.4305   29.9257 C   0  0  0  0  0  0  0  0  0  0  0  0
    9.6381  -16.5034   28.9482 C   0  0  2  0  0  0  0  0  0  0  0  0
   10.1006  -17.8131   29.3884 N   0  0  0  0  0  0  0  0  0  0  0  0
    8.9431  -16.6664   27.6583 C   0  0  0  0  0  0  0  0  0  0  0  0
    8.8313  -17.8037   27.1601 O   0  0  0  0  0  0  0  0  0  0  0  0
    6.5321  -11.3817   24.7381 C   0  0  0  0  0  0  0  0  0  0  0  0
    6.0803  -12.1782   26.2975 S   0  0  0  0  0  0  0  0  0  0  0  0
    5.8719  -13.9316   26.0750 C   0  0  0  0  0  0  0  0  0  0  0  0
    6.8807  -14.5973   25.1708 C   0  0  0  0  0  0  0  0  0  0  0  0
    7.6030  -15.7438   25.7285 C   0  0  2  0  0  0  0  0  0  0  0  0
    8.3665  -15.6200   26.8969 N   0  0  0  0  0  0  0  0  0  0  0  0
    8.4551  -16.3495   24.6706 C   0  0  0  0  0  0  0  0  0  0  0  0
    8.0051  -17.2915   23.9727 O   0  0  0  0  0  0  0  0  0  0  0  0
    9.4398  -12.0636   19.0849 N   0  0  0  0  0  0  0  0  0  0  0  0
    8.3557  -12.9507   18.8099 C   0  0  0  0  0  0  0  0  0  0  0  0
    7.3254  -12.5456   18.1786 N   0  0  0  0  0  0  0  0  0  0  0  0
    8.3786  -14.3123   19.2245 N   0  0  0  0  0  0  0  0  0  0  0  0
    9.5235  -14.8720   19.8967 C   0  0  0  0  0  0  0  0  0  0  0  0
    9.3232  -15.1868   21.3320 C   0  0  0  0  0  0  0  0  0  0  0  0
   10.4560  -15.4058   22.2190 C   0  0  0  0  0  0  0  0  0  0  0  0
   10.5388  -16.4906   23.2137 C   0  0  2  0  0  0  0  0  0  0  0  0
    9.7697  -15.9179   24.3981 N   0  0  0  0  0  0  0  0  0  0  0  0
   11.8508  -16.8725   23.7321 C   0  0  0  0  0  0  0  0  0  0  0  0
   12.1952  -16.4929   24.9213 O   0  0  0  0  0  0  0  0  0  0  0  0
   12.8043  -17.6189   23.0966 O   0  0  0  0  0  0  0  0  0  0  0  0
  2  1  1  1
  2  3  1  0
  4  6  1  0
  4  2  1  0
  4  5  1  6
  6  7  2  0
  9  8  1  0
 10  9  1  0
 11 10  1  0
 12 11  1  6
 13  6  1  0
 13 12  1  0
 14 15  2  0
 14 12  1  0
 16 17  1  0
 17 18  2  0
 19 17  1  0
 19 20  1  0
 20 21  1  0
 21 22  1  0
 23 22  1  6
 23 24  1  0
 24 14  1  0
 25 23  1  0
 25 27  1  0
 26 25  2  0
M  END
$$$$
