VMR.pdb
     RDKit          3D

 27 26  0  0  1  0  0  0  0  0999 V2000
    7.4384  -16.0705   20.0318 C   0  0  0  0  0  0  0  0  0  0  0  0
    8.0867  -14.9661   19.2476 C   0  0  1  0  0  0  0  0  0  0  0  0
    7.8230  -15.0813   17.7660 C   0  0  0  0  0  0  0  0  0  0  0  0
    7.6443  -13.6285   19.8107 C   0  0  2  0  0  0  0  0  0  0  0  0
    8.3102  -12.5334   19.1178 N   0  0  0  0  0  0  0  0  0  0  0  0
    8.0534  -13.5984   21.2267 C   0  0  0  0  0  0  0  0  0  0  0  0
    9.2647  -13.6483   21.5174 O   0  0  0  0  0  0  0  0  0  0  0  0
    6.6155  -10.5217   27.4231 C   0  0  0  0  0  0  0  0  0  0  0  0
    6.1793  -12.2758   27.3630 S   0  0  0  0  0  0  0  0  0  0  0  0
    7.1598  -13.1301   26.1481 C   0  0  0  0  0  0  0  0  0  0  0  0
    6.6389  -13.0706   24.7326 C   0  0  0  0  0  0  0  0  0  0  0  0
    7.5092  -13.6236   23.6914 C   0  0  2  0  0  0  0  0  0  0  0  0
    7.1747  -13.5152   22.3350 N   0  0  0  0  0  0  0  0  0  0  0  0
    7.7914  -15.0521   23.9945 C   0  0  0  0  0  0  0  0  0  0  0  0
    7.1183  -15.9518   23.4338 O   0  0  0  0  0  0  0  0  0  0  0  0
   13.9214  -19.5408   21.5993 N   0  0  0  0  0  0  0  0  0  0  0  0
   12.7198  -20.0652   21.0346 C   0  0  0  0  0  0  0  0  0  0  0  0
   12.7135  -21.1981   20.4509 N   0  0  0  0  0  0  0  0  0  0  0  0
   11.4891  -19.3527   21.0987 N   0  0  0  0  0  0  0  0  0  0  0  0
   11.4028  -18.0611   21.7313 C   0  0  0  0  0  0  0  0  0  0  0  0
   10.8071  -18.0603   23.0894 C   0  0  0  0  0  0  0  0  0  0  0  0
    9.9195  -16.9906   23.5205 C   0  0  0  0  0  0  0  0  0  0  0  0
    9.3169  -16.8969   24.8626 C   0  0  2  0  0  0  0  0  0  0  0  0
    8.7942  -15.4658   24.8955 N   0  0  0  0  0  0  0  0  0  0  0  0
   10.1798  -17.0376   26.0337 C   0  0  0  0  0  0  0  0  0  0  0  0
   10.2382  -18.1793   26.6420 O   0  0  0  0  0  0  0  0  0  0  0  0
   10.9754  -16.0763   26.5932 O   0  0  0  0  0  0  0  0  0  0  0  0
  2  1  1  1
  2  3  1  0
  4  6  1  0
  4  2  1  0
  4  5  1  6
  6  7  2  0
  9  8  1  0
 10  9  1  0
 11 10  1  0
 12 11  1  1
 13  6  1  0
 13 12  1  0
 14 15  2  0
 14 12  1  0
 16 17  1  0
 17 18  2  0
 19 17  1  0
 19 20  1  0
 20 21  1  0
 21 22  1  0
 23 22  1  6
 23 24  1  0
 24 14  1  0
 25 23  1  0
 25 27  1  0
 26 25  2  0
M  END
$$$$
