VMR.pdb
     RDKit          3D

 27 26  0  0  1  0  0  0  0  0999 V2000
    7.0490  -14.2832   18.3597 C   0  0  0  0  0  0  0  0  0  0  0  0
    7.4357  -14.6706   19.7579 C   0  0  1  0  0  0  0  0  0  0  0  0
    8.1665  -15.9902   19.8079 C   0  0  0  0  0  0  0  0  0  0  0  0
    8.2351  -13.5436   20.3847 C   0  0  2  0  0  0  0  0  0  0  0  0
    9.5114  -13.3770   19.7019 N   0  0  0  0  0  0  0  0  0  0  0  0
    8.5035  -13.9285   21.7823 C   0  0  0  0  0  0  0  0  0  0  0  0
    9.6542  -14.2749   22.1139 O   0  0  0  0  0  0  0  0  0  0  0  0
    8.0042  -12.0510   28.9550 C   0  0  0  0  0  0  0  0  0  0  0  0
    6.6960  -12.4693   27.7785 S   0  0  0  0  0  0  0  0  0  0  0  0
    7.2435  -13.7269   26.6445 C   0  0  0  0  0  0  0  0  0  0  0  0
    6.8936  -13.4930   25.1949 C   0  0  0  0  0  0  0  0  0  0  0  0
    7.7973  -14.0784   24.2010 C   0  0  2  0  0  0  0  0  0  0  0  0
    7.5483  -13.9453   22.8285 N   0  0  0  0  0  0  0  0  0  0  0  0
    7.9957  -15.5204   24.5064 C   0  0  0  0  0  0  0  0  0  0  0  0
    7.0475  -16.3273   24.3424 O   0  0  0  0  0  0  0  0  0  0  0  0
    9.9300  -16.8302   19.7592 N   0  0  0  0  0  0  0  0  0  0  0  0
   11.1242  -17.6034   19.8754 C   0  0  0  0  0  0  0  0  0  0  0  0
   11.6060  -18.2152   18.8665 N   0  0  0  0  0  0  0  0  0  0  0  0
   11.8217  -17.7231   21.1106 N   0  0  0  0  0  0  0  0  0  0  0  0
   11.3152  -18.5439   22.1809 C   0  0  0  0  0  0  0  0  0  0  0  0
   10.2924  -17.9014   23.0413 C   0  0  0  0  0  0  0  0  0  0  0  0
   10.3274  -18.0483   24.4887 C   0  0  0  0  0  0  0  0  0  0  0  0
    9.3085  -17.5078   25.4068 C   0  0  2  0  0  0  0  0  0  0  0  0
    9.2146  -16.0478   24.9803 N   0  0  0  0  0  0  0  0  0  0  0  0
    9.5901  -17.4912   26.8408 C   0  0  0  0  0  0  0  0  0  0  0  0
   10.0652  -16.4134   27.3790 O   0  0  0  0  0  0  0  0  0  0  0  0
    9.4025  -18.5123   27.7309 O   0  0  0  0  0  0  0  0  0  0  0  0
  2  1  1  6
  2  3  1  0
  4  6  1  0
  4  2  1  0
  4  5  1  6
  6  7  2  0
  9  8  1  0
 10  9  1  0
 11 10  1  0
 12 11  1  1
 13  6  1  0
 13 12  1  0
 14 15  2  0
 14 12  1  0
 16 17  1  0
 17 18  2  0
 19 17  1  0
 19 20  1  0
 20 21  1  0
 21 22  1  0
 23 22  1  6
 23 24  1  0
 24 14  1  0
 25 23  1  0
 25 27  1  0
 26 25  2  0
M  END
$$$$
