VMR.pdb
     RDKit          3D

 27 26  0  0  1  0  0  0  0  0999 V2000
    8.9138  -21.3543   25.6566 C   0  0  0  0  0  0  0  0  0  0  0  0
    7.6671  -21.6834   26.4261 C   0  0  1  0  0  0  0  0  0  0  0  0
    7.6104  -23.1348   26.8360 C   0  0  0  0  0  0  0  0  0  0  0  0
    7.5500  -20.7435   27.6114 C   0  0  2  0  0  0  0  0  0  0  0  0
    6.2932  -20.9591   28.3163 N   0  0  0  0  0  0  0  0  0  0  0  0
    7.5520  -19.3698   27.0763 C   0  0  0  0  0  0  0  0  0  0  0  0
    6.5504  -18.9465   26.4665 O   0  0  0  0  0  0  0  0  0  0  0  0
   10.0957  -13.9026   29.6112 C   0  0  0  0  0  0  0  0  0  0  0  0
    9.8503  -13.3577   27.9044 S   0  0  0  0  0  0  0  0  0  0  0  0
    9.1215  -14.6529   26.9255 C   0  0  0  0  0  0  0  0  0  0  0  0
    9.1889  -16.0372   27.5237 C   0  0  0  0  0  0  0  0  0  0  0  0
    8.6555  -17.1300   26.7061 C   0  0  2  0  0  0  0  0  0  0  0  0
    8.6192  -18.4448   27.1892 N   0  0  0  0  0  0  0  0  0  0  0  0
    9.3370  -17.1323   25.3842 C   0  0  0  0  0  0  0  0  0  0  0  0
   10.3211  -17.8886   25.1928 O   0  0  0  0  0  0  0  0  0  0  0  0
    7.5372  -12.0545   18.1916 N   0  0  0  0  0  0  0  0  0  0  0  0
    7.9409  -13.3185   17.6652 C   0  0  0  0  0  0  0  0  0  0  0  0
    7.7923  -13.5876   16.4284 N   0  0  0  0  0  0  0  0  0  0  0  0
    8.5214  -14.3226   18.4906 N   0  0  0  0  0  0  0  0  0  0  0  0
    8.1892  -14.4282   19.8886 C   0  0  0  0  0  0  0  0  0  0  0  0
    8.9927  -15.4091   20.6575 C   0  0  0  0  0  0  0  0  0  0  0  0
    8.7532  -15.6303   22.0758 C   0  0  0  0  0  0  0  0  0  0  0  0
    9.6298  -16.4243   22.9558 C   0  0  2  0  0  0  0  0  0  0  0  0
    8.9337  -16.3163   24.3071 N   0  0  0  0  0  0  0  0  0  0  0  0
   11.0033  -15.9749   23.1732 C   0  0  0  0  0  0  0  0  0  0  0  0
   11.9187  -16.3041   22.3184 O   0  0  0  0  0  0  0  0  0  0  0  0
   11.4680  -15.2108   24.2078 O   0  0  0  0  0  0  0  0  0  0  0  0
  2  1  1  1
  2  3  1  0
  4  6  1  0
  4  2  1  0
  4  5  1  6
  6  7  2  0
  9  8  1  0
 10  9  1  0
 11 10  1  0
 12 11  1  1
 13  6  1  0
 13 12  1  0
 14 15  2  0
 14 12  1  0
 16 17  1  0
 17 18  2  0
 19 17  1  0
 19 20  1  0
 20 21  1  0
 21 22  1  0
 23 22  1  6
 23 24  1  0
 24 14  1  0
 25 23  1  0
 25 27  1  0
 26 25  2  0
M  END
$$$$
