SMI.pdb
     RDKit          3D

 23 22  0  0  1  0  0  0  0  0999 V2000
   10.2751  -18.8021   21.7655 O   0  0  0  0  0  0  0  0  0  0  0  0
   10.9398  -18.0330   20.8155 C   0  0  0  0  0  0  0  0  0  0  0  0
   10.2480  -16.7143   20.6366 C   0  0  2  0  0  0  0  0  0  0  0  0
   10.9313  -15.9518   19.6218 N   0  0  0  0  0  0  0  0  0  0  0  0
   10.1057  -15.9626   21.9000 C   0  0  0  0  0  0  0  0  0  0  0  0
   10.9854  -15.1773   22.3289 O   0  0  0  0  0  0  0  0  0  0  0  0
    6.3803  -11.8567   26.4981 C   0  0  0  0  0  0  0  0  0  0  0  0
    6.8213  -12.8125   25.0214 S   0  0  0  0  0  0  0  0  0  0  0  0
    6.8459  -14.6052   25.4084 C   0  0  0  0  0  0  0  0  0  0  0  0
    7.1845  -15.3131   24.1331 C   0  0  0  0  0  0  0  0  0  0  0  0
    8.6706  -15.3163   23.8352 C   0  0  2  0  0  0  0  0  0  0  0  0
    8.9261  -16.1293   22.6689 N   0  0  0  0  0  0  0  0  0  0  0  0
    9.3169  -16.0146   25.0047 C   0  0  0  0  0  0  0  0  0  0  0  0
    9.0889  -17.2215   25.1393 O   0  0  0  0  0  0  0  0  0  0  0  0
   10.1999  -13.1075   29.6621 C   0  0  0  0  0  0  0  0  0  0  0  0
   10.6796  -13.7234   28.3373 C   0  0  0  0  0  0  0  0  0  0  0  0
   10.4083  -15.2090   28.3938 C   0  0  2  0  0  0  0  0  0  0  0  0
   11.4332  -15.7418   29.3828 C   0  0  0  0  0  0  0  0  0  0  0  0
   10.6243  -15.9189   27.1020 C   0  0  2  0  0  0  0  0  0  0  0  0
   10.1376  -15.3660   25.9118 N   0  0  0  0  0  0  0  0  0  0  0  0
   10.3039  -17.3379   27.2040 C   0  0  0  0  0  0  0  0  0  0  0  0
    8.9484  -17.6940   27.3885 O   0  0  0  0  0  0  0  0  0  0  0  0
   11.0884  -18.3013   27.1485 O   0  0  0  0  0  0  0  0  0  0  0  0
  2  1  1  0
  3  2  1  0
  3  4  1  6
  3  5  1  0
  5 12  1  0
  5  6  2  0
  7  8  1  0
  8  9  1  0
  9 10  1  0
 11 10  1  1
 11 13  1  0
 12 11  1  0
 13 14  2  0
 16 15  1  0
 17 18  1  1
 17 16  1  0
 19 17  1  0
 20 13  1  0
 19 20  1  6
 21 22  1  0
 21 19  1  0
 23 21  2  0
M  END
$$$$
