SMI.pdb
     RDKit          3D

 23 22  0  0  1  0  0  0  0  0999 V2000
   11.1001  -18.6368   21.7696 O   0  0  0  0  0  0  0  0  0  0  0  0
   10.0537  -18.3244   20.9076 C   0  0  0  0  0  0  0  0  0  0  0  0
    9.9661  -16.8400   20.7118 C   0  0  2  0  0  0  0  0  0  0  0  0
   11.0903  -16.3959   19.9263 N   0  0  0  0  0  0  0  0  0  0  0  0
    9.8440  -16.0977   21.9829 C   0  0  0  0  0  0  0  0  0  0  0  0
   10.7624  -15.3764   22.4421 O   0  0  0  0  0  0  0  0  0  0  0  0
    6.5300  -11.9568   26.7148 C   0  0  0  0  0  0  0  0  0  0  0  0
    6.9258  -12.9224   25.2317 S   0  0  0  0  0  0  0  0  0  0  0  0
    6.6377  -14.7075   25.5396 C   0  0  0  0  0  0  0  0  0  0  0  0
    6.9413  -15.4170   24.2564 C   0  0  0  0  0  0  0  0  0  0  0  0
    8.4149  -15.3944   23.9026 C   0  0  2  0  0  0  0  0  0  0  0  0
    8.6394  -16.1987   22.7240 N   0  0  0  0  0  0  0  0  0  0  0  0
    9.1164  -16.0862   25.0438 C   0  0  0  0  0  0  0  0  0  0  0  0
    9.1262  -17.3217   25.0362 O   0  0  0  0  0  0  0  0  0  0  0  0
   10.4217  -12.9724   29.5425 C   0  0  0  0  0  0  0  0  0  0  0  0
   10.8142  -13.7651   28.2847 C   0  0  0  0  0  0  0  0  0  0  0  0
   10.3752  -15.1971   28.4857 C   0  0  2  0  0  0  0  0  0  0  0  0
   11.4820  -15.8162   29.3247 C   0  0  0  0  0  0  0  0  0  0  0  0
   10.2747  -15.9875   27.2269 C   0  0  2  0  0  0  0  0  0  0  0  0
    9.7355  -15.4014   26.0759 N   0  0  0  0  0  0  0  0  0  0  0  0
    9.7178  -17.3143   27.4639 C   0  0  0  0  0  0  0  0  0  0  0  0
   10.6230  -18.3887   27.6200 O   0  0  0  0  0  0  0  0  0  0  0  0
    8.5185  -17.6324   27.5487 O   0  0  0  0  0  0  0  0  0  0  0  0
  2  1  1  0
  3  2  1  0
  3  4  1  1
  3  5  1  0
  5 12  1  0
  5  6  2  0
  7  8  1  0
  8  9  1  0
  9 10  1  0
 11 10  1  1
 11 13  1  0
 12 11  1  0
 13 14  2  0
 16 15  1  0
 17 18  1  1
 17 16  1  0
 19 17  1  0
 20 13  1  0
 19 20  1  6
 21 22  1  0
 21 19  1  0
 23 21  2  0
M  END
$$$$
