SMI.pdb
     RDKit          3D

 23 22  0  0  1  0  0  0  0  0999 V2000
    9.5452  -19.0522   21.6201 O   0  0  0  0  0  0  0  0  0  0  0  0
    8.4174  -18.4315   21.0925 C   0  0  0  0  0  0  0  0  0  0  0  0
    8.7760  -17.0853   20.5369 C   0  0  2  0  0  0  0  0  0  0  0  0
    9.6985  -17.2523   19.4418 N   0  0  0  0  0  0  0  0  0  0  0  0
    9.2898  -16.1566   21.5640 C   0  0  0  0  0  0  0  0  0  0  0  0
   10.4795  -15.7587   21.5895 O   0  0  0  0  0  0  0  0  0  0  0  0
    5.6406  -12.8576   26.7994 C   0  0  0  0  0  0  0  0  0  0  0  0
    6.5580  -11.9800   25.5045 S   0  0  0  0  0  0  0  0  0  0  0  0
    8.0856  -12.8992   25.0734 C   0  0  0  0  0  0  0  0  0  0  0  0
    7.6823  -13.9688   24.1061 C   0  0  0  0  0  0  0  0  0  0  0  0
    8.8571  -14.7816   23.5999 C   0  0  2  0  0  0  0  0  0  0  0  0
    8.4068  -15.6888   22.5700 N   0  0  0  0  0  0  0  0  0  0  0  0
    9.2967  -15.6289   24.7668 C   0  0  0  0  0  0  0  0  0  0  0  0
    8.7793  -16.7450   24.8823 O   0  0  0  0  0  0  0  0  0  0  0  0
    9.8067  -13.4944   29.6735 C   0  0  0  0  0  0  0  0  0  0  0  0
   10.4454  -13.9072   28.3371 C   0  0  0  0  0  0  0  0  0  0  0  0
   10.2755  -15.4013   28.1860 C   0  0  2  0  0  0  0  0  0  0  0  0
   11.2698  -15.9950   29.1715 C   0  0  0  0  0  0  0  0  0  0  0  0
   10.6226  -15.9218   26.8340 C   0  0  2  0  0  0  0  0  0  0  0  0
   10.2378  -15.2100   25.6920 N   0  0  0  0  0  0  0  0  0  0  0  0
   10.3199  -17.3428   26.7070 C   0  0  0  0  0  0  0  0  0  0  0  0
    8.9623  -17.7328   26.7596 O   0  0  0  0  0  0  0  0  0  0  0  0
   11.1217  -18.2811   26.5546 O   0  0  0  0  0  0  0  0  0  0  0  0
  2  1  1  0
  3  2  1  0
  3  4  1  6
  3  5  1  0
  5 12  1  0
  5  6  2  0
  7  8  1  0
  8  9  1  0
  9 10  1  0
 11 10  1  1
 11 13  1  0
 12 11  1  0
 13 14  2  0
 16 15  1  0
 17 18  1  1
 17 16  1  0
 19 17  1  0
 20 13  1  0
 19 20  1  6
 21 22  1  0
 21 19  1  0
 23 21  2  0
M  END
$$$$
