SMI.pdb
     RDKit          3D

 23 22  0  0  1  0  0  0  0  0999 V2000
   10.0929  -18.9832   21.2442 O   0  0  0  0  0  0  0  0  0  0  0  0
    8.8916  -18.4577   20.7790 C   0  0  0  0  0  0  0  0  0  0  0  0
    9.0827  -17.0393   20.3307 C   0  0  2  0  0  0  0  0  0  0  0  0
   10.0296  -17.0066   19.2441 N   0  0  0  0  0  0  0  0  0  0  0  0
    9.4650  -16.1335   21.4329 C   0  0  0  0  0  0  0  0  0  0  0  0
   10.6271  -15.6807   21.5713 O   0  0  0  0  0  0  0  0  0  0  0  0
    5.0232  -13.6313   26.0229 C   0  0  0  0  0  0  0  0  0  0  0  0
    6.1373  -12.3660   25.3547 S   0  0  0  0  0  0  0  0  0  0  0  0
    7.7690  -13.1025   24.9554 C   0  0  0  0  0  0  0  0  0  0  0  0
    7.5217  -14.1514   23.9159 C   0  0  0  0  0  0  0  0  0  0  0  0
    8.7916  -14.8393   23.4562 C   0  0  2  0  0  0  0  0  0  0  0  0
    8.4821  -15.7533   22.3814 N   0  0  0  0  0  0  0  0  0  0  0  0
    9.2448  -15.6767   24.6251 C   0  0  0  0  0  0  0  0  0  0  0  0
    9.5016  -16.8649   24.4039 O   0  0  0  0  0  0  0  0  0  0  0  0
   11.5309  -14.5284   30.3064 C   0  0  0  0  0  0  0  0  0  0  0  0
   11.4637  -15.4651   29.0889 C   0  0  0  0  0  0  0  0  0  0  0  0
   10.6749  -14.7622   28.0084 C   0  0  2  0  0  0  0  0  0  0  0  0
    9.3960  -14.3207   28.7024 C   0  0  0  0  0  0  0  0  0  0  0  0
   10.2843  -15.6389   26.8690 C   0  0  2  0  0  0  0  0  0  0  0  0
    9.3802  -15.1727   25.9076 N   0  0  0  0  0  0  0  0  0  0  0  0
    9.9464  -16.9860   27.3138 C   0  0  0  0  0  0  0  0  0  0  0  0
    8.5788  -17.3413   27.3538 O   0  0  0  0  0  0  0  0  0  0  0  0
   10.7251  -17.8871   27.6720 O   0  0  0  0  0  0  0  0  0  0  0  0
  2  1  1  0
  3  2  1  0
  3  4  1  6
  3  5  1  0
  5 12  1  0
  5  6  2  0
  7  8  1  0
  8  9  1  0
  9 10  1  0
 11 10  1  1
 11 13  1  0
 12 11  1  0
 13 14  2  0
 16 15  1  0
 17 18  1  1
 17 16  1  0
 19 17  1  0
 20 13  1  0
 19 20  1  1
 21 22  1  0
 21 19  1  0
 23 21  2  0
M  END
$$$$
