SMI.pdb
     RDKit          3D

 23 22  0  0  1  0  0  0  0  0999 V2000
    9.6210  -18.8270   21.9590 O   0  0  0  0  0  0  0  0  0  0  0  0
   10.1427  -18.2872   20.7876 C   0  0  0  0  0  0  0  0  0  0  0  0
    9.6171  -16.8987   20.5750 C   0  0  2  0  0  0  0  0  0  0  0  0
   10.2402  -16.3270   19.4075 N   0  0  0  0  0  0  0  0  0  0  0  0
    9.7656  -16.0380   21.7661 C   0  0  0  0  0  0  0  0  0  0  0  0
   10.8548  -15.5069   22.0919 O   0  0  0  0  0  0  0  0  0  0  0  0
    5.5187  -11.7953   26.9108 C   0  0  0  0  0  0  0  0  0  0  0  0
    5.6051  -13.0219   25.5779 S   0  0  0  0  0  0  0  0  0  0  0  0
    7.3373  -13.5728   25.3321 C   0  0  0  0  0  0  0  0  0  0  0  0
    7.3360  -14.4627   24.1278 C   0  0  0  0  0  0  0  0  0  0  0  0
    8.7200  -14.9555   23.7554 C   0  0  2  0  0  0  0  0  0  0  0  0
    8.6328  -15.7957   22.5836 N   0  0  0  0  0  0  0  0  0  0  0  0
    9.1558  -15.8401   24.8958 C   0  0  0  0  0  0  0  0  0  0  0  0
    9.1021  -17.0615   24.7169 O   0  0  0  0  0  0  0  0  0  0  0  0
   10.5831  -13.2384   29.4862 C   0  0  0  0  0  0  0  0  0  0  0  0
   11.1229  -14.1299   28.3556 C   0  0  0  0  0  0  0  0  0  0  0  0
   10.4408  -15.4743   28.4620 C   0  0  2  0  0  0  0  0  0  0  0  0
   11.4556  -16.3564   29.1723 C   0  0  0  0  0  0  0  0  0  0  0  0
   10.1377  -16.1109   27.1496 C   0  0  2  0  0  0  0  0  0  0  0  0
    9.6037  -15.3433   26.1082 N   0  0  0  0  0  0  0  0  0  0  0  0
    9.4180  -17.3689   27.3117 C   0  0  0  0  0  0  0  0  0  0  0  0
   10.1767  -18.5613   27.3387 O   0  0  0  0  0  0  0  0  0  0  0  0
    8.1913  -17.5340   27.4324 O   0  0  0  0  0  0  0  0  0  0  0  0
  2  1  1  0
  3  2  1  0
  3  4  1  6
  3  5  1  0
  5 12  1  0
  5  6  2  0
  7  8  1  0
  8  9  1  0
  9 10  1  0
 11 10  1  1
 11 13  1  0
 12 11  1  0
 13 14  2  0
 16 15  1  0
 17 18  1  1
 17 16  1  0
 19 17  1  0
 20 13  1  0
 19 20  1  6
 21 22  1  0
 21 19  1  0
 23 21  2  0
M  END
$$$$
