SMI.pdb
     RDKit          3D

 23 22  0  0  1  0  0  0  0  0999 V2000
   10.9567  -18.3172   21.1839 O   0  0  0  0  0  0  0  0  0  0  0  0
    9.7213  -17.9411   20.6663 C   0  0  0  0  0  0  0  0  0  0  0  0
    9.6560  -16.4514   20.5054 C   0  0  2  0  0  0  0  0  0  0  0  0
   10.7022  -16.0225   19.6111 N   0  0  0  0  0  0  0  0  0  0  0  0
    9.6918  -15.7308   21.7941 C   0  0  0  0  0  0  0  0  0  0  0  0
   10.7303  -15.1882   22.2432 O   0  0  0  0  0  0  0  0  0  0  0  0
    6.5278  -11.1618   24.9767 C   0  0  0  0  0  0  0  0  0  0  0  0
    5.7206  -12.6958   25.5096 S   0  0  0  0  0  0  0  0  0  0  0  0
    6.9435  -14.0599   25.5989 C   0  0  0  0  0  0  0  0  0  0  0  0
    7.0673  -14.6144   24.2135 C   0  0  0  0  0  0  0  0  0  0  0  0
    8.4921  -14.9803   23.8483 C   0  0  2  0  0  0  0  0  0  0  0  0
    8.5050  -15.6432   22.5650 N   0  0  0  0  0  0  0  0  0  0  0  0
    8.9236  -16.0002   24.8713 C   0  0  0  0  0  0  0  0  0  0  0  0
    9.3248  -17.0900   24.4493 O   0  0  0  0  0  0  0  0  0  0  0  0
   11.3331  -14.0846   30.1965 C   0  0  0  0  0  0  0  0  0  0  0  0
   11.3457  -15.1530   29.0907 C   0  0  0  0  0  0  0  0  0  0  0  0
   10.2425  -14.8192   28.1133 C   0  0  2  0  0  0  0  0  0  0  0  0
    8.9992  -14.6883   28.9790 C   0  0  0  0  0  0  0  0  0  0  0  0
    9.9751  -15.8845   27.1069 C   0  0  2  0  0  0  0  0  0  0  0  0
    8.8868  -15.7640   26.2352 N   0  0  0  0  0  0  0  0  0  0  0  0
   10.0440  -17.2163   27.6972 C   0  0  0  0  0  0  0  0  0  0  0  0
    8.9078  -18.0484   27.5760 O   0  0  0  0  0  0  0  0  0  0  0  0
   10.9971  -17.7290   28.3097 O   0  0  0  0  0  0  0  0  0  0  0  0
  2  1  1  0
  3  2  1  0
  3  4  1  6
  3  5  1  0
  5 12  1  0
  5  6  2  0
  7  8  1  0
  8  9  1  0
  9 10  1  0
 11 10  1  1
 11 13  1  0
 12 11  1  0
 13 14  2  0
 16 15  1  0
 17 18  1  1
 17 16  1  0
 19 17  1  0
 20 13  1  0
 19 20  1  1
 21 22  1  0
 21 19  1  0
 23 21  2  0
M  END
$$$$
