KYD.pdb
     RDKit          3D

 30 30  0  0  1  0  0  0  0  0999 V2000
   23.7978  -12.8782  -16.3906 N   0  0  0  0  0  0  0  0  0  0  0  0
   22.7185  -12.1551  -17.0723 C   0  0  1  0  0  0  0  0  0  0  0  0
   21.5316  -13.0752  -17.2702 C   0  0  0  0  0  0  0  0  0  0  0  0
   21.8579  -14.2681  -18.1021 C   0  0  0  0  0  0  0  0  0  0  0  0
   20.6510  -15.1365  -18.3838 C   0  0  0  0  0  0  0  0  0  0  0  0
   21.0412  -16.2869  -19.2876 C   0  0  0  0  0  0  0  0  0  0  0  0
   19.8896  -17.1701  -19.4282 N   0  0  0  0  0  0  0  0  0  0  0  0
   22.3680  -10.9996  -16.2074 C   0  0  0  0  0  0  0  0  0  0  0  0
   21.8789  -11.1437  -15.0581 O   0  0  0  0  0  0  0  0  0  0  0  0
   21.7622   -2.3736  -13.8886 O   0  0  0  0  0  0  0  0  0  0  0  0
   22.1165   -3.6265  -14.3734 C   0  0  0  0  0  0  0  0  0  0  0  0
   22.0888   -4.7522  -13.5621 C   0  0  0  0  0  0  0  0  0  0  0  0
   22.4494   -5.9840  -14.0825 C   0  0  0  0  0  0  0  0  0  0  0  0
   22.8372   -6.1243  -15.3911 C   0  0  0  0  0  0  0  0  0  0  0  0
   23.2140   -7.4281  -15.9220 C   0  0  0  0  0  0  0  0  0  0  0  0
   22.1563   -8.4914  -15.8720 C   0  0  2  0  0  0  0  0  0  0  0  0
   22.5698   -9.6514  -16.6389 N   0  0  0  0  0  0  0  0  0  0  0  0
   20.7972   -8.0581  -16.2314 C   0  0  0  0  0  0  0  0  0  0  0  0
   20.4182   -7.9831  -17.4225 O   0  0  0  0  0  0  0  0  0  0  0  0
   22.8718   -5.0179  -16.2151 C   0  0  0  0  0  0  0  0  0  0  0  0
   22.5097   -3.8028  -15.6785 C   0  0  0  0  0  0  0  0  0  0  0  0
   19.8541   -7.7076  -15.2245 N   0  0  0  0  0  0  0  0  0  0  0  0
   18.5450   -7.2159  -15.3880 C   0  0  1  0  0  0  0  0  0  0  0  0
   17.3937   -8.0488  -15.0040 C   0  0  0  0  0  0  0  0  0  0  0  0
   16.3151   -7.9900  -16.0058 C   0  0  0  0  0  0  0  0  0  0  0  0
   16.3074   -7.2972  -17.0487 O   0  0  0  0  0  0  0  0  0  0  0  0
   18.3959   -5.8307  -14.7851 C   0  0  0  0  0  0  0  0  0  0  0  0
   18.7296   -5.6730  -13.5982 O   0  0  0  0  0  0  0  0  0  0  0  0
   15.1844   -8.7728  -15.7937 O   0  0  0  0  0  0  0  0  0  0  0  0
   17.9070   -4.7597  -15.5112 O   0  0  0  0  0  0  0  0  0  0  0  0
  2  1  1  1
  3  4  1  0
  3  2  1  0
  5  6  1  0
  5  4  1  0
  6  7  1  0
  8  2  1  0
  8  9  2  0
 10 11  1  0
 11 12  2  0
 12 13  1  0
 14 15  1  0
 14 13  2  0
 16 17  1  0
 16 15  1  6
 17  8  1  0
 18 16  1  0
 19 18  2  0
 20 14  1  0
 21 20  2  0
 21 11  1  0
 22 18  1  0
 23 22  1  0
 24 25  1  0
 23 24  1  1
 25 26  2  0
 27 23  1  0
 27 30  1  0
 28 27  2  0
 29 25  1  0
M  END
$$$$
