KYD.pdb
     RDKit          3D

 30 30  0  0  1  0  0  0  0  0999 V2000
   28.2942  -23.4496  -17.5524 N   0  0  0  0  0  0  0  0  0  0  0  0
   28.3424  -22.1562  -16.8617 C   0  0  1  0  0  0  0  0  0  0  0  0
   28.1744  -21.0338  -17.8649 C   0  0  0  0  0  0  0  0  0  0  0  0
   28.0351  -21.5264  -19.2647 C   0  0  0  0  0  0  0  0  0  0  0  0
   26.5940  -21.6048  -19.7198 C   0  0  0  0  0  0  0  0  0  0  0  0
   26.5342  -21.9783  -21.1859 C   0  0  0  0  0  0  0  0  0  0  0  0
   25.1331  -22.0621  -21.5806 N   0  0  0  0  0  0  0  0  0  0  0  0
   27.2380  -22.1628  -15.8684 C   0  0  0  0  0  0  0  0  0  0  0  0
   26.3132  -23.0141  -15.8967 O   0  0  0  0  0  0  0  0  0  0  0  0
   22.9448  -20.3454   -8.2765 O   0  0  0  0  0  0  0  0  0  0  0  0
   23.8677  -20.4306   -9.3115 C   0  0  0  0  0  0  0  0  0  0  0  0
   25.0070  -21.2160   -9.2043 C   0  0  0  0  0  0  0  0  0  0  0  0
   25.9036  -21.2748  -10.2582 C   0  0  0  0  0  0  0  0  0  0  0  0
   25.6951  -20.5713  -11.4176 C   0  0  0  0  0  0  0  0  0  0  0  0
   26.6493  -20.6443  -12.5166 C   0  0  0  0  0  0  0  0  0  0  0  0
   26.1173  -21.1682  -13.8183 C   0  0  2  0  0  0  0  0  0  0  0  0
   27.1674  -21.1942  -14.8191 N   0  0  0  0  0  0  0  0  0  0  0  0
   24.9016  -20.5110  -14.3225 C   0  0  0  0  0  0  0  0  0  0  0  0
   24.9502  -19.5623  -15.1385 O   0  0  0  0  0  0  0  0  0  0  0  0
   24.5687  -19.7843  -11.5452 C   0  0  0  0  0  0  0  0  0  0  0  0
   23.6901  -19.7395  -10.4862 C   0  0  0  0  0  0  0  0  0  0  0  0
   23.6124  -20.9385  -13.8967 N   0  0  0  0  0  0  0  0  0  0  0  0
   22.3776  -20.7741  -14.5529 C   0  0  1  0  0  0  0  0  0  0  0  0
   22.2370  -21.1682  -15.9641 C   0  0  0  0  0  0  0  0  0  0  0  0
   20.9175  -20.8018  -16.5076 C   0  0  0  0  0  0  0  0  0  0  0  0
   20.6130  -19.7139  -17.0476 O   0  0  0  0  0  0  0  0  0  0  0  0
   21.2384  -21.3655  -13.7424 C   0  0  0  0  0  0  0  0  0  0  0  0
   21.4453  -22.4323  -13.1390 O   0  0  0  0  0  0  0  0  0  0  0  0
   19.8941  -21.7409  -16.4243 O   0  0  0  0  0  0  0  0  0  0  0  0
   19.9988  -20.7572  -13.6606 O   0  0  0  0  0  0  0  0  0  0  0  0
  2  1  1  6
  3  4  1  0
  3  2  1  0
  5  6  1  0
  5  4  1  0
  6  7  1  0
  8  2  1  0
  8  9  2  0
 10 11  1  0
 11 12  2  0
 12 13  1  0
 14 15  1  0
 14 13  2  0
 16 17  1  0
 16 15  1  1
 17  8  1  0
 18 16  1  0
 19 18  2  0
 20 14  1  0
 21 20  2  0
 21 11  1  0
 22 18  1  0
 23 22  1  0
 24 25  1  0
 23 24  1  6
 25 26  2  0
 27 23  1  0
 27 30  1  0
 28 27  2  0
 29 25  1  0
M  END
$$$$
