KYD.pdb
     RDKit          3D

 30 30  0  0  1  0  0  0  0  0999 V2000
   31.1105  -29.1125  -17.9096 N   0  0  0  0  0  0  0  0  0  0  0  0
   31.7360  -30.1987  -17.1472 C   0  0  1  0  0  0  0  0  0  0  0  0
   30.8657  -31.4368  -17.2124 C   0  0  0  0  0  0  0  0  0  0  0  0
   29.6159  -31.3070  -16.4109 C   0  0  0  0  0  0  0  0  0  0  0  0
   28.7671  -32.5595  -16.4381 C   0  0  0  0  0  0  0  0  0  0  0  0
   27.5060  -32.3476  -15.6274 C   0  0  0  0  0  0  0  0  0  0  0  0
   26.6348  -33.4998  -15.8255 N   0  0  0  0  0  0  0  0  0  0  0  0
   33.0658  -30.4401  -17.7634 C   0  0  0  0  0  0  0  0  0  0  0  0
   33.4467  -29.8370  -18.7988 O   0  0  0  0  0  0  0  0  0  0  0  0
   39.3368  -26.6146  -16.8780 O   0  0  0  0  0  0  0  0  0  0  0  0
   38.6108  -27.7981  -16.8303 C   0  0  0  0  0  0  0  0  0  0  0  0
   38.9515  -28.8899  -17.6165 C   0  0  0  0  0  0  0  0  0  0  0  0
   38.2028  -30.0526  -17.5406 C   0  0  0  0  0  0  0  0  0  0  0  0
   37.1224  -30.1566  -16.7013 C   0  0  0  0  0  0  0  0  0  0  0  0
   36.3452  -31.3876  -16.6345 C   0  0  0  0  0  0  0  0  0  0  0  0
   35.3309  -31.5871  -17.7224 C   0  0  2  0  0  0  0  0  0  0  0  0
   33.9907  -31.3781  -17.2076 N   0  0  0  0  0  0  0  0  0  0  0  0
   35.4357  -32.8497  -18.4699 C   0  0  0  0  0  0  0  0  0  0  0  0
   34.6826  -33.8228  -18.2371 O   0  0  0  0  0  0  0  0  0  0  0  0
   36.7663  -29.0830  -15.9108 C   0  0  0  0  0  0  0  0  0  0  0  0
   37.5234  -27.9367  -16.0012 C   0  0  0  0  0  0  0  0  0  0  0  0
   36.4071  -33.0092  -19.4980 N   0  0  0  0  0  0  0  0  0  0  0  0
   36.6470  -34.1380  -20.3045 C   0  0  1  0  0  0  0  0  0  0  0  0
   37.4898  -34.0177  -21.5053 C   0  0  0  0  0  0  0  0  0  0  0  0
   36.8955  -33.1130  -22.5048 C   0  0  0  0  0  0  0  0  0  0  0  0
   35.7103  -32.7099  -22.5296 O   0  0  0  0  0  0  0  0  0  0  0  0
   37.1085  -35.3220  -19.4742 C   0  0  0  0  0  0  0  0  0  0  0  0
   37.3262  -35.1359  -18.2646 O   0  0  0  0  0  0  0  0  0  0  0  0
   37.7122  -32.6478  -23.5309 O   0  0  0  0  0  0  0  0  0  0  0  0
   37.2893  -36.5797  -20.0208 O   0  0  0  0  0  0  0  0  0  0  0  0
  2  1  1  6
  3  4  1  0
  3  2  1  0
  5  6  1  0
  5  4  1  0
  6  7  1  0
  8  2  1  0
  8  9  2  0
 10 11  1  0
 11 12  2  0
 12 13  1  0
 14 15  1  0
 14 13  2  0
 16 17  1  0
 16 15  1  1
 17  8  1  0
 18 16  1  0
 19 18  2  0
 20 14  1  0
 21 20  2  0
 21 11  1  0
 22 18  1  0
 23 22  1  0
 24 25  1  0
 23 24  1  6
 25 26  2  0
 27 23  1  0
 27 30  1  0
 28 27  2  0
 29 25  1  0
M  END
$$$$
