KYD.pdb
     RDKit          3D

 30 30  0  0  1  0  0  0  0  0999 V2000
   22.0393  -32.9258   -7.9685 N   0  0  0  0  0  0  0  0  0  0  0  0
   21.2635  -33.4694   -6.8482 C   0  0  1  0  0  0  0  0  0  0  0  0
   21.8209  -34.8195   -6.4472 C   0  0  0  0  0  0  0  0  0  0  0  0
   23.1197  -35.1282   -7.1100 C   0  0  0  0  0  0  0  0  0  0  0  0
   24.3133  -34.8533   -6.2214 C   0  0  0  0  0  0  0  0  0  0  0  0
   25.5799  -35.3449   -6.8898 C   0  0  0  0  0  0  0  0  0  0  0  0
   26.6897  -35.1570   -5.9630 N   0  0  0  0  0  0  0  0  0  0  0  0
   21.3737  -32.4882   -5.7385 C   0  0  0  0  0  0  0  0  0  0  0  0
   22.2797  -31.6174   -5.6983 O   0  0  0  0  0  0  0  0  0  0  0  0
   19.2840  -26.1202   -0.2250 O   0  0  0  0  0  0  0  0  0  0  0  0
   19.3864  -27.1418   -1.1610 C   0  0  0  0  0  0  0  0  0  0  0  0
   20.4736  -27.2329   -2.0188 C   0  0  0  0  0  0  0  0  0  0  0  0
   20.5393  -28.2662   -2.9386 C   0  0  0  0  0  0  0  0  0  0  0  0
   19.5495  -29.2124   -3.0266 C   0  0  0  0  0  0  0  0  0  0  0  0
   19.6345  -30.2928   -4.0009 C   0  0  0  0  0  0  0  0  0  0  0  0
   20.4533  -31.4834   -3.5958 C   0  0  2  0  0  0  0  0  0  0  0  0
   20.4482  -32.4815   -4.6487 N   0  0  0  0  0  0  0  0  0  0  0  0
   20.1232  -32.0707   -2.2881 C   0  0  0  0  0  0  0  0  0  0  0  0
   19.0902  -32.7558   -2.1103 O   0  0  0  0  0  0  0  0  0  0  0  0
   18.4597  -29.1406   -2.1831 C   0  0  0  0  0  0  0  0  0  0  0  0
   18.4135  -28.1058   -1.2761 C   0  0  0  0  0  0  0  0  0  0  0  0
   20.9793  -31.8800   -1.1669 N   0  0  0  0  0  0  0  0  0  0  0  0
   20.8284  -32.3786    0.1411 C   0  0  1  0  0  0  0  0  0  0  0  0
   22.0169  -32.7291    0.9357 C   0  0  0  0  0  0  0  0  0  0  0  0
   21.6920  -33.6659    2.0254 C   0  0  0  0  0  0  0  0  0  0  0  0
   20.6433  -34.3409    2.1363 O   0  0  0  0  0  0  0  0  0  0  0  0
   19.9058  -31.4984    0.9648 C   0  0  0  0  0  0  0  0  0  0  0  0
   20.2068  -30.2994    1.0944 O   0  0  0  0  0  0  0  0  0  0  0  0
   22.6273  -33.8337    3.0420 O   0  0  0  0  0  0  0  0  0  0  0  0
   18.7593  -31.9892    1.5633 O   0  0  0  0  0  0  0  0  0  0  0  0
  2  1  1  6
  3  4  1  0
  3  2  1  0
  5  6  1  0
  5  4  1  0
  6  7  1  0
  8  2  1  0
  8  9  2  0
 10 11  1  0
 11 12  2  0
 12 13  1  0
 14 15  1  0
 14 13  2  0
 16 17  1  0
 16 15  1  6
 17  8  1  0
 18 16  1  0
 19 18  2  0
 20 14  1  0
 21 20  2  0
 21 11  1  0
 22 18  1  0
 23 22  1  0
 24 25  1  0
 23 24  1  1
 25 26  2  0
 27 23  1  0
 27 30  1  0
 28 27  2  0
 29 25  1  0
M  END
$$$$
