QVW.pdb
     RDKit          3D

 31 32  0  0  1  0  0  0  0  0999 V2000
   27.5772  -23.4914  -18.8660 N   0  0  0  0  0  0  0  0  0  0  0  0
   28.0060  -24.6602  -18.1605 C   0  0  0  0  0  0  0  0  0  0  0  0
   27.3979  -25.7385  -18.3181 O   0  0  0  0  0  0  0  0  0  0  0  0
   29.1655  -24.5881  -17.2561 C   0  0  0  0  0  0  0  0  0  0  0  0
   29.7897  -23.2600  -17.0826 C   0  0  0  0  0  0  0  0  0  0  0  0
   28.9515  -22.0395  -17.0819 C   0  0  2  0  0  0  0  0  0  0  0  0
   29.5245  -21.1606  -18.1521 N   0  0  0  0  0  0  0  0  0  0  0  0
   28.9074  -21.2365  -15.8740 C   0  0  0  0  0  0  0  0  0  0  0  0
   29.7302  -20.2840  -15.7182 O   0  0  0  0  0  0  0  0  0  0  0  0
   26.8443  -18.1775  -13.4681 C   0  0  0  0  0  0  0  0  0  0  0  0
   27.3399  -19.1763  -14.5066 C   0  0  1  0  0  0  0  0  0  0  0  0
   28.4909  -18.5331  -15.2240 C   0  0  0  0  0  0  0  0  0  0  0  0
   27.8219  -20.4134  -13.7608 C   0  0  2  0  0  0  0  0  0  0  0  0
   27.9782  -21.4265  -14.8147 N   0  0  0  0  0  0  0  0  0  0  0  0
   26.8527  -20.9038  -12.7951 C   0  0  0  0  0  0  0  0  0  0  0  0
   25.7252  -21.3298  -13.1523 O   0  0  0  0  0  0  0  0  0  0  0  0
   27.0981  -20.9420  -11.3774 N   0  0  0  0  0  0  0  0  0  0  0  0
   26.1780  -21.5272  -10.4358 C   0  0  1  0  0  0  0  0  0  0  0  0
   26.7304  -21.7740   -9.0713 C   0  0  0  0  0  0  0  0  0  0  0  0
   26.8409  -20.6264   -8.1856 C   0  0  0  0  0  0  0  0  0  0  0  0
   26.1078  -19.4625   -8.2623 C   0  0  0  0  0  0  0  0  0  0  0  0
   26.5140  -18.6403   -7.2755 N   0  0  0  0  0  0  0  0  0  0  0  0
   27.4883  -19.2480   -6.5683 C   0  0  0  0  0  0  0  0  0  0  0  0
   28.2373  -18.8792   -5.4792 C   0  0  0  0  0  0  0  0  0  0  0  0
   29.1846  -19.6812   -4.9193 C   0  0  0  0  0  0  0  0  0  0  0  0
   29.4139  -20.9143   -5.4533 C   0  0  0  0  0  0  0  0  0  0  0  0
   28.6763  -21.3098   -6.5469 C   0  0  0  0  0  0  0  0  0  0  0  0
   27.7088  -20.5042   -7.1283 C   0  0  0  0  0  0  0  0  0  0  0  0
   24.9028  -20.7825  -10.4138 C   0  0  0  0  0  0  0  0  0  0  0  0
   23.7532  -21.4164   -9.9810 O   0  0  0  0  0  0  0  0  0  0  0  0
   24.8134  -19.5873  -10.7739 O   0  0  0  0  0  0  0  0  0  0  0  0
  1  2  1  0
  2  4  1  0
  3  2  2  0
  4  5  1  0
  6  7  1  6
  6  5  1  0
  8  9  2  0
  8  6  1  0
 11 10  1  1
 11 13  1  0
 12 11  1  0
 13 14  1  6
 14  8  1  0
 15 13  1  0
 15 17  1  0
 16 15  2  0
 18 17  1  0
 18 29  1  0
 19 20  1  0
 18 19  1  1
 20 28  1  0
 21 22  1  0
 21 20  2  0
 22 23  1  0
 23 28  2  0
 23 24  1  0
 24 25  2  0
 25 26  1  0
 27 26  2  0
 28 27  1  0
 29 31  2  0
 29 30  1  0
M  END
$$$$
