QVW.pdb
     RDKit          3D

 31 32  0  0  1  0  0  0  0  0999 V2000
   28.6488  -23.6045  -20.1094 N   0  0  0  0  0  0  0  0  0  0  0  0
   27.6565  -24.6197  -19.9287 C   0  0  0  0  0  0  0  0  0  0  0  0
   27.0481  -25.0763  -20.9180 O   0  0  0  0  0  0  0  0  0  0  0  0
   27.3609  -25.1257  -18.5780 C   0  0  0  0  0  0  0  0  0  0  0  0
   28.1928  -24.5995  -17.4760 C   0  0  0  0  0  0  0  0  0  0  0  0
   28.7450  -23.2278  -17.5515 C   0  0  2  0  0  0  0  0  0  0  0  0
   30.1809  -23.3963  -17.9467 N   0  0  0  0  0  0  0  0  0  0  0  0
   28.7452  -22.4194  -16.3464 C   0  0  0  0  0  0  0  0  0  0  0  0
   29.6825  -22.5454  -15.5013 O   0  0  0  0  0  0  0  0  0  0  0  0
   26.4223  -19.1001  -16.0757 C   0  0  0  0  0  0  0  0  0  0  0  0
   27.7391  -19.2035  -15.3161 C   0  0  1  0  0  0  0  0  0  0  0  0
   27.6541  -18.2573  -14.1540 C   0  0  0  0  0  0  0  0  0  0  0  0
   27.8664  -20.6340  -14.8098 C   0  0  2  0  0  0  0  0  0  0  0  0
   27.7525  -21.4536  -16.0250 N   0  0  0  0  0  0  0  0  0  0  0  0
   26.7944  -21.0094  -13.9029 C   0  0  0  0  0  0  0  0  0  0  0  0
   25.6217  -21.2009  -14.3133 O   0  0  0  0  0  0  0  0  0  0  0  0
   26.9823  -21.1896  -12.4874 N   0  0  0  0  0  0  0  0  0  0  0  0
   25.9307  -21.6242  -11.6038 C   0  0  1  0  0  0  0  0  0  0  0  0
   26.3769  -22.0793  -10.2541 C   0  0  0  0  0  0  0  0  0  0  0  0
   26.4155  -21.0798   -9.1990 C   0  0  0  0  0  0  0  0  0  0  0  0
   25.4059  -20.2028   -8.8681 C   0  0  0  0  0  0  0  0  0  0  0  0
   25.8324  -19.4305   -7.8500 N   0  0  0  0  0  0  0  0  0  0  0  0
   27.0893  -19.7908   -7.5200 C   0  0  0  0  0  0  0  0  0  0  0  0
   27.9820  -19.3518   -6.5746 C   0  0  0  0  0  0  0  0  0  0  0  0
   29.2255  -19.8842   -6.4188 C   0  0  0  0  0  0  0  0  0  0  0  0
   29.6203  -20.9040   -7.2327 C   0  0  0  0  0  0  0  0  0  0  0  0
   28.7442  -21.3640   -8.1903 C   0  0  0  0  0  0  0  0  0  0  0  0
   27.4751  -20.8317   -8.3614 C   0  0  0  0  0  0  0  0  0  0  0  0
   24.8466  -20.6230  -11.5435 C   0  0  0  0  0  0  0  0  0  0  0  0
   23.5400  -21.0450  -11.3843 O   0  0  0  0  0  0  0  0  0  0  0  0
   25.0590  -19.3928  -11.6313 O   0  0  0  0  0  0  0  0  0  0  0  0
  1  2  1  0
  2  4  1  0
  3  2  2  0
  4  5  1  0
  6  7  1  1
  6  5  1  0
  8  9  2  0
  8  6  1  0
 11 10  1  6
 11 13  1  0
 12 11  1  0
 13 14  1  6
 14  8  1  0
 15 13  1  0
 15 17  1  0
 16 15  2  0
 18 17  1  0
 18 29  1  0
 19 20  1  0
 18 19  1  1
 20 28  1  0
 21 22  1  0
 21 20  2  0
 22 23  1  0
 23 28  2  0
 23 24  1  0
 24 25  2  0
 25 26  1  0
 27 26  2  0
 28 27  1  0
 29 31  2  0
 29 30  1  0
M  END
$$$$
