QVW.pdb
     RDKit          3D

 31 32  0  0  1  0  0  0  0  0999 V2000
   21.6109  -17.4402  -13.9437 N   0  0  0  0  0  0  0  0  0  0  0  0
   20.1930  -17.2705  -13.8507 C   0  0  0  0  0  0  0  0  0  0  0  0
   19.6319  -16.3659  -14.5022 O   0  0  0  0  0  0  0  0  0  0  0  0
   19.4009  -18.1663  -12.9919 C   0  0  0  0  0  0  0  0  0  0  0  0
   20.1357  -19.2516  -12.3094 C   0  0  0  0  0  0  0  0  0  0  0  0
   20.6630  -20.3955  -13.0875 C   0  0  2  0  0  0  0  0  0  0  0  0
   19.5802  -21.4314  -13.0587 N   0  0  0  0  0  0  0  0  0  0  0  0
   21.8682  -21.0512  -12.6150 C   0  0  0  0  0  0  0  0  0  0  0  0
   21.8021  -21.8817  -11.6587 O   0  0  0  0  0  0  0  0  0  0  0  0
   25.5963  -20.5065  -14.4556 C   0  0  0  0  0  0  0  0  0  0  0  0
   25.1571  -21.8595  -13.9094 C   0  0  1  0  0  0  0  0  0  0  0  0
   26.4023  -22.6124  -13.5410 C   0  0  0  0  0  0  0  0  0  0  0  0
   24.3208  -21.6022  -12.6631 C   0  0  2  0  0  0  0  0  0  0  0  0
   23.1646  -20.8424  -13.1604 N   0  0  0  0  0  0  0  0  0  0  0  0
   25.0125  -20.7890  -11.6769 C   0  0  0  0  0  0  0  0  0  0  0  0
   24.9754  -19.5330  -11.7163 O   0  0  0  0  0  0  0  0  0  0  0  0
   25.7826  -21.3427  -10.5944 N   0  0  0  0  0  0  0  0  0  0  0  0
   26.6022  -20.5409   -9.7220 C   0  0  1  0  0  0  0  0  0  0  0  0
   26.1924  -20.5345   -8.2868 C   0  0  0  0  0  0  0  0  0  0  0  0
   26.9928  -19.7341   -7.3745 C   0  0  0  0  0  0  0  0  0  0  0  0
   27.0504  -18.3584   -7.3311 C   0  0  0  0  0  0  0  0  0  0  0  0
   27.9141  -18.0009   -6.3612 N   0  0  0  0  0  0  0  0  0  0  0  0
   28.4111  -19.1126   -5.7818 C   0  0  0  0  0  0  0  0  0  0  0  0
   29.3040  -19.3299   -4.7626 C   0  0  0  0  0  0  0  0  0  0  0  0
   29.6589  -20.5727   -4.3340 C   0  0  0  0  0  0  0  0  0  0  0  0
   29.1104  -21.6664   -4.9351 C   0  0  0  0  0  0  0  0  0  0  0  0
   28.2114  -21.4771   -5.9609 C   0  0  0  0  0  0  0  0  0  0  0  0
   27.8406  -20.2180   -6.4085 C   0  0  0  0  0  0  0  0  0  0  0  0
   28.0333  -20.8538   -9.9099 C   0  0  0  0  0  0  0  0  0  0  0  0
   28.9628  -19.8313   -9.8750 O   0  0  0  0  0  0  0  0  0  0  0  0
   28.4495  -22.0184  -10.1019 O   0  0  0  0  0  0  0  0  0  0  0  0
  1  2  1  0
  2  4  1  0
  3  2  2  0
  4  5  1  0
  6  7  1  1
  6  5  1  0
  8  9  2  0
  8  6  1  0
 11 10  1  1
 11 13  1  0
 12 11  1  0
 13 14  1  6
 14  8  1  0
 15 13  1  0
 15 17  1  0
 16 15  2  0
 18 17  1  0
 18 29  1  0
 19 20  1  0
 18 19  1  1
 20 28  1  0
 21 22  1  0
 21 20  2  0
 22 23  1  0
 23 28  2  0
 23 24  1  0
 24 25  2  0
 25 26  1  0
 27 26  2  0
 28 27  1  0
 29 31  2  0
 29 30  1  0
M  END
$$$$
