QVW.pdb
     RDKit          3D

 31 32  0  0  1  0  0  0  0  0999 V2000
   31.4039  -16.5893  -16.9625 N   0  0  0  0  0  0  0  0  0  0  0  0
   30.8905  -16.3283  -18.2725 C   0  0  0  0  0  0  0  0  0  0  0  0
   31.6728  -16.2507  -19.2418 O   0  0  0  0  0  0  0  0  0  0  0  0
   29.4420  -16.1579  -18.4732 C   0  0  0  0  0  0  0  0  0  0  0  0
   28.5820  -16.3404  -17.2855 C   0  0  0  0  0  0  0  0  0  0  0  0
   28.3157  -17.6998  -16.7628 C   0  0  2  0  0  0  0  0  0  0  0  0
   27.6917  -18.4502  -17.9003 N   0  0  0  0  0  0  0  0  0  0  0  0
   27.4109  -17.8383  -15.6368 C   0  0  0  0  0  0  0  0  0  0  0  0
   26.3988  -17.0799  -15.5426 O   0  0  0  0  0  0  0  0  0  0  0  0
   25.0927  -18.1684  -15.3664 C   0  0  0  0  0  0  0  0  0  0  0  0
   25.2636  -19.2303  -14.2870 C   0  0  1  0  0  0  0  0  0  0  0  0
   25.3885  -20.5534  -14.9849 C   0  0  0  0  0  0  0  0  0  0  0  0
   26.5509  -18.9186  -13.5357 C   0  0  2  0  0  0  0  0  0  0  0  0
   27.5616  -18.7955  -14.5962 N   0  0  0  0  0  0  0  0  0  0  0  0
   26.9557  -19.9896  -12.6404 C   0  0  0  0  0  0  0  0  0  0  0  0
   28.1096  -20.4864  -12.6876 O   0  0  0  0  0  0  0  0  0  0  0  0
   26.0865  -20.5597  -11.6449 N   0  0  0  0  0  0  0  0  0  0  0  0
   26.5356  -21.5119  -10.6614 C   0  0  1  0  0  0  0  0  0  0  0  0
   27.7479  -21.1098   -9.8890 C   0  0  0  0  0  0  0  0  0  0  0  0
   27.5426  -20.2391   -8.7430 C   0  0  0  0  0  0  0  0  0  0  0  0
   26.5507  -19.2933   -8.6037 C   0  0  0  0  0  0  0  0  0  0  0  0
   26.7078  -18.6873   -7.4109 N   0  0  0  0  0  0  0  0  0  0  0  0
   27.7747  -19.2211   -6.7823 C   0  0  0  0  0  0  0  0  0  0  0  0
   28.3711  -18.9894   -5.5682 C   0  0  0  0  0  0  0  0  0  0  0  0
   29.4647  -19.6732   -5.1318 C   0  0  0  0  0  0  0  0  0  0  0  0
   30.0074  -20.6388   -5.9264 C   0  0  0  0  0  0  0  0  0  0  0  0
   29.4289  -20.8917   -7.1502 C   0  0  0  0  0  0  0  0  0  0  0  0
   28.3155  -20.2036   -7.6084 C   0  0  0  0  0  0  0  0  0  0  0  0
   25.4186  -21.9409   -9.7957 C   0  0  0  0  0  0  0  0  0  0  0  0
   25.5991  -23.0033   -8.9300 O   0  0  0  0  0  0  0  0  0  0  0  0
   24.3002  -21.3792   -9.8098 O   0  0  0  0  0  0  0  0  0  0  0  0
  1  2  1  0
  2  4  1  0
  3  2  2  0
  4  5  1  0
  6  7  1  6
  6  5  1  0
  8  9  2  0
  8  6  1  0
 11 10  1  6
 11 13  1  0
 12 11  1  0
 13 14  1  6
 14  8  1  0
 15 13  1  0
 15 17  1  0
 16 15  2  0
 18 17  1  0
 18 29  1  0
 19 20  1  0
 18 19  1  1
 20 28  1  0
 21 22  1  0
 21 20  2  0
 22 23  1  0
 23 28  2  0
 23 24  1  0
 24 25  2  0
 25 26  1  0
 27 26  2  0
 28 27  1  0
 29 31  2  0
 29 30  1  0
M  END
$$$$
