NDS.pdb
     RDKit          3D

 23 22  0  0  1  0  0  0  0  0999 V2000
   17.1187  -13.7656  -14.6984 N   0  0  0  0  0  0  0  0  0  0  0  0
   16.5941  -12.4838  -14.4816 C   0  0  0  0  0  0  0  0  0  0  0  0
   15.5263  -12.3500  -13.8469 O   0  0  0  0  0  0  0  0  0  0  0  0
   17.2941  -11.3065  -14.9965 C   0  0  0  0  0  0  0  0  0  0  0  0
   16.3570  -10.2399  -15.5128 C   0  0  2  0  0  0  0  0  0  0  0  0
   15.7398  -10.6298  -16.7640 N   0  0  0  0  0  0  0  0  0  0  0  0
   17.2126   -9.0340  -15.7926 C   0  0  0  0  0  0  0  0  0  0  0  0
   17.9870   -9.0153  -16.7992 O   0  0  0  0  0  0  0  0  0  0  0  0
   17.1922   -7.8953  -14.9661 N   0  0  0  0  0  0  0  0  0  0  0  0
   17.9470   -6.7378  -15.3204 C   0  0  1  0  0  0  0  0  0  0  0  0
   17.1247   -5.4720  -15.2819 C   0  0  0  0  0  0  0  0  0  0  0  0
   16.0422   -5.4655  -16.2967 C   0  0  0  0  0  0  0  0  0  0  0  0
   16.3159   -5.6542  -17.5102 O   0  0  0  0  0  0  0  0  0  0  0  0
   19.1160   -6.5235  -14.4178 C   0  0  0  0  0  0  0  0  0  0  0  0
   18.9108   -6.6252  -13.1890 O   0  0  0  0  0  0  0  0  0  0  0  0
   14.7129   -5.2509  -15.9190 O   0  0  0  0  0  0  0  0  0  0  0  0
   22.3685   -8.2027  -14.4307 O   0  0  0  0  0  0  0  0  0  0  0  0
   22.6713   -6.8559  -14.4554 C   0  0  0  0  0  0  0  0  0  0  0  0
   21.4935   -6.0647  -13.9361 C   0  0  2  0  0  0  0  0  0  0  0  0
   20.4135   -6.2181  -14.8812 N   0  0  0  0  0  0  0  0  0  0  0  0
   21.8327   -4.6401  -13.7008 C   0  0  0  0  0  0  0  0  0  0  0  0
   22.5430   -4.2193  -12.5874 O   0  0  0  0  0  0  0  0  0  0  0  0
   21.4744   -3.7628  -14.5264 O   0  0  0  0  0  0  0  0  0  0  0  0
  2  1  1  0
  3  2  2  0
  4  2  1  0
  5  6  1  6
  5  4  1  0
  7  5  1  0
  7  8  2  0
  9  7  1  0
 10  9  1  0
 10 14  1  0
 10 11  1  1
 12 13  2  0
 12 11  1  0
 14 15  2  0
 14 20  1  0
 16 12  1  0
 18 17  1  0
 19 18  1  6
 19 21  1  0
 20 19  1  0
 21 23  2  0
 21 22  1  0
M  END
$$$$
