NDS.pdb
     RDKit          3D

 23 22  0  0  1  0  0  0  0  0999 V2000
   19.6315  -21.7630  -13.4795 N   0  0  0  0  0  0  0  0  0  0  0  0
   20.8346  -22.0343  -12.8130 C   0  0  0  0  0  0  0  0  0  0  0  0
   20.8664  -22.9101  -11.9227 O   0  0  0  0  0  0  0  0  0  0  0  0
   22.0490  -21.2946  -13.1586 C   0  0  0  0  0  0  0  0  0  0  0  0
   21.7882  -20.1274  -14.0815 C   0  0  2  0  0  0  0  0  0  0  0  0
   21.2503  -20.5615  -15.3546 N   0  0  0  0  0  0  0  0  0  0  0  0
   23.1303  -19.5029  -14.3524 C   0  0  0  0  0  0  0  0  0  0  0  0
   23.7773  -18.9392  -13.4159 O   0  0  0  0  0  0  0  0  0  0  0  0
   23.7160  -19.5160  -15.6318 N   0  0  0  0  0  0  0  0  0  0  0  0
   24.9120  -18.7796  -15.8810 C   0  0  1  0  0  0  0  0  0  0  0  0
   25.8329  -19.4762  -16.8540 C   0  0  0  0  0  0  0  0  0  0  0  0
   27.0623  -18.6939  -17.1337 C   0  0  0  0  0  0  0  0  0  0  0  0
   27.9925  -18.6591  -16.2871 O   0  0  0  0  0  0  0  0  0  0  0  0
   24.6381  -17.4225  -16.4382 C   0  0  0  0  0  0  0  0  0  0  0  0
   23.6651  -17.3135  -17.2153 O   0  0  0  0  0  0  0  0  0  0  0  0
   27.2012  -17.9902  -18.3342 O   0  0  0  0  0  0  0  0  0  0  0  0
   26.6252  -14.0278  -15.1989 O   0  0  0  0  0  0  0  0  0  0  0  0
   25.2892  -13.9757  -15.5436 C   0  0  0  0  0  0  0  0  0  0  0  0
   25.0086  -14.9891  -16.6286 C   0  0  2  0  0  0  0  0  0  0  0  0
   25.4125  -16.2830  -16.1327 N   0  0  0  0  0  0  0  0  0  0  0  0
   25.6792  -14.6455  -17.9061 C   0  0  0  0  0  0  0  0  0  0  0  0
   25.2729  -13.5816  -18.6962 O   0  0  0  0  0  0  0  0  0  0  0  0
   26.6540  -15.3287  -18.3093 O   0  0  0  0  0  0  0  0  0  0  0  0
  2  1  1  0
  3  2  2  0
  4  2  1  0
  5  6  1  6
  5  4  1  0
  7  5  1  0
  7  8  2  0
  9  7  1  0
 10  9  1  0
 10 14  1  0
 10 11  1  6
 12 13  2  0
 12 11  1  0
 14 15  2  0
 14 20  1  0
 16 12  1  0
 18 17  1  0
 19 18  1  1
 19 21  1  0
 20 19  1  0
 21 23  2  0
 21 22  1  0
M  END
$$$$
