NDS.pdb
     RDKit          3D

 23 22  0  0  1  0  0  0  0  0999 V2000
   17.4835  -13.7134  -14.9135 N   0  0  0  0  0  0  0  0  0  0  0  0
   18.7051  -13.2571  -15.4282 C   0  0  0  0  0  0  0  0  0  0  0  0
   19.6642  -14.0492  -15.5427 O   0  0  0  0  0  0  0  0  0  0  0  0
   18.8565  -11.8582  -15.8301 C   0  0  0  0  0  0  0  0  0  0  0  0
   17.6046  -11.0412  -15.6119 C   0  0  2  0  0  0  0  0  0  0  0  0
   16.6128  -11.2980  -16.6360 N   0  0  0  0  0  0  0  0  0  0  0  0
   18.0197   -9.6007  -15.7422 C   0  0  0  0  0  0  0  0  0  0  0  0
   18.5515   -9.1798  -16.8162 O   0  0  0  0  0  0  0  0  0  0  0  0
   17.8400   -8.6739  -14.6986 N   0  0  0  0  0  0  0  0  0  0  0  0
   18.2376   -7.3147  -14.8695 C   0  0  1  0  0  0  0  0  0  0  0  0
   17.2906   -6.3430  -14.2069 C   0  0  0  0  0  0  0  0  0  0  0  0
   15.9544   -6.3213  -14.8515 C   0  0  0  0  0  0  0  0  0  0  0  0
   15.7863   -5.6967  -15.9308 O   0  0  0  0  0  0  0  0  0  0  0  0
   19.5957   -7.0456  -14.3123 C   0  0  0  0  0  0  0  0  0  0  0  0
   19.8509   -7.5199  -13.1843 O   0  0  0  0  0  0  0  0  0  0  0  0
   14.8724   -6.9906  -14.2710 O   0  0  0  0  0  0  0  0  0  0  0  0
   22.8265   -7.1859  -16.3646 O   0  0  0  0  0  0  0  0  0  0  0  0
   22.8788   -6.0515  -15.5793 C   0  0  0  0  0  0  0  0  0  0  0  0
   21.9081   -6.1888  -14.4298 C   0  0  2  0  0  0  0  0  0  0  0  0
   20.5816   -6.2958  -14.9885 N   0  0  0  0  0  0  0  0  0  0  0  0
   22.0192   -5.0695  -13.4630 C   0  0  0  0  0  0  0  0  0  0  0  0
   22.9098   -5.0901  -12.4011 O   0  0  0  0  0  0  0  0  0  0  0  0
   21.2902   -4.0535  -13.5894 O   0  0  0  0  0  0  0  0  0  0  0  0
  2  1  1  0
  3  2  2  0
  4  2  1  0
  5  6  1  6
  5  4  1  0
  7  5  1  0
  7  8  2  0
  9  7  1  0
 10  9  1  0
 10 14  1  0
 10 11  1  1
 12 13  2  0
 12 11  1  0
 14 15  2  0
 14 20  1  0
 16 12  1  0
 18 17  1  0
 19 18  1  6
 19 21  1  0
 20 19  1  0
 21 23  2  0
 21 22  1  0
M  END
$$$$
