NDS.pdb
     RDKit          3D

 23 22  0  0  1  0  0  0  0  0999 V2000
   14.6554  -13.3013  -13.2688 N   0  0  0  0  0  0  0  0  0  0  0  0
   15.9382  -13.1217  -13.8051 C   0  0  0  0  0  0  0  0  0  0  0  0
   16.7429  -14.0771  -13.8209 O   0  0  0  0  0  0  0  0  0  0  0  0
   16.3336  -11.8201  -14.3444 C   0  0  0  0  0  0  0  0  0  0  0  0
   15.2796  -10.7551  -14.1516 C   0  0  2  0  0  0  0  0  0  0  0  0
   14.2000  -10.8913  -15.1079 N   0  0  0  0  0  0  0  0  0  0  0  0
   15.9596   -9.4416  -14.4285 C   0  0  0  0  0  0  0  0  0  0  0  0
   16.1619   -9.0622  -15.6238 O   0  0  0  0  0  0  0  0  0  0  0  0
   16.3931   -8.5918  -13.3940 N   0  0  0  0  0  0  0  0  0  0  0  0
   16.9887   -7.3327  -13.7017 C   0  0  1  0  0  0  0  0  0  0  0  0
   16.2751   -6.1749  -13.0457 C   0  0  0  0  0  0  0  0  0  0  0  0
   16.8746   -4.8639  -13.3971 C   0  0  0  0  0  0  0  0  0  0  0  0
   17.5288   -4.2200  -12.5366 O   0  0  0  0  0  0  0  0  0  0  0  0
   18.4169   -7.2602  -13.2751 C   0  0  0  0  0  0  0  0  0  0  0  0
   18.6759   -7.5946  -12.0988 O   0  0  0  0  0  0  0  0  0  0  0  0
   16.7207   -4.3315  -14.6811 O   0  0  0  0  0  0  0  0  0  0  0  0
   22.9053   -7.8925  -13.9967 O   0  0  0  0  0  0  0  0  0  0  0  0
   21.5949   -7.8645  -14.4306 C   0  0  0  0  0  0  0  0  0  0  0  0
   20.8224   -6.8378  -13.6358 C   0  0  2  0  0  0  0  0  0  0  0  0
   19.4638   -6.8400  -14.1230 N   0  0  0  0  0  0  0  0  0  0  0  0
   21.4398   -5.4911  -13.7064 C   0  0  0  0  0  0  0  0  0  0  0  0
   22.4350   -5.0828  -12.8323 O   0  0  0  0  0  0  0  0  0  0  0  0
   21.0643   -4.6713  -14.5820 O   0  0  0  0  0  0  0  0  0  0  0  0
  2  1  1  0
  3  2  2  0
  4  2  1  0
  5  6  1  6
  5  4  1  0
  7  5  1  0
  7  8  2  0
  9  7  1  0
 10  9  1  0
 10 14  1  0
 10 11  1  1
 12 13  2  0
 12 11  1  0
 14 15  2  0
 14 20  1  0
 16 12  1  0
 18 17  1  0
 19 18  1  6
 19 21  1  0
 20 19  1  0
 21 23  2  0
 21 22  1  0
M  END
$$$$
