NDS.pdb
     RDKit          3D

 23 22  0  0  1  0  0  0  0  0999 V2000
   15.4587  -12.7705  -15.3940 N   0  0  0  0  0  0  0  0  0  0  0  0
   16.1523  -12.0779  -14.3918 C   0  0  0  0  0  0  0  0  0  0  0  0
   15.7937  -12.1882  -13.2001 O   0  0  0  0  0  0  0  0  0  0  0  0
   17.2922  -11.2288  -14.7396 C   0  0  0  0  0  0  0  0  0  0  0  0
   17.5396  -11.1512  -16.2279 C   0  0  2  0  0  0  0  0  0  0  0  0
   18.2006  -12.3412  -16.7233 N   0  0  0  0  0  0  0  0  0  0  0  0
   18.4829   -9.9968  -16.4334 C   0  0  0  0  0  0  0  0  0  0  0  0
   19.7256  -10.1350  -16.2096 O   0  0  0  0  0  0  0  0  0  0  0  0
   18.0373   -8.7371  -16.8746 N   0  0  0  0  0  0  0  0  0  0  0  0
   18.9663   -7.6694  -17.0530 C   0  0  1  0  0  0  0  0  0  0  0  0
   18.4071   -6.5446  -17.8910 C   0  0  0  0  0  0  0  0  0  0  0  0
   19.4275   -5.5194  -18.2214 C   0  0  0  0  0  0  0  0  0  0  0  0
   20.6422   -5.7387  -17.9773 O   0  0  0  0  0  0  0  0  0  0  0  0
   19.3998   -7.0707  -15.7566 C   0  0  0  0  0  0  0  0  0  0  0  0
   18.5124   -6.8679  -14.8999 O   0  0  0  0  0  0  0  0  0  0  0  0
   19.0538   -4.3045  -18.8046 O   0  0  0  0  0  0  0  0  0  0  0  0
   22.0381   -7.0481  -12.1201 O   0  0  0  0  0  0  0  0  0  0  0  0
   21.6452   -7.4545  -13.3797 C   0  0  0  0  0  0  0  0  0  0  0  0
   21.0860   -6.2740  -14.1389 C   0  0  2  0  0  0  0  0  0  0  0  0
   20.7377   -6.7313  -15.4628 N   0  0  0  0  0  0  0  0  0  0  0  0
   22.0286   -5.1294  -14.1726 C   0  0  0  0  0  0  0  0  0  0  0  0
   22.1391   -4.2265  -13.1267 O   0  0  0  0  0  0  0  0  0  0  0  0
   22.7653   -4.9495  -15.1748 O   0  0  0  0  0  0  0  0  0  0  0  0
  2  1  1  0
  3  2  2  0
  4  2  1  0
  5  6  1  1
  5  4  1  0
  7  5  1  0
  7  8  2  0
  9  7  1  0
 10  9  1  0
 10 14  1  0
 10 11  1  6
 12 13  2  0
 12 11  1  0
 14 15  2  0
 14 20  1  0
 16 12  1  0
 18 17  1  0
 19 18  1  1
 19 21  1  0
 20 19  1  0
 21 23  2  0
 21 22  1  0
M  END
$$$$
