NDS.pdb
     RDKit          3D

 23 22  0  0  1  0  0  0  0  0999 V2000
   22.5895  -11.2597  -18.9890 N   0  0  0  0  0  0  0  0  0  0  0  0
   22.3726   -9.9634  -19.4769 C   0  0  0  0  0  0  0  0  0  0  0  0
   22.9575   -9.5855  -20.5141 O   0  0  0  0  0  0  0  0  0  0  0  0
   21.4646   -9.0561  -18.7744 C   0  0  0  0  0  0  0  0  0  0  0  0
   20.9160   -9.6422  -17.4946 C   0  0  2  0  0  0  0  0  0  0  0  0
   19.8395  -10.5767  -17.7523 N   0  0  0  0  0  0  0  0  0  0  0  0
   20.3323   -8.4883  -16.7250 C   0  0  0  0  0  0  0  0  0  0  0  0
   19.3199   -7.8646  -17.1718 O   0  0  0  0  0  0  0  0  0  0  0  0
   20.8728   -8.0579  -15.4992 N   0  0  0  0  0  0  0  0  0  0  0  0
   20.2524   -6.9976  -14.7741 C   0  0  1  0  0  0  0  0  0  0  0  0
   20.4137   -7.1415  -13.2797 C   0  0  0  0  0  0  0  0  0  0  0  0
   19.6302   -8.2749  -12.7291 C   0  0  0  0  0  0  0  0  0  0  0  0
   18.7066   -8.7912  -13.4100 O   0  0  0  0  0  0  0  0  0  0  0  0
   20.8010   -5.6597  -15.1431 C   0  0  0  0  0  0  0  0  0  0  0  0
   22.0450   -5.5376  -15.1473 O   0  0  0  0  0  0  0  0  0  0  0  0
   19.9071   -8.7798  -11.4547 O   0  0  0  0  0  0  0  0  0  0  0  0
   20.6418   -1.8311  -17.7463 O   0  0  0  0  0  0  0  0  0  0  0  0
   20.1477   -3.0497  -17.3253 C   0  0  0  0  0  0  0  0  0  0  0  0
   20.6125   -3.3219  -15.9138 C   0  0  2  0  0  0  0  0  0  0  0  0
   19.9944   -4.5518  -15.4798 N   0  0  0  0  0  0  0  0  0  0  0  0
   20.3175   -2.1938  -14.9971 C   0  0  0  0  0  0  0  0  0  0  0  0
   19.1915   -2.1676  -14.1892 O   0  0  0  0  0  0  0  0  0  0  0  0
   21.1015   -1.2137  -14.9320 O   0  0  0  0  0  0  0  0  0  0  0  0
  2  1  1  0
  3  2  2  0
  4  2  1  0
  5  6  1  6
  5  4  1  0
  7  5  1  0
  7  8  2  0
  9  7  1  0
 10  9  1  0
 10 14  1  0
 10 11  1  1
 12 13  2  0
 12 11  1  0
 14 15  2  0
 14 20  1  0
 16 12  1  0
 18 17  1  0
 19 18  1  6
 19 21  1  0
 20 19  1  0
 21 23  2  0
 21 22  1  0
M  END
$$$$
