NDS.pdb
     RDKit          3D

 23 22  0  0  1  0  0  0  0  0999 V2000
   12.1319   -8.0132   -8.7330 N   0  0  0  0  0  0  0  0  0  0  0  0
   13.3160   -7.4891   -8.1957 C   0  0  0  0  0  0  0  0  0  0  0  0
   13.2632   -6.7146   -7.2170 O   0  0  0  0  0  0  0  0  0  0  0  0
   14.6093   -7.8478   -8.7789 C   0  0  0  0  0  0  0  0  0  0  0  0
   14.4937   -8.8503   -9.9030 C   0  0  2  0  0  0  0  0  0  0  0  0
   14.2827  -10.1934   -9.4027 N   0  0  0  0  0  0  0  0  0  0  0  0
   15.8226   -8.8394  -10.6089 C   0  0  0  0  0  0  0  0  0  0  0  0
   16.8410   -9.3738  -10.0697 O   0  0  0  0  0  0  0  0  0  0  0  0
   15.9918   -8.2474  -11.8743 N   0  0  0  0  0  0  0  0  0  0  0  0
   17.2597   -8.2969  -12.5260 C   0  0  1  0  0  0  0  0  0  0  0  0
   17.1535   -8.7021  -13.9767 C   0  0  0  0  0  0  0  0  0  0  0  0
   18.4802   -8.8624  -14.6214 C   0  0  0  0  0  0  0  0  0  0  0  0
   19.4617   -9.2713  -13.9486 O   0  0  0  0  0  0  0  0  0  0  0  0
   17.9673   -6.9834  -12.4929 C   0  0  0  0  0  0  0  0  0  0  0  0
   17.2634   -5.9630  -12.3321 O   0  0  0  0  0  0  0  0  0  0  0  0
   18.6548   -8.5629  -15.9763 O   0  0  0  0  0  0  0  0  0  0  0  0
   20.5424   -4.8337   -9.8897 O   0  0  0  0  0  0  0  0  0  0  0  0
   19.8356   -5.8356  -10.5244 C   0  0  0  0  0  0  0  0  0  0  0  0
   20.0395   -5.7283  -12.0176 C   0  0  2  0  0  0  0  0  0  0  0  0
   19.3649   -6.8466  -12.6320 N   0  0  0  0  0  0  0  0  0  0  0  0
   21.4749   -5.6696  -12.3864 C   0  0  0  0  0  0  0  0  0  0  0  0
   22.1819   -4.4784  -12.4341 O   0  0  0  0  0  0  0  0  0  0  0  0
   22.0957   -6.7248  -12.6706 O   0  0  0  0  0  0  0  0  0  0  0  0
  2  1  1  0
  3  2  2  0
  4  2  1  0
  5  6  1  1
  5  4  1  0
  7  5  1  0
  7  8  2  0
  9  7  1  0
 10  9  1  0
 10 14  1  0
 10 11  1  6
 12 13  2  0
 12 11  1  0
 14 15  2  0
 14 20  1  0
 16 12  1  0
 18 17  1  0
 19 18  1  1
 19 21  1  0
 20 19  1  0
 21 23  2  0
 21 22  1  0
M  END
$$$$
