NDS.pdb
     RDKit          3D

 23 22  0  0  1  0  0  0  0  0999 V2000
   15.5457  -12.7136  -15.1302 N   0  0  0  0  0  0  0  0  0  0  0  0
   16.8487  -12.4437  -14.6890 C   0  0  0  0  0  0  0  0  0  0  0  0
   17.4594  -13.2914  -14.0040 O   0  0  0  0  0  0  0  0  0  0  0  0
   17.4915  -11.1740  -15.0292 C   0  0  0  0  0  0  0  0  0  0  0  0
   16.5627  -10.2097  -15.7291 C   0  0  2  0  0  0  0  0  0  0  0  0
   16.2954  -10.6187  -17.0929 N   0  0  0  0  0  0  0  0  0  0  0  0
   17.2955   -8.8968  -15.7912 C   0  0  0  0  0  0  0  0  0  0  0  0
   18.0289   -8.6170  -16.7898 O   0  0  0  0  0  0  0  0  0  0  0  0
   17.2016   -7.9394  -14.7642 N   0  0  0  0  0  0  0  0  0  0  0  0
   17.7796   -6.6463  -14.9336 C   0  0  1  0  0  0  0  0  0  0  0  0
   17.0146   -5.5665  -14.2063 C   0  0  0  0  0  0  0  0  0  0  0  0
   15.6598   -5.3499  -14.7713 C   0  0  0  0  0  0  0  0  0  0  0  0
   15.5293   -4.8859  -15.9336 O   0  0  0  0  0  0  0  0  0  0  0  0
   19.1881   -6.5849  -14.4444 C   0  0  0  0  0  0  0  0  0  0  0  0
   19.4358   -7.1456  -13.3549 O   0  0  0  0  0  0  0  0  0  0  0  0
   14.5186   -5.6569  -14.0235 O   0  0  0  0  0  0  0  0  0  0  0  0
   23.8215   -6.1107  -15.3127 O   0  0  0  0  0  0  0  0  0  0  0  0
   22.5218   -6.0898  -15.7781 C   0  0  0  0  0  0  0  0  0  0  0  0
   21.5706   -5.9597  -14.6115 C   0  0  2  0  0  0  0  0  0  0  0  0
   20.2287   -5.9359  -15.1425 N   0  0  0  0  0  0  0  0  0  0  0  0
   21.8632   -4.7687  -13.7774 C   0  0  0  0  0  0  0  0  0  0  0  0
   22.6706   -4.8292  -12.6524 O   0  0  0  0  0  0  0  0  0  0  0  0
   21.3731   -3.6517  -14.0806 O   0  0  0  0  0  0  0  0  0  0  0  0
  2  1  1  0
  3  2  2  0
  4  2  1  0
  5  6  1  6
  5  4  1  0
  7  5  1  0
  7  8  2  0
  9  7  1  0
 10  9  1  0
 10 14  1  0
 10 11  1  1
 12 13  2  0
 12 11  1  0
 14 15  2  0
 14 20  1  0
 16 12  1  0
 18 17  1  0
 19 18  1  6
 19 21  1  0
 20 19  1  0
 21 23  2  0
 21 22  1  0
M  END
$$$$
