NDS.pdb
     RDKit          3D

 23 22  0  0  1  0  0  0  0  0999 V2000
   17.3850  -13.0295  -17.8229 N   0  0  0  0  0  0  0  0  0  0  0  0
   16.4225  -12.3090  -17.1020 C   0  0  0  0  0  0  0  0  0  0  0  0
   15.2173  -12.6267  -17.1877 O   0  0  0  0  0  0  0  0  0  0  0  0
   16.8274  -11.1887  -16.2521 C   0  0  0  0  0  0  0  0  0  0  0  0
   18.3160  -10.9327  -16.2804 C   0  0  2  0  0  0  0  0  0  0  0  0
   19.0483  -11.9529  -15.5583 N   0  0  0  0  0  0  0  0  0  0  0  0
   18.5285   -9.6314  -15.5550 C   0  0  0  0  0  0  0  0  0  0  0  0
   18.1267   -9.4899  -14.3583 O   0  0  0  0  0  0  0  0  0  0  0  0
   19.1698   -8.5347  -16.1600 N   0  0  0  0  0  0  0  0  0  0  0  0
   19.4632   -7.3651  -15.3979 C   0  0  1  0  0  0  0  0  0  0  0  0
   20.9036   -6.9311  -15.5283 C   0  0  0  0  0  0  0  0  0  0  0  0
   21.8476   -7.9014  -14.9208 C   0  0  0  0  0  0  0  0  0  0  0  0
   21.7062   -8.2497  -13.7200 O   0  0  0  0  0  0  0  0  0  0  0  0
   18.6209   -6.2000  -15.7980 C   0  0  0  0  0  0  0  0  0  0  0  0
   18.5446   -5.9474  -17.0199 O   0  0  0  0  0  0  0  0  0  0  0  0
   22.8993   -8.4372  -15.6708 O   0  0  0  0  0  0  0  0  0  0  0  0
   14.7832   -3.6665  -15.2532 O   0  0  0  0  0  0  0  0  0  0  0  0
   15.6560   -4.6509  -14.8342 C   0  0  0  0  0  0  0  0  0  0  0  0
   17.0408   -4.3542  -15.3606 C   0  0  2  0  0  0  0  0  0  0  0  0
   17.9228   -5.3896  -14.8776 N   0  0  0  0  0  0  0  0  0  0  0  0
   17.5085   -2.9989  -14.9808 C   0  0  0  0  0  0  0  0  0  0  0  0
   17.2184   -1.8737  -15.7364 O   0  0  0  0  0  0  0  0  0  0  0  0
   18.1946   -2.8381  -13.9401 O   0  0  0  0  0  0  0  0  0  0  0  0
  2  1  1  0
  3  2  2  0
  4  2  1  0
  5  6  1  1
  5  4  1  0
  7  5  1  0
  7  8  2  0
  9  7  1  0
 10  9  1  0
 10 14  1  0
 10 11  1  6
 12 13  2  0
 12 11  1  0
 14 15  2  0
 14 20  1  0
 16 12  1  0
 18 17  1  0
 19 18  1  1
 19 21  1  0
 20 19  1  0
 21 23  2  0
 21 22  1  0
M  END
$$$$
