VQM.pdb
     RDKit          3D

 25 24  0  0  1  0  0  0  0  0999 V2000
   28.5391  -20.6027  -16.0063 C   0  0  0  0  0  0  0  0  0  0  0  0
   27.9595  -19.3250  -15.4654 C   0  0  2  0  0  0  0  0  0  0  0  0
   28.2503  -19.2545  -13.9925 C   0  0  0  0  0  0  0  0  0  0  0  0
   26.4576  -19.2345  -15.7043 C   0  0  2  0  0  0  0  0  0  0  0  0
   25.9468  -17.9611  -15.2632 N   0  0  0  0  0  0  0  0  0  0  0  0
   25.7744  -20.3321  -14.9476 C   0  0  0  0  0  0  0  0  0  0  0  0
   25.9972  -21.5116  -15.3199 O   0  0  0  0  0  0  0  0  0  0  0  0
   24.9652  -20.5438   -8.8585 N   0  0  0  0  0  0  0  0  0  0  0  0
   26.0557  -20.9434   -9.6634 C   0  0  0  0  0  0  0  0  0  0  0  0
   27.1721  -21.1059   -9.1421 O   0  0  0  0  0  0  0  0  0  0  0  0
   25.8499  -21.1640  -11.0924 C   0  0  0  0  0  0  0  0  0  0  0  0
   24.5547  -20.8127  -11.6854 C   0  0  0  0  0  0  0  0  0  0  0  0
   24.2288  -21.0699  -13.0901 C   0  0  2  0  0  0  0  0  0  0  0  0
   24.9236  -20.0044  -13.8669 N   0  0  0  0  0  0  0  0  0  0  0  0
   22.8466  -21.0874  -13.5363 C   0  0  0  0  0  0  0  0  0  0  0  0
   22.2047  -19.9867  -13.7098 O   0  0  0  0  0  0  0  0  0  0  0  0
   19.1344  -26.3336  -15.7536 C   0  0  0  0  0  0  0  0  0  0  0  0
   18.2543  -24.8353  -16.1915 S   0  0  0  0  0  0  0  0  0  0  0  0
   18.8791  -23.3584  -15.4210 C   0  0  0  0  0  0  0  0  0  0  0  0
   20.2873  -23.3937  -14.9528 C   0  0  0  0  0  0  0  0  0  0  0  0
   20.6529  -22.1177  -14.1728 C   0  0  2  0  0  0  0  0  0  0  0  0
   22.0643  -22.2466  -13.8377 N   0  0  0  0  0  0  0  0  0  0  0  0
   19.7800  -21.9481  -13.0076 C   0  0  0  0  0  0  0  0  0  0  0  0
   20.1030  -22.3427  -11.8813 O   0  0  0  0  0  0  0  0  0  0  0  0
   18.5636  -21.3250  -13.1908 O   0  0  0  0  0  0  0  0  0  0  0  0
  2  1  1  1
  2  3  1  0
  4  6  1  0
  4  2  1  0
  4  5  1  1
  6  7  2  0
  6 14  1  0
  9  8  1  0
 10  9  2  0
 11  9  1  0
 12 11  1  0
 13 12  1  1
 14 13  1  0
 15 16  2  0
 15 13  1  0
 18 17  1  0
 19 18  1  0
 19 20  1  0
 21 20  1  1
 21 23  1  0
 21 22  1  0
 22 15  1  0
 23 25  1  0
 24 23  2  0
M  END
$$$$
