VQM.pdb
     RDKit          3D

 25 24  0  0  1  0  0  0  0  0999 V2000
   17.2478  -13.5865  -16.2817 C   0  0  0  0  0  0  0  0  0  0  0  0
   17.8130  -12.3567  -16.9368 C   0  0  2  0  0  0  0  0  0  0  0  0
   18.5705  -12.7755  -18.1655 C   0  0  0  0  0  0  0  0  0  0  0  0
   18.7301  -11.5818  -15.9990 C   0  0  2  0  0  0  0  0  0  0  0  0
   18.0736  -11.3228  -14.7424 N   0  0  0  0  0  0  0  0  0  0  0  0
   19.1018  -10.2808  -16.6420 C   0  0  0  0  0  0  0  0  0  0  0  0
   19.7254  -10.3359  -17.7316 O   0  0  0  0  0  0  0  0  0  0  0  0
   15.6063   -5.3851  -17.2937 N   0  0  0  0  0  0  0  0  0  0  0  0
   15.9191   -5.7020  -15.9527 C   0  0  0  0  0  0  0  0  0  0  0  0
   15.1933   -5.2743  -15.0390 O   0  0  0  0  0  0  0  0  0  0  0  0
   17.0864   -6.5313  -15.6648 C   0  0  0  0  0  0  0  0  0  0  0  0
   17.9157   -7.0010  -16.7802 C   0  0  0  0  0  0  0  0  0  0  0  0
   19.1559   -7.7554  -16.5848 C   0  0  2  0  0  0  0  0  0  0  0  0
   18.7435   -9.0675  -16.0105 N   0  0  0  0  0  0  0  0  0  0  0  0
   20.2119   -7.2333  -15.7350 C   0  0  0  0  0  0  0  0  0  0  0  0
   20.1982   -7.4563  -14.4686 O   0  0  0  0  0  0  0  0  0  0  0  0
   24.7879   -8.2887  -18.6091 C   0  0  0  0  0  0  0  0  0  0  0  0
   25.2916   -6.8263  -17.7041 S   0  0  0  0  0  0  0  0  0  0  0  0
   24.5096   -6.6321  -16.1179 C   0  0  0  0  0  0  0  0  0  0  0  0
   23.5329   -5.5221  -15.9861 C   0  0  0  0  0  0  0  0  0  0  0  0
   22.2945   -5.9552  -15.1804 C   0  0  2  0  0  0  0  0  0  0  0  0
   21.3423   -6.4649  -16.1572 N   0  0  0  0  0  0  0  0  0  0  0  0
   21.7797   -4.8444  -14.3743 C   0  0  0  0  0  0  0  0  0  0  0  0
   20.8525   -4.1249  -14.7627 O   0  0  0  0  0  0  0  0  0  0  0  0
   22.3586   -4.6094  -13.1450 O   0  0  0  0  0  0  0  0  0  0  0  0
  2  1  1  1
  2  3  1  0
  4  6  1  0
  4  2  1  0
  4  5  1  1
  6  7  2  0
  6 14  1  0
  9  8  1  0
 10  9  2  0
 11  9  1  0
 12 11  1  0
 13 12  1  1
 14 13  1  0
 15 16  2  0
 15 13  1  0
 18 17  1  0
 19 18  1  0
 19 20  1  0
 21 20  1  6
 21 23  1  0
 21 22  1  0
 22 15  1  0
 23 25  1  0
 24 23  2  0
M  END
$$$$
