VQM.pdb
     RDKit          3D

 25 24  0  0  1  0  0  0  0  0999 V2000
   22.9636  -20.8006  -17.0175 C   0  0  0  0  0  0  0  0  0  0  0  0
   22.6608  -22.2672  -16.8823 C   0  0  2  0  0  0  0  0  0  0  0  0
   21.2786  -22.5207  -17.4152 C   0  0  0  0  0  0  0  0  0  0  0  0
   22.7555  -22.7377  -15.4364 C   0  0  2  0  0  0  0  0  0  0  0  0
   21.7603  -22.0870  -14.6220 N   0  0  0  0  0  0  0  0  0  0  0  0
   24.1188  -22.4163  -14.9052 C   0  0  0  0  0  0  0  0  0  0  0  0
   25.0962  -22.9950  -15.4429 O   0  0  0  0  0  0  0  0  0  0  0  0
   26.5650  -17.4740  -15.4406 N   0  0  0  0  0  0  0  0  0  0  0  0
   27.5817  -18.0584  -14.6524 C   0  0  0  0  0  0  0  0  0  0  0  0
   28.7005  -17.5199  -14.6018 O   0  0  0  0  0  0  0  0  0  0  0  0
   27.2976  -19.2817  -13.9067 C   0  0  0  0  0  0  0  0  0  0  0  0
   25.9741  -19.9012  -14.0371 C   0  0  0  0  0  0  0  0  0  0  0  0
   25.5921  -21.1174  -13.3158 C   0  0  2  0  0  0  0  0  0  0  0  0
   24.2493  -21.4933  -13.8419 N   0  0  0  0  0  0  0  0  0  0  0  0
   25.4951  -21.1169  -11.8664 C   0  0  0  0  0  0  0  0  0  0  0  0
   24.3755  -20.8581  -11.2893 O   0  0  0  0  0  0  0  0  0  0  0  0
   30.4700  -20.6773   -6.7570 C   0  0  0  0  0  0  0  0  0  0  0  0
   29.0169  -19.6286   -6.7577 S   0  0  0  0  0  0  0  0  0  0  0  0
   27.5811  -20.3545   -7.5171 C   0  0  0  0  0  0  0  0  0  0  0  0
   27.6808  -20.6767   -8.9627 C   0  0  0  0  0  0  0  0  0  0  0  0
   26.3475  -21.2157   -9.5122 C   0  0  2  0  0  0  0  0  0  0  0  0
   26.5509  -21.3975  -10.9428 N   0  0  0  0  0  0  0  0  0  0  0  0
   25.2414  -20.3129   -9.1807 C   0  0  0  0  0  0  0  0  0  0  0  0
   25.1287  -19.1946   -9.6956 O   0  0  0  0  0  0  0  0  0  0  0  0
   24.3043  -20.7410   -8.2642 O   0  0  0  0  0  0  0  0  0  0  0  0
  2  1  1  1
  2  3  1  0
  4  6  1  0
  4  2  1  0
  4  5  1  1
  6  7  2  0
  6 14  1  0
  9  8  1  0
 10  9  2  0
 11  9  1  0
 12 11  1  0
 13 12  1  6
 14 13  1  0
 15 16  2  0
 15 13  1  0
 18 17  1  0
 19 18  1  0
 19 20  1  0
 21 20  1  6
 21 23  1  0
 21 22  1  0
 22 15  1  0
 23 25  1  0
 24 23  2  0
M  END
$$$$
