VQM.pdb
     RDKit          3D

 25 24  0  0  1  0  0  0  0  0999 V2000
   15.0898   -9.6727   -9.4331 C   0  0  0  0  0  0  0  0  0  0  0  0
   13.8466   -9.0434   -9.9984 C   0  0  2  0  0  0  0  0  0  0  0  0
   12.8946   -8.7679   -8.8685 C   0  0  0  0  0  0  0  0  0  0  0  0
   13.1778   -9.9356  -11.0366 C   0  0  2  0  0  0  0  0  0  0  0  0
   12.7347  -11.1698  -10.4390 N   0  0  0  0  0  0  0  0  0  0  0  0
   14.1588  -10.2369  -12.1280 C   0  0  0  0  0  0  0  0  0  0  0  0
   14.7162  -11.3629  -12.1048 O   0  0  0  0  0  0  0  0  0  0  0  0
   13.8246   -7.4784  -17.5530 N   0  0  0  0  0  0  0  0  0  0  0  0
   14.9066   -8.3483  -17.8157 C   0  0  0  0  0  0  0  0  0  0  0  0
   15.4398   -8.3379  -18.9382 O   0  0  0  0  0  0  0  0  0  0  0  0
   15.3828   -9.2400  -16.7615 C   0  0  0  0  0  0  0  0  0  0  0  0
   14.7127   -9.2173  -15.4565 C   0  0  0  0  0  0  0  0  0  0  0  0
   15.4079   -9.5137  -14.2018 C   0  0  2  0  0  0  0  0  0  0  0  0
   14.4132   -9.2626  -13.1206 N   0  0  0  0  0  0  0  0  0  0  0  0
   16.6179   -8.7959  -13.8403 C   0  0  0  0  0  0  0  0  0  0  0  0
   16.5578   -7.7608  -13.0797 O   0  0  0  0  0  0  0  0  0  0  0  0
   22.9123  -11.0002  -13.3990 C   0  0  0  0  0  0  0  0  0  0  0  0
   23.0802   -9.2236  -13.5624 S   0  0  0  0  0  0  0  0  0  0  0  0
   21.5392   -8.3353  -13.6003 C   0  0  0  0  0  0  0  0  0  0  0  0
   20.3201   -9.1252  -13.9056 C   0  0  0  0  0  0  0  0  0  0  0  0
   19.0604   -8.2401  -13.9009 C   0  0  2  0  0  0  0  0  0  0  0  0
   17.9524   -9.1228  -14.2387 N   0  0  0  0  0  0  0  0  0  0  0  0
   19.2145   -7.1054  -14.8158 C   0  0  0  0  0  0  0  0  0  0  0  0
   18.9576   -7.1937  -16.0219 O   0  0  0  0  0  0  0  0  0  0  0  0
   19.6600   -5.9076  -14.2978 O   0  0  0  0  0  0  0  0  0  0  0  0
  2  1  1  1
  2  3  1  0
  4  6  1  0
  4  2  1  0
  4  5  1  1
  6  7  2  0
  6 14  1  0
  9  8  1  0
 10  9  2  0
 11  9  1  0
 12 11  1  0
 13 12  1  6
 14 13  1  0
 15 16  2  0
 15 13  1  0
 18 17  1  0
 19 18  1  0
 19 20  1  0
 21 20  1  6
 21 23  1  0
 21 22  1  0
 22 15  1  0
 23 25  1  0
 24 23  2  0
M  END
$$$$
