VQM.pdb
     RDKit          3D

 25 24  0  0  1  0  0  0  0  0999 V2000
   28.0331  -17.9278  -14.4464 C   0  0  0  0  0  0  0  0  0  0  0  0
   27.7879  -19.3575  -14.8423 C   0  0  2  0  0  0  0  0  0  0  0  0
   28.3957  -19.5888  -16.1973 C   0  0  0  0  0  0  0  0  0  0  0  0
   26.3022  -19.6932  -14.8742 C   0  0  2  0  0  0  0  0  0  0  0  0
   25.6245  -18.9135  -15.8791 N   0  0  0  0  0  0  0  0  0  0  0  0
   25.7050  -19.3995  -13.5321 C   0  0  0  0  0  0  0  0  0  0  0  0
   25.5511  -18.1910  -13.2236 O   0  0  0  0  0  0  0  0  0  0  0  0
   20.6083  -21.5609  -11.6275 N   0  0  0  0  0  0  0  0  0  0  0  0
   21.1488  -20.8910  -12.7480 C   0  0  0  0  0  0  0  0  0  0  0  0
   20.4367  -20.7031  -13.7491 O   0  0  0  0  0  0  0  0  0  0  0  0
   22.5328  -20.4263  -12.7076 C   0  0  0  0  0  0  0  0  0  0  0  0
   23.3217  -20.6514  -11.4912 C   0  0  0  0  0  0  0  0  0  0  0  0
   24.7145  -20.2184  -11.3567 C   0  0  2  0  0  0  0  0  0  0  0  0
   25.3453  -20.4716  -12.6832 N   0  0  0  0  0  0  0  0  0  0  0  0
   25.5800  -20.8152  -10.3544 C   0  0  0  0  0  0  0  0  0  0  0  0
   25.8413  -22.0739  -10.3863 O   0  0  0  0  0  0  0  0  0  0  0  0
   29.5097  -18.3624   -5.2748 C   0  0  0  0  0  0  0  0  0  0  0  0
   28.1122  -19.2156   -4.5466 S   0  0  0  0  0  0  0  0  0  0  0  0
   27.1976  -20.2381   -5.6793 C   0  0  0  0  0  0  0  0  0  0  0  0
   27.0994  -19.7598   -7.0811 C   0  0  0  0  0  0  0  0  0  0  0  0
   26.3240  -20.7559   -7.9624 C   0  0  2  0  0  0  0  0  0  0  0  0
   26.2287  -20.1347   -9.2761 N   0  0  0  0  0  0  0  0  0  0  0  0
   25.0257  -21.0825   -7.3655 C   0  0  0  0  0  0  0  0  0  0  0  0
   23.9870  -20.4952   -7.6891 O   0  0  0  0  0  0  0  0  0  0  0  0
   24.9789  -22.0804   -6.4151 O   0  0  0  0  0  0  0  0  0  0  0  0
  2  1  1  6
  2  3  1  0
  4  6  1  0
  4  2  1  0
  4  5  1  6
  6  7  2  0
  6 14  1  0
  9  8  1  0
 10  9  2  0
 11  9  1  0
 12 11  1  0
 13 12  1  6
 14 13  1  0
 15 16  2  0
 15 13  1  0
 18 17  1  0
 19 18  1  0
 19 20  1  0
 21 20  1  1
 21 23  1  0
 21 22  1  0
 22 15  1  0
 23 25  1  0
 24 23  2  0
M  END
$$$$
