VQM.pdb
     RDKit          3D

 25 24  0  0  1  0  0  0  0  0999 V2000
   17.9474  -11.9787  -15.0664 C   0  0  0  0  0  0  0  0  0  0  0  0
   16.6645  -11.3050  -14.6649 C   0  0  2  0  0  0  0  0  0  0  0  0
   15.5165  -12.0690  -15.2626 C   0  0  0  0  0  0  0  0  0  0  0  0
   16.6166   -9.8522  -15.1212 C   0  0  2  0  0  0  0  0  0  0  0  0
   16.7512   -9.7628  -16.5533 N   0  0  0  0  0  0  0  0  0  0  0  0
   17.7345   -9.0973  -14.4697 C   0  0  0  0  0  0  0  0  0  0  0  0
   17.7262   -9.0278  -13.2149 O   0  0  0  0  0  0  0  0  0  0  0  0
   23.4992  -10.0041  -14.4551 N   0  0  0  0  0  0  0  0  0  0  0  0
   23.1144   -9.5162  -15.7241 C   0  0  0  0  0  0  0  0  0  0  0  0
   23.8324   -9.7492  -16.7114 O   0  0  0  0  0  0  0  0  0  0  0  0
   21.8767   -8.7517  -15.8539 C   0  0  0  0  0  0  0  0  0  0  0  0
   21.0108   -8.5985  -14.6795 C   0  0  0  0  0  0  0  0  0  0  0  0
   19.8415   -7.7166  -14.6648 C   0  0  2  0  0  0  0  0  0  0  0  0
   18.7340   -8.5051  -15.2757 N   0  0  0  0  0  0  0  0  0  0  0  0
   19.8750   -6.4340  -15.3458 C   0  0  0  0  0  0  0  0  0  0  0  0
   20.0380   -6.3779  -16.6202 O   0  0  0  0  0  0  0  0  0  0  0  0
   16.8418   -0.6357  -13.6956 C   0  0  0  0  0  0  0  0  0  0  0  0
   17.2910   -0.6364  -15.4304 S   0  0  0  0  0  0  0  0  0  0  0  0
   18.5854   -1.7792  -15.8590 C   0  0  0  0  0  0  0  0  0  0  0  0
   18.6692   -3.0252  -15.0565 C   0  0  0  0  0  0  0  0  0  0  0  0
   19.8061   -3.9377  -15.5515 C   0  0  2  0  0  0  0  0  0  0  0  0
   19.7283   -5.1456  -14.7417 N   0  0  0  0  0  0  0  0  0  0  0  0
   21.0996   -3.2527  -15.4715 C   0  0  0  0  0  0  0  0  0  0  0  0
   21.7964   -3.2809  -14.4507 O   0  0  0  0  0  0  0  0  0  0  0  0
   21.5390   -2.5605  -16.5802 O   0  0  0  0  0  0  0  0  0  0  0  0
  2  1  1  6
  2  3  1  0
  4  6  1  0
  4  2  1  0
  4  5  1  6
  6  7  2  0
  6 14  1  0
  9  8  1  0
 10  9  2  0
 11  9  1  0
 12 11  1  0
 13 12  1  6
 14 13  1  0
 15 16  2  0
 15 13  1  0
 18 17  1  0
 19 18  1  0
 19 20  1  0
 21 20  1  1
 21 23  1  0
 21 22  1  0
 22 15  1  0
 23 25  1  0
 24 23  2  0
M  END
$$$$
