VQM.pdb
     RDKit          3D

 25 24  0  0  1  0  0  0  0  0999 V2000
   12.5202  -12.5426  -13.1613 C   0  0  0  0  0  0  0  0  0  0  0  0
   13.5332  -12.2746  -14.2397 C   0  0  2  0  0  0  0  0  0  0  0  0
   13.7762  -13.5512  -14.9947 C   0  0  0  0  0  0  0  0  0  0  0  0
   14.8450  -11.7483  -13.6712 C   0  0  2  0  0  0  0  0  0  0  0  0
   15.4060  -12.6857  -12.7312 N   0  0  0  0  0  0  0  0  0  0  0  0
   14.5907  -10.4441  -12.9795 C   0  0  0  0  0  0  0  0  0  0  0  0
   14.1267   -9.5058  -13.6749 O   0  0  0  0  0  0  0  0  0  0  0  0
   11.6773  -10.2094   -7.7782 N   0  0  0  0  0  0  0  0  0  0  0  0
   11.1605   -9.6321   -8.9599 C   0  0  0  0  0  0  0  0  0  0  0  0
    9.9362   -9.4450   -9.0632 O   0  0  0  0  0  0  0  0  0  0  0  0
   12.0750   -9.2601  -10.0362 C   0  0  0  0  0  0  0  0  0  0  0  0
   13.5112   -9.5056   -9.8637 C   0  0  0  0  0  0  0  0  0  0  0  0
   14.5119   -9.0886  -10.8487 C   0  0  2  0  0  0  0  0  0  0  0  0
   14.8768  -10.3230  -11.6001 N   0  0  0  0  0  0  0  0  0  0  0  0
   15.7543   -8.4685  -10.4223 C   0  0  0  0  0  0  0  0  0  0  0  0
   16.6927   -9.1795   -9.9053 O   0  0  0  0  0  0  0  0  0  0  0  0
   22.6075   -6.1370  -11.7694 C   0  0  0  0  0  0  0  0  0  0  0  0
   20.9288   -6.5205  -12.2657 S   0  0  0  0  0  0  0  0  0  0  0  0
   19.7182   -6.3508  -10.9732 C   0  0  0  0  0  0  0  0  0  0  0  0
   18.3498   -6.8433  -11.2706 C   0  0  0  0  0  0  0  0  0  0  0  0
   17.3965   -6.6062  -10.0852 C   0  0  2  0  0  0  0  0  0  0  0  0
   16.0914   -7.0818  -10.5226 N   0  0  0  0  0  0  0  0  0  0  0  0
   17.4082   -5.1983   -9.6775 C   0  0  0  0  0  0  0  0  0  0  0  0
   16.6738   -4.3550  -10.2047 O   0  0  0  0  0  0  0  0  0  0  0  0
   18.2712   -4.8195   -8.6709 O   0  0  0  0  0  0  0  0  0  0  0  0
  2  1  1  1
  2  3  1  0
  4  6  1  0
  4  2  1  0
  4  5  1  1
  6  7  2  0
  6 14  1  0
  9  8  1  0
 10  9  2  0
 11  9  1  0
 12 11  1  0
 13 12  1  1
 14 13  1  0
 15 16  2  0
 15 13  1  0
 18 17  1  0
 19 18  1  0
 19 20  1  0
 21 20  1  6
 21 23  1  0
 21 22  1  0
 22 15  1  0
 23 25  1  0
 24 23  2  0
M  END
$$$$
