VQM.pdb
     RDKit          3D

 25 24  0  0  1  0  0  0  0  0999 V2000
   26.9268  -20.4880   -8.6801 C   0  0  0  0  0  0  0  0  0  0  0  0
   25.7863  -19.5466   -8.4079 C   0  0  2  0  0  0  0  0  0  0  0  0
   25.8594  -19.1105   -6.9715 C   0  0  0  0  0  0  0  0  0  0  0  0
   24.4351  -20.1924   -8.6876 C   0  0  2  0  0  0  0  0  0  0  0  0
   24.2145  -21.3142   -7.8102 N   0  0  0  0  0  0  0  0  0  0  0  0
   24.4015  -20.6610  -10.1101 C   0  0  0  0  0  0  0  0  0  0  0  0
   24.7982  -21.8312  -10.3391 O   0  0  0  0  0  0  0  0  0  0  0  0
   21.3379  -21.9399  -13.1855 N   0  0  0  0  0  0  0  0  0  0  0  0
   21.4961  -21.2525  -14.4098 C   0  0  0  0  0  0  0  0  0  0  0  0
   20.9818  -21.7166  -15.4416 O   0  0  0  0  0  0  0  0  0  0  0  0
   22.2564  -20.0058  -14.4398 C   0  0  0  0  0  0  0  0  0  0  0  0
   22.8618  -19.5138  -13.1972 C   0  0  0  0  0  0  0  0  0  0  0  0
   24.0040  -20.1698  -12.5564 C   0  0  2  0  0  0  0  0  0  0  0  0
   23.9344  -19.7861  -11.1179 N   0  0  0  0  0  0  0  0  0  0  0  0
   25.3588  -19.8967  -13.0034 C   0  0  0  0  0  0  0  0  0  0  0  0
   25.9618  -18.8227  -12.6342 O   0  0  0  0  0  0  0  0  0  0  0  0
   30.0903  -21.5208  -10.3225 C   0  0  0  0  0  0  0  0  0  0  0  0
   30.9204  -21.1722  -11.8720 S   0  0  0  0  0  0  0  0  0  0  0  0
   29.8341  -20.7336  -13.2108 C   0  0  0  0  0  0  0  0  0  0  0  0
   28.3855  -20.9847  -13.0054 C   0  0  0  0  0  0  0  0  0  0  0  0
   27.5421  -20.3710  -14.1378 C   0  0  2  0  0  0  0  0  0  0  0  0
   26.1614  -20.7298  -13.8451 N   0  0  0  0  0  0  0  0  0  0  0  0
   28.0095  -20.8329  -15.4481 C   0  0  0  0  0  0  0  0  0  0  0  0
   27.5865  -21.8715  -15.9683 O   0  0  0  0  0  0  0  0  0  0  0  0
   28.9505  -20.0716  -16.1087 O   0  0  0  0  0  0  0  0  0  0  0  0
  2  1  1  1
  2  3  1  0
  4  6  1  0
  4  2  1  0
  4  5  1  1
  6  7  2  0
  6 14  1  0
  9  8  1  0
 10  9  2  0
 11  9  1  0
 12 11  1  0
 13 12  1  6
 14 13  1  0
 15 16  2  0
 15 13  1  0
 18 17  1  0
 19 18  1  0
 19 20  1  0
 21 20  1  1
 21 23  1  0
 21 22  1  0
 22 15  1  0
 23 25  1  0
 24 23  2  0
M  END
$$$$
