KWV.pdb
     RDKit          3D

 31 32  0  0  1  0  0  0  0  0999 V2000
    7.3479  -16.4888   20.6411 N   0  0  0  0  0  0  0  0  0  0  0  0
    8.3189  -15.4637   20.6682 C   0  0  1  0  0  0  0  0  0  0  0  0
    7.9078  -14.1700   20.1370 C   0  0  0  0  0  0  0  0  0  0  0  0
    7.6694  -13.8641   18.7523 C   0  0  0  0  0  0  0  0  0  0  0  0
    8.3918  -14.1194   17.5407 C   0  0  0  0  0  0  0  0  0  0  0  0
    8.0300  -13.7986   16.1681 C   0  0  0  0  0  0  0  0  0  0  0  0
    7.0520  -12.8077   15.8833 N   0  0  0  0  0  0  0  0  0  0  0  0
    8.8885  -15.3682   22.0589 C   0  0  0  0  0  0  0  0  0  0  0  0
    9.6536  -14.4167   22.3174 O   0  0  0  0  0  0  0  0  0  0  0  0
    8.5974  -16.2966   23.0710 N   0  0  0  0  0  0  0  0  0  0  0  0
    9.1998  -16.3475   24.3724 C   0  0  1  0  0  0  0  0  0  0  0  0
    8.2509  -16.3404   25.5124 C   0  0  0  0  0  0  0  0  0  0  0  0
    7.1801  -15.3274   25.4486 C   0  0  0  0  0  0  0  0  0  0  0  0
    5.8795  -15.4006   25.0799 C   0  0  0  0  0  0  0  0  0  0  0  0
    5.3277  -14.1723   25.2065 N   0  0  0  0  0  0  0  0  0  0  0  0
    6.2526  -13.2918   25.6548 C   0  0  0  0  0  0  0  0  0  0  0  0
    6.2237  -11.9447   25.9507 C   0  0  0  0  0  0  0  0  0  0  0  0
    7.3548  -11.2899   26.4055 C   0  0  0  0  0  0  0  0  0  0  0  0
    8.5320  -11.9958   26.5664 C   0  0  0  0  0  0  0  0  0  0  0  0
    8.5461  -13.3349   26.2684 C   0  0  0  0  0  0  0  0  0  0  0  0
    7.4115  -14.0013   25.8096 C   0  0  0  0  0  0  0  0  0  0  0  0
   10.2098  -17.4367   24.4434 C   0  0  0  0  0  0  0  0  0  0  0  0
    9.9264  -18.6186   24.1182 O   0  0  0  0  0  0  0  0  0  0  0  0
   14.0396  -17.1216   23.4093 C   0  0  0  0  0  0  0  0  0  0  0  0
   13.8979  -17.7590   24.7799 C   0  0  2  0  0  0  0  0  0  0  0  0
   14.9732  -18.8230   24.8543 C   0  0  0  0  0  0  0  0  0  0  0  0
   12.5223  -18.3213   24.9176 C   0  0  2  0  0  0  0  0  0  0  0  0
   11.5648  -17.2162   24.8844 N   0  0  0  0  0  0  0  0  0  0  0  0
   12.4091  -18.9720   26.2366 C   0  0  0  0  0  0  0  0  0  0  0  0
   12.6769  -20.1820   26.3624 O   0  0  0  0  0  0  0  0  0  0  0  0
   12.0067  -18.2459   27.3345 O   0  0  0  0  0  0  0  0  0  0  0  0
  2  1  1  1
  3  2  1  0
  3  4  1  0
  5  4  1  0
  5  6  1  0
  7  6  1  0
  8  2  1  0
  8  9  2  0
 10  8  1  0
 11 10  1  0
 11 12  1  1
 13 12  1  0
 14 13  2  0
 15 14  1  0
 16 21  2  0
 16 15  1  0
 17 16  1  0
 18 17  2  0
 18 19  1  0
 19 20  2  0
 20 21  1  0
 21 13  1  0
 22 11  1  0
 23 22  2  0
 25 24  1  6
 25 27  1  0
 26 25  1  0
 27 28  1  1
 27 29  1  0
 28 22  1  0
 29 31  1  0
 30 29  2  0
M  END
$$$$
