KWV.pdb
     RDKit          3D

 31 32  0  0  1  0  0  0  0  0999 V2000
    8.5347  -16.7723   20.1678 N   0  0  0  0  0  0  0  0  0  0  0  0
    9.1264  -15.5002   20.3293 C   0  0  1  0  0  0  0  0  0  0  0  0
    8.6085  -14.4342   19.4806 C   0  0  0  0  0  0  0  0  0  0  0  0
    8.5258  -14.4636   18.0453 C   0  0  0  0  0  0  0  0  0  0  0  0
    8.4853  -15.5179   17.0749 C   0  0  0  0  0  0  0  0  0  0  0  0
    8.4076  -15.4315   15.6242 C   0  0  0  0  0  0  0  0  0  0  0  0
    9.5806  -15.2677   14.8387 N   0  0  0  0  0  0  0  0  0  0  0  0
    9.1148  -15.1390   21.7910 C   0  0  0  0  0  0  0  0  0  0  0  0
    9.5125  -14.0026   22.1196 O   0  0  0  0  0  0  0  0  0  0  0  0
    8.6780  -16.0191   22.7939 N   0  0  0  0  0  0  0  0  0  0  0  0
    8.4927  -15.6986   24.1802 C   0  0  1  0  0  0  0  0  0  0  0  0
    7.2773  -16.2721   24.8079 C   0  0  0  0  0  0  0  0  0  0  0  0
    6.3103  -15.2946   25.3429 C   0  0  0  0  0  0  0  0  0  0  0  0
    5.0260  -15.4169   25.7535 C   0  0  0  0  0  0  0  0  0  0  0  0
    4.5881  -14.2036   26.1603 N   0  0  0  0  0  0  0  0  0  0  0  0
    5.5717  -13.2845   26.0213 C   0  0  0  0  0  0  0  0  0  0  0  0
    5.6583  -11.9322   26.2805 C   0  0  0  0  0  0  0  0  0  0  0  0
    6.8260  -11.2321   26.0337 C   0  0  0  0  0  0  0  0  0  0  0  0
    7.9233  -11.8970   25.5200 C   0  0  0  0  0  0  0  0  0  0  0  0
    7.8230  -13.2418   25.2673 C   0  0  0  0  0  0  0  0  0  0  0  0
    6.6505  -13.9538   25.5127 C   0  0  0  0  0  0  0  0  0  0  0  0
    9.7388  -15.9526   24.9510 C   0  0  0  0  0  0  0  0  0  0  0  0
   10.6787  -16.6399   24.4740 O   0  0  0  0  0  0  0  0  0  0  0  0
   12.4040  -15.3496   29.0970 C   0  0  0  0  0  0  0  0  0  0  0  0
   11.2143  -14.9261   28.2543 C   0  0  2  0  0  0  0  0  0  0  0  0
    9.9928  -15.1490   29.1216 C   0  0  0  0  0  0  0  0  0  0  0  0
   11.1872  -15.7396   27.0033 C   0  0  2  0  0  0  0  0  0  0  0  0
    9.9527  -15.4362   26.2802 N   0  0  0  0  0  0  0  0  0  0  0  0
   11.1512  -17.1678   27.3706 C   0  0  0  0  0  0  0  0  0  0  0  0
   12.2109  -17.8148   27.4719 O   0  0  0  0  0  0  0  0  0  0  0  0
    9.9470  -17.7927   27.6028 O   0  0  0  0  0  0  0  0  0  0  0  0
  2  1  1  1
  3  2  1  0
  3  4  1  0
  5  4  1  0
  5  6  1  0
  7  6  1  0
  8  2  1  0
  8  9  2  0
 10  8  1  0
 11 10  1  0
 11 12  1  1
 13 12  1  0
 14 13  2  0
 15 14  1  0
 16 21  2  0
 16 15  1  0
 17 16  1  0
 18 17  2  0
 18 19  1  0
 19 20  2  0
 20 21  1  0
 21 13  1  0
 22 11  1  0
 23 22  2  0
 25 24  1  1
 25 27  1  0
 26 25  1  0
 27 28  1  1
 27 29  1  0
 28 22  1  0
 29 31  1  0
 30 29  2  0
M  END
$$$$
