KWV.pdb
     RDKit          3D

 31 32  0  0  1  0  0  0  0  0999 V2000
    9.7503  -16.0917   19.9113 N   0  0  0  0  0  0  0  0  0  0  0  0
   10.4074  -16.7648   20.9646 C   0  0  1  0  0  0  0  0  0  0  0  0
   11.8446  -16.9553   20.8128 C   0  0  0  0  0  0  0  0  0  0  0  0
   12.4821  -18.0204   20.0868 C   0  0  0  0  0  0  0  0  0  0  0  0
   11.9954  -19.1450   19.3431 C   0  0  0  0  0  0  0  0  0  0  0  0
   12.7410  -20.1505   18.6010 C   0  0  0  0  0  0  0  0  0  0  0  0
   13.5489  -21.1058   19.2751 N   0  0  0  0  0  0  0  0  0  0  0  0
   10.0416  -16.1055   22.2681 C   0  0  0  0  0  0  0  0  0  0  0  0
   10.3458  -14.9056   22.4264 O   0  0  0  0  0  0  0  0  0  0  0  0
    9.3766  -16.7776   23.3060 N   0  0  0  0  0  0  0  0  0  0  0  0
    8.9464  -16.2026   24.5483 C   0  0  1  0  0  0  0  0  0  0  0  0
    7.6095  -16.6382   25.0207 C   0  0  0  0  0  0  0  0  0  0  0  0
    6.5493  -15.6131   24.9775 C   0  0  0  0  0  0  0  0  0  0  0  0
    5.2488  -15.6648   24.6043 C   0  0  0  0  0  0  0  0  0  0  0  0
    4.7092  -14.4340   24.7575 N   0  0  0  0  0  0  0  0  0  0  0  0
    5.6419  -13.5734   25.2276 C   0  0  0  0  0  0  0  0  0  0  0  0
    5.6259  -12.2331   25.5540 C   0  0  0  0  0  0  0  0  0  0  0  0
    6.7624  -11.6004   26.0260 C   0  0  0  0  0  0  0  0  0  0  0  0
    7.9321  -12.3216   26.1734 C   0  0  0  0  0  0  0  0  0  0  0  0
    7.9333  -13.6538   25.8453 C   0  0  0  0  0  0  0  0  0  0  0  0
    6.7932  -14.2980   25.3689 C   0  0  0  0  0  0  0  0  0  0  0  0
   10.0111  -16.3196   25.5799 C   0  0  0  0  0  0  0  0  0  0  0  0
   11.0252  -17.0421   25.3995 O   0  0  0  0  0  0  0  0  0  0  0  0
   10.7581  -13.5051   28.5392 C   0  0  0  0  0  0  0  0  0  0  0  0
   10.7069  -14.9460   29.0149 C   0  0  2  0  0  0  0  0  0  0  0  0
   11.7531  -15.0594   30.1042 C   0  0  0  0  0  0  0  0  0  0  0  0
   10.9786  -15.8519   27.8603 C   0  0  2  0  0  0  0  0  0  0  0  0
    9.9550  -15.6228   26.8411 N   0  0  0  0  0  0  0  0  0  0  0  0
   10.8508  -17.2486   28.3171 C   0  0  0  0  0  0  0  0  0  0  0  0
    9.7296  -17.7886   28.3729 O   0  0  0  0  0  0  0  0  0  0  0  0
   11.9693  -17.9620   28.6841 O   0  0  0  0  0  0  0  0  0  0  0  0
  2  1  1  6
  3  2  1  0
  3  4  1  0
  5  4  1  0
  5  6  1  0
  7  6  1  0
  8  2  1  0
  8  9  2  0
 10  8  1  0
 11 10  1  0
 11 12  1  1
 13 12  1  0
 14 13  2  0
 15 14  1  0
 16 21  2  0
 16 15  1  0
 17 16  1  0
 18 17  2  0
 18 19  1  0
 19 20  2  0
 20 21  1  0
 21 13  1  0
 22 11  1  0
 23 22  2  0
 25 24  1  6
 25 27  1  0
 26 25  1  0
 27 28  1  6
 27 29  1  0
 28 22  1  0
 29 31  1  0
 30 29  2  0
M  END
$$$$
