KWV.pdb
     RDKit          3D

 31 32  0  0  1  0  0  0  0  0999 V2000
    5.7144  -15.6702   21.1031 N   0  0  0  0  0  0  0  0  0  0  0  0
    7.0761  -15.9307   20.8341 C   0  0  1  0  0  0  0  0  0  0  0  0
    7.6207  -15.3345   19.6205 C   0  0  0  0  0  0  0  0  0  0  0  0
    7.7303  -15.9793   18.3399 C   0  0  0  0  0  0  0  0  0  0  0  0
    8.7828  -16.6868   17.6717 C   0  0  0  0  0  0  0  0  0  0  0  0
    8.7853  -17.3039   16.3538 C   0  0  0  0  0  0  0  0  0  0  0  0
    9.9512  -17.9392   15.8471 N   0  0  0  0  0  0  0  0  0  0  0  0
    7.8869  -15.6016   22.0596 C   0  0  0  0  0  0  0  0  0  0  0  0
    8.1691  -14.4051   22.2747 O   0  0  0  0  0  0  0  0  0  0  0  0
    8.3357  -16.5760   22.9652 N   0  0  0  0  0  0  0  0  0  0  0  0
    9.1599  -16.3461   24.1171 C   0  0  1  0  0  0  0  0  0  0  0  0
    8.4611  -16.4202   25.4233 C   0  0  0  0  0  0  0  0  0  0  0  0
    7.3868  -15.4309   25.6324 C   0  0  0  0  0  0  0  0  0  0  0  0
    6.0376  -15.5269   25.5731 C   0  0  0  0  0  0  0  0  0  0  0  0
    5.5083  -14.3140   25.8522 N   0  0  0  0  0  0  0  0  0  0  0  0
    6.4960  -13.4211   26.0945 C   0  0  0  0  0  0  0  0  0  0  0  0
    6.5124  -12.0806   26.4201 C   0  0  0  0  0  0  0  0  0  0  0  0
    7.7062  -11.4087   26.6157 C   0  0  0  0  0  0  0  0  0  0  0  0
    8.9011  -12.0903   26.4835 C   0  0  0  0  0  0  0  0  0  0  0  0
    8.8697  -13.4232   26.1596 C   0  0  0  0  0  0  0  0  0  0  0  0
    7.6718  -14.1067   25.9605 C   0  0  0  0  0  0  0  0  0  0  0  0
   10.3958  -17.1706   24.0538 C   0  0  0  0  0  0  0  0  0  0  0  0
   10.3484  -18.4134   23.8632 O   0  0  0  0  0  0  0  0  0  0  0  0
   13.9410  -15.9094   22.5746 C   0  0  0  0  0  0  0  0  0  0  0  0
   14.0953  -16.6151   23.9099 C   0  0  2  0  0  0  0  0  0  0  0  0
   15.3751  -17.4184   23.8078 C   0  0  0  0  0  0  0  0  0  0  0  0
   12.8969  -17.4713   24.1515 C   0  0  2  0  0  0  0  0  0  0  0  0
   11.7158  -16.6103   24.2051 N   0  0  0  0  0  0  0  0  0  0  0  0
   13.0386  -18.1191   25.4692 C   0  0  0  0  0  0  0  0  0  0  0  0
   12.6167  -17.5511   26.4944 O   0  0  0  0  0  0  0  0  0  0  0  0
   13.6379  -19.3539   25.5725 O   0  0  0  0  0  0  0  0  0  0  0  0
  2  1  1  1
  3  2  1  0
  3  4  1  0
  5  4  1  0
  5  6  1  0
  7  6  1  0
  8  2  1  0
  8  9  2  0
 10  8  1  0
 11 10  1  0
 11 12  1  1
 13 12  1  0
 14 13  2  0
 15 14  1  0
 16 21  2  0
 16 15  1  0
 17 16  1  0
 18 17  2  0
 18 19  1  0
 19 20  2  0
 20 21  1  0
 21 13  1  0
 22 11  1  0
 23 22  2  0
 25 24  1  6
 25 27  1  0
 26 25  1  0
 27 28  1  1
 27 29  1  0
 28 22  1  0
 29 31  1  0
 30 29  2  0
M  END
$$$$
