KWV.pdb
     RDKit          3D

 31 32  0  0  1  0  0  0  0  0999 V2000
    8.3401  -16.5678   20.4313 N   0  0  0  0  0  0  0  0  0  0  0  0
    8.8533  -15.2602   20.5765 C   0  0  1  0  0  0  0  0  0  0  0  0
    8.1344  -14.2024   19.8770 C   0  0  0  0  0  0  0  0  0  0  0  0
    7.5583  -14.3005   18.5631 C   0  0  0  0  0  0  0  0  0  0  0  0
    8.0768  -14.6619   17.2764 C   0  0  0  0  0  0  0  0  0  0  0  0
    8.6826  -13.8176   16.2576 C   0  0  0  0  0  0  0  0  0  0  0  0
    9.1926  -14.3767   15.0547 N   0  0  0  0  0  0  0  0  0  0  0  0
    9.0376  -14.9685   22.0422 C   0  0  0  0  0  0  0  0  0  0  0  0
    9.3881  -13.8176   22.3738 O   0  0  0  0  0  0  0  0  0  0  0  0
    8.8328  -15.9289   23.0457 N   0  0  0  0  0  0  0  0  0  0  0  0
    8.7427  -15.6752   24.4551 C   0  0  1  0  0  0  0  0  0  0  0  0
    7.5858  -16.3009   25.1406 C   0  0  0  0  0  0  0  0  0  0  0  0
    6.4545  -15.4019   25.4385 C   0  0  0  0  0  0  0  0  0  0  0  0
    5.1294  -15.6295   25.5979 C   0  0  0  0  0  0  0  0  0  0  0  0
    4.5204  -14.4512   25.8626 N   0  0  0  0  0  0  0  0  0  0  0  0
    5.4319  -13.4509   25.8788 C   0  0  0  0  0  0  0  0  0  0  0  0
    5.3526  -12.0905   26.0944 C   0  0  0  0  0  0  0  0  0  0  0  0
    6.4834  -11.2943   26.0494 C   0  0  0  0  0  0  0  0  0  0  0  0
    7.7117  -11.8698   25.7848 C   0  0  0  0  0  0  0  0  0  0  0  0
    7.7756  -13.2238   25.5727 C   0  0  0  0  0  0  0  0  0  0  0  0
    6.6415  -14.0323   25.6158 C   0  0  0  0  0  0  0  0  0  0  0  0
   10.0455  -15.9384   25.1223 C   0  0  0  0  0  0  0  0  0  0  0  0
   10.9633  -16.5764   24.5445 O   0  0  0  0  0  0  0  0  0  0  0  0
   10.6265  -15.7234   29.3695 C   0  0  0  0  0  0  0  0  0  0  0  0
   11.6795  -15.1730   28.4244 C   0  0  2  0  0  0  0  0  0  0  0  0
   11.3905  -13.6914   28.3009 C   0  0  0  0  0  0  0  0  0  0  0  0
   11.5851  -15.8880   27.1177 C   0  0  2  0  0  0  0  0  0  0  0  0
   10.3422  -15.4873   26.4593 N   0  0  0  0  0  0  0  0  0  0  0  0
   11.5063  -17.3377   27.3785 C   0  0  0  0  0  0  0  0  0  0  0  0
   10.4176  -17.9340   27.2741 O   0  0  0  0  0  0  0  0  0  0  0  0
   12.6348  -18.0386   27.7389 O   0  0  0  0  0  0  0  0  0  0  0  0
  2  1  1  1
  3  2  1  0
  3  4  1  0
  5  4  1  0
  5  6  1  0
  7  6  1  0
  8  2  1  0
  8  9  2  0
 10  8  1  0
 11 10  1  0
 11 12  1  1
 13 12  1  0
 14 13  2  0
 15 14  1  0
 16 21  2  0
 16 15  1  0
 17 16  1  0
 18 17  2  0
 18 19  1  0
 19 20  2  0
 20 21  1  0
 21 13  1  0
 22 11  1  0
 23 22  2  0
 25 24  1  1
 25 27  1  0
 26 25  1  0
 27 28  1  1
 27 29  1  0
 28 22  1  0
 29 31  1  0
 30 29  2  0
M  END
$$$$
