KWV.pdb
     RDKit          3D

 31 32  0  0  1  0  0  0  0  0999 V2000
    8.6687  -16.5938   20.6282 N   0  0  0  0  0  0  0  0  0  0  0  0
    9.1586  -15.2790   20.7877 C   0  0  1  0  0  0  0  0  0  0  0  0
    8.5007  -14.2441   19.9997 C   0  0  0  0  0  0  0  0  0  0  0  0
    8.0317  -14.3839   18.6475 C   0  0  0  0  0  0  0  0  0  0  0  0
    8.5974  -14.0846   17.3648 C   0  0  0  0  0  0  0  0  0  0  0  0
    8.0024  -14.2146   16.0431 C   0  0  0  0  0  0  0  0  0  0  0  0
    8.7149  -13.8176   14.8793 N   0  0  0  0  0  0  0  0  0  0  0  0
    9.2059  -14.9510   22.2566 C   0  0  0  0  0  0  0  0  0  0  0  0
    9.4267  -13.7684   22.5888 O   0  0  0  0  0  0  0  0  0  0  0  0
    9.0129  -15.9115   23.2623 N   0  0  0  0  0  0  0  0  0  0  0  0
    8.8848  -15.6522   24.6678 C   0  0  1  0  0  0  0  0  0  0  0  0
    7.6717  -16.2150   25.3095 C   0  0  0  0  0  0  0  0  0  0  0  0
    6.5306  -15.2896   25.4453 C   0  0  0  0  0  0  0  0  0  0  0  0
    5.1919  -15.4912   25.4520 C   0  0  0  0  0  0  0  0  0  0  0  0
    4.5787  -14.2960   25.6092 N   0  0  0  0  0  0  0  0  0  0  0  0
    5.5009  -13.3103   25.7059 C   0  0  0  0  0  0  0  0  0  0  0  0
    5.4229  -11.9430   25.8724 C   0  0  0  0  0  0  0  0  0  0  0  0
    6.5662  -11.1664   25.9402 C   0  0  0  0  0  0  0  0  0  0  0  0
    7.8059  -11.7690   25.8401 C   0  0  0  0  0  0  0  0  0  0  0  0
    7.8684  -13.1296   25.6750 C   0  0  0  0  0  0  0  0  0  0  0  0
    6.7217  -13.9184   25.6053 C   0  0  0  0  0  0  0  0  0  0  0  0
   10.1462  -15.9839   25.3820 C   0  0  0  0  0  0  0  0  0  0  0  0
   11.0626  -16.6435   24.8267 O   0  0  0  0  0  0  0  0  0  0  0  0
   10.5716  -15.9614   29.6690 C   0  0  0  0  0  0  0  0  0  0  0  0
   11.6548  -15.3819   28.7769 C   0  0  2  0  0  0  0  0  0  0  0  0
   11.3755  -13.8954   28.6994 C   0  0  0  0  0  0  0  0  0  0  0  0
   11.5971  -16.0480   27.4425 C   0  0  2  0  0  0  0  0  0  0  0  0
   10.4024  -15.5783   26.7418 N   0  0  0  0  0  0  0  0  0  0  0  0
   11.4535  -17.5017   27.6474 C   0  0  0  0  0  0  0  0  0  0  0  0
   10.3401  -18.0450   27.5170 O   0  0  0  0  0  0  0  0  0  0  0  0
   12.5484  -18.2649   27.9839 O   0  0  0  0  0  0  0  0  0  0  0  0
  2  1  1  1
  3  2  1  0
  3  4  1  0
  5  4  1  0
  5  6  1  0
  7  6  1  0
  8  2  1  0
  8  9  2  0
 10  8  1  0
 11 10  1  0
 11 12  1  1
 13 12  1  0
 14 13  2  0
 15 14  1  0
 16 21  2  0
 16 15  1  0
 17 16  1  0
 18 17  2  0
 18 19  1  0
 19 20  2  0
 20 21  1  0
 21 13  1  0
 22 11  1  0
 23 22  2  0
 25 24  1  1
 25 27  1  0
 26 25  1  0
 27 28  1  6
 27 29  1  0
 28 22  1  0
 29 31  1  0
 30 29  2  0
M  END
$$$$
