KWV.pdb
     RDKit          3D

 31 32  0  0  1  0  0  0  0  0999 V2000
    7.3044  -15.9843   20.6796 N   0  0  0  0  0  0  0  0  0  0  0  0
    8.3507  -15.0357   20.6788 C   0  0  1  0  0  0  0  0  0  0  0  0
    7.9845  -13.6700   20.3243 C   0  0  0  0  0  0  0  0  0  0  0  0
    7.4744  -13.2370   19.0515 C   0  0  0  0  0  0  0  0  0  0  0  0
    7.7793  -13.5762   17.6925 C   0  0  0  0  0  0  0  0  0  0  0  0
    7.2400  -13.0187   16.4612 C   0  0  0  0  0  0  0  0  0  0  0  0
    7.6096  -13.5498   15.1959 N   0  0  0  0  0  0  0  0  0  0  0  0
    9.0864  -15.1200   21.9900 C   0  0  0  0  0  0  0  0  0  0  0  0
   10.0357  -14.3335   22.1837 O   0  0  0  0  0  0  0  0  0  0  0  0
    8.7524  -16.0387   22.9977 N   0  0  0  0  0  0  0  0  0  0  0  0
    9.4073  -16.1792   24.2668 C   0  0  1  0  0  0  0  0  0  0  0  0
    8.5057  -16.3641   25.4299 C   0  0  0  0  0  0  0  0  0  0  0  0
    7.3573  -15.4407   25.5037 C   0  0  0  0  0  0  0  0  0  0  0  0
    6.0361  -15.6112   25.2623 C   0  0  0  0  0  0  0  0  0  0  0  0
    5.4046  -14.4354   25.4814 N   0  0  0  0  0  0  0  0  0  0  0  0
    6.2974  -13.4932   25.8645 C   0  0  0  0  0  0  0  0  0  0  0  0
    6.1921  -12.1603   26.2045 C   0  0  0  0  0  0  0  0  0  0  0  0
    7.3079  -11.4264   26.5666 C   0  0  0  0  0  0  0  0  0  0  0  0
    8.5474  -12.0372   26.5886 C   0  0  0  0  0  0  0  0  0  0  0  0
    8.6372  -13.3633   26.2484 C   0  0  0  0  0  0  0  0  0  0  0  0
    7.5184  -14.1091   25.8822 C   0  0  0  0  0  0  0  0  0  0  0  0
   10.4960  -17.1892   24.1890 C   0  0  0  0  0  0  0  0  0  0  0  0
   10.3431  -18.2748   23.5717 O   0  0  0  0  0  0  0  0  0  0  0  0
   14.0923  -16.7151   23.1203 C   0  0  0  0  0  0  0  0  0  0  0  0
   14.1256  -17.3934   24.4781 C   0  0  2  0  0  0  0  0  0  0  0  0
   15.2624  -18.3921   24.4138 C   0  0  0  0  0  0  0  0  0  0  0  0
   12.8053  -18.0409   24.7335 C   0  0  2  0  0  0  0  0  0  0  0  0
   11.7840  -16.9967   24.8079 N   0  0  0  0  0  0  0  0  0  0  0  0
   12.8558  -18.7120   26.0462 C   0  0  0  0  0  0  0  0  0  0  0  0
   12.4298  -18.1313   27.0625 O   0  0  0  0  0  0  0  0  0  0  0  0
   13.3739  -19.9826   26.1546 O   0  0  0  0  0  0  0  0  0  0  0  0
  2  1  1  1
  3  2  1  0
  3  4  1  0
  5  4  1  0
  5  6  1  0
  7  6  1  0
  8  2  1  0
  8  9  2  0
 10  8  1  0
 11 10  1  0
 11 12  1  1
 13 12  1  0
 14 13  2  0
 15 14  1  0
 16 21  2  0
 16 15  1  0
 17 16  1  0
 18 17  2  0
 18 19  1  0
 19 20  2  0
 20 21  1  0
 21 13  1  0
 22 11  1  0
 23 22  2  0
 25 24  1  6
 25 27  1  0
 26 25  1  0
 27 28  1  1
 27 29  1  0
 28 22  1  0
 29 31  1  0
 30 29  2  0
M  END
$$$$
