KWV.pdb
     RDKit          3D

 31 32  0  0  1  0  0  0  0  0999 V2000
    9.5077  -17.0620   19.9247 N   0  0  0  0  0  0  0  0  0  0  0  0
    9.6236  -15.6569   20.0082 C   0  0  1  0  0  0  0  0  0  0  0  0
    8.8319  -14.8856   19.0578 C   0  0  0  0  0  0  0  0  0  0  0  0
    9.2614  -14.4573   17.7540 C   0  0  0  0  0  0  0  0  0  0  0  0
    8.5958  -13.8483   16.6401 C   0  0  0  0  0  0  0  0  0  0  0  0
    8.6406  -14.2093   15.2310 C   0  0  0  0  0  0  0  0  0  0  0  0
    7.5165  -13.9993   14.3873 N   0  0  0  0  0  0  0  0  0  0  0  0
    9.3967  -15.2328   21.4351 C   0  0  0  0  0  0  0  0  0  0  0  0
    9.7056  -14.0679   21.7590 O   0  0  0  0  0  0  0  0  0  0  0  0
    8.8554  -16.0853   22.4105 N   0  0  0  0  0  0  0  0  0  0  0  0
    8.4530  -15.7089   23.7354 C   0  0  1  0  0  0  0  0  0  0  0  0
    7.1731  -16.2960   24.2014 C   0  0  0  0  0  0  0  0  0  0  0  0
    6.3740  -15.4518   25.1100 C   0  0  0  0  0  0  0  0  0  0  0  0
    5.3214  -15.7261   25.9162 C   0  0  0  0  0  0  0  0  0  0  0  0
    4.9553  -14.5868   26.5465 N   0  0  0  0  0  0  0  0  0  0  0  0
    5.7566  -13.5659   26.1629 C   0  0  0  0  0  0  0  0  0  0  0  0
    5.8202  -12.2272   26.4902 C   0  0  0  0  0  0  0  0  0  0  0  0
    6.7742  -11.3993   25.9252 C   0  0  0  0  0  0  0  0  0  0  0  0
    7.6781  -11.9208   25.0191 C   0  0  0  0  0  0  0  0  0  0  0  0
    7.6033  -13.2538   24.7031 C   0  0  0  0  0  0  0  0  0  0  0  0
    6.6453  -14.0938   25.2674 C   0  0  0  0  0  0  0  0  0  0  0  0
    9.5744  -15.8831   24.6963 C   0  0  0  0  0  0  0  0  0  0  0  0
   10.7064  -16.2836   24.3205 O   0  0  0  0  0  0  0  0  0  0  0  0
   10.2994  -13.2821   27.6195 C   0  0  0  0  0  0  0  0  0  0  0  0
   10.3678  -14.7110   28.1277 C   0  0  2  0  0  0  0  0  0  0  0  0
   11.4881  -14.7345   29.1466 C   0  0  0  0  0  0  0  0  0  0  0  0
   10.6182  -15.6277   26.9768 C   0  0  2  0  0  0  0  0  0  0  0  0
    9.4433  -15.6092   26.1059 N   0  0  0  0  0  0  0  0  0  0  0  0
   10.7713  -17.0011   27.4928 C   0  0  0  0  0  0  0  0  0  0  0  0
   11.8999  -17.4346   27.7927 O   0  0  0  0  0  0  0  0  0  0  0  0
    9.6683  -17.8103   27.6452 O   0  0  0  0  0  0  0  0  0  0  0  0
  2  1  1  1
  3  2  1  0
  3  4  1  0
  5  4  1  0
  5  6  1  0
  7  6  1  0
  8  2  1  0
  8  9  2  0
 10  8  1  0
 11 10  1  0
 11 12  1  1
 13 12  1  0
 14 13  2  0
 15 14  1  0
 16 21  2  0
 16 15  1  0
 17 16  1  0
 18 17  2  0
 18 19  1  0
 19 20  2  0
 20 21  1  0
 21 13  1  0
 22 11  1  0
 23 22  2  0
 25 24  1  6
 25 27  1  0
 26 25  1  0
 27 28  1  6
 27 29  1  0
 28 22  1  0
 29 31  1  0
 30 29  2  0
M  END
$$$$
