KWV.pdb
     RDKit          3D

 31 32  0  0  1  0  0  0  0  0999 V2000
    8.6959  -16.0504   20.1042 N   0  0  0  0  0  0  0  0  0  0  0  0
    9.1617  -14.7582   20.4327 C   0  0  1  0  0  0  0  0  0  0  0  0
    8.5107  -13.6446   19.7537 C   0  0  0  0  0  0  0  0  0  0  0  0
    8.3547  -13.4989   18.3317 C   0  0  0  0  0  0  0  0  0  0  0  0
    8.6214  -14.3523   17.2112 C   0  0  0  0  0  0  0  0  0  0  0  0
    8.4602  -14.0834   15.7901 C   0  0  0  0  0  0  0  0  0  0  0  0
    8.8511  -15.0422   14.8167 N   0  0  0  0  0  0  0  0  0  0  0  0
    9.1632  -14.6066   21.9309 C   0  0  0  0  0  0  0  0  0  0  0  0
    9.5492  -13.5218   22.4122 O   0  0  0  0  0  0  0  0  0  0  0  0
    8.7511  -15.6258   22.8041 N   0  0  0  0  0  0  0  0  0  0  0  0
    8.5127  -15.4895   24.2125 C   0  0  1  0  0  0  0  0  0  0  0  0
    7.2764  -16.1381   24.7132 C   0  0  0  0  0  0  0  0  0  0  0  0
    6.2353  -15.2255   25.2232 C   0  0  0  0  0  0  0  0  0  0  0  0
    4.9181  -15.4021   25.4818 C   0  0  0  0  0  0  0  0  0  0  0  0
    4.4109  -14.2357   25.9416 N   0  0  0  0  0  0  0  0  0  0  0  0
    5.3814  -13.2936   25.9878 C   0  0  0  0  0  0  0  0  0  0  0  0
    5.4078  -11.9681   26.3694 C   0  0  0  0  0  0  0  0  0  0  0  0
    6.5780  -11.2319   26.3099 C   0  0  0  0  0  0  0  0  0  0  0  0
    7.7389  -11.8332   25.8618 C   0  0  0  0  0  0  0  0  0  0  0  0
    7.6980  -13.1520   25.4858 C   0  0  0  0  0  0  0  0  0  0  0  0
    6.5235  -13.8999   25.5424 C   0  0  0  0  0  0  0  0  0  0  0  0
    9.7298  -15.8445   24.9898 C   0  0  0  0  0  0  0  0  0  0  0  0
   10.7340  -16.3646   24.4383 O   0  0  0  0  0  0  0  0  0  0  0  0
   10.7699  -13.8728   28.4697 C   0  0  0  0  0  0  0  0  0  0  0  0
   10.9839  -15.3755   28.5034 C   0  0  2  0  0  0  0  0  0  0  0  0
   12.2458  -15.5956   29.3114 C   0  0  0  0  0  0  0  0  0  0  0  0
   11.1006  -15.8840   27.1051 C   0  0  2  0  0  0  0  0  0  0  0  0
    9.8411  -15.6206   26.4099 N   0  0  0  0  0  0  0  0  0  0  0  0
   11.2899  -17.3462   27.1497 C   0  0  0  0  0  0  0  0  0  0  0  0
   10.3186  -18.0967   27.3624 O   0  0  0  0  0  0  0  0  0  0  0  0
   12.5402  -17.8886   26.9571 O   0  0  0  0  0  0  0  0  0  0  0  0
  2  1  1  1
  3  2  1  0
  3  4  1  0
  5  4  1  0
  5  6  1  0
  7  6  1  0
  8  2  1  0
  8  9  2  0
 10  8  1  0
 11 10  1  0
 11 12  1  1
 13 12  1  0
 14 13  2  0
 15 14  1  0
 16 21  2  0
 16 15  1  0
 17 16  1  0
 18 17  2  0
 18 19  1  0
 19 20  2  0
 20 21  1  0
 21 13  1  0
 22 11  1  0
 23 22  2  0
 25 24  1  6
 25 27  1  0
 26 25  1  0
 27 28  1  6
 27 29  1  0
 28 22  1  0
 29 31  1  0
 30 29  2  0
M  END
$$$$
