KWV.pdb
     RDKit          3D

 31 32  0  0  1  0  0  0  0  0999 V2000
    7.9969  -16.5065   20.7601 N   0  0  0  0  0  0  0  0  0  0  0  0
    8.9368  -17.4374   21.2545 C   0  0  1  0  0  0  0  0  0  0  0  0
   10.0482  -17.7655   20.3701 C   0  0  0  0  0  0  0  0  0  0  0  0
    9.9766  -18.5953   19.1979 C   0  0  0  0  0  0  0  0  0  0  0  0
    8.9698  -18.8236   18.2033 C   0  0  0  0  0  0  0  0  0  0  0  0
    9.0342  -19.6357   16.9975 C   0  0  0  0  0  0  0  0  0  0  0  0
    7.9304  -19.7069   16.1053 N   0  0  0  0  0  0  0  0  0  0  0  0
    9.3904  -16.9939   22.6202 C   0  0  0  0  0  0  0  0  0  0  0  0
   10.0806  -15.9575   22.7034 O   0  0  0  0  0  0  0  0  0  0  0  0
    9.0719  -17.6909   23.7966 N   0  0  0  0  0  0  0  0  0  0  0  0
    9.4447  -17.3160   25.1306 C   0  0  1  0  0  0  0  0  0  0  0  0
    8.3155  -17.0572   26.0568 C   0  0  0  0  0  0  0  0  0  0  0  0
    7.3946  -15.9756   25.6581 C   0  0  0  0  0  0  0  0  0  0  0  0
    6.2464  -15.9768   24.9408 C   0  0  0  0  0  0  0  0  0  0  0  0
    5.7875  -14.7069   24.8633 N   0  0  0  0  0  0  0  0  0  0  0  0
    6.6225  -13.8704   25.5224 C   0  0  0  0  0  0  0  0  0  0  0  0
    6.6269  -12.5098   25.7504 C   0  0  0  0  0  0  0  0  0  0  0  0
    7.6383  -11.9124   26.4818 C   0  0  0  0  0  0  0  0  0  0  0  0
    8.6601  -12.6901   26.9927 C   0  0  0  0  0  0  0  0  0  0  0  0
    8.6428  -14.0419   26.7585 C   0  0  0  0  0  0  0  0  0  0  0  0
    7.6282  -14.6508   26.0225 C   0  0  0  0  0  0  0  0  0  0  0  0
   10.4618  -18.2534   25.6767 C   0  0  0  0  0  0  0  0  0  0  0  0
   10.2791  -19.4983   25.6710 O   0  0  0  0  0  0  0  0  0  0  0  0
   14.4794  -17.8125   25.5268 C   0  0  0  0  0  0  0  0  0  0  0  0
   13.9856  -18.1274   26.9274 C   0  0  2  0  0  0  0  0  0  0  0  0
   15.0265  -19.0433   27.5369 C   0  0  0  0  0  0  0  0  0  0  0  0
   12.6393  -18.7657   26.8390 C   0  0  2  0  0  0  0  0  0  0  0  0
   11.7101  -17.8062   26.2431 N   0  0  0  0  0  0  0  0  0  0  0  0
   12.1658  -19.0580   28.2052 C   0  0  0  0  0  0  0  0  0  0  0  0
   11.4785  -18.2218   28.8216 O   0  0  0  0  0  0  0  0  0  0  0  0
   12.4814  -20.2557   28.8057 O   0  0  0  0  0  0  0  0  0  0  0  0
  2  1  1  6
  3  2  1  0
  3  4  1  0
  5  4  1  0
  5  6  1  0
  7  6  1  0
  8  2  1  0
  8  9  2  0
 10  8  1  0
 11 10  1  0
 11 12  1  1
 13 12  1  0
 14 13  2  0
 15 14  1  0
 16 21  2  0
 16 15  1  0
 17 16  1  0
 18 17  2  0
 18 19  1  0
 19 20  2  0
 20 21  1  0
 21 13  1  0
 22 11  1  0
 23 22  2  0
 25 24  1  6
 25 27  1  0
 26 25  1  0
 27 28  1  1
 27 29  1  0
 28 22  1  0
 29 31  1  0
 30 29  2  0
M  END
$$$$
