KWV.pdb
     RDKit          3D

 31 32  0  0  1  0  0  0  0  0999 V2000
   10.0574  -18.3619   19.7986 N   0  0  0  0  0  0  0  0  0  0  0  0
   10.7791  -17.1923   20.1236 C   0  0  1  0  0  0  0  0  0  0  0  0
   11.2517  -16.3916   19.0009 C   0  0  0  0  0  0  0  0  0  0  0  0
   11.2742  -16.8017   17.6228 C   0  0  0  0  0  0  0  0  0  0  0  0
   10.4244  -16.5459   16.4970 C   0  0  0  0  0  0  0  0  0  0  0  0
   10.6115  -16.9104   15.1006 C   0  0  0  0  0  0  0  0  0  0  0  0
   11.6435  -16.3184   14.3234 N   0  0  0  0  0  0  0  0  0  0  0  0
    9.9837  -16.3889   21.1183 C   0  0  0  0  0  0  0  0  0  0  0  0
    9.0508  -15.6792   20.6900 O   0  0  0  0  0  0  0  0  0  0  0  0
   10.2439  -16.4041   22.4978 N   0  0  0  0  0  0  0  0  0  0  0  0
    9.4233  -15.8222   23.5210 C   0  0  1  0  0  0  0  0  0  0  0  0
    7.9645  -16.0415   23.3665 C   0  0  0  0  0  0  0  0  0  0  0  0
    7.1150  -15.4758   24.4320 C   0  0  0  0  0  0  0  0  0  0  0  0
    6.2700  -16.0480   25.3217 C   0  0  0  0  0  0  0  0  0  0  0  0
    5.7324  -15.0739   26.0907 N   0  0  0  0  0  0  0  0  0  0  0  0
    6.2154  -13.8666   25.7155 C   0  0  0  0  0  0  0  0  0  0  0  0
    6.0057  -12.5759   26.1552 C   0  0  0  0  0  0  0  0  0  0  0  0
    6.6575  -11.5069   25.5660 C   0  0  0  0  0  0  0  0  0  0  0  0
    7.5327  -11.7349   24.5210 C   0  0  0  0  0  0  0  0  0  0  0  0
    7.7318  -13.0236   24.0943 C   0  0  0  0  0  0  0  0  0  0  0  0
    7.0789  -14.1052   24.6821 C   0  0  0  0  0  0  0  0  0  0  0  0
    9.9393  -16.1698   24.8717 C   0  0  0  0  0  0  0  0  0  0  0  0
   10.4487  -17.2950   25.1117 O   0  0  0  0  0  0  0  0  0  0  0  0
   10.2230  -13.2408   27.9239 C   0  0  0  0  0  0  0  0  0  0  0  0
   10.0389  -14.6970   28.3118 C   0  0  2  0  0  0  0  0  0  0  0  0
   10.7679  -14.8698   29.6280 C   0  0  0  0  0  0  0  0  0  0  0  0
   10.5916  -15.5645   27.2303 C   0  0  2  0  0  0  0  0  0  0  0  0
    9.8916  -15.2538   25.9843 N   0  0  0  0  0  0  0  0  0  0  0  0
   10.3071  -16.9728   27.5644 C   0  0  0  0  0  0  0  0  0  0  0  0
   11.0960  -17.6176   28.2810 O   0  0  0  0  0  0  0  0  0  0  0  0
    9.1691  -17.5815   27.0858 O   0  0  0  0  0  0  0  0  0  0  0  0
  2  1  1  6
  3  2  1  0
  3  4  1  0
  5  4  1  0
  5  6  1  0
  7  6  1  0
  8  2  1  0
  8  9  2  0
 10  8  1  0
 11 10  1  0
 11 12  1  1
 13 12  1  0
 14 13  2  0
 15 14  1  0
 16 21  2  0
 16 15  1  0
 17 16  1  0
 18 17  2  0
 18 19  1  0
 19 20  2  0
 20 21  1  0
 21 13  1  0
 22 11  1  0
 23 22  2  0
 25 24  1  6
 25 27  1  0
 26 25  1  0
 27 28  1  6
 27 29  1  0
 28 22  1  0
 29 31  1  0
 30 29  2  0
M  END
$$$$
