KWV.pdb
     RDKit          3D

 31 32  0  0  1  0  0  0  0  0999 V2000
    9.2413  -17.4791   20.1770 N   0  0  0  0  0  0  0  0  0  0  0  0
    9.5246  -16.0956   20.1905 C   0  0  1  0  0  0  0  0  0  0  0  0
    8.8078  -15.2797   19.2181 C   0  0  0  0  0  0  0  0  0  0  0  0
    8.7040  -15.5440   17.8085 C   0  0  0  0  0  0  0  0  0  0  0  0
    9.4134  -15.0727   16.6553 C   0  0  0  0  0  0  0  0  0  0  0  0
    9.1382  -15.3071   15.2457 C   0  0  0  0  0  0  0  0  0  0  0  0
    9.9488  -14.7209   14.2363 N   0  0  0  0  0  0  0  0  0  0  0  0
    9.3829  -15.5825   21.5990 C   0  0  0  0  0  0  0  0  0  0  0  0
    9.6882  -14.3939   21.8259 O   0  0  0  0  0  0  0  0  0  0  0  0
    8.9244  -16.3778   22.6612 N   0  0  0  0  0  0  0  0  0  0  0  0
    8.6124  -15.9237   23.9862 C   0  0  1  0  0  0  0  0  0  0  0  0
    7.3792  -16.4954   24.5798 C   0  0  0  0  0  0  0  0  0  0  0  0
    6.4628  -15.5264   25.2106 C   0  0  0  0  0  0  0  0  0  0  0  0
    5.2679  -15.6746   25.8298 C   0  0  0  0  0  0  0  0  0  0  0  0
    4.8410  -14.4571   26.2357 N   0  0  0  0  0  0  0  0  0  0  0  0
    5.7432  -13.5096   25.8896 C   0  0  0  0  0  0  0  0  0  0  0  0
    5.8030  -12.1416   26.0575 C   0  0  0  0  0  0  0  0  0  0  0  0
    6.8804  -11.4117   25.5872 C   0  0  0  0  0  0  0  0  0  0  0  0
    7.9133  -12.0624   24.9394 C   0  0  0  0  0  0  0  0  0  0  0  0
    7.8406  -13.4232   24.7797 C   0  0  0  0  0  0  0  0  0  0  0  0
    6.7589  -14.1652   25.2500 C   0  0  0  0  0  0  0  0  0  0  0  0
    9.8029  -16.0238   24.8716 C   0  0  0  0  0  0  0  0  0  0  0  0
   10.8517  -16.6109   24.4996 O   0  0  0  0  0  0  0  0  0  0  0  0
   10.6529  -13.5122   28.1011 C   0  0  0  0  0  0  0  0  0  0  0  0
   10.7406  -15.0034   28.3723 C   0  0  2  0  0  0  0  0  0  0  0  0
   11.8825  -15.1793   29.3516 C   0  0  0  0  0  0  0  0  0  0  0  0
   10.9720  -15.7216   27.0845 C   0  0  2  0  0  0  0  0  0  0  0  0
    9.8365  -15.4632   26.1996 N   0  0  0  0  0  0  0  0  0  0  0  0
   11.0088  -17.1715   27.3536 C   0  0  0  0  0  0  0  0  0  0  0  0
   12.1010  -17.7640   27.4414 O   0  0  0  0  0  0  0  0  0  0  0  0
    9.8370  -17.8768   27.5086 O   0  0  0  0  0  0  0  0  0  0  0  0
  2  1  1  1
  3  2  1  0
  3  4  1  0
  5  4  1  0
  5  6  1  0
  7  6  1  0
  8  2  1  0
  8  9  2  0
 10  8  1  0
 11 10  1  0
 11 12  1  1
 13 12  1  0
 14 13  2  0
 15 14  1  0
 16 21  2  0
 16 15  1  0
 17 16  1  0
 18 17  2  0
 18 19  1  0
 19 20  2  0
 20 21  1  0
 21 13  1  0
 22 11  1  0
 23 22  2  0
 25 24  1  6
 25 27  1  0
 26 25  1  0
 27 28  1  6
 27 29  1  0
 28 22  1  0
 29 31  1  0
 30 29  2  0
M  END
$$$$
