NDY.pdb
     RDKit          3D

 29 29  0  0  1  0  0  0  0  0999 V2000
    8.5047  -12.8334   17.8199 N   0  0  0  0  0  0  0  0  0  0  0  0
    7.5434  -13.8474   17.5609 C   0  0  0  0  0  0  0  0  0  0  0  0
    7.1120  -13.9515   16.3865 O   0  0  0  0  0  0  0  0  0  0  0  0
    7.0866  -14.7352   18.6591 C   0  0  0  0  0  0  0  0  0  0  0  0
    7.7951  -14.3213   19.9079 C   0  0  2  0  0  0  0  0  0  0  0  0
    8.6713  -13.2097   19.6532 N   0  0  0  0  0  0  0  0  0  0  0  0
    8.4284  -15.4202   20.6510 C   0  0  0  0  0  0  0  0  0  0  0  0
    7.7098  -16.3988   20.9637 O   0  0  0  0  0  0  0  0  0  0  0  0
    9.7980  -15.3818   21.0055 N   0  0  0  0  0  0  0  0  0  0  0  0
   10.4028  -16.3827   21.8326 C   0  0  1  0  0  0  0  0  0  0  0  0
   11.8225  -16.6764   21.5122 C   0  0  0  0  0  0  0  0  0  0  0  0
   11.9224  -17.4729   20.2640 C   0  0  0  0  0  0  0  0  0  0  0  0
   10.9751  -18.1960   19.8699 O   0  0  0  0  0  0  0  0  0  0  0  0
   10.2223  -15.9461   23.2654 C   0  0  0  0  0  0  0  0  0  0  0  0
   10.8355  -15.0078   23.7890 O   0  0  0  0  0  0  0  0  0  0  0  0
   13.0644  -17.4684   19.4580 O   0  0  0  0  0  0  0  0  0  0  0  0
    7.2918  -10.6074   26.6809 O   0  0  0  0  0  0  0  0  0  0  0  0
    7.3814  -11.9711   26.4271 C   0  0  0  0  0  0  0  0  0  0  0  0
    7.1572  -12.4585   25.1767 C   0  0  0  0  0  0  0  0  0  0  0  0
    7.2478  -13.8150   24.9318 C   0  0  0  0  0  0  0  0  0  0  0  0
    7.5625  -14.7025   25.9271 C   0  0  0  0  0  0  0  0  0  0  0  0
    7.6631  -16.1539   25.6785 C   0  0  0  0  0  0  0  0  0  0  0  0
    9.1291  -16.5510   25.4597 C   0  0  2  0  0  0  0  0  0  0  0  0
    9.2886  -16.6694   24.0370 N   0  0  0  0  0  0  0  0  0  0  0  0
    9.3734  -17.7761   26.2085 C   0  0  0  0  0  0  0  0  0  0  0  0
    9.4534  -18.8879   25.6421 O   0  0  0  0  0  0  0  0  0  0  0  0
    7.7903  -14.2013   27.2011 C   0  0  0  0  0  0  0  0  0  0  0  0
    7.6990  -12.8479   27.4415 C   0  0  0  0  0  0  0  0  0  0  0  0
    9.5237  -17.7307   27.5806 O   0  0  0  0  0  0  0  0  0  0  0  0
  1  2  1  0
  2  3  2  0
  4  2  1  0
  4  5  1  0
  5  7  1  0
  5  6  1  6
  7  8  2  0
  9 10  1  0
  9  7  1  0
 10 11  1  6
 12 11  1  0
 13 12  2  0
 14 15  2  0
 14 10  1  0
 16 12  1  0
 17 18  1  0
 18 19  2  0
 18 28  1  0
 19 20  1  0
 20 21  2  0
 21 22  1  0
 23 22  1  6
 23 24  1  0
 23 25  1  0
 24 14  1  0
 25 29  1  0
 26 25  2  0
 27 21  1  0
 28 27  2  0
M  END
$$$$
