NDY.pdb
     RDKit          3D

 29 29  0  0  1  0  0  0  0  0999 V2000
    7.2391  -11.8637   18.5427 N   0  0  0  0  0  0  0  0  0  0  0  0
    7.6010  -13.2372   18.5022 C   0  0  0  0  0  0  0  0  0  0  0  0
    8.2193  -13.6448   17.4883 O   0  0  0  0  0  0  0  0  0  0  0  0
    7.2476  -14.1317   19.6326 C   0  0  0  0  0  0  0  0  0  0  0  0
    8.3469  -14.0514   20.6416 C   0  0  2  0  0  0  0  0  0  0  0  0
    9.5678  -13.5984   20.0313 N   0  0  0  0  0  0  0  0  0  0  0  0
    8.5078  -15.2514   21.4754 C   0  0  0  0  0  0  0  0  0  0  0  0
    7.4983  -15.6710   22.0889 O   0  0  0  0  0  0  0  0  0  0  0  0
    9.7537  -15.9133   21.5878 N   0  0  0  0  0  0  0  0  0  0  0  0
    9.9767  -16.9701   22.5287 C   0  0  1  0  0  0  0  0  0  0  0  0
   11.1068  -17.8719   22.1914 C   0  0  0  0  0  0  0  0  0  0  0  0
   10.8957  -18.4999   20.8635 C   0  0  0  0  0  0  0  0  0  0  0  0
    9.8684  -19.1768   20.6140 O   0  0  0  0  0  0  0  0  0  0  0  0
   10.1447  -16.3314   23.8852 C   0  0  0  0  0  0  0  0  0  0  0  0
   10.9792  -15.4551   24.1427 O   0  0  0  0  0  0  0  0  0  0  0  0
   11.8168  -18.3792   19.8191 O   0  0  0  0  0  0  0  0  0  0  0  0
    6.5294  -10.7962   25.6839 O   0  0  0  0  0  0  0  0  0  0  0  0
    6.8900  -12.1107   25.9558 C   0  0  0  0  0  0  0  0  0  0  0  0
    8.0255  -12.3869   26.6527 C   0  0  0  0  0  0  0  0  0  0  0  0
    8.3777  -13.6959   26.9192 C   0  0  0  0  0  0  0  0  0  0  0  0
    7.6050  -14.7452   26.4958 C   0  0  0  0  0  0  0  0  0  0  0  0
    7.9697  -16.1481   26.7743 C   0  0  0  0  0  0  0  0  0  0  0  0
    9.4012  -16.4257   26.2964 C   0  0  2  0  0  0  0  0  0  0  0  0
    9.2831  -16.7785   24.9089 N   0  0  0  0  0  0  0  0  0  0  0  0
    9.9594  -17.4663   27.1488 C   0  0  0  0  0  0  0  0  0  0  0  0
   10.1782  -18.6203   26.7200 O   0  0  0  0  0  0  0  0  0  0  0  0
    6.4477  -14.4592   25.7851 C   0  0  0  0  0  0  0  0  0  0  0  0
    6.0998  -13.1526   25.5214 C   0  0  0  0  0  0  0  0  0  0  0  0
   10.2624  -17.1923   28.4680 O   0  0  0  0  0  0  0  0  0  0  0  0
  1  2  1  0
  2  3  2  0
  4  2  1  0
  4  5  1  0
  5  7  1  0
  5  6  1  6
  7  8  2  0
  9 10  1  0
  9  7  1  0
 10 11  1  6
 12 11  1  0
 13 12  2  0
 14 15  2  0
 14 10  1  0
 16 12  1  0
 17 18  1  0
 18 19  2  0
 18 28  1  0
 19 20  1  0
 20 21  2  0
 21 22  1  0
 23 22  1  1
 23 24  1  0
 23 25  1  0
 24 14  1  0
 25 29  1  0
 26 25  2  0
 27 21  1  0
 28 27  2  0
M  END
$$$$
