NDY.pdb
     RDKit          3D

 29 29  0  0  1  0  0  0  0  0999 V2000
    7.3881  -13.3483   17.2561 N   0  0  0  0  0  0  0  0  0  0  0  0
    7.9892  -13.0647   18.5122 C   0  0  0  0  0  0  0  0  0  0  0  0
    8.9221  -12.2247   18.5325 O   0  0  0  0  0  0  0  0  0  0  0  0
    7.5092  -13.7520   19.7370 C   0  0  0  0  0  0  0  0  0  0  0  0
    8.7013  -14.3012   20.4513 C   0  0  2  0  0  0  0  0  0  0  0  0
    9.6660  -14.8132   19.5156 N   0  0  0  0  0  0  0  0  0  0  0  0
    8.3897  -15.2259   21.5508 C   0  0  0  0  0  0  0  0  0  0  0  0
    7.4411  -14.9228   22.3124 O   0  0  0  0  0  0  0  0  0  0  0  0
    9.1298  -16.4157   21.7499 N   0  0  0  0  0  0  0  0  0  0  0  0
    8.8830  -17.2947   22.8536 C   0  0  1  0  0  0  0  0  0  0  0  0
    9.5061  -18.6365   22.7284 C   0  0  0  0  0  0  0  0  0  0  0  0
    8.9223  -19.3790   21.5839 C   0  0  0  0  0  0  0  0  0  0  0  0
    9.4574  -19.3604   20.4485 O   0  0  0  0  0  0  0  0  0  0  0  0
    9.3270  -16.5765   24.1038 C   0  0  0  0  0  0  0  0  0  0  0  0
   10.0016  -15.5394   24.1076 O   0  0  0  0  0  0  0  0  0  0  0  0
    7.7531  -20.1369   21.6963 O   0  0  0  0  0  0  0  0  0  0  0  0
    6.5980  -11.0956   24.9941 O   0  0  0  0  0  0  0  0  0  0  0  0
    6.9213  -12.3335   25.5373 C   0  0  0  0  0  0  0  0  0  0  0  0
    6.2081  -13.4432   25.2037 C   0  0  0  0  0  0  0  0  0  0  0  0
    6.5351  -14.6703   25.7476 C   0  0  0  0  0  0  0  0  0  0  0  0
    7.5747  -14.8082   26.6294 C   0  0  0  0  0  0  0  0  0  0  0  0
    7.9347  -16.1133   27.2171 C   0  0  0  0  0  0  0  0  0  0  0  0
    9.2621  -16.6089   26.6278 C   0  0  2  0  0  0  0  0  0  0  0  0
    8.9349  -17.1428   25.3350 N   0  0  0  0  0  0  0  0  0  0  0  0
    9.8310  -17.5700   27.5625 C   0  0  0  0  0  0  0  0  0  0  0  0
    9.8792  -18.7918   27.3012 O   0  0  0  0  0  0  0  0  0  0  0  0
    8.2995  -13.6738   26.9671 C   0  0  0  0  0  0  0  0  0  0  0  0
    7.9705  -12.4518   26.4226 C   0  0  0  0  0  0  0  0  0  0  0  0
   10.3361  -17.1417   28.7744 O   0  0  0  0  0  0  0  0  0  0  0  0
  1  2  1  0
  2  3  2  0
  4  2  1  0
  4  5  1  0
  5  7  1  0
  5  6  1  6
  7  8  2  0
  9 10  1  0
  9  7  1  0
 10 11  1  6
 12 11  1  0
 13 12  2  0
 14 15  2  0
 14 10  1  0
 16 12  1  0
 17 18  1  0
 18 19  2  0
 18 28  1  0
 19 20  1  0
 20 21  2  0
 21 22  1  0
 23 22  1  1
 23 24  1  0
 23 25  1  0
 24 14  1  0
 25 29  1  0
 26 25  2  0
 27 21  1  0
 28 27  2  0
M  END
$$$$
