NDY.pdb
     RDKit          3D

 29 29  0  0  1  0  0  0  0  0999 V2000
    8.0059  -12.4511   18.7516 N   0  0  0  0  0  0  0  0  0  0  0  0
    7.9858  -13.6774   18.0339 C   0  0  0  0  0  0  0  0  0  0  0  0
    8.1926  -13.6289   16.7964 O   0  0  0  0  0  0  0  0  0  0  0  0
    7.7277  -14.9520   18.7490 C   0  0  0  0  0  0  0  0  0  0  0  0
    7.6799  -14.6548   20.2127 C   0  0  2  0  0  0  0  0  0  0  0  0
    8.5740  -13.5783   20.5444 N   0  0  0  0  0  0  0  0  0  0  0  0
    7.8138  -15.8301   21.0855 C   0  0  0  0  0  0  0  0  0  0  0  0
    7.3257  -16.9117   20.6808 O   0  0  0  0  0  0  0  0  0  0  0  0
    8.4668  -15.7513   22.3386 N   0  0  0  0  0  0  0  0  0  0  0  0
    9.2395  -16.8348   22.8684 C   0  0  1  0  0  0  0  0  0  0  0  0
   10.3052  -17.3360   21.9644 C   0  0  0  0  0  0  0  0  0  0  0  0
   11.0167  -18.4832   22.5809 C   0  0  0  0  0  0  0  0  0  0  0  0
   10.3980  -19.4975   22.9860 O   0  0  0  0  0  0  0  0  0  0  0  0
    9.7890  -16.3823   24.1986 C   0  0  0  0  0  0  0  0  0  0  0  0
   10.6852  -15.5396   24.3304 O   0  0  0  0  0  0  0  0  0  0  0  0
   12.4042  -18.5062   22.7479 O   0  0  0  0  0  0  0  0  0  0  0  0
    6.4518  -11.0756   25.4043 O   0  0  0  0  0  0  0  0  0  0  0  0
    6.8548  -12.3254   25.8599 C   0  0  0  0  0  0  0  0  0  0  0  0
    8.0757  -12.4908   26.4375 C   0  0  0  0  0  0  0  0  0  0  0  0
    8.4696  -13.7360   26.8879 C   0  0  0  0  0  0  0  0  0  0  0  0
    7.6543  -14.8308   26.7694 C   0  0  0  0  0  0  0  0  0  0  0  0
    8.0628  -16.1663   27.2471 C   0  0  0  0  0  0  0  0  0  0  0  0
    9.4506  -16.5213   26.6970 C   0  0  2  0  0  0  0  0  0  0  0  0
    9.2286  -16.9719   25.3512 N   0  0  0  0  0  0  0  0  0  0  0  0
   10.0402  -17.5124   27.5865 C   0  0  0  0  0  0  0  0  0  0  0  0
   10.3082  -17.2487   28.7790 O   0  0  0  0  0  0  0  0  0  0  0  0
    6.4100  -14.6577   26.1797 C   0  0  0  0  0  0  0  0  0  0  0  0
    6.0206  -13.4145   25.7316 C   0  0  0  0  0  0  0  0  0  0  0  0
   10.3181  -18.7826   27.1210 O   0  0  0  0  0  0  0  0  0  0  0  0
  1  2  1  0
  2  3  2  0
  4  2  1  0
  4  5  1  0
  5  7  1  0
  5  6  1  1
  7  8  2  0
  9 10  1  0
  9  7  1  0
 10 11  1  6
 12 11  1  0
 13 12  2  0
 14 15  2  0
 14 10  1  0
 16 12  1  0
 17 18  1  0
 18 19  2  0
 18 28  1  0
 19 20  1  0
 20 21  2  0
 21 22  1  0
 23 22  1  1
 23 24  1  0
 23 25  1  0
 24 14  1  0
 25 29  1  0
 26 25  2  0
 27 21  1  0
 28 27  2  0
M  END
$$$$
