NDY.pdb
     RDKit          3D

 29 29  0  0  1  0  0  0  0  0999 V2000
    7.2242  -19.4397   15.9522 N   0  0  0  0  0  0  0  0  0  0  0  0
    7.2914  -18.2726   16.7600 C   0  0  0  0  0  0  0  0  0  0  0  0
    7.2285  -17.1609   16.1797 O   0  0  0  0  0  0  0  0  0  0  0  0
    7.4301  -18.3958   18.2325 C   0  0  0  0  0  0  0  0  0  0  0  0
    8.5675  -17.5260   18.6601 C   0  0  2  0  0  0  0  0  0  0  0  0
    9.6462  -17.5932   17.7113 N   0  0  0  0  0  0  0  0  0  0  0  0
    8.9908  -17.7061   20.0563 C   0  0  0  0  0  0  0  0  0  0  0  0
    8.0967  -17.9038   20.9126 O   0  0  0  0  0  0  0  0  0  0  0  0
   10.3554  -17.6579   20.4284 N   0  0  0  0  0  0  0  0  0  0  0  0
   10.7795  -17.7388   21.7942 C   0  0  1  0  0  0  0  0  0  0  0  0
   12.1917  -18.1575   21.9808 C   0  0  0  0  0  0  0  0  0  0  0  0
   12.3934  -19.5458   21.4968 C   0  0  0  0  0  0  0  0  0  0  0  0
   12.7790  -19.7826   20.3259 O   0  0  0  0  0  0  0  0  0  0  0  0
   10.4949  -16.4005   22.4297 C   0  0  0  0  0  0  0  0  0  0  0  0
   11.2187  -15.4045   22.3073 O   0  0  0  0  0  0  0  0  0  0  0  0
   12.1691  -20.6643   22.3045 O   0  0  0  0  0  0  0  0  0  0  0  0
    7.4126  -13.4212   18.1534 O   0  0  0  0  0  0  0  0  0  0  0  0
    7.4533  -13.7507   19.5031 C   0  0  0  0  0  0  0  0  0  0  0  0
    8.2148  -13.0286   20.3691 C   0  0  0  0  0  0  0  0  0  0  0  0
    8.2506  -13.3619   21.7092 C   0  0  0  0  0  0  0  0  0  0  0  0
    7.5297  -14.4169   22.2038 C   0  0  0  0  0  0  0  0  0  0  0  0
    7.5587  -14.7832   23.6333 C   0  0  0  0  0  0  0  0  0  0  0  0
    8.9805  -15.1873   24.0454 C   0  0  2  0  0  0  0  0  0  0  0  0
    9.3224  -16.3034   23.2082 N   0  0  0  0  0  0  0  0  0  0  0  0
    8.9640  -15.4737   25.4733 C   0  0  0  0  0  0  0  0  0  0  0  0
    9.1189  -16.6340   25.9129 O   0  0  0  0  0  0  0  0  0  0  0  0
    6.7544  -15.1510   21.3171 C   0  0  0  0  0  0  0  0  0  0  0  0
    6.7213  -14.8156   19.9813 C   0  0  0  0  0  0  0  0  0  0  0  0
    8.7739  -14.4517   26.3825 O   0  0  0  0  0  0  0  0  0  0  0  0
  1  2  1  0
  2  3  2  0
  4  2  1  0
  4  5  1  0
  5  7  1  0
  5  6  1  6
  7  8  2  0
  9 10  1  0
  9  7  1  0
 10 11  1  6
 12 11  1  0
 13 12  2  0
 14 15  2  0
 14 10  1  0
 16 12  1  0
 17 18  1  0
 18 19  2  0
 18 28  1  0
 19 20  1  0
 20 21  2  0
 21 22  1  0
 23 22  1  6
 23 24  1  0
 23 25  1  0
 24 14  1  0
 25 29  1  0
 26 25  2  0
 27 21  1  0
 28 27  2  0
M  END
$$$$
