NDY.pdb
     RDKit          3D

 29 29  0  0  1  0  0  0  0  0999 V2000
   11.0959  -19.3995   19.8006 N   0  0  0  0  0  0  0  0  0  0  0  0
   10.7094  -18.6921   18.6304 C   0  0  0  0  0  0  0  0  0  0  0  0
   10.1977  -19.3544   17.6944 O   0  0  0  0  0  0  0  0  0  0  0  0
   10.9152  -17.2246   18.5479 C   0  0  0  0  0  0  0  0  0  0  0  0
   11.4854  -16.7678   19.8515 C   0  0  2  0  0  0  0  0  0  0  0  0
   12.1562  -17.8488   20.5220 N   0  0  0  0  0  0  0  0  0  0  0  0
   10.5492  -16.0257   20.7081 C   0  0  0  0  0  0  0  0  0  0  0  0
   10.9892  -15.0191   21.3122 O   0  0  0  0  0  0  0  0  0  0  0  0
    9.1997  -16.4273   20.8520 N   0  0  0  0  0  0  0  0  0  0  0  0
    8.3329  -15.8575   21.8397 C   0  0  1  0  0  0  0  0  0  0  0  0
    6.9022  -15.7967   21.4476 C   0  0  0  0  0  0  0  0  0  0  0  0
    6.4717  -17.0807   20.8407 C   0  0  0  0  0  0  0  0  0  0  0  0
    5.5851  -17.7928   21.3724 O   0  0  0  0  0  0  0  0  0  0  0  0
    8.5397  -16.6343   23.1163 C   0  0  0  0  0  0  0  0  0  0  0  0
    8.0401  -17.7429   23.3445 O   0  0  0  0  0  0  0  0  0  0  0  0
    7.0202  -17.5727   19.6529 O   0  0  0  0  0  0  0  0  0  0  0  0
    6.1819  -10.5104   27.0387 O   0  0  0  0  0  0  0  0  0  0  0  0
    6.5017  -11.8125   26.6723 C   0  0  0  0  0  0  0  0  0  0  0  0
    5.5310  -12.6756   26.2669 C   0  0  0  0  0  0  0  0  0  0  0  0
    5.8562  -13.9683   25.9042 C   0  0  0  0  0  0  0  0  0  0  0  0
    7.1500  -14.4178   25.9404 C   0  0  0  0  0  0  0  0  0  0  0  0
    7.5108  -15.7962   25.5551 C   0  0  0  0  0  0  0  0  0  0  0  0
    9.0370  -15.9442   25.4937 C   0  0  2  0  0  0  0  0  0  0  0  0
    9.3598  -16.0378   24.0971 N   0  0  0  0  0  0  0  0  0  0  0  0
    9.4018  -17.1096   26.2874 C   0  0  0  0  0  0  0  0  0  0  0  0
    9.8787  -18.1394   25.7624 O   0  0  0  0  0  0  0  0  0  0  0  0
    8.1370  -13.5344   26.3547 C   0  0  0  0  0  0  0  0  0  0  0  0
    7.8090  -12.2460   26.7155 C   0  0  0  0  0  0  0  0  0  0  0  0
    9.2248  -17.0977   27.6570 O   0  0  0  0  0  0  0  0  0  0  0  0
  1  2  1  0
  2  3  2  0
  4  2  1  0
  4  5  1  0
  5  7  1  0
  5  6  1  1
  7  8  2  0
  9 10  1  0
  9  7  1  0
 10 11  1  6
 12 11  1  0
 13 12  2  0
 14 15  2  0
 14 10  1  0
 16 12  1  0
 17 18  1  0
 18 19  2  0
 18 28  1  0
 19 20  1  0
 20 21  2  0
 21 22  1  0
 23 22  1  6
 23 24  1  0
 23 25  1  0
 24 14  1  0
 25 29  1  0
 26 25  2  0
 27 21  1  0
 28 27  2  0
M  END
$$$$
