NDY.pdb
     RDKit          3D

 29 29  0  0  1  0  0  0  0  0999 V2000
    6.7546  -12.5829   19.3522 N   0  0  0  0  0  0  0  0  0  0  0  0
    7.9855  -13.1164   19.8208 C   0  0  0  0  0  0  0  0  0  0  0  0
    8.9917  -12.9907   19.0803 O   0  0  0  0  0  0  0  0  0  0  0  0
    8.0476  -13.7911   21.1413 C   0  0  0  0  0  0  0  0  0  0  0  0
    8.2797  -15.2476   20.9013 C   0  0  2  0  0  0  0  0  0  0  0  0
    7.1855  -15.8249   20.1680 N   0  0  0  0  0  0  0  0  0  0  0  0
    8.6679  -16.0150   22.0935 C   0  0  0  0  0  0  0  0  0  0  0  0
    7.7509  -16.4229   22.8448 O   0  0  0  0  0  0  0  0  0  0  0  0
   10.0250  -16.2862   22.3901 N   0  0  0  0  0  0  0  0  0  0  0  0
   10.4160  -17.1405   23.4714 C   0  0  1  0  0  0  0  0  0  0  0  0
   11.7376  -17.7944   23.2976 C   0  0  0  0  0  0  0  0  0  0  0  0
   11.8686  -18.3521   21.9286 C   0  0  0  0  0  0  0  0  0  0  0  0
   11.0073  -19.1316   21.4528 O   0  0  0  0  0  0  0  0  0  0  0  0
   10.3503  -16.3191   24.7351 C   0  0  0  0  0  0  0  0  0  0  0  0
   10.8045  -15.1735   24.8444 O   0  0  0  0  0  0  0  0  0  0  0  0
   12.9469  -18.0487   21.0925 O   0  0  0  0  0  0  0  0  0  0  0  0
    6.5193  -11.4645   24.9012 O   0  0  0  0  0  0  0  0  0  0  0  0
    6.9659  -12.6025   25.5626 C   0  0  0  0  0  0  0  0  0  0  0  0
    7.8452  -12.5021   26.5961 C   0  0  0  0  0  0  0  0  0  0  0  0
    8.2849  -13.6375   27.2487 C   0  0  0  0  0  0  0  0  0  0  0  0
    7.8556  -14.8857   26.8813 C   0  0  0  0  0  0  0  0  0  0  0  0
    8.3171  -16.1065   27.5706 C   0  0  0  0  0  0  0  0  0  0  0  0
    9.7734  -16.4074   27.1917 C   0  0  2  0  0  0  0  0  0  0  0  0
    9.7256  -16.9172   25.8497 N   0  0  0  0  0  0  0  0  0  0  0  0
   10.3069  -17.3333   28.1813 C   0  0  0  0  0  0  0  0  0  0  0  0
   10.4751  -16.9962   29.3736 O   0  0  0  0  0  0  0  0  0  0  0  0
    6.9589  -14.9838   25.8266 C   0  0  0  0  0  0  0  0  0  0  0  0
    6.5226  -13.8492   25.1782 C   0  0  0  0  0  0  0  0  0  0  0  0
   10.6419  -18.6218   27.8143 O   0  0  0  0  0  0  0  0  0  0  0  0
  1  2  1  0
  2  3  2  0
  4  2  1  0
  4  5  1  0
  5  7  1  0
  5  6  1  1
  7  8  2  0
  9 10  1  0
  9  7  1  0
 10 11  1  6
 12 11  1  0
 13 12  2  0
 14 15  2  0
 14 10  1  0
 16 12  1  0
 17 18  1  0
 18 19  2  0
 18 28  1  0
 19 20  1  0
 20 21  2  0
 21 22  1  0
 23 22  1  1
 23 24  1  0
 23 25  1  0
 24 14  1  0
 25 29  1  0
 26 25  2  0
 27 21  1  0
 28 27  2  0
M  END
$$$$
