NDY.pdb
     RDKit          3D

 29 29  0  0  1  0  0  0  0  0999 V2000
    7.9347  -12.2451   17.7620 N   0  0  0  0  0  0  0  0  0  0  0  0
    7.8729  -13.6637   17.8173 C   0  0  0  0  0  0  0  0  0  0  0  0
    8.0521  -14.2945   16.7466 O   0  0  0  0  0  0  0  0  0  0  0  0
    7.6053  -14.3453   19.1083 C   0  0  0  0  0  0  0  0  0  0  0  0
    8.9152  -14.7953   19.6692 C   0  0  2  0  0  0  0  0  0  0  0  0
    9.7175  -15.4214   18.6530 N   0  0  0  0  0  0  0  0  0  0  0  0
    8.8194  -15.5713   20.9140 C   0  0  0  0  0  0  0  0  0  0  0  0
    7.8783  -15.2989   21.6963 O   0  0  0  0  0  0  0  0  0  0  0  0
    9.7522  -16.5890   21.2258 N   0  0  0  0  0  0  0  0  0  0  0  0
    9.6701  -17.3592   22.4308 C   0  0  1  0  0  0  0  0  0  0  0  0
   10.2207  -18.7340   22.3261 C   0  0  0  0  0  0  0  0  0  0  0  0
   11.4525  -18.7420   21.4984 C   0  0  0  0  0  0  0  0  0  0  0  0
   11.7431  -17.7803   20.7458 O   0  0  0  0  0  0  0  0  0  0  0  0
   10.3429  -16.5589   23.5184 C   0  0  0  0  0  0  0  0  0  0  0  0
   11.3243  -15.8274   23.3378 O   0  0  0  0  0  0  0  0  0  0  0  0
   12.3560  -19.8084   21.5043 O   0  0  0  0  0  0  0  0  0  0  0  0
    4.8434  -12.7969   26.4310 O   0  0  0  0  0  0  0  0  0  0  0  0
    6.1537  -13.2202   26.2412 C   0  0  0  0  0  0  0  0  0  0  0  0
    6.4436  -14.1852   25.3268 C   0  0  0  0  0  0  0  0  0  0  0  0
    7.7482  -14.6010   25.1435 C   0  0  0  0  0  0  0  0  0  0  0  0
    8.7794  -14.0623   25.8671 C   0  0  0  0  0  0  0  0  0  0  0  0
   10.1775  -14.4972   25.6806 C   0  0  0  0  0  0  0  0  0  0  0  0
   10.3076  -15.9966   25.9798 C   0  0  2  0  0  0  0  0  0  0  0  0
    9.7996  -16.6678   24.8158 N   0  0  0  0  0  0  0  0  0  0  0  0
    9.5793  -16.2680   27.2114 C   0  0  0  0  0  0  0  0  0  0  0  0
    9.9401  -15.7875   28.3080 O   0  0  0  0  0  0  0  0  0  0  0  0
    8.4794  -13.0784   26.7988 C   0  0  0  0  0  0  0  0  0  0  0  0
    7.1772  -12.6662   26.9788 C   0  0  0  0  0  0  0  0  0  0  0  0
    8.4583  -17.0743   27.1898 O   0  0  0  0  0  0  0  0  0  0  0  0
  1  2  1  0
  2  3  2  0
  4  2  1  0
  4  5  1  0
  5  7  1  0
  5  6  1  6
  7  8  2  0
  9 10  1  0
  9  7  1  0
 10 11  1  6
 12 11  1  0
 13 12  2  0
 14 15  2  0
 14 10  1  0
 16 12  1  0
 17 18  1  0
 18 19  2  0
 18 28  1  0
 19 20  1  0
 20 21  2  0
 21 22  1  0
 23 22  1  6
 23 24  1  0
 23 25  1  0
 24 14  1  0
 25 29  1  0
 26 25  2  0
 27 21  1  0
 28 27  2  0
M  END
$$$$
