NDY.pdb
     RDKit          3D

 29 29  0  0  1  0  0  0  0  0999 V2000
    3.4949  -20.1356   21.7672 N   0  0  0  0  0  0  0  0  0  0  0  0
    4.0218  -18.8935   22.2131 C   0  0  0  0  0  0  0  0  0  0  0  0
    3.3153  -17.8694   22.0444 O   0  0  0  0  0  0  0  0  0  0  0  0
    5.3606  -18.8413   22.8516 C   0  0  0  0  0  0  0  0  0  0  0  0
    6.1631  -17.7948   22.1487 C   0  0  2  0  0  0  0  0  0  0  0  0
    6.0363  -17.9267   20.7223 N   0  0  0  0  0  0  0  0  0  0  0  0
    7.5518  -17.6668   22.6135 C   0  0  0  0  0  0  0  0  0  0  0  0
    8.0025  -18.5744   23.3516 O   0  0  0  0  0  0  0  0  0  0  0  0
    8.3564  -16.5616   22.2469 N   0  0  0  0  0  0  0  0  0  0  0  0
    9.6913  -16.3907   22.7374 C   0  0  1  0  0  0  0  0  0  0  0  0
   10.5575  -15.5325   21.8905 C   0  0  0  0  0  0  0  0  0  0  0  0
   10.7777  -16.1600   20.5638 C   0  0  0  0  0  0  0  0  0  0  0  0
   11.2076  -17.3345   20.4571 O   0  0  0  0  0  0  0  0  0  0  0  0
    9.5845  -15.8720   24.1501 C   0  0  0  0  0  0  0  0  0  0  0  0
    9.7094  -14.6821   24.4652 O   0  0  0  0  0  0  0  0  0  0  0  0
   10.5236  -15.4905   19.3634 O   0  0  0  0  0  0  0  0  0  0  0  0
    6.3750  -11.0860   25.7891 O   0  0  0  0  0  0  0  0  0  0  0  0
    6.7702  -12.3824   26.0974 C   0  0  0  0  0  0  0  0  0  0  0  0
    6.1733  -13.4487   25.4989 C   0  0  0  0  0  0  0  0  0  0  0  0
    6.5711  -14.7344   25.8104 C   0  0  0  0  0  0  0  0  0  0  0  0
    7.5669  -14.9749   26.7203 C   0  0  0  0  0  0  0  0  0  0  0  0
    8.0017  -16.3435   27.0615 C   0  0  0  0  0  0  0  0  0  0  0  0
    9.4360  -16.5791   26.5695 C   0  0  2  0  0  0  0  0  0  0  0  0
    9.3247  -16.8238   25.1584 N   0  0  0  0  0  0  0  0  0  0  0  0
    9.9942  -17.6809   27.3412 C   0  0  0  0  0  0  0  0  0  0  0  0
   10.2530  -18.7861   26.8167 O   0  0  0  0  0  0  0  0  0  0  0  0
    8.1730  -13.8846   27.3286 C   0  0  0  0  0  0  0  0  0  0  0  0
    7.7736  -12.6038   27.0154 C   0  0  0  0  0  0  0  0  0  0  0  0
   10.2523  -17.5219   28.6885 O   0  0  0  0  0  0  0  0  0  0  0  0
  1  2  1  0
  2  3  2  0
  4  2  1  0
  4  5  1  0
  5  7  1  0
  5  6  1  6
  7  8  2  0
  9 10  1  0
  9  7  1  0
 10 11  1  6
 12 11  1  0
 13 12  2  0
 14 15  2  0
 14 10  1  0
 16 12  1  0
 17 18  1  0
 18 19  2  0
 18 28  1  0
 19 20  1  0
 20 21  2  0
 21 22  1  0
 23 22  1  1
 23 24  1  0
 23 25  1  0
 24 14  1  0
 25 29  1  0
 26 25  2  0
 27 21  1  0
 28 27  2  0
M  END
$$$$
