AKS.pdb
     RDKit          3D

 21 20  0  0  1  0  0  0  0  0999 V2000
    7.2423  -12.3162   19.1930 C   0  0  0  0  0  0  0  0  0  0  0  0
    8.4419  -13.1659   18.8521 C   0  0  2  0  0  0  0  0  0  0  0  0
    8.4389  -13.6083   17.4733 N   0  0  0  0  0  0  0  0  0  0  0  0
    8.5425  -14.3517   19.7489 C   0  0  0  0  0  0  0  0  0  0  0  0
    8.5811  -14.1929   20.9990 O   0  0  0  0  0  0  0  0  0  0  0  0
    8.5989  -15.6773   19.2718 N   0  0  0  0  0  0  0  0  0  0  0  0
    8.7109  -16.8425   20.1369 C   0  0  1  0  0  0  0  0  0  0  0  0
    8.4678  -18.0465   19.2647 C   0  0  0  0  0  0  0  0  0  0  0  0
    8.5563  -19.3441   20.0173 C   0  0  0  0  0  0  0  0  0  0  0  0
    8.2778  -20.5329   19.1063 C   0  0  0  0  0  0  0  0  0  0  0  0
    8.4555  -21.8543   19.7771 C   0  0  0  0  0  0  0  0  0  0  0  0
    8.0153  -22.9011   18.8526 N   0  0  0  0  0  0  0  0  0  0  0  0
    9.9395  -16.8611   20.9095 C   0  0  0  0  0  0  0  0  0  0  0  0
   11.0422  -16.6554   20.3611 O   0  0  0  0  0  0  0  0  0  0  0  0
   12.1246  -16.2458   25.1951 O   0  0  0  0  0  0  0  0  0  0  0  0
   10.9317  -16.3895   24.4752 C   0  0  0  0  0  0  0  0  0  0  0  0
   11.1948  -16.9566   23.1011 C   0  0  2  0  0  0  0  0  0  0  0  0
    9.9834  -17.1111   22.3302 N   0  0  0  0  0  0  0  0  0  0  0  0
   11.8905  -18.2539   23.2791 C   0  0  0  0  0  0  0  0  0  0  0  0
   11.3520  -19.3573   23.0108 O   0  0  0  0  0  0  0  0  0  0  0  0
   13.1910  -18.2742   23.7607 O   0  0  0  0  0  0  0  0  0  0  0  0
  2  1  1  1
  3  2  1  0
  4  5  2  0
  4  2  1  0
  6  4  1  0
  7  6  1  0
  7 13  1  0
  7  8  1  6
  9 10  1  0
  9  8  1  0
 11 12  1  0
 11 10  1  0
 13 14  2  0
 15 16  1  0
 17 16  1  1
 18 13  1  0
 18 17  1  0
 19 21  1  0
 19 17  1  0
 20 19  2  0
M  END
$$$$
