AKS.pdb
     RDKit          3D

 21 20  0  0  1  0  0  0  0  0999 V2000
    6.8833  -12.5832   18.7951 C   0  0  0  0  0  0  0  0  0  0  0  0
    8.1557  -13.3261   18.4687 C   0  0  2  0  0  0  0  0  0  0  0  0
    8.0994  -13.9922   17.1844 N   0  0  0  0  0  0  0  0  0  0  0  0
    8.4916  -14.3220   19.5251 C   0  0  0  0  0  0  0  0  0  0  0  0
    8.6146  -13.9501   20.7234 O   0  0  0  0  0  0  0  0  0  0  0  0
    8.6858  -15.6930   19.2591 N   0  0  0  0  0  0  0  0  0  0  0  0
    8.7993  -16.7082   20.2959 C   0  0  1  0  0  0  0  0  0  0  0  0
    8.6802  -18.0407   19.6032 C   0  0  0  0  0  0  0  0  0  0  0  0
    7.3207  -18.2729   19.0069 C   0  0  0  0  0  0  0  0  0  0  0  0
    7.2887  -19.5538   18.1828 C   0  0  0  0  0  0  0  0  0  0  0  0
    5.9226  -19.9274   17.7119 C   0  0  0  0  0  0  0  0  0  0  0  0
    6.0297  -21.1551   16.9209 N   0  0  0  0  0  0  0  0  0  0  0  0
    9.9713  -16.5358   21.1346 C   0  0  0  0  0  0  0  0  0  0  0  0
   11.0792  -16.2517   20.6336 O   0  0  0  0  0  0  0  0  0  0  0  0
    9.6350  -16.3925   25.2721 O   0  0  0  0  0  0  0  0  0  0  0  0
   10.7637  -15.7844   24.7079 C   0  0  0  0  0  0  0  0  0  0  0  0
   11.1159  -16.4208   23.3851 C   0  0  2  0  0  0  0  0  0  0  0  0
    9.9505  -16.6748   22.5709 N   0  0  0  0  0  0  0  0  0  0  0  0
   11.8554  -17.6729   23.6747 C   0  0  0  0  0  0  0  0  0  0  0  0
   11.4090  -18.8103   23.3807 O   0  0  0  0  0  0  0  0  0  0  0  0
   13.0940  -17.6099   24.2956 O   0  0  0  0  0  0  0  0  0  0  0  0
  2  1  1  1
  3  2  1  0
  4  5  2  0
  4  2  1  0
  6  4  1  0
  7  6  1  0
  7 13  1  0
  7  8  1  6
  9 10  1  0
  9  8  1  0
 11 12  1  0
 11 10  1  0
 13 14  2  0
 15 16  1  0
 17 16  1  1
 18 13  1  0
 18 17  1  0
 19 21  1  0
 19 17  1  0
 20 19  2  0
M  END
$$$$
