AKS.pdb
     RDKit          3D

 21 20  0  0  1  0  0  0  0  0999 V2000
    4.6296  -19.9867   21.0593 C   0  0  0  0  0  0  0  0  0  0  0  0
    4.7363  -19.0487   22.2366 C   0  0  2  0  0  0  0  0  0  0  0  0
    3.6743  -18.0649   22.2646 N   0  0  0  0  0  0  0  0  0  0  0  0
    6.0532  -18.3517   22.2607 C   0  0  0  0  0  0  0  0  0  0  0  0
    7.1187  -19.0229   22.3224 O   0  0  0  0  0  0  0  0  0  0  0  0
    6.1844  -16.9485   22.2175 N   0  0  0  0  0  0  0  0  0  0  0  0
    7.4627  -16.2551   22.2769 C   0  0  1  0  0  0  0  0  0  0  0  0
    7.2659  -14.9364   21.5757 C   0  0  0  0  0  0  0  0  0  0  0  0
    7.8521  -14.9139   20.1923 C   0  0  0  0  0  0  0  0  0  0  0  0
    7.6047  -13.5757   19.5075 C   0  0  0  0  0  0  0  0  0  0  0  0
    8.0419  -13.5446   18.0808 C   0  0  0  0  0  0  0  0  0  0  0  0
    7.6935  -12.2364   17.5225 N   0  0  0  0  0  0  0  0  0  0  0  0
    8.0070  -16.1800   23.6203 C   0  0  0  0  0  0  0  0  0  0  0  0
    7.3614  -15.6384   24.5418 O   0  0  0  0  0  0  0  0  0  0  0  0
    8.3521  -18.2093   26.2520 O   0  0  0  0  0  0  0  0  0  0  0  0
    9.6970  -17.8374   26.1296 C   0  0  0  0  0  0  0  0  0  0  0  0
    9.8357  -16.5705   25.3207 C   0  0  2  0  0  0  0  0  0  0  0  0
    9.2985  -16.7092   23.9874 N   0  0  0  0  0  0  0  0  0  0  0  0
   11.2753  -16.2166   25.2885 C   0  0  0  0  0  0  0  0  0  0  0  0
   11.9131  -16.0574   24.2174 O   0  0  0  0  0  0  0  0  0  0  0  0
   11.9671  -16.0492   26.4789 O   0  0  0  0  0  0  0  0  0  0  0  0
  2  1  1  6
  3  2  1  0
  4  5  2  0
  4  2  1  0
  6  4  1  0
  7  6  1  0
  7 13  1  0
  7  8  1  1
  9 10  1  0
  9  8  1  0
 11 12  1  0
 11 10  1  0
 13 14  2  0
 15 16  1  0
 17 16  1  1
 18 13  1  0
 18 17  1  0
 19 21  1  0
 19 17  1  0
 20 19  2  0
M  END
$$$$
