AKS.pdb
     RDKit          3D

 21 20  0  0  1  0  0  0  0  0999 V2000
    9.4815  -18.3404   18.2230 C   0  0  0  0  0  0  0  0  0  0  0  0
    7.9941  -18.5720   18.1169 C   0  0  2  0  0  0  0  0  0  0  0  0
    7.3385  -17.6062   17.2603 N   0  0  0  0  0  0  0  0  0  0  0  0
    7.3438  -18.5616   19.4576 C   0  0  0  0  0  0  0  0  0  0  0  0
    6.9145  -17.4787   19.9398 O   0  0  0  0  0  0  0  0  0  0  0  0
    7.1743  -19.7211   20.2419 N   0  0  0  0  0  0  0  0  0  0  0  0
    6.5145  -19.7288   21.5392 C   0  0  1  0  0  0  0  0  0  0  0  0
    5.8688  -21.0824   21.6816 C   0  0  0  0  0  0  0  0  0  0  0  0
    5.1264  -21.2453   22.9778 C   0  0  0  0  0  0  0  0  0  0  0  0
    4.4574  -22.6111   23.0652 C   0  0  0  0  0  0  0  0  0  0  0  0
    3.5214  -22.7453   24.2199 C   0  0  0  0  0  0  0  0  0  0  0  0
    2.9071  -24.0733   24.1607 N   0  0  0  0  0  0  0  0  0  0  0  0
    7.3911  -19.3306   22.6254 C   0  0  0  0  0  0  0  0  0  0  0  0
    8.5663  -19.7485   22.6837 O   0  0  0  0  0  0  0  0  0  0  0  0
    7.2483  -15.7938   24.7457 O   0  0  0  0  0  0  0  0  0  0  0  0
    7.3760  -16.9179   25.5715 C   0  0  0  0  0  0  0  0  0  0  0  0
    7.8660  -18.1114   24.7877 C   0  0  2  0  0  0  0  0  0  0  0  0
    6.9868  -18.4470   23.6924 N   0  0  0  0  0  0  0  0  0  0  0  0
    8.0030  -19.2429   25.7362 C   0  0  0  0  0  0  0  0  0  0  0  0
    7.3772  -20.3242   25.6003 O   0  0  0  0  0  0  0  0  0  0  0  0
    8.8522  -19.1249   26.8264 O   0  0  0  0  0  0  0  0  0  0  0  0
  2  1  1  1
  3  2  1  0
  4  5  2  0
  4  2  1  0
  6  4  1  0
  7  6  1  0
  7 13  1  0
  7  8  1  1
  9 10  1  0
  9  8  1  0
 11 12  1  0
 11 10  1  0
 13 14  2  0
 15 16  1  0
 17 16  1  1
 18 13  1  0
 18 17  1  0
 19 21  1  0
 19 17  1  0
 20 19  2  0
M  END
$$$$
