AKS.pdb
     RDKit          3D

 21 20  0  0  1  0  0  0  0  0999 V2000
   14.4301  -21.9719   14.7474 C   0  0  0  0  0  0  0  0  0  0  0  0
   12.9312  -21.8700   14.6051 C   0  0  2  0  0  0  0  0  0  0  0  0
   12.5177  -20.6791   13.8928 N   0  0  0  0  0  0  0  0  0  0  0  0
   12.2537  -21.9099   15.9317 C   0  0  0  0  0  0  0  0  0  0  0  0
   12.0830  -20.8437   16.5827 O   0  0  0  0  0  0  0  0  0  0  0  0
   11.7786  -23.0999   16.5199 N   0  0  0  0  0  0  0  0  0  0  0  0
   11.1057  -23.1503   17.8095 C   0  0  1  0  0  0  0  0  0  0  0  0
   10.1209  -24.2877   17.7330 C   0  0  0  0  0  0  0  0  0  0  0  0
    8.9086  -23.9600   16.9078 C   0  0  0  0  0  0  0  0  0  0  0  0
    7.9404  -25.1350   16.8549 C   0  0  0  0  0  0  0  0  0  0  0  0
    6.7204  -24.8677   16.0379 C   0  0  0  0  0  0  0  0  0  0  0  0
    5.9406  -26.1048   15.9594 N   0  0  0  0  0  0  0  0  0  0  0  0
   12.0270  -23.1879   18.9305 C   0  0  0  0  0  0  0  0  0  0  0  0
   13.1371  -23.7501   18.8264 O   0  0  0  0  0  0  0  0  0  0  0  0
   13.2905  -20.3003   21.1669 O   0  0  0  0  0  0  0  0  0  0  0  0
   12.7836  -21.2931   22.0151 C   0  0  0  0  0  0  0  0  0  0  0  0
   12.6949  -22.6202   21.3011 C   0  0  2  0  0  0  0  0  0  0  0  0
   11.7423  -22.5968   20.2159 N   0  0  0  0  0  0  0  0  0  0  0  0
   12.3391  -23.6471   22.3097 C   0  0  0  0  0  0  0  0  0  0  0  0
   11.2770  -24.3166   22.2536 O   0  0  0  0  0  0  0  0  0  0  0  0
   13.2000  -23.8960   23.3683 O   0  0  0  0  0  0  0  0  0  0  0  0
  2  1  1  1
  3  2  1  0
  4  5  2  0
  4  2  1  0
  6  4  1  0
  7  6  1  0
  7 13  1  0
  7  8  1  6
  9 10  1  0
  9  8  1  0
 11 12  1  0
 11 10  1  0
 13 14  2  0
 15 16  1  0
 17 16  1  1
 18 13  1  0
 18 17  1  0
 19 21  1  0
 19 17  1  0
 20 19  2  0
M  END
$$$$
