AKS.pdb
     RDKit          3D

 21 20  0  0  1  0  0  0  0  0999 V2000
    8.1728  -12.1643   19.6214 C   0  0  0  0  0  0  0  0  0  0  0  0
    8.3677  -13.3768   18.7443 C   0  0  2  0  0  0  0  0  0  0  0  0
    7.2827  -13.5661   17.8044 N   0  0  0  0  0  0  0  0  0  0  0  0
    8.5372  -14.6151   19.5558 C   0  0  0  0  0  0  0  0  0  0  0  0
    7.5270  -15.1890   20.0454 O   0  0  0  0  0  0  0  0  0  0  0  0
    9.7930  -15.2005   19.8169 N   0  0  0  0  0  0  0  0  0  0  0  0
    9.9770  -16.3760   20.6553 C   0  0  1  0  0  0  0  0  0  0  0  0
   10.8464  -17.3259   19.8734 C   0  0  0  0  0  0  0  0  0  0  0  0
   10.0810  -18.1129   18.8474 C   0  0  0  0  0  0  0  0  0  0  0  0
   10.9808  -19.1121   18.1313 C   0  0  0  0  0  0  0  0  0  0  0  0
   10.2699  -19.9250   17.1011 C   0  0  0  0  0  0  0  0  0  0  0  0
   11.2582  -20.7556   16.4098 N   0  0  0  0  0  0  0  0  0  0  0  0
   10.4391  -16.0538   21.9929 C   0  0  0  0  0  0  0  0  0  0  0  0
   11.3982  -15.2733   22.1667 O   0  0  0  0  0  0  0  0  0  0  0  0
    8.3245  -14.9549   24.8761 O   0  0  0  0  0  0  0  0  0  0  0  0
    9.1878  -15.8960   25.4515 C   0  0  0  0  0  0  0  0  0  0  0  0
   10.3173  -16.2393   24.5106 C   0  0  2  0  0  0  0  0  0  0  0  0
    9.8451  -16.5931   23.1925 N   0  0  0  0  0  0  0  0  0  0  0  0
   11.0879  -17.3480   25.1236 C   0  0  0  0  0  0  0  0  0  0  0  0
   11.2864  -18.4429   24.5396 O   0  0  0  0  0  0  0  0  0  0  0  0
   11.6211  -17.1919   26.3944 O   0  0  0  0  0  0  0  0  0  0  0  0
  2  1  1  1
  3  2  1  0
  4  5  2  0
  4  2  1  0
  6  4  1  0
  7  6  1  0
  7 13  1  0
  7  8  1  6
  9 10  1  0
  9  8  1  0
 11 12  1  0
 11 10  1  0
 13 14  2  0
 15 16  1  0
 17 16  1  1
 18 13  1  0
 18 17  1  0
 19 21  1  0
 19 17  1  0
 20 19  2  0
M  END
$$$$
