AKS.pdb
     RDKit          3D

 21 20  0  0  1  0  0  0  0  0999 V2000
    8.3105  -12.1244   19.8855 C   0  0  0  0  0  0  0  0  0  0  0  0
    8.1644  -13.3217   18.9786 C   0  0  2  0  0  0  0  0  0  0  0  0
    6.7863  -13.5879   18.6231 N   0  0  0  0  0  0  0  0  0  0  0  0
    8.7598  -14.5438   19.5890 C   0  0  0  0  0  0  0  0  0  0  0  0
    8.0284  -15.3472   20.2286 O   0  0  0  0  0  0  0  0  0  0  0  0
   10.1291  -14.8657   19.4924 N   0  0  0  0  0  0  0  0  0  0  0  0
   10.7206  -16.0606   20.0760 C   0  0  1  0  0  0  0  0  0  0  0  0
   11.6999  -16.5911   19.0616 C   0  0  0  0  0  0  0  0  0  0  0  0
   12.2692  -17.9295   19.4393 C   0  0  0  0  0  0  0  0  0  0  0  0
   13.2342  -18.4407   18.3772 C   0  0  0  0  0  0  0  0  0  0  0  0
   13.8456  -19.7607   18.7110 C   0  0  0  0  0  0  0  0  0  0  0  0
   14.8008  -20.1040   17.6553 N   0  0  0  0  0  0  0  0  0  0  0  0
   11.2507  -15.8398   21.4090 C   0  0  0  0  0  0  0  0  0  0  0  0
   11.9811  -14.8564   21.6512 O   0  0  0  0  0  0  0  0  0  0  0  0
    9.4908  -17.3510   24.7586 O   0  0  0  0  0  0  0  0  0  0  0  0
   10.4416  -16.3309   24.8895 C   0  0  0  0  0  0  0  0  0  0  0  0
   11.5223  -16.4620   23.8436 C   0  0  2  0  0  0  0  0  0  0  0  0
   10.9841  -16.7125   22.5271 N   0  0  0  0  0  0  0  0  0  0  0  0
   12.4291  -17.5538   24.2728 C   0  0  0  0  0  0  0  0  0  0  0  0
   12.6560  -18.5675   23.5654 O   0  0  0  0  0  0  0  0  0  0  0  0
   13.0643  -17.4739   25.5031 O   0  0  0  0  0  0  0  0  0  0  0  0
  2  1  1  1
  3  2  1  0
  4  5  2  0
  4  2  1  0
  6  4  1  0
  7  6  1  0
  7 13  1  0
  7  8  1  6
  9 10  1  0
  9  8  1  0
 11 12  1  0
 11 10  1  0
 13 14  2  0
 15 16  1  0
 17 16  1  1
 18 13  1  0
 18 17  1  0
 19 21  1  0
 19 17  1  0
 20 19  2  0
M  END
$$$$
