AKS.pdb
     RDKit          3D

 21 20  0  0  1  0  0  0  0  0999 V2000
    5.3241  -19.4375   23.3280 C   0  0  0  0  0  0  0  0  0  0  0  0
    5.4035  -18.7642   21.9799 C   0  0  2  0  0  0  0  0  0  0  0  0
    5.2199  -19.6899   20.8818 N   0  0  0  0  0  0  0  0  0  0  0  0
    6.6964  -18.0442   21.8053 C   0  0  0  0  0  0  0  0  0  0  0  0
    7.7623  -18.6972   21.6411 O   0  0  0  0  0  0  0  0  0  0  0  0
    6.8039  -16.6384   21.8129 N   0  0  0  0  0  0  0  0  0  0  0  0
    8.0401  -15.9218   21.5362 C   0  0  1  0  0  0  0  0  0  0  0  0
    7.6553  -14.6934   20.7536 C   0  0  0  0  0  0  0  0  0  0  0  0
    7.5479  -14.9481   19.2766 C   0  0  0  0  0  0  0  0  0  0  0  0
    7.4962  -13.6433   18.4918 C   0  0  0  0  0  0  0  0  0  0  0  0
    7.3387  -13.8370   17.0203 C   0  0  0  0  0  0  0  0  0  0  0  0
    7.0942  -12.5289   16.4090 N   0  0  0  0  0  0  0  0  0  0  0  0
    8.8399  -15.6877   22.7245 C   0  0  0  0  0  0  0  0  0  0  0  0
    8.2966  -15.4643   23.8264 O   0  0  0  0  0  0  0  0  0  0  0  0
   11.4413  -18.2244   25.1354 O   0  0  0  0  0  0  0  0  0  0  0  0
   10.6831  -17.7023   24.0797 C   0  0  0  0  0  0  0  0  0  0  0  0
   11.0473  -16.2617   23.8136 C   0  0  2  0  0  0  0  0  0  0  0  0
   10.2831  -15.6942   22.7276 N   0  0  0  0  0  0  0  0  0  0  0  0
   12.5024  -16.2134   23.5328 C   0  0  0  0  0  0  0  0  0  0  0  0
   12.9736  -16.2820   22.3698 O   0  0  0  0  0  0  0  0  0  0  0  0
   13.3997  -16.0877   24.5829 O   0  0  0  0  0  0  0  0  0  0  0  0
  2  1  1  1
  3  2  1  0
  4  5  2  0
  4  2  1  0
  6  4  1  0
  7  6  1  0
  7 13  1  0
  7  8  1  1
  9 10  1  0
  9  8  1  0
 11 12  1  0
 11 10  1  0
 13 14  2  0
 15 16  1  0
 17 16  1  6
 18 13  1  0
 18 17  1  0
 19 21  1  0
 19 17  1  0
 20 19  2  0
M  END
$$$$
