AKS.pdb
     RDKit          3D

 21 20  0  0  1  0  0  0  0  0999 V2000
   12.4743  -19.1716   16.9841 C   0  0  0  0  0  0  0  0  0  0  0  0
   12.4186  -17.6904   16.7007 C   0  0  2  0  0  0  0  0  0  0  0  0
   13.4508  -17.2587   15.7817 N   0  0  0  0  0  0  0  0  0  0  0  0
   12.5112  -16.8915   17.9552 C   0  0  0  0  0  0  0  0  0  0  0  0
   13.6275  -16.4454   18.3353 O   0  0  0  0  0  0  0  0  0  0  0  0
   11.3960  -16.5956   18.7656 N   0  0  0  0  0  0  0  0  0  0  0  0
   11.4740  -15.8175   19.9931 C   0  0  1  0  0  0  0  0  0  0  0  0
   10.0918  -15.2719   20.2410 C   0  0  0  0  0  0  0  0  0  0  0  0
    9.6300  -14.3313   19.1640 C   0  0  0  0  0  0  0  0  0  0  0  0
    8.2142  -13.8362   19.4306 C   0  0  0  0  0  0  0  0  0  0  0  0
    7.7272  -12.8481   18.4237 C   0  0  0  0  0  0  0  0  0  0  0  0
    6.3415  -12.5050   18.7504 N   0  0  0  0  0  0  0  0  0  0  0  0
   12.0694  -16.5514   21.0947 C   0  0  0  0  0  0  0  0  0  0  0  0
   11.7954  -17.7550   21.2826 O   0  0  0  0  0  0  0  0  0  0  0  0
   15.8275  -16.2882   22.3724 O   0  0  0  0  0  0  0  0  0  0  0  0
   14.9648  -16.2324   23.4745 C   0  0  0  0  0  0  0  0  0  0  0  0
   13.5871  -16.7288   23.1080 C   0  0  2  0  0  0  0  0  0  0  0  0
   12.9974  -15.9664   22.0325 N   0  0  0  0  0  0  0  0  0  0  0  0
   12.7515  -16.6716   24.3316 C   0  0  0  0  0  0  0  0  0  0  0  0
   11.7110  -15.9715   24.4128 O   0  0  0  0  0  0  0  0  0  0  0  0
   13.1148  -17.4138   25.4454 O   0  0  0  0  0  0  0  0  0  0  0  0
  2  1  1  1
  3  2  1  0
  4  5  2  0
  4  2  1  0
  6  4  1  0
  7  6  1  0
  7 13  1  0
  7  8  1  1
  9 10  1  0
  9  8  1  0
 11 12  1  0
 11 10  1  0
 13 14  2  0
 15 16  1  0
 17 16  1  1
 18 13  1  0
 18 17  1  0
 19 21  1  0
 19 17  1  0
 20 19  2  0
M  END
$$$$
