AKS.pdb
     RDKit          3D

 21 20  0  0  1  0  0  0  0  0999 V2000
    7.7982  -12.7607   19.2044 C   0  0  0  0  0  0  0  0  0  0  0  0
    8.1456  -14.1418   19.7034 C   0  0  2  0  0  0  0  0  0  0  0  0
    7.0380  -15.0685   19.5980 N   0  0  0  0  0  0  0  0  0  0  0  0
    8.6255  -14.1072   21.1137 C   0  0  0  0  0  0  0  0  0  0  0  0
    9.7765  -13.6641   21.3754 O   0  0  0  0  0  0  0  0  0  0  0  0
    7.8498  -14.5521   22.2038 N   0  0  0  0  0  0  0  0  0  0  0  0
    8.3493  -14.6383   23.5681 C   0  0  1  0  0  0  0  0  0  0  0  0
    7.2086  -14.2363   24.4664 C   0  0  0  0  0  0  0  0  0  0  0  0
    7.5507  -13.0859   25.3705 C   0  0  0  0  0  0  0  0  0  0  0  0
    6.3920  -12.7484   26.3001 C   0  0  0  0  0  0  0  0  0  0  0  0
    6.6742  -11.6038   27.2155 C   0  0  0  0  0  0  0  0  0  0  0  0
    5.4974  -11.3915   28.0609 N   0  0  0  0  0  0  0  0  0  0  0  0
    8.9675  -15.9169   23.8676 C   0  0  0  0  0  0  0  0  0  0  0  0
    8.3282  -16.9816   23.7381 O   0  0  0  0  0  0  0  0  0  0  0  0
   12.3194  -17.4683   22.8115 O   0  0  0  0  0  0  0  0  0  0  0  0
   12.2839  -17.5345   24.2102 C   0  0  0  0  0  0  0  0  0  0  0  0
   10.8799  -17.3292   24.7255 C   0  0  2  0  0  0  0  0  0  0  0  0
   10.3292  -16.0557   24.3250 N   0  0  0  0  0  0  0  0  0  0  0  0
   10.9227  -17.4586   26.2020 C   0  0  0  0  0  0  0  0  0  0  0  0
   10.5007  -16.5629   26.9760 O   0  0  0  0  0  0  0  0  0  0  0  0
   11.4464  -18.6080   26.7749 O   0  0  0  0  0  0  0  0  0  0  0  0
  2  1  1  1
  3  2  1  0
  4  5  2  0
  4  2  1  0
  6  4  1  0
  7  6  1  0
  7 13  1  0
  7  8  1  1
  9 10  1  0
  9  8  1  0
 11 12  1  0
 11 10  1  0
 13 14  2  0
 15 16  1  0
 17 16  1  1
 18 13  1  0
 18 17  1  0
 19 21  1  0
 19 17  1  0
 20 19  2  0
M  END
$$$$
