AKS.pdb
     RDKit          3D

 21 20  0  0  1  0  0  0  0  0999 V2000
   10.3088  -21.6449   18.0405 C   0  0  0  0  0  0  0  0  0  0  0  0
   10.4556  -20.3994   17.2012 C   0  0  2  0  0  0  0  0  0  0  0  0
   11.4883  -20.5235   16.1939 N   0  0  0  0  0  0  0  0  0  0  0  0
   10.7329  -19.2029   18.0451 C   0  0  0  0  0  0  0  0  0  0  0  0
   11.9210  -18.9080   18.3467 O   0  0  0  0  0  0  0  0  0  0  0  0
    9.7197  -18.3568   18.5407 N   0  0  0  0  0  0  0  0  0  0  0  0
    9.9724  -17.2219   19.4163 C   0  0  1  0  0  0  0  0  0  0  0  0
    8.8718  -16.2273   19.1542 C   0  0  0  0  0  0  0  0  0  0  0  0
    9.0115  -14.9699   19.9650 C   0  0  0  0  0  0  0  0  0  0  0  0
    7.9515  -13.9443   19.5838 C   0  0  0  0  0  0  0  0  0  0  0  0
    8.1139  -12.6318   20.2756 C   0  0  0  0  0  0  0  0  0  0  0  0
    7.1192  -11.7025   19.7358 N   0  0  0  0  0  0  0  0  0  0  0  0
   10.1593  -17.6048   20.8038 C   0  0  0  0  0  0  0  0  0  0  0  0
    9.4031  -18.4391   21.3437 O   0  0  0  0  0  0  0  0  0  0  0  0
   13.7043  -16.8457   22.8861 O   0  0  0  0  0  0  0  0  0  0  0  0
   12.8452  -17.8811   23.2760 C   0  0  0  0  0  0  0  0  0  0  0  0
   11.4052  -17.5207   23.0012 C   0  0  2  0  0  0  0  0  0  0  0  0
   11.2021  -17.0683   21.6449 N   0  0  0  0  0  0  0  0  0  0  0  0
   11.0101  -16.4811   23.9819 C   0  0  0  0  0  0  0  0  0  0  0  0
   10.6046  -15.3419   23.6397 O   0  0  0  0  0  0  0  0  0  0  0  0
   11.0830  -16.7558   25.3394 O   0  0  0  0  0  0  0  0  0  0  0  0
  2  1  1  1
  3  2  1  0
  4  5  2  0
  4  2  1  0
  6  4  1  0
  7  6  1  0
  7 13  1  0
  7  8  1  1
  9 10  1  0
  9  8  1  0
 11 12  1  0
 11 10  1  0
 13 14  2  0
 15 16  1  0
 17 16  1  6
 18 13  1  0
 18 17  1  0
 19 21  1  0
 19 17  1  0
 20 19  2  0
M  END
$$$$
