RMK.pdb
     RDKit          3D

 29 28  0  0  1  0  0  0  0  0999 V2000
    8.4965  -14.3181   15.7160 N   0  0  0  0  0  0  0  0  0  0  0  0
    7.9761  -13.5812   16.8114 C   0  0  0  0  0  0  0  0  0  0  0  0
    8.5030  -12.4547   17.1848 N   0  0  0  0  0  0  0  0  0  0  0  0
    6.8541  -14.0537   17.5395 N   0  0  0  0  0  0  0  0  0  0  0  0
    7.0227  -14.5540   18.9060 C   0  0  0  0  0  0  0  0  0  0  0  0
    7.6916  -15.8865   18.7802 C   0  0  0  0  0  0  0  0  0  0  0  0
    8.9976  -15.9154   19.4707 C   0  0  0  0  0  0  0  0  0  0  0  0
    9.1078  -16.7353   20.7198 C   0  0  2  0  0  0  0  0  0  0  0  0
    7.9194  -17.5137   21.0256 N   0  0  0  0  0  0  0  0  0  0  0  0
    9.4331  -15.8193   21.8347 C   0  0  0  0  0  0  0  0  0  0  0  0
   10.4453  -15.1087   21.7328 O   0  0  0  0  0  0  0  0  0  0  0  0
    8.2088  -11.8968   18.0018 C   0  0  0  0  0  0  0  0  0  0  0  0
    6.6312  -11.4078   27.7288 S   0  0  0  0  0  0  0  0  0  0  0  0
    6.3183  -12.4994   26.3306 C   0  0  0  0  0  0  0  0  0  0  0  0
    7.8872  -13.3340   25.8108 C   0  0  0  0  0  0  0  0  0  0  0  0
    7.5915  -14.2249   24.6309 C   0  0  2  0  0  0  0  0  0  0  0  0
    8.8001  -15.0072   24.1617 N   0  0  0  0  0  0  0  0  0  0  0  0
    8.6070  -15.7680   22.9688 C   0  0  0  0  0  0  0  0  0  0  0  0
    9.3692  -15.8684   25.2128 O   0  0  0  0  0  0  0  0  0  0  0  0
    8.8271  -16.9727   25.5097 N   0  0  0  0  0  0  0  0  0  0  0  0
   10.5316  -15.4303   25.8765 C   0  0  2  0  0  0  0  0  0  0  0  0
   11.2802  -16.1870   26.8346 C   0  0  0  0  0  0  0  0  0  0  0  0
   10.6120  -16.3318   28.1752 C   0  0  0  0  0  0  0  0  0  0  0  0
   11.4503  -17.2327   29.0468 C   0  0  0  0  0  0  0  0  0  0  0  0
   10.6284  -17.4859   30.2991 C   0  0  0  0  0  0  0  0  0  0  0  0
   11.4253  -18.3480   31.2538 N   0  0  0  0  0  0  0  0  0  0  0  0
   10.6639  -18.6499   32.4281 C   0  0  0  0  0  0  0  0  0  0  0  0
   11.7904  -17.4590   26.2803 O   0  0  0  0  0  0  0  0  0  0  0  0
   13.1452  -17.7392   26.2343 O   0  0  0  0  0  0  0  0  0  0  0  0
  1  2  1  0
  2  3  2  0
  4  5  1  0
  4  2  1  0
  6  5  1  0
  7  6  1  0
  8  7  1  0
  8  9  1  1
 10  8  1  0
 11 10  2  0
 13 12  1  0
 14 13  1  0
 15 14  1  0
 16 15  1  6
 16 17  1  0
 17 10  1  0
 18 16  1  0
 18 19  2  0
 20 18  1  0
 21 20  1  0
 21 22  1  1
 23 22  1  0
 23 24  1  0
 24 25  1  0
 25 26  1  0
 27 21  1  0
 28 27  1  0
 29 27  2  0
M  END
$$$$
