RMK.pdb
     RDKit          3D

 29 28  0  0  1  0  0  0  0  0999 V2000
    7.4815  -15.3343   16.5585 N   0  0  0  0  0  0  0  0  0  0  0  0
    7.6002  -13.9246   16.6694 C   0  0  0  0  0  0  0  0  0  0  0  0
    8.0875  -13.2053   15.7044 N   0  0  0  0  0  0  0  0  0  0  0  0
    7.1865  -13.2494   17.8463 N   0  0  0  0  0  0  0  0  0  0  0  0
    7.9717  -13.3702   19.0771 C   0  0  0  0  0  0  0  0  0  0  0  0
    8.6735  -14.6890   18.9936 C   0  0  0  0  0  0  0  0  0  0  0  0
    9.4891  -14.9569   20.1961 C   0  0  0  0  0  0  0  0  0  0  0  0
    8.9693  -15.9580   21.1822 C   0  0  2  0  0  0  0  0  0  0  0  0
    7.5333  -16.1690   21.1128 N   0  0  0  0  0  0  0  0  0  0  0  0
    9.3665  -15.5088   22.5344 C   0  0  0  0  0  0  0  0  0  0  0  0
   10.5361  -15.1320   22.7067 O   0  0  0  0  0  0  0  0  0  0  0  0
    8.1497  -12.1751   15.6969 C   0  0  0  0  0  0  0  0  0  0  0  0
    5.5446  -12.4937   26.6320 S   0  0  0  0  0  0  0  0  0  0  0  0
    6.8204  -11.6356   25.6937 C   0  0  0  0  0  0  0  0  0  0  0  0
    7.9388  -12.8609   24.8715 C   0  0  0  0  0  0  0  0  0  0  0  0
    7.8157  -14.1823   25.5871 C   0  0  2  0  0  0  0  0  0  0  0  0
    8.6664  -15.2720   24.9694 N   0  0  0  0  0  0  0  0  0  0  0  0
    8.4315  -15.5146   23.5819 C   0  0  0  0  0  0  0  0  0  0  0  0
    8.6003  -16.5420   25.7133 O   0  0  0  0  0  0  0  0  0  0  0  0
    7.7047  -17.3981   25.4554 N   0  0  0  0  0  0  0  0  0  0  0  0
    9.5600  -16.7772   26.7168 C   0  0  1  0  0  0  0  0  0  0  0  0
   10.2214  -18.0234   26.9626 C   0  0  0  0  0  0  0  0  0  0  0  0
   10.8599  -18.6412   25.7480 C   0  0  0  0  0  0  0  0  0  0  0  0
   11.4784  -19.9607   26.1360 C   0  0  0  0  0  0  0  0  0  0  0  0
   11.6839  -20.7238   24.8386 C   0  0  0  0  0  0  0  0  0  0  0  0
   12.3114  -22.0667   25.1430 N   0  0  0  0  0  0  0  0  0  0  0  0
   12.6094  -22.7778   23.9366 C   0  0  0  0  0  0  0  0  0  0  0  0
   11.1087  -17.9725   28.1439 O   0  0  0  0  0  0  0  0  0  0  0  0
   12.0068  -16.9364   28.3331 O   0  0  0  0  0  0  0  0  0  0  0  0
  1  2  1  0
  2  3  2  0
  4  5  1  0
  4  2  1  0
  6  5  1  0
  7  6  1  0
  8  7  1  0
  8  9  1  1
 10  8  1  0
 11 10  2  0
 13 12  1  0
 14 13  1  0
 15 14  1  0
 16 15  1  6
 16 17  1  0
 17 10  1  0
 18 16  1  0
 18 19  2  0
 20 18  1  0
 21 20  1  0
 21 22  1  1
 23 22  1  0
 23 24  1  0
 24 25  1  0
 25 26  1  0
 27 21  1  0
 28 27  1  0
 29 27  2  0
M  END
$$$$
