RMK.pdb
     RDKit          3D

 29 28  0  0  1  0  0  0  0  0999 V2000
    8.0676  -14.9732   15.6200 N   0  0  0  0  0  0  0  0  0  0  0  0
    7.8710  -13.5685   15.5784 C   0  0  0  0  0  0  0  0  0  0  0  0
    7.7658  -12.9297   14.4528 N   0  0  0  0  0  0  0  0  0  0  0  0
    7.7812  -12.8101   16.7738 N   0  0  0  0  0  0  0  0  0  0  0  0
    7.3163  -13.4413   18.0113 C   0  0  0  0  0  0  0  0  0  0  0  0
    8.3519  -14.4593   18.3719 C   0  0  0  0  0  0  0  0  0  0  0  0
    8.7875  -14.3287   19.7778 C   0  0  0  0  0  0  0  0  0  0  0  0
    8.7523  -15.5567   20.6354 C   0  0  2  0  0  0  0  0  0  0  0  0
    7.5115  -16.3076   20.5462 N   0  0  0  0  0  0  0  0  0  0  0  0
    9.0119  -15.1410   22.0310 C   0  0  0  0  0  0  0  0  0  0  0  0
    9.6392  -14.0874   22.2216 O   0  0  0  0  0  0  0  0  0  0  0  0
    7.6630  -11.9078   14.3506 C   0  0  0  0  0  0  0  0  0  0  0  0
    6.4774  -10.9074   26.1264 S   0  0  0  0  0  0  0  0  0  0  0  0
    6.2814  -12.6966   26.0582 C   0  0  0  0  0  0  0  0  0  0  0  0
    7.6701  -13.4531   25.0952 C   0  0  0  0  0  0  0  0  0  0  0  0
    7.5276  -14.9534   25.1409 C   0  0  2  0  0  0  0  0  0  0  0  0
    8.6906  -15.6788   24.4973 N   0  0  0  0  0  0  0  0  0  0  0  0
    8.5526  -15.9292   23.0982 C   0  0  0  0  0  0  0  0  0  0  0  0
    9.0422  -16.9290   25.1929 O   0  0  0  0  0  0  0  0  0  0  0  0
    8.2271  -17.8960   25.2392 N   0  0  0  0  0  0  0  0  0  0  0  0
   10.3084  -17.0188   25.8031 C   0  0  1  0  0  0  0  0  0  0  0  0
   10.8259  -18.1668   26.4851 C   0  0  0  0  0  0  0  0  0  0  0  0
   12.2257  -18.5503   26.0876 C   0  0  0  0  0  0  0  0  0  0  0  0
   12.1614  -19.4935   24.9127 C   0  0  0  0  0  0  0  0  0  0  0  0
   13.6021  -19.7609   24.5117 C   0  0  0  0  0  0  0  0  0  0  0  0
   13.6269  -20.7565   23.3725 N   0  0  0  0  0  0  0  0  0  0  0  0
   14.9720  -21.0592   22.9864 C   0  0  0  0  0  0  0  0  0  0  0  0
   10.6161  -18.1015   27.9470 O   0  0  0  0  0  0  0  0  0  0  0  0
   10.0901  -16.9749   28.5554 O   0  0  0  0  0  0  0  0  0  0  0  0
  1  2  1  0
  2  3  2  0
  4  5  1  0
  4  2  1  0
  6  5  1  0
  7  6  1  0
  8  7  1  0
  8  9  1  1
 10  8  1  0
 11 10  2  0
 13 12  1  0
 14 13  1  0
 15 14  1  0
 16 15  1  6
 16 17  1  0
 17 10  1  0
 18 16  1  0
 18 19  2  0
 20 18  1  0
 21 20  1  0
 21 22  1  1
 23 22  1  0
 23 24  1  0
 24 25  1  0
 25 26  1  0
 27 21  1  0
 28 27  1  0
 29 27  2  0
M  END
$$$$
