RMK.pdb
     RDKit          3D

 29 28  0  0  1  0  0  0  0  0999 V2000
    8.6913  -14.7855   16.3696 N   0  0  0  0  0  0  0  0  0  0  0  0
    8.0382  -13.6397   16.8934 C   0  0  0  0  0  0  0  0  0  0  0  0
    6.9178  -13.2096   16.3977 N   0  0  0  0  0  0  0  0  0  0  0  0
    8.5913  -12.9214   17.9844 N   0  0  0  0  0  0  0  0  0  0  0  0
    9.8199  -13.3934   18.6277 C   0  0  0  0  0  0  0  0  0  0  0  0
    9.4983  -14.7383   19.1992 C   0  0  0  0  0  0  0  0  0  0  0  0
    9.5693  -14.7417   20.6751 C   0  0  0  0  0  0  0  0  0  0  0  0
    9.2295  -16.0157   21.3865 C   0  0  2  0  0  0  0  0  0  0  0  0
    7.8640  -16.4664   21.1772 N   0  0  0  0  0  0  0  0  0  0  0  0
    9.4981  -15.8146   22.8271 C   0  0  0  0  0  0  0  0  0  0  0  0
   10.6546  -15.5274   23.1731 O   0  0  0  0  0  0  0  0  0  0  0  0
    6.4074  -12.3687   16.7101 C   0  0  0  0  0  0  0  0  0  0  0  0
    6.8138  -11.8964   27.4322 S   0  0  0  0  0  0  0  0  0  0  0  0
    6.0081  -12.5209   25.9473 C   0  0  0  0  0  0  0  0  0  0  0  0
    7.1810  -13.5824   24.9850 C   0  0  0  0  0  0  0  0  0  0  0  0
    7.3791  -14.8789   25.7285 C   0  0  2  0  0  0  0  0  0  0  0  0
    8.5118  -15.7147   25.1707 N   0  0  0  0  0  0  0  0  0  0  0  0
    8.4599  -15.9481   23.7629 C   0  0  0  0  0  0  0  0  0  0  0  0
    8.6833  -16.9946   25.8799 O   0  0  0  0  0  0  0  0  0  0  0  0
    7.9167  -17.9736   25.6444 N   0  0  0  0  0  0  0  0  0  0  0  0
    9.7224  -17.0989   26.8248 C   0  0  1  0  0  0  0  0  0  0  0  0
    9.9859  -18.2377   27.6522 C   0  0  0  0  0  0  0  0  0  0  0  0
   11.2451  -18.1370   28.4700 C   0  0  0  0  0  0  0  0  0  0  0  0
   11.3809  -19.3772   29.3171 C   0  0  0  0  0  0  0  0  0  0  0  0
   12.7182  -19.2542   30.0273 C   0  0  0  0  0  0  0  0  0  0  0  0
   12.9093  -20.4443   30.9420 N   0  0  0  0  0  0  0  0  0  0  0  0
   14.1798  -20.3858   31.5996 C   0  0  0  0  0  0  0  0  0  0  0  0
    8.8013  -18.6624   28.4282 O   0  0  0  0  0  0  0  0  0  0  0  0
    8.4206  -19.9911   28.5028 O   0  0  0  0  0  0  0  0  0  0  0  0
  1  2  1  0
  2  3  2  0
  4  5  1  0
  4  2  1  0
  6  5  1  0
  7  6  1  0
  8  7  1  0
  8  9  1  1
 10  8  1  0
 11 10  2  0
 13 12  1  0
 14 13  1  0
 15 14  1  0
 16 15  1  6
 16 17  1  0
 17 10  1  0
 18 16  1  0
 18 19  2  0
 20 18  1  0
 21 20  1  0
 21 22  1  1
 23 22  1  0
 23 24  1  0
 24 25  1  0
 25 26  1  0
 27 21  1  0
 28 27  1  0
 29 27  2  0
M  END
$$$$
