RMK.pdb
     RDKit          3D

 29 28  0  0  1  0  0  0  0  0999 V2000
    8.1084  -15.1722   16.0052 N   0  0  0  0  0  0  0  0  0  0  0  0
    8.2031  -13.7833   15.7306 C   0  0  0  0  0  0  0  0  0  0  0  0
    8.3769  -13.3392   14.5228 N   0  0  0  0  0  0  0  0  0  0  0  0
    8.1096  -12.8267   16.7739 N   0  0  0  0  0  0  0  0  0  0  0  0
    7.7075  -13.2439   18.1194 C   0  0  0  0  0  0  0  0  0  0  0  0
    8.8031  -14.1293   18.6238 C   0  0  0  0  0  0  0  0  0  0  0  0
    8.9313  -14.0650   20.0944 C   0  0  0  0  0  0  0  0  0  0  0  0
    8.8327  -15.3492   20.8596 C   0  0  2  0  0  0  0  0  0  0  0  0
    7.5366  -15.9993   20.7638 N   0  0  0  0  0  0  0  0  0  0  0  0
    9.1696  -15.0616   22.2709 C   0  0  0  0  0  0  0  0  0  0  0  0
   10.2920  -14.5959   22.5222 O   0  0  0  0  0  0  0  0  0  0  0  0
    8.4489  -12.3453   14.2539 C   0  0  0  0  0  0  0  0  0  0  0  0
    5.5124  -12.3186   27.2587 S   0  0  0  0  0  0  0  0  0  0  0  0
    6.9056  -11.8303   26.2267 C   0  0  0  0  0  0  0  0  0  0  0  0
    7.1225  -13.0356   24.8380 C   0  0  0  0  0  0  0  0  0  0  0  0
    7.3409  -14.4088   25.4208 C   0  0  2  0  0  0  0  0  0  0  0  0
    8.4124  -15.1963   24.6965 N   0  0  0  0  0  0  0  0  0  0  0  0
    8.2318  -15.3140   23.2849 C   0  0  0  0  0  0  0  0  0  0  0  0
    8.6376  -16.5299   25.2808 O   0  0  0  0  0  0  0  0  0  0  0  0
    7.7219  -17.4034   25.2737 N   0  0  0  0  0  0  0  0  0  0  0  0
    9.8978  -16.8058   25.8458 C   0  0  1  0  0  0  0  0  0  0  0  0
   10.3124  -18.0665   26.3840 C   0  0  0  0  0  0  0  0  0  0  0  0
   11.5750  -18.6184   25.7791 C   0  0  0  0  0  0  0  0  0  0  0  0
   11.2218  -19.4179   24.5501 C   0  0  0  0  0  0  0  0  0  0  0  0
   12.5428  -19.8711   23.9522 C   0  0  0  0  0  0  0  0  0  0  0  0
   12.2719  -20.7973   22.7867 N   0  0  0  0  0  0  0  0  0  0  0  0
   13.4914  -21.1740   22.1379 C   0  0  0  0  0  0  0  0  0  0  0  0
   10.2999  -18.0849   27.8622 O   0  0  0  0  0  0  0  0  0  0  0  0
   10.6085  -19.2296   28.5766 O   0  0  0  0  0  0  0  0  0  0  0  0
  1  2  1  0
  2  3  2  0
  4  5  1  0
  4  2  1  0
  6  5  1  0
  7  6  1  0
  8  7  1  0
  8  9  1  1
 10  8  1  0
 11 10  2  0
 13 12  1  0
 14 13  1  0
 15 14  1  0
 16 15  1  6
 16 17  1  0
 17 10  1  0
 18 16  1  0
 18 19  2  0
 20 18  1  0
 21 20  1  0
 21 22  1  1
 23 22  1  0
 23 24  1  0
 24 25  1  0
 25 26  1  0
 27 21  1  0
 28 27  1  0
 29 27  2  0
M  END
$$$$
