RMK.pdb
     RDKit          3D

 29 28  0  0  1  0  0  0  0  0999 V2000
    9.7668  -15.0704   16.4717 N   0  0  0  0  0  0  0  0  0  0  0  0
    8.8660  -14.3191   15.6731 C   0  0  0  0  0  0  0  0  0  0  0  0
    9.1039  -14.0831   14.4186 N   0  0  0  0  0  0  0  0  0  0  0  0
    7.6665  -13.7980   16.2225 N   0  0  0  0  0  0  0  0  0  0  0  0
    7.2431  -14.1917   17.5686 C   0  0  0  0  0  0  0  0  0  0  0  0
    7.9446  -13.2655   18.5114 C   0  0  0  0  0  0  0  0  0  0  0  0
    7.6715  -13.6049   19.9233 C   0  0  0  0  0  0  0  0  0  0  0  0
    8.2838  -14.8582   20.4700 C   0  0  2  0  0  0  0  0  0  0  0  0
    7.3654  -15.9814   20.5503 N   0  0  0  0  0  0  0  0  0  0  0  0
    8.8425  -14.5441   21.8031 C   0  0  0  0  0  0  0  0  0  0  0  0
    9.5741  -13.5478   21.9120 O   0  0  0  0  0  0  0  0  0  0  0  0
    8.4590  -13.6130   13.7642 C   0  0  0  0  0  0  0  0  0  0  0  0
    6.6005  -11.3527   27.7867 S   0  0  0  0  0  0  0  0  0  0  0  0
    6.9770  -11.7533   26.0714 C   0  0  0  0  0  0  0  0  0  0  0  0
    6.8106  -13.5761   25.7919 C   0  0  0  0  0  0  0  0  0  0  0  0
    7.1796  -13.8804   24.3620 C   0  0  1  0  0  0  0  0  0  0  0  0
    8.2355  -14.9587   24.2393 N   0  0  0  0  0  0  0  0  0  0  0  0
    8.5413  -15.3619   22.9040 C   0  0  0  0  0  0  0  0  0  0  0  0
    7.9411  -16.1457   25.0609 O   0  0  0  0  0  0  0  0  0  0  0  0
    6.9017  -16.8367   24.8520 N   0  0  0  0  0  0  0  0  0  0  0  0
    8.8469  -16.4901   26.0829 C   0  0  1  0  0  0  0  0  0  0  0  0
    9.6067  -17.7021   26.1501 C   0  0  0  0  0  0  0  0  0  0  0  0
   10.3465  -18.0459   24.8855 C   0  0  0  0  0  0  0  0  0  0  0  0
   11.0972  -19.3374   25.0915 C   0  0  0  0  0  0  0  0  0  0  0  0
   11.8540  -19.5919   23.7991 C   0  0  0  0  0  0  0  0  0  0  0  0
   11.7728  -21.0630   23.4541 N   0  0  0  0  0  0  0  0  0  0  0  0
   12.5455  -21.3582   22.2855 C   0  0  0  0  0  0  0  0  0  0  0  0
   10.4375  -17.7849   27.3701 O   0  0  0  0  0  0  0  0  0  0  0  0
   10.5796  -18.9690   28.0727 O   0  0  0  0  0  0  0  0  0  0  0  0
  1  2  1  0
  2  3  2  0
  4  5  1  0
  4  2  1  0
  6  5  1  0
  7  6  1  0
  8  7  1  0
  8  9  1  1
 10  8  1  0
 11 10  2  0
 13 12  1  0
 14 13  1  0
 15 14  1  0
 16 15  1  6
 16 17  1  0
 17 10  1  0
 18 16  1  0
 18 19  2  0
 20 18  1  0
 21 20  1  0
 21 22  1  1
 23 22  1  0
 23 24  1  0
 24 25  1  0
 25 26  1  0
 27 21  1  0
 28 27  1  0
 29 27  2  0
M  END
$$$$
