RMK.pdb
     RDKit          3D

 29 28  0  0  1  0  0  0  0  0999 V2000
    8.2190  -13.9741   15.4327 N   0  0  0  0  0  0  0  0  0  0  0  0
    8.5557  -13.9542   16.8111 C   0  0  0  0  0  0  0  0  0  0  0  0
    8.4017  -12.8861   17.5333 N   0  0  0  0  0  0  0  0  0  0  0  0
    9.0745  -15.1092   17.4507 N   0  0  0  0  0  0  0  0  0  0  0  0
    8.1640  -16.0977   18.0337 C   0  0  0  0  0  0  0  0  0  0  0  0
    8.0303  -15.7363   19.4795 C   0  0  0  0  0  0  0  0  0  0  0  0
    9.2596  -16.0417   20.2403 C   0  0  0  0  0  0  0  0  0  0  0  0
    9.1181  -16.8299   21.5066 C   0  0  2  0  0  0  0  0  0  0  0  0
    7.8012  -17.4134   21.6984 N   0  0  0  0  0  0  0  0  0  0  0  0
    9.4637  -15.9383   22.6351 C   0  0  0  0  0  0  0  0  0  0  0  0
   10.5830  -15.4027   22.6372 O   0  0  0  0  0  0  0  0  0  0  0  0
    8.7556  -12.7558   18.4940 C   0  0  0  0  0  0  0  0  0  0  0  0
    5.9493  -10.9742   25.4408 S   0  0  0  0  0  0  0  0  0  0  0  0
    6.1417  -12.2277   26.7198 C   0  0  0  0  0  0  0  0  0  0  0  0
    7.6766  -13.2176   26.4155 C   0  0  0  0  0  0  0  0  0  0  0  0
    7.4727  -14.0558   25.1789 C   0  0  1  0  0  0  0  0  0  0  0  0
    8.6881  -14.8830   24.8169 N   0  0  0  0  0  0  0  0  0  0  0  0
    8.5372  -15.7152   23.6663 C   0  0  0  0  0  0  0  0  0  0  0  0
    9.1938  -15.6836   25.9455 O   0  0  0  0  0  0  0  0  0  0  0  0
    9.2725  -15.1883   27.1074 N   0  0  0  0  0  0  0  0  0  0  0  0
    9.5856  -17.0133   25.6966 C   0  0  1  0  0  0  0  0  0  0  0  0
   10.0860  -17.9321   26.6745 C   0  0  0  0  0  0  0  0  0  0  0  0
    9.9459  -19.3822   26.2975 C   0  0  0  0  0  0  0  0  0  0  0  0
   10.4579  -20.2357   27.4305 C   0  0  0  0  0  0  0  0  0  0  0  0
   10.3861  -21.6711   26.9382 C   0  0  0  0  0  0  0  0  0  0  0  0
   10.8661  -22.5991   28.0328 N   0  0  0  0  0  0  0  0  0  0  0  0
   10.9012  -23.9554   27.5754 C   0  0  0  0  0  0  0  0  0  0  0  0
   11.4343  -17.5678   27.1590 O   0  0  0  0  0  0  0  0  0  0  0  0
   11.7488  -17.5782   28.5070 O   0  0  0  0  0  0  0  0  0  0  0  0
  1  2  1  0
  2  3  2  0
  4  5  1  0
  4  2  1  0
  6  5  1  0
  7  6  1  0
  8  7  1  0
  8  9  1  1
 10  8  1  0
 11 10  2  0
 13 12  1  0
 14 13  1  0
 15 14  1  0
 16 15  1  6
 16 17  1  0
 17 10  1  0
 18 16  1  0
 18 19  2  0
 20 18  1  0
 21 20  1  0
 21 22  1  6
 23 22  1  0
 23 24  1  0
 24 25  1  0
 25 26  1  0
 27 21  1  0
 28 27  1  0
 29 27  2  0
M  END
$$$$
