VCR.pdb
     RDKit          3D

 25 24  0  0  1  0  0  0  0  0999 V2000
    7.5919  -12.4869   20.5462 C   0  0  0  0  0  0  0  0  0  0  0  0
    8.4153  -13.3987   19.6236 C   0  0  2  0  0  0  0  0  0  0  0  0
    7.7687  -13.3355   18.2829 C   0  0  0  0  0  0  0  0  0  0  0  0
    8.3657  -14.7633   20.2806 C   0  0  2  0  0  0  0  0  0  0  0  0
    6.9350  -15.1279   20.2265 N   0  0  0  0  0  0  0  0  0  0  0  0
    8.7454  -14.7548   21.7034 C   0  0  0  0  0  0  0  0  0  0  0  0
    9.9564  -14.6542   22.0176 O   0  0  0  0  0  0  0  0  0  0  0  0
    7.8391  -14.8508   22.8045 N   0  0  0  0  0  0  0  0  0  0  0  0
    8.2990  -14.9712   24.1703 C   0  0  1  0  0  0  0  0  0  0  0  0
    7.0994  -14.6240   25.0856 C   0  0  0  0  0  0  0  0  0  0  0  0
    6.9378  -12.8061   25.1084 S   0  0  0  0  0  0  0  0  0  0  0  0
    8.8561  -16.2776   24.5252 C   0  0  0  0  0  0  0  0  0  0  0  0
    8.1986  -17.3387   24.2359 O   0  0  0  0  0  0  0  0  0  0  0  0
   15.9076  -20.8378   22.2728 N   0  0  0  0  0  0  0  0  0  0  0  0
   14.5183  -20.6580   22.3940 C   0  0  0  0  0  0  0  0  0  0  0  0
   13.7191  -21.5299   21.8791 N   0  0  0  0  0  0  0  0  0  0  0  0
   14.0318  -19.5093   23.0867 N   0  0  0  0  0  0  0  0  0  0  0  0
   13.9998  -19.4997   24.5307 C   0  0  0  0  0  0  0  0  0  0  0  0
   12.5659  -19.3648   24.9967 C   0  0  0  0  0  0  0  0  0  0  0  0
   11.9947  -17.9937   24.7814 C   0  0  0  0  0  0  0  0  0  0  0  0
   10.6484  -17.8598   25.3818 C   0  0  2  0  0  0  0  0  0  0  0  0
   10.0923  -16.5155   25.1788 N   0  0  0  0  0  0  0  0  0  0  0  0
   10.6628  -18.1984   26.8148 C   0  0  0  0  0  0  0  0  0  0  0  0
   10.9170  -19.4579   27.2931 O   0  0  0  0  0  0  0  0  0  0  0  0
   10.4291  -17.2968   27.6541 O   0  0  0  0  0  0  0  0  0  0  0  0
  2  1  1  1
  2  3  1  0
  4  2  1  0
  4  5  1  1
  6  4  1  0
  7  6  2  0
  8  6  1  0
  9  8  1  0
  9 10  1  1
 11 10  1  0
 12 22  1  0
 12  9  1  0
 13 12  2  0
 14 15  1  0
 15 16  2  0
 17 18  1  0
 17 15  1  0
 19 18  1  0
 20 19  1  0
 21 20  1  1
 21 22  1  0
 23 21  1  0
 24 23  1  0
 25 23  2  0
M  END
$$$$
