VCR.pdb
     RDKit          3D

 25 24  0  0  1  0  0  0  0  0999 V2000
    4.0283  -18.3036   22.8246 C   0  0  0  0  0  0  0  0  0  0  0  0
    4.5303  -19.0160   21.5593 C   0  0  2  0  0  0  0  0  0  0  0  0
    3.7322  -20.2679   21.4362 C   0  0  0  0  0  0  0  0  0  0  0  0
    6.0104  -19.2361   21.7984 C   0  0  2  0  0  0  0  0  0  0  0  0
    6.0542  -19.9726   23.0784 N   0  0  0  0  0  0  0  0  0  0  0  0
    6.7736  -17.9930   22.0006 C   0  0  0  0  0  0  0  0  0  0  0  0
    6.9330  -17.2039   21.0376 O   0  0  0  0  0  0  0  0  0  0  0  0
    7.3719  -17.5776   23.2305 N   0  0  0  0  0  0  0  0  0  0  0  0
    8.2469  -16.4290   23.3101 C   0  0  1  0  0  0  0  0  0  0  0  0
    8.1098  -15.8522   24.7404 C   0  0  0  0  0  0  0  0  0  0  0  0
    8.7831  -17.0934   25.8970 S   0  0  0  0  0  0  0  0  0  0  0  0
    9.6514  -16.6949   22.9947 C   0  0  0  0  0  0  0  0  0  0  0  0
   10.1558  -17.8344   23.2935 O   0  0  0  0  0  0  0  0  0  0  0  0
    9.1768  -14.7895   17.8234 N   0  0  0  0  0  0  0  0  0  0  0  0
    9.4036  -13.6244   18.5771 C   0  0  0  0  0  0  0  0  0  0  0  0
    8.4596  -12.7535   18.6973 N   0  0  0  0  0  0  0  0  0  0  0  0
   10.6790  -13.4394   19.1897 N   0  0  0  0  0  0  0  0  0  0  0  0
   11.7795  -14.3057   18.8364 C   0  0  0  0  0  0  0  0  0  0  0  0
   11.7674  -15.5205   19.7395 C   0  0  0  0  0  0  0  0  0  0  0  0
   12.5326  -15.3235   21.0155 C   0  0  0  0  0  0  0  0  0  0  0  0
   11.9681  -16.1264   22.1234 C   0  0  2  0  0  0  0  0  0  0  0  0
   10.5571  -15.8004   22.3691 N   0  0  0  0  0  0  0  0  0  0  0  0
   12.7544  -15.9665   23.3580 C   0  0  0  0  0  0  0  0  0  0  0  0
   12.2217  -15.5331   24.5448 O   0  0  0  0  0  0  0  0  0  0  0  0
   13.9789  -16.2349   23.3371 O   0  0  0  0  0  0  0  0  0  0  0  0
  2  1  1  1
  2  3  1  0
  4  2  1  0
  4  5  1  1
  6  4  1  0
  7  6  2  0
  8  6  1  0
  9  8  1  0
  9 10  1  1
 11 10  1  0
 12 22  1  0
 12  9  1  0
 13 12  2  0
 14 15  1  0
 15 16  2  0
 17 18  1  0
 17 15  1  0
 19 18  1  0
 20 19  1  0
 21 20  1  6
 21 22  1  0
 23 21  1  0
 24 23  1  0
 25 23  2  0
M  END
$$$$
