VCR.pdb
     RDKit          3D

 25 24  0  0  1  0  0  0  0  0999 V2000
    7.7061  -12.3651   19.8625 C   0  0  0  0  0  0  0  0  0  0  0  0
    8.6713  -12.9234   18.8055 C   0  0  2  0  0  0  0  0  0  0  0  0
    7.9031  -12.9977   17.5312 C   0  0  0  0  0  0  0  0  0  0  0  0
    9.1117  -14.2665   19.3520 C   0  0  2  0  0  0  0  0  0  0  0  0
    7.9307  -15.1315   19.1531 N   0  0  0  0  0  0  0  0  0  0  0  0
    9.3911  -14.2598   20.7978 C   0  0  0  0  0  0  0  0  0  0  0  0
   10.4466  -13.7272   21.2193 O   0  0  0  0  0  0  0  0  0  0  0  0
    8.5481  -14.8179   21.8083 N   0  0  0  0  0  0  0  0  0  0  0  0
    8.9663  -14.9182   23.1890 C   0  0  1  0  0  0  0  0  0  0  0  0
    7.7159  -14.6518   24.0625 C   0  0  0  0  0  0  0  0  0  0  0  0
    8.1380  -15.1153   25.7767 S   0  0  0  0  0  0  0  0  0  0  0  0
    9.5907  -16.1897   23.5582 C   0  0  0  0  0  0  0  0  0  0  0  0
    8.9121  -17.2723   23.4619 O   0  0  0  0  0  0  0  0  0  0  0  0
   15.0337  -14.6857   19.4731 N   0  0  0  0  0  0  0  0  0  0  0  0
   15.2403  -15.0037   20.8271 C   0  0  0  0  0  0  0  0  0  0  0  0
   16.1215  -14.3490   21.5046 N   0  0  0  0  0  0  0  0  0  0  0  0
   14.4644  -16.0475   21.4141 N   0  0  0  0  0  0  0  0  0  0  0  0
   13.5763  -15.7524   22.5142 C   0  0  0  0  0  0  0  0  0  0  0  0
   13.7097  -16.8326   23.5662 C   0  0  0  0  0  0  0  0  0  0  0  0
   12.6958  -17.9304   23.4267 C   0  0  0  0  0  0  0  0  0  0  0  0
   11.5081  -17.6917   24.2771 C   0  0  2  0  0  0  0  0  0  0  0  0
   10.9165  -16.3704   24.0288 N   0  0  0  0  0  0  0  0  0  0  0  0
   11.8291  -17.8503   25.7054 C   0  0  0  0  0  0  0  0  0  0  0  0
   12.3660  -18.9936   26.2389 O   0  0  0  0  0  0  0  0  0  0  0  0
   11.6021  -16.8975   26.4881 O   0  0  0  0  0  0  0  0  0  0  0  0
  2  1  1  1
  2  3  1  0
  4  2  1  0
  4  5  1  1
  6  4  1  0
  7  6  2  0
  8  6  1  0
  9  8  1  0
  9 10  1  1
 11 10  1  0
 12 22  1  0
 12  9  1  0
 13 12  2  0
 14 15  1  0
 15 16  2  0
 17 18  1  0
 17 15  1  0
 19 18  1  0
 20 19  1  0
 21 20  1  6
 21 22  1  0
 23 21  1  0
 24 23  1  0
 25 23  2  0
M  END
$$$$
