VCR.pdb
     RDKit          3D

 25 24  0  0  1  0  0  0  0  0999 V2000
    2.9589  -19.8761   21.5244 C   0  0  0  0  0  0  0  0  0  0  0  0
    3.6471  -18.5798   21.9787 C   0  0  2  0  0  0  0  0  0  0  0  0
    3.4303  -17.5846   20.8915 C   0  0  0  0  0  0  0  0  0  0  0  0
    5.0963  -18.9650   22.1971 C   0  0  2  0  0  0  0  0  0  0  0  0
    5.0386  -19.9350   23.3100 N   0  0  0  0  0  0  0  0  0  0  0  0
    5.9477  -17.8524   22.6508 C   0  0  0  0  0  0  0  0  0  0  0  0
    6.2715  -16.9526   21.8379 O   0  0  0  0  0  0  0  0  0  0  0  0
    6.4600  -17.6864   23.9749 N   0  0  0  0  0  0  0  0  0  0  0  0
    7.4108  -16.6485   24.3066 C   0  0  1  0  0  0  0  0  0  0  0  0
    7.3113  -16.4129   25.8337 C   0  0  0  0  0  0  0  0  0  0  0  0
    8.5206  -15.1160   26.2664 S   0  0  0  0  0  0  0  0  0  0  0  0
    8.7944  -16.9262   23.9177 C   0  0  0  0  0  0  0  0  0  0  0  0
    9.3667  -17.9870   24.3527 O   0  0  0  0  0  0  0  0  0  0  0  0
    7.7846  -12.8668   20.6475 N   0  0  0  0  0  0  0  0  0  0  0  0
    8.0705  -13.2585   19.3277 C   0  0  0  0  0  0  0  0  0  0  0  0
    7.2192  -13.0039   18.3925 N   0  0  0  0  0  0  0  0  0  0  0  0
    9.3009  -13.9302   19.0613 N   0  0  0  0  0  0  0  0  0  0  0  0
   10.3094  -14.0202   20.0914 C   0  0  0  0  0  0  0  0  0  0  0  0
   10.4314  -15.4592   20.5452 C   0  0  0  0  0  0  0  0  0  0  0  0
   11.4896  -15.6685   21.5886 C   0  0  0  0  0  0  0  0  0  0  0  0
   10.9898  -16.4783   22.7223 C   0  0  2  0  0  0  0  0  0  0  0  0
    9.6095  -16.1241   23.0786 N   0  0  0  0  0  0  0  0  0  0  0  0
   11.8698  -16.3595   23.8969 C   0  0  0  0  0  0  0  0  0  0  0  0
   13.2109  -16.6439   23.8708 O   0  0  0  0  0  0  0  0  0  0  0  0
   11.3795  -15.9813   24.9871 O   0  0  0  0  0  0  0  0  0  0  0  0
  2  1  1  6
  2  3  1  0
  4  2  1  0
  4  5  1  1
  6  4  1  0
  7  6  2  0
  8  6  1  0
  9  8  1  0
  9 10  1  1
 11 10  1  0
 12 22  1  0
 12  9  1  0
 13 12  2  0
 14 15  1  0
 15 16  2  0
 17 18  1  0
 17 15  1  0
 19 18  1  0
 20 19  1  0
 21 20  1  6
 21 22  1  0
 23 21  1  0
 24 23  1  0
 25 23  2  0
M  END
$$$$
