VCR.pdb
     RDKit          3D

 25 24  0  0  1  0  0  0  0  0999 V2000
    7.8970  -21.6153   18.4586 C   0  0  0  0  0  0  0  0  0  0  0  0
    8.6696  -20.9423   19.6034 C   0  0  2  0  0  0  0  0  0  0  0  0
    8.8975  -21.9943   20.6333 C   0  0  0  0  0  0  0  0  0  0  0  0
    7.7788  -19.8030   20.0564 C   0  0  2  0  0  0  0  0  0  0  0  0
    7.7027  -18.9236   18.8717 N   0  0  0  0  0  0  0  0  0  0  0  0
    8.3516  -18.9947   21.1459 C   0  0  0  0  0  0  0  0  0  0  0  0
    9.4745  -18.4562   20.9894 O   0  0  0  0  0  0  0  0  0  0  0  0
    7.7328  -18.7502   22.4111 N   0  0  0  0  0  0  0  0  0  0  0  0
    8.4080  -18.0355   23.4715 C   0  0  1  0  0  0  0  0  0  0  0  0
    7.3291  -17.2259   24.2318 C   0  0  0  0  0  0  0  0  0  0  0  0
    8.1783  -16.2783   25.5405 S   0  0  0  0  0  0  0  0  0  0  0  0
    9.1707  -18.8737   24.3981 C   0  0  0  0  0  0  0  0  0  0  0  0
    8.6101  -19.9010   24.9200 O   0  0  0  0  0  0  0  0  0  0  0  0
   15.5333  -19.5835   21.5652 N   0  0  0  0  0  0  0  0  0  0  0  0
   15.4167  -20.9628   21.8119 C   0  0  0  0  0  0  0  0  0  0  0  0
   15.6002  -21.7973   20.8453 N   0  0  0  0  0  0  0  0  0  0  0  0
   15.0964  -21.4004   23.1317 N   0  0  0  0  0  0  0  0  0  0  0  0
   14.7239  -20.4350   24.1394 C   0  0  0  0  0  0  0  0  0  0  0  0
   13.2451  -20.5672   24.4340 C   0  0  0  0  0  0  0  0  0  0  0  0
   12.7295  -19.5242   25.3820 C   0  0  0  0  0  0  0  0  0  0  0  0
   11.2705  -19.6508   25.5965 C   0  0  2  0  0  0  0  0  0  0  0  0
   10.5157  -18.6733   24.8014 N   0  0  0  0  0  0  0  0  0  0  0  0
   10.9244  -19.5293   27.0226 C   0  0  0  0  0  0  0  0  0  0  0  0
   11.2325  -20.4807   27.9607 O   0  0  0  0  0  0  0  0  0  0  0  0
   10.3127  -18.5073   27.4141 O   0  0  0  0  0  0  0  0  0  0  0  0
  2  1  1  6
  2  3  1  0
  4  2  1  0
  4  5  1  6
  6  4  1  0
  7  6  2  0
  8  6  1  0
  9  8  1  0
  9 10  1  1
 11 10  1  0
 12 22  1  0
 12  9  1  0
 13 12  2  0
 14 15  1  0
 15 16  2  0
 17 18  1  0
 17 15  1  0
 19 18  1  0
 20 19  1  0
 21 20  1  1
 21 22  1  0
 23 21  1  0
 24 23  1  0
 25 23  2  0
M  END
$$$$
