VCR.pdb
     RDKit          3D

 25 24  0  0  1  0  0  0  0  0999 V2000
    5.8913  -20.9855   22.1253 C   0  0  0  0  0  0  0  0  0  0  0  0
    4.8959  -20.8213   23.2840 C   0  0  2  0  0  0  0  0  0  0  0  0
    3.8616  -21.8782   23.1036 C   0  0  0  0  0  0  0  0  0  0  0  0
    4.3752  -19.4044   23.1513 C   0  0  2  0  0  0  0  0  0  0  0  0
    3.7643  -19.3787   21.8064 N   0  0  0  0  0  0  0  0  0  0  0  0
    5.4310  -18.3778   23.1549 C   0  0  0  0  0  0  0  0  0  0  0  0
    6.0493  -18.1256   22.0921 O   0  0  0  0  0  0  0  0  0  0  0  0
    5.8364  -17.6087   24.2895 N   0  0  0  0  0  0  0  0  0  0  0  0
    6.9728  -16.7154   24.2461 C   0  0  1  0  0  0  0  0  0  0  0  0
    6.9584  -15.8983   25.5612 C   0  0  0  0  0  0  0  0  0  0  0  0
    8.4020  -14.7819   25.5268 S   0  0  0  0  0  0  0  0  0  0  0  0
    8.2696  -17.3685   24.0601 C   0  0  0  0  0  0  0  0  0  0  0  0
    8.5590  -18.3989   24.7645 O   0  0  0  0  0  0  0  0  0  0  0  0
   14.2163  -20.6504   19.6168 N   0  0  0  0  0  0  0  0  0  0  0  0
   14.9616  -19.4857   19.8716 C   0  0  0  0  0  0  0  0  0  0  0  0
   16.2445  -19.5654   19.9808 N   0  0  0  0  0  0  0  0  0  0  0  0
   14.2720  -18.2434   20.0030 N   0  0  0  0  0  0  0  0  0  0  0  0
   12.8313  -18.2064   19.9071 C   0  0  0  0  0  0  0  0  0  0  0  0
   12.2346  -18.4162   21.2824 C   0  0  0  0  0  0  0  0  0  0  0  0
   11.0605  -17.5255   21.5660 C   0  0  0  0  0  0  0  0  0  0  0  0
   10.5005  -17.7685   22.9145 C   0  0  2  0  0  0  0  0  0  0  0  0
    9.2857  -16.9773   23.1510 N   0  0  0  0  0  0  0  0  0  0  0  0
   11.4974  -17.5053   23.9658 C   0  0  0  0  0  0  0  0  0  0  0  0
   12.5218  -18.3641   24.2707 O   0  0  0  0  0  0  0  0  0  0  0  0
   11.4158  -16.4436   24.6277 O   0  0  0  0  0  0  0  0  0  0  0  0
  2  1  1  6
  2  3  1  0
  4  2  1  0
  4  5  1  6
  6  4  1  0
  7  6  2  0
  8  6  1  0
  9  8  1  0
  9 10  1  1
 11 10  1  0
 12 22  1  0
 12  9  1  0
 13 12  2  0
 14 15  1  0
 15 16  2  0
 17 18  1  0
 17 15  1  0
 19 18  1  0
 20 19  1  0
 21 20  1  6
 21 22  1  0
 23 21  1  0
 24 23  1  0
 25 23  2  0
M  END
$$$$
