VCR.pdb
     RDKit          3D

 25 24  0  0  1  0  0  0  0  0999 V2000
    7.4648  -15.8093   20.8379 C   0  0  0  0  0  0  0  0  0  0  0  0
    6.8328  -14.4357   20.5655 C   0  0  2  0  0  0  0  0  0  0  0  0
    6.5893  -14.3679   19.0973 C   0  0  0  0  0  0  0  0  0  0  0  0
    7.8453  -13.4329   21.0807 C   0  0  2  0  0  0  0  0  0  0  0  0
    9.0885  -13.7898   20.3667 N   0  0  0  0  0  0  0  0  0  0  0  0
    8.1333  -13.5610   22.5192 C   0  0  0  0  0  0  0  0  0  0  0  0
    9.0842  -14.2889   22.8952 O   0  0  0  0  0  0  0  0  0  0  0  0
    7.4130  -12.9132   23.5703 N   0  0  0  0  0  0  0  0  0  0  0  0
    7.7281  -13.1301   24.9649 C   0  0  1  0  0  0  0  0  0  0  0  0
    6.8912  -12.1158   25.7824 C   0  0  0  0  0  0  0  0  0  0  0  0
    7.2836  -12.3789   27.5455 S   0  0  0  0  0  0  0  0  0  0  0  0
    7.5008  -14.4930   25.4485 C   0  0  0  0  0  0  0  0  0  0  0  0
    6.3430  -15.0233   25.3065 O   0  0  0  0  0  0  0  0  0  0  0  0
    5.1089  -21.3713   22.9821 N   0  0  0  0  0  0  0  0  0  0  0  0
    5.6753  -21.7823   24.2017 C   0  0  0  0  0  0  0  0  0  0  0  0
    5.2379  -22.8519   24.7751 N   0  0  0  0  0  0  0  0  0  0  0  0
    6.7230  -20.9989   24.7716 N   0  0  0  0  0  0  0  0  0  0  0  0
    6.7408  -19.5683   24.5739 C   0  0  0  0  0  0  0  0  0  0  0  0
    7.9551  -18.9847   25.2641 C   0  0  0  0  0  0  0  0  0  0  0  0
    8.1224  -17.5112   25.0335 C   0  0  0  0  0  0  0  0  0  0  0  0
    8.2386  -16.7662   26.3073 C   0  0  2  0  0  0  0  0  0  0  0  0
    8.4542  -15.3309   26.0816 N   0  0  0  0  0  0  0  0  0  0  0  0
    9.3067  -17.3184   27.1573 C   0  0  0  0  0  0  0  0  0  0  0  0
    9.1886  -18.4925   27.8555 O   0  0  0  0  0  0  0  0  0  0  0  0
   10.3870  -16.6904   27.2597 O   0  0  0  0  0  0  0  0  0  0  0  0
  2  1  1  6
  2  3  1  0
  4  2  1  0
  4  5  1  6
  6  4  1  0
  7  6  2  0
  8  6  1  0
  9  8  1  0
  9 10  1  1
 11 10  1  0
 12 22  1  0
 12  9  1  0
 13 12  2  0
 14 15  1  0
 15 16  2  0
 17 18  1  0
 17 15  1  0
 19 18  1  0
 20 19  1  0
 21 20  1  6
 21 22  1  0
 23 21  1  0
 24 23  1  0
 25 23  2  0
M  END
$$$$
