VCR.pdb
     RDKit          3D

 25 24  0  0  1  0  0  0  0  0999 V2000
    6.9248  -14.9929   19.2965 C   0  0  0  0  0  0  0  0  0  0  0  0
    7.6881  -15.1091   20.6248 C   0  0  2  0  0  0  0  0  0  0  0  0
    7.0681  -16.2410   21.3691 C   0  0  0  0  0  0  0  0  0  0  0  0
    7.5228  -13.7566   21.2878 C   0  0  2  0  0  0  0  0  0  0  0  0
    8.2542  -12.8351   20.3942 N   0  0  0  0  0  0  0  0  0  0  0  0
    8.1625  -13.6582   22.6105 C   0  0  0  0  0  0  0  0  0  0  0  0
    9.4151  -13.6576   22.6911 O   0  0  0  0  0  0  0  0  0  0  0  0
    7.4745  -13.5570   23.8594 N   0  0  0  0  0  0  0  0  0  0  0  0
    8.1653  -13.6448   25.1268 C   0  0  1  0  0  0  0  0  0  0  0  0
    7.4115  -12.7260   26.1193 C   0  0  0  0  0  0  0  0  0  0  0  0
    5.6320  -13.1039   25.9700 S   0  0  0  0  0  0  0  0  0  0  0  0
    8.2927  -14.9971   25.6725 C   0  0  0  0  0  0  0  0  0  0  0  0
    7.2423  -15.7175   25.8132 O   0  0  0  0  0  0  0  0  0  0  0  0
   11.3872  -20.4291   21.7245 N   0  0  0  0  0  0  0  0  0  0  0  0
   11.2915  -19.0879   21.3130 C   0  0  0  0  0  0  0  0  0  0  0  0
   11.0672  -18.8204   20.0711 N   0  0  0  0  0  0  0  0  0  0  0  0
   11.4467  -18.0572   22.2875 N   0  0  0  0  0  0  0  0  0  0  0  0
   11.5252  -18.3978   23.6890 C   0  0  0  0  0  0  0  0  0  0  0  0
   10.4405  -17.6589   24.4432 C   0  0  0  0  0  0  0  0  0  0  0  0
   10.5160  -17.8432   25.9307 C   0  0  0  0  0  0  0  0  0  0  0  0
    9.5388  -16.9872   26.6400 C   0  0  2  0  0  0  0  0  0  0  0  0
    9.4949  -15.6302   26.0795 N   0  0  0  0  0  0  0  0  0  0  0  0
    9.8175  -16.9370   28.0850 C   0  0  0  0  0  0  0  0  0  0  0  0
   10.0391  -15.7724   28.7738 O   0  0  0  0  0  0  0  0  0  0  0  0
    9.8600  -18.0096   28.7328 O   0  0  0  0  0  0  0  0  0  0  0  0
  2  1  1  6
  2  3  1  0
  4  2  1  0
  4  5  1  6
  6  4  1  0
  7  6  2  0
  8  6  1  0
  9  8  1  0
  9 10  1  1
 11 10  1  0
 12 22  1  0
 12  9  1  0
 13 12  2  0
 14 15  1  0
 15 16  2  0
 17 18  1  0
 17 15  1  0
 19 18  1  0
 20 19  1  0
 21 20  1  6
 21 22  1  0
 23 21  1  0
 24 23  1  0
 25 23  2  0
M  END
$$$$
