VCR.pdb
     RDKit          3D

 25 24  0  0  1  0  0  0  0  0999 V2000
    2.0588  -19.5160   22.0431 C   0  0  0  0  0  0  0  0  0  0  0  0
    3.3180  -18.8324   21.4886 C   0  0  2  0  0  0  0  0  0  0  0  0
    3.4643  -19.2974   20.0808 C   0  0  0  0  0  0  0  0  0  0  0  0
    4.4365  -19.2690   22.4132 C   0  0  2  0  0  0  0  0  0  0  0  0
    3.7326  -19.9487   23.5201 N   0  0  0  0  0  0  0  0  0  0  0  0
    5.1857  -18.1519   23.0124 C   0  0  0  0  0  0  0  0  0  0  0  0
    4.6673  -17.0093   23.0455 O   0  0  0  0  0  0  0  0  0  0  0  0
    6.4928  -18.2416   23.5841 N   0  0  0  0  0  0  0  0  0  0  0  0
    7.2470  -17.0682   23.9656 C   0  0  1  0  0  0  0  0  0  0  0  0
    7.2713  -17.0276   25.5132 C   0  0  0  0  0  0  0  0  0  0  0  0
    8.1731  -15.5192   26.0062 S   0  0  0  0  0  0  0  0  0  0  0  0
    8.6067  -17.0016   23.4275 C   0  0  0  0  0  0  0  0  0  0  0  0
    9.4052  -17.9853   23.6189 O   0  0  0  0  0  0  0  0  0  0  0  0
    8.2985  -13.5601   16.4897 N   0  0  0  0  0  0  0  0  0  0  0  0
    8.6977  -13.2319   17.7974 C   0  0  0  0  0  0  0  0  0  0  0  0
    7.8021  -12.9425   18.6796 N   0  0  0  0  0  0  0  0  0  0  0  0
   10.0898  -13.2287   18.1107 N   0  0  0  0  0  0  0  0  0  0  0  0
   10.5169  -13.1892   19.4900 C   0  0  0  0  0  0  0  0  0  0  0  0
   10.2862  -14.5450   20.1223 C   0  0  0  0  0  0  0  0  0  0  0  0
   10.8872  -14.6753   21.4914 C   0  0  0  0  0  0  0  0  0  0  0  0
   10.5253  -15.9609   22.1294 C   0  0  2  0  0  0  0  0  0  0  0  0
    9.1665  -15.9297   22.6862 N   0  0  0  0  0  0  0  0  0  0  0  0
   11.4976  -16.3374   23.1692 C   0  0  0  0  0  0  0  0  0  0  0  0
   12.4391  -17.3207   23.0057 O   0  0  0  0  0  0  0  0  0  0  0  0
   11.4733  -15.7366   24.2694 O   0  0  0  0  0  0  0  0  0  0  0  0
  2  1  1  1
  2  3  1  0
  4  2  1  0
  4  5  1  1
  6  4  1  0
  7  6  2  0
  8  6  1  0
  9  8  1  0
  9 10  1  1
 11 10  1  0
 12 22  1  0
 12  9  1  0
 13 12  2  0
 14 15  1  0
 15 16  2  0
 17 18  1  0
 17 15  1  0
 19 18  1  0
 20 19  1  0
 21 20  1  1
 21 22  1  0
 23 21  1  0
 24 23  1  0
 25 23  2  0
M  END
$$$$
