VCR.pdb
     RDKit          3D

 25 24  0  0  1  0  0  0  0  0999 V2000
    7.6361  -12.0279   20.9238 C   0  0  0  0  0  0  0  0  0  0  0  0
    8.1077  -13.2778   20.1651 C   0  0  2  0  0  0  0  0  0  0  0  0
    7.2626  -13.3718   18.9418 C   0  0  0  0  0  0  0  0  0  0  0  0
    7.9235  -14.4195   21.1444 C   0  0  2  0  0  0  0  0  0  0  0  0
    6.4578  -14.5125   21.3045 N   0  0  0  0  0  0  0  0  0  0  0  0
    8.4781  -14.1534   22.4823 C   0  0  0  0  0  0  0  0  0  0  0  0
    9.7229  -14.1456   22.6434 O   0  0  0  0  0  0  0  0  0  0  0  0
    7.7125  -13.8907   23.6605 N   0  0  0  0  0  0  0  0  0  0  0  0
    8.3289  -13.7410   24.9601 C   0  0  1  0  0  0  0  0  0  0  0  0
    7.3831  -12.8597   25.8122 C   0  0  0  0  0  0  0  0  0  0  0  0
    5.7610  -13.6947   25.8684 S   0  0  0  0  0  0  0  0  0  0  0  0
    8.6283  -14.9947   25.6538 C   0  0  0  0  0  0  0  0  0  0  0  0
    7.8251  -15.9857   25.5317 O   0  0  0  0  0  0  0  0  0  0  0  0
   12.6903  -21.3440   23.5380 N   0  0  0  0  0  0  0  0  0  0  0  0
   12.8311  -21.5999   24.9134 C   0  0  0  0  0  0  0  0  0  0  0  0
   13.2354  -22.7610   25.3040 N   0  0  0  0  0  0  0  0  0  0  0  0
   12.5200  -20.5613   25.8412 N   0  0  0  0  0  0  0  0  0  0  0  0
   12.0223  -19.2931   25.3615 C   0  0  0  0  0  0  0  0  0  0  0  0
   11.9662  -18.3118   26.5127 C   0  0  0  0  0  0  0  0  0  0  0  0
   11.4649  -16.9540   26.1159 C   0  0  0  0  0  0  0  0  0  0  0  0
   10.2088  -16.6063   26.8175 C   0  0  2  0  0  0  0  0  0  0  0  0
    9.7527  -15.2516   26.4794 N   0  0  0  0  0  0  0  0  0  0  0  0
   10.3499  -16.7514   28.2760 C   0  0  0  0  0  0  0  0  0  0  0  0
   10.5074  -17.9593   28.9055 O   0  0  0  0  0  0  0  0  0  0  0  0
   10.3240  -15.7238   28.9938 O   0  0  0  0  0  0  0  0  0  0  0  0
  2  1  1  1
  2  3  1  0
  4  2  1  0
  4  5  1  1
  6  4  1  0
  7  6  2  0
  8  6  1  0
  9  8  1  0
  9 10  1  1
 11 10  1  0
 12 22  1  0
 12  9  1  0
 13 12  2  0
 14 15  1  0
 15 16  2  0
 17 18  1  0
 17 15  1  0
 19 18  1  0
 20 19  1  0
 21 20  1  6
 21 22  1  0
 23 21  1  0
 24 23  1  0
 25 23  2  0
M  END
$$$$
