VCR.pdb
     RDKit          3D

 25 24  0  0  1  0  0  0  0  0999 V2000
    7.3546  -12.2581   21.0117 C   0  0  0  0  0  0  0  0  0  0  0  0
    8.2887  -13.2904   20.3619 C   0  0  2  0  0  0  0  0  0  0  0  0
    7.8431  -13.4299   18.9471 C   0  0  0  0  0  0  0  0  0  0  0  0
    8.1248  -14.5436   21.1980 C   0  0  2  0  0  0  0  0  0  0  0  0
    6.7144  -14.9275   20.9834 N   0  0  0  0  0  0  0  0  0  0  0  0
    8.2862  -14.3211   22.6447 C   0  0  0  0  0  0  0  0  0  0  0  0
    9.4213  -14.4479   23.1651 O   0  0  0  0  0  0  0  0  0  0  0  0
    7.2409  -13.9592   23.5500 N   0  0  0  0  0  0  0  0  0  0  0  0
    7.4179  -14.0014   24.9847 C   0  0  1  0  0  0  0  0  0  0  0  0
    6.3790  -13.0315   25.5990 C   0  0  0  0  0  0  0  0  0  0  0  0
    7.2806  -11.5442   26.1527 S   0  0  0  0  0  0  0  0  0  0  0  0
    7.2998  -15.3307   25.5863 C   0  0  0  0  0  0  0  0  0  0  0  0
    6.1472  -15.8862   25.6572 O   0  0  0  0  0  0  0  0  0  0  0  0
    7.9116  -23.0939   23.7840 N   0  0  0  0  0  0  0  0  0  0  0  0
    6.6041  -22.8339   24.2312 C   0  0  0  0  0  0  0  0  0  0  0  0
    5.7984  -23.8193   24.4411 N   0  0  0  0  0  0  0  0  0  0  0  0
    6.2055  -21.4798   24.4400 N   0  0  0  0  0  0  0  0  0  0  0  0
    7.1416  -20.4079   24.1931 C   0  0  0  0  0  0  0  0  0  0  0  0
    7.2394  -19.5373   25.4275 C   0  0  0  0  0  0  0  0  0  0  0  0
    8.2011  -18.3949   25.2778 C   0  0  0  0  0  0  0  0  0  0  0  0
    8.2130  -17.5268   26.4766 C   0  0  2  0  0  0  0  0  0  0  0  0
    8.3580  -16.1089   26.1215 N   0  0  0  0  0  0  0  0  0  0  0  0
    9.2678  -17.9298   27.4216 C   0  0  0  0  0  0  0  0  0  0  0  0
    9.1522  -18.9954   28.2767 O   0  0  0  0  0  0  0  0  0  0  0  0
   10.3336  -17.2706   27.4592 O   0  0  0  0  0  0  0  0  0  0  0  0
  2  1  1  1
  2  3  1  0
  4  2  1  0
  4  5  1  1
  6  4  1  0
  7  6  2  0
  8  6  1  0
  9  8  1  0
  9 10  1  1
 11 10  1  0
 12 22  1  0
 12  9  1  0
 13 12  2  0
 14 15  1  0
 15 16  2  0
 17 18  1  0
 17 15  1  0
 19 18  1  0
 20 19  1  0
 21 20  1  6
 21 22  1  0
 23 21  1  0
 24 23  1  0
 25 23  2  0
M  END
$$$$
