RVV.pdb
     RDKit          3D

 26 25  0  0  1  0  0  0  0  0999 V2000
    9.3465  -13.2373   19.9328 N   0  0  0  0  0  0  0  0  0  0  0  0
    8.6828  -13.2763   18.6791 C   0  0  0  0  0  0  0  0  0  0  0  0
    9.3616  -13.1349   17.6102 N   0  0  0  0  0  0  0  0  0  0  0  0
    7.2854  -13.4698   18.6211 N   0  0  0  0  0  0  0  0  0  0  0  0
    6.5855  -14.3450   19.5295 C   0  0  0  0  0  0  0  0  0  0  0  0
    6.9024  -15.7758   19.1732 C   0  0  0  0  0  0  0  0  0  0  0  0
    7.8057  -16.4362   20.1833 C   0  0  0  0  0  0  0  0  0  0  0  0
    7.2005  -17.6812   20.7688 C   0  0  2  0  0  0  0  0  0  0  0  0
    6.0982  -18.1136   19.9469 N   0  0  0  0  0  0  0  0  0  0  0  0
    6.7944  -17.4868   22.1867 C   0  0  0  0  0  0  0  0  0  0  0  0
    5.5746  -17.1974   22.3846 O   0  0  0  0  0  0  0  0  0  0  0  0
    8.9372  -13.0950   16.6590 C   0  0  0  0  0  0  0  0  0  0  0  0
    7.6917  -18.4127   26.9471 C   0  0  2  0  0  0  0  0  0  0  0  0
    7.7116  -18.5906   25.4666 C   0  0  0  0  0  0  0  0  0  0  0  0
    7.0082  -19.8487   25.0111 C   0  0  1  0  0  0  0  0  0  0  0  0
    7.2488  -17.3826   24.6738 N   0  0  0  0  0  0  0  0  0  0  0  0
    7.6864  -17.6088   23.2743 C   0  0  0  0  0  0  0  0  0  0  0  0
    7.8611  -16.1165   25.1271 O   0  0  0  0  0  0  0  0  0  0  0  0
    9.0642  -15.8458   24.7835 C   0  0  0  0  0  0  0  0  0  0  0  0
    5.9205  -12.5976   25.7222 C   0  0  1  0  0  0  0  0  0  0  0  0
    6.9150  -12.8682   26.8293 C   0  0  0  0  0  0  0  0  0  0  0  0
    7.5420  -11.6062   27.3163 C   0  0  2  0  0  0  0  0  0  0  0  0
    7.8928  -13.8996   26.3282 N   0  0  0  0  0  0  0  0  0  0  0  0
    7.2446  -15.1280   25.9279 C   0  0  0  0  0  0  0  0  0  0  0  0
    8.9047  -14.2088   27.3525 O   0  0  0  0  0  0  0  0  0  0  0  0
    8.6474  -15.0311   28.2560 O   0  0  0  0  0  0  0  0  0  0  0  0
  2  1  1  0
  2  3  2  0
  4  2  1  0
  5  4  1  0
  6  5  1  0
  7  6  1  0
  7  8  1  0
  8  9  1  6
 10  8  1  0
 10 16  1  0
 11 10  2  0
 13 15  1  0
 13 12  1  1
 14 13  1  0
 15 16  1  6
 17 15  1  0
 18 17  2  0
 20 19  1  1
 20 22  1  0
 21 20  1  0
 22 23  1  6
 22 24  1  0
 23 17  1  0
 24 26  1  0
 25 24  2  0
M  END
$$$$
