RVV.pdb
     RDKit          3D

 26 25  0  0  1  0  0  0  0  0999 V2000
   13.6509  -13.4045   18.9823 N   0  0  0  0  0  0  0  0  0  0  0  0
   13.9791  -14.6614   19.5533 C   0  0  0  0  0  0  0  0  0  0  0  0
   15.0454  -15.2537   19.1851 N   0  0  0  0  0  0  0  0  0  0  0  0
   13.1307  -15.2462   20.5187 N   0  0  0  0  0  0  0  0  0  0  0  0
   11.7438  -14.8748   20.6588 C   0  0  0  0  0  0  0  0  0  0  0  0
   11.1913  -14.5225   19.3004 C   0  0  0  0  0  0  0  0  0  0  0  0
    9.7591  -14.0562   19.3625 C   0  0  0  0  0  0  0  0  0  0  0  0
    8.7807  -15.1965   19.3211 C   0  0  2  0  0  0  0  0  0  0  0  0
    7.9094  -15.0427   18.1832 N   0  0  0  0  0  0  0  0  0  0  0  0
    8.0184  -15.3199   20.5926 C   0  0  0  0  0  0  0  0  0  0  0  0
    6.9295  -14.6711   20.6573 O   0  0  0  0  0  0  0  0  0  0  0  0
   15.3313  -16.1943   19.5314 C   0  0  0  0  0  0  0  0  0  0  0  0
    7.0858  -18.1462   24.5410 C   0  0  1  0  0  0  0  0  0  0  0  0
    7.6457  -17.7767   23.2090 C   0  0  0  0  0  0  0  0  0  0  0  0
    7.0691  -18.5946   22.0760 C   0  0  1  0  0  0  0  0  0  0  0  0
    7.6093  -16.2934   22.8922 N   0  0  0  0  0  0  0  0  0  0  0  0
    8.4503  -16.1035   21.6848 C   0  0  0  0  0  0  0  0  0  0  0  0
    8.1818  -15.4526   23.9640 O   0  0  0  0  0  0  0  0  0  0  0  0
    9.4507  -15.4312   24.1310 C   0  0  0  0  0  0  0  0  0  0  0  0
    6.6391  -11.9384   25.2895 C   0  0  1  0  0  0  0  0  0  0  0  0
    7.1389  -12.7818   26.4414 C   0  0  0  0  0  0  0  0  0  0  0  0
    7.7232  -11.9352   27.5207 C   0  0  2  0  0  0  0  0  0  0  0  0
    8.0794  -13.8169   25.8803 N   0  0  0  0  0  0  0  0  0  0  0  0
    7.4593  -14.6337   24.8616 C   0  0  0  0  0  0  0  0  0  0  0  0
    8.5935  -14.6951   26.9449 O   0  0  0  0  0  0  0  0  0  0  0  0
    7.9262  -15.6829   27.3158 O   0  0  0  0  0  0  0  0  0  0  0  0
  2  1  1  0
  2  3  2  0
  4  2  1  0
  5  4  1  0
  6  5  1  0
  7  6  1  0
  7  8  1  0
  8  9  1  6
 10  8  1  0
 10 16  1  0
 11 10  2  0
 13 15  1  0
 13 12  1  1
 14 13  1  0
 15 16  1  1
 17 15  1  0
 18 17  2  0
 20 19  1  1
 20 22  1  0
 21 20  1  0
 22 23  1  6
 22 24  1  0
 23 17  1  0
 24 26  1  0
 25 24  2  0
M  END
$$$$
