AGQ.pdb
     RDKit          3D

 19 18  0  0  1  0  0  0  0  0999 V2000
   15.6773  -13.4580  -16.0096 C   0  0  0  0  0  0  0  0  0  0  0  0
   17.0646  -13.6429  -16.5846 C   0  0  2  0  0  0  0  0  0  0  0  0
   17.9931  -13.9460  -15.5146 N   0  0  0  0  0  0  0  0  0  0  0  0
   17.4846  -12.3805  -17.2879 C   0  0  0  0  0  0  0  0  0  0  0  0
   17.5821  -12.4396  -18.5407 O   0  0  0  0  0  0  0  0  0  0  0  0
   17.7397  -11.2303  -16.5287 N   0  0  0  0  0  0  0  0  0  0  0  0
   18.2564  -10.0539  -17.1576 C   0  0  0  0  0  0  0  0  0  0  0  0
   18.3770   -8.9162  -16.1974 C   0  0  0  0  0  0  0  0  0  0  0  0
   17.7526   -8.9863  -15.1246 O   0  0  0  0  0  0  0  0  0  0  0  0
   23.4072   -5.4114  -14.8826 N   0  0  0  0  0  0  0  0  0  0  0  0
   22.4069   -4.8063  -14.0760 C   0  0  0  0  0  0  0  0  0  0  0  0
   22.7888   -3.9030  -13.2733 O   0  0  0  0  0  0  0  0  0  0  0  0
   21.0105   -5.2596  -14.2283 C   0  0  0  0  0  0  0  0  0  0  0  0
   20.7614   -6.2977  -15.2487 C   0  0  0  0  0  0  0  0  0  0  0  0
   19.3526   -6.6966  -15.5170 C   0  0  2  0  0  0  0  0  0  0  0  0
   19.1672   -7.7746  -16.4616 N   0  0  0  0  0  0  0  0  0  0  0  0
   18.4948   -5.5324  -15.8587 C   0  0  0  0  0  0  0  0  0  0  0  0
   18.2354   -5.2846  -17.0522 O   0  0  0  0  0  0  0  0  0  0  0  0
   17.9845   -4.7257  -14.8679 O   0  0  0  0  0  0  0  0  0  0  0  0
  2  1  1  1
  2  3  1  0
  4  2  1  0
  4  5  2  0
  6  4  1  0
  7  8  1  0
  7  6  1  0
  8 16  1  0
  9  8  2  0
 10 11  1  0
 11 13  1  0
 12 11  2  0
 13 14  1  0
 15 14  1  6
 15 17  1  0
 16 15  1  0
 17 18  2  0
 17 19  1  0
M  END
$$$$
