AGQ.pdb
     RDKit          3D

 19 18  0  0  1  0  0  0  0  0999 V2000
   23.7992  -34.3548   -8.1285 C   0  0  0  0  0  0  0  0  0  0  0  0
   24.4317  -33.0573   -8.5818 C   0  0  2  0  0  0  0  0  0  0  0  0
   24.4299  -33.0002  -10.0294 N   0  0  0  0  0  0  0  0  0  0  0  0
   25.8436  -32.9846   -8.0661 C   0  0  0  0  0  0  0  0  0  0  0  0
   26.7376  -33.4786   -8.8005 O   0  0  0  0  0  0  0  0  0  0  0  0
   26.0848  -32.3842   -6.8227 N   0  0  0  0  0  0  0  0  0  0  0  0
   27.4225  -32.2626   -6.3306 C   0  0  0  0  0  0  0  0  0  0  0  0
   27.8220  -33.4423   -5.5061 C   0  0  0  0  0  0  0  0  0  0  0  0
   26.9919  -34.3541   -5.3471 O   0  0  0  0  0  0  0  0  0  0  0  0
   33.8964  -35.4866   -5.9712 N   0  0  0  0  0  0  0  0  0  0  0  0
   33.1760  -35.2917   -4.7628 C   0  0  0  0  0  0  0  0  0  0  0  0
   33.6556  -35.8264   -3.7187 O   0  0  0  0  0  0  0  0  0  0  0  0
   31.9389  -34.4876   -4.8028 C   0  0  0  0  0  0  0  0  0  0  0  0
   30.9438  -34.7548   -3.7447 C   0  0  0  0  0  0  0  0  0  0  0  0
   29.5007  -34.6903   -4.1040 C   0  0  2  0  0  0  0  0  0  0  0  0
   29.0966  -33.5583   -4.9065 N   0  0  0  0  0  0  0  0  0  0  0  0
   28.6192  -34.8471   -2.9180 C   0  0  0  0  0  0  0  0  0  0  0  0
   28.1619  -33.8368   -2.3496 O   0  0  0  0  0  0  0  0  0  0  0  0
   28.3040  -36.0990   -2.4424 O   0  0  0  0  0  0  0  0  0  0  0  0
  2  1  1  6
  2  3  1  0
  4  2  1  0
  4  5  2  0
  6  4  1  0
  7  8  1  0
  7  6  1  0
  8 16  1  0
  9  8  2  0
 10 11  1  0
 11 13  1  0
 12 11  2  0
 13 14  1  0
 15 14  1  1
 15 17  1  0
 16 15  1  0
 17 18  2  0
 17 19  1  0
M  END
$$$$
