AGQ.pdb
     RDKit          3D

 19 18  0  0  1  0  0  0  0  0999 V2000
   27.6741  -19.1039  -18.6207 C   0  0  0  0  0  0  0  0  0  0  0  0
   26.8485  -19.1410  -17.3534 C   0  0  2  0  0  0  0  0  0  0  0  0
   27.5688  -18.4721  -16.2893 N   0  0  0  0  0  0  0  0  0  0  0  0
   26.5829  -20.5729  -16.9738 C   0  0  0  0  0  0  0  0  0  0  0  0
   25.8973  -21.2517  -17.7811 O   0  0  0  0  0  0  0  0  0  0  0  0
   27.1009  -21.0654  -15.7682 N   0  0  0  0  0  0  0  0  0  0  0  0
   26.7572  -22.3804  -15.3220 C   0  0  0  0  0  0  0  0  0  0  0  0
   25.6016  -22.3632  -14.3758 C   0  0  0  0  0  0  0  0  0  0  0  0
   25.1623  -23.4525  -13.9678 O   0  0  0  0  0  0  0  0  0  0  0  0
   26.4046  -20.4622  -10.4596 N   0  0  0  0  0  0  0  0  0  0  0  0
   25.3222  -21.1830   -9.8885 C   0  0  0  0  0  0  0  0  0  0  0  0
   25.5637  -21.8306   -8.8262 O   0  0  0  0  0  0  0  0  0  0  0  0
   24.0077  -21.1260  -10.5575 C   0  0  0  0  0  0  0  0  0  0  0  0
   23.9437  -20.3673  -11.8229 C   0  0  0  0  0  0  0  0  0  0  0  0
   23.8183  -21.1303  -13.0949 C   0  0  2  0  0  0  0  0  0  0  0  0
   24.9957  -21.1659  -13.9322 N   0  0  0  0  0  0  0  0  0  0  0  0
   22.6191  -20.7283  -13.8749 C   0  0  0  0  0  0  0  0  0  0  0  0
   22.7591  -20.1689  -14.9796 O   0  0  0  0  0  0  0  0  0  0  0  0
   21.3554  -20.9688  -13.3871 O   0  0  0  0  0  0  0  0  0  0  0  0
  2  1  1  6
  2  3  1  0
  4  2  1  0
  4  5  2  0
  6  4  1  0
  7  8  1  0
  7  6  1  0
  8 16  1  0
  9  8  2  0
 10 11  1  0
 11 13  1  0
 12 11  2  0
 13 14  1  0
 15 14  1  1
 15 17  1  0
 16 15  1  0
 17 18  2  0
 17 19  1  0
M  END
$$$$
