AGQ.pdb
     RDKit          3D

 19 18  0  0  1  0  0  0  0  0999 V2000
   24.9114  -19.3210  -14.1635 C   0  0  0  0  0  0  0  0  0  0  0  0
   25.8288  -18.8974  -15.2896 C   0  0  2  0  0  0  0  0  0  0  0  0
   27.1745  -18.7332  -14.7789 N   0  0  0  0  0  0  0  0  0  0  0  0
   25.3373  -17.5993  -15.8710 C   0  0  0  0  0  0  0  0  0  0  0  0
   24.2335  -17.6341  -16.4735 O   0  0  0  0  0  0  0  0  0  0  0  0
   26.1164  -16.4446  -15.7150 N   0  0  0  0  0  0  0  0  0  0  0  0
   25.6896  -15.2064  -16.2904 C   0  0  0  0  0  0  0  0  0  0  0  0
   26.6214  -14.0873  -15.9581 C   0  0  0  0  0  0  0  0  0  0  0  0
   27.4233  -14.2510  -15.0221 O   0  0  0  0  0  0  0  0  0  0  0  0
   31.1435   -8.8921  -18.4267 N   0  0  0  0  0  0  0  0  0  0  0  0
   30.0503   -9.7837  -18.5917 C   0  0  0  0  0  0  0  0  0  0  0  0
   29.6729  -10.0117  -19.7798 O   0  0  0  0  0  0  0  0  0  0  0  0
   29.4400  -10.3795  -17.3871 C   0  0  0  0  0  0  0  0  0  0  0  0
   28.2518  -11.2299  -17.6013 C   0  0  0  0  0  0  0  0  0  0  0  0
   27.5685  -11.7976  -16.4068 C   0  0  2  0  0  0  0  0  0  0  0  0
   26.6244  -12.8617  -16.6619 N   0  0  0  0  0  0  0  0  0  0  0  0
   26.9673  -10.7430  -15.5498 C   0  0  0  0  0  0  0  0  0  0  0  0
   25.7515  -10.4871  -15.6456 O   0  0  0  0  0  0  0  0  0  0  0  0
   27.7424  -10.0469  -14.6512 O   0  0  0  0  0  0  0  0  0  0  0  0
  2  1  1  1
  2  3  1  0
  4  2  1  0
  4  5  2  0
  6  4  1  0
  7  8  1  0
  7  6  1  0
  8 16  1  0
  9  8  2  0
 10 11  1  0
 11 13  1  0
 12 11  2  0
 13 14  1  0
 15 14  1  6
 15 17  1  0
 16 15  1  0
 17 18  2  0
 17 19  1  0
M  END
$$$$
