AGQ.pdb
     RDKit          3D

 19 18  0  0  1  0  0  0  0  0999 V2000
   17.9310  -13.9021  -17.3401 C   0  0  0  0  0  0  0  0  0  0  0  0
   17.8158  -13.1672  -16.0226 C   0  0  2  0  0  0  0  0  0  0  0  0
   16.4180  -13.0335  -15.6660 N   0  0  0  0  0  0  0  0  0  0  0  0
   18.4452  -11.8066  -16.1546 C   0  0  0  0  0  0  0  0  0  0  0  0
   19.6581  -11.7136  -15.8337 O   0  0  0  0  0  0  0  0  0  0  0  0
   17.6660  -10.7374  -16.6174 N   0  0  0  0  0  0  0  0  0  0  0  0
   18.2703   -9.4669  -16.8764 C   0  0  0  0  0  0  0  0  0  0  0  0
   17.6333   -8.3747  -16.0811 C   0  0  0  0  0  0  0  0  0  0  0  0
   16.3960   -8.2617  -16.1270 O   0  0  0  0  0  0  0  0  0  0  0  0
   17.5806   -6.4481  -10.2765 N   0  0  0  0  0  0  0  0  0  0  0  0
   16.9177   -7.4958  -10.9694 C   0  0  0  0  0  0  0  0  0  0  0  0
   16.2971   -8.3454  -10.2628 O   0  0  0  0  0  0  0  0  0  0  0  0
   16.9907   -7.5215  -12.4433 C   0  0  0  0  0  0  0  0  0  0  0  0
   17.8085   -6.4705  -13.0818 C   0  0  0  0  0  0  0  0  0  0  0  0
   17.7886   -6.3687  -14.5668 C   0  0  2  0  0  0  0  0  0  0  0  0
   18.3787   -7.4744  -15.2865 N   0  0  0  0  0  0  0  0  0  0  0  0
   18.3259   -5.0695  -15.0478 C   0  0  0  0  0  0  0  0  0  0  0  0
   19.3428   -5.0496  -15.7680 O   0  0  0  0  0  0  0  0  0  0  0  0
   17.7097   -3.8884  -14.7045 O   0  0  0  0  0  0  0  0  0  0  0  0
  2  1  1  6
  2  3  1  0
  4  2  1  0
  4  5  2  0
  6  4  1  0
  7  8  1  0
  7  6  1  0
  8 16  1  0
  9  8  2  0
 10 11  1  0
 11 13  1  0
 12 11  2  0
 13 14  1  0
 15 14  1  1
 15 17  1  0
 16 15  1  0
 17 18  2  0
 17 19  1  0
M  END
$$$$
