AGQ.pdb
     RDKit          3D

 19 18  0  0  1  0  0  0  0  0999 V2000
   13.7201  -13.4345  -16.2914 C   0  0  0  0  0  0  0  0  0  0  0  0
   15.0658  -13.9706  -15.8548 C   0  0  2  0  0  0  0  0  0  0  0  0
   15.1816  -13.8669  -14.4144 N   0  0  0  0  0  0  0  0  0  0  0  0
   16.1578  -13.1747  -16.5172 C   0  0  0  0  0  0  0  0  0  0  0  0
   16.1937  -13.2054  -17.7743 O   0  0  0  0  0  0  0  0  0  0  0  0
   17.0581  -12.4567  -15.7181 N   0  0  0  0  0  0  0  0  0  0  0  0
   18.0822  -11.6630  -16.3244 C   0  0  0  0  0  0  0  0  0  0  0  0
   18.0926  -10.2669  -15.7935 C   0  0  0  0  0  0  0  0  0  0  0  0
   17.1117   -9.8843  -15.1322 O   0  0  0  0  0  0  0  0  0  0  0  0
   23.1559   -6.9076  -14.0020 N   0  0  0  0  0  0  0  0  0  0  0  0
   22.0758   -6.0398  -13.6897 C   0  0  0  0  0  0  0  0  0  0  0  0
   22.3549   -4.9936  -13.0312 O   0  0  0  0  0  0  0  0  0  0  0  0
   20.7224   -6.4066  -14.1506 C   0  0  0  0  0  0  0  0  0  0  0  0
   20.6020   -7.6711  -14.9039 C   0  0  0  0  0  0  0  0  0  0  0  0
   19.2562   -8.0685  -15.4007 C   0  0  2  0  0  0  0  0  0  0  0  0
   19.1662   -9.3744  -16.0134 N   0  0  0  0  0  0  0  0  0  0  0  0
   18.6482   -7.0271  -16.2690 C   0  0  0  0  0  0  0  0  0  0  0  0
   18.6129   -7.1947  -17.5034 O   0  0  0  0  0  0  0  0  0  0  0  0
   18.1238   -5.8794  -15.7210 O   0  0  0  0  0  0  0  0  0  0  0  0
  2  1  1  6
  2  3  1  0
  4  2  1  0
  4  5  2  0
  6  4  1  0
  7  8  1  0
  7  6  1  0
  8 16  1  0
  9  8  2  0
 10 11  1  0
 11 13  1  0
 12 11  2  0
 13 14  1  0
 15 14  1  6
 15 17  1  0
 16 15  1  0
 17 18  2  0
 17 19  1  0
M  END
$$$$
