AGQ.pdb
     RDKit          3D

 19 18  0  0  1  0  0  0  0  0999 V2000
   26.6214  -18.1454  -18.8208 C   0  0  0  0  0  0  0  0  0  0  0  0
   26.0365  -19.2844  -18.0147 C   0  0  2  0  0  0  0  0  0  0  0  0
   24.8472  -18.8264  -17.3259 N   0  0  0  0  0  0  0  0  0  0  0  0
   27.0562  -19.7636  -17.0171 C   0  0  0  0  0  0  0  0  0  0  0  0
   28.0979  -20.2910  -17.4855 O   0  0  0  0  0  0  0  0  0  0  0  0
   26.7992  -19.6016  -15.6488 N   0  0  0  0  0  0  0  0  0  0  0  0
   27.8337  -19.8399  -14.6899 C   0  0  0  0  0  0  0  0  0  0  0  0
   27.3747  -19.5649  -13.2954 C   0  0  0  0  0  0  0  0  0  0  0  0
   27.3785  -18.3864  -12.8991 O   0  0  0  0  0  0  0  0  0  0  0  0
   22.1263  -21.0931  -12.7356 N   0  0  0  0  0  0  0  0  0  0  0  0
   22.1675  -20.4149  -11.4883 C   0  0  0  0  0  0  0  0  0  0  0  0
   21.0939  -20.3901  -10.8153 O   0  0  0  0  0  0  0  0  0  0  0  0
   23.4397  -19.7985  -11.0641 C   0  0  0  0  0  0  0  0  0  0  0  0
   24.5783  -19.9273  -11.9958 C   0  0  0  0  0  0  0  0  0  0  0  0
   25.8783  -20.4108  -11.4552 C   0  0  2  0  0  0  0  0  0  0  0  0
   26.9408  -20.5854  -12.4192 N   0  0  0  0  0  0  0  0  0  0  0  0
   25.7190  -21.6220  -10.6092 C   0  0  0  0  0  0  0  0  0  0  0  0
   25.9182  -22.7498  -11.1004 O   0  0  0  0  0  0  0  0  0  0  0  0
   25.3534  -21.5082   -9.2878 O   0  0  0  0  0  0  0  0  0  0  0  0
  2  1  1  1
  2  3  1  0
  4  2  1  0
  4  5  2  0
  6  4  1  0
  7  8  1  0
  7  6  1  0
  8 16  1  0
  9  8  2  0
 10 11  1  0
 11 13  1  0
 12 11  2  0
 13 14  1  0
 15 14  1  6
 15 17  1  0
 16 15  1  0
 17 18  2  0
 17 19  1  0
M  END
$$$$
