IRK.pdb
     RDKit          3D

 29 28  0  0  1  0  0  0  0  0999 V2000
    5.9838  -11.5443   26.8912 C   0  0  0  0  0  0  0  0  0  0  0  0
    6.6117  -12.6869   27.6577 C   0  0  0  0  0  0  0  0  0  0  0  0
    7.3643  -13.5863   26.7009 C   0  0  2  0  0  0  0  0  0  0  0  0
    8.5128  -12.8188   26.1343 C   0  0  0  0  0  0  0  0  0  0  0  0
    6.4856  -14.2509   25.6901 C   0  0  2  0  0  0  0  0  0  0  0  0
    5.5318  -15.0765   26.4044 N   0  0  0  0  0  0  0  0  0  0  0  0
    7.2017  -14.9978   24.6419 C   0  0  0  0  0  0  0  0  0  0  0  0
    7.6007  -16.1687   24.8603 O   0  0  0  0  0  0  0  0  0  0  0  0
    8.9516  -18.1669   17.6688 N   0  0  0  0  0  0  0  0  0  0  0  0
    7.7434  -17.4153   17.5106 C   0  0  0  0  0  0  0  0  0  0  0  0
    6.6468  -17.9860   17.1615 N   0  0  0  0  0  0  0  0  0  0  0  0
    7.7392  -16.0182   17.7390 N   0  0  0  0  0  0  0  0  0  0  0  0
    8.4043  -15.5065   18.9070 C   0  0  0  0  0  0  0  0  0  0  0  0
    7.3764  -15.0475   19.9597 C   0  0  0  0  0  0  0  0  0  0  0  0
    8.1620  -14.4549   21.0698 C   0  0  0  0  0  0  0  0  0  0  0  0
    8.2405  -15.2175   22.3422 C   0  0  2  0  0  0  0  0  0  0  0  0
    7.4754  -14.4531   23.3593 N   0  0  0  0  0  0  0  0  0  0  0  0
    9.5813  -15.4640   22.8860 C   0  0  0  0  0  0  0  0  0  0  0  0
   10.1853  -14.4867   23.4371 O   0  0  0  0  0  0  0  0  0  0  0  0
    5.7288  -17.4897   17.1362 N   0  0  0  0  0  0  0  0  0  0  0  0
   10.2811  -16.6723   22.8713 C   0  0  2  0  0  0  0  0  0  0  0  0
   11.6564  -16.7733   23.4891 C   0  0  0  0  0  0  0  0  0  0  0  0
   11.4644  -17.5378   24.7413 C   0  0  0  0  0  0  0  0  0  0  0  0
   11.8379  -18.9137   24.9496 C   0  0  0  0  0  0  0  0  0  0  0  0
   11.6158  -19.6518   26.2016 C   0  0  0  0  0  0  0  0  0  0  0  0
   12.2386  -21.0745   25.9809 N   0  0  0  0  0  0  0  0  0  0  0  0
   12.1687  -21.7253   27.2551 C   0  0  0  0  0  0  0  0  0  0  0  0
   12.4707  -17.3707   22.4324 O   0  0  0  0  0  0  0  0  0  0  0  0
   11.9890  -17.8456   21.3989 O   0  0  0  0  0  0  0  0  0  0  0  0
  2  1  1  0
  2  3  1  0
  3  4  1  6
  5  6  1  1
  5  3  1  0
  7  5  1  0
  8  7  2  0
 10 12  1  0
 10  9  1  0
 11 10  2  0
 13 14  1  0
 13 12  1  0
 16 15  1  6
 15 14  1  0
 16 17  1  0
 17  7  1  0
 18 19  2  0
 18 16  1  0
 20 18  1  0
 21 20  1  0
 22 23  1  0
 21 22  1  1
 23 24  1  0
 24 25  1  0
 25 26  1  0
 27 29  1  0
 27 21  1  0
 28 27  2  0
M  END
$$$$
