IRK.pdb
     RDKit          3D

 29 28  0  0  1  0  0  0  0  0999 V2000
    6.8782  -11.2141   27.6034 C   0  0  0  0  0  0  0  0  0  0  0  0
    6.1357  -12.0494   26.5843 C   0  0  0  0  0  0  0  0  0  0  0  0
    7.0474  -13.1373   26.0593 C   0  0  2  0  0  0  0  0  0  0  0  0
    8.3399  -12.5137   25.6473 C   0  0  0  0  0  0  0  0  0  0  0  0
    6.4057  -14.0072   25.0264 C   0  0  2  0  0  0  0  0  0  0  0  0
    5.1843  -14.5441   25.5938 N   0  0  0  0  0  0  0  0  0  0  0  0
    7.2770  -15.0573   24.4721 C   0  0  0  0  0  0  0  0  0  0  0  0
    7.3594  -16.1752   25.0390 O   0  0  0  0  0  0  0  0  0  0  0  0
    8.0165  -14.0467   16.1443 N   0  0  0  0  0  0  0  0  0  0  0  0
    7.7611  -13.7260   17.5161 C   0  0  0  0  0  0  0  0  0  0  0  0
    8.0083  -12.5547   17.9818 N   0  0  0  0  0  0  0  0  0  0  0  0
    7.2268  -14.7048   18.3882 N   0  0  0  0  0  0  0  0  0  0  0  0
    8.1270  -15.4461   19.2301 C   0  0  0  0  0  0  0  0  0  0  0  0
    8.3076  -14.7384   20.5873 C   0  0  0  0  0  0  0  0  0  0  0  0
    9.2660  -15.5676   21.3585 C   0  0  0  0  0  0  0  0  0  0  0  0
    8.8759  -15.9724   22.7335 C   0  0  2  0  0  0  0  0  0  0  0  0
    8.0535  -14.8724   23.2975 N   0  0  0  0  0  0  0  0  0  0  0  0
    9.9651  -16.2438   23.6791 C   0  0  0  0  0  0  0  0  0  0  0  0
   10.5106  -15.2469   24.2556 O   0  0  0  0  0  0  0  0  0  0  0  0
    7.9331  -12.3167   18.9953 N   0  0  0  0  0  0  0  0  0  0  0  0
   10.4777  -17.4949   24.0283 C   0  0  2  0  0  0  0  0  0  0  0  0
   11.6067  -17.6136   25.0255 C   0  0  0  0  0  0  0  0  0  0  0  0
   11.4556  -18.9580   25.6249 C   0  0  0  0  0  0  0  0  0  0  0  0
   12.4192  -19.6108   26.4740 C   0  0  0  0  0  0  0  0  0  0  0  0
   12.3015  -20.9980   26.9466 C   0  0  0  0  0  0  0  0  0  0  0  0
   13.5969  -21.2806   27.7849 N   0  0  0  0  0  0  0  0  0  0  0  0
   13.4177  -22.5900   28.3375 C   0  0  0  0  0  0  0  0  0  0  0  0
   12.8036  -17.3411   24.2320 O   0  0  0  0  0  0  0  0  0  0  0  0
   13.8481  -16.8981   24.7202 O   0  0  0  0  0  0  0  0  0  0  0  0
  2  1  1  0
  2  3  1  0
  3  4  1  6
  5  6  1  1
  5  3  1  0
  7  5  1  0
  8  7  2  0
 10 12  1  0
 10  9  1  0
 11 10  2  0
 13 14  1  0
 13 12  1  0
 16 15  1  6
 15 14  1  0
 16 17  1  0
 17  7  1  0
 18 19  2  0
 18 16  1  0
 20 18  1  0
 21 20  1  0
 22 23  1  0
 21 22  1  6
 23 24  1  0
 24 25  1  0
 25 26  1  0
 27 29  1  0
 27 21  1  0
 28 27  2  0
M  END
$$$$
