IRK.pdb
     RDKit          3D

 29 28  0  0  1  0  0  0  0  0999 V2000
    6.8260  -11.6748   27.4033 C   0  0  0  0  0  0  0  0  0  0  0  0
    6.0877  -12.8375   26.7783 C   0  0  0  0  0  0  0  0  0  0  0  0
    7.0481  -13.6600   25.9468 C   0  0  2  0  0  0  0  0  0  0  0  0
    7.7765  -12.7435   25.0202 C   0  0  0  0  0  0  0  0  0  0  0  0
    6.4100  -14.8446   25.2949 C   0  0  2  0  0  0  0  0  0  0  0  0
    5.7513  -15.6196   26.3281 N   0  0  0  0  0  0  0  0  0  0  0  0
    7.3168  -15.6621   24.4710 C   0  0  0  0  0  0  0  0  0  0  0  0
    7.6546  -16.8104   24.8517 O   0  0  0  0  0  0  0  0  0  0  0  0
    9.0027  -17.2050   17.1964 N   0  0  0  0  0  0  0  0  0  0  0  0
    9.6199  -18.3340   17.8242 C   0  0  0  0  0  0  0  0  0  0  0  0
   10.4726  -19.0602   17.1954 N   0  0  0  0  0  0  0  0  0  0  0  0
    9.2963  -18.6701   19.1608 N   0  0  0  0  0  0  0  0  0  0  0  0
    8.4913  -17.7577   19.9277 C   0  0  0  0  0  0  0  0  0  0  0  0
    9.0487  -16.3244   19.8256 C   0  0  0  0  0  0  0  0  0  0  0  0
    8.4367  -15.5651   20.9436 C   0  0  0  0  0  0  0  0  0  0  0  0
    8.5465  -16.1404   22.3087 C   0  0  2  0  0  0  0  0  0  0  0  0
    7.8476  -15.2122   23.2330 N   0  0  0  0  0  0  0  0  0  0  0  0
    9.9013  -16.3533   22.8317 C   0  0  0  0  0  0  0  0  0  0  0  0
   10.6968  -17.0694   22.1403 O   0  0  0  0  0  0  0  0  0  0  0  0
   10.9415  -19.8887   17.6235 N   0  0  0  0  0  0  0  0  0  0  0  0
   10.4281  -15.8466   24.0214 C   0  0  2  0  0  0  0  0  0  0  0  0
   11.8645  -16.1175   24.4047 C   0  0  0  0  0  0  0  0  0  0  0  0
   11.7905  -16.9236   25.6432 C   0  0  0  0  0  0  0  0  0  0  0  0
   11.6843  -16.3985   26.9807 C   0  0  0  0  0  0  0  0  0  0  0  0
   10.7347  -15.3521   27.3867 C   0  0  0  0  0  0  0  0  0  0  0  0
   11.0888  -15.0004   28.8738 N   0  0  0  0  0  0  0  0  0  0  0  0
   10.1339  -14.0092   29.2710 C   0  0  0  0  0  0  0  0  0  0  0  0
   12.4338  -16.7372   23.2095 O   0  0  0  0  0  0  0  0  0  0  0  0
   11.8675  -17.6397   22.5849 O   0  0  0  0  0  0  0  0  0  0  0  0
  2  1  1  0
  2  3  1  0
  3  4  1  6
  5  6  1  1
  5  3  1  0
  7  5  1  0
  8  7  2  0
 10 12  1  0
 10  9  1  0
 11 10  2  0
 13 14  1  0
 13 12  1  0
 16 15  1  6
 15 14  1  0
 16 17  1  0
 17  7  1  0
 18 19  2  0
 18 16  1  0
 20 18  1  0
 21 20  1  0
 22 23  1  0
 21 22  1  6
 23 24  1  0
 24 25  1  0
 25 26  1  0
 27 29  1  0
 27 21  1  0
 28 27  2  0
M  END
$$$$
