IRK.pdb
     RDKit          3D

 29 28  0  0  1  0  0  0  0  0999 V2000
    6.8566  -11.5020   27.7264 C   0  0  0  0  0  0  0  0  0  0  0  0
    6.1403  -12.5432   26.8956 C   0  0  0  0  0  0  0  0  0  0  0  0
    7.1318  -13.2362   25.9862 C   0  0  2  0  0  0  0  0  0  0  0  0
    7.9140  -12.1941   25.2573 C   0  0  0  0  0  0  0  0  0  0  0  0
    6.5142  -14.2867   25.1199 C   0  0  2  0  0  0  0  0  0  0  0  0
    5.8545  -15.2451   25.9849 N   0  0  0  0  0  0  0  0  0  0  0  0
    7.4388  -14.9297   24.1706 C   0  0  0  0  0  0  0  0  0  0  0  0
    8.0162  -16.0020   24.4781 O   0  0  0  0  0  0  0  0  0  0  0  0
    9.9751  -14.2094   17.7764 N   0  0  0  0  0  0  0  0  0  0  0  0
    8.7370  -14.4867   17.1131 C   0  0  0  0  0  0  0  0  0  0  0  0
    8.7009  -15.1962   16.0429 N   0  0  0  0  0  0  0  0  0  0  0  0
    7.5221  -13.9781   17.6322 N   0  0  0  0  0  0  0  0  0  0  0  0
    7.5597  -13.1925   18.8363 C   0  0  0  0  0  0  0  0  0  0  0  0
    7.3172  -14.0811   20.0720 C   0  0  0  0  0  0  0  0  0  0  0  0
    8.6492  -14.3029   20.6863 C   0  0  0  0  0  0  0  0  0  0  0  0
    8.6994  -15.0381   21.9761 C   0  0  2  0  0  0  0  0  0  0  0  0
    7.7237  -14.3897   22.8884 N   0  0  0  0  0  0  0  0  0  0  0  0
    9.9943  -15.0797   22.6659 C   0  0  0  0  0  0  0  0  0  0  0  0
   10.1453  -14.3322   23.6868 O   0  0  0  0  0  0  0  0  0  0  0  0
    7.8381  -15.3171   15.4680 N   0  0  0  0  0  0  0  0  0  0  0  0
   11.0985  -15.8638   22.3260 C   0  0  2  0  0  0  0  0  0  0  0  0
   11.9988  -16.4322   23.3982 C   0  0  0  0  0  0  0  0  0  0  0  0
   11.1212  -17.2845   24.2306 C   0  0  0  0  0  0  0  0  0  0  0  0
   11.5400  -18.0564   25.3727 C   0  0  0  0  0  0  0  0  0  0  0  0
   10.6727  -18.9922   26.1032 C   0  0  0  0  0  0  0  0  0  0  0  0
   11.5754  -19.6470   27.2064 N   0  0  0  0  0  0  0  0  0  0  0  0
   10.6863  -20.4230   28.0183 C   0  0  0  0  0  0  0  0  0  0  0  0
   13.0749  -17.0748   22.6460 O   0  0  0  0  0  0  0  0  0  0  0  0
   12.9327  -17.4934   21.4927 O   0  0  0  0  0  0  0  0  0  0  0  0
  2  1  1  0
  2  3  1  0
  3  4  1  6
  5  6  1  1
  5  3  1  0
  7  5  1  0
  8  7  2  0
 10 12  1  0
 10  9  1  0
 11 10  2  0
 13 14  1  0
 13 12  1  0
 16 15  1  6
 15 14  1  0
 16 17  1  0
 17  7  1  0
 18 19  2  0
 18 16  1  0
 20 18  1  0
 21 20  1  0
 22 23  1  0
 21 22  1  1
 23 24  1  0
 24 25  1  0
 25 26  1  0
 27 29  1  0
 27 21  1  0
 28 27  2  0
M  END
$$$$
