IRK.pdb
     RDKit          3D

 29 28  0  0  1  0  0  0  0  0999 V2000
    6.5276  -11.9440   27.7218 C   0  0  0  0  0  0  0  0  0  0  0  0
    5.8695  -12.7779   26.6453 C   0  0  0  0  0  0  0  0  0  0  0  0
    6.9283  -13.5299   25.8682 C   0  0  2  0  0  0  0  0  0  0  0  0
    7.9238  -12.5453   25.3500 C   0  0  0  0  0  0  0  0  0  0  0  0
    6.3670  -14.4628   24.8434 C   0  0  2  0  0  0  0  0  0  0  0  0
    5.4531  -15.3648   25.5164 N   0  0  0  0  0  0  0  0  0  0  0  0
    7.3726  -15.1780   24.0393 C   0  0  0  0  0  0  0  0  0  0  0  0
    7.6987  -16.3544   24.3351 O   0  0  0  0  0  0  0  0  0  0  0  0
    8.8012  -15.4642   17.2605 N   0  0  0  0  0  0  0  0  0  0  0  0
    8.1110  -14.2566   16.9211 C   0  0  0  0  0  0  0  0  0  0  0  0
    8.0236  -13.8614   15.7020 N   0  0  0  0  0  0  0  0  0  0  0  0
    7.5085  -13.4724   17.9340 N   0  0  0  0  0  0  0  0  0  0  0  0
    8.1678  -13.3628   19.2076 C   0  0  0  0  0  0  0  0  0  0  0  0
    8.6263  -14.7485   19.7025 C   0  0  0  0  0  0  0  0  0  0  0  0
    9.3822  -14.5075   20.9561 C   0  0  0  0  0  0  0  0  0  0  0  0
    9.0390  -15.3388   22.1383 C   0  0  2  0  0  0  0  0  0  0  0  0
    8.0144  -14.5956   22.9142 N   0  0  0  0  0  0  0  0  0  0  0  0
   10.1356  -15.6733   23.0548 C   0  0  0  0  0  0  0  0  0  0  0  0
   10.6069  -14.7377   23.7801 O   0  0  0  0  0  0  0  0  0  0  0  0
    7.5434  -12.9779   15.4222 N   0  0  0  0  0  0  0  0  0  0  0  0
   10.7288  -16.9255   23.2281 C   0  0  2  0  0  0  0  0  0  0  0  0
   11.8968  -17.1006   24.1706 C   0  0  0  0  0  0  0  0  0  0  0  0
   11.5234  -18.2341   25.0453 C   0  0  0  0  0  0  0  0  0  0  0  0
   12.3892  -18.8768   26.0009 C   0  0  0  0  0  0  0  0  0  0  0  0
   11.9753  -19.9753   26.8861 C   0  0  0  0  0  0  0  0  0  0  0  0
   13.2399  -20.3441   27.7378 N   0  0  0  0  0  0  0  0  0  0  0  0
   12.7893  -21.3109   28.6940 C   0  0  0  0  0  0  0  0  0  0  0  0
   13.0434  -17.2641   23.2790 O   0  0  0  0  0  0  0  0  0  0  0  0
   14.2073  -17.0522   23.6339 O   0  0  0  0  0  0  0  0  0  0  0  0
  2  1  1  0
  2  3  1  0
  3  4  1  6
  5  6  1  1
  5  3  1  0
  7  5  1  0
  8  7  2  0
 10 12  1  0
 10  9  1  0
 11 10  2  0
 13 14  1  0
 13 12  1  0
 16 15  1  6
 15 14  1  0
 16 17  1  0
 17  7  1  0
 18 19  2  0
 18 16  1  0
 20 18  1  0
 21 20  1  0
 22 23  1  0
 21 22  1  1
 23 24  1  0
 24 25  1  0
 25 26  1  0
 27 29  1  0
 27 21  1  0
 28 27  2  0
M  END
$$$$
