IRK.pdb
     RDKit          3D

 29 28  0  0  1  0  0  0  0  0999 V2000
    7.2110  -12.1576   28.2383 C   0  0  0  0  0  0  0  0  0  0  0  0
    6.2203  -12.9273   27.3937 C   0  0  0  0  0  0  0  0  0  0  0  0
    6.9450  -13.5973   26.2463 C   0  0  2  0  0  0  0  0  0  0  0  0
    7.7550  -12.5665   25.5318 C   0  0  0  0  0  0  0  0  0  0  0  0
    6.0508  -14.4179   25.3732 C   0  0  2  0  0  0  0  0  0  0  0  0
    5.4082  -15.4149   26.2069 N   0  0  0  0  0  0  0  0  0  0  0  0
    6.7074  -15.0091   24.1948 C   0  0  0  0  0  0  0  0  0  0  0  0
    6.9902  -16.2328   24.1759 O   0  0  0  0  0  0  0  0  0  0  0  0
   10.1685  -14.2884   17.2500 N   0  0  0  0  0  0  0  0  0  0  0  0
    8.9282  -14.3454   16.5371 C   0  0  0  0  0  0  0  0  0  0  0  0
    8.8663  -14.8302   15.3492 N   0  0  0  0  0  0  0  0  0  0  0  0
    7.7398  -13.8637   17.1368 N   0  0  0  0  0  0  0  0  0  0  0  0
    7.8212  -13.2429   18.4316 C   0  0  0  0  0  0  0  0  0  0  0  0
    8.3189  -14.2505   19.4864 C   0  0  0  0  0  0  0  0  0  0  0  0
    7.6051  -13.9158   20.7431 C   0  0  0  0  0  0  0  0  0  0  0  0
    7.6965  -14.8838   21.8662 C   0  0  2  0  0  0  0  0  0  0  0  0
    7.0499  -14.2513   23.0436 N   0  0  0  0  0  0  0  0  0  0  0  0
    9.0430  -15.3054   22.2705 C   0  0  0  0  0  0  0  0  0  0  0  0
    9.7214  -14.5052   22.9939 O   0  0  0  0  0  0  0  0  0  0  0  0
    7.9683  -14.9641   14.8343 N   0  0  0  0  0  0  0  0  0  0  0  0
    9.6746  -16.5087   21.9498 C   0  0  2  0  0  0  0  0  0  0  0  0
   11.0285  -16.8463   22.5297 C   0  0  0  0  0  0  0  0  0  0  0  0
   10.8263  -18.1050   23.2808 C   0  0  0  0  0  0  0  0  0  0  0  0
   11.4856  -18.4628   24.5109 C   0  0  0  0  0  0  0  0  0  0  0  0
   11.3702  -19.7764   25.1609 C   0  0  0  0  0  0  0  0  0  0  0  0
   12.2085  -19.6797   26.4833 N   0  0  0  0  0  0  0  0  0  0  0  0
   11.9950  -20.9218   27.1641 C   0  0  0  0  0  0  0  0  0  0  0  0
   11.9110  -16.8707   21.3647 O   0  0  0  0  0  0  0  0  0  0  0  0
   11.4975  -17.0184   20.2103 O   0  0  0  0  0  0  0  0  0  0  0  0
  2  1  1  0
  2  3  1  0
  3  4  1  6
  5  6  1  1
  5  3  1  0
  7  5  1  0
  8  7  2  0
 10 12  1  0
 10  9  1  0
 11 10  2  0
 13 14  1  0
 13 12  1  0
 16 15  1  6
 15 14  1  0
 16 17  1  0
 17  7  1  0
 18 19  2  0
 18 16  1  0
 20 18  1  0
 21 20  1  0
 22 23  1  0
 21 22  1  1
 23 24  1  0
 24 25  1  0
 25 26  1  0
 27 29  1  0
 27 21  1  0
 28 27  2  0
M  END
$$$$
