AIS.pdb
     RDKit          3D

 20 19  0  0  1  0  0  0  0  0999 V2000
    6.7045  -15.4283   20.4589 C   0  0  0  0  0  0  0  0  0  0  0  0
    7.2469  -14.0572   20.8710 C   0  0  2  0  0  0  0  0  0  0  0  0
    8.2821  -13.7215   19.9170 N   0  0  0  0  0  0  0  0  0  0  0  0
    7.8377  -14.2000   22.1994 C   0  0  0  0  0  0  0  0  0  0  0  0
    9.0415  -14.5456   22.3021 O   0  0  0  0  0  0  0  0  0  0  0  0
    5.7125  -11.4045   26.6134 C   0  0  0  0  0  0  0  0  0  0  0  0
    6.6443  -11.9578   25.5813 C   0  0  0  0  0  0  0  0  0  0  0  0
    7.1329  -13.3466   25.8224 C   0  0  2  0  0  0  0  0  0  0  0  0
    7.9724  -13.4429   27.0916 C   0  0  0  0  0  0  0  0  0  0  0  0
    7.7760  -14.0363   24.6710 C   0  0  2  0  0  0  0  0  0  0  0  0
    7.1172  -13.9664   23.4151 N   0  0  0  0  0  0  0  0  0  0  0  0
    8.1266  -15.4079   25.1225 C   0  0  0  0  0  0  0  0  0  0  0  0
    7.1680  -16.1759   25.3570 O   0  0  0  0  0  0  0  0  0  0  0  0
   11.8295  -16.9750   24.4528 O   0  0  0  0  0  0  0  0  0  0  0  0
   10.7513  -17.8305   24.6704 C   0  0  0  0  0  0  0  0  0  0  0  0
    9.7602  -17.2215   25.6529 C   0  0  2  0  0  0  0  0  0  0  0  0
    9.4578  -15.8632   25.2918 N   0  0  0  0  0  0  0  0  0  0  0  0
   10.3864  -17.2536   26.9990 C   0  0  0  0  0  0  0  0  0  0  0  0
   10.6555  -16.1787   27.6158 O   0  0  0  0  0  0  0  0  0  0  0  0
   10.7085  -18.4302   27.6504 O   0  0  0  0  0  0  0  0  0  0  0  0
  2  1  1  6
  2  3  1  0
  4  2  1  0
  5  4  2  0
  7  6  1  0
  7  8  1  0
  8 10  1  0
  8  9  1  1
 10 12  1  0
 10 11  1  6
 11  4  1  0
 12 17  1  0
 13 12  2  0
 16 15  1  6
 15 14  1  0
 17 16  1  0
 18 16  1  0
 18 20  1  0
 19 18  2  0
M  END
$$$$
