AIS.pdb
     RDKit          3D

 20 19  0  0  1  0  0  0  0  0999 V2000
    8.4990  -19.4468   17.8998 C   0  0  0  0  0  0  0  0  0  0  0  0
    8.6151  -17.9995   17.4145 C   0  0  2  0  0  0  0  0  0  0  0  0
    9.5922  -18.0014   16.3469 N   0  0  0  0  0  0  0  0  0  0  0  0
    9.1161  -17.2011   18.5307 C   0  0  0  0  0  0  0  0  0  0  0  0
   10.3540  -17.1456   18.7388 O   0  0  0  0  0  0  0  0  0  0  0  0
    6.9709  -12.2598   20.0347 C   0  0  0  0  0  0  0  0  0  0  0  0
    7.8827  -13.4013   19.7104 C   0  0  0  0  0  0  0  0  0  0  0  0
    8.0842  -14.4031   20.7974 C   0  0  2  0  0  0  0  0  0  0  0  0
    8.6263  -13.7616   22.0699 C   0  0  0  0  0  0  0  0  0  0  0  0
    8.8258  -15.6411   20.4337 C   0  0  2  0  0  0  0  0  0  0  0  0
    8.2686  -16.4638   19.4193 N   0  0  0  0  0  0  0  0  0  0  0  0
    9.1563  -16.3419   21.7017 C   0  0  0  0  0  0  0  0  0  0  0  0
    8.2253  -16.9787   22.2416 O   0  0  0  0  0  0  0  0  0  0  0  0
   12.6701  -18.0858   22.5127 O   0  0  0  0  0  0  0  0  0  0  0  0
   12.2290  -17.3364   23.6016 C   0  0  0  0  0  0  0  0  0  0  0  0
   10.7365  -17.0526   23.5008 C   0  0  2  0  0  0  0  0  0  0  0  0
   10.4399  -16.3175   22.3015 N   0  0  0  0  0  0  0  0  0  0  0  0
   10.3521  -16.2482   24.6884 C   0  0  0  0  0  0  0  0  0  0  0  0
    9.9780  -15.0430   24.5630 O   0  0  0  0  0  0  0  0  0  0  0  0
   10.3771  -16.7505   25.9767 O   0  0  0  0  0  0  0  0  0  0  0  0
  2  1  1  1
  2  3  1  0
  4  2  1  0
  5  4  2  0
  7  6  1  0
  7  8  1  0
  8 10  1  0
  8  9  1  1
 10 12  1  0
 10 11  1  6
 11  4  1  0
 12 17  1  0
 13 12  2  0
 16 15  1  1
 15 14  1  0
 17 16  1  0
 18 16  1  0
 18 20  1  0
 19 18  2  0
M  END
$$$$
