AIS.pdb
     RDKit          3D

 20 19  0  0  1  0  0  0  0  0999 V2000
    5.8369  -19.4151   24.5540 C   0  0  0  0  0  0  0  0  0  0  0  0
    5.1205  -18.1396   24.1023 C   0  0  2  0  0  0  0  0  0  0  0  0
    4.6270  -18.3969   22.7664 N   0  0  0  0  0  0  0  0  0  0  0  0
    6.1152  -17.0706   24.0556 C   0  0  0  0  0  0  0  0  0  0  0  0
    6.7622  -16.8799   22.9954 O   0  0  0  0  0  0  0  0  0  0  0  0
    5.9372  -12.3961   27.0897 C   0  0  0  0  0  0  0  0  0  0  0  0
    6.2312  -13.2553   25.9002 C   0  0  0  0  0  0  0  0  0  0  0  0
    7.4464  -14.1146   26.0017 C   0  0  2  0  0  0  0  0  0  0  0  0
    8.7305  -13.2949   25.9395 C   0  0  0  0  0  0  0  0  0  0  0  0
    7.4973  -15.3051   25.1101 C   0  0  2  0  0  0  0  0  0  0  0  0
    6.4046  -16.2102   25.1635 N   0  0  0  0  0  0  0  0  0  0  0  0
    8.8369  -15.9246   25.2830 C   0  0  0  0  0  0  0  0  0  0  0  0
    9.0008  -16.6110   26.3154 O   0  0  0  0  0  0  0  0  0  0  0  0
   11.2357  -16.5439   22.0328 O   0  0  0  0  0  0  0  0  0  0  0  0
   11.9658  -16.3411   23.2022 C   0  0  0  0  0  0  0  0  0  0  0  0
   11.0977  -16.5618   24.4335 C   0  0  2  0  0  0  0  0  0  0  0  0
    9.8983  -15.7731   24.3563 N   0  0  0  0  0  0  0  0  0  0  0  0
   11.8906  -16.1516   25.6202 C   0  0  0  0  0  0  0  0  0  0  0  0
   11.5159  -15.1832   26.3483 O   0  0  0  0  0  0  0  0  0  0  0  0
   13.0606  -16.7847   25.9981 O   0  0  0  0  0  0  0  0  0  0  0  0
  2  1  1  6
  2  3  1  0
  4  2  1  0
  5  4  2  0
  7  6  1  0
  7  8  1  0
  8 10  1  0
  8  9  1  6
 10 12  1  0
 10 11  1  1
 11  4  1  0
 12 17  1  0
 13 12  2  0
 16 15  1  6
 15 14  1  0
 17 16  1  0
 18 16  1  0
 18 20  1  0
 19 18  2  0
M  END
$$$$
