AIS.pdb
     RDKit          3D

 20 19  0  0  1  0  0  0  0  0999 V2000
    6.5362  -16.2230   20.9553 C   0  0  0  0  0  0  0  0  0  0  0  0
    7.0364  -14.7920   21.1699 C   0  0  2  0  0  0  0  0  0  0  0  0
    7.9806  -14.5233   20.1067 N   0  0  0  0  0  0  0  0  0  0  0  0
    7.7291  -14.7574   22.4557 C   0  0  0  0  0  0  0  0  0  0  0  0
    8.9390  -15.0924   22.5104 O   0  0  0  0  0  0  0  0  0  0  0  0
    5.7809  -11.5056   26.5444 C   0  0  0  0  0  0  0  0  0  0  0  0
    6.7880  -12.1038   25.6130 C   0  0  0  0  0  0  0  0  0  0  0  0
    7.3010  -13.4536   25.9880 C   0  0  2  0  0  0  0  0  0  0  0  0
    8.2403  -13.3930   27.1874 C   0  0  0  0  0  0  0  0  0  0  0  0
    7.8526  -14.2870   24.8852 C   0  0  2  0  0  0  0  0  0  0  0  0
    7.1039  -14.3579   23.6808 N   0  0  0  0  0  0  0  0  0  0  0  0
    8.2252  -15.5999   25.4731 C   0  0  0  0  0  0  0  0  0  0  0  0
    7.2792  -16.3343   25.8328 O   0  0  0  0  0  0  0  0  0  0  0  0
   11.9793  -17.1896   24.9838 O   0  0  0  0  0  0  0  0  0  0  0  0
   10.9070  -18.0334   25.2664 C   0  0  0  0  0  0  0  0  0  0  0  0
    9.8842  -17.3383   26.1547 C   0  0  2  0  0  0  0  0  0  0  0  0
    9.5635  -16.0365   25.6360 N   0  0  0  0  0  0  0  0  0  0  0  0
   10.4827  -17.2044   27.5071 C   0  0  0  0  0  0  0  0  0  0  0  0
   10.6545  -16.0624   28.0309 O   0  0  0  0  0  0  0  0  0  0  0  0
   10.8814  -18.2912   28.2637 O   0  0  0  0  0  0  0  0  0  0  0  0
  2  1  1  6
  2  3  1  0
  4  2  1  0
  5  4  2  0
  7  6  1  0
  7  8  1  0
  8 10  1  0
  8  9  1  1
 10 12  1  0
 10 11  1  6
 11  4  1  0
 12 17  1  0
 13 12  2  0
 16 15  1  6
 15 14  1  0
 17 16  1  0
 18 16  1  0
 18 20  1  0
 19 18  2  0
M  END
$$$$
