AIS.pdb
     RDKit          3D

 20 19  0  0  1  0  0  0  0  0999 V2000
    9.1795  -18.5527   27.7102 C   0  0  0  0  0  0  0  0  0  0  0  0
    7.7301  -18.0668   27.7931 C   0  0  2  0  0  0  0  0  0  0  0  0
    6.8980  -19.2506   27.7669 N   0  0  0  0  0  0  0  0  0  0  0  0
    7.4681  -17.2621   26.6022 C   0  0  0  0  0  0  0  0  0  0  0  0
    6.9799  -17.8132   25.5840 O   0  0  0  0  0  0  0  0  0  0  0  0
    6.7355  -11.7512   26.9018 C   0  0  0  0  0  0  0  0  0  0  0  0
    6.4427  -13.1248   26.3852 C   0  0  0  0  0  0  0  0  0  0  0  0
    7.4136  -13.6675   25.3910 C   0  0  2  0  0  0  0  0  0  0  0  0
    7.2406  -13.0276   24.0180 C   0  0  0  0  0  0  0  0  0  0  0  0
    7.5256  -15.1493   25.3091 C   0  0  2  0  0  0  0  0  0  0  0  0
    7.7380  -15.8578   26.5212 N   0  0  0  0  0  0  0  0  0  0  0  0
    8.4924  -15.4559   24.2231 C   0  0  0  0  0  0  0  0  0  0  0  0
    9.6828  -15.1365   24.4346 O   0  0  0  0  0  0  0  0  0  0  0  0
    7.2415  -16.9735   20.6032 O   0  0  0  0  0  0  0  0  0  0  0  0
    8.4924  -17.4319   21.0116 C   0  0  0  0  0  0  0  0  0  0  0  0
    9.1117  -16.4903   22.0355 C   0  0  2  0  0  0  0  0  0  0  0  0
    8.1306  -16.0742   23.0004 N   0  0  0  0  0  0  0  0  0  0  0  0
    9.6255  -15.3059   21.3019 C   0  0  0  0  0  0  0  0  0  0  0  0
    9.1085  -14.1608   21.4742 O   0  0  0  0  0  0  0  0  0  0  0  0
   10.6761  -15.3745   20.4051 O   0  0  0  0  0  0  0  0  0  0  0  0
  2  1  1  6
  2  3  1  0
  4  2  1  0
  5  4  2  0
  7  6  1  0
  7  8  1  0
  8 10  1  0
  8  9  1  6
 10 12  1  0
 10 11  1  1
 11  4  1  0
 12 17  1  0
 13 12  2  0
 16 15  1  6
 15 14  1  0
 17 16  1  0
 18 16  1  0
 18 20  1  0
 19 18  2  0
M  END
$$$$
