AIS.pdb
     RDKit          3D

 20 19  0  0  1  0  0  0  0  0999 V2000
    6.8462  -15.0721   20.3220 C   0  0  0  0  0  0  0  0  0  0  0  0
    7.2993  -13.6780   20.7639 C   0  0  2  0  0  0  0  0  0  0  0  0
    8.3335  -13.2695   19.8376 N   0  0  0  0  0  0  0  0  0  0  0  0
    7.8687  -13.8056   22.1031 C   0  0  0  0  0  0  0  0  0  0  0  0
    9.0970  -14.0391   22.2283 O   0  0  0  0  0  0  0  0  0  0  0  0
    5.7691  -11.1845   26.6200 C   0  0  0  0  0  0  0  0  0  0  0  0
    6.6710  -11.7480   25.5671 C   0  0  0  0  0  0  0  0  0  0  0  0
    7.0601  -13.1778   25.7397 C   0  0  2  0  0  0  0  0  0  0  0  0
    7.8298  -13.4062   27.0359 C   0  0  0  0  0  0  0  0  0  0  0  0
    7.7139  -13.8359   24.5759 C   0  0  2  0  0  0  0  0  0  0  0  0
    7.1002  -13.6786   23.3051 N   0  0  0  0  0  0  0  0  0  0  0  0
    7.9963  -15.2408   24.9691 C   0  0  0  0  0  0  0  0  0  0  0  0
    7.0015  -15.9790   25.1396 O   0  0  0  0  0  0  0  0  0  0  0  0
   11.4426  -17.0508   23.9833 O   0  0  0  0  0  0  0  0  0  0  0  0
   10.3260  -17.8091   24.3295 C   0  0  0  0  0  0  0  0  0  0  0  0
    9.5404  -17.1439   25.4515 C   0  0  2  0  0  0  0  0  0  0  0  0
    9.3029  -15.7581   25.1518 N   0  0  0  0  0  0  0  0  0  0  0  0
   10.3489  -17.2559   26.6921 C   0  0  0  0  0  0  0  0  0  0  0  0
   10.6573  -18.3911   27.1659 O   0  0  0  0  0  0  0  0  0  0  0  0
   10.8063  -16.1551   27.3932 O   0  0  0  0  0  0  0  0  0  0  0  0
  2  1  1  6
  2  3  1  0
  4  2  1  0
  5  4  2  0
  7  6  1  0
  7  8  1  0
  8 10  1  0
  8  9  1  1
 10 12  1  0
 10 11  1  6
 11  4  1  0
 12 17  1  0
 13 12  2  0
 16 15  1  6
 15 14  1  0
 17 16  1  0
 18 16  1  0
 18 20  1  0
 19 18  2  0
M  END
$$$$
