TYC.pdb
     RDKit          3D

 26 26  0  0  1  0  0  0  0  0999 V2000
    6.6398  -16.0408   20.2287 C   0  0  0  0  0  0  0  0  0  0  0  0
    7.4593  -14.9832   19.5610 C   0  0  1  0  0  0  0  0  0  0  0  0
    6.9950  -14.7565   18.2890 O   0  0  0  0  0  0  0  0  0  0  0  0
    7.6141  -13.7286   20.3863 C   0  0  2  0  0  0  0  0  0  0  0  0
    8.2458  -12.7136   19.5686 N   0  0  0  0  0  0  0  0  0  0  0  0
    8.3936  -13.9150   21.6101 C   0  0  0  0  0  0  0  0  0  0  0  0
    9.6496  -13.9376   21.5744 O   0  0  0  0  0  0  0  0  0  0  0  0
   10.3343  -15.1489   30.1552 O   0  0  0  0  0  0  0  0  0  0  0  0
    9.6823  -14.8857   28.9666 C   0  0  0  0  0  0  0  0  0  0  0  0
    8.9711  -15.8599   28.2843 C   0  0  0  0  0  0  0  0  0  0  0  0
    8.3207  -15.5963   27.0981 C   0  0  0  0  0  0  0  0  0  0  0  0
    8.3682  -14.3365   26.5619 C   0  0  0  0  0  0  0  0  0  0  0  0
    7.6954  -14.0008   25.3046 C   0  0  0  0  0  0  0  0  0  0  0  0
    8.5658  -14.3608   24.0918 C   0  0  2  0  0  0  0  0  0  0  0  0
    7.7998  -14.0808   22.9047 N   0  0  0  0  0  0  0  0  0  0  0  0
    9.0045  -15.7731   24.1651 C   0  0  0  0  0  0  0  0  0  0  0  0
    8.2593  -16.7342   23.7978 O   0  0  0  0  0  0  0  0  0  0  0  0
    9.0857  -13.3543   27.2506 C   0  0  0  0  0  0  0  0  0  0  0  0
    9.7295  -13.6183   28.4261 C   0  0  0  0  0  0  0  0  0  0  0  0
   10.2934  -16.1146   24.6556 N   0  0  0  0  0  0  0  0  0  0  0  0
   10.8641  -17.4471   24.4763 C   0  0  1  0  0  0  0  0  0  0  0  0
   11.0576  -17.6610   22.9856 C   0  0  0  0  0  0  0  0  0  0  0  0
   10.7333  -19.3874   22.5419 S   0  0  0  0  0  0  0  0  0  0  0  0
   12.1026  -17.6274   25.2343 C   0  0  0  0  0  0  0  0  0  0  0  0
   12.7072  -18.8745   25.2117 O   0  0  0  0  0  0  0  0  0  0  0  0
   12.6567  -16.7121   25.9107 O   0  0  0  0  0  0  0  0  0  0  0  0
  2  1  1  1
  3  2  1  0
  4  2  1  0
  4  5  1  6
  6  7  2  0
  6  4  1  0
  8  9  1  0
  9 10  2  0
 10 11  1  0
 12 11  2  0
 12 13  1  0
 14 13  1  1
 14 15  1  0
 15  6  1  0
 16 17  2  0
 16 14  1  0
 18 12  1  0
 19  9  1  0
 19 18  2  0
 20 16  1  0
 21 20  1  0
 21 22  1  6
 23 22  1  0
 24 21  1  0
 25 24  1  0
 26 24  2  0
M  END
$$$$
