TYC.pdb
     RDKit          3D

 26 26  0  0  1  0  0  0  0  0999 V2000
    7.7023  -18.1191   18.3498 C   0  0  0  0  0  0  0  0  0  0  0  0
    7.8557  -17.7059   19.7787 C   0  0  1  0  0  0  0  0  0  0  0  0
    8.0792  -18.8063   20.5688 O   0  0  0  0  0  0  0  0  0  0  0  0
    8.8582  -16.5956   19.9817 C   0  0  2  0  0  0  0  0  0  0  0  0
   10.1612  -17.0680   19.5609 N   0  0  0  0  0  0  0  0  0  0  0  0
    8.9423  -16.1159   21.3611 C   0  0  0  0  0  0  0  0  0  0  0  0
    9.7961  -16.5869   22.1540 O   0  0  0  0  0  0  0  0  0  0  0  0
    6.9491  -11.5463   28.7052 O   0  0  0  0  0  0  0  0  0  0  0  0
    7.0506  -11.9968   27.4037 C   0  0  0  0  0  0  0  0  0  0  0  0
    8.2739  -12.1608   26.7734 C   0  0  0  0  0  0  0  0  0  0  0  0
    8.3743  -12.6105   25.4745 C   0  0  0  0  0  0  0  0  0  0  0  0
    7.2387  -12.9096   24.7688 C   0  0  0  0  0  0  0  0  0  0  0  0
    7.2868  -13.3912   23.3861 C   0  0  0  0  0  0  0  0  0  0  0  0
    8.1408  -14.6618   23.2664 C   0  0  2  0  0  0  0  0  0  0  0  0
    8.0816  -15.1016   21.8962 N   0  0  0  0  0  0  0  0  0  0  0  0
    7.6723  -15.6968   24.2162 C   0  0  0  0  0  0  0  0  0  0  0  0
    6.5251  -16.2340   24.1215 O   0  0  0  0  0  0  0  0  0  0  0  0
    6.0052  -12.7440   25.4050 C   0  0  0  0  0  0  0  0  0  0  0  0
    5.9086  -12.2981   26.6926 C   0  0  0  0  0  0  0  0  0  0  0  0
    8.4982  -16.1363   25.2855 N   0  0  0  0  0  0  0  0  0  0  0  0
    8.1011  -17.2237   26.1763 C   0  0  1  0  0  0  0  0  0  0  0  0
    7.8241  -18.4405   25.3114 C   0  0  0  0  0  0  0  0  0  0  0  0
    7.4861  -19.8916   26.3423 S   0  0  0  0  0  0  0  0  0  0  0  0
    9.1014  -17.4870   27.2112 C   0  0  0  0  0  0  0  0  0  0  0  0
    8.7330  -18.2740   28.2911 O   0  0  0  0  0  0  0  0  0  0  0  0
   10.2848  -17.0391   27.1804 O   0  0  0  0  0  0  0  0  0  0  0  0
  2  1  1  6
  3  2  1  0
  4  2  1  0
  4  5  1  1
  6  7  2  0
  6  4  1  0
  8  9  1  0
  9 10  2  0
 10 11  1  0
 12 11  2  0
 12 13  1  0
 14 13  1  6
 14 15  1  0
 15  6  1  0
 16 17  2  0
 16 14  1  0
 18 12  1  0
 19  9  1  0
 19 18  2  0
 20 16  1  0
 21 20  1  0
 21 22  1  6
 23 22  1  0
 24 21  1  0
 25 24  1  0
 26 24  2  0
M  END
$$$$
