TYC.pdb
     RDKit          3D

 26 26  0  0  1  0  0  0  0  0999 V2000
    8.4735  -21.1813   19.8521 C   0  0  0  0  0  0  0  0  0  0  0  0
    9.3093  -20.0785   20.4189 C   0  0  1  0  0  0  0  0  0  0  0  0
   10.6182  -20.4805   20.5207 O   0  0  0  0  0  0  0  0  0  0  0  0
    9.1301  -18.7588   19.7081 C   0  0  2  0  0  0  0  0  0  0  0  0
    9.5924  -18.9037   18.3430 N   0  0  0  0  0  0  0  0  0  0  0  0
    9.8354  -17.6434   20.3394 C   0  0  0  0  0  0  0  0  0  0  0  0
   10.9990  -17.3333   19.9799 O   0  0  0  0  0  0  0  0  0  0  0  0
    6.7657  -12.6769   17.4663 O   0  0  0  0  0  0  0  0  0  0  0  0
    7.3211  -13.1460   18.6405 C   0  0  0  0  0  0  0  0  0  0  0  0
    8.6025  -12.8008   19.0396 C   0  0  0  0  0  0  0  0  0  0  0  0
    9.1560  -13.2694   20.2116 C   0  0  0  0  0  0  0  0  0  0  0  0
    8.4303  -14.1041   21.0201 C   0  0  0  0  0  0  0  0  0  0  0  0
    8.9688  -14.6315   22.2764 C   0  0  0  0  0  0  0  0  0  0  0  0
    9.9757  -15.7625   22.0215 C   0  0  2  0  0  0  0  0  0  0  0  0
    9.2679  -16.8436   21.3854 N   0  0  0  0  0  0  0  0  0  0  0  0
   10.6275  -16.1757   23.2852 C   0  0  0  0  0  0  0  0  0  0  0  0
    9.9757  -16.6870   24.2483 O   0  0  0  0  0  0  0  0  0  0  0  0
    7.1379  -14.4520   20.6170 C   0  0  0  0  0  0  0  0  0  0  0  0
    6.5919  -13.9861   19.4549 C   0  0  0  0  0  0  0  0  0  0  0  0
   12.0264  -16.0146   23.4739 N   0  0  0  0  0  0  0  0  0  0  0  0
   12.7352  -16.6337   24.5910 C   0  0  1  0  0  0  0  0  0  0  0  0
   12.4480  -18.1238   24.5407 C   0  0  0  0  0  0  0  0  0  0  0  0
   12.7167  -18.8799   26.1651 S   0  0  0  0  0  0  0  0  0  0  0  0
   14.1680  -16.3376   24.5720 C   0  0  0  0  0  0  0  0  0  0  0  0
   14.9134  -16.6423   25.7002 O   0  0  0  0  0  0  0  0  0  0  0  0
   14.7695  -15.8193   23.5862 O   0  0  0  0  0  0  0  0  0  0  0  0
  2  1  1  6
  3  2  1  0
  4  2  1  0
  4  5  1  6
  6  7  2  0
  6  4  1  0
  8  9  1  0
  9 10  2  0
 10 11  1  0
 12 11  2  0
 12 13  1  0
 14 13  1  1
 14 15  1  0
 15  6  1  0
 16 17  2  0
 16 14  1  0
 18 12  1  0
 19  9  1  0
 19 18  2  0
 20 16  1  0
 21 20  1  0
 21 22  1  6
 23 22  1  0
 24 21  1  0
 25 24  1  0
 26 24  2  0
M  END
$$$$
