TYC.pdb
     RDKit          3D

 26 26  0  0  1  0  0  0  0  0999 V2000
    6.2930  -15.6678   20.3702 C   0  0  0  0  0  0  0  0  0  0  0  0
    7.2771  -14.8161   19.6339 C   0  0  1  0  0  0  0  0  0  0  0  0
    6.9163  -14.7089   18.3135 O   0  0  0  0  0  0  0  0  0  0  0  0
    7.5463  -13.4895   20.3023 C   0  0  2  0  0  0  0  0  0  0  0  0
    8.2799  -12.6484   19.3790 N   0  0  0  0  0  0  0  0  0  0  0  0
    8.2945  -13.5963   21.5548 C   0  0  0  0  0  0  0  0  0  0  0  0
    9.5502  -13.5451   21.5593 O   0  0  0  0  0  0  0  0  0  0  0  0
    9.8312  -15.2713   30.1143 O   0  0  0  0  0  0  0  0  0  0  0  0
    9.2634  -14.8711   28.9208 C   0  0  0  0  0  0  0  0  0  0  0  0
    9.3995  -13.5801   28.4356 C   0  0  0  0  0  0  0  0  0  0  0  0
    8.8325  -13.1816   27.2443 C   0  0  0  0  0  0  0  0  0  0  0  0
    8.1078  -14.0772   26.5030 C   0  0  0  0  0  0  0  0  0  0  0  0
    7.4838  -13.7079   25.2300 C   0  0  0  0  0  0  0  0  0  0  0  0
    8.4073  -14.0205   24.0437 C   0  0  2  0  0  0  0  0  0  0  0  0
    7.6689  -13.7626   22.8342 N   0  0  0  0  0  0  0  0  0  0  0  0
    8.9025  -15.4139   24.1208 C   0  0  0  0  0  0  0  0  0  0  0  0
    9.7538  -15.7835   24.9883 O   0  0  0  0  0  0  0  0  0  0  0  0
    7.9708  -15.3792   26.9928 C   0  0  0  0  0  0  0  0  0  0  0  0
    8.5339  -15.7715   28.1739 C   0  0  0  0  0  0  0  0  0  0  0  0
    8.4395  -16.4063   23.2157 N   0  0  0  0  0  0  0  0  0  0  0  0
    8.8602  -17.8017   23.3124 C   0  0  1  0  0  0  0  0  0  0  0  0
    7.6347  -18.6633   23.0643 C   0  0  0  0  0  0  0  0  0  0  0  0
    6.3671  -18.3449   24.3190 S   0  0  0  0  0  0  0  0  0  0  0  0
    9.9600  -18.1146   22.3995 C   0  0  0  0  0  0  0  0  0  0  0  0
   10.4386  -19.4152   22.3742 O   0  0  0  0  0  0  0  0  0  0  0  0
   10.5021  -17.2684   21.6299 O   0  0  0  0  0  0  0  0  0  0  0  0
  2  1  1  1
  3  2  1  0
  4  2  1  0
  4  5  1  6
  6  7  2  0
  6  4  1  0
  8  9  1  0
  9 10  2  0
 10 11  1  0
 12 11  2  0
 12 13  1  0
 14 13  1  1
 14 15  1  0
 15  6  1  0
 16 17  2  0
 16 14  1  0
 18 12  1  0
 19  9  1  0
 19 18  2  0
 20 16  1  0
 21 20  1  0
 21 22  1  6
 23 22  1  0
 24 21  1  0
 25 24  1  0
 26 24  2  0
M  END
$$$$
