TYC.pdb
     RDKit          3D

 26 26  0  0  1  0  0  0  0  0999 V2000
    6.5817  -15.9421   20.3377 C   0  0  0  0  0  0  0  0  0  0  0  0
    7.2763  -14.8125   19.6469 C   0  0  1  0  0  0  0  0  0  0  0  0
    6.7380  -14.6174   18.3990 O   0  0  0  0  0  0  0  0  0  0  0  0
    7.3588  -13.5554   20.4788 C   0  0  2  0  0  0  0  0  0  0  0  0
    7.8825  -12.4882   19.6512 N   0  0  0  0  0  0  0  0  0  0  0  0
    8.1896  -13.6885   21.6756 C   0  0  0  0  0  0  0  0  0  0  0  0
    9.4433  -13.6607   21.5935 O   0  0  0  0  0  0  0  0  0  0  0  0
   10.5286  -15.1052   30.0835 O   0  0  0  0  0  0  0  0  0  0  0  0
    9.8092  -14.8394   28.9350 C   0  0  0  0  0  0  0  0  0  0  0  0
    9.0557  -15.8108   28.2955 C   0  0  0  0  0  0  0  0  0  0  0  0
    8.3380  -15.5446   27.1493 C   0  0  0  0  0  0  0  0  0  0  0  0
    8.3589  -14.2849   26.6112 C   0  0  0  0  0  0  0  0  0  0  0  0
    7.6150  -13.9465   25.3953 C   0  0  0  0  0  0  0  0  0  0  0  0
    8.4584  -14.1964   24.1366 C   0  0  2  0  0  0  0  0  0  0  0  0
    7.6508  -13.8557   22.9938 N   0  0  0  0  0  0  0  0  0  0  0  0
    8.9357  -15.5975   24.0979 C   0  0  0  0  0  0  0  0  0  0  0  0
    8.1425  -16.5801   23.9591 O   0  0  0  0  0  0  0  0  0  0  0  0
    9.1191  -13.3055   27.2566 C   0  0  0  0  0  0  0  0  0  0  0  0
    9.8295  -13.5721   28.3925 C   0  0  0  0  0  0  0  0  0  0  0  0
   10.3181  -15.9032   24.2159 N   0  0  0  0  0  0  0  0  0  0  0  0
   10.8180  -17.2742   24.1512 C   0  0  1  0  0  0  0  0  0  0  0  0
   11.9124  -17.3089   23.0992 C   0  0  0  0  0  0  0  0  0  0  0  0
   11.5025  -18.4945   21.7920 S   0  0  0  0  0  0  0  0  0  0  0  0
   11.2759  -17.7603   25.4532 C   0  0  0  0  0  0  0  0  0  0  0  0
   11.2618  -19.1273   25.6824 O   0  0  0  0  0  0  0  0  0  0  0  0
   11.6848  -17.0072   26.3847 O   0  0  0  0  0  0  0  0  0  0  0  0
  2  1  1  1
  3  2  1  0
  4  2  1  0
  4  5  1  6
  6  7  2  0
  6  4  1  0
  8  9  1  0
  9 10  2  0
 10 11  1  0
 12 11  2  0
 12 13  1  0
 14 13  1  1
 14 15  1  0
 15  6  1  0
 16 17  2  0
 16 14  1  0
 18 12  1  0
 19  9  1  0
 19 18  2  0
 20 16  1  0
 21 20  1  0
 21 22  1  6
 23 22  1  0
 24 21  1  0
 25 24  1  0
 26 24  2  0
M  END
$$$$
