TYC.pdb
     RDKit          3D

 26 26  0  0  1  0  0  0  0  0999 V2000
   14.4140  -22.0846   16.1799 C   0  0  0  0  0  0  0  0  0  0  0  0
   13.2543  -21.2173   16.5523 C   0  0  1  0  0  0  0  0  0  0  0  0
   12.2082  -21.4283   15.6884 O   0  0  0  0  0  0  0  0  0  0  0  0
   12.8712  -21.3143   18.0093 C   0  0  2  0  0  0  0  0  0  0  0  0
   11.6936  -20.5006   18.2317 N   0  0  0  0  0  0  0  0  0  0  0  0
   13.9273  -20.8947   18.9305 C   0  0  0  0  0  0  0  0  0  0  0  0
   14.1176  -19.6774   19.1780 O   0  0  0  0  0  0  0  0  0  0  0  0
   12.3997  -21.4391   25.7296 O   0  0  0  0  0  0  0  0  0  0  0  0
   13.3073  -21.6622   24.7130 C   0  0  0  0  0  0  0  0  0  0  0  0
   14.4198  -20.8569   24.5277 C   0  0  0  0  0  0  0  0  0  0  0  0
   15.3252  -21.0804   23.5129 C   0  0  0  0  0  0  0  0  0  0  0  0
   15.1349  -22.1276   22.6504 C   0  0  0  0  0  0  0  0  0  0  0  0
   16.0652  -22.4114   21.5547 C   0  0  0  0  0  0  0  0  0  0  0  0
   15.9113  -21.3950   20.4139 C   0  0  2  0  0  0  0  0  0  0  0  0
   14.7993  -21.8149   19.6006 N   0  0  0  0  0  0  0  0  0  0  0  0
   17.1697  -21.2827   19.6417 C   0  0  0  0  0  0  0  0  0  0  0  0
   17.3353  -21.8687   18.5268 O   0  0  0  0  0  0  0  0  0  0  0  0
   14.0127  -22.9396   22.8377 C   0  0  0  0  0  0  0  0  0  0  0  0
   13.1169  -22.7158   23.8444 C   0  0  0  0  0  0  0  0  0  0  0  0
   18.2568  -20.5048   20.1231 N   0  0  0  0  0  0  0  0  0  0  0  0
   19.2647  -19.9420   19.2281 C   0  0  1  0  0  0  0  0  0  0  0  0
   18.5396  -19.4148   18.0026 C   0  0  0  0  0  0  0  0  0  0  0  0
   19.7230  -18.7868   16.7829 S   0  0  0  0  0  0  0  0  0  0  0  0
   20.0784  -18.9170   19.8827 C   0  0  0  0  0  0  0  0  0  0  0  0
   21.4481  -19.1168   19.9537 O   0  0  0  0  0  0  0  0  0  0  0  0
   19.6067  -17.8571   20.3889 O   0  0  0  0  0  0  0  0  0  0  0  0
  2  1  1  6
  3  2  1  0
  4  2  1  0
  4  5  1  6
  6  7  2  0
  6  4  1  0
  8  9  1  0
  9 10  2  0
 10 11  1  0
 12 11  2  0
 12 13  1  0
 14 13  1  1
 14 15  1  0
 15  6  1  0
 16 17  2  0
 16 14  1  0
 18 12  1  0
 19  9  1  0
 19 18  2  0
 20 16  1  0
 21 20  1  0
 21 22  1  6
 23 22  1  0
 24 21  1  0
 25 24  1  0
 26 24  2  0
M  END
$$$$
