TYC.pdb
     RDKit          3D

 26 26  0  0  1  0  0  0  0  0999 V2000
    7.1709  -16.2847   19.6858 C   0  0  0  0  0  0  0  0  0  0  0  0
    7.7245  -15.0455   19.0582 C   0  0  1  0  0  0  0  0  0  0  0  0
    7.3137  -14.9520   17.7515 O   0  0  0  0  0  0  0  0  0  0  0  0
    7.4743  -13.7956   19.8671 C   0  0  2  0  0  0  0  0  0  0  0  0
    7.8986  -12.6499   19.0889 N   0  0  0  0  0  0  0  0  0  0  0  0
    8.1572  -13.7786   21.1607 C   0  0  0  0  0  0  0  0  0  0  0  0
    9.3741  -13.4751   21.2407 O   0  0  0  0  0  0  0  0  0  0  0  0
    9.6206  -14.4344   29.8485 O   0  0  0  0  0  0  0  0  0  0  0  0
    9.0319  -14.3017   28.6064 C   0  0  0  0  0  0  0  0  0  0  0  0
    8.3104  -15.3287   28.0188 C   0  0  0  0  0  0  0  0  0  0  0  0
    7.7230  -15.1953   26.7792 C   0  0  0  0  0  0  0  0  0  0  0  0
    7.8463  -14.0168   26.0916 C   0  0  0  0  0  0  0  0  0  0  0  0
    7.2427  -13.8202   24.7712 C   0  0  0  0  0  0  0  0  0  0  0  0
    8.2123  -14.2179   23.6489 C   0  0  2  0  0  0  0  0  0  0  0  0
    7.5076  -14.0977   22.3986 N   0  0  0  0  0  0  0  0  0  0  0  0
    8.7403  -15.5827   23.8747 C   0  0  0  0  0  0  0  0  0  0  0  0
    7.9992  -16.6132   23.8235 O   0  0  0  0  0  0  0  0  0  0  0  0
    8.5741  -12.9813   26.6847 C   0  0  0  0  0  0  0  0  0  0  0  0
    9.1552  -13.1162   27.9136 C   0  0  0  0  0  0  0  0  0  0  0  0
   10.1152  -15.7974   24.1613 N   0  0  0  0  0  0  0  0  0  0  0  0
   10.6813  -17.1379   24.2889 C   0  0  1  0  0  0  0  0  0  0  0  0
   12.1885  -17.0081   24.1585 C   0  0  0  0  0  0  0  0  0  0  0  0
   12.8394  -15.8616   25.4013 S   0  0  0  0  0  0  0  0  0  0  0  0
   10.2803  -17.7938   25.5339 C   0  0  0  0  0  0  0  0  0  0  0  0
   10.6010  -19.1319   25.7004 O   0  0  0  0  0  0  0  0  0  0  0  0
    9.6572  -17.2126   26.4699 O   0  0  0  0  0  0  0  0  0  0  0  0
  2  1  1  1
  3  2  1  0
  4  2  1  0
  4  5  1  6
  6  7  2  0
  6  4  1  0
  8  9  1  0
  9 10  2  0
 10 11  1  0
 12 11  2  0
 12 13  1  0
 14 13  1  1
 14 15  1  0
 15  6  1  0
 16 17  2  0
 16 14  1  0
 18 12  1  0
 19  9  1  0
 19 18  2  0
 20 16  1  0
 21 20  1  0
 21 22  1  1
 23 22  1  0
 24 21  1  0
 25 24  1  0
 26 24  2  0
M  END
$$$$
