TYC.pdb
     RDKit          3D

 26 26  0  0  1  0  0  0  0  0999 V2000
    9.0120  -19.3259   18.5296 C   0  0  0  0  0  0  0  0  0  0  0  0
    9.1535  -18.6091   19.8343 C   0  0  1  0  0  0  0  0  0  0  0  0
    9.8810  -19.3695   20.7161 O   0  0  0  0  0  0  0  0  0  0  0  0
    9.6545  -17.1920   19.6932 C   0  0  2  0  0  0  0  0  0  0  0  0
   10.9875  -17.2283   19.1273 N   0  0  0  0  0  0  0  0  0  0  0  0
    9.6854  -16.4449   20.9505 C   0  0  0  0  0  0  0  0  0  0  0  0
   10.7520  -16.3341   21.6058 O   0  0  0  0  0  0  0  0  0  0  0  0
    6.9499  -11.7707   27.9362 O   0  0  0  0  0  0  0  0  0  0  0  0
    7.0121  -12.4111   26.7143 C   0  0  0  0  0  0  0  0  0  0  0  0
    6.2781  -13.5549   26.4430 C   0  0  0  0  0  0  0  0  0  0  0  0
    6.3408  -14.1935   25.2232 C   0  0  0  0  0  0  0  0  0  0  0  0
    7.1493  -13.6953   24.2358 C   0  0  0  0  0  0  0  0  0  0  0  0
    7.2541  -14.3333   22.9211 C   0  0  0  0  0  0  0  0  0  0  0  0
    8.5417  -15.1617   22.8032 C   0  0  2  0  0  0  0  0  0  0  0  0
    8.5339  -15.8015   21.5128 N   0  0  0  0  0  0  0  0  0  0  0  0
    8.6422  -16.1314   23.9177 C   0  0  0  0  0  0  0  0  0  0  0  0
    7.8143  -17.0837   24.0642 O   0  0  0  0  0  0  0  0  0  0  0  0
    7.8893  -12.5417   24.5099 C   0  0  0  0  0  0  0  0  0  0  0  0
    7.8253  -11.9108   25.7198 C   0  0  0  0  0  0  0  0  0  0  0  0
    9.6825  -16.0344   24.8805 N   0  0  0  0  0  0  0  0  0  0  0  0
    9.8431  -17.0152   25.9509 C   0  0  1  0  0  0  0  0  0  0  0  0
   11.1947  -17.6797   25.7583 C   0  0  0  0  0  0  0  0  0  0  0  0
   11.3244  -18.3907   24.0968 S   0  0  0  0  0  0  0  0  0  0  0  0
    9.6960  -16.4176   27.2784 C   0  0  0  0  0  0  0  0  0  0  0  0
    9.8400  -17.2397   28.3850 O   0  0  0  0  0  0  0  0  0  0  0  0
    9.4448  -15.1932   27.4782 O   0  0  0  0  0  0  0  0  0  0  0  0
  2  1  1  6
  3  2  1  0
  4  2  1  0
  4  5  1  1
  6  7  2  0
  6  4  1  0
  8  9  1  0
  9 10  2  0
 10 11  1  0
 12 11  2  0
 12 13  1  0
 14 13  1  1
 14 15  1  0
 15  6  1  0
 16 17  2  0
 16 14  1  0
 18 12  1  0
 19  9  1  0
 19 18  2  0
 20 16  1  0
 21 20  1  0
 21 22  1  1
 23 22  1  0
 24 21  1  0
 25 24  1  0
 26 24  2  0
M  END
$$$$
