HIC.pdb
     RDKit          3D

 25 25  0  0  1  0  0  0  0  0999 V2000
   21.6585  -23.4705  -16.2951 N   0  0  0  0  0  0  0  0  0  0  0  0
   20.3649  -23.0724  -15.7784 C   0  0  1  0  0  0  0  0  0  0  0  0
   19.2463  -23.8268  -16.4619 C   0  0  0  0  0  0  0  0  0  0  0  0
   19.2118  -23.4788  -17.9055 C   0  0  0  0  0  0  0  0  0  0  0  0
   18.5422  -22.3696  -18.4330 C   0  0  0  0  0  0  0  0  0  0  0  0
   18.7411  -22.3942  -19.7609 N   0  0  0  0  0  0  0  0  0  0  0  0
   19.4985  -23.4571  -20.0982 C   0  0  0  0  0  0  0  0  0  0  0  0
   19.7778  -24.1093  -18.9555 N   0  0  0  0  0  0  0  0  0  0  0  0
   20.2999  -23.2058  -14.3008 C   0  0  0  0  0  0  0  0  0  0  0  0
   20.8371  -24.1953  -13.7401 O   0  0  0  0  0  0  0  0  0  0  0  0
   20.4701  -18.8465  -10.8970 C   0  0  0  0  0  0  0  0  0  0  0  0
   20.7101  -20.1534  -11.6594 C   0  0  0  0  0  0  0  0  0  0  0  0
   19.5578  -21.0593  -11.3168 C   0  0  2  0  0  0  0  0  0  0  0  0
   19.4353  -21.3045   -9.8388 C   0  0  0  0  0  0  0  0  0  0  0  0
   19.6337  -22.3982  -12.0078 C   0  0  2  0  0  0  0  0  0  0  0  0
   19.6541  -22.2656  -13.4520 N   0  0  0  0  0  0  0  0  0  0  0  0
   18.5488  -23.3205  -11.5816 C   0  0  0  0  0  0  0  0  0  0  0  0
   17.3784  -23.2547  -12.0323 O   0  0  0  0  0  0  0  0  0  0  0  0
   18.8075  -24.3380  -10.6211 N   0  0  0  0  0  0  0  0  0  0  0  0
   17.7528  -25.2803  -10.2112 C   0  0  1  0  0  0  0  0  0  0  0  0
   18.4311  -26.3200   -9.3173 C   0  0  0  0  0  0  0  0  0  0  0  0
   19.8149  -27.0129  -10.2673 S   0  0  0  0  0  0  0  0  0  0  0  0
   16.8363  -24.5137   -9.3269 C   0  0  0  0  0  0  0  0  0  0  0  0
   17.2111  -23.2773   -8.7808 O   0  0  0  0  0  0  0  0  0  0  0  0
   15.6817  -24.9134   -9.0125 O   0  0  0  0  0  0  0  0  0  0  0  0
  2  1  1  6
  2  9  1  0
  3  2  1  0
  4  3  1  0
  5  4  2  0
  6  5  1  0
  7  6  1  0
  7  8  2  0
  8  4  1  0
  9 16  1  0
  9 10  2  0
 12 11  1  0
 13 12  1  0
 13 14  1  1
 15 13  1  0
 15 16  1  6
 17 15  1  0
 17 18  2  0
 19 17  1  0
 20 19  1  0
 21 22  1  0
 20 21  1  1
 23 20  1  0
 23 24  1  0
 25 23  2  0
M  END
$$$$
