HIC.pdb
     RDKit          3D

 25 25  0  0  1  0  0  0  0  0999 V2000
   19.8747  -21.2817  -13.0918 N   0  0  0  0  0  0  0  0  0  0  0  0
   21.1680  -21.7530  -13.5437 C   0  0  1  0  0  0  0  0  0  0  0  0
   21.1841  -21.9552  -15.0425 C   0  0  0  0  0  0  0  0  0  0  0  0
   20.1543  -22.9539  -15.4277 C   0  0  0  0  0  0  0  0  0  0  0  0
   20.3173  -24.3385  -15.3125 C   0  0  0  0  0  0  0  0  0  0  0  0
   19.1807  -24.8993  -15.7566 N   0  0  0  0  0  0  0  0  0  0  0  0
   18.3117  -23.9446  -16.1447 C   0  0  0  0  0  0  0  0  0  0  0  0
   18.9200  -22.7628  -15.9380 N   0  0  0  0  0  0  0  0  0  0  0  0
   22.2652  -20.8585  -13.0945 C   0  0  0  0  0  0  0  0  0  0  0  0
   22.0930  -19.6127  -13.0941 O   0  0  0  0  0  0  0  0  0  0  0  0
   24.5563  -21.2012   -8.3694 C   0  0  0  0  0  0  0  0  0  0  0  0
   23.9424  -20.7033   -9.6818 C   0  0  0  0  0  0  0  0  0  0  0  0
   25.0012  -20.8812  -10.7369 C   0  0  2  0  0  0  0  0  0  0  0  0
   26.2711  -20.1460  -10.4109 C   0  0  0  0  0  0  0  0  0  0  0  0
   24.5476  -20.4449  -12.1079 C   0  0  2  0  0  0  0  0  0  0  0  0
   23.5328  -21.3267  -12.6523 N   0  0  0  0  0  0  0  0  0  0  0  0
   25.6787  -20.2966  -13.0608 C   0  0  0  0  0  0  0  0  0  0  0  0
   26.5455  -19.3936  -12.9586 O   0  0  0  0  0  0  0  0  0  0  0  0
   25.8212  -21.1988  -14.1520 N   0  0  0  0  0  0  0  0  0  0  0  0
   26.9317  -21.0623  -15.1093 C   0  0  1  0  0  0  0  0  0  0  0  0
   27.7488  -22.3512  -15.0038 C   0  0  0  0  0  0  0  0  0  0  0  0
   28.3569  -22.4544  -13.2958 S   0  0  0  0  0  0  0  0  0  0  0  0
   26.3143  -21.0769  -16.4613 C   0  0  0  0  0  0  0  0  0  0  0  0
   27.0981  -21.0396  -17.6238 O   0  0  0  0  0  0  0  0  0  0  0  0
   25.0682  -21.1229  -16.6534 O   0  0  0  0  0  0  0  0  0  0  0  0
  2  1  1  6
  2  9  1  0
  3  2  1  0
  4  3  1  0
  5  4  2  0
  6  5  1  0
  7  6  1  0
  7  8  2  0
  8  4  1  0
  9 16  1  0
  9 10  2  0
 12 11  1  0
 13 12  1  0
 13 14  1  1
 15 13  1  0
 15 16  1  6
 17 15  1  0
 17 18  2  0
 19 17  1  0
 20 19  1  0
 21 22  1  0
 20 21  1  6
 23 20  1  0
 23 24  1  0
 25 23  2  0
M  END
$$$$
