HIC.pdb
     RDKit          3D

 25 25  0  0  1  0  0  0  0  0999 V2000
   28.2525  -20.6647  -15.6958 N   0  0  0  0  0  0  0  0  0  0  0  0
   27.4653  -19.8062  -14.8343 C   0  0  1  0  0  0  0  0  0  0  0  0
   26.7117  -18.7684  -15.6360 C   0  0  0  0  0  0  0  0  0  0  0  0
   27.6712  -17.8459  -16.2951 C   0  0  0  0  0  0  0  0  0  0  0  0
   29.0229  -17.7373  -15.9513 C   0  0  0  0  0  0  0  0  0  0  0  0
   29.5541  -16.8084  -16.7629 N   0  0  0  0  0  0  0  0  0  0  0  0
   28.6120  -16.3266  -17.5980 C   0  0  0  0  0  0  0  0  0  0  0  0
   27.4684  -16.9693  -17.3005 N   0  0  0  0  0  0  0  0  0  0  0  0
   26.5605  -20.5913  -13.9565 C   0  0  0  0  0  0  0  0  0  0  0  0
   26.0856  -21.6813  -14.3666 O   0  0  0  0  0  0  0  0  0  0  0  0
   26.7841  -20.1907   -8.4863 C   0  0  0  0  0  0  0  0  0  0  0  0
   26.6702  -20.9405   -9.8173 C   0  0  0  0  0  0  0  0  0  0  0  0
   25.3214  -20.5889  -10.3854 C   0  0  2  0  0  0  0  0  0  0  0  0
   24.1948  -21.2801   -9.6695 C   0  0  0  0  0  0  0  0  0  0  0  0
   25.2009  -20.9005  -11.8566 C   0  0  2  0  0  0  0  0  0  0  0  0
   26.1834  -20.1843  -12.6474 N   0  0  0  0  0  0  0  0  0  0  0  0
   23.8305  -20.6584  -12.3789 C   0  0  0  0  0  0  0  0  0  0  0  0
   23.3177  -19.5143  -12.4501 O   0  0  0  0  0  0  0  0  0  0  0  0
   23.0311  -21.7463  -12.8287 N   0  0  0  0  0  0  0  0  0  0  0  0
   21.6976  -21.5184  -13.4102 C   0  0  1  0  0  0  0  0  0  0  0  0
   21.3001  -22.8267  -14.0959 C   0  0  0  0  0  0  0  0  0  0  0  0
   19.5961  -22.6177  -14.6881 S   0  0  0  0  0  0  0  0  0  0  0  0
   20.7687  -21.3584  -12.2608 C   0  0  0  0  0  0  0  0  0  0  0  0
   19.7295  -20.4168  -12.2857 O   0  0  0  0  0  0  0  0  0  0  0  0
   20.8487  -22.0442  -11.2048 O   0  0  0  0  0  0  0  0  0  0  0  0
  2  1  1  6
  2  9  1  0
  3  2  1  0
  4  3  1  0
  5  4  2  0
  6  5  1  0
  7  6  1  0
  7  8  2  0
  8  4  1  0
  9 16  1  0
  9 10  2  0
 12 11  1  0
 13 12  1  0
 13 14  1  1
 15 13  1  0
 15 16  1  6
 17 15  1  0
 17 18  2  0
 19 17  1  0
 20 19  1  0
 21 22  1  0
 20 21  1  1
 23 20  1  0
 23 24  1  0
 25 23  2  0
M  END
$$$$
