HIC.pdb
     RDKit          3D

 25 25  0  0  1  0  0  0  0  0999 V2000
   19.5031  -13.1507  -17.9374 N   0  0  0  0  0  0  0  0  0  0  0  0
   20.0932  -11.9143  -18.4085 C   0  0  1  0  0  0  0  0  0  0  0  0
   19.0842  -11.0790  -19.1647 C   0  0  0  0  0  0  0  0  0  0  0  0
   18.7026  -11.7673  -20.4244 C   0  0  0  0  0  0  0  0  0  0  0  0
   17.5965  -12.6136  -20.5562 C   0  0  0  0  0  0  0  0  0  0  0  0
   17.5849  -13.0380  -21.8304 N   0  0  0  0  0  0  0  0  0  0  0  0
   18.6221  -12.5059  -22.5074 C   0  0  0  0  0  0  0  0  0  0  0  0
   19.2949  -11.7329  -21.6362 N   0  0  0  0  0  0  0  0  0  0  0  0
   20.7244  -11.1514  -17.3017 C   0  0  0  0  0  0  0  0  0  0  0  0
   20.2015  -11.1649  -16.1579 O   0  0  0  0  0  0  0  0  0  0  0  0
   26.0473  -10.3708  -14.8540 C   0  0  0  0  0  0  0  0  0  0  0  0
   24.6902   -9.6679  -14.9592 C   0  0  0  0  0  0  0  0  0  0  0  0
   23.9662  -10.3183  -16.1075 C   0  0  2  0  0  0  0  0  0  0  0  0
   24.7240  -10.2148  -17.4015 C   0  0  0  0  0  0  0  0  0  0  0  0
   22.5842   -9.7552  -16.3291 C   0  0  2  0  0  0  0  0  0  0  0  0
   21.9127  -10.3848  -17.4500 N   0  0  0  0  0  0  0  0  0  0  0  0
   22.5906   -8.2771  -16.4853 C   0  0  0  0  0  0  0  0  0  0  0  0
   22.9685   -7.7017  -17.5356 O   0  0  0  0  0  0  0  0  0  0  0  0
   22.1562   -7.4407  -15.4192 N   0  0  0  0  0  0  0  0  0  0  0  0
   22.1129   -5.9768  -15.5725 C   0  0  1  0  0  0  0  0  0  0  0  0
   20.6455   -5.5732  -15.4185 C   0  0  0  0  0  0  0  0  0  0  0  0
   20.5997   -3.7591  -15.3508 S   0  0  0  0  0  0  0  0  0  0  0  0
   22.8190   -5.4177  -14.3900 C   0  0  0  0  0  0  0  0  0  0  0  0
   23.5074   -4.1976  -14.4585 O   0  0  0  0  0  0  0  0  0  0  0  0
   22.8477   -5.9897  -13.2659 O   0  0  0  0  0  0  0  0  0  0  0  0
  2  1  1  1
  2  9  1  0
  3  2  1  0
  4  3  1  0
  5  4  2  0
  6  5  1  0
  7  6  1  0
  7  8  2  0
  8  4  1  0
  9 16  1  0
  9 10  2  0
 12 11  1  0
 13 12  1  0
 13 14  1  6
 15 13  1  0
 15 16  1  6
 17 15  1  0
 17 18  2  0
 19 17  1  0
 20 19  1  0
 21 22  1  0
 20 21  1  1
 23 20  1  0
 23 24  1  0
 25 23  2  0
M  END
$$$$
