HIC.pdb
     RDKit          3D

 25 25  0  0  1  0  0  0  0  0999 V2000
   40.8771   -7.9087   -9.9637 N   0  0  0  0  0  0  0  0  0  0  0  0
   42.3187   -7.7684   -9.9930 C   0  0  1  0  0  0  0  0  0  0  0  0
   42.7246   -6.3264  -10.2012 C   0  0  0  0  0  0  0  0  0  0  0  0
   42.2857   -5.8678  -11.5441 C   0  0  0  0  0  0  0  0  0  0  0  0
   41.3552   -4.8464  -11.7630 C   0  0  0  0  0  0  0  0  0  0  0  0
   41.2218   -4.7244  -13.0938 N   0  0  0  0  0  0  0  0  0  0  0  0
   42.0166   -5.6122  -13.7242 C   0  0  0  0  0  0  0  0  0  0  0  0
   42.6594   -6.3026  -12.7654 N   0  0  0  0  0  0  0  0  0  0  0  0
   42.9512   -8.3518   -8.7826 C   0  0  0  0  0  0  0  0  0  0  0  0
   42.3702   -8.2614   -7.6708 O   0  0  0  0  0  0  0  0  0  0  0  0
   44.6984  -12.4470   -5.8049 C   0  0  0  0  0  0  0  0  0  0  0  0
   45.7782  -11.6226   -6.5129 C   0  0  0  0  0  0  0  0  0  0  0  0
   45.1272  -11.0383   -7.7379 C   0  0  2  0  0  0  0  0  0  0  0  0
   45.9605  -11.2172   -8.9761 C   0  0  0  0  0  0  0  0  0  0  0  0
   44.8115   -9.5700   -7.5954 C   0  0  2  0  0  0  0  0  0  0  0  0
   44.2038   -9.0245   -8.7941 N   0  0  0  0  0  0  0  0  0  0  0  0
   45.9989   -8.7687   -7.1988 C   0  0  0  0  0  0  0  0  0  0  0  0
   46.9196   -8.4682   -7.9983 O   0  0  0  0  0  0  0  0  0  0  0  0
   46.1360   -8.3020   -5.8615 N   0  0  0  0  0  0  0  0  0  0  0  0
   47.3203   -7.5329   -5.4440 C   0  0  1  0  0  0  0  0  0  0  0  0
   47.1015   -7.1745   -3.9731 C   0  0  0  0  0  0  0  0  0  0  0  0
   48.5438   -6.2064   -3.4439 S   0  0  0  0  0  0  0  0  0  0  0  0
   48.4605   -8.4862   -5.4693 C   0  0  0  0  0  0  0  0  0  0  0  0
   48.3166   -9.8106   -5.0308 O   0  0  0  0  0  0  0  0  0  0  0  0
   49.6132   -8.1767   -5.8785 O   0  0  0  0  0  0  0  0  0  0  0  0
  2  1  1  1
  2  9  1  0
  3  2  1  0
  4  3  1  0
  5  4  2  0
  6  5  1  0
  7  6  1  0
  7  8  2  0
  8  4  1  0
  9 16  1  0
  9 10  2  0
 12 11  1  0
 13 12  1  0
 13 14  1  6
 15 13  1  0
 15 16  1  6
 17 15  1  0
 17 18  2  0
 19 17  1  0
 20 19  1  0
 21 22  1  0
 20 21  1  1
 23 20  1  0
 23 24  1  0
 25 23  2  0
M  END
$$$$
