HIC.pdb
     RDKit          3D

 25 25  0  0  1  0  0  0  0  0999 V2000
   23.0077  -23.0637  -17.1041 N   0  0  0  0  0  0  0  0  0  0  0  0
   21.6066  -22.7535  -16.9053 C   0  0  1  0  0  0  0  0  0  0  0  0
   20.7186  -23.8132  -17.5185 C   0  0  0  0  0  0  0  0  0  0  0  0
   20.8857  -23.8190  -18.9944 C   0  0  0  0  0  0  0  0  0  0  0  0
   19.9940  -23.2206  -19.8909 C   0  0  0  0  0  0  0  0  0  0  0  0
   20.4822  -23.4367  -21.1232 N   0  0  0  0  0  0  0  0  0  0  0  0
   21.6314  -24.1378  -21.0518 C   0  0  0  0  0  0  0  0  0  0  0  0
   21.8646  -24.3636  -19.7465 N   0  0  0  0  0  0  0  0  0  0  0  0
   21.2924  -22.5307  -15.4710 C   0  0  0  0  0  0  0  0  0  0  0  0
   21.9129  -23.1782  -14.5892 O   0  0  0  0  0  0  0  0  0  0  0  0
   20.3168  -17.5667  -13.4452 C   0  0  0  0  0  0  0  0  0  0  0  0
   20.8260  -18.9790  -13.7501 C   0  0  0  0  0  0  0  0  0  0  0  0
   19.7317  -19.9223  -13.3275 C   0  0  2  0  0  0  0  0  0  0  0  0
   19.3894  -19.7939  -11.8695 C   0  0  0  0  0  0  0  0  0  0  0  0
   20.0590  -21.3686  -13.6049 C   0  0  2  0  0  0  0  0  0  0  0  0
   20.3107  -21.6099  -15.0128 N   0  0  0  0  0  0  0  0  0  0  0  0
   19.0167  -22.2961  -13.0926 C   0  0  0  0  0  0  0  0  0  0  0  0
   17.8834  -22.4110  -13.6213 O   0  0  0  0  0  0  0  0  0  0  0  0
   19.2756  -23.1081  -11.9531 N   0  0  0  0  0  0  0  0  0  0  0  0
   18.2257  -23.9656  -11.3780 C   0  0  1  0  0  0  0  0  0  0  0  0
   18.9045  -24.8061  -10.2951 C   0  0  0  0  0  0  0  0  0  0  0  0
   17.6717  -25.9999   -9.7010 S   0  0  0  0  0  0  0  0  0  0  0  0
   17.2931  -23.0533  -10.6655 C   0  0  0  0  0  0  0  0  0  0  0  0
   15.9183  -23.3217  -10.5951 O   0  0  0  0  0  0  0  0  0  0  0  0
   17.6656  -21.9961  -10.0864 O   0  0  0  0  0  0  0  0  0  0  0  0
  2  1  1  1
  2  9  1  0
  3  2  1  0
  4  3  1  0
  5  4  2  0
  6  5  1  0
  7  6  1  0
  7  8  2  0
  8  4  1  0
  9 16  1  0
  9 10  2  0
 12 11  1  0
 13 12  1  0
 13 14  1  1
 15 13  1  0
 15 16  1  6
 17 15  1  0
 17 18  2  0
 19 17  1  0
 20 19  1  0
 21 22  1  0
 20 21  1  1
 23 20  1  0
 23 24  1  0
 25 23  2  0
M  END
$$$$
