HIC.pdb
     RDKit          3D

 25 25  0  0  1  0  0  0  0  0999 V2000
   23.3454  -12.9383  -17.9496 N   0  0  0  0  0  0  0  0  0  0  0  0
   23.7552  -11.9612  -16.9616 C   0  0  1  0  0  0  0  0  0  0  0  0
   25.1982  -11.5536  -17.1601 C   0  0  0  0  0  0  0  0  0  0  0  0
   26.0848  -12.7307  -16.9736 C   0  0  0  0  0  0  0  0  0  0  0  0
   26.8860  -13.2810  -17.9796 C   0  0  0  0  0  0  0  0  0  0  0  0
   27.5340  -14.3216  -17.4309 N   0  0  0  0  0  0  0  0  0  0  0  0
   27.1850  -14.4565  -16.1358 C   0  0  0  0  0  0  0  0  0  0  0  0
   26.3001  -13.4786  -15.8715 N   0  0  0  0  0  0  0  0  0  0  0  0
   22.8465  -10.7867  -16.9421 C   0  0  0  0  0  0  0  0  0  0  0  0
   22.5467  -10.2127  -18.0203 O   0  0  0  0  0  0  0  0  0  0  0  0
   18.3754  -11.2957  -15.0895 C   0  0  0  0  0  0  0  0  0  0  0  0
   19.2097  -10.4286  -16.0376 C   0  0  0  0  0  0  0  0  0  0  0  0
   20.0141   -9.5029  -15.1647 C   0  0  2  0  0  0  0  0  0  0  0  0
   19.2822   -8.2299  -14.8437 C   0  0  0  0  0  0  0  0  0  0  0  0
   21.3485   -9.1359  -15.7652 C   0  0  2  0  0  0  0  0  0  0  0  0
   22.2758  -10.2512  -15.7550 N   0  0  0  0  0  0  0  0  0  0  0  0
   21.9555   -7.9440  -15.1171 C   0  0  0  0  0  0  0  0  0  0  0  0
   22.4212   -7.9620  -13.9510 O   0  0  0  0  0  0  0  0  0  0  0  0
   22.0313   -6.7071  -15.8165 N   0  0  0  0  0  0  0  0  0  0  0  0
   22.6714   -5.5291  -15.2076 C   0  0  1  0  0  0  0  0  0  0  0  0
   22.8326   -4.5015  -16.3292 C   0  0  0  0  0  0  0  0  0  0  0  0
   23.8983   -5.2572  -17.5904 S   0  0  0  0  0  0  0  0  0  0  0  0
   21.6723   -4.9573  -14.2672 C   0  0  0  0  0  0  0  0  0  0  0  0
   22.0569   -4.1113  -13.2167 O   0  0  0  0  0  0  0  0  0  0  0  0
   20.4345   -5.1883  -14.3468 O   0  0  0  0  0  0  0  0  0  0  0  0
  2  1  1  6
  2  9  1  0
  3  2  1  0
  4  3  1  0
  5  4  2  0
  6  5  1  0
  7  6  1  0
  7  8  2  0
  8  4  1  0
  9 16  1  0
  9 10  2  0
 12 11  1  0
 13 12  1  0
 13 14  1  6
 15 13  1  0
 15 16  1  1
 17 15  1  0
 17 18  2  0
 19 17  1  0
 20 19  1  0
 21 22  1  0
 20 21  1  6
 23 20  1  0
 23 24  1  0
 25 23  2  0
M  END
$$$$
