HIC.pdb
     RDKit          3D

 25 25  0  0  1  0  0  0  0  0999 V2000
   25.7831  -24.9638  -15.6051 N   0  0  0  0  0  0  0  0  0  0  0  0
   24.4911  -24.5806  -16.1368 C   0  0  1  0  0  0  0  0  0  0  0  0
   23.7896  -25.7594  -16.7740 C   0  0  0  0  0  0  0  0  0  0  0  0
   24.5332  -26.1949  -17.9839 C   0  0  0  0  0  0  0  0  0  0  0  0
   25.1489  -27.4432  -18.1237 C   0  0  0  0  0  0  0  0  0  0  0  0
   25.7122  -27.4614  -19.3427 N   0  0  0  0  0  0  0  0  0  0  0  0
   25.4851  -26.2941  -19.9775 C   0  0  0  0  0  0  0  0  0  0  0  0
   24.7646  -25.5315  -19.1357 N   0  0  0  0  0  0  0  0  0  0  0  0
   23.6463  -23.9255  -15.1059 C   0  0  0  0  0  0  0  0  0  0  0  0
   23.7261  -24.2966  -13.9069 O   0  0  0  0  0  0  0  0  0  0  0  0
   22.1379  -18.5417  -15.3988 C   0  0  0  0  0  0  0  0  0  0  0  0
   21.8607  -20.0328  -15.6153 C   0  0  0  0  0  0  0  0  0  0  0  0
   22.2292  -20.7215  -14.3285 C   0  0  2  0  0  0  0  0  0  0  0  0
   23.6702  -20.5142  -13.9543 C   0  0  0  0  0  0  0  0  0  0  0  0
   21.9625  -22.2061  -14.3559 C   0  0  2  0  0  0  0  0  0  0  0  0
   22.7275  -22.8780  -15.3889 N   0  0  0  0  0  0  0  0  0  0  0  0
   20.5160  -22.5219  -14.4860 C   0  0  0  0  0  0  0  0  0  0  0  0
   19.9536  -22.7097  -15.5931 O   0  0  0  0  0  0  0  0  0  0  0  0
   19.6966  -22.6249  -13.3272 N   0  0  0  0  0  0  0  0  0  0  0  0
   18.2632  -22.9438  -13.4374 C   0  0  1  0  0  0  0  0  0  0  0  0
   17.8524  -23.5406  -12.0902 C   0  0  0  0  0  0  0  0  0  0  0  0
   18.9024  -24.9961  -11.8135 S   0  0  0  0  0  0  0  0  0  0  0  0
   17.5578  -21.6395  -13.5411 C   0  0  0  0  0  0  0  0  0  0  0  0
   16.1949  -21.5688  -13.8648 O   0  0  0  0  0  0  0  0  0  0  0  0
   18.1240  -20.5285  -13.3492 O   0  0  0  0  0  0  0  0  0  0  0  0
  2  1  1  1
  2  9  1  0
  3  2  1  0
  4  3  1  0
  5  4  2  0
  6  5  1  0
  7  6  1  0
  7  8  2  0
  8  4  1  0
  9 16  1  0
  9 10  2  0
 12 11  1  0
 13 12  1  0
 13 14  1  6
 15 13  1  0
 15 16  1  6
 17 15  1  0
 17 18  2  0
 19 17  1  0
 20 19  1  0
 21 22  1  0
 20 21  1  1
 23 20  1  0
 23 24  1  0
 25 23  2  0
M  END
$$$$
