HIC.pdb
     RDKit          3D

 25 25  0  0  1  0  0  0  0  0999 V2000
   28.1204  -17.8428  -16.2281 N   0  0  0  0  0  0  0  0  0  0  0  0
   26.8832  -17.8148  -15.4748 C   0  0  1  0  0  0  0  0  0  0  0  0
   25.7442  -17.2769  -16.3122 C   0  0  0  0  0  0  0  0  0  0  0  0
   25.9661  -15.8366  -16.5996 C   0  0  0  0  0  0  0  0  0  0  0  0
   25.2669  -14.7933  -15.9835 C   0  0  0  0  0  0  0  0  0  0  0  0
   25.7449  -13.6499  -16.5011 N   0  0  0  0  0  0  0  0  0  0  0  0
   26.7057  -13.9158  -17.4084 C   0  0  0  0  0  0  0  0  0  0  0  0
   26.8294  -15.2543  -17.4575 N   0  0  0  0  0  0  0  0  0  0  0  0
   26.5637  -19.1443  -14.8953 C   0  0  0  0  0  0  0  0  0  0  0  0
   26.7866  -20.1857  -15.5644 O   0  0  0  0  0  0  0  0  0  0  0  0
   26.1436  -21.7947   -9.3904 C   0  0  0  0  0  0  0  0  0  0  0  0
   25.8997  -21.9865  -10.8906 C   0  0  0  0  0  0  0  0  0  0  0  0
   26.0195  -20.6222  -11.5152 C   0  0  2  0  0  0  0  0  0  0  0  0
   25.0627  -19.6278  -10.9193 C   0  0  0  0  0  0  0  0  0  0  0  0
   25.8086  -20.6361  -13.0090 C   0  0  2  0  0  0  0  0  0  0  0  0
   26.0076  -19.3264  -13.5995 N   0  0  0  0  0  0  0  0  0  0  0  0
   24.4821  -21.1871  -13.3911 C   0  0  0  0  0  0  0  0  0  0  0  0
   23.4736  -20.4660  -13.5910 O   0  0  0  0  0  0  0  0  0  0  0  0
   24.3056  -22.5904  -13.5475 N   0  0  0  0  0  0  0  0  0  0  0  0
   23.0266  -23.1462  -14.0203 C   0  0  1  0  0  0  0  0  0  0  0  0
   23.1402  -24.6649  -13.8762 C   0  0  0  0  0  0  0  0  0  0  0  0
   21.5614  -25.3690  -14.4323 S   0  0  0  0  0  0  0  0  0  0  0  0
   22.0008  -22.7157  -13.0344 C   0  0  0  0  0  0  0  0  0  0  0  0
   20.7017  -22.3698  -13.4342 O   0  0  0  0  0  0  0  0  0  0  0  0
   22.2226  -22.6333  -11.7951 O   0  0  0  0  0  0  0  0  0  0  0  0
  2  1  1  6
  2  9  1  0
  3  2  1  0
  4  3  1  0
  5  4  2  0
  6  5  1  0
  7  6  1  0
  7  8  2  0
  8  4  1  0
  9 16  1  0
  9 10  2  0
 12 11  1  0
 13 12  1  0
 13 14  1  1
 15 13  1  0
 15 16  1  1
 17 15  1  0
 17 18  2  0
 19 17  1  0
 20 19  1  0
 21 22  1  0
 20 21  1  1
 23 20  1  0
 23 24  1  0
 25 23  2  0
M  END
$$$$
