VIY.pdb
     RDKit          3D

 28 28  0  0  1  0  0  0  0  0999 V2000
    6.9409  -17.2229   22.2089 C   0  0  0  0  0  0  0  0  0  0  0  0
    7.2828  -16.3743   21.0175 C   0  0  1  0  0  0  0  0  0  0  0  0
    6.4106  -16.8081   19.8470 C   0  0  0  0  0  0  0  0  0  0  0  0
    6.9984  -14.8950   21.2475 C   0  0  2  0  0  0  0  0  0  0  0  0
    7.4318  -14.2110   20.0469 N   0  0  0  0  0  0  0  0  0  0  0  0
    7.8134  -14.4883   22.4219 C   0  0  0  0  0  0  0  0  0  0  0  0
    9.0557  -14.3552   22.2669 O   0  0  0  0  0  0  0  0  0  0  0  0
    5.8315  -11.1444   26.1554 C   0  0  0  0  0  0  0  0  0  0  0  0
    6.7672  -11.8995   25.2864 C   0  0  0  0  0  0  0  0  0  0  0  0
    7.2416  -13.2021   25.8548 C   0  0  2  0  0  0  0  0  0  0  0  0
    7.8442  -13.0833   27.2155 C   0  0  0  0  0  0  0  0  0  0  0  0
    8.1169  -13.9661   24.8765 C   0  0  2  0  0  0  0  0  0  0  0  0
    7.2848  -14.2421   23.6980 N   0  0  0  0  0  0  0  0  0  0  0  0
    8.5507  -15.2651   25.4399 C   0  0  0  0  0  0  0  0  0  0  0  0
    7.6651  -16.0719   25.8122 O   0  0  0  0  0  0  0  0  0  0  0  0
   12.1001  -23.0814   26.6561 O   0  0  0  0  0  0  0  0  0  0  0  0
   11.8080  -21.7900   26.2361 C   0  0  0  0  0  0  0  0  0  0  0  0
   10.5289  -21.4449   25.8536 C   0  0  0  0  0  0  0  0  0  0  0  0
   10.1686  -20.1914   25.4291 C   0  0  0  0  0  0  0  0  0  0  0  0
   11.1352  -19.1805   25.3696 C   0  0  0  0  0  0  0  0  0  0  0  0
   10.7772  -17.8286   24.8828 C   0  0  0  0  0  0  0  0  0  0  0  0
   10.2053  -17.0241   25.9884 C   0  0  2  0  0  0  0  0  0  0  0  0
    9.8962  -15.6584   25.5868 N   0  0  0  0  0  0  0  0  0  0  0  0
   11.0288  -17.0436   27.2098 C   0  0  0  0  0  0  0  0  0  0  0  0
   11.9134  -16.1949   27.4038 O   0  0  0  0  0  0  0  0  0  0  0  0
   12.4186  -19.5193   25.7508 C   0  0  0  0  0  0  0  0  0  0  0  0
   12.7504  -20.7881   26.1733 C   0  0  0  0  0  0  0  0  0  0  0  0
   10.8220  -18.0214   28.1663 O   0  0  0  0  0  0  0  0  0  0  0  0
  2  1  1  1
  2  4  1  0
  3  2  1  0
  4  5  1  6
  6  4  1  0
  6 13  1  0
  7  6  2  0
  9  8  1  0
 10  9  1  0
 10 12  1  0
 10 11  1  1
 12 14  1  0
 12 13  1  6
 14 23  1  0
 15 14  2  0
 16 17  1  0
 17 18  2  0
 18 19  1  0
 20 21  1  0
 20 19  2  0
 22 21  1  6
 22 24  1  0
 23 22  1  0
 24 25  2  0
 24 28  1  0
 26 20  1  0
 27 26  2  0
 27 17  1  0
M  END
$$$$
