VIY.pdb
     RDKit          3D

 28 28  0  0  1  0  0  0  0  0999 V2000
    7.4489  -18.0416   23.0835 C   0  0  0  0  0  0  0  0  0  0  0  0
    7.7789  -17.3004   21.8194 C   0  0  1  0  0  0  0  0  0  0  0  0
    6.9571  -17.8919   20.6820 C   0  0  0  0  0  0  0  0  0  0  0  0
    7.4189  -15.8215   21.8932 C   0  0  2  0  0  0  0  0  0  0  0  0
    7.7688  -15.2579   20.6059 N   0  0  0  0  0  0  0  0  0  0  0  0
    8.2512  -15.2403   22.9786 C   0  0  0  0  0  0  0  0  0  0  0  0
    9.4571  -14.9783   22.7286 O   0  0  0  0  0  0  0  0  0  0  0  0
    6.1246  -11.4899   26.0011 C   0  0  0  0  0  0  0  0  0  0  0  0
    7.0804  -12.3714   25.2867 C   0  0  0  0  0  0  0  0  0  0  0  0
    7.6864  -13.4540   26.1268 C   0  0  2  0  0  0  0  0  0  0  0  0
    8.3077  -12.9606   27.3914 C   0  0  0  0  0  0  0  0  0  0  0  0
    8.6050  -14.3552   25.3198 C   0  0  2  0  0  0  0  0  0  0  0  0
    7.7775  -14.9636   24.2699 N   0  0  0  0  0  0  0  0  0  0  0  0
    9.1579  -15.4480   26.1522 C   0  0  0  0  0  0  0  0  0  0  0  0
    8.3809  -16.3633   26.5162 O   0  0  0  0  0  0  0  0  0  0  0  0
   12.8414  -19.0726   21.8716 O   0  0  0  0  0  0  0  0  0  0  0  0
   12.7358  -18.5458   23.1526 C   0  0  0  0  0  0  0  0  0  0  0  0
   12.3636  -19.3428   24.2146 C   0  0  0  0  0  0  0  0  0  0  0  0
   12.2394  -18.8915   25.5039 C   0  0  0  0  0  0  0  0  0  0  0  0
   12.4993  -17.5461   25.7903 C   0  0  0  0  0  0  0  0  0  0  0  0
   12.3396  -17.0286   27.1685 C   0  0  0  0  0  0  0  0  0  0  0  0
   10.9292  -16.6405   27.4065 C   0  0  2  0  0  0  0  0  0  0  0  0
   10.5030  -15.5305   26.5650 N   0  0  0  0  0  0  0  0  0  0  0  0
   10.6288  -16.3762   28.8243 C   0  0  0  0  0  0  0  0  0  0  0  0
   10.1460  -15.2926   29.1893 O   0  0  0  0  0  0  0  0  0  0  0  0
   12.8721  -16.7420   24.7312 C   0  0  0  0  0  0  0  0  0  0  0  0
   12.9886  -17.2245   23.4459 C   0  0  0  0  0  0  0  0  0  0  0  0
   10.8851  -17.3462   29.7768 O   0  0  0  0  0  0  0  0  0  0  0  0
  2  1  1  1
  2  4  1  0
  3  2  1  0
  4  5  1  6
  6  4  1  0
  6 13  1  0
  7  6  2  0
  9  8  1  0
 10  9  1  0
 10 12  1  0
 10 11  1  1
 12 14  1  0
 12 13  1  6
 14 23  1  0
 15 14  2  0
 16 17  1  0
 17 18  2  0
 18 19  1  0
 20 21  1  0
 20 19  2  0
 22 21  1  1
 22 24  1  0
 23 22  1  0
 24 25  2  0
 24 28  1  0
 26 20  1  0
 27 26  2  0
 27 17  1  0
M  END
$$$$
