VIY.pdb
     RDKit          3D

 28 28  0  0  1  0  0  0  0  0999 V2000
    8.7561  -11.9737   18.5169 C   0  0  0  0  0  0  0  0  0  0  0  0
    8.6107  -13.1699   19.4137 C   0  0  1  0  0  0  0  0  0  0  0  0
    7.2744  -13.0736   20.1374 C   0  0  0  0  0  0  0  0  0  0  0  0
    8.5950  -14.4845   18.6434 C   0  0  2  0  0  0  0  0  0  0  0  0
    7.4683  -14.4059   17.7370 N   0  0  0  0  0  0  0  0  0  0  0  0
    8.4002  -15.5594   19.6511 C   0  0  0  0  0  0  0  0  0  0  0  0
    7.2230  -15.8571   19.9838 O   0  0  0  0  0  0  0  0  0  0  0  0
   10.4903  -20.1171   18.9844 C   0  0  0  0  0  0  0  0  0  0  0  0
    9.6538  -19.0103   19.5101 C   0  0  0  0  0  0  0  0  0  0  0  0
   10.0578  -18.5033   20.8609 C   0  0  2  0  0  0  0  0  0  0  0  0
   10.1276  -19.5649   21.9083 C   0  0  0  0  0  0  0  0  0  0  0  0
    9.2393  -17.2961   21.2850 C   0  0  2  0  0  0  0  0  0  0  0  0
    9.4486  -16.2670   20.2581 N   0  0  0  0  0  0  0  0  0  0  0  0
    9.7118  -16.7499   22.5778 C   0  0  0  0  0  0  0  0  0  0  0  0
   10.9192  -16.4230   22.6742 O   0  0  0  0  0  0  0  0  0  0  0  0
   10.9916  -14.4250   30.8824 O   0  0  0  0  0  0  0  0  0  0  0  0
   10.3716  -14.6726   29.6642 C   0  0  0  0  0  0  0  0  0  0  0  0
    9.9417  -15.9412   29.3364 C   0  0  0  0  0  0  0  0  0  0  0  0
    9.3228  -16.2582   28.1541 C   0  0  0  0  0  0  0  0  0  0  0  0
    9.1002  -15.2552   27.2031 C   0  0  0  0  0  0  0  0  0  0  0  0
    8.4641  -15.5799   25.9059 C   0  0  0  0  0  0  0  0  0  0  0  0
    9.4817  -16.0772   24.9500 C   0  0  2  0  0  0  0  0  0  0  0  0
    8.8943  -16.5713   23.7120 N   0  0  0  0  0  0  0  0  0  0  0  0
   10.3955  -17.0725   25.5370 C   0  0  0  0  0  0  0  0  0  0  0  0
   10.0463  -18.2529   25.6957 O   0  0  0  0  0  0  0  0  0  0  0  0
    9.5287  -13.9824   27.5247 C   0  0  0  0  0  0  0  0  0  0  0  0
   10.1478  -13.6943   28.7215 C   0  0  0  0  0  0  0  0  0  0  0  0
   11.6698  -16.6968   25.9226 O   0  0  0  0  0  0  0  0  0  0  0  0
  2  1  1  6
  2  4  1  0
  3  2  1  0
  4  5  1  6
  6  4  1  0
  6 13  1  0
  7  6  2  0
  9  8  1  0
 10  9  1  0
 10 12  1  0
 10 11  1  1
 12 14  1  0
 12 13  1  6
 14 23  1  0
 15 14  2  0
 16 17  1  0
 17 18  2  0
 18 19  1  0
 20 21  1  0
 20 19  2  0
 22 21  1  1
 22 24  1  0
 23 22  1  0
 24 25  2  0
 24 28  1  0
 26 20  1  0
 27 26  2  0
 27 17  1  0
M  END
$$$$
