VIY.pdb
     RDKit          3D

 28 28  0  0  1  0  0  0  0  0999 V2000
    8.0590  -17.6851   22.6780 C   0  0  0  0  0  0  0  0  0  0  0  0
    8.2510  -16.7514   21.5171 C   0  0  1  0  0  0  0  0  0  0  0  0
    7.5657  -17.3493   20.2957 C   0  0  0  0  0  0  0  0  0  0  0  0
    7.6151  -15.3861   21.7484 C   0  0  2  0  0  0  0  0  0  0  0  0
    7.8871  -14.6089   20.5572 N   0  0  0  0  0  0  0  0  0  0  0  0
    8.2916  -14.8035   22.9365 C   0  0  0  0  0  0  0  0  0  0  0  0
    9.4661  -14.3708   22.8001 O   0  0  0  0  0  0  0  0  0  0  0  0
    5.6577  -11.5398   26.0880 C   0  0  0  0  0  0  0  0  0  0  0  0
    6.7289  -12.2855   25.3828 C   0  0  0  0  0  0  0  0  0  0  0  0
    7.3544  -13.3906   26.1781 C   0  0  2  0  0  0  0  0  0  0  0  0
    7.8414  -12.9654   27.5237 C   0  0  0  0  0  0  0  0  0  0  0  0
    8.3969  -14.1506   25.3763 C   0  0  2  0  0  0  0  0  0  0  0  0
    7.7029  -14.7042   24.2061 N   0  0  0  0  0  0  0  0  0  0  0  0
    8.9547  -15.2828   26.1508 C   0  0  0  0  0  0  0  0  0  0  0  0
    8.1893  -16.2340   26.4394 O   0  0  0  0  0  0  0  0  0  0  0  0
   12.1203  -17.8777   21.1570 O   0  0  0  0  0  0  0  0  0  0  0  0
   12.0929  -17.6929   22.5335 C   0  0  0  0  0  0  0  0  0  0  0  0
   12.5538  -16.5220   23.0974 C   0  0  0  0  0  0  0  0  0  0  0  0
   12.5568  -16.2709   24.4459 C   0  0  0  0  0  0  0  0  0  0  0  0
   12.0692  -17.2424   25.3280 C   0  0  0  0  0  0  0  0  0  0  0  0
   12.0932  -17.0074   26.7899 C   0  0  0  0  0  0  0  0  0  0  0  0
   10.7559  -16.5724   27.2578 C   0  0  2  0  0  0  0  0  0  0  0  0
   10.2923  -15.3650   26.5875 N   0  0  0  0  0  0  0  0  0  0  0  0
   10.6676  -16.4327   28.7217 C   0  0  0  0  0  0  0  0  0  0  0  0
   10.3383  -15.3577   29.2474 O   0  0  0  0  0  0  0  0  0  0  0  0
   11.6064  -18.4179   24.7700 C   0  0  0  0  0  0  0  0  0  0  0  0
   11.6159  -18.6413   23.4105 C   0  0  0  0  0  0  0  0  0  0  0  0
   10.9549  -17.5129   29.5368 O   0  0  0  0  0  0  0  0  0  0  0  0
  2  1  1  1
  2  4  1  0
  3  2  1  0
  4  5  1  6
  6  4  1  0
  6 13  1  0
  7  6  2  0
  9  8  1  0
 10  9  1  0
 10 12  1  0
 10 11  1  1
 12 14  1  0
 12 13  1  6
 14 23  1  0
 15 14  2  0
 16 17  1  0
 17 18  2  0
 18 19  1  0
 20 21  1  0
 20 19  2  0
 22 21  1  1
 22 24  1  0
 23 22  1  0
 24 25  2  0
 24 28  1  0
 26 20  1  0
 27 26  2  0
 27 17  1  0
M  END
$$$$
