RMW.pdb
     RDKit          3D

 34 35  0  0  1  0  0  0  0  0999 V2000
   26.8578  -26.6587  -17.8483 N   0  0  0  0  0  0  0  0  0  0  0  0
   25.6064  -27.1303  -18.3286 C   0  0  0  0  0  0  0  0  0  0  0  0
   25.5675  -27.7195  -19.4760 N   0  0  0  0  0  0  0  0  0  0  0  0
   24.3945  -26.9753  -17.5890 N   0  0  0  0  0  0  0  0  0  0  0  0
   24.3664  -26.1767  -16.3797 C   0  0  0  0  0  0  0  0  0  0  0  0
   24.1286  -24.7196  -16.7905 C   0  0  0  0  0  0  0  0  0  0  0  0
   24.7137  -23.8480  -15.7094 C   0  0  0  0  0  0  0  0  0  0  0  0
   25.6624  -22.8193  -16.2679 C   0  0  2  0  0  0  0  0  0  0  0  0
   26.3499  -23.4749  -17.3791 N   0  0  0  0  0  0  0  0  0  0  0  0
   26.6740  -22.4900  -15.2402 C   0  0  0  0  0  0  0  0  0  0  0  0
   27.8965  -22.4592  -15.4804 O   0  0  0  0  0  0  0  0  0  0  0  0
   24.6895  -28.0926  -19.8802 C   0  0  0  0  0  0  0  0  0  0  0  0
   26.7041  -16.9903  -14.4268 S   0  0  0  0  0  0  0  0  0  0  0  0
   28.1236  -17.9225  -15.0875 C   0  0  0  0  0  0  0  0  0  0  0  0
   28.1977  -19.5796  -14.3553 C   0  0  0  0  0  0  0  0  0  0  0  0
   26.8961  -19.9193  -13.6604 C   0  0  2  0  0  0  0  0  0  0  0  0
   26.9843  -21.2878  -13.0252 N   0  0  0  0  0  0  0  0  0  0  0  0
   26.2727  -22.1892  -13.9073 C   0  0  0  0  0  0  0  0  0  0  0  0
   26.3750  -21.3210  -11.6810 O   0  0  0  0  0  0  0  0  0  0  0  0
   25.1785  -20.9542  -11.5637 N   0  0  0  0  0  0  0  0  0  0  0  0
   27.0875  -21.7500  -10.5211 C   0  0  2  0  0  0  0  0  0  0  0  0
   26.5049  -21.6744   -9.2198 C   0  0  0  0  0  0  0  0  0  0  0  0
   27.5394  -21.6132   -8.1160 C   0  0  0  0  0  0  0  0  0  0  0  0
   27.4041  -20.3892   -7.2994 C   0  0  0  0  0  0  0  0  0  0  0  0
   26.5817  -19.3009   -7.4646 N   0  0  0  0  0  0  0  0  0  0  0  0
   26.8030  -18.4191   -6.4692 C   0  0  0  0  0  0  0  0  0  0  0  0
   27.7585  -18.8856   -5.6314 C   0  0  0  0  0  0  0  0  0  0  0  0
   28.3328  -18.3639   -4.4796 C   0  0  0  0  0  0  0  0  0  0  0  0
   29.2952  -19.1092   -3.8600 C   0  0  0  0  0  0  0  0  0  0  0  0
   29.7207  -20.3407   -4.3158 C   0  0  0  0  0  0  0  0  0  0  0  0
   29.1223  -20.8205   -5.4640 C   0  0  0  0  0  0  0  0  0  0  0  0
   28.1383  -20.1111   -6.1402 C   0  0  0  0  0  0  0  0  0  0  0  0
   25.5415  -20.5512   -9.1377 O   0  0  0  0  0  0  0  0  0  0  0  0
   24.2848  -20.6560   -8.5638 O   0  0  0  0  0  0  0  0  0  0  0  0
  2  3  2  0
  2  1  1  0
  4  2  1  0
  5  4  1  0
  6  5  1  0
  7  6  1  0
  8  7  1  0
  8  9  1  6
 10 11  2  0
 10  8  1  0
 12 13  1  0
 14 13  1  0
 14 15  1  0
 16 15  1  6
 16 18  1  0
 16 17  1  0
 17 10  1  0
 18 19  2  0
 20 21  1  0
 20 18  1  0
 21 22  1  6
 23 22  1  0
 23 24  2  0
 25 24  1  0
 26 31  2  0
 26 25  1  0
 27 26  1  0
 28 29  1  0
 28 27  2  0
 29 30  2  0
 30 31  1  0
 31 23  1  0
 32 21  1  0
 33 32  1  0
 34 32  2  0
M  END
$$$$
