RMW.pdb
     RDKit          3D

 34 35  0  0  1  0  0  0  0  0999 V2000
   26.3757  -28.5631  -19.6943 N   0  0  0  0  0  0  0  0  0  0  0  0
   26.4279  -28.4621  -18.2779 C   0  0  0  0  0  0  0  0  0  0  0  0
   26.2023  -29.5201  -17.5745 N   0  0  0  0  0  0  0  0  0  0  0  0
   26.7201  -27.2351  -17.6079 N   0  0  0  0  0  0  0  0  0  0  0  0
   25.8811  -26.0698  -17.8055 C   0  0  0  0  0  0  0  0  0  0  0  0
   26.7955  -24.8952  -18.1696 C   0  0  0  0  0  0  0  0  0  0  0  0
   27.3516  -24.3443  -16.8819 C   0  0  0  0  0  0  0  0  0  0  0  0
   26.2617  -23.8749  -15.9535 C   0  0  2  0  0  0  0  0  0  0  0  0
   25.3704  -23.0532  -16.7709 N   0  0  0  0  0  0  0  0  0  0  0  0
   26.8558  -23.0043  -14.9158 C   0  0  0  0  0  0  0  0  0  0  0  0
   27.8460  -23.3398  -14.2374 O   0  0  0  0  0  0  0  0  0  0  0  0
   26.2623  -29.5236  -16.5401 C   0  0  0  0  0  0  0  0  0  0  0  0
   27.4174  -16.8176  -15.7651 S   0  0  0  0  0  0  0  0  0  0  0  0
   27.3437  -16.8215  -13.9443 C   0  0  0  0  0  0  0  0  0  0  0  0
   27.4703  -18.5125  -13.3023 C   0  0  0  0  0  0  0  0  0  0  0  0
   26.5388  -19.4429  -14.0502 C   0  0  2  0  0  0  0  0  0  0  0  0
   26.7130  -20.8619  -13.5602 N   0  0  0  0  0  0  0  0  0  0  0  0
   26.3008  -21.7196  -14.6517 C   0  0  0  0  0  0  0  0  0  0  0  0
   25.8932  -21.1459  -12.3658 O   0  0  0  0  0  0  0  0  0  0  0  0
   24.6729  -21.3979  -12.5310 N   0  0  0  0  0  0  0  0  0  0  0  0
   26.4300  -21.1447  -11.0433 C   0  0  2  0  0  0  0  0  0  0  0  0
   25.6120  -21.4288   -9.9081 C   0  0  0  0  0  0  0  0  0  0  0  0
   26.4140  -21.6079   -8.6365 C   0  0  0  0  0  0  0  0  0  0  0  0
   26.7788  -20.3124   -8.0265 C   0  0  0  0  0  0  0  0  0  0  0  0
   26.2516  -19.0594   -8.2270 N   0  0  0  0  0  0  0  0  0  0  0  0
   26.9017  -18.1719   -7.4479 C   0  0  0  0  0  0  0  0  0  0  0  0
   27.8594  -18.7956   -6.7226 C   0  0  0  0  0  0  0  0  0  0  0  0
   28.7818  -18.3343   -5.7925 C   0  0  0  0  0  0  0  0  0  0  0  0
   29.6270  -19.2499   -5.2331 C   0  0  0  0  0  0  0  0  0  0  0  0
   29.6106  -20.5951   -5.5422 C   0  0  0  0  0  0  0  0  0  0  0  0
   28.6772  -21.0092   -6.4716 C   0  0  0  0  0  0  0  0  0  0  0  0
   27.7902  -20.1280   -7.0761 C   0  0  0  0  0  0  0  0  0  0  0  0
   24.5509  -20.4057   -9.7532 O   0  0  0  0  0  0  0  0  0  0  0  0
   23.3170  -20.6584   -9.1761 O   0  0  0  0  0  0  0  0  0  0  0  0
  2  3  2  0
  2  1  1  0
  4  2  1  0
  5  4  1  0
  6  5  1  0
  7  6  1  0
  8  7  1  0
  8  9  1  6
 10 11  2  0
 10  8  1  0
 12 13  1  0
 14 13  1  0
 14 15  1  0
 16 15  1  6
 16 18  1  0
 16 17  1  0
 17 10  1  0
 18 19  2  0
 20 21  1  0
 20 18  1  0
 21 22  1  6
 23 22  1  0
 23 24  2  0
 25 24  1  0
 26 31  2  0
 26 25  1  0
 27 26  1  0
 28 29  1  0
 28 27  2  0
 29 30  2  0
 30 31  1  0
 31 23  1  0
 32 21  1  0
 33 32  1  0
 34 32  2  0
M  END
$$$$
