RMW.pdb
     RDKit          3D

 34 35  0  0  1  0  0  0  0  0999 V2000
   31.9519  -24.5867  -14.8412 N   0  0  0  0  0  0  0  0  0  0  0  0
   31.7069  -24.2760  -16.2059 C   0  0  0  0  0  0  0  0  0  0  0  0
   31.6610  -25.2417  -17.0606 N   0  0  0  0  0  0  0  0  0  0  0  0
   31.5106  -22.9374  -16.6633 N   0  0  0  0  0  0  0  0  0  0  0  0
   30.3675  -22.1663  -16.2164 C   0  0  0  0  0  0  0  0  0  0  0  0
   29.2125  -23.1443  -15.9762 C   0  0  0  0  0  0  0  0  0  0  0  0
   28.0088  -22.3279  -15.5817 C   0  0  0  0  0  0  0  0  0  0  0  0
   28.3001  -21.4253  -14.4109 C   0  0  2  0  0  0  0  0  0  0  0  0
   29.6147  -21.8298  -13.9152 N   0  0  0  0  0  0  0  0  0  0  0  0
   27.3120  -21.6897  -13.3425 C   0  0  0  0  0  0  0  0  0  0  0  0
   26.2562  -22.3219  -13.5392 O   0  0  0  0  0  0  0  0  0  0  0  0
   31.6522  -25.0790  -18.0838 C   0  0  0  0  0  0  0  0  0  0  0  0
   28.3553  -18.7738   -7.5725 S   0  0  0  0  0  0  0  0  0  0  0  0
   27.0706  -19.9719   -7.0882 C   0  0  0  0  0  0  0  0  0  0  0  0
   26.2872  -20.6976   -8.5536 C   0  0  0  0  0  0  0  0  0  0  0  0
   27.2412  -20.6970   -9.7294 C   0  0  1  0  0  0  0  0  0  0  0  0
   26.5710  -21.2913  -10.9466 N   0  0  0  0  0  0  0  0  0  0  0  0
   27.5418  -21.2179  -12.0185 C   0  0  0  0  0  0  0  0  0  0  0  0
   25.3498  -20.5549  -11.3284 O   0  0  0  0  0  0  0  0  0  0  0  0
   25.4825  -19.4312  -11.8757 N   0  0  0  0  0  0  0  0  0  0  0  0
   24.0371  -21.0669  -11.1010 C   0  0  1  0  0  0  0  0  0  0  0  0
   22.8915  -20.4763  -11.7154 C   0  0  0  0  0  0  0  0  0  0  0  0
   22.9868  -20.4433  -13.2260 C   0  0  0  0  0  0  0  0  0  0  0  0
   21.7693  -19.8785  -13.8440 C   0  0  0  0  0  0  0  0  0  0  0  0
   21.1465  -18.6721  -13.6321 N   0  0  0  0  0  0  0  0  0  0  0  0
   20.0601  -18.5853  -14.4254 C   0  0  0  0  0  0  0  0  0  0  0  0
   19.9318  -19.7073  -15.1717 C   0  0  0  0  0  0  0  0  0  0  0  0
   18.9985  -20.1006  -16.1220 C   0  0  0  0  0  0  0  0  0  0  0  0
   19.1636  -21.3273  -16.6999 C   0  0  0  0  0  0  0  0  0  0  0  0
   20.1994  -22.1855  -16.3904 C   0  0  0  0  0  0  0  0  0  0  0  0
   21.1036  -21.7534  -15.4405 C   0  0  0  0  0  0  0  0  0  0  0  0
   20.9910  -20.5177  -14.8167 C   0  0  0  0  0  0  0  0  0  0  0  0
   21.6469  -21.1355  -11.2540 O   0  0  0  0  0  0  0  0  0  0  0  0
   21.4536  -22.5074  -11.2646 O   0  0  0  0  0  0  0  0  0  0  0  0
  2  3  2  0
  2  1  1  0
  4  2  1  0
  5  4  1  0
  6  5  1  0
  7  6  1  0
  8  7  1  0
  8  9  1  1
 10 11  2  0
 10  8  1  0
 12 13  1  0
 14 13  1  0
 14 15  1  0
 16 15  1  1
 16 18  1  0
 16 17  1  0
 17 10  1  0
 18 19  2  0
 20 21  1  0
 20 18  1  0
 21 22  1  1
 23 22  1  0
 23 24  2  0
 25 24  1  0
 26 31  2  0
 26 25  1  0
 27 26  1  0
 28 29  1  0
 28 27  2  0
 29 30  2  0
 30 31  1  0
 31 23  1  0
 32 21  1  0
 33 32  1  0
 34 32  2  0
M  END
$$$$
