RMW.pdb
     RDKit          3D

 34 35  0  0  1  0  0  0  0  0999 V2000
   28.0267  -16.3006  -17.9907 N   0  0  0  0  0  0  0  0  0  0  0  0
   29.2139  -17.0713  -18.1152 C   0  0  0  0  0  0  0  0  0  0  0  0
   30.0980  -16.7081  -18.9822 N   0  0  0  0  0  0  0  0  0  0  0  0
   29.4621  -18.2297  -17.3176 N   0  0  0  0  0  0  0  0  0  0  0  0
   28.6430  -18.5139  -16.1561 C   0  0  0  0  0  0  0  0  0  0  0  0
   27.1809  -18.5420  -16.6142 C   0  0  0  0  0  0  0  0  0  0  0  0
   26.5801  -19.8313  -16.1166 C   0  0  0  0  0  0  0  0  0  0  0  0
   27.4253  -20.4692  -15.0448 C   0  0  2  0  0  0  0  0  0  0  0  0
   28.1821  -21.5269  -15.7128 N   0  0  0  0  0  0  0  0  0  0  0  0
   26.5376  -21.1074  -14.0485 C   0  0  0  0  0  0  0  0  0  0  0  0
   25.8322  -22.1010  -14.3097 O   0  0  0  0  0  0  0  0  0  0  0  0
   30.9785  -17.2332  -19.1322 C   0  0  0  0  0  0  0  0  0  0  0  0
   26.7213  -18.9596   -7.7900 S   0  0  0  0  0  0  0  0  0  0  0  0
   25.9267  -20.5933   -7.6462 C   0  0  0  0  0  0  0  0  0  0  0  0
   25.2479  -21.1177   -9.2436 C   0  0  0  0  0  0  0  0  0  0  0  0
   26.0844  -20.5808  -10.3858 C   0  0  2  0  0  0  0  0  0  0  0  0
   25.5580  -21.0949  -11.7059 N   0  0  0  0  0  0  0  0  0  0  0  0
   26.4585  -20.5931  -12.7228 C   0  0  0  0  0  0  0  0  0  0  0  0
   24.1849  -20.6276  -11.9809 O   0  0  0  0  0  0  0  0  0  0  0  0
   24.0015  -19.3960  -12.1525 N   0  0  0  0  0  0  0  0  0  0  0  0
   23.0690  -21.5140  -12.0582 C   0  0  1  0  0  0  0  0  0  0  0  0
   21.7405  -21.0236  -12.2408 C   0  0  0  0  0  0  0  0  0  0  0  0
   21.1401  -21.4348  -13.5684 C   0  0  0  0  0  0  0  0  0  0  0  0
   21.8551  -20.8270  -14.7098 C   0  0  0  0  0  0  0  0  0  0  0  0
   22.7429  -21.3855  -15.5975 N   0  0  0  0  0  0  0  0  0  0  0  0
   23.1424  -20.4471  -16.4790 C   0  0  0  0  0  0  0  0  0  0  0  0
   22.5447  -19.2630  -16.2087 C   0  0  0  0  0  0  0  0  0  0  0  0
   22.6220  -18.0138  -16.8106 C   0  0  0  0  0  0  0  0  0  0  0  0
   21.8708  -17.0067  -16.2748 C   0  0  0  0  0  0  0  0  0  0  0  0
   21.0482  -17.1663  -15.1779 C   0  0  0  0  0  0  0  0  0  0  0  0
   21.0023  -18.4248  -14.6118 C   0  0  0  0  0  0  0  0  0  0  0  0
   21.7418  -19.4899  -15.1093 C   0  0  0  0  0  0  0  0  0  0  0  0
   20.8754  -21.4068  -11.1001 O   0  0  0  0  0  0  0  0  0  0  0  0
   21.2798  -22.2489  -10.0768 O   0  0  0  0  0  0  0  0  0  0  0  0
  2  3  2  0
  2  1  1  0
  4  2  1  0
  5  4  1  0
  6  5  1  0
  7  6  1  0
  8  7  1  0
  8  9  1  6
 10 11  2  0
 10  8  1  0
 12 13  1  0
 14 13  1  0
 14 15  1  0
 16 15  1  1
 16 18  1  0
 16 17  1  0
 17 10  1  0
 18 19  2  0
 20 21  1  0
 20 18  1  0
 21 22  1  1
 23 22  1  0
 23 24  2  0
 25 24  1  0
 26 31  2  0
 26 25  1  0
 27 26  1  0
 28 29  1  0
 28 27  2  0
 29 30  2  0
 30 31  1  0
 31 23  1  0
 32 21  1  0
 33 32  1  0
 34 32  2  0
M  END
$$$$
