RMW.pdb
     RDKit          3D

 34 35  0  0  1  0  0  0  0  0999 V2000
   26.1901  -15.6415  -18.0789 N   0  0  0  0  0  0  0  0  0  0  0  0
   25.8657  -14.4367  -17.3991 C   0  0  0  0  0  0  0  0  0  0  0  0
   25.3166  -13.4790  -18.0673 N   0  0  0  0  0  0  0  0  0  0  0  0
   26.1254  -14.2489  -16.0073 N   0  0  0  0  0  0  0  0  0  0  0  0
   26.2606  -15.3891  -15.1226 C   0  0  0  0  0  0  0  0  0  0  0  0
   25.0382  -16.2887  -15.3341 C   0  0  0  0  0  0  0  0  0  0  0  0
   25.1872  -17.4712  -14.4117 C   0  0  0  0  0  0  0  0  0  0  0  0
   26.5020  -18.1791  -14.6122 C   0  0  2  0  0  0  0  0  0  0  0  0
   26.5479  -18.5377  -16.0288 N   0  0  0  0  0  0  0  0  0  0  0  0
   26.4976  -19.4328  -13.8274 C   0  0  0  0  0  0  0  0  0  0  0  0
   25.6088  -20.2989  -13.9415 O   0  0  0  0  0  0  0  0  0  0  0  0
   25.0535  -12.5764  -17.6318 C   0  0  0  0  0  0  0  0  0  0  0  0
   31.3388  -22.7289  -15.1875 S   0  0  0  0  0  0  0  0  0  0  0  0
   30.7539  -22.6603  -13.4630 C   0  0  0  0  0  0  0  0  0  0  0  0
   29.1344  -21.8505  -13.3683 C   0  0  0  0  0  0  0  0  0  0  0  0
   28.8159  -21.4499  -11.9433 C   0  0  2  0  0  0  0  0  0  0  0  0
   27.4836  -20.7388  -11.8856 N   0  0  0  0  0  0  0  0  0  0  0  0
   27.5374  -19.6980  -12.8910 C   0  0  0  0  0  0  0  0  0  0  0  0
   27.2259  -20.1399  -10.5611 O   0  0  0  0  0  0  0  0  0  0  0  0
   28.1937  -19.6273   -9.9443 N   0  0  0  0  0  0  0  0  0  0  0  0
   25.9310  -20.1220   -9.9611 C   0  0  1  0  0  0  0  0  0  0  0  0
   25.6072  -20.9774   -8.8647 C   0  0  0  0  0  0  0  0  0  0  0  0
   25.4342  -20.2237   -7.5631 C   0  0  0  0  0  0  0  0  0  0  0  0
   26.6732  -19.5271   -7.1594 C   0  0  0  0  0  0  0  0  0  0  0  0
   27.2930  -18.4316   -7.7106 N   0  0  0  0  0  0  0  0  0  0  0  0
   28.4050  -18.1455   -7.0042 C   0  0  0  0  0  0  0  0  0  0  0  0
   28.5535  -19.0237   -5.9848 C   0  0  0  0  0  0  0  0  0  0  0  0
   29.5158  -19.1551   -4.9922 C   0  0  0  0  0  0  0  0  0  0  0  0
   29.3654  -20.1762   -4.0975 C   0  0  0  0  0  0  0  0  0  0  0  0
   28.3170  -21.0736   -4.1300 C   0  0  0  0  0  0  0  0  0  0  0  0
   27.3840  -20.9051   -5.1337 C   0  0  0  0  0  0  0  0  0  0  0  0
   27.4805  -19.8871   -6.0736 C   0  0  0  0  0  0  0  0  0  0  0  0
   24.4258  -21.8148   -9.1801 O   0  0  0  0  0  0  0  0  0  0  0  0
   23.8806  -22.7377   -8.3022 O   0  0  0  0  0  0  0  0  0  0  0  0
  2  3  2  0
  2  1  1  0
  4  2  1  0
  5  4  1  0
  6  5  1  0
  7  6  1  0
  8  7  1  0
  8  9  1  6
 10 11  2  0
 10  8  1  0
 12 13  1  0
 14 13  1  0
 14 15  1  0
 16 15  1  6
 16 18  1  0
 16 17  1  0
 17 10  1  0
 18 19  2  0
 20 21  1  0
 20 18  1  0
 21 22  1  6
 23 22  1  0
 23 24  2  0
 25 24  1  0
 26 31  2  0
 26 25  1  0
 27 26  1  0
 28 29  1  0
 28 27  2  0
 29 30  2  0
 30 31  1  0
 31 23  1  0
 32 21  1  0
 33 32  1  0
 34 32  2  0
M  END
$$$$
