RMW.pdb
     RDKit          3D

 34 35  0  0  1  0  0  0  0  0999 V2000
   30.3417  -19.2668  -18.9473 N   0  0  0  0  0  0  0  0  0  0  0  0
   30.2859  -20.5563  -19.5415 C   0  0  0  0  0  0  0  0  0  0  0  0
   31.1822  -20.8738  -20.4138 N   0  0  0  0  0  0  0  0  0  0  0  0
   29.2762  -21.5099  -19.2085 N   0  0  0  0  0  0  0  0  0  0  0  0
   28.3120  -21.2277  -18.1637 C   0  0  0  0  0  0  0  0  0  0  0  0
   28.9627  -21.5832  -16.8226 C   0  0  0  0  0  0  0  0  0  0  0  0
   27.8684  -22.0729  -15.9094 C   0  0  0  0  0  0  0  0  0  0  0  0
   27.0818  -20.9345  -15.3131 C   0  0  2  0  0  0  0  0  0  0  0  0
   28.0721  -19.9433  -14.8955 N   0  0  0  0  0  0  0  0  0  0  0  0
   26.3834  -21.4156  -14.1012 C   0  0  0  0  0  0  0  0  0  0  0  0
   25.5392  -22.3320  -14.1262 O   0  0  0  0  0  0  0  0  0  0  0  0
   31.1919  -21.7927  -20.8923 C   0  0  0  0  0  0  0  0  0  0  0  0
   26.0229  -20.4986   -6.2089 S   0  0  0  0  0  0  0  0  0  0  0  0
   26.9094  -20.1923   -7.7713 C   0  0  0  0  0  0  0  0  0  0  0  0
   25.9127  -20.7277   -9.1881 C   0  0  0  0  0  0  0  0  0  0  0  0
   26.6879  -20.5747  -10.4797 C   0  0  1  0  0  0  0  0  0  0  0  0
   25.8437  -21.0190  -11.6519 N   0  0  0  0  0  0  0  0  0  0  0  0
   26.6611  -20.8315  -12.8324 C   0  0  0  0  0  0  0  0  0  0  0  0
   24.6006  -20.2325  -11.7760 O   0  0  0  0  0  0  0  0  0  0  0  0
   24.6632  -19.1103  -12.3388 N   0  0  0  0  0  0  0  0  0  0  0  0
   23.3427  -20.6948  -11.2850 C   0  0  1  0  0  0  0  0  0  0  0  0
   22.1353  -20.4839  -12.0173 C   0  0  0  0  0  0  0  0  0  0  0  0
   22.1823  -21.0756  -13.4101 C   0  0  0  0  0  0  0  0  0  0  0  0
   21.7689  -20.0992  -14.4392 C   0  0  0  0  0  0  0  0  0  0  0  0
   22.3820  -18.9440  -14.8610 N   0  0  0  0  0  0  0  0  0  0  0  0
   21.6379  -18.3716  -15.8285 C   0  0  0  0  0  0  0  0  0  0  0  0
   20.5323  -19.1136  -16.0726 C   0  0  0  0  0  0  0  0  0  0  0  0
   19.4728  -18.9561  -16.9565 C   0  0  0  0  0  0  0  0  0  0  0  0
   18.4954  -19.9103  -16.9478 C   0  0  0  0  0  0  0  0  0  0  0  0
   18.5079  -21.0105  -16.1143 C   0  0  0  0  0  0  0  0  0  0  0  0
   19.5802  -21.1267  -15.2523 C   0  0  0  0  0  0  0  0  0  0  0  0
   20.6054  -20.1907  -15.2127 C   0  0  0  0  0  0  0  0  0  0  0  0
   20.9623  -20.9665  -11.2507 O   0  0  0  0  0  0  0  0  0  0  0  0
   19.7637  -20.2770  -11.1634 O   0  0  0  0  0  0  0  0  0  0  0  0
  2  3  2  0
  2  1  1  0
  4  2  1  0
  5  4  1  0
  6  5  1  0
  7  6  1  0
  8  7  1  0
  8  9  1  1
 10 11  2  0
 10  8  1  0
 12 13  1  0
 14 13  1  0
 14 15  1  0
 16 15  1  1
 16 18  1  0
 16 17  1  0
 17 10  1  0
 18 19  2  0
 20 21  1  0
 20 18  1  0
 21 22  1  1
 23 22  1  0
 23 24  2  0
 25 24  1  0
 26 31  2  0
 26 25  1  0
 27 26  1  0
 28 29  1  0
 28 27  2  0
 29 30  2  0
 30 31  1  0
 31 23  1  0
 32 21  1  0
 33 32  1  0
 34 32  2  0
M  END
$$$$
