RMW.pdb
     RDKit          3D

 34 35  0  0  1  0  0  0  0  0999 V2000
   28.7347  -19.5200  -19.0010 N   0  0  0  0  0  0  0  0  0  0  0  0
   29.5035  -20.7062  -19.1455 C   0  0  0  0  0  0  0  0  0  0  0  0
   30.4089  -20.7474  -20.0641 N   0  0  0  0  0  0  0  0  0  0  0  0
   29.3100  -21.8505  -18.3131 N   0  0  0  0  0  0  0  0  0  0  0  0
   28.3438  -21.8209  -17.2330 C   0  0  0  0  0  0  0  0  0  0  0  0
   29.1222  -21.8277  -15.9130 C   0  0  0  0  0  0  0  0  0  0  0  0
   28.1717  -22.2806  -14.8347 C   0  0  0  0  0  0  0  0  0  0  0  0
   27.0646  -21.2846  -14.6058 C   0  0  2  0  0  0  0  0  0  0  0  0
   27.7269  -20.0063  -14.3509 N   0  0  0  0  0  0  0  0  0  0  0  0
   26.3231  -21.6624  -13.3830 C   0  0  0  0  0  0  0  0  0  0  0  0
   25.8413  -22.7984  -13.2083 O   0  0  0  0  0  0  0  0  0  0  0  0
   30.9238  -21.6152  -20.2991 C   0  0  0  0  0  0  0  0  0  0  0  0
   28.3260  -20.6925   -6.8670 S   0  0  0  0  0  0  0  0  0  0  0  0
   27.0275  -19.8229   -7.8043 C   0  0  0  0  0  0  0  0  0  0  0  0
   26.5223  -20.7942   -9.2496 C   0  0  0  0  0  0  0  0  0  0  0  0
   25.6076  -19.9874  -10.1469 C   0  0  2  0  0  0  0  0  0  0  0  0
   25.1266  -20.8357  -11.3015 N   0  0  0  0  0  0  0  0  0  0  0  0
   26.1311  -20.7147  -12.3375 C   0  0  0  0  0  0  0  0  0  0  0  0
   23.8193  -20.3862  -11.8194 O   0  0  0  0  0  0  0  0  0  0  0  0
   23.7065  -19.1887  -12.1842 N   0  0  0  0  0  0  0  0  0  0  0  0
   22.6898  -21.2530  -11.9200 C   0  0  1  0  0  0  0  0  0  0  0  0
   21.5120  -20.8613  -12.6257 C   0  0  0  0  0  0  0  0  0  0  0  0
   21.5636  -21.2158  -14.0967 C   0  0  0  0  0  0  0  0  0  0  0  0
   20.3632  -20.7480  -14.8200 C   0  0  0  0  0  0  0  0  0  0  0  0
   20.0054  -19.4818  -15.2163 N   0  0  0  0  0  0  0  0  0  0  0  0
   18.8173  -19.5320  -15.8514 C   0  0  0  0  0  0  0  0  0  0  0  0
   18.3606  -20.8055  -15.8947 C   0  0  0  0  0  0  0  0  0  0  0  0
   17.2094  -21.3720  -16.4263 C   0  0  0  0  0  0  0  0  0  0  0  0
   17.0509  -22.7223  -16.2950 C   0  0  0  0  0  0  0  0  0  0  0  0
   17.9669  -23.5426  -15.6678 C   0  0  0  0  0  0  0  0  0  0  0  0
   19.0964  -22.9367  -15.1543 C   0  0  0  0  0  0  0  0  0  0  0  0
   19.3160  -21.5691  -15.2553 C   0  0  0  0  0  0  0  0  0  0  0  0
   20.2989  -21.4025  -11.9685 O   0  0  0  0  0  0  0  0  0  0  0  0
   19.0946  -20.7213  -11.8957 O   0  0  0  0  0  0  0  0  0  0  0  0
  2  3  2  0
  2  1  1  0
  4  2  1  0
  5  4  1  0
  6  5  1  0
  7  6  1  0
  8  7  1  0
  8  9  1  1
 10 11  2  0
 10  8  1  0
 12 13  1  0
 14 13  1  0
 14 15  1  0
 16 15  1  1
 16 18  1  0
 16 17  1  0
 17 10  1  0
 18 19  2  0
 20 21  1  0
 20 18  1  0
 21 22  1  1
 23 22  1  0
 23 24  2  0
 25 24  1  0
 26 31  2  0
 26 25  1  0
 27 26  1  0
 28 29  1  0
 28 27  2  0
 29 30  2  0
 30 31  1  0
 31 23  1  0
 32 21  1  0
 33 32  1  0
 34 32  2  0
M  END
$$$$
