RMW.pdb
     RDKit          3D

 34 35  0  0  1  0  0  0  0  0999 V2000
   23.8186  -17.4708  -20.0735 N   0  0  0  0  0  0  0  0  0  0  0  0
   24.1656  -18.8433  -20.1952 C   0  0  0  0  0  0  0  0  0  0  0  0
   24.5569  -19.2820  -21.3439 N   0  0  0  0  0  0  0  0  0  0  0  0
   24.0964  -19.7511  -19.0948 N   0  0  0  0  0  0  0  0  0  0  0  0
   23.3316  -19.4160  -17.9101 C   0  0  0  0  0  0  0  0  0  0  0  0
   24.2850  -18.7439  -16.9163 C   0  0  0  0  0  0  0  0  0  0  0  0
   24.4560  -19.6858  -15.7524 C   0  0  0  0  0  0  0  0  0  0  0  0
   23.1607  -19.9124  -15.0169 C   0  0  2  0  0  0  0  0  0  0  0  0
   22.1923  -19.0038  -15.6288 N   0  0  0  0  0  0  0  0  0  0  0  0
   23.3323  -19.5073  -13.6047 C   0  0  0  0  0  0  0  0  0  0  0  0
   23.7703  -18.3895  -13.2704 O   0  0  0  0  0  0  0  0  0  0  0  0
   24.8025  -20.2754  -21.5057 C   0  0  0  0  0  0  0  0  0  0  0  0
   19.0743  -21.0832   -8.9440 S   0  0  0  0  0  0  0  0  0  0  0  0
   20.6691  -21.3886   -8.1170 C   0  0  0  0  0  0  0  0  0  0  0  0
   22.0088  -20.5097   -8.9658 C   0  0  0  0  0  0  0  0  0  0  0  0
   21.9324  -20.7287  -10.4621 C   0  0  1  0  0  0  0  0  0  0  0  0
   23.1251  -20.0992  -11.1441 N   0  0  0  0  0  0  0  0  0  0  0  0
   22.9930  -20.4058  -12.5531 C   0  0  0  0  0  0  0  0  0  0  0  0
   24.4052  -20.6307  -10.6358 O   0  0  0  0  0  0  0  0  0  0  0  0
   24.7568  -21.7803  -11.0029 N   0  0  0  0  0  0  0  0  0  0  0  0
   25.2497  -19.8945   -9.7516 C   0  0  2  0  0  0  0  0  0  0  0  0
   26.4966  -20.4243   -9.3007 C   0  0  0  0  0  0  0  0  0  0  0  0
   27.3581  -19.3896   -8.6082 C   0  0  0  0  0  0  0  0  0  0  0  0
   28.2379  -19.9968   -7.5880 C   0  0  0  0  0  0  0  0  0  0  0  0
   29.0739  -21.0839   -7.6734 N   0  0  0  0  0  0  0  0  0  0  0  0
   29.6846  -21.2715   -6.4863 C   0  0  0  0  0  0  0  0  0  0  0  0
   29.2809  -20.3346   -5.5965 C   0  0  0  0  0  0  0  0  0  0  0  0
   29.6084  -20.1000   -4.2674 C   0  0  0  0  0  0  0  0  0  0  0  0
   29.0051  -19.0444   -3.6448 C   0  0  0  0  0  0  0  0  0  0  0  0
   28.0970  -18.2089   -4.2632 C   0  0  0  0  0  0  0  0  0  0  0  0
   27.8013  -18.4793   -5.5846 C   0  0  0  0  0  0  0  0  0  0  0  0
   28.3806  -19.5370   -6.2733 C   0  0  0  0  0  0  0  0  0  0  0  0
   26.2855  -21.6234   -8.4556 O   0  0  0  0  0  0  0  0  0  0  0  0
   27.1044  -22.7406   -8.4872 O   0  0  0  0  0  0  0  0  0  0  0  0
  2  3  2  0
  2  1  1  0
  4  2  1  0
  5  4  1  0
  6  5  1  0
  7  6  1  0
  8  7  1  0
  8  9  1  6
 10 11  2  0
 10  8  1  0
 12 13  1  0
 14 13  1  0
 14 15  1  0
 16 15  1  6
 16 18  1  0
 16 17  1  0
 17 10  1  0
 18 19  2  0
 20 21  1  0
 20 18  1  0
 21 22  1  1
 23 22  1  0
 23 24  2  0
 25 24  1  0
 26 31  2  0
 26 25  1  0
 27 26  1  0
 28 29  1  0
 28 27  2  0
 29 30  2  0
 30 31  1  0
 31 23  1  0
 32 21  1  0
 33 32  1  0
 34 32  2  0
M  END
$$$$
