RMW.pdb
     RDKit          3D

 34 35  0  0  1  0  0  0  0  0999 V2000
   19.8801  -24.0077  -10.3290 N   0  0  0  0  0  0  0  0  0  0  0  0
   19.6121  -25.3967  -10.1953 C   0  0  0  0  0  0  0  0  0  0  0  0
   20.3304  -26.2319  -10.8675 N   0  0  0  0  0  0  0  0  0  0  0  0
   18.5792  -25.8991   -9.3466 N   0  0  0  0  0  0  0  0  0  0  0  0
   17.8900  -25.0186   -8.4243 C   0  0  0  0  0  0  0  0  0  0  0  0
   18.8132  -24.7895   -7.2228 C   0  0  0  0  0  0  0  0  0  0  0  0
   17.9521  -24.8068   -5.9863 C   0  0  0  0  0  0  0  0  0  0  0  0
   17.3121  -26.1528   -5.7650 C   0  0  2  0  0  0  0  0  0  0  0  0
   16.3181  -26.2993   -6.8271 N   0  0  0  0  0  0  0  0  0  0  0  0
   16.5943  -26.1371   -4.4718 C   0  0  0  0  0  0  0  0  0  0  0  0
   15.5471  -25.4870   -4.2876 O   0  0  0  0  0  0  0  0  0  0  0  0
   20.1734  -27.2554  -10.8315 C   0  0  0  0  0  0  0  0  0  0  0  0
   15.6912  -32.3626   -1.6545 S   0  0  0  0  0  0  0  0  0  0  0  0
   16.8351  -30.9756   -1.3569 C   0  0  0  0  0  0  0  0  0  0  0  0
   16.0942  -29.4092   -1.8908 C   0  0  0  0  0  0  0  0  0  0  0  0
   16.9289  -28.2339   -1.4277 C   0  0  2  0  0  0  0  0  0  0  0  0
   16.4397  -26.9584   -2.0740 N   0  0  0  0  0  0  0  0  0  0  0  0
   17.0899  -26.8850   -3.3658 C   0  0  0  0  0  0  0  0  0  0  0  0
   16.7772  -25.7623   -1.2772 O   0  0  0  0  0  0  0  0  0  0  0  0
   17.5775  -24.9281   -1.7707 N   0  0  0  0  0  0  0  0  0  0  0  0
   16.2337  -25.5208    0.0202 C   0  0  1  0  0  0  0  0  0  0  0  0
   16.5050  -24.3102    0.7270 C   0  0  0  0  0  0  0  0  0  0  0  0
   16.1180  -23.0738   -0.0563 C   0  0  0  0  0  0  0  0  0  0  0  0
   15.4552  -22.0650    0.7959 C   0  0  0  0  0  0  0  0  0  0  0  0
   15.8569  -21.5103    1.9872 N   0  0  0  0  0  0  0  0  0  0  0  0
   14.9282  -20.6262    2.4035 C   0  0  0  0  0  0  0  0  0  0  0  0
   13.9041  -20.5689    1.5201 C   0  0  0  0  0  0  0  0  0  0  0  0
   12.7287  -19.8297    1.4928 C   0  0  0  0  0  0  0  0  0  0  0  0
   11.8901  -20.0152    0.4306 C   0  0  0  0  0  0  0  0  0  0  0  0
   12.1493  -20.8903   -0.6049 C   0  0  0  0  0  0  0  0  0  0  0  0
   13.3293  -21.6042   -0.5365 C   0  0  0  0  0  0  0  0  0  0  0  0
   14.2234  -21.4608    0.5165 C   0  0  0  0  0  0  0  0  0  0  0  0
   15.8794  -24.3321    2.0703 O   0  0  0  0  0  0  0  0  0  0  0  0
   16.4662  -23.7874    3.2011 O   0  0  0  0  0  0  0  0  0  0  0  0
  2  3  2  0
  2  1  1  0
  4  2  1  0
  5  4  1  0
  6  5  1  0
  7  6  1  0
  8  7  1  0
  8  9  1  6
 10 11  2  0
 10  8  1  0
 12 13  1  0
 14 13  1  0
 14 15  1  0
 16 15  1  6
 16 18  1  0
 16 17  1  0
 17 10  1  0
 18 19  2  0
 20 21  1  0
 20 18  1  0
 21 22  1  1
 23 22  1  0
 23 24  2  0
 25 24  1  0
 26 31  2  0
 26 25  1  0
 27 26  1  0
 28 29  1  0
 28 27  2  0
 29 30  2  0
 30 31  1  0
 31 23  1  0
 32 21  1  0
 33 32  1  0
 34 32  2  0
M  END
$$$$
