YHW.pdb
     RDKit          3D

 37 40  0  0  1  0  0  0  0  0999 V2000
    6.9508  -11.9742   17.7883 O   0  0  0  0  0  0  0  0  0  0  0  0
    7.3375  -12.8405   18.7904 C   0  0  0  0  0  0  0  0  0  0  0  0
    6.4963  -13.7888   19.3288 C   0  0  0  0  0  0  0  0  0  0  0  0
    6.9261  -14.6197   20.3161 C   0  0  0  0  0  0  0  0  0  0  0  0
    8.2194  -14.5807   20.8501 C   0  0  0  0  0  0  0  0  0  0  0  0
    8.6192  -15.5155   21.9221 C   0  0  0  0  0  0  0  0  0  0  0  0
    9.8023  -16.3256   21.4908 C   0  0  2  0  0  0  0  0  0  0  0  0
    9.5459  -16.9161   20.1885 N   0  0  0  0  0  0  0  0  0  0  0  0
   10.0979  -17.3703   22.5001 C   0  0  0  0  0  0  0  0  0  0  0  0
   10.1890  -18.5875   22.1781 O   0  0  0  0  0  0  0  0  0  0  0  0
    9.0543  -13.6342   20.3103 C   0  0  0  0  0  0  0  0  0  0  0  0
    8.6286  -12.7874   19.3096 C   0  0  0  0  0  0  0  0  0  0  0  0
   10.2932  -17.0473   23.8825 N   0  0  0  0  0  0  0  0  0  0  0  0
   11.6375  -17.1583   24.4735 C   0  0  1  0  0  0  0  0  0  0  0  0
   12.5175  -16.2600   23.6258 C   0  0  0  0  0  0  0  0  0  0  0  0
   13.0876  -17.0251   22.4771 C   0  0  0  0  0  0  0  0  0  0  0  0
   13.3301  -16.4986   21.2322 C   0  0  0  0  0  0  0  0  0  0  0  0
   13.8475  -17.4515   20.4274 N   0  0  0  0  0  0  0  0  0  0  0  0
   13.9331  -18.5765   21.1562 C   0  0  0  0  0  0  0  0  0  0  0  0
   13.4684  -18.3091   22.4032 N   0  0  0  0  0  0  0  0  0  0  0  0
   11.5939  -16.7250   25.8968 C   0  0  0  0  0  0  0  0  0  0  0  0
   12.6057  -16.7853   26.6082 O   0  0  0  0  0  0  0  0  0  0  0  0
   10.3938  -16.2364   26.4610 N   0  0  0  0  0  0  0  0  0  0  0  0
    9.9978  -16.4004   27.8514 C   0  0  1  0  0  0  0  0  0  0  0  0
    8.5502  -16.6544   27.9936 C   0  0  0  0  0  0  0  0  0  0  0  0
    7.7214  -15.7348   27.2077 C   0  0  0  0  0  0  0  0  0  0  0  0
    6.5887  -16.0690   26.4921 C   0  0  0  0  0  0  0  0  0  0  0  0
    6.0902  -15.0107   25.8589 N   0  0  0  0  0  0  0  0  0  0  0  0
    6.8725  -13.9573   26.1371 C   0  0  0  0  0  0  0  0  0  0  0  0
    6.7733  -12.6326   25.7420 C   0  0  0  0  0  0  0  0  0  0  0  0
    7.7079  -11.7122   26.1902 C   0  0  0  0  0  0  0  0  0  0  0  0
    8.7171  -12.1368   27.0206 C   0  0  0  0  0  0  0  0  0  0  0  0
    8.8271  -13.4486   27.4192 C   0  0  0  0  0  0  0  0  0  0  0  0
    7.8918  -14.3678   26.9693 C   0  0  0  0  0  0  0  0  0  0  0  0
   10.8498  -17.2779   28.6175 C   0  0  0  0  0  0  0  0  0  0  0  0
   11.9048  -17.9174   27.9311 O   0  0  0  0  0  0  0  0  0  0  0  0
   10.7222  -17.5111   29.8356 O   0  0  0  0  0  0  0  0  0  0  0  0
  2  1  1  0
  3  2  2  0
  4  3  1  0
  5  4  2  0
  5 11  1  0
  6  5  1  0
  7  9  1  0
  7  6  1  0
  7  8  1  6
  9 10  2  0
 11 12  2  0
 12  2  1  0
 13 14  1  0
 13  9  1  0
 14 15  1  6
 15 16  1  0
 16 17  2  0
 18 17  1  0
 19 18  1  0
 20 19  2  0
 20 16  1  0
 21 23  1  0
 21 14  1  0
 22 21  2  0
 24 23  1  0
 24 35  1  0
 24 25  1  6
 26 25  1  0
 27 26  2  0
 28 27  1  0
 29 28  1  0
 29 34  2  0
 30 29  1  0
 31 30  2  0
 31 32  1  0
 32 33  2  0
 33 34  1  0
 34 26  1  0
 35 36  1  0
 37 35  2  0
M  END
$$$$
