YHW.pdb
     RDKit          3D

 37 40  0  0  1  0  0  0  0  0999 V2000
    2.0839  -21.9570   23.3590 O   0  0  0  0  0  0  0  0  0  0  0  0
    3.3534  -21.4181   23.3116 C   0  0  0  0  0  0  0  0  0  0  0  0
    3.7592  -20.5380   22.3332 C   0  0  0  0  0  0  0  0  0  0  0  0
    5.0228  -20.0346   22.3309 C   0  0  0  0  0  0  0  0  0  0  0  0
    5.9856  -20.3598   23.2935 C   0  0  0  0  0  0  0  0  0  0  0  0
    7.3404  -19.7740   23.2303 C   0  0  0  0  0  0  0  0  0  0  0  0
    7.8797  -19.8608   21.8362 C   0  0  2  0  0  0  0  0  0  0  0  0
    7.9735  -21.2526   21.4307 N   0  0  0  0  0  0  0  0  0  0  0  0
    9.2015  -19.1940   21.7603 C   0  0  0  0  0  0  0  0  0  0  0  0
   10.2421  -19.7449   22.2155 O   0  0  0  0  0  0  0  0  0  0  0  0
    5.5765  -21.2372   24.2668 C   0  0  0  0  0  0  0  0  0  0  0  0
    4.2985  -21.7530   24.2781 C   0  0  0  0  0  0  0  0  0  0  0  0
    9.3579  -17.8982   21.1687 N   0  0  0  0  0  0  0  0  0  0  0  0
   10.6530  -17.2042   21.2670 C   0  0  1  0  0  0  0  0  0  0  0  0
   10.8481  -16.5383   19.9185 C   0  0  0  0  0  0  0  0  0  0  0  0
   10.8995  -17.5644   18.8348 C   0  0  0  0  0  0  0  0  0  0  0  0
   10.8421  -18.9208   19.0409 C   0  0  0  0  0  0  0  0  0  0  0  0
   10.9105  -19.5650   17.8561 N   0  0  0  0  0  0  0  0  0  0  0  0
   11.0109  -18.6238   16.9031 C   0  0  0  0  0  0  0  0  0  0  0  0
   11.0036  -17.4080   17.5067 N   0  0  0  0  0  0  0  0  0  0  0  0
   10.6074  -16.2188   22.3816 C   0  0  0  0  0  0  0  0  0  0  0  0
   10.7049  -15.0048   22.1576 O   0  0  0  0  0  0  0  0  0  0  0  0
   10.4518  -16.6538   23.7172 N   0  0  0  0  0  0  0  0  0  0  0  0
    9.6850  -15.9562   24.7382 C   0  0  1  0  0  0  0  0  0  0  0  0
    8.3672  -15.5125   24.2414 C   0  0  0  0  0  0  0  0  0  0  0  0
    7.5748  -14.8071   25.2537 C   0  0  0  0  0  0  0  0  0  0  0  0
    6.7071  -15.3869   26.1579 C   0  0  0  0  0  0  0  0  0  0  0  0
    6.1159  -14.4669   26.9151 N   0  0  0  0  0  0  0  0  0  0  0  0
    6.5735  -13.2644   26.5358 C   0  0  0  0  0  0  0  0  0  0  0  0
    6.2872  -11.9980   27.0205 C   0  0  0  0  0  0  0  0  0  0  0  0
    6.9189  -10.8943   26.4688 C   0  0  0  0  0  0  0  0  0  0  0  0
    7.8195  -11.0822   25.4481 C   0  0  0  0  0  0  0  0  0  0  0  0
    8.1117  -12.3336   24.9575 C   0  0  0  0  0  0  0  0  0  0  0  0
    7.4783  -13.4362   25.5102 C   0  0  0  0  0  0  0  0  0  0  0  0
    9.6638  -16.6117   26.0239 C   0  0  0  0  0  0  0  0  0  0  0  0
    9.3361  -17.9848   26.0451 O   0  0  0  0  0  0  0  0  0  0  0  0
    9.9125  -16.0558   27.1117 O   0  0  0  0  0  0  0  0  0  0  0  0
  2  1  1  0
  3  2  2  0
  4  3  1  0
  5  4  2  0
  5 11  1  0
  6  5  1  0
  7  9  1  0
  7  6  1  0
  7  8  1  1
  9 10  2  0
 11 12  2  0
 12  2  1  0
 13 14  1  0
 13  9  1  0
 14 15  1  6
 15 16  1  0
 16 17  2  0
 18 17  1  0
 19 18  1  0
 20 19  2  0
 20 16  1  0
 21 23  1  0
 21 14  1  0
 22 21  2  0
 24 23  1  0
 24 35  1  0
 24 25  1  6
 26 25  1  0
 27 26  2  0
 28 27  1  0
 29 28  1  0
 29 34  2  0
 30 29  1  0
 31 30  2  0
 31 32  1  0
 32 33  2  0
 33 34  1  0
 34 26  1  0
 35 36  1  0
 37 35  2  0
M  END
$$$$
