YHW.pdb
     RDKit          3D

 37 40  0  0  1  0  0  0  0  0999 V2000
    6.9106  -12.2896   16.8026 O   0  0  0  0  0  0  0  0  0  0  0  0
    7.4066  -12.9025   17.9351 C   0  0  0  0  0  0  0  0  0  0  0  0
    6.6444  -13.7173   18.7424 C   0  0  0  0  0  0  0  0  0  0  0  0
    7.1809  -14.2985   19.8490 C   0  0  0  0  0  0  0  0  0  0  0  0
    8.5115  -14.1217   20.2463 C   0  0  0  0  0  0  0  0  0  0  0  0
    9.0285  -14.7854   21.4607 C   0  0  0  0  0  0  0  0  0  0  0  0
    9.8054  -16.0113   21.0923 C   0  0  2  0  0  0  0  0  0  0  0  0
    9.3994  -16.4741   19.7766 N   0  0  0  0  0  0  0  0  0  0  0  0
    9.6035  -17.0666   22.1136 C   0  0  0  0  0  0  0  0  0  0  0  0
    9.0489  -18.1631   21.8242 O   0  0  0  0  0  0  0  0  0  0  0  0
    9.2673  -13.3090   19.4384 C   0  0  0  0  0  0  0  0  0  0  0  0
    8.7332  -12.7154   18.3151 C   0  0  0  0  0  0  0  0  0  0  0  0
   10.0273  -16.8910   23.4712 N   0  0  0  0  0  0  0  0  0  0  0  0
   10.2179  -18.0699   24.3329 C   0  0  1  0  0  0  0  0  0  0  0  0
   11.2107  -18.9448   23.5921 C   0  0  0  0  0  0  0  0  0  0  0  0
   10.4984  -19.8460   22.6379 C   0  0  0  0  0  0  0  0  0  0  0  0
    9.4011  -20.6082   22.9554 C   0  0  0  0  0  0  0  0  0  0  0  0
    9.0003  -21.3043   21.8700 N   0  0  0  0  0  0  0  0  0  0  0  0
    9.8377  -20.9866   20.8690 C   0  0  0  0  0  0  0  0  0  0  0  0
   10.7474  -20.0982   21.3442 N   0  0  0  0  0  0  0  0  0  0  0  0
   10.7287  -17.6383   25.6627 C   0  0  0  0  0  0  0  0  0  0  0  0
   11.8549  -17.9784   26.0490 O   0  0  0  0  0  0  0  0  0  0  0  0
    9.9344  -16.8313   26.5083 N   0  0  0  0  0  0  0  0  0  0  0  0
   10.3171  -16.3889   27.8405 C   0  0  1  0  0  0  0  0  0  0  0  0
    9.4030  -15.3576   28.3707 C   0  0  0  0  0  0  0  0  0  0  0  0
    8.3062  -15.0300   27.4541 C   0  0  0  0  0  0  0  0  0  0  0  0
    7.4702  -15.9339   26.8289 C   0  0  0  0  0  0  0  0  0  0  0  0
    6.6028  -15.3155   26.0324 N   0  0  0  0  0  0  0  0  0  0  0  0
    6.8392  -13.9974   26.1095 C   0  0  0  0  0  0  0  0  0  0  0  0
    6.2035  -12.9309   25.4937 C   0  0  0  0  0  0  0  0  0  0  0  0
    6.6246  -11.6370   25.7582 C   0  0  0  0  0  0  0  0  0  0  0  0
    7.6687  -11.4403   26.6297 C   0  0  0  0  0  0  0  0  0  0  0  0
    8.3084  -12.4902   27.2465 C   0  0  0  0  0  0  0  0  0  0  0  0
    7.8863  -13.7836   26.9802 C   0  0  0  0  0  0  0  0  0  0  0  0
   10.6314  -17.4567   28.7591 C   0  0  0  0  0  0  0  0  0  0  0  0
   11.2386  -17.1001   29.9828 O   0  0  0  0  0  0  0  0  0  0  0  0
   10.4069  -18.6652   28.5513 O   0  0  0  0  0  0  0  0  0  0  0  0
  2  1  1  0
  3  2  2  0
  4  3  1  0
  5  4  2  0
  5 11  1  0
  6  5  1  0
  7  9  1  0
  7  6  1  0
  7  8  1  6
  9 10  2  0
 11 12  2  0
 12  2  1  0
 13 14  1  0
 13  9  1  0
 14 15  1  6
 15 16  1  0
 16 17  2  0
 18 17  1  0
 19 18  1  0
 20 19  2  0
 20 16  1  0
 21 23  1  0
 21 14  1  0
 22 21  2  0
 24 23  1  0
 24 35  1  0
 24 25  1  1
 26 25  1  0
 27 26  2  0
 28 27  1  0
 29 28  1  0
 29 34  2  0
 30 29  1  0
 31 30  2  0
 31 32  1  0
 32 33  2  0
 33 34  1  0
 34 26  1  0
 35 36  1  0
 37 35  2  0
M  END
$$$$
