YHW.pdb
     RDKit          3D

 37 40  0  0  1  0  0  0  0  0999 V2000
    7.5903  -13.7144   14.9230 O   0  0  0  0  0  0  0  0  0  0  0  0
    7.4961  -13.7743   16.2984 C   0  0  0  0  0  0  0  0  0  0  0  0
    8.1313  -12.8825   17.1337 C   0  0  0  0  0  0  0  0  0  0  0  0
    8.0067  -12.9846   18.4843 C   0  0  0  0  0  0  0  0  0  0  0  0
    7.2455  -13.9743   19.1172 C   0  0  0  0  0  0  0  0  0  0  0  0
    7.1533  -14.0250   20.5909 C   0  0  0  0  0  0  0  0  0  0  0  0
    8.5223  -14.0339   21.1973 C   0  0  2  0  0  0  0  0  0  0  0  0
    9.5235  -14.1435   20.1505 N   0  0  0  0  0  0  0  0  0  0  0  0
    8.6412  -15.1492   22.1666 C   0  0  0  0  0  0  0  0  0  0  0  0
    7.7977  -15.3075   23.0923 O   0  0  0  0  0  0  0  0  0  0  0  0
    6.6141  -14.8607   18.2806 C   0  0  0  0  0  0  0  0  0  0  0  0
    6.7341  -14.7660   16.9108 C   0  0  0  0  0  0  0  0  0  0  0  0
    9.7153  -16.0952   22.0973 N   0  0  0  0  0  0  0  0  0  0  0  0
    9.8055  -17.1696   23.1004 C   0  0  1  0  0  0  0  0  0  0  0  0
   10.8339  -18.1390   22.5503 C   0  0  0  0  0  0  0  0  0  0  0  0
   10.9156  -19.3550   23.4131 C   0  0  0  0  0  0  0  0  0  0  0  0
   10.1381  -19.5783   24.5227 C   0  0  0  0  0  0  0  0  0  0  0  0
   10.4602  -20.7688   25.0727 N   0  0  0  0  0  0  0  0  0  0  0  0
   11.4363  -21.2986   24.3174 C   0  0  0  0  0  0  0  0  0  0  0  0
   11.7084  -20.4319   23.3088 N   0  0  0  0  0  0  0  0  0  0  0  0
   10.2159  -16.5952   24.4108 C   0  0  0  0  0  0  0  0  0  0  0  0
   11.0964  -15.7269   24.4735 O   0  0  0  0  0  0  0  0  0  0  0  0
    9.6055  -17.0327   25.6080 N   0  0  0  0  0  0  0  0  0  0  0  0
   10.1353  -16.8102   26.9447 C   0  0  1  0  0  0  0  0  0  0  0  0
    9.4276  -15.7247   27.6525 C   0  0  0  0  0  0  0  0  0  0  0  0
    8.2553  -15.2276   26.9251 C   0  0  0  0  0  0  0  0  0  0  0  0
    7.2844  -16.0009   26.3201 C   0  0  0  0  0  0  0  0  0  0  0  0
    6.3754  -15.2432   25.7126 N   0  0  0  0  0  0  0  0  0  0  0  0
    6.7174  -13.9596   25.8988 C   0  0  0  0  0  0  0  0  0  0  0  0
    6.0933  -12.7926   25.4875 C   0  0  0  0  0  0  0  0  0  0  0  0
    6.6389  -11.5658   25.8320 C   0  0  0  0  0  0  0  0  0  0  0  0
    7.7927  -11.5347   26.5777 C   0  0  0  0  0  0  0  0  0  0  0  0
    8.4223  -12.6856   26.9913 C   0  0  0  0  0  0  0  0  0  0  0  0
    7.8754  -13.9117   26.6451 C   0  0  0  0  0  0  0  0  0  0  0  0
   10.3372  -18.0126   27.7170 C   0  0  0  0  0  0  0  0  0  0  0  0
   11.0314  -17.8875   28.9400 O   0  0  0  0  0  0  0  0  0  0  0  0
    9.9450  -19.1482   27.3840 O   0  0  0  0  0  0  0  0  0  0  0  0
  2  1  1  0
  3  2  2  0
  4  3  1  0
  5  4  2  0
  5 11  1  0
  6  5  1  0
  7  9  1  0
  7  6  1  0
  7  8  1  6
  9 10  2  0
 11 12  2  0
 12  2  1  0
 13 14  1  0
 13  9  1  0
 14 15  1  6
 15 16  1  0
 16 17  2  0
 18 17  1  0
 19 18  1  0
 20 19  2  0
 20 16  1  0
 21 23  1  0
 21 14  1  0
 22 21  2  0
 24 23  1  0
 24 35  1  0
 24 25  1  1
 26 25  1  0
 27 26  2  0
 28 27  1  0
 29 28  1  0
 29 34  2  0
 30 29  1  0
 31 30  2  0
 31 32  1  0
 32 33  2  0
 33 34  1  0
 34 26  1  0
 35 36  1  0
 37 35  2  0
M  END
$$$$
