YHW.pdb
     RDKit          3D

 37 40  0  0  1  0  0  0  0  0999 V2000
    7.7182  -21.2858   29.1844 O   0  0  0  0  0  0  0  0  0  0  0  0
    7.3677  -20.6376   28.0177 C   0  0  0  0  0  0  0  0  0  0  0  0
    7.3890  -19.2671   27.8850 C   0  0  0  0  0  0  0  0  0  0  0  0
    7.0338  -18.6760   26.7126 C   0  0  0  0  0  0  0  0  0  0  0  0
    6.6296  -19.3905   25.5787 C   0  0  0  0  0  0  0  0  0  0  0  0
    6.2583  -18.6826   24.3362 C   0  0  0  0  0  0  0  0  0  0  0  0
    6.6076  -19.5134   23.1405 C   0  0  2  0  0  0  0  0  0  0  0  0
    6.8069  -20.8950   23.5425 N   0  0  0  0  0  0  0  0  0  0  0  0
    7.8194  -18.9706   22.4813 C   0  0  0  0  0  0  0  0  0  0  0  0
    8.9461  -19.5224   22.6215 O   0  0  0  0  0  0  0  0  0  0  0  0
    6.6101  -20.7562   25.7156 C   0  0  0  0  0  0  0  0  0  0  0  0
    6.9681  -21.3648   26.8992 C   0  0  0  0  0  0  0  0  0  0  0  0
    7.7674  -17.7991   21.6577 N   0  0  0  0  0  0  0  0  0  0  0  0
    9.0005  -17.2942   21.0309 C   0  0  1  0  0  0  0  0  0  0  0  0
    8.5321  -16.4370   19.8708 C   0  0  0  0  0  0  0  0  0  0  0  0
    8.0706  -15.1046   20.3622 C   0  0  0  0  0  0  0  0  0  0  0  0
    6.8118  -14.8440   20.8452 C   0  0  0  0  0  0  0  0  0  0  0  0
    6.7222  -13.5463   21.2073 N   0  0  0  0  0  0  0  0  0  0  0  0
    7.9166  -12.9856   20.9559 C   0  0  0  0  0  0  0  0  0  0  0  0
    8.7325  -13.9406   20.4414 N   0  0  0  0  0  0  0  0  0  0  0  0
    9.7838  -16.5147   22.0281 C   0  0  0  0  0  0  0  0  0  0  0  0
   10.4841  -15.5568   21.6742 O   0  0  0  0  0  0  0  0  0  0  0  0
    9.7408  -16.8562   23.3988 N   0  0  0  0  0  0  0  0  0  0  0  0
   10.3239  -16.0681   24.4740 C   0  0  1  0  0  0  0  0  0  0  0  0
    9.8067  -14.6853   24.4968 C   0  0  0  0  0  0  0  0  0  0  0  0
    8.4540  -14.5825   25.0534 C   0  0  0  0  0  0  0  0  0  0  0  0
    7.5012  -15.5819   25.0673 C   0  0  0  0  0  0  0  0  0  0  0  0
    6.3651  -15.1558   25.6123 N   0  0  0  0  0  0  0  0  0  0  0  0
    6.5350  -13.8745   25.9712 C   0  0  0  0  0  0  0  0  0  0  0  0
    5.6668  -12.9906   26.5922 C   0  0  0  0  0  0  0  0  0  0  0  0
    6.0924  -11.7042   26.8851 C   0  0  0  0  0  0  0  0  0  0  0  0
    7.3725  -11.3329   26.5510 C   0  0  0  0  0  0  0  0  0  0  0  0
    8.2435  -12.2004   25.9338 C   0  0  0  0  0  0  0  0  0  0  0  0
    7.8157  -13.4862   25.6410 C   0  0  0  0  0  0  0  0  0  0  0  0
   10.3513  -16.7310   25.7557 C   0  0  0  0  0  0  0  0  0  0  0  0
    9.8180  -18.0365   25.8208 O   0  0  0  0  0  0  0  0  0  0  0  0
   10.8094  -16.2365   26.8045 O   0  0  0  0  0  0  0  0  0  0  0  0
  2  1  1  0
  3  2  2  0
  4  3  1  0
  5  4  2  0
  5 11  1  0
  6  5  1  0
  7  9  1  0
  7  6  1  0
  7  8  1  1
  9 10  2  0
 11 12  2  0
 12  2  1  0
 13 14  1  0
 13  9  1  0
 14 15  1  6
 15 16  1  0
 16 17  2  0
 18 17  1  0
 19 18  1  0
 20 19  2  0
 20 16  1  0
 21 23  1  0
 21 14  1  0
 22 21  2  0
 24 23  1  0
 24 35  1  0
 24 25  1  1
 26 25  1  0
 27 26  2  0
 28 27  1  0
 29 28  1  0
 29 34  2  0
 30 29  1  0
 31 30  2  0
 31 32  1  0
 32 33  2  0
 33 34  1  0
 34 26  1  0
 35 36  1  0
 37 35  2  0
M  END
$$$$
