YHW.pdb
     RDKit          3D

 37 40  0  0  1  0  0  0  0  0999 V2000
    4.8970  -23.7542   18.6295 O   0  0  0  0  0  0  0  0  0  0  0  0
    5.7329  -22.6692   18.7971 C   0  0  0  0  0  0  0  0  0  0  0  0
    6.9151  -22.7340   19.5006 C   0  0  0  0  0  0  0  0  0  0  0  0
    7.7044  -21.6348   19.6373 C   0  0  0  0  0  0  0  0  0  0  0  0
    7.3899  -20.3850   19.0907 C   0  0  0  0  0  0  0  0  0  0  0  0
    8.2953  -19.2327   19.2777 C   0  0  0  0  0  0  0  0  0  0  0  0
    8.2670  -18.7754   20.7032 C   0  0  2  0  0  0  0  0  0  0  0  0
    6.9234  -18.3516   21.0575 N   0  0  0  0  0  0  0  0  0  0  0  0
    9.2420  -17.6769   20.9038 C   0  0  0  0  0  0  0  0  0  0  0  0
   10.4432  -17.7890   20.5322 O   0  0  0  0  0  0  0  0  0  0  0  0
    6.2108  -20.3253   18.3903 C   0  0  0  0  0  0  0  0  0  0  0  0
    5.4039  -21.4333   18.2461 C   0  0  0  0  0  0  0  0  0  0  0  0
    8.8668  -16.4420   21.5264 N   0  0  0  0  0  0  0  0  0  0  0  0
    9.8583  -15.3608   21.6558 C   0  0  1  0  0  0  0  0  0  0  0  0
    9.1448  -14.1107   21.1782 C   0  0  0  0  0  0  0  0  0  0  0  0
    8.6970  -14.2764   19.7633 C   0  0  0  0  0  0  0  0  0  0  0  0
    7.4013  -14.1303   19.3325 C   0  0  0  0  0  0  0  0  0  0  0  0
    7.3370  -14.3443   18.0008 N   0  0  0  0  0  0  0  0  0  0  0  0
    8.5839  -14.6248   17.5879 C   0  0  0  0  0  0  0  0  0  0  0  0
    9.4066  -14.5817   18.6667 N   0  0  0  0  0  0  0  0  0  0  0  0
   10.2966  -15.2532   23.0742 C   0  0  0  0  0  0  0  0  0  0  0  0
   10.9519  -14.2767   23.4619 O   0  0  0  0  0  0  0  0  0  0  0  0
    9.9713  -16.2667   24.0039 N   0  0  0  0  0  0  0  0  0  0  0  0
   10.2962  -16.2341   25.4218 C   0  0  1  0  0  0  0  0  0  0  0  0
    9.9703  -14.9333   26.0398 C   0  0  0  0  0  0  0  0  0  0  0  0
    8.5285  -14.6855   26.1404 C   0  0  0  0  0  0  0  0  0  0  0  0
    7.5248  -15.5813   25.8293 C   0  0  0  0  0  0  0  0  0  0  0  0
    6.3236  -15.0343   25.9947 N   0  0  0  0  0  0  0  0  0  0  0  0
    6.4993  -13.7733   26.4169 C   0  0  0  0  0  0  0  0  0  0  0  0
    5.5729  -12.7975   26.7493 C   0  0  0  0  0  0  0  0  0  0  0  0
    6.0112  -11.5585   27.1901 C   0  0  0  0  0  0  0  0  0  0  0  0
    7.3618  -11.3248   27.2878 C   0  0  0  0  0  0  0  0  0  0  0  0
    8.2913  -12.2843   26.9601 C   0  0  0  0  0  0  0  0  0  0  0  0
    7.8510  -13.5226   26.5187 C   0  0  0  0  0  0  0  0  0  0  0  0
    9.8550  -17.3904   26.1642 C   0  0  0  0  0  0  0  0  0  0  0  0
    9.1831  -18.4032   25.4459 O   0  0  0  0  0  0  0  0  0  0  0  0
   10.0233  -17.5588   27.3880 O   0  0  0  0  0  0  0  0  0  0  0  0
  2  1  1  0
  3  2  2  0
  4  3  1  0
  5  4  2  0
  5 11  1  0
  6  5  1  0
  7  9  1  0
  7  6  1  0
  7  8  1  6
  9 10  2  0
 11 12  2  0
 12  2  1  0
 13 14  1  0
 13  9  1  0
 14 15  1  1
 15 16  1  0
 16 17  2  0
 18 17  1  0
 19 18  1  0
 20 19  2  0
 20 16  1  0
 21 23  1  0
 21 14  1  0
 22 21  2  0
 24 23  1  0
 24 35  1  0
 24 25  1  1
 26 25  1  0
 27 26  2  0
 28 27  1  0
 29 28  1  0
 29 34  2  0
 30 29  1  0
 31 30  2  0
 31 32  1  0
 32 33  2  0
 33 34  1  0
 34 26  1  0
 35 36  1  0
 37 35  2  0
M  END
$$$$
