MAA.pdb
     RDKit          3D

 19 18  0  0  1  0  0  0  0  0999 V2000
    8.2030  -11.5851   20.8735 C   0  0  0  0  0  0  0  0  0  0  0  0
    8.7217  -12.5597   19.4828 S   0  0  0  0  0  0  0  0  0  0  0  0
    7.5490  -13.7797   18.9606 C   0  0  0  0  0  0  0  0  0  0  0  0
    8.0444  -14.6505   17.8748 C   0  0  0  0  0  0  0  0  0  0  0  0
    9.3265  -15.3421   18.1738 C   0  0  2  0  0  0  0  0  0  0  0  0
    9.6477  -16.1937   16.9863 N   0  0  0  0  0  0  0  0  0  0  0  0
    9.0905  -16.2797   19.3318 C   0  0  0  0  0  0  0  0  0  0  0  0
    8.9011  -15.9011   20.5087 O   0  0  0  0  0  0  0  0  0  0  0  0
    8.2871  -19.9082   19.8000 C   0  0  0  0  0  0  0  0  0  0  0  0
    8.8629  -18.5745   20.2907 C   0  0  2  0  0  0  0  0  0  0  0  0
    9.0722  -17.6846   19.1301 N   0  0  0  0  0  0  0  0  0  0  0  0
   10.1891  -18.8827   20.8696 C   0  0  0  0  0  0  0  0  0  0  0  0
   10.2983  -19.6334   21.8675 O   0  0  0  0  0  0  0  0  0  0  0  0
   13.5263  -19.0970   19.7227 C   0  0  0  0  0  0  0  0  0  0  0  0
   12.6481  -18.6373   20.8778 C   0  0  2  0  0  0  0  0  0  0  0  0
   11.3598  -18.3293   20.2991 N   0  0  0  0  0  0  0  0  0  0  0  0
   13.2359  -17.4476   21.5359 C   0  0  0  0  0  0  0  0  0  0  0  0
   14.4429  -17.5284   22.1884 O   0  0  0  0  0  0  0  0  0  0  0  0
   12.5995  -16.3673   21.4791 O   0  0  0  0  0  0  0  0  0  0  0  0
  2  1  1  0
  3  2  1  0
  4  5  1  0
  4  3  1  0
  5  6  1  6
  7  5  1  0
  7 11  1  0
  8  7  2  0
 10 12  1  0
 10  9  1  6
 10 11  1  0
 12 16  1  0
 13 12  2  0
 15 14  1  6
 16 15  1  0
 17 18  1  0
 17 15  1  0
 19 17  2  0
M  END
$$$$
