MAA.pdb
     RDKit          3D

 19 18  0  0  1  0  0  0  0  0999 V2000
    6.5991  -12.9247   20.0555 C   0  0  0  0  0  0  0  0  0  0  0  0
    7.6542  -12.4700   18.7016 S   0  0  0  0  0  0  0  0  0  0  0  0
    9.3110  -13.0839   18.8213 C   0  0  0  0  0  0  0  0  0  0  0  0
    9.6220  -13.6981   20.1284 C   0  0  0  0  0  0  0  0  0  0  0  0
   11.0004  -14.2444   20.2421 C   0  0  2  0  0  0  0  0  0  0  0  0
   11.3966  -14.7108   18.8768 N   0  0  0  0  0  0  0  0  0  0  0  0
   10.9448  -15.4686   21.1220 C   0  0  0  0  0  0  0  0  0  0  0  0
   10.6179  -15.4460   22.3290 O   0  0  0  0  0  0  0  0  0  0  0  0
   10.6743  -19.1234   20.6710 C   0  0  0  0  0  0  0  0  0  0  0  0
   11.1853  -17.9280   21.4840 C   0  0  2  0  0  0  0  0  0  0  0  0
   11.2729  -16.7473   20.6003 N   0  0  0  0  0  0  0  0  0  0  0  0
   12.5579  -18.2744   21.9138 C   0  0  0  0  0  0  0  0  0  0  0  0
   12.7772  -19.2910   22.6136 O   0  0  0  0  0  0  0  0  0  0  0  0
   15.8884  -17.3343   20.7722 C   0  0  0  0  0  0  0  0  0  0  0  0
   14.9931  -17.8545   21.8879 C   0  0  2  0  0  0  0  0  0  0  0  0
   13.6488  -17.4556   21.5369 N   0  0  0  0  0  0  0  0  0  0  0  0
   15.3981  -17.2777   23.1906 C   0  0  0  0  0  0  0  0  0  0  0  0
   16.5345  -17.7122   23.8301 O   0  0  0  0  0  0  0  0  0  0  0  0
   14.6736  -16.3829   23.6903 O   0  0  0  0  0  0  0  0  0  0  0  0
  2  1  1  0
  3  2  1  0
  4  5  1  0
  4  3  1  0
  5  6  1  6
  7  5  1  0
  7 11  1  0
  8  7  2  0
 10 12  1  0
 10  9  1  6
 10 11  1  0
 12 16  1  0
 13 12  2  0
 15 14  1  6
 16 15  1  0
 17 18  1  0
 17 15  1  0
 19 17  2  0
M  END
$$$$
