MAA.pdb
     RDKit          3D

 19 18  0  0  1  0  0  0  0  0999 V2000
    8.0979  -12.2437   27.9775 C   0  0  0  0  0  0  0  0  0  0  0  0
    6.4524  -11.8603   27.4313 S   0  0  0  0  0  0  0  0  0  0  0  0
    6.1998  -12.0218   25.6859 C   0  0  0  0  0  0  0  0  0  0  0  0
    6.2006  -13.4219   25.2145 C   0  0  0  0  0  0  0  0  0  0  0  0
    7.5535  -13.9993   24.9958 C   0  0  2  0  0  0  0  0  0  0  0  0
    8.3443  -12.9784   24.2402 N   0  0  0  0  0  0  0  0  0  0  0  0
    7.4076  -15.1963   24.0892 C   0  0  0  0  0  0  0  0  0  0  0  0
    6.7865  -16.2362   24.4010 O   0  0  0  0  0  0  0  0  0  0  0  0
    7.7114  -15.8670   20.4535 C   0  0  0  0  0  0  0  0  0  0  0  0
    7.7670  -16.3548   21.9061 C   0  0  2  0  0  0  0  0  0  0  0  0
    7.9900  -15.1959   22.7947 N   0  0  0  0  0  0  0  0  0  0  0  0
    8.9526  -17.2345   22.0035 C   0  0  0  0  0  0  0  0  0  0  0  0
    9.0525  -18.2629   21.2939 O   0  0  0  0  0  0  0  0  0  0  0  0
   12.3115  -17.2728   22.5396 C   0  0  0  0  0  0  0  0  0  0  0  0
   11.0513  -17.8847   23.1349 C   0  0  2  0  0  0  0  0  0  0  0  0
    9.9967  -16.9229   22.9065 N   0  0  0  0  0  0  0  0  0  0  0  0
   11.2332  -18.1440   24.5817 C   0  0  0  0  0  0  0  0  0  0  0  0
   12.2110  -19.0018   25.0258 O   0  0  0  0  0  0  0  0  0  0  0  0
   10.4691  -17.5578   25.3867 O   0  0  0  0  0  0  0  0  0  0  0  0
  2  1  1  0
  3  2  1  0
  4  5  1  0
  4  3  1  0
  5  6  1  6
  7  5  1  0
  7 11  1  0
  8  7  2  0
 10 12  1  0
 10  9  1  6
 10 11  1  0
 12 16  1  0
 13 12  2  0
 15 14  1  1
 16 15  1  0
 17 18  1  0
 17 15  1  0
 19 17  2  0
M  END
$$$$
