MAA.pdb
     RDKit          3D

 19 18  0  0  1  0  0  0  0  0999 V2000
    8.7380  -11.4277   20.5467 C   0  0  0  0  0  0  0  0  0  0  0  0
    7.7664  -12.3879   19.4124 S   0  0  0  0  0  0  0  0  0  0  0  0
    8.0094  -14.1380   19.5333 C   0  0  0  0  0  0  0  0  0  0  0  0
    7.9831  -14.6449   20.9208 C   0  0  0  0  0  0  0  0  0  0  0  0
    8.3118  -16.0888   21.0573 C   0  0  2  0  0  0  0  0  0  0  0  0
    7.1793  -16.8517   20.4455 N   0  0  0  0  0  0  0  0  0  0  0  0
    8.3215  -16.4270   22.5275 C   0  0  0  0  0  0  0  0  0  0  0  0
    7.3017  -16.4203   23.2517 O   0  0  0  0  0  0  0  0  0  0  0  0
   10.5194  -18.2033   24.9134 C   0  0  0  0  0  0  0  0  0  0  0  0
    9.5085  -17.0876   24.6231 C   0  0  2  0  0  0  0  0  0  0  0  0
    9.5323  -16.7806   23.1782 N   0  0  0  0  0  0  0  0  0  0  0  0
    9.9909  -15.8914   25.3479 C   0  0  0  0  0  0  0  0  0  0  0  0
   11.0095  -15.2710   24.9622 O   0  0  0  0  0  0  0  0  0  0  0  0
    8.6374  -13.3330   27.3768 C   0  0  0  0  0  0  0  0  0  0  0  0
    9.8126  -14.2875   27.2196 C   0  0  2  0  0  0  0  0  0  0  0  0
    9.3026  -15.4294   26.4948 N   0  0  0  0  0  0  0  0  0  0  0  0
   10.3377  -14.6879   28.5454 C   0  0  0  0  0  0  0  0  0  0  0  0
   11.0482  -13.8008   29.3183 O   0  0  0  0  0  0  0  0  0  0  0  0
   10.1143  -15.8584   28.9394 O   0  0  0  0  0  0  0  0  0  0  0  0
  2  1  1  0
  3  2  1  0
  4  5  1  0
  4  3  1  0
  5  6  1  6
  7  5  1  0
  7 11  1  0
  8  7  2  0
 10 12  1  0
 10  9  1  6
 10 11  1  0
 12 16  1  0
 13 12  2  0
 15 14  1  1
 16 15  1  0
 17 18  1  0
 17 15  1  0
 19 17  2  0
M  END
$$$$
