MAA.pdb
     RDKit          3D

 19 18  0  0  1  0  0  0  0  0999 V2000
    5.3910  -11.9933   27.5143 C   0  0  0  0  0  0  0  0  0  0  0  0
    5.9811  -11.2494   26.0139 S   0  0  0  0  0  0  0  0  0  0  0  0
    6.9217  -12.3327   24.9755 C   0  0  0  0  0  0  0  0  0  0  0  0
    7.2455  -13.6272   25.6096 C   0  0  0  0  0  0  0  0  0  0  0  0
    8.2303  -14.4527   24.8610 C   0  0  2  0  0  0  0  0  0  0  0  0
    7.9120  -14.2964   23.4074 N   0  0  0  0  0  0  0  0  0  0  0  0
    7.9839  -15.9000   25.2081 C   0  0  0  0  0  0  0  0  0  0  0  0
    8.0523  -16.3604   26.3690 O   0  0  0  0  0  0  0  0  0  0  0  0
    6.4082  -18.8536   23.5627 C   0  0  0  0  0  0  0  0  0  0  0  0
    7.3818  -18.2399   24.5760 C   0  0  2  0  0  0  0  0  0  0  0  0
    7.6515  -16.8379   24.1960 N   0  0  0  0  0  0  0  0  0  0  0  0
    8.6471  -18.9954   24.4461 C   0  0  0  0  0  0  0  0  0  0  0  0
    8.6964  -20.2204   24.7072 O   0  0  0  0  0  0  0  0  0  0  0  0
   11.7525  -18.5853   22.6633 C   0  0  0  0  0  0  0  0  0  0  0  0
   11.0610  -19.0850   23.9238 C   0  0  2  0  0  0  0  0  0  0  0  0
    9.8268  -18.3388   24.0220 N   0  0  0  0  0  0  0  0  0  0  0  0
   11.9174  -18.8587   25.1108 C   0  0  0  0  0  0  0  0  0  0  0  0
   13.1353  -19.4847   25.2298 O   0  0  0  0  0  0  0  0  0  0  0  0
   11.4978  -18.0801   26.0013 O   0  0  0  0  0  0  0  0  0  0  0  0
  2  1  1  0
  3  2  1  0
  4  5  1  0
  4  3  1  0
  5  6  1  6
  7  5  1  0
  7 11  1  0
  8  7  2  0
 10 12  1  0
 10  9  1  6
 10 11  1  0
 12 16  1  0
 13 12  2  0
 15 14  1  6
 16 15  1  0
 17 18  1  0
 17 15  1  0
 19 17  2  0
M  END
$$$$
