MAA.pdb
     RDKit          3D

 19 18  0  0  1  0  0  0  0  0999 V2000
    8.8743  -13.4836   27.7757 C   0  0  0  0  0  0  0  0  0  0  0  0
    7.6502  -12.7366   26.7287 S   0  0  0  0  0  0  0  0  0  0  0  0
    6.8302  -13.8629   25.6354 C   0  0  0  0  0  0  0  0  0  0  0  0
    6.8070  -15.2554   26.1282 C   0  0  0  0  0  0  0  0  0  0  0  0
    6.1583  -16.2261   25.2071 C   0  0  2  0  0  0  0  0  0  0  0  0
    6.1875  -17.5576   25.8887 N   0  0  0  0  0  0  0  0  0  0  0  0
    7.0216  -16.3476   23.9758 C   0  0  0  0  0  0  0  0  0  0  0  0
    7.8424  -17.2723   23.7876 O   0  0  0  0  0  0  0  0  0  0  0  0
    7.2467  -14.5347   20.6589 C   0  0  0  0  0  0  0  0  0  0  0  0
    7.5711  -15.6717   21.6352 C   0  0  2  0  0  0  0  0  0  0  0  0
    6.9378  -15.3826   22.9382 N   0  0  0  0  0  0  0  0  0  0  0  0
    9.0376  -15.6466   21.8293 C   0  0  0  0  0  0  0  0  0  0  0  0
    9.8185  -15.8469   20.8695 O   0  0  0  0  0  0  0  0  0  0  0  0
   11.2824  -14.7108   24.6123 C   0  0  0  0  0  0  0  0  0  0  0  0
   11.0139  -15.4279   23.2968 C   0  0  2  0  0  0  0  0  0  0  0  0
    9.5807  -15.3941   23.1113 N   0  0  0  0  0  0  0  0  0  0  0  0
   11.5121  -16.8215   23.3536 C   0  0  0  0  0  0  0  0  0  0  0  0
   10.6405  -17.8832   23.3047 O   0  0  0  0  0  0  0  0  0  0  0  0
   12.7506  -17.0020   23.4474 O   0  0  0  0  0  0  0  0  0  0  0  0
  2  1  1  0
  3  2  1  0
  4  5  1  0
  4  3  1  0
  5  6  1  1
  7  5  1  0
  7 11  1  0
  8  7  2  0
 10 12  1  0
 10  9  1  6
 10 11  1  0
 12 16  1  0
 13 12  2  0
 15 14  1  1
 16 15  1  0
 17 18  1  0
 17 15  1  0
 19 17  2  0
M  END
$$$$
