MAA.pdb
     RDKit          3D

 19 18  0  0  1  0  0  0  0  0999 V2000
    6.8254  -11.6862   27.2015 C   0  0  0  0  0  0  0  0  0  0  0  0
    7.8638  -12.8901   26.4108 S   0  0  0  0  0  0  0  0  0  0  0  0
    6.9941  -14.2604   25.7019 C   0  0  0  0  0  0  0  0  0  0  0  0
    7.8763  -15.2424   25.0386 C   0  0  0  0  0  0  0  0  0  0  0  0
    7.1640  -16.3834   24.4045 C   0  0  2  0  0  0  0  0  0  0  0  0
    6.6207  -17.2270   25.5144 N   0  0  0  0  0  0  0  0  0  0  0  0
    8.1849  -17.2235   23.6779 C   0  0  0  0  0  0  0  0  0  0  0  0
    8.6647  -18.2858   24.1315 O   0  0  0  0  0  0  0  0  0  0  0  0
    9.3713  -17.4058   20.1247 C   0  0  0  0  0  0  0  0  0  0  0  0
    9.4599  -17.7900   21.6065 C   0  0  2  0  0  0  0  0  0  0  0  0
    8.6640  -16.8316   22.4005 N   0  0  0  0  0  0  0  0  0  0  0  0
   10.8789  -17.6294   21.9930 C   0  0  0  0  0  0  0  0  0  0  0  0
   11.7723  -18.3409   21.4766 O   0  0  0  0  0  0  0  0  0  0  0  0
   12.9336  -15.0506   23.3764 C   0  0  0  0  0  0  0  0  0  0  0  0
   12.6332  -16.5426   23.3526 C   0  0  2  0  0  0  0  0  0  0  0  0
   11.2477  -16.6626   22.9582 N   0  0  0  0  0  0  0  0  0  0  0  0
   12.8615  -17.1398   24.6886 C   0  0  0  0  0  0  0  0  0  0  0  0
   14.1278  -17.2190   25.2173 O   0  0  0  0  0  0  0  0  0  0  0  0
   11.8660  -17.5698   25.3206 O   0  0  0  0  0  0  0  0  0  0  0  0
  2  1  1  0
  3  2  1  0
  4  5  1  0
  4  3  1  0
  5  6  1  1
  7  5  1  0
  7 11  1  0
  8  7  2  0
 10 12  1  0
 10  9  1  6
 10 11  1  0
 12 16  1  0
 13 12  2  0
 15 14  1  1
 16 15  1  0
 17 18  1  0
 17 15  1  0
 19 17  2  0
M  END
$$$$
