MAA.pdb
     RDKit          3D

 19 18  0  0  1  0  0  0  0  0999 V2000
    4.7718  -11.2061   26.8246 C   0  0  0  0  0  0  0  0  0  0  0  0
    6.0632  -12.4242   26.8613 S   0  0  0  0  0  0  0  0  0  0  0  0
    6.1029  -13.4975   25.4531 C   0  0  0  0  0  0  0  0  0  0  0  0
    7.1863  -14.5007   25.5036 C   0  0  0  0  0  0  0  0  0  0  0  0
    7.2652  -15.3854   24.3109 C   0  0  2  0  0  0  0  0  0  0  0  0
    6.1000  -16.3209   24.3864 N   0  0  0  0  0  0  0  0  0  0  0  0
    8.5099  -16.2282   24.4382 C   0  0  0  0  0  0  0  0  0  0  0  0
    8.5369  -17.3557   24.9789 O   0  0  0  0  0  0  0  0  0  0  0  0
   12.0676  -16.0635   23.1874 C   0  0  0  0  0  0  0  0  0  0  0  0
   10.9549  -16.6033   24.0939 C   0  0  2  0  0  0  0  0  0  0  0  0
    9.7513  -15.7622   23.9315 N   0  0  0  0  0  0  0  0  0  0  0  0
   11.4362  -16.4411   25.4835 C   0  0  0  0  0  0  0  0  0  0  0  0
   12.5128  -16.9626   25.8580 O   0  0  0  0  0  0  0  0  0  0  0  0
   10.4959  -14.2010   28.2491 C   0  0  0  0  0  0  0  0  0  0  0  0
   11.2219  -15.4341   27.7301 C   0  0  2  0  0  0  0  0  0  0  0  0
   10.6807  -15.6891   26.4142 N   0  0  0  0  0  0  0  0  0  0  0  0
   10.9976  -16.5872   28.6322 C   0  0  0  0  0  0  0  0  0  0  0  0
   11.5686  -16.6249   29.8819 O   0  0  0  0  0  0  0  0  0  0  0  0
   10.2722  -17.5254   28.2212 O   0  0  0  0  0  0  0  0  0  0  0  0
  2  1  1  0
  3  2  1  0
  4  5  1  0
  4  3  1  0
  5  6  1  1
  7  5  1  0
  7 11  1  0
  8  7  2  0
 10 12  1  0
 10  9  1  6
 10 11  1  0
 12 16  1  0
 13 12  2  0
 15 14  1  1
 16 15  1  0
 17 18  1  0
 17 15  1  0
 19 17  2  0
M  END
$$$$
