MAA.pdb
     RDKit          3D

 19 18  0  0  1  0  0  0  0  0999 V2000
    6.2276  -11.4856   27.9765 C   0  0  0  0  0  0  0  0  0  0  0  0
    7.2950  -12.3614   26.8600 S   0  0  0  0  0  0  0  0  0  0  0  0
    6.4539  -13.2252   25.5627 C   0  0  0  0  0  0  0  0  0  0  0  0
    6.3884  -14.6865   25.7699 C   0  0  0  0  0  0  0  0  0  0  0  0
    7.5528  -15.4395   25.2326 C   0  0  2  0  0  0  0  0  0  0  0  0
    8.7639  -14.5938   25.4704 N   0  0  0  0  0  0  0  0  0  0  0  0
    7.3853  -15.5508   23.7375 C   0  0  0  0  0  0  0  0  0  0  0  0
    6.5143  -16.2571   23.1836 O   0  0  0  0  0  0  0  0  0  0  0  0
    8.0495  -13.6105   20.7442 C   0  0  0  0  0  0  0  0  0  0  0  0
    8.0732  -14.9955   21.4017 C   0  0  2  0  0  0  0  0  0  0  0  0
    8.2400  -14.8328   22.8606 N   0  0  0  0  0  0  0  0  0  0  0  0
    9.2770  -15.6811   20.8824 C   0  0  0  0  0  0  0  0  0  0  0  0
    9.4069  -15.9170   19.6582 O   0  0  0  0  0  0  0  0  0  0  0  0
   12.6609  -16.0976   21.5170 C   0  0  0  0  0  0  0  0  0  0  0  0
   11.3901  -16.9003   21.2768 C   0  0  2  0  0  0  0  0  0  0  0  0
   10.3047  -16.0822   21.7687 N   0  0  0  0  0  0  0  0  0  0  0  0
   11.4501  -18.1949   21.9939 C   0  0  0  0  0  0  0  0  0  0  0  0
   12.3819  -19.1460   21.6530 O   0  0  0  0  0  0  0  0  0  0  0  0
   10.6262  -18.3954   22.9193 O   0  0  0  0  0  0  0  0  0  0  0  0
  2  1  1  0
  3  2  1  0
  4  5  1  0
  4  3  1  0
  5  6  1  6
  7  5  1  0
  7 11  1  0
  8  7  2  0
 10 12  1  0
 10  9  1  6
 10 11  1  0
 12 16  1  0
 13 12  2  0
 15 14  1  1
 16 15  1  0
 17 18  1  0
 17 15  1  0
 19 17  2  0
M  END
$$$$
