HNV.pdb
     RDKit          3D

 26 26  0  0  1  0  0  0  0  0999 V2000
   24.6773  -12.8647  -18.0474 N   0  0  0  0  0  0  0  0  0  0  0  0
   24.6306  -11.8318  -17.0486 C   0  0  1  0  0  0  0  0  0  0  0  0
   25.9250  -11.0636  -17.0594 C   0  0  0  0  0  0  0  0  0  0  0  0
   27.0805  -11.9329  -16.7174 C   0  0  0  0  0  0  0  0  0  0  0  0
   27.3347  -12.4773  -15.4569 C   0  0  0  0  0  0  0  0  0  0  0  0
   28.4682  -13.2071  -15.5245 N   0  0  0  0  0  0  0  0  0  0  0  0
   28.9168  -13.1240  -16.7977 C   0  0  0  0  0  0  0  0  0  0  0  0
   28.0798  -12.3597  -17.5028 N   0  0  0  0  0  0  0  0  0  0  0  0
   23.5399  -10.8318  -17.3991 C   0  0  0  0  0  0  0  0  0  0  0  0
   23.3737  -10.6787  -18.6184 O   0  0  0  0  0  0  0  0  0  0  0  0
   18.1939   -9.7162  -16.2054 N   0  0  0  0  0  0  0  0  0  0  0  0
   19.2847   -9.1808  -15.4851 C   0  0  0  0  0  0  0  0  0  0  0  0
   19.1316   -8.0829  -14.8985 O   0  0  0  0  0  0  0  0  0  0  0  0
   20.5485   -9.8910  -15.4305 C   0  0  0  0  0  0  0  0  0  0  0  0
   21.5745   -9.4785  -16.4859 C   0  0  2  0  0  0  0  0  0  0  0  0
   22.8241  -10.1759  -16.4087 N   0  0  0  0  0  0  0  0  0  0  0  0
   21.8393   -8.0292  -16.1716 C   0  0  0  0  0  0  0  0  0  0  0  0
   22.6292   -7.6914  -15.2517 O   0  0  0  0  0  0  0  0  0  0  0  0
   20.3900   -5.2201  -18.9180 C   0  0  0  0  0  0  0  0  0  0  0  0
   21.5802   -4.8937  -18.0504 C   0  0  2  0  0  0  0  0  0  0  0  0
   22.8156   -5.4244  -18.7217 C   0  0  0  0  0  0  0  0  0  0  0  0
   21.4647   -5.5839  -16.6830 C   0  0  2  0  0  0  0  0  0  0  0  0
   21.2011   -7.0053  -16.9103 N   0  0  0  0  0  0  0  0  0  0  0  0
   20.3050   -4.9698  -16.0045 C   0  0  0  0  0  0  0  0  0  0  0  0
   19.2206   -5.6059  -15.9916 O   0  0  0  0  0  0  0  0  0  0  0  0
   20.3021   -3.7450  -15.3747 O   0  0  0  0  0  0  0  0  0  0  0  0
  2  1  1  6
  2  9  1  0
  3  4  1  0
  3  2  1  0
  4  5  2  0
  4  8  1  0
  5  6  1  0
  6  7  1  0
  8  7  2  0
  9 10  2  0
 11 12  1  0
 12 13  2  0
 12 14  1  0
 15 14  1  1
 15 17  1  0
 16  9  1  0
 16 15  1  0
 17 23  1  0
 17 18  2  0
 20 19  1  6
 20 22  1  0
 21 20  1  0
 22 24  1  0
 22 23  1  6
 24 25  2  0
 24 26  1  0
M  END
$$$$
