HNV.pdb
     RDKit          3D

 26 26  0  0  1  0  0  0  0  0999 V2000
   28.1820  -18.2201  -16.9135 N   0  0  0  0  0  0  0  0  0  0  0  0
   27.4923  -17.7990  -15.7245 C   0  0  1  0  0  0  0  0  0  0  0  0
   26.4691  -16.7540  -16.0807 C   0  0  0  0  0  0  0  0  0  0  0  0
   27.1100  -15.4854  -16.5139 C   0  0  0  0  0  0  0  0  0  0  0  0
   27.5703  -14.4817  -15.6592 C   0  0  0  0  0  0  0  0  0  0  0  0
   28.0875  -13.4841  -16.4070 N   0  0  0  0  0  0  0  0  0  0  0  0
   27.9560  -13.8514  -17.7019 C   0  0  0  0  0  0  0  0  0  0  0  0
   27.3701  -15.0497  -17.7549 N   0  0  0  0  0  0  0  0  0  0  0  0
   26.7180  -18.9707  -15.1415 C   0  0  0  0  0  0  0  0  0  0  0  0
   26.2611  -19.7442  -15.9963 O   0  0  0  0  0  0  0  0  0  0  0  0
   24.8878  -22.2400  -11.4252 N   0  0  0  0  0  0  0  0  0  0  0  0
   25.6394  -21.2369  -10.7740 C   0  0  0  0  0  0  0  0  0  0  0  0
   25.8565  -21.3570   -9.5446 O   0  0  0  0  0  0  0  0  0  0  0  0
   26.1445  -20.0982  -11.5176 C   0  0  0  0  0  0  0  0  0  0  0  0
   25.8929  -20.1399  -13.0248 C   0  0  2  0  0  0  0  0  0  0  0  0
   26.5643  -19.1170  -13.7709 N   0  0  0  0  0  0  0  0  0  0  0  0
   24.4113  -19.8933  -13.1411 C   0  0  0  0  0  0  0  0  0  0  0  0
   23.9041  -18.7857  -12.8245 O   0  0  0  0  0  0  0  0  0  0  0  0
   22.4223  -20.2641  -16.2441 C   0  0  0  0  0  0  0  0  0  0  0  0
   21.7426  -21.1418  -15.2226 C   0  0  2  0  0  0  0  0  0  0  0  0
   20.2561  -20.9817  -15.3744 C   0  0  0  0  0  0  0  0  0  0  0  0
   22.1109  -20.7055  -13.7965 C   0  0  2  0  0  0  0  0  0  0  0  0
   23.5485  -20.9097  -13.6140 N   0  0  0  0  0  0  0  0  0  0  0  0
   21.3664  -21.5974  -12.8840 C   0  0  0  0  0  0  0  0  0  0  0  0
   21.7917  -22.7695  -12.7232 O   0  0  0  0  0  0  0  0  0  0  0  0
   20.2312  -21.2578  -12.1820 O   0  0  0  0  0  0  0  0  0  0  0  0
  2  1  1  6
  2  9  1  0
  3  4  1  0
  3  2  1  0
  4  5  2  0
  4  8  1  0
  5  6  1  0
  6  7  1  0
  8  7  2  0
  9 10  2  0
 11 12  1  0
 12 13  2  0
 12 14  1  0
 15 14  1  1
 15 17  1  0
 16  9  1  0
 16 15  1  0
 17 23  1  0
 17 18  2  0
 20 19  1  6
 20 22  1  0
 21 20  1  0
 22 24  1  0
 22 23  1  6
 24 25  2  0
 24 26  1  0
M  END
$$$$
