HNV.pdb
     RDKit          3D

 26 26  0  0  1  0  0  0  0  0999 V2000
   19.7827  -13.6293  -16.1084 N   0  0  0  0  0  0  0  0  0  0  0  0
   18.8606  -12.5732  -16.4264 C   0  0  1  0  0  0  0  0  0  0  0  0
   17.4704  -12.9798  -16.0170 C   0  0  0  0  0  0  0  0  0  0  0  0
   16.9913  -14.1517  -16.7946 C   0  0  0  0  0  0  0  0  0  0  0  0
   16.6699  -15.3995  -16.2567 C   0  0  0  0  0  0  0  0  0  0  0  0
   16.2761  -16.2118  -17.2603 N   0  0  0  0  0  0  0  0  0  0  0  0
   16.3478  -15.4920  -18.4030 C   0  0  0  0  0  0  0  0  0  0  0  0
   16.7767  -14.2614  -18.1135 N   0  0  0  0  0  0  0  0  0  0  0  0
   19.1998  -11.3363  -15.6095 C   0  0  0  0  0  0  0  0  0  0  0  0
   19.1681  -11.5213  -14.3837 O   0  0  0  0  0  0  0  0  0  0  0  0
   23.2625   -9.8599  -16.5546 N   0  0  0  0  0  0  0  0  0  0  0  0
   22.4136   -9.2128  -15.6294 C   0  0  0  0  0  0  0  0  0  0  0  0
   22.6461   -9.3548  -14.4052 O   0  0  0  0  0  0  0  0  0  0  0  0
   21.3016   -8.4048  -16.0933 C   0  0  0  0  0  0  0  0  0  0  0  0
   19.9186   -8.8848  -15.6533 C   0  0  2  0  0  0  0  0  0  0  0  0
   19.5095  -10.1331  -16.2261 N   0  0  0  0  0  0  0  0  0  0  0  0
   18.9930   -7.8168  -16.1752 C   0  0  0  0  0  0  0  0  0  0  0  0
   18.7314   -7.7183  -17.4024 O   0  0  0  0  0  0  0  0  0  0  0  0
   15.5228   -6.9480  -14.5880 C   0  0  0  0  0  0  0  0  0  0  0  0
   16.3650   -5.6995  -14.6766 C   0  0  2  0  0  0  0  0  0  0  0  0
   15.4811   -4.5610  -15.1020 C   0  0  0  0  0  0  0  0  0  0  0  0
   17.4619   -5.8553  -15.7407 C   0  0  2  0  0  0  0  0  0  0  0  0
   18.3907   -6.8924  -15.2899 N   0  0  0  0  0  0  0  0  0  0  0  0
   18.1652   -4.5577  -15.8052 C   0  0  0  0  0  0  0  0  0  0  0  0
   17.7003   -3.6686  -16.5629 O   0  0  0  0  0  0  0  0  0  0  0  0
   19.3014   -4.2269  -15.1007 O   0  0  0  0  0  0  0  0  0  0  0  0
  2  1  1  1
  2  9  1  0
  3  4  1  0
  3  2  1  0
  4  5  2  0
  4  8  1  0
  5  6  1  0
  6  7  1  0
  8  7  2  0
  9 10  2  0
 11 12  1  0
 12 13  2  0
 12 14  1  0
 15 14  1  6
 15 17  1  0
 16  9  1  0
 16 15  1  0
 17 23  1  0
 17 18  2  0
 20 19  1  6
 20 22  1  0
 21 20  1  0
 22 24  1  0
 22 23  1  1
 24 25  2  0
 24 26  1  0
M  END
$$$$
