HNV.pdb
     RDKit          3D

 26 26  0  0  1  0  0  0  0  0999 V2000
   25.3848  -17.8795  -17.3952 N   0  0  0  0  0  0  0  0  0  0  0  0
   26.1013  -18.1025  -16.1690 C   0  0  1  0  0  0  0  0  0  0  0  0
   26.9919  -16.9225  -15.8859 C   0  0  0  0  0  0  0  0  0  0  0  0
   28.1690  -16.8950  -16.7922 C   0  0  0  0  0  0  0  0  0  0  0  0
   28.9081  -18.0117  -17.1882 C   0  0  0  0  0  0  0  0  0  0  0  0
   29.8997  -17.6025  -18.0076 N   0  0  0  0  0  0  0  0  0  0  0  0
   29.7872  -16.2598  -18.1246 C   0  0  0  0  0  0  0  0  0  0  0  0
   28.7493  -15.8467  -17.3938 N   0  0  0  0  0  0  0  0  0  0  0  0
   25.1191  -18.1813  -15.0109 C   0  0  0  0  0  0  0  0  0  0  0  0
   24.4036  -17.1755  -14.8915 O   0  0  0  0  0  0  0  0  0  0  0  0
   21.3417  -19.8357  -11.6747 N   0  0  0  0  0  0  0  0  0  0  0  0
   22.1409  -20.8093  -12.3138 C   0  0  0  0  0  0  0  0  0  0  0  0
   22.1005  -21.9883  -11.8879 O   0  0  0  0  0  0  0  0  0  0  0  0
   22.9855  -20.4453  -13.4358 C   0  0  0  0  0  0  0  0  0  0  0  0
   24.2016  -19.5880  -13.0853 C   0  0  2  0  0  0  0  0  0  0  0  0
   25.0667  -19.2985  -14.1906 N   0  0  0  0  0  0  0  0  0  0  0  0
   24.9703  -20.4474  -12.1157 C   0  0  0  0  0  0  0  0  0  0  0  0
   25.5143  -21.5221  -12.4807 O   0  0  0  0  0  0  0  0  0  0  0  0
   25.1719  -19.1126   -8.1058 C   0  0  0  0  0  0  0  0  0  0  0  0
   26.2867  -19.9758   -8.6424 C   0  0  2  0  0  0  0  0  0  0  0  0
   27.3365  -19.0791   -9.2358 C   0  0  0  0  0  0  0  0  0  0  0  0
   25.7755  -20.8933   -9.7633 C   0  0  2  0  0  0  0  0  0  0  0  0
   25.1002  -20.0622  -10.7607 N   0  0  0  0  0  0  0  0  0  0  0  0
   24.7970  -21.8067   -9.1384 C   0  0  0  0  0  0  0  0  0  0  0  0
   23.5759  -21.5235   -9.2354 O   0  0  0  0  0  0  0  0  0  0  0  0
   25.1039  -22.9584   -8.4483 O   0  0  0  0  0  0  0  0  0  0  0  0
  2  1  1  6
  2  9  1  0
  3  4  1  0
  3  2  1  0
  4  5  2  0
  4  8  1  0
  5  6  1  0
  6  7  1  0
  8  7  2  0
  9 10  2  0
 11 12  1  0
 12 13  2  0
 12 14  1  0
 15 14  1  6
 15 17  1  0
 16  9  1  0
 16 15  1  0
 17 23  1  0
 17 18  2  0
 20 19  1  6
 20 22  1  0
 21 20  1  0
 22 24  1  0
 22 23  1  6
 24 25  2  0
 24 26  1  0
M  END
$$$$
