HNV.pdb
     RDKit          3D

 26 26  0  0  1  0  0  0  0  0999 V2000
   24.9467  -22.2151  -12.8445 N   0  0  0  0  0  0  0  0  0  0  0  0
   24.5432  -20.8366  -12.9046 C   0  0  1  0  0  0  0  0  0  0  0  0
   25.4022  -20.0208  -11.9761 C   0  0  0  0  0  0  0  0  0  0  0  0
   25.0913  -20.3049  -10.5512 C   0  0  0  0  0  0  0  0  0  0  0  0
   24.1500  -21.2328  -10.1008 C   0  0  0  0  0  0  0  0  0  0  0  0
   24.1406  -21.2150   -8.7511 N   0  0  0  0  0  0  0  0  0  0  0  0
   25.0546  -20.2976   -8.3612 C   0  0  0  0  0  0  0  0  0  0  0  0
   25.6173  -19.7590   -9.4453 N   0  0  0  0  0  0  0  0  0  0  0  0
   24.7923  -20.2923  -14.3025 C   0  0  0  0  0  0  0  0  0  0  0  0
   25.8347  -20.7136  -14.8257 O   0  0  0  0  0  0  0  0  0  0  0  0
   20.1567  -19.3187  -16.0075 N   0  0  0  0  0  0  0  0  0  0  0  0
   21.4174  -19.6139  -16.5721 C   0  0  0  0  0  0  0  0  0  0  0  0
   21.6451  -20.7904  -16.9422 O   0  0  0  0  0  0  0  0  0  0  0  0
   22.4192  -18.5746  -16.7167 C   0  0  0  0  0  0  0  0  0  0  0  0
   23.8252  -18.9549  -16.2530 C   0  0  2  0  0  0  0  0  0  0  0  0
   23.9045  -19.4069  -14.8953 N   0  0  0  0  0  0  0  0  0  0  0  0
   24.5898  -17.6605  -16.3496 C   0  0  0  0  0  0  0  0  0  0  0  0
   24.2566  -16.6503  -15.6768 O   0  0  0  0  0  0  0  0  0  0  0  0
   28.4001  -17.8077  -18.0125 C   0  0  0  0  0  0  0  0  0  0  0  0
   27.9788  -16.6869  -17.0948 C   0  0  2  0  0  0  0  0  0  0  0  0
   28.1190  -17.1589  -15.6750 C   0  0  0  0  0  0  0  0  0  0  0  0
   26.5027  -16.3246  -17.3176 C   0  0  2  0  0  0  0  0  0  0  0  0
   25.7104  -17.5499  -17.2059 N   0  0  0  0  0  0  0  0  0  0  0  0
   26.4073  -15.7997  -18.6953 C   0  0  0  0  0  0  0  0  0  0  0  0
   26.9135  -14.6745  -18.9372 O   0  0  0  0  0  0  0  0  0  0  0  0
   25.8053  -16.4394  -19.7560 O   0  0  0  0  0  0  0  0  0  0  0  0
  2  1  1  6
  2  9  1  0
  3  4  1  0
  3  2  1  0
  4  5  2  0
  4  8  1  0
  5  6  1  0
  6  7  1  0
  8  7  2  0
  9 10  2  0
 11 12  1  0
 12 13  2  0
 12 14  1  0
 15 14  1  1
 15 17  1  0
 16  9  1  0
 16 15  1  0
 17 23  1  0
 17 18  2  0
 20 19  1  6
 20 22  1  0
 21 20  1  0
 22 24  1  0
 22 23  1  6
 24 25  2  0
 24 26  1  0
M  END
$$$$
