FYF.pdb
     RDKit          3D

 35 37  0  0  1  0  0  0  0  0999 V2000
   13.4544  -15.0185    4.2250 N   0  0  0  0  0  0  0  0  0  0  0  0
   14.8842  -14.9840    4.2534 C   0  0  1  0  0  0  0  0  0  0  0  0
   15.3634  -13.9907    5.3076 C   0  0  0  0  0  0  0  0  0  0  0  0
   16.8471  -13.8889    5.2118 C   0  0  0  0  0  0  0  0  0  0  0  0
   17.6937  -14.4746    6.1175 C   0  0  0  0  0  0  0  0  0  0  0  0
   19.0593  -14.3549    5.9904 C   0  0  0  0  0  0  0  0  0  0  0  0
   19.6151  -13.6399    4.9447 C   0  0  0  0  0  0  0  0  0  0  0  0
   18.7842  -13.0447    4.0255 C   0  0  0  0  0  0  0  0  0  0  0  0
   17.4197  -13.1689    4.1593 C   0  0  0  0  0  0  0  0  0  0  0  0
   15.4647  -16.3291    4.5693 C   0  0  0  0  0  0  0  0  0  0  0  0
   15.0029  -17.0390    5.4976 O   0  0  0  0  0  0  0  0  0  0  0  0
   14.2486  -23.2550    1.8025 O   0  0  0  0  0  0  0  0  0  0  0  0
   15.0274  -22.1282    2.0237 C   0  0  0  0  0  0  0  0  0  0  0  0
   14.6250  -20.8801    1.5902 C   0  0  0  0  0  0  0  0  0  0  0  0
   15.4479  -19.7853    1.8404 C   0  0  0  0  0  0  0  0  0  0  0  0
   16.6435  -19.9583    2.5117 C   0  0  0  0  0  0  0  0  0  0  0  0
   17.4822  -18.7806    2.7560 C   0  0  0  0  0  0  0  0  0  0  0  0
   17.1714  -18.1200    4.1063 C   0  0  2  0  0  0  0  0  0  0  0  0
   16.5714  -16.8365    3.8082 N   0  0  0  0  0  0  0  0  0  0  0  0
   18.4891  -17.9401    4.8055 C   0  0  0  0  0  0  0  0  0  0  0  0
   19.4376  -17.2887    4.3006 O   0  0  0  0  0  0  0  0  0  0  0  0
   17.0512  -21.1996    2.9469 C   0  0  0  0  0  0  0  0  0  0  0  0
   16.2204  -22.2872    2.6912 C   0  0  0  0  0  0  0  0  0  0  0  0
   18.7074  -18.5133    6.0866 N   0  0  0  0  0  0  0  0  0  0  0  0
   19.8614  -18.1865    6.9178 C   0  0  1  0  0  0  0  0  0  0  0  0
   19.9926  -16.7232    7.1398 C   0  0  0  0  0  0  0  0  0  0  0  0
   21.1398  -16.4136    7.9932 C   0  0  0  0  0  0  0  0  0  0  0  0
   20.9759  -15.7005    9.1474 C   0  0  0  0  0  0  0  0  0  0  0  0
   22.0776  -15.4229    9.9496 C   0  0  0  0  0  0  0  0  0  0  0  0
   23.3232  -15.8656    9.5789 C   0  0  0  0  0  0  0  0  0  0  0  0
   23.4969  -16.5784    8.4276 C   0  0  0  0  0  0  0  0  0  0  0  0
   22.3900  -16.8475    7.6385 C   0  0  0  0  0  0  0  0  0  0  0  0
   19.7004  -18.8865    8.1997 C   0  0  0  0  0  0  0  0  0  0  0  0
   18.6288  -19.0141    8.8425 O   0  0  0  0  0  0  0  0  0  0  0  0
   20.8150  -19.4780    8.7915 O   0  0  0  0  0  0  0  0  0  0  0  0
  2  1  1  1
  2  3  1  0
  3  4  1  0
  4  9  1  0
  5  4  2  0
  5  6  1  0
  6  7  2  0
  7  8  1  0
  9  8  2  0
 10 11  2  0
 10  2  1  0
 12 13  1  0
 13 14  2  0
 14 15  1  0
 16 15  2  0
 16 17  1  0
 18 17  1  6
 18 19  1  0
 19 10  1  0
 20 18  1  0
 21 20  2  0
 22 16  1  0
 23 13  1  0
 23 22  2  0
 24 20  1  0
 25 24  1  0
 25 26  1  1
 26 27  1  0
 27 32  1  0
 28 27  2  0
 28 29  1  0
 29 30  2  0
 30 31  1  0
 32 31  2  0
 33 35  1  0
 33 25  1  0
 34 33  2  0
M  END
$$$$
