FYF.pdb
     RDKit          3D

 35 37  0  0  1  0  0  0  0  0999 V2000
   26.5400  -19.0562  -18.4392 N   0  0  0  0  0  0  0  0  0  0  0  0
   26.6989  -19.6754  -17.1595 C   0  0  1  0  0  0  0  0  0  0  0  0
   26.8219  -18.6105  -16.0739 C   0  0  0  0  0  0  0  0  0  0  0  0
   28.0580  -17.8200  -16.3344 C   0  0  0  0  0  0  0  0  0  0  0  0
   29.3092  -18.3803  -16.3573 C   0  0  0  0  0  0  0  0  0  0  0  0
   30.4249  -17.6117  -16.6022 C   0  0  0  0  0  0  0  0  0  0  0  0
   30.3139  -16.2521  -16.8320 C   0  0  0  0  0  0  0  0  0  0  0  0
   29.0687  -15.6703  -16.8134 C   0  0  0  0  0  0  0  0  0  0  0  0
   27.9578  -16.4455  -16.5678 C   0  0  0  0  0  0  0  0  0  0  0  0
   25.5382  -20.5627  -16.8254 C   0  0  0  0  0  0  0  0  0  0  0  0
   24.3583  -20.2252  -17.0947 O   0  0  0  0  0  0  0  0  0  0  0  0
   21.1782  -27.9478  -15.1267 O   0  0  0  0  0  0  0  0  0  0  0  0
   22.1716  -26.9966  -15.3103 C   0  0  0  0  0  0  0  0  0  0  0  0
   22.4133  -26.4403  -16.5510 C   0  0  0  0  0  0  0  0  0  0  0  0
   23.4234  -25.4902  -16.6751 C   0  0  0  0  0  0  0  0  0  0  0  0
   24.1635  -25.1194  -15.5684 C   0  0  0  0  0  0  0  0  0  0  0  0
   25.2185  -24.1157  -15.7400 C   0  0  0  0  0  0  0  0  0  0  0  0
   24.6536  -22.6902  -15.8126 C   0  0  2  0  0  0  0  0  0  0  0  0
   25.7563  -21.8288  -16.1844 N   0  0  0  0  0  0  0  0  0  0  0  0
   24.1615  -22.3565  -14.4327 C   0  0  0  0  0  0  0  0  0  0  0  0
   24.7119  -22.8007  -13.3942 O   0  0  0  0  0  0  0  0  0  0  0  0
   23.9282  -25.6698  -14.3282 C   0  0  0  0  0  0  0  0  0  0  0  0
   22.9156  -26.6189  -14.2159 C   0  0  0  0  0  0  0  0  0  0  0  0
   23.0346  -21.5100  -14.2565 N   0  0  0  0  0  0  0  0  0  0  0  0
   22.3732  -21.3243  -12.9690 C   0  0  1  0  0  0  0  0  0  0  0  0
   22.9222  -20.1629  -12.2222 C   0  0  0  0  0  0  0  0  0  0  0  0
   24.2102  -20.4841  -11.6075 C   0  0  0  0  0  0  0  0  0  0  0  0
   25.3778  -20.2600  -12.2815 C   0  0  0  0  0  0  0  0  0  0  0  0
   26.5929  -20.5646  -11.6772 C   0  0  0  0  0  0  0  0  0  0  0  0
   26.6142  -21.0885  -10.4085 C   0  0  0  0  0  0  0  0  0  0  0  0
   25.4530  -21.3162   -9.7274 C   0  0  0  0  0  0  0  0  0  0  0  0
   24.2500  -21.0077  -10.3422 C   0  0  0  0  0  0  0  0  0  0  0  0
   20.9391  -21.1355  -13.2273 C   0  0  0  0  0  0  0  0  0  0  0  0
   20.4089  -20.9483  -14.3506 O   0  0  0  0  0  0  0  0  0  0  0  0
   20.0502  -21.1594  -12.1542 O   0  0  0  0  0  0  0  0  0  0  0  0
  2  1  1  6
  2  3  1  0
  3  4  1  0
  4  9  1  0
  5  4  2  0
  5  6  1  0
  6  7  2  0
  7  8  1  0
  9  8  2  0
 10 11  2  0
 10  2  1  0
 12 13  1  0
 13 14  2  0
 14 15  1  0
 16 15  2  0
 16 17  1  0
 18 17  1  1
 18 19  1  0
 19 10  1  0
 20 18  1  0
 21 20  2  0
 22 16  1  0
 23 13  1  0
 23 22  2  0
 24 20  1  0
 25 24  1  0
 25 26  1  6
 26 27  1  0
 27 32  1  0
 28 27  2  0
 28 29  1  0
 29 30  2  0
 30 31  1  0
 32 31  2  0
 33 35  1  0
 33 25  1  0
 34 33  2  0
M  END
$$$$
