FYF.pdb
     RDKit          3D

 35 37  0  0  1  0  0  0  0  0999 V2000
   24.4634  -15.8470  -17.7449 N   0  0  0  0  0  0  0  0  0  0  0  0
   25.4181  -16.4641  -16.8764 C   0  0  1  0  0  0  0  0  0  0  0  0
   26.2997  -15.4014  -16.2274 C   0  0  0  0  0  0  0  0  0  0  0  0
   27.3809  -15.0426  -17.1882 C   0  0  0  0  0  0  0  0  0  0  0  0
   27.4510  -13.8216  -17.8082 C   0  0  0  0  0  0  0  0  0  0  0  0
   28.4684  -13.5324  -18.6896 C   0  0  0  0  0  0  0  0  0  0  0  0
   29.4484  -14.4665  -18.9739 C   0  0  0  0  0  0  0  0  0  0  0  0
   29.3968  -15.6968  -18.3632 C   0  0  0  0  0  0  0  0  0  0  0  0
   28.3764  -15.9785  -17.4830 C   0  0  0  0  0  0  0  0  0  0  0  0
   24.7508  -17.2548  -15.7922 C   0  0  0  0  0  0  0  0  0  0  0  0
   23.8874  -16.7360  -15.0412 O   0  0  0  0  0  0  0  0  0  0  0  0
   19.0728  -19.2249  -17.9059 O   0  0  0  0  0  0  0  0  0  0  0  0
   20.2298  -19.5753  -17.2247 C   0  0  0  0  0  0  0  0  0  0  0  0
   20.2130  -19.8426  -15.8699 C   0  0  0  0  0  0  0  0  0  0  0  0
   21.4049  -20.1893  -15.2395 C   0  0  0  0  0  0  0  0  0  0  0  0
   22.5769  -20.2611  -15.9683 C   0  0  0  0  0  0  0  0  0  0  0  0
   23.8113  -20.6296  -15.2680 C   0  0  0  0  0  0  0  0  0  0  0  0
   24.4542  -19.4291  -14.5596 C   0  0  2  0  0  0  0  0  0  0  0  0
   25.0902  -18.6352  -15.5899 N   0  0  0  0  0  0  0  0  0  0  0  0
   25.4785  -19.9908  -13.6146 C   0  0  0  0  0  0  0  0  0  0  0  0
   26.5308  -20.5491  -14.0141 O   0  0  0  0  0  0  0  0  0  0  0  0
   22.6014  -19.9960  -17.3193 C   0  0  0  0  0  0  0  0  0  0  0  0
   21.4036  -19.6503  -17.9393 C   0  0  0  0  0  0  0  0  0  0  0  0
   25.2841  -19.9057  -12.2101 N   0  0  0  0  0  0  0  0  0  0  0  0
   26.2346  -20.4428  -11.2419 C   0  0  1  0  0  0  0  0  0  0  0  0
   25.9300  -20.0002   -9.8565 C   0  0  0  0  0  0  0  0  0  0  0  0
   24.5569  -20.3351   -9.4790 C   0  0  0  0  0  0  0  0  0  0  0  0
   23.5004  -19.8591  -10.2036 C   0  0  0  0  0  0  0  0  0  0  0  0
   22.2025  -20.1951   -9.8336 C   0  0  0  0  0  0  0  0  0  0  0  0
   21.9884  -21.0019   -8.7437 C   0  0  0  0  0  0  0  0  0  0  0  0
   23.0374  -21.4821   -8.0136 C   0  0  0  0  0  0  0  0  0  0  0  0
   24.3249  -21.1390   -8.3942 C   0  0  0  0  0  0  0  0  0  0  0  0
   26.1850  -21.9084  -11.3338 C   0  0  0  0  0  0  0  0  0  0  0  0
   25.3150  -22.5818  -11.9402 O   0  0  0  0  0  0  0  0  0  0  0  0
   27.1761  -22.6591  -10.7042 O   0  0  0  0  0  0  0  0  0  0  0  0
  2  1  1  6
  2  3  1  0
  3  4  1  0
  4  9  1  0
  5  4  2  0
  5  6  1  0
  6  7  2  0
  7  8  1  0
  9  8  2  0
 10 11  2  0
 10  2  1  0
 12 13  1  0
 13 14  2  0
 14 15  1  0
 16 15  2  0
 16 17  1  0
 18 17  1  6
 18 19  1  0
 19 10  1  0
 20 18  1  0
 21 20  2  0
 22 16  1  0
 23 13  1  0
 23 22  2  0
 24 20  1  0
 25 24  1  0
 25 26  1  1
 26 27  1  0
 27 32  1  0
 28 27  2  0
 28 29  1  0
 29 30  2  0
 30 31  1  0
 32 31  2  0
 33 35  1  0
 33 25  1  0
 34 33  2  0
M  END
$$$$
