FYF.pdb
     RDKit          3D

 35 37  0  0  1  0  0  0  0  0999 V2000
   24.9995  -18.9708  -14.3955 N   0  0  0  0  0  0  0  0  0  0  0  0
   24.2178  -18.6668  -15.5544 C   0  0  1  0  0  0  0  0  0  0  0  0
   24.9624  -19.0945  -16.8154 C   0  0  0  0  0  0  0  0  0  0  0  0
   26.2024  -18.2752  -16.9250 C   0  0  0  0  0  0  0  0  0  0  0  0
   27.4550  -18.8272  -17.0039 C   0  0  0  0  0  0  0  0  0  0  0  0
   28.5743  -18.0318  -17.1041 C   0  0  0  0  0  0  0  0  0  0  0  0
   28.4657  -16.6530  -17.1280 C   0  0  0  0  0  0  0  0  0  0  0  0
   27.2191  -16.0791  -17.0500 C   0  0  0  0  0  0  0  0  0  0  0  0
   26.1046  -16.8811  -16.9500 C   0  0  0  0  0  0  0  0  0  0  0  0
   22.8913  -19.3638  -15.5264 C   0  0  0  0  0  0  0  0  0  0  0  0
   22.7568  -20.4924  -14.9909 O   0  0  0  0  0  0  0  0  0  0  0  0
   20.2557  -19.2767   -9.8664 O   0  0  0  0  0  0  0  0  0  0  0  0
   20.0781  -19.0870  -11.2295 C   0  0  0  0  0  0  0  0  0  0  0  0
   20.6182  -17.9946  -11.8793 C   0  0  0  0  0  0  0  0  0  0  0  0
   20.4072  -17.8564  -13.2485 C   0  0  0  0  0  0  0  0  0  0  0  0
   19.6684  -18.8028  -13.9331 C   0  0  0  0  0  0  0  0  0  0  0  0
   19.4684  -18.6216  -15.3743 C   0  0  0  0  0  0  0  0  0  0  0  0
   20.4685  -19.4392  -16.2037 C   0  0  2  0  0  0  0  0  0  0  0  0
   21.7374  -18.7472  -16.1177 N   0  0  0  0  0  0  0  0  0  0  0  0
   19.9556  -19.4333  -17.6159 C   0  0  0  0  0  0  0  0  0  0  0  0
   20.1200  -18.4569  -18.3895 O   0  0  0  0  0  0  0  0  0  0  0  0
   19.1268  -19.8945  -13.2919 C   0  0  0  0  0  0  0  0  0  0  0  0
   19.3443  -20.0225  -11.9225 C   0  0  0  0  0  0  0  0  0  0  0  0
   19.2540  -20.5560  -18.1307 N   0  0  0  0  0  0  0  0  0  0  0  0
   18.8333  -20.6601  -19.5241 C   0  0  1  0  0  0  0  0  0  0  0  0
   19.5236  -21.7680  -20.2341 C   0  0  0  0  0  0  0  0  0  0  0  0
   19.3717  -23.0358  -19.5203 C   0  0  0  0  0  0  0  0  0  0  0  0
   20.3119  -23.4416  -18.6153 C   0  0  0  0  0  0  0  0  0  0  0  0
   20.1459  -24.6466  -17.9408 C   0  0  0  0  0  0  0  0  0  0  0  0
   19.0401  -25.4221  -18.1870 C   0  0  0  0  0  0  0  0  0  0  0  0
   18.0956  -25.0252  -19.0894 C   0  0  0  0  0  0  0  0  0  0  0  0
   18.2745  -23.8223  -19.7537 C   0  0  0  0  0  0  0  0  0  0  0  0
   17.3792  -20.8715  -19.5365 C   0  0  0  0  0  0  0  0  0  0  0  0
   16.6485  -20.9222  -20.5570 O   0  0  0  0  0  0  0  0  0  0  0  0
   16.7098  -21.0356  -18.3252 O   0  0  0  0  0  0  0  0  0  0  0  0
  2  1  1  1
  2  3  1  0
  3  4  1  0
  4  9  1  0
  5  4  2  0
  5  6  1  0
  6  7  2  0
  7  8  1  0
  9  8  2  0
 10 11  2  0
 10  2  1  0
 12 13  1  0
 13 14  2  0
 14 15  1  0
 16 15  2  0
 16 17  1  0
 18 17  1  1
 18 19  1  0
 19 10  1  0
 20 18  1  0
 21 20  2  0
 22 16  1  0
 23 13  1  0
 23 22  2  0
 24 20  1  0
 25 24  1  0
 25 26  1  1
 26 27  1  0
 27 32  1  0
 28 27  2  0
 28 29  1  0
 29 30  2  0
 30 31  1  0
 32 31  2  0
 33 35  1  0
 33 25  1  0
 34 33  2  0
M  END
$$$$
