FYF.pdb
     RDKit          3D

 35 37  0  0  1  0  0  0  0  0999 V2000
   24.7003  -18.3676  -19.8655 N   0  0  0  0  0  0  0  0  0  0  0  0
   23.7679  -17.9437  -18.8667 C   0  0  1  0  0  0  0  0  0  0  0  0
   22.4310  -17.5937  -19.5130 C   0  0  0  0  0  0  0  0  0  0  0  0
   22.6349  -16.4088  -20.3934 C   0  0  0  0  0  0  0  0  0  0  0  0
   22.5116  -16.4650  -21.7579 C   0  0  0  0  0  0  0  0  0  0  0  0
   22.7090  -15.3447  -22.5334 C   0  0  0  0  0  0  0  0  0  0  0  0
   23.0372  -14.1308  -21.9568 C   0  0  0  0  0  0  0  0  0  0  0  0
   23.1657  -14.0526  -20.5905 C   0  0  0  0  0  0  0  0  0  0  0  0
   22.9668  -15.1773  -19.8217 C   0  0  0  0  0  0  0  0  0  0  0  0
   23.5345  -19.0092  -17.8390 C   0  0  0  0  0  0  0  0  0  0  0  0
   23.3221  -20.2023  -18.1706 O   0  0  0  0  0  0  0  0  0  0  0  0
   29.3334  -21.3557  -16.4494 O   0  0  0  0  0  0  0  0  0  0  0  0
   28.1297  -20.8798  -15.9494 C   0  0  0  0  0  0  0  0  0  0  0  0
   27.8328  -19.5311  -15.9534 C   0  0  0  0  0  0  0  0  0  0  0  0
   26.6092  -19.1118  -15.4384 C   0  0  0  0  0  0  0  0  0  0  0  0
   25.7166  -20.0393  -14.9352 C   0  0  0  0  0  0  0  0  0  0  0  0
   24.4384  -19.5580  -14.4018 C   0  0  0  0  0  0  0  0  0  0  0  0
   23.3012  -19.6832  -15.4253 C   0  0  2  0  0  0  0  0  0  0  0  0
   23.5495  -18.6818  -16.4411 N   0  0  0  0  0  0  0  0  0  0  0  0
   22.0279  -19.3843  -14.6857 C   0  0  0  0  0  0  0  0  0  0  0  0
   21.7766  -18.2508  -14.2055 O   0  0  0  0  0  0  0  0  0  0  0  0
   26.0056  -21.3856  -14.9280 C   0  0  0  0  0  0  0  0  0  0  0  0
   27.2322  -21.7935  -15.4455 C   0  0  0  0  0  0  0  0  0  0  0  0
   21.0482  -20.3965  -14.5029 N   0  0  0  0  0  0  0  0  0  0  0  0
   19.7103  -20.1242  -13.9876 C   0  0  1  0  0  0  0  0  0  0  0  0
   18.9159  -19.2794  -14.9166 C   0  0  0  0  0  0  0  0  0  0  0  0
   18.7131  -19.9459  -16.2030 C   0  0  0  0  0  0  0  0  0  0  0  0
   17.6096  -20.7231  -16.4175 C   0  0  0  0  0  0  0  0  0  0  0  0
   17.4305  -21.3422  -17.6499 C   0  0  0  0  0  0  0  0  0  0  0  0
   18.3616  -21.1706  -18.6440 C   0  0  0  0  0  0  0  0  0  0  0  0
   19.4673  -20.3963  -18.4391 C   0  0  0  0  0  0  0  0  0  0  0  0
   19.6323  -19.7856  -17.2061 C   0  0  0  0  0  0  0  0  0  0  0  0
   19.0436  -21.4159  -13.7730 C   0  0  0  0  0  0  0  0  0  0  0  0
   19.4921  -22.5425  -14.1008 O   0  0  0  0  0  0  0  0  0  0  0  0
   17.7964  -21.4377  -13.1514 O   0  0  0  0  0  0  0  0  0  0  0  0
  2  1  1  6
  2  3  1  0
  3  4  1  0
  4  9  1  0
  5  4  2  0
  5  6  1  0
  6  7  2  0
  7  8  1  0
  9  8  2  0
 10 11  2  0
 10  2  1  0
 12 13  1  0
 13 14  2  0
 14 15  1  0
 16 15  2  0
 16 17  1  0
 18 17  1  1
 18 19  1  0
 19 10  1  0
 20 18  1  0
 21 20  2  0
 22 16  1  0
 23 13  1  0
 23 22  2  0
 24 20  1  0
 25 24  1  0
 25 26  1  6
 26 27  1  0
 27 32  1  0
 28 27  2  0
 28 29  1  0
 29 30  2  0
 30 31  1  0
 32 31  2  0
 33 35  1  0
 33 25  1  0
 34 33  2  0
M  END
$$$$
