RCD.pdb
     RDKit          3D

 26 25  0  0  1  0  0  0  0  0999 V2000
    8.6308  -15.4870   15.9002 N   0  0  0  0  0  0  0  0  0  0  0  0
    8.6975  -14.0973   16.2108 C   0  0  0  0  0  0  0  0  0  0  0  0
    8.0020  -13.2415   15.5480 N   0  0  0  0  0  0  0  0  0  0  0  0
    9.5351  -13.6416   17.2598 N   0  0  0  0  0  0  0  0  0  0  0  0
    9.0842  -13.7722   18.6291 C   0  0  0  0  0  0  0  0  0  0  0  0
    7.5557  -13.6713   18.7383 C   0  0  0  0  0  0  0  0  0  0  0  0
    7.2418  -13.7792   20.2037 C   0  0  0  0  0  0  0  0  0  0  0  0
    7.7362  -15.0538   20.8394 C   0  0  2  0  0  0  0  0  0  0  0  0
    6.5623  -15.8739   21.0753 N   0  0  0  0  0  0  0  0  0  0  0  0
    8.4498  -14.8699   22.1002 C   0  0  0  0  0  0  0  0  0  0  0  0
    9.6255  -14.3928   22.1889 O   0  0  0  0  0  0  0  0  0  0  0  0
    8.0630  -12.2186   15.6706 N   0  0  0  0  0  0  0  0  0  0  0  0
    7.8446  -15.2274   23.3313 C   0  0  1  0  0  0  0  0  0  0  0  0
    8.6114  -15.1267   24.5936 C   0  0  0  0  0  0  0  0  0  0  0  0
    7.6198  -14.6831   25.6787 S   0  0  0  0  0  0  0  0  0  0  0  0
    6.1037  -15.6502   25.5767 C   0  0  0  0  0  0  0  0  0  0  0  0
    9.0296  -16.5098   24.9428 O   0  0  0  0  0  0  0  0  0  0  0  0
    8.9399  -17.4290   24.0653 N   0  0  0  0  0  0  0  0  0  0  0  0
    9.5345  -16.9040   26.1953 C   0  0  1  0  0  0  0  0  0  0  0  0
   10.7430  -17.6949   26.2671 C   0  0  0  0  0  0  0  0  0  0  0  0
   11.9050  -17.0725   25.5177 C   0  0  0  0  0  0  0  0  0  0  0  0
   12.2318  -17.9100   24.3618 O   0  0  0  0  0  0  0  0  0  0  0  0
   11.4951  -18.9087   24.0829 C   0  0  0  0  0  0  0  0  0  0  0  0
   11.0611  -17.9329   27.6843 O   0  0  0  0  0  0  0  0  0  0  0  0
   10.7954  -17.0726   28.5490 O   0  0  0  0  0  0  0  0  0  0  0  0
   13.3304  -17.6687   23.5348 O   0  0  0  0  0  0  0  0  0  0  0  0
  2  1  1  0
  2  3  2  0
  4  2  1  0
  5  4  1  0
  6  5  1  0
  7  8  1  0
  7  6  1  0
  8 10  1  0
  8  9  1  1
 10 11  2  0
 12 13  1  0
 12 10  1  0
 13 16  1  0
 14 15  1  0
 13 14  1  1
 16 17  2  0
 18 19  1  0
 18 16  1  0
 19 23  1  0
 20 21  1  0
 19 20  1  1
 21 22  2  0
 23 24  2  0
 23 26  1  0
 25 21  1  0
M  END
$$$$
