RCD.pdb
     RDKit          3D

 26 25  0  0  1  0  0  0  0  0999 V2000
   10.8902  -13.8662   18.1983 N   0  0  0  0  0  0  0  0  0  0  0  0
   11.5208  -14.5583   19.2733 C   0  0  0  0  0  0  0  0  0  0  0  0
   12.7599  -14.3513   19.5515 N   0  0  0  0  0  0  0  0  0  0  0  0
   10.7846  -15.4864   20.0518 N   0  0  0  0  0  0  0  0  0  0  0  0
    9.3467  -15.3458   20.1433 C   0  0  0  0  0  0  0  0  0  0  0  0
    8.9167  -13.8716   20.1421 C   0  0  0  0  0  0  0  0  0  0  0  0
    7.4364  -13.8766   20.3990 C   0  0  0  0  0  0  0  0  0  0  0  0
    7.0225  -14.7524   21.5544 C   0  0  2  0  0  0  0  0  0  0  0  0
    5.6356  -15.1095   21.3192 N   0  0  0  0  0  0  0  0  0  0  0  0
    7.1365  -14.1240   22.8677 C   0  0  0  0  0  0  0  0  0  0  0  0
    6.8808  -12.8989   23.0946 O   0  0  0  0  0  0  0  0  0  0  0  0
   13.2494  -14.7482   20.3688 N   0  0  0  0  0  0  0  0  0  0  0  0
    7.5529  -14.8766   23.9946 C   0  0  1  0  0  0  0  0  0  0  0  0
    7.8880  -14.1917   25.2635 C   0  0  0  0  0  0  0  0  0  0  0  0
    6.5700  -13.6478   25.8334 S   0  0  0  0  0  0  0  0  0  0  0  0
    6.8126  -13.0498   27.5149 C   0  0  0  0  0  0  0  0  0  0  0  0
    8.3505  -15.2479   26.2019 O   0  0  0  0  0  0  0  0  0  0  0  0
    7.6310  -16.2844   26.3782 N   0  0  0  0  0  0  0  0  0  0  0  0
    9.5519  -15.2031   26.9323 C   0  0  1  0  0  0  0  0  0  0  0  0
    9.9752  -16.3585   27.6920 C   0  0  0  0  0  0  0  0  0  0  0  0
   10.3209  -17.5489   26.8187 C   0  0  0  0  0  0  0  0  0  0  0  0
   11.2955  -17.1332   25.8079 O   0  0  0  0  0  0  0  0  0  0  0  0
   11.7253  -15.9360   25.8064 C   0  0  0  0  0  0  0  0  0  0  0  0
   11.0973  -15.9617   28.5578 O   0  0  0  0  0  0  0  0  0  0  0  0
   11.7753  -16.8231   29.1551 O   0  0  0  0  0  0  0  0  0  0  0  0
   11.7863  -17.9953   24.8256 O   0  0  0  0  0  0  0  0  0  0  0  0
  2  1  1  0
  2  3  2  0
  4  2  1  0
  5  4  1  0
  6  5  1  0
  7  8  1  0
  7  6  1  0
  8 10  1  0
  8  9  1  6
 10 11  2  0
 12 13  1  0
 12 10  1  0
 13 16  1  0
 14 15  1  0
 13 14  1  1
 16 17  2  0
 18 19  1  0
 18 16  1  0
 19 23  1  0
 20 21  1  0
 19 20  1  1
 21 22  2  0
 23 24  2  0
 23 26  1  0
 25 21  1  0
M  END
$$$$
