RCD.pdb
     RDKit          3D

 26 25  0  0  1  0  0  0  0  0999 V2000
    7.9134  -12.7528   18.1731 N   0  0  0  0  0  0  0  0  0  0  0  0
    7.7176  -13.8064   17.2330 C   0  0  0  0  0  0  0  0  0  0  0  0
    7.8285  -13.5892   15.9696 N   0  0  0  0  0  0  0  0  0  0  0  0
    7.3975  -15.1120   17.6832 N   0  0  0  0  0  0  0  0  0  0  0  0
    7.5083  -15.4182   19.0936 C   0  0  0  0  0  0  0  0  0  0  0  0
    8.7838  -14.8230   19.7078 C   0  0  0  0  0  0  0  0  0  0  0  0
    9.2419  -15.8136   20.7405 C   0  0  0  0  0  0  0  0  0  0  0  0
    8.3525  -15.8802   21.9561 C   0  0  2  0  0  0  0  0  0  0  0  0
    7.1928  -15.0599   21.6586 N   0  0  0  0  0  0  0  0  0  0  0  0
    8.9697  -15.4025   23.1904 C   0  0  0  0  0  0  0  0  0  0  0  0
   10.1947  -15.0759   23.2931 O   0  0  0  0  0  0  0  0  0  0  0  0
    7.6769  -14.3019   15.2388 N   0  0  0  0  0  0  0  0  0  0  0  0
    8.2054  -15.2750   24.3776 C   0  0  1  0  0  0  0  0  0  0  0  0
    8.8583  -14.8664   25.6419 C   0  0  0  0  0  0  0  0  0  0  0  0
    7.7939  -14.1350   26.4724 S   0  0  0  0  0  0  0  0  0  0  0  0
    8.5633  -12.8896   27.5218 C   0  0  0  0  0  0  0  0  0  0  0  0
    9.1782  -16.1200   26.3741 O   0  0  0  0  0  0  0  0  0  0  0  0
    8.2560  -16.9743   26.5809 N   0  0  0  0  0  0  0  0  0  0  0  0
   10.4502  -16.4575   26.8710 C   0  0  1  0  0  0  0  0  0  0  0  0
   10.6425  -17.7130   27.5623 C   0  0  0  0  0  0  0  0  0  0  0  0
   12.0364  -18.2821   27.3824 C   0  0  0  0  0  0  0  0  0  0  0  0
   12.3505  -18.3347   25.9531 O   0  0  0  0  0  0  0  0  0  0  0  0
   11.5444  -18.9100   25.1549 C   0  0  0  0  0  0  0  0  0  0  0  0
   10.3008  -17.5214   28.9810 O   0  0  0  0  0  0  0  0  0  0  0  0
   10.0035  -16.3899   29.4165 O   0  0  0  0  0  0  0  0  0  0  0  0
   13.5098  -17.7790   25.4089 O   0  0  0  0  0  0  0  0  0  0  0  0
  2  1  1  0
  2  3  2  0
  4  2  1  0
  5  4  1  0
  6  5  1  0
  7  8  1  0
  7  6  1  0
  8 10  1  0
  8  9  1  6
 10 11  2  0
 12 13  1  0
 12 10  1  0
 13 16  1  0
 14 15  1  0
 13 14  1  6
 16 17  2  0
 18 19  1  0
 18 16  1  0
 19 23  1  0
 20 21  1  0
 19 20  1  1
 21 22  2  0
 23 24  2  0
 23 26  1  0
 25 21  1  0
M  END
$$$$
