RCD.pdb
     RDKit          3D

 26 25  0  0  1  0  0  0  0  0999 V2000
    6.9501  -15.6603   16.5232 N   0  0  0  0  0  0  0  0  0  0  0  0
    7.6273  -14.4232   16.3156 C   0  0  0  0  0  0  0  0  0  0  0  0
    7.5553  -13.8162   15.1833 N   0  0  0  0  0  0  0  0  0  0  0  0
    8.3909  -13.8453   17.3608 N   0  0  0  0  0  0  0  0  0  0  0  0
    8.7567  -14.6601   18.5000 C   0  0  0  0  0  0  0  0  0  0  0  0
    7.5213  -15.1789   19.2503 C   0  0  0  0  0  0  0  0  0  0  0  0
    7.8931  -15.1712   20.7060 C   0  0  0  0  0  0  0  0  0  0  0  0
    7.6910  -13.8370   21.3784 C   0  0  2  0  0  0  0  0  0  0  0  0
    8.2089  -12.8365   20.4635 N   0  0  0  0  0  0  0  0  0  0  0  0
    8.3618  -13.6958   22.6680 C   0  0  0  0  0  0  0  0  0  0  0  0
    9.6158  -13.5319   22.8033 O   0  0  0  0  0  0  0  0  0  0  0  0
    8.0260  -12.9234   14.9680 N   0  0  0  0  0  0  0  0  0  0  0  0
    7.6205  -13.7362   23.8757 C   0  0  1  0  0  0  0  0  0  0  0  0
    8.3191  -13.6719   25.1793 C   0  0  0  0  0  0  0  0  0  0  0  0
    7.3465  -13.0155   26.1698 S   0  0  0  0  0  0  0  0  0  0  0  0
    5.6429  -13.3037   25.6610 C   0  0  0  0  0  0  0  0  0  0  0  0
    8.4976  -15.0771   25.6303 O   0  0  0  0  0  0  0  0  0  0  0  0
    7.8598  -16.0079   25.0389 N   0  0  0  0  0  0  0  0  0  0  0  0
    9.3378  -15.4819   26.6835 C   0  0  2  0  0  0  0  0  0  0  0  0
    9.7214  -16.8709   26.8043 C   0  0  0  0  0  0  0  0  0  0  0  0
   10.6309  -17.3351   25.6832 C   0  0  0  0  0  0  0  0  0  0  0  0
   10.3495  -18.7422   25.3910 O   0  0  0  0  0  0  0  0  0  0  0  0
    9.4628  -19.3571   26.0644 C   0  0  0  0  0  0  0  0  0  0  0  0
   10.3279  -17.0737   28.1299 O   0  0  0  0  0  0  0  0  0  0  0  0
   10.0814  -18.1033   28.7913 O   0  0  0  0  0  0  0  0  0  0  0  0
   11.0158  -19.4596   24.3959 O   0  0  0  0  0  0  0  0  0  0  0  0
  2  1  1  0
  2  3  2  0
  4  2  1  0
  5  4  1  0
  6  5  1  0
  7  8  1  0
  7  6  1  0
  8 10  1  0
  8  9  1  6
 10 11  2  0
 12 13  1  0
 12 10  1  0
 13 16  1  0
 14 15  1  0
 13 14  1  1
 16 17  2  0
 18 19  1  0
 18 16  1  0
 19 23  1  0
 20 21  1  0
 19 20  1  1
 21 22  2  0
 23 24  2  0
 23 26  1  0
 25 21  1  0
M  END
$$$$
