RCD.pdb
     RDKit          3D

 26 25  0  0  1  0  0  0  0  0999 V2000
    8.8295  -17.3550   19.3222 N   0  0  0  0  0  0  0  0  0  0  0  0
    8.3939  -17.4199   17.9664 C   0  0  0  0  0  0  0  0  0  0  0  0
    8.8842  -18.2938   17.1593 N   0  0  0  0  0  0  0  0  0  0  0  0
    7.4096  -16.5172   17.4909 N   0  0  0  0  0  0  0  0  0  0  0  0
    7.4095  -15.1539   17.9775 C   0  0  0  0  0  0  0  0  0  0  0  0
    8.2940  -14.9928   19.2225 C   0  0  0  0  0  0  0  0  0  0  0  0
    7.3484  -14.8714   20.3838 C   0  0  0  0  0  0  0  0  0  0  0  0
    7.1917  -13.4619   20.8957 C   0  0  2  0  0  0  0  0  0  0  0  0
    7.8672  -12.6034   19.9402 N   0  0  0  0  0  0  0  0  0  0  0  0
    7.7520  -13.2295   22.2241 C   0  0  0  0  0  0  0  0  0  0  0  0
    8.3470  -12.1592   22.5678 O   0  0  0  0  0  0  0  0  0  0  0  0
    8.6374  -18.3698   16.1602 N   0  0  0  0  0  0  0  0  0  0  0  0
    7.6564  -14.2220   23.2319 C   0  0  2  0  0  0  0  0  0  0  0  0
    8.0760  -13.9166   24.6183 C   0  0  0  0  0  0  0  0  0  0  0  0
    7.0686  -12.8978   25.1706 S   0  0  0  0  0  0  0  0  0  0  0  0
    7.4328  -12.5264   26.8950 C   0  0  0  0  0  0  0  0  0  0  0  0
    7.8851  -15.1665   25.4002 O   0  0  0  0  0  0  0  0  0  0  0  0
    7.0176  -16.0165   25.0157 N   0  0  0  0  0  0  0  0  0  0  0  0
    8.6030  -15.5046   26.5617 C   0  0  1  0  0  0  0  0  0  0  0  0
    9.5874  -16.5630   26.5162 C   0  0  0  0  0  0  0  0  0  0  0  0
   10.6181  -16.3683   25.4212 C   0  0  0  0  0  0  0  0  0  0  0  0
   10.8114  -17.6369   24.7158 O   0  0  0  0  0  0  0  0  0  0  0  0
   10.1305  -18.6550   25.0587 C   0  0  0  0  0  0  0  0  0  0  0  0
   10.2070  -16.6812   27.8460 O   0  0  0  0  0  0  0  0  0  0  0  0
   10.7088  -15.6840   28.4048 O   0  0  0  0  0  0  0  0  0  0  0  0
   11.7216  -17.7930   23.6687 O   0  0  0  0  0  0  0  0  0  0  0  0
  2  1  1  0
  2  3  2  0
  4  2  1  0
  5  4  1  0
  6  5  1  0
  7  8  1  0
  7  6  1  0
  8 10  1  0
  8  9  1  6
 10 11  2  0
 12 13  1  0
 12 10  1  0
 13 16  1  0
 14 15  1  0
 13 14  1  1
 16 17  2  0
 18 19  1  0
 18 16  1  0
 19 23  1  0
 20 21  1  0
 19 20  1  1
 21 22  2  0
 23 24  2  0
 23 26  1  0
 25 21  1  0
M  END
$$$$
