VPM.pdb
     RDKit          3D

 23 23  0  0  1  0  0  0  0  0999 V2000
    7.9935  -13.0284   26.7860 C   0  0  0  0  0  0  0  0  0  0  0  0
    6.9945  -12.6595   25.7143 C   0  0  2  0  0  0  0  0  0  0  0  0
    6.0364  -11.6374   26.2517 C   0  0  0  0  0  0  0  0  0  0  0  0
    6.2900  -13.9259   25.2582 C   0  0  2  0  0  0  0  0  0  0  0  0
    5.5697  -14.4364   26.3798 N   0  0  0  0  0  0  0  0  0  0  0  0
    7.2156  -14.8941   24.6639 C   0  0  0  0  0  0  0  0  0  0  0  0
    7.7292  -15.7993   25.4200 O   0  0  0  0  0  0  0  0  0  0  0  0
    7.5537  -14.8499   23.2774 N   0  0  0  0  0  0  0  0  0  0  0  0
    6.7738  -14.1243   22.3020 C   0  0  0  0  0  0  0  0  0  0  0  0
    7.3238  -14.5450   20.9464 C   0  0  0  0  0  0  0  0  0  0  0  0
    8.7666  -14.7753   21.3005 C   0  0  0  0  0  0  0  0  0  0  0  0
    8.6547  -15.4736   22.6349 C   0  0  1  0  0  0  0  0  0  0  0  0
    9.9495  -15.3814   23.3709 C   0  0  0  0  0  0  0  0  0  0  0  0
   10.5020  -14.2666   23.4530 O   0  0  0  0  0  0  0  0  0  0  0  0
   11.7547  -14.2238   30.0946 C   0  0  0  0  0  0  0  0  0  0  0  0
   10.5624  -14.6534   28.8195 S   0  0  0  0  0  0  0  0  0  0  0  0
   11.4316  -15.5707   27.5136 C   0  0  0  0  0  0  0  0  0  0  0  0
   10.5997  -15.6961   26.2706 C   0  0  0  0  0  0  0  0  0  0  0  0
   11.3412  -16.4177   25.2059 C   0  0  2  0  0  0  0  0  0  0  0  0
   10.5592  -16.5128   23.9711 N   0  0  0  0  0  0  0  0  0  0  0  0
   11.8532  -17.7384   25.6054 C   0  0  0  0  0  0  0  0  0  0  0  0
   13.1425  -18.0582   25.9561 O   0  0  0  0  0  0  0  0  0  0  0  0
   11.0208  -18.7057   25.6325 O   0  0  0  0  0  0  0  0  0  0  0  0
  2  1  1  1
  2  3  1  0
  4  2  1  0
  4  5  1  1
  6  8  1  0
  6  4  1  0
  7  6  2  0
  8  9  1  0
 10  9  1  0
 11 10  1  0
 11 12  1  0
 12  8  1  0
 12 13  1  1
 13 20  1  0
 14 13  2  0
 16 15  1  0
 17 16  1  0
 18 17  1  0
 19 18  1  1
 19 20  1  0
 19 21  1  0
 21 22  1  0
 23 21  2  0
M  END
$$$$
