VPM.pdb
     RDKit          3D

 23 23  0  0  1  0  0  0  0  0999 V2000
   12.7317  -16.7502   18.0620 C   0  0  0  0  0  0  0  0  0  0  0  0
   12.0241  -16.4237   19.3564 C   0  0  2  0  0  0  0  0  0  0  0  0
   11.0623  -17.5249   19.6941 C   0  0  0  0  0  0  0  0  0  0  0  0
   11.3307  -15.0812   19.1992 C   0  0  2  0  0  0  0  0  0  0  0  0
   12.3279  -14.1315   18.8241 N   0  0  0  0  0  0  0  0  0  0  0  0
   10.5774  -14.7006   20.3971 C   0  0  0  0  0  0  0  0  0  0  0  0
   11.2294  -14.3927   21.4626 O   0  0  0  0  0  0  0  0  0  0  0  0
    9.1500  -14.6671   20.4023 N   0  0  0  0  0  0  0  0  0  0  0  0
    8.3556  -14.8751   19.2142 C   0  0  0  0  0  0  0  0  0  0  0  0
    6.9317  -14.5072   19.6068 C   0  0  0  0  0  0  0  0  0  0  0  0
    6.9366  -14.9162   21.0535 C   0  0  0  0  0  0  0  0  0  0  0  0
    8.2939  -14.4367   21.5105 C   0  0  1  0  0  0  0  0  0  0  0  0
    8.6873  -15.1374   22.7679 C   0  0  0  0  0  0  0  0  0  0  0  0
    9.2963  -16.2212   22.6722 O   0  0  0  0  0  0  0  0  0  0  0  0
   10.3275  -14.8898   30.4187 C   0  0  0  0  0  0  0  0  0  0  0  0
    9.7388  -13.9268   29.0195 S   0  0  0  0  0  0  0  0  0  0  0  0
    9.3408  -15.0732   27.6669 C   0  0  0  0  0  0  0  0  0  0  0  0
    9.0443  -14.3464   26.3876 C   0  0  0  0  0  0  0  0  0  0  0  0
    8.7624  -15.3022   25.2869 C   0  0  2  0  0  0  0  0  0  0  0  0
    8.3909  -14.6098   24.0508 N   0  0  0  0  0  0  0  0  0  0  0  0
    7.7786  -16.3448   25.6199 C   0  0  0  0  0  0  0  0  0  0  0  0
    8.0157  -17.5359   26.2622 O   0  0  0  0  0  0  0  0  0  0  0  0
    6.5661  -16.1363   25.2798 O   0  0  0  0  0  0  0  0  0  0  0  0
  2  1  1  6
  2  3  1  0
  4  2  1  0
  4  5  1  1
  6  8  1  0
  6  4  1  0
  7  6  2  0
  8  9  1  0
 10  9  1  0
 11 10  1  0
 11 12  1  0
 12  8  1  0
 12 13  1  1
 13 20  1  0
 14 13  2  0
 16 15  1  0
 17 16  1  0
 18 17  1  0
 19 18  1  1
 19 20  1  0
 19 21  1  0
 21 22  1  0
 23 21  2  0
M  END
$$$$
