VPM.pdb
     RDKit          3D

 23 23  0  0  1  0  0  0  0  0999 V2000
   10.2952  -18.2088   20.0009 C   0  0  0  0  0  0  0  0  0  0  0  0
    8.9584  -18.8855   19.8066 C   0  0  2  0  0  0  0  0  0  0  0  0
    9.0864  -19.9604   18.7674 C   0  0  0  0  0  0  0  0  0  0  0  0
    7.9372  -17.8292   19.4201 C   0  0  2  0  0  0  0  0  0  0  0  0
    8.4486  -17.1450   18.2767 N   0  0  0  0  0  0  0  0  0  0  0  0
    7.6058  -16.9408   20.5373 C   0  0  0  0  0  0  0  0  0  0  0  0
    7.0498  -17.4458   21.5818 O   0  0  0  0  0  0  0  0  0  0  0  0
    7.8852  -15.5415   20.4868 N   0  0  0  0  0  0  0  0  0  0  0  0
    7.3966  -14.6810   19.4347 C   0  0  0  0  0  0  0  0  0  0  0  0
    8.1231  -13.3565   19.6217 C   0  0  0  0  0  0  0  0  0  0  0  0
    8.2789  -13.3431   21.1170 C   0  0  0  0  0  0  0  0  0  0  0  0
    8.6501  -14.7780   21.4067 C   0  0  1  0  0  0  0  0  0  0  0  0
    8.4026  -15.0902   22.8448 C   0  0  0  0  0  0  0  0  0  0  0  0
    7.5403  -15.9474   23.1213 O   0  0  0  0  0  0  0  0  0  0  0  0
    5.8137  -10.7277   27.0059 C   0  0  0  0  0  0  0  0  0  0  0  0
    5.8650  -12.5155   26.8239 S   0  0  0  0  0  0  0  0  0  0  0  0
    7.3429  -12.9469   25.8584 C   0  0  0  0  0  0  0  0  0  0  0  0
    7.5162  -14.4327   25.7362 C   0  0  0  0  0  0  0  0  0  0  0  0
    8.8945  -14.7726   25.3015 C   0  0  2  0  0  0  0  0  0  0  0  0
    9.1128  -14.4464   23.8903 N   0  0  0  0  0  0  0  0  0  0  0  0
    9.3020  -16.1572   25.5888 C   0  0  0  0  0  0  0  0  0  0  0  0
    9.7788  -17.0853   24.6950 O   0  0  0  0  0  0  0  0  0  0  0  0
    9.2065  -16.5572   26.7972 O   0  0  0  0  0  0  0  0  0  0  0  0
  2  1  1  6
  2  3  1  0
  4  2  1  0
  4  5  1  6
  6  8  1  0
  6  4  1  0
  7  6  2  0
  8  9  1  0
 10  9  1  0
 11 10  1  0
 11 12  1  0
 12  8  1  0
 12 13  1  1
 13 20  1  0
 14 13  2  0
 16 15  1  0
 17 16  1  0
 18 17  1  0
 19 18  1  6
 19 20  1  0
 19 21  1  0
 21 22  1  0
 23 21  2  0
M  END
$$$$
