VPM.pdb
     RDKit          3D

 23 23  0  0  1  0  0  0  0  0999 V2000
    8.8299  -19.3776   19.9746 C   0  0  0  0  0  0  0  0  0  0  0  0
    7.7964  -18.5705   19.2243 C   0  0  2  0  0  0  0  0  0  0  0  0
    7.1505  -19.4308   18.1781 C   0  0  0  0  0  0  0  0  0  0  0  0
    8.4796  -17.3522   18.6268 C   0  0  2  0  0  0  0  0  0  0  0  0
    9.4091  -17.8242   17.6518 N   0  0  0  0  0  0  0  0  0  0  0  0
    9.0853  -16.4963   19.6504 C   0  0  0  0  0  0  0  0  0  0  0  0
   10.2702  -16.7769   20.0656 O   0  0  0  0  0  0  0  0  0  0  0  0
    8.3911  -15.3708   20.1890 N   0  0  0  0  0  0  0  0  0  0  0  0
    7.1664  -14.8582   19.6203 C   0  0  0  0  0  0  0  0  0  0  0  0
    6.9131  -13.5334   20.3259 C   0  0  0  0  0  0  0  0  0  0  0  0
    7.4971  -13.8322   21.6786 C   0  0  0  0  0  0  0  0  0  0  0  0
    8.7526  -14.5902   21.3178 C   0  0  1  0  0  0  0  0  0  0  0  0
    9.2358  -15.3696   22.4951 C   0  0  0  0  0  0  0  0  0  0  0  0
    8.5312  -16.3124   22.9065 O   0  0  0  0  0  0  0  0  0  0  0  0
   10.3802  -13.2911   29.3955 C   0  0  0  0  0  0  0  0  0  0  0  0
    9.4148  -13.2935   27.8789 S   0  0  0  0  0  0  0  0  0  0  0  0
    9.9523  -14.7022   26.8645 C   0  0  0  0  0  0  0  0  0  0  0  0
    9.7527  -14.4440   25.3995 C   0  0  0  0  0  0  0  0  0  0  0  0
   10.6551  -15.2942   24.5827 C   0  0  2  0  0  0  0  0  0  0  0  0
   10.4586  -15.0700   23.1487 N   0  0  0  0  0  0  0  0  0  0  0  0
   10.5970  -16.7297   24.9019 C   0  0  0  0  0  0  0  0  0  0  0  0
   10.3438  -17.7641   24.0339 O   0  0  0  0  0  0  0  0  0  0  0  0
   10.8001  -17.0687   26.1156 O   0  0  0  0  0  0  0  0  0  0  0  0
  2  1  1  6
  2  3  1  0
  4  2  1  0
  4  5  1  6
  6  8  1  0
  6  4  1  0
  7  6  2  0
  8  9  1  0
 10  9  1  0
 11 10  1  0
 11 12  1  0
 12  8  1  0
 12 13  1  1
 13 20  1  0
 14 13  2  0
 16 15  1  0
 17 16  1  0
 18 17  1  0
 19 18  1  1
 19 20  1  0
 19 21  1  0
 21 22  1  0
 23 21  2  0
M  END
$$$$
