VPM.pdb
     RDKit          3D

 23 23  0  0  1  0  0  0  0  0999 V2000
    7.0743  -13.0050   19.4141 C   0  0  0  0  0  0  0  0  0  0  0  0
    7.4440  -13.5596   20.7699 C   0  0  2  0  0  0  0  0  0  0  0  0
    8.6688  -12.8596   21.2814 C   0  0  0  0  0  0  0  0  0  0  0  0
    7.6512  -15.0586   20.6353 C   0  0  2  0  0  0  0  0  0  0  0  0
    6.4622  -15.5998   20.0603 N   0  0  0  0  0  0  0  0  0  0  0  0
    8.0272  -15.6843   21.9059 C   0  0  0  0  0  0  0  0  0  0  0  0
    7.1980  -15.6305   22.8881 O   0  0  0  0  0  0  0  0  0  0  0  0
    9.2829  -16.3437   22.0708 N   0  0  0  0  0  0  0  0  0  0  0  0
   10.1357  -16.6969   20.9599 C   0  0  0  0  0  0  0  0  0  0  0  0
   11.2201  -17.5894   21.5470 C   0  0  0  0  0  0  0  0  0  0  0  0
   11.3386  -16.9994   22.9247 C   0  0  0  0  0  0  0  0  0  0  0  0
    9.8931  -16.7518   23.2853 C   0  0  1  0  0  0  0  0  0  0  0  0
    9.8058  -15.7622   24.3988 C   0  0  0  0  0  0  0  0  0  0  0  0
   10.0775  -14.5709   24.1503 O   0  0  0  0  0  0  0  0  0  0  0  0
    6.6854  -10.6845   26.0492 C   0  0  0  0  0  0  0  0  0  0  0  0
    6.5763  -12.3452   26.7290 S   0  0  0  0  0  0  0  0  0  0  0  0
    8.1982  -13.1435   26.5435 C   0  0  0  0  0  0  0  0  0  0  0  0
    8.1995  -14.5402   27.0930 C   0  0  0  0  0  0  0  0  0  0  0  0
    9.5021  -15.2077   26.8439 C   0  0  2  0  0  0  0  0  0  0  0  0
    9.4270  -16.1362   25.7135 N   0  0  0  0  0  0  0  0  0  0  0  0
   10.0880  -15.8640   28.0236 C   0  0  0  0  0  0  0  0  0  0  0  0
   10.4104  -17.1925   28.1607 O   0  0  0  0  0  0  0  0  0  0  0  0
   10.3278  -15.1329   29.0421 O   0  0  0  0  0  0  0  0  0  0  0  0
  2  1  1  6
  2  3  1  0
  4  2  1  0
  4  5  1  1
  6  8  1  0
  6  4  1  0
  7  6  2  0
  8  9  1  0
 10  9  1  0
 11 10  1  0
 11 12  1  0
 12  8  1  0
 12 13  1  1
 13 20  1  0
 14 13  2  0
 16 15  1  0
 17 16  1  0
 18 17  1  0
 19 18  1  1
 19 20  1  0
 19 21  1  0
 21 22  1  0
 23 21  2  0
M  END
$$$$
