VPM.pdb
     RDKit          3D

 23 23  0  0  1  0  0  0  0  0999 V2000
    7.5922  -13.2086   26.8240 C   0  0  0  0  0  0  0  0  0  0  0  0
    6.7234  -12.8889   25.6301 C   0  0  2  0  0  0  0  0  0  0  0  0
    5.6491  -11.9228   26.0355 C   0  0  0  0  0  0  0  0  0  0  0  0
    6.1543  -14.1891   25.0883 C   0  0  2  0  0  0  0  0  0  0  0  0
    5.4039  -14.7936   26.1413 N   0  0  0  0  0  0  0  0  0  0  0  0
    7.1919  -15.0607   24.5306 C   0  0  0  0  0  0  0  0  0  0  0  0
    7.6563  -16.0115   25.2623 O   0  0  0  0  0  0  0  0  0  0  0  0
    7.6909  -14.8745   23.2058 N   0  0  0  0  0  0  0  0  0  0  0  0
    7.0760  -13.9787   22.2542 C   0  0  0  0  0  0  0  0  0  0  0  0
    7.7526  -14.2724   20.9226 C   0  0  0  0  0  0  0  0  0  0  0  0
    9.1275  -14.6530   21.3969 C   0  0  0  0  0  0  0  0  0  0  0  0
    8.8183  -15.4976   22.6102 C   0  0  1  0  0  0  0  0  0  0  0  0
   10.0221  -15.5940   23.4867 C   0  0  0  0  0  0  0  0  0  0  0  0
   10.7395  -14.5823   23.6152 O   0  0  0  0  0  0  0  0  0  0  0  0
   11.8196  -12.9362   27.8902 C   0  0  0  0  0  0  0  0  0  0  0  0
   11.5038  -14.5132   28.6934 S   0  0  0  0  0  0  0  0  0  0  0  0
   11.8486  -15.8390   27.4994 C   0  0  0  0  0  0  0  0  0  0  0  0
   10.9068  -15.7978   26.3315 C   0  0  0  0  0  0  0  0  0  0  0  0
   11.2860  -16.8041   25.3078 C   0  0  2  0  0  0  0  0  0  0  0  0
   10.3662  -16.7896   24.1680 N   0  0  0  0  0  0  0  0  0  0  0  0
   11.4556  -18.1705   25.8275 C   0  0  0  0  0  0  0  0  0  0  0  0
   12.5857  -18.7100   26.3925 O   0  0  0  0  0  0  0  0  0  0  0  0
   10.4518  -18.9552   25.7509 O   0  0  0  0  0  0  0  0  0  0  0  0
  2  1  1  1
  2  3  1  0
  4  2  1  0
  4  5  1  1
  6  8  1  0
  6  4  1  0
  7  6  2  0
  8  9  1  0
 10  9  1  0
 11 10  1  0
 11 12  1  0
 12  8  1  0
 12 13  1  1
 13 20  1  0
 14 13  2  0
 16 15  1  0
 17 16  1  0
 18 17  1  0
 19 18  1  1
 19 20  1  0
 19 21  1  0
 21 22  1  0
 23 21  2  0
M  END
$$$$
