VPM.pdb
     RDKit          3D

 23 23  0  0  1  0  0  0  0  0999 V2000
   10.4948  -19.1668   21.5468 C   0  0  0  0  0  0  0  0  0  0  0  0
    9.6268  -19.0015   20.3213 C   0  0  2  0  0  0  0  0  0  0  0  0
    9.7227  -20.2325   19.4686 C   0  0  0  0  0  0  0  0  0  0  0  0
   10.0735  -17.7521   19.5814 C   0  0  2  0  0  0  0  0  0  0  0  0
   11.3928  -17.9975   19.0951 N   0  0  0  0  0  0  0  0  0  0  0  0
    9.9667  -16.5475   20.4091 C   0  0  0  0  0  0  0  0  0  0  0  0
   11.0042  -16.1533   21.0597 O   0  0  0  0  0  0  0  0  0  0  0  0
    8.7457  -15.8135   20.5054 N   0  0  0  0  0  0  0  0  0  0  0  0
    7.6891  -15.9158   19.5260 C   0  0  0  0  0  0  0  0  0  0  0  0
    6.7090  -14.8021   19.8668 C   0  0  0  0  0  0  0  0  0  0  0  0
    6.8692  -14.7495   21.3606 C   0  0  0  0  0  0  0  0  0  0  0  0
    8.3634  -14.8995   21.5214 C   0  0  1  0  0  0  0  0  0  0  0  0
    8.6875  -15.3311   22.9127 C   0  0  0  0  0  0  0  0  0  0  0  0
    8.5935  -16.5431   23.1901 O   0  0  0  0  0  0  0  0  0  0  0  0
    5.8544  -11.1797   26.2230 C   0  0  0  0  0  0  0  0  0  0  0  0
    6.3855  -12.0879   27.6807 S   0  0  0  0  0  0  0  0  0  0  0  0
    7.3492  -13.5282   27.1339 C   0  0  0  0  0  0  0  0  0  0  0  0
    7.7539  -13.4153   25.6930 C   0  0  0  0  0  0  0  0  0  0  0  0
    8.6584  -14.5274   25.3067 C   0  0  2  0  0  0  0  0  0  0  0  0
    9.0942  -14.4115   23.9132 N   0  0  0  0  0  0  0  0  0  0  0  0
    8.1250  -15.8717   25.5792 C   0  0  0  0  0  0  0  0  0  0  0  0
    8.5919  -16.7801   26.4981 O   0  0  0  0  0  0  0  0  0  0  0  0
    7.1181  -16.2526   24.8934 O   0  0  0  0  0  0  0  0  0  0  0  0
  2  1  1  1
  2  3  1  0
  4  2  1  0
  4  5  1  1
  6  8  1  0
  6  4  1  0
  7  6  2  0
  8  9  1  0
 10  9  1  0
 11 10  1  0
 11 12  1  0
 12  8  1  0
 12 13  1  1
 13 20  1  0
 14 13  2  0
 16 15  1  0
 17 16  1  0
 18 17  1  0
 19 18  1  6
 19 20  1  0
 19 21  1  0
 21 22  1  0
 23 21  2  0
M  END
$$$$
