VPM.pdb
     RDKit          3D

 23 23  0  0  1  0  0  0  0  0999 V2000
    7.1894  -13.0098   21.1390 C   0  0  0  0  0  0  0  0  0  0  0  0
    8.0941  -13.4927   20.0296 C   0  0  2  0  0  0  0  0  0  0  0  0
    7.8213  -12.7059   18.7813 C   0  0  0  0  0  0  0  0  0  0  0  0
    7.8622  -14.9814   19.8344 C   0  0  2  0  0  0  0  0  0  0  0  0
    6.5721  -15.1345   19.2433 N   0  0  0  0  0  0  0  0  0  0  0  0
    8.0327  -15.7385   21.0774 C   0  0  0  0  0  0  0  0  0  0  0  0
    7.1186  -15.6565   21.9789 O   0  0  0  0  0  0  0  0  0  0  0  0
    9.1824  -16.5547   21.3028 N   0  0  0  0  0  0  0  0  0  0  0  0
   10.0644  -16.9788   20.2406 C   0  0  0  0  0  0  0  0  0  0  0  0
   10.9849  -18.0174   20.8660 C   0  0  0  0  0  0  0  0  0  0  0  0
   11.0739  -17.4882   22.2703 C   0  0  0  0  0  0  0  0  0  0  0  0
    9.6473  -17.0721   22.5398 C   0  0  1  0  0  0  0  0  0  0  0  0
    9.6011  -16.1129   23.6820 C   0  0  0  0  0  0  0  0  0  0  0  0
    9.5747  -14.8929   23.4257 O   0  0  0  0  0  0  0  0  0  0  0  0
    6.6170  -11.1211   27.2874 C   0  0  0  0  0  0  0  0  0  0  0  0
    6.4275  -12.8076   26.6942 S   0  0  0  0  0  0  0  0  0  0  0  0
    8.0790  -13.5550   26.5672 C   0  0  0  0  0  0  0  0  0  0  0  0
    8.0216  -14.9438   26.0010 C   0  0  0  0  0  0  0  0  0  0  0  0
    9.3297  -15.6310   26.1462 C   0  0  2  0  0  0  0  0  0  0  0  0
    9.5864  -16.5469   25.0324 N   0  0  0  0  0  0  0  0  0  0  0  0
    9.5238  -16.3088   27.4380 C   0  0  0  0  0  0  0  0  0  0  0  0
   10.1077  -15.7907   28.5685 O   0  0  0  0  0  0  0  0  0  0  0  0
    9.1114  -17.5129   27.5356 O   0  0  0  0  0  0  0  0  0  0  0  0
  2  1  1  1
  2  3  1  0
  4  2  1  0
  4  5  1  1
  6  8  1  0
  6  4  1  0
  7  6  2  0
  8  9  1  0
 10  9  1  0
 11 10  1  0
 11 12  1  0
 12  8  1  0
 12 13  1  1
 13 20  1  0
 14 13  2  0
 16 15  1  0
 17 16  1  0
 18 17  1  0
 19 18  1  1
 19 20  1  0
 19 21  1  0
 21 22  1  0
 23 21  2  0
M  END
$$$$
