VPM.pdb
     RDKit          3D

 23 23  0  0  1  0  0  0  0  0999 V2000
    8.5064  -19.0664   20.8225 C   0  0  0  0  0  0  0  0  0  0  0  0
    7.7727  -18.4252   19.6679 C   0  0  2  0  0  0  0  0  0  0  0  0
    7.2915  -19.4896   18.7259 C   0  0  0  0  0  0  0  0  0  0  0  0
    8.7095  -17.4385   18.9922 C   0  0  2  0  0  0  0  0  0  0  0  0
    9.7652  -18.1950   18.4003 N   0  0  0  0  0  0  0  0  0  0  0  0
    9.1764  -16.3965   19.9106 C   0  0  0  0  0  0  0  0  0  0  0  0
   10.2415  -16.6141   20.5986 O   0  0  0  0  0  0  0  0  0  0  0  0
    8.4777  -15.1596   20.0540 N   0  0  0  0  0  0  0  0  0  0  0  0
    7.5676  -14.6518   19.0540 C   0  0  0  0  0  0  0  0  0  0  0  0
    7.2519  -13.2243   19.4782 C   0  0  0  0  0  0  0  0  0  0  0  0
    7.3314  -13.3634   20.9730 C   0  0  0  0  0  0  0  0  0  0  0  0
    8.5420  -14.2504   21.1418 C   0  0  1  0  0  0  0  0  0  0  0  0
    8.5290  -14.8822   22.4936 C   0  0  0  0  0  0  0  0  0  0  0  0
    7.9502  -15.9787   22.6255 O   0  0  0  0  0  0  0  0  0  0  0  0
    6.5055  -11.6987   28.4842 C   0  0  0  0  0  0  0  0  0  0  0  0
    6.5090  -11.6236   26.6880 S   0  0  0  0  0  0  0  0  0  0  0  0
    6.4330  -13.3224   26.0473 C   0  0  0  0  0  0  0  0  0  0  0  0
    7.1389  -13.4544   24.7294 C   0  0  0  0  0  0  0  0  0  0  0  0
    8.4593  -14.1119   24.8977 C   0  0  2  0  0  0  0  0  0  0  0  0
    9.1493  -14.2765   23.6162 N   0  0  0  0  0  0  0  0  0  0  0  0
    8.4192  -15.3828   25.6387 C   0  0  0  0  0  0  0  0  0  0  0  0
    8.1646  -16.6334   25.1298 O   0  0  0  0  0  0  0  0  0  0  0  0
    8.6414  -15.3360   26.8947 O   0  0  0  0  0  0  0  0  0  0  0  0
  2  1  1  1
  2  3  1  0
  4  2  1  0
  4  5  1  1
  6  8  1  0
  6  4  1  0
  7  6  2  0
  8  9  1  0
 10  9  1  0
 11 10  1  0
 11 12  1  0
 12  8  1  0
 12 13  1  1
 13 20  1  0
 14 13  2  0
 16 15  1  0
 17 16  1  0
 18 17  1  0
 19 18  1  6
 19 20  1  0
 19 21  1  0
 21 22  1  0
 23 21  2  0
M  END
$$$$
