PAE.pdb
     RDKit          3D

 22 22  0  0  1  0  0  0  0  0999 V2000
   20.5067  -11.6885  -18.1122 N   0  0  0  0  0  0  0  0  0  0  0  0
   19.9742  -12.8337  -18.8016 C   0  0  0  0  0  0  0  0  0  0  0  0
   18.4669  -12.7736  -18.6901 C   0  0  0  0  0  0  0  0  0  0  0  0
   18.2924  -11.7871  -17.5572 C   0  0  0  0  0  0  0  0  0  0  0  0
   19.3947  -10.7866  -17.8823 C   0  0  1  0  0  0  0  0  0  0  0  0
   19.6382   -9.8519  -16.7833 C   0  0  0  0  0  0  0  0  0  0  0  0
   18.7466   -9.0307  -16.4532 O   0  0  0  0  0  0  0  0  0  0  0  0
   22.2360   -9.6950  -14.0690 C   0  0  0  0  0  0  0  0  0  0  0  0
   21.1190   -9.1026  -14.8924 C   0  0  2  0  0  0  0  0  0  0  0  0
   20.8589   -9.8618  -16.0915 N   0  0  0  0  0  0  0  0  0  0  0  0
   21.3862   -7.6972  -15.2676 C   0  0  0  0  0  0  0  0  0  0  0  0
   22.0931   -7.4286  -16.2626 O   0  0  0  0  0  0  0  0  0  0  0  0
   20.8319   -6.6814  -14.4879 N   0  0  0  0  0  0  0  0  0  0  0  0
   20.9985   -5.2322  -14.7823 C   0  0  1  0  0  0  0  0  0  0  0  0
   19.6467   -4.6738  -14.5864 C   0  0  0  0  0  0  0  0  0  0  0  0
   18.5668   -4.9268  -15.5367 C   0  0  0  0  0  0  0  0  0  0  0  0
   17.2913   -4.3316  -15.1070 C   0  0  0  0  0  0  0  0  0  0  0  0
   16.9547   -3.1367  -15.2972 O   0  0  0  0  0  0  0  0  0  0  0  0
   22.0916   -4.7794  -13.9530 C   0  0  0  0  0  0  0  0  0  0  0  0
   22.6151   -3.6342  -14.1891 O   0  0  0  0  0  0  0  0  0  0  0  0
   16.4044   -5.1943  -14.4375 O   0  0  0  0  0  0  0  0  0  0  0  0
   22.6860   -5.4303  -12.8837 O   0  0  0  0  0  0  0  0  0  0  0  0
  1  2  1  0
  1  5  1  0
  2  3  1  0
  3  4  1  0
  5  4  1  0
  6 10  1  0
  5  6  1  1
  7  6  2  0
  9  8  1  6
  9 11  1  0
  9 10  1  0
 11 13  1  0
 12 11  2  0
 13 14  1  0
 14 15  1  1
 15 16  1  0
 17 21  1  0
 17 16  1  0
 18 17  2  0
 19 14  1  0
 20 19  2  0
 22 19  1  0
M  END
$$$$
