PAE.pdb
     RDKit          3D

 22 22  0  0  1  0  0  0  0  0999 V2000
   20.7981  -11.8332  -18.6755 N   0  0  0  0  0  0  0  0  0  0  0  0
   20.2284  -12.8627  -19.5037 C   0  0  0  0  0  0  0  0  0  0  0  0
   18.8701  -13.2074  -18.9343 C   0  0  0  0  0  0  0  0  0  0  0  0
   18.9704  -12.6129  -17.5474 C   0  0  0  0  0  0  0  0  0  0  0  0
   19.7227  -11.3223  -17.8475 C   0  0  1  0  0  0  0  0  0  0  0  0
   20.2038  -10.6644  -16.6324 C   0  0  0  0  0  0  0  0  0  0  0  0
   19.3834  -10.1283  -15.8464 O   0  0  0  0  0  0  0  0  0  0  0  0
   23.5389  -10.3640  -14.8891 C   0  0  0  0  0  0  0  0  0  0  0  0
   22.1427   -9.8997  -15.2234 C   0  0  2  0  0  0  0  0  0  0  0  0
   21.5742  -10.6251  -16.3335 N   0  0  0  0  0  0  0  0  0  0  0  0
   22.0923   -8.4526  -15.5247 C   0  0  0  0  0  0  0  0  0  0  0  0
   22.1479   -8.0472  -16.7055 O   0  0  0  0  0  0  0  0  0  0  0  0
   21.9807   -7.5535  -14.4635 N   0  0  0  0  0  0  0  0  0  0  0  0
   21.8683   -6.0801  -14.6398 C   0  0  1  0  0  0  0  0  0  0  0  0
   20.5330   -5.8967  -15.2405 C   0  0  0  0  0  0  0  0  0  0  0  0
   19.9619   -4.5689  -15.4506 C   0  0  0  0  0  0  0  0  0  0  0  0
   18.6028   -4.6259  -16.0120 C   0  0  0  0  0  0  0  0  0  0  0  0
   18.2507   -5.3556  -16.9716 O   0  0  0  0  0  0  0  0  0  0  0  0
   22.1631   -5.5000  -13.3497 C   0  0  0  0  0  0  0  0  0  0  0  0
   21.9311   -6.1875  -12.2939 O   0  0  0  0  0  0  0  0  0  0  0  0
   17.6499   -3.7890  -15.4030 O   0  0  0  0  0  0  0  0  0  0  0  0
   22.6897   -4.2492  -13.0698 O   0  0  0  0  0  0  0  0  0  0  0  0
  1  2  1  0
  1  5  1  0
  2  3  1  0
  3  4  1  0
  5  4  1  0
  6 10  1  0
  5  6  1  1
  7  6  2  0
  9  8  1  6
  9 11  1  0
  9 10  1  0
 11 13  1  0
 12 11  2  0
 13 14  1  0
 14 15  1  1
 15 16  1  0
 17 21  1  0
 17 16  1  0
 18 17  2  0
 19 14  1  0
 20 19  2  0
 22 19  1  0
M  END
$$$$
