PAE.pdb
     RDKit          3D

 22 22  0  0  1  0  0  0  0  0999 V2000
   20.5347  -12.7799  -18.0350 N   0  0  0  0  0  0  0  0  0  0  0  0
   20.0034  -13.9971  -18.5884 C   0  0  0  0  0  0  0  0  0  0  0  0
   18.8480  -14.4303  -17.7135 C   0  0  0  0  0  0  0  0  0  0  0  0
   19.0984  -13.6135  -16.4656 C   0  0  0  0  0  0  0  0  0  0  0  0
   19.5581  -12.2964  -17.0783 C   0  0  1  0  0  0  0  0  0  0  0  0
   20.1358  -11.3926  -16.0832 C   0  0  0  0  0  0  0  0  0  0  0  0
   19.4090  -10.9172  -15.1753 O   0  0  0  0  0  0  0  0  0  0  0  0
   23.6392  -10.4082  -15.1267 C   0  0  0  0  0  0  0  0  0  0  0  0
   22.1481  -10.1833  -15.1791 C   0  0  2  0  0  0  0  0  0  0  0  0
   21.4955  -11.0496  -16.1306 N   0  0  0  0  0  0  0  0  0  0  0  0
   21.8057   -8.7807  -15.4996 C   0  0  0  0  0  0  0  0  0  0  0  0
   21.6906   -8.4104  -16.6877 O   0  0  0  0  0  0  0  0  0  0  0  0
   21.6139   -7.8835  -14.4483 N   0  0  0  0  0  0  0  0  0  0  0  0
   21.2169   -6.4621  -14.6396 C   0  0  1  0  0  0  0  0  0  0  0  0
   19.7536   -6.4749  -14.4497 C   0  0  0  0  0  0  0  0  0  0  0  0
   18.9759   -5.2398  -14.3964 C   0  0  0  0  0  0  0  0  0  0  0  0
   17.7949   -5.2829  -15.2734 C   0  0  0  0  0  0  0  0  0  0  0  0
   17.3607   -6.3132  -15.8454 O   0  0  0  0  0  0  0  0  0  0  0  0
   22.0519   -5.6909  -13.7477 C   0  0  0  0  0  0  0  0  0  0  0  0
   22.4462   -6.2248  -12.6519 O   0  0  0  0  0  0  0  0  0  0  0  0
   17.1236   -4.0610  -15.4619 O   0  0  0  0  0  0  0  0  0  0  0  0
   22.5167   -4.3956  -13.9103 O   0  0  0  0  0  0  0  0  0  0  0  0
  1  2  1  0
  1  5  1  0
  2  3  1  0
  3  4  1  0
  5  4  1  0
  6 10  1  0
  5  6  1  1
  7  6  2  0
  9  8  1  6
  9 11  1  0
  9 10  1  0
 11 13  1  0
 12 11  2  0
 13 14  1  0
 14 15  1  1
 15 16  1  0
 17 21  1  0
 17 16  1  0
 18 17  2  0
 19 14  1  0
 20 19  2  0
 22 19  1  0
M  END
$$$$
