PAE.pdb
     RDKit          3D

 22 22  0  0  1  0  0  0  0  0999 V2000
   21.7115  -12.1485  -18.6241 N   0  0  0  0  0  0  0  0  0  0  0  0
   21.3223  -13.2829  -19.4189 C   0  0  0  0  0  0  0  0  0  0  0  0
   19.8575  -13.5477  -19.1503 C   0  0  0  0  0  0  0  0  0  0  0  0
   19.6446  -12.7677  -17.8723 C   0  0  0  0  0  0  0  0  0  0  0  0
   20.4872  -11.5299  -18.1538 C   0  0  1  0  0  0  0  0  0  0  0  0
   20.6870  -10.7102  -16.9583 C   0  0  0  0  0  0  0  0  0  0  0  0
   19.7119  -10.1063  -16.4456 O   0  0  0  0  0  0  0  0  0  0  0  0
   23.5243  -10.2940  -14.5122 C   0  0  0  0  0  0  0  0  0  0  0  0
   22.2271   -9.8694  -15.1554 C   0  0  2  0  0  0  0  0  0  0  0  0
   21.9578  -10.5905  -16.3758 N   0  0  0  0  0  0  0  0  0  0  0  0
   22.1943   -8.4190  -15.4425 C   0  0  0  0  0  0  0  0  0  0  0  0
   22.6691   -7.9715  -16.5085 O   0  0  0  0  0  0  0  0  0  0  0  0
   21.6223   -7.5647  -14.4992 N   0  0  0  0  0  0  0  0  0  0  0  0
   21.5012   -6.0933  -14.6859 C   0  0  1  0  0  0  0  0  0  0  0  0
   20.0813   -5.8969  -15.0361 C   0  0  0  0  0  0  0  0  0  0  0  0
   19.5031   -4.5631  -15.1773 C   0  0  0  0  0  0  0  0  0  0  0  0
   18.0633   -4.6055  -15.4788 C   0  0  0  0  0  0  0  0  0  0  0  0
   17.3291   -3.5973  -15.6264 O   0  0  0  0  0  0  0  0  0  0  0  0
   22.0362   -5.4932  -13.4854 C   0  0  0  0  0  0  0  0  0  0  0  0
   22.3734   -4.2574  -13.5079 O   0  0  0  0  0  0  0  0  0  0  0  0
   17.4990   -5.8878  -15.6069 O   0  0  0  0  0  0  0  0  0  0  0  0
   22.2463   -6.0835  -12.2494 O   0  0  0  0  0  0  0  0  0  0  0  0
  1  2  1  0
  1  5  1  0
  2  3  1  0
  3  4  1  0
  5  4  1  0
  6 10  1  0
  5  6  1  1
  7  6  2  0
  9  8  1  6
  9 11  1  0
  9 10  1  0
 11 13  1  0
 12 11  2  0
 13 14  1  0
 14 15  1  1
 15 16  1  0
 17 21  1  0
 17 16  1  0
 18 17  2  0
 19 14  1  0
 20 19  2  0
 22 19  1  0
M  END
$$$$
