TFQ.pdb
     RDKit          3D

 28 28  0  0  1  0  0  0  0  0999 V2000
    7.8794  -18.5307   20.7082 C   0  0  0  0  0  0  0  0  0  0  0  0
    9.0140  -18.0819   19.8189 C   0  0  1  0  0  0  0  0  0  0  0  0
    8.9693  -18.7292   18.5880 O   0  0  0  0  0  0  0  0  0  0  0  0
    8.9319  -16.5766   19.6541 C   0  0  2  0  0  0  0  0  0  0  0  0
   10.0263  -16.1934   18.7879 N   0  0  0  0  0  0  0  0  0  0  0  0
    9.1263  -15.9097   20.9594 C   0  0  0  0  0  0  0  0  0  0  0  0
   10.2795  -15.8408   21.4423 O   0  0  0  0  0  0  0  0  0  0  0  0
    8.0740  -15.3344   21.7106 N   0  0  0  0  0  0  0  0  0  0  0  0
    8.2139  -14.7970   23.0446 C   0  0  1  0  0  0  0  0  0  0  0  0
    7.0332  -13.9021   23.3245 C   0  0  0  0  0  0  0  0  0  0  0  0
    7.0156  -13.3506   24.6795 C   0  0  0  0  0  0  0  0  0  0  0  0
    7.5414  -12.1122   24.9552 C   0  0  0  0  0  0  0  0  0  0  0  0
    7.5311  -11.5758   26.2393 C   0  0  0  0  0  0  0  0  0  0  0  0
    6.9839  -12.2869   27.2810 C   0  0  0  0  0  0  0  0  0  0  0  0
    6.4544  -13.5277   27.0182 C   0  0  0  0  0  0  0  0  0  0  0  0
    6.4734  -14.0438   25.7377 C   0  0  0  0  0  0  0  0  0  0  0  0
    8.3809  -15.8577   24.0620 C   0  0  0  0  0  0  0  0  0  0  0  0
    7.5224  -16.7668   24.1119 O   0  0  0  0  0  0  0  0  0  0  0  0
   13.3145  -18.1486   22.5218 N   0  0  0  0  0  0  0  0  0  0  0  0
   12.5351  -18.5072   23.6412 C   0  0  0  0  0  0  0  0  0  0  0  0
   12.5586  -19.7004   24.0424 O   0  0  0  0  0  0  0  0  0  0  0  0
   11.7155  -17.5238   24.3377 C   0  0  0  0  0  0  0  0  0  0  0  0
   10.5773  -18.0464   25.1439 C   0  0  0  0  0  0  0  0  0  0  0  0
    9.7059  -17.0789   25.8440 C   0  0  2  0  0  0  0  0  0  0  0  0
    9.4542  -15.9029   24.9805 N   0  0  0  0  0  0  0  0  0  0  0  0
   10.0547  -16.6108   27.1709 C   0  0  0  0  0  0  0  0  0  0  0  0
   10.3257  -17.4153   28.1364 O   0  0  0  0  0  0  0  0  0  0  0  0
   10.1395  -15.2650   27.5311 O   0  0  0  0  0  0  0  0  0  0  0  0
  2  1  1  1
  2  3  1  0
  4  2  1  0
  4  5  1  6
  6  7  2  0
  6  4  1  0
  8  6  1  0
  9  8  1  0
  9 10  1  1
 10 11  1  0
 11 16  2  0
 11 12  1  0
 12 13  2  0
 13 14  1  0
 15 14  2  0
 16 15  1  0
 17 18  2  0
 17  9  1  0
 20 19  1  0
 21 20  2  0
 22 20  1  0
 24 23  1  6
 23 22  1  0
 24 25  1  0
 25 17  1  0
 26 24  1  0
 27 26  2  0
 28 26  1  0
M  END
$$$$
