TFQ.pdb
     RDKit          3D

 28 28  0  0  1  0  0  0  0  0999 V2000
    7.4228  -19.2135   19.3197 C   0  0  0  0  0  0  0  0  0  0  0  0
    7.7322  -18.5883   20.6587 C   0  0  1  0  0  0  0  0  0  0  0  0
    8.5178  -19.4347   21.4350 O   0  0  0  0  0  0  0  0  0  0  0  0
    8.4210  -17.2580   20.4229 C   0  0  2  0  0  0  0  0  0  0  0  0
    9.7072  -17.5557   19.8296 N   0  0  0  0  0  0  0  0  0  0  0  0
    8.6590  -16.5719   21.7110 C   0  0  0  0  0  0  0  0  0  0  0  0
    9.7331  -16.7772   22.3209 O   0  0  0  0  0  0  0  0  0  0  0  0
    7.7343  -15.6828   22.3086 N   0  0  0  0  0  0  0  0  0  0  0  0
    7.8907  -15.0907   23.6173 C   0  0  1  0  0  0  0  0  0  0  0  0
    6.9273  -13.9371   23.7371 C   0  0  0  0  0  0  0  0  0  0  0  0
    6.9442  -13.2843   25.0463 C   0  0  0  0  0  0  0  0  0  0  0  0
    5.8140  -13.2081   25.8229 C   0  0  0  0  0  0  0  0  0  0  0  0
    5.8164  -12.5901   27.0698 C   0  0  0  0  0  0  0  0  0  0  0  0
    6.9720  -12.0312   27.5621 C   0  0  0  0  0  0  0  0  0  0  0  0
    8.1099  -12.1008   26.7945 C   0  0  0  0  0  0  0  0  0  0  0  0
    8.0889  -12.7180   25.5596 C   0  0  0  0  0  0  0  0  0  0  0  0
    7.7331  -16.0819   24.7040 C   0  0  0  0  0  0  0  0  0  0  0  0
    6.5894  -16.5409   24.9218 O   0  0  0  0  0  0  0  0  0  0  0  0
    6.1342  -20.7463   27.8188 N   0  0  0  0  0  0  0  0  0  0  0  0
    6.8182  -20.7083   26.5859 C   0  0  0  0  0  0  0  0  0  0  0  0
    7.2015  -21.7904   26.0687 O   0  0  0  0  0  0  0  0  0  0  0  0
    7.0797  -19.4465   25.9053 C   0  0  0  0  0  0  0  0  0  0  0  0
    8.4510  -18.8810   26.0399 C   0  0  0  0  0  0  0  0  0  0  0  0
    8.6014  -17.5214   26.6005 C   0  0  2  0  0  0  0  0  0  0  0  0
    8.8002  -16.5400   25.5098 N   0  0  0  0  0  0  0  0  0  0  0  0
    9.5821  -17.2643   27.6367 C   0  0  0  0  0  0  0  0  0  0  0  0
    9.6517  -17.9690   28.7097 O   0  0  0  0  0  0  0  0  0  0  0  0
   10.5398  -16.2509   27.5767 O   0  0  0  0  0  0  0  0  0  0  0  0
  2  1  1  6
  2  3  1  0
  4  2  1  0
  4  5  1  1
  6  7  2  0
  6  4  1  0
  8  6  1  0
  9  8  1  0
  9 10  1  1
 10 11  1  0
 11 16  2  0
 11 12  1  0
 12 13  2  0
 13 14  1  0
 15 14  2  0
 16 15  1  0
 17 18  2  0
 17  9  1  0
 20 19  1  0
 21 20  2  0
 22 20  1  0
 24 23  1  6
 23 22  1  0
 24 25  1  0
 25 17  1  0
 26 24  1  0
 27 26  2  0
 28 26  1  0
M  END
$$$$
