TFQ.pdb
     RDKit          3D

 28 28  0  0  1  0  0  0  0  0999 V2000
    7.5383  -19.2276   18.9875 C   0  0  0  0  0  0  0  0  0  0  0  0
    8.0764  -18.3804   20.1154 C   0  0  1  0  0  0  0  0  0  0  0  0
    9.4527  -18.5390   20.2459 O   0  0  0  0  0  0  0  0  0  0  0  0
    7.7106  -16.9330   19.8492 C   0  0  2  0  0  0  0  0  0  0  0  0
    8.4253  -16.5370   18.6545 N   0  0  0  0  0  0  0  0  0  0  0  0
    8.1721  -16.0774   20.9634 C   0  0  0  0  0  0  0  0  0  0  0  0
    9.3122  -15.5630   20.9042 O   0  0  0  0  0  0  0  0  0  0  0  0
    7.3942  -15.7980   22.1120 N   0  0  0  0  0  0  0  0  0  0  0  0
    7.8573  -15.0475   23.2566 C   0  0  1  0  0  0  0  0  0  0  0  0
    6.6556  -14.5292   24.0051 C   0  0  0  0  0  0  0  0  0  0  0  0
    6.9899  -13.7741   25.2128 C   0  0  0  0  0  0  0  0  0  0  0  0
    6.9433  -14.3551   26.4563 C   0  0  0  0  0  0  0  0  0  0  0  0
    7.2588  -13.6484   27.6129 C   0  0  0  0  0  0  0  0  0  0  0  0
    7.6315  -12.3272   27.5356 C   0  0  0  0  0  0  0  0  0  0  0  0
    7.6821  -11.7340   26.2968 C   0  0  0  0  0  0  0  0  0  0  0  0
    7.3655  -12.4509   25.1601 C   0  0  0  0  0  0  0  0  0  0  0  0
    8.7678  -15.8372   24.1142 C   0  0  0  0  0  0  0  0  0  0  0  0
    8.4516  -17.0189   24.3783 O   0  0  0  0  0  0  0  0  0  0  0  0
   14.9124  -15.2370   23.5421 N   0  0  0  0  0  0  0  0  0  0  0  0
   14.8324  -16.1786   24.5891 C   0  0  0  0  0  0  0  0  0  0  0  0
   15.8957  -16.6819   25.0378 O   0  0  0  0  0  0  0  0  0  0  0  0
   13.5487  -16.5687   25.1582 C   0  0  0  0  0  0  0  0  0  0  0  0
   12.3460  -15.8397   24.6678 C   0  0  0  0  0  0  0  0  0  0  0  0
   11.0226  -16.2198   25.2062 C   0  0  2  0  0  0  0  0  0  0  0  0
    9.9740  -15.3335   24.6521 N   0  0  0  0  0  0  0  0  0  0  0  0
   10.8226  -16.3322   26.6375 C   0  0  0  0  0  0  0  0  0  0  0  0
   10.8006  -17.4659   27.2433 O   0  0  0  0  0  0  0  0  0  0  0  0
   10.6446  -15.2438   27.4929 O   0  0  0  0  0  0  0  0  0  0  0  0
  2  1  1  6
  2  3  1  0
  4  2  1  0
  4  5  1  6
  6  7  2  0
  6  4  1  0
  8  6  1  0
  9  8  1  0
  9 10  1  1
 10 11  1  0
 11 16  2  0
 11 12  1  0
 12 13  2  0
 13 14  1  0
 15 14  2  0
 16 15  1  0
 17 18  2  0
 17  9  1  0
 20 19  1  0
 21 20  2  0
 22 20  1  0
 24 23  1  1
 23 22  1  0
 24 25  1  0
 25 17  1  0
 26 24  1  0
 27 26  2  0
 28 26  1  0
M  END
$$$$
