TFQ.pdb
     RDKit          3D

 28 28  0  0  1  0  0  0  0  0999 V2000
    7.4646  -17.8203   18.5530 C   0  0  0  0  0  0  0  0  0  0  0  0
    7.7341  -17.4192   19.9834 C   0  0  1  0  0  0  0  0  0  0  0  0
    8.3272  -18.4607   20.6904 O   0  0  0  0  0  0  0  0  0  0  0  0
    8.6129  -16.1833   19.9809 C   0  0  2  0  0  0  0  0  0  0  0  0
    9.8807  -16.5762   19.4037 N   0  0  0  0  0  0  0  0  0  0  0  0
    8.8612  -15.7317   21.3668 C   0  0  0  0  0  0  0  0  0  0  0  0
    9.8434  -16.1939   21.9910 O   0  0  0  0  0  0  0  0  0  0  0  0
    8.0457  -14.7945   22.0443 N   0  0  0  0  0  0  0  0  0  0  0  0
    8.2149  -14.4034   23.4250 C   0  0  1  0  0  0  0  0  0  0  0  0
    7.2340  -13.3004   23.7320 C   0  0  0  0  0  0  0  0  0  0  0  0
    7.2395  -12.8749   25.1318 C   0  0  0  0  0  0  0  0  0  0  0  0
    8.3837  -12.4139   25.7354 C   0  0  0  0  0  0  0  0  0  0  0  0
    8.4027  -12.0060   27.0658 C   0  0  0  0  0  0  0  0  0  0  0  0
    7.2547  -12.0562   27.8206 C   0  0  0  0  0  0  0  0  0  0  0  0
    6.1028  -12.5157   27.2282 C   0  0  0  0  0  0  0  0  0  0  0  0
    6.1028  -12.9162   25.9068 C   0  0  0  0  0  0  0  0  0  0  0  0
    8.0939  -15.5500   24.3518 C   0  0  0  0  0  0  0  0  0  0  0  0
    7.0905  -16.2903   24.2455 O   0  0  0  0  0  0  0  0  0  0  0  0
   10.4887  -19.6295   22.7816 N   0  0  0  0  0  0  0  0  0  0  0  0
   10.7760  -20.0006   24.1116 C   0  0  0  0  0  0  0  0  0  0  0  0
   11.7114  -20.8153   24.3279 O   0  0  0  0  0  0  0  0  0  0  0  0
   10.0169  -19.4546   25.2294 C   0  0  0  0  0  0  0  0  0  0  0  0
    9.1909  -18.2459   24.9550 C   0  0  0  0  0  0  0  0  0  0  0  0
    9.1195  -17.1909   25.9883 C   0  0  2  0  0  0  0  0  0  0  0  0
    9.0464  -15.8571   25.3498 N   0  0  0  0  0  0  0  0  0  0  0  0
   10.1064  -17.1412   27.0489 C   0  0  0  0  0  0  0  0  0  0  0  0
   11.0224  -16.2403   27.0963 O   0  0  0  0  0  0  0  0  0  0  0  0
   10.1607  -18.0424   28.1132 O   0  0  0  0  0  0  0  0  0  0  0  0
  2  1  1  6
  2  3  1  0
  4  2  1  0
  4  5  1  1
  6  7  2  0
  6  4  1  0
  8  6  1  0
  9  8  1  0
  9 10  1  1
 10 11  1  0
 11 16  2  0
 11 12  1  0
 12 13  2  0
 13 14  1  0
 15 14  2  0
 16 15  1  0
 17 18  2  0
 17  9  1  0
 20 19  1  0
 21 20  2  0
 22 20  1  0
 24 23  1  6
 23 22  1  0
 24 25  1  0
 25 17  1  0
 26 24  1  0
 27 26  2  0
 28 26  1  0
M  END
$$$$
