TFQ.pdb
     RDKit          3D

 28 28  0  0  1  0  0  0  0  0999 V2000
    7.2128  -18.1396   20.5303 C   0  0  0  0  0  0  0  0  0  0  0  0
    8.4824  -17.8976   19.7499 C   0  0  1  0  0  0  0  0  0  0  0  0
    8.4209  -18.5007   18.4974 O   0  0  0  0  0  0  0  0  0  0  0  0
    8.6989  -16.4013   19.6318 C   0  0  2  0  0  0  0  0  0  0  0  0
    9.8713  -16.2153   18.8039 N   0  0  0  0  0  0  0  0  0  0  0  0
    8.9811  -15.8206   20.9621 C   0  0  0  0  0  0  0  0  0  0  0  0
   10.0606  -16.1001   21.5318 O   0  0  0  0  0  0  0  0  0  0  0  0
    8.0940  -14.9544   21.6440 N   0  0  0  0  0  0  0  0  0  0  0  0
    8.2793  -14.4874   22.9988 C   0  0  1  0  0  0  0  0  0  0  0  0
    7.1798  -13.5071   23.3201 C   0  0  0  0  0  0  0  0  0  0  0  0
    7.1930  -13.0343   24.7045 C   0  0  0  0  0  0  0  0  0  0  0  0
    6.2614  -13.4651   25.6170 C   0  0  0  0  0  0  0  0  0  0  0  0
    6.2627  -13.0235   26.9368 C   0  0  0  0  0  0  0  0  0  0  0  0
    7.2147  -12.1289   27.3654 C   0  0  0  0  0  0  0  0  0  0  0  0
    8.1528  -11.6902   26.4618 C   0  0  0  0  0  0  0  0  0  0  0  0
    8.1360  -12.1392   25.1563 C   0  0  0  0  0  0  0  0  0  0  0  0
    8.3544  -15.6003   23.9705 C   0  0  0  0  0  0  0  0  0  0  0  0
    7.4475  -16.4624   23.9504 O   0  0  0  0  0  0  0  0  0  0  0  0
   12.0812  -19.6333   23.1209 N   0  0  0  0  0  0  0  0  0  0  0  0
   11.7271  -20.0595   24.4179 C   0  0  0  0  0  0  0  0  0  0  0  0
   12.1489  -21.1723   24.8294 O   0  0  0  0  0  0  0  0  0  0  0  0
   10.8931  -19.2350   25.2830 C   0  0  0  0  0  0  0  0  0  0  0  0
   10.4748  -17.9089   24.7491 C   0  0  0  0  0  0  0  0  0  0  0  0
    9.6569  -17.0282   25.6099 C   0  0  2  0  0  0  0  0  0  0  0  0
    9.3916  -15.7455   24.9196 N   0  0  0  0  0  0  0  0  0  0  0  0
   10.0753  -16.7432   26.9682 C   0  0  0  0  0  0  0  0  0  0  0  0
   10.6286  -15.6312   27.2999 O   0  0  0  0  0  0  0  0  0  0  0  0
    9.9176  -17.6243   28.0391 O   0  0  0  0  0  0  0  0  0  0  0  0
  2  1  1  6
  2  3  1  0
  4  2  1  0
  4  5  1  6
  6  7  2  0
  6  4  1  0
  8  6  1  0
  9  8  1  0
  9 10  1  1
 10 11  1  0
 11 16  2  0
 11 12  1  0
 12 13  2  0
 13 14  1  0
 15 14  2  0
 16 15  1  0
 17 18  2  0
 17  9  1  0
 20 19  1  0
 21 20  2  0
 22 20  1  0
 24 23  1  6
 23 22  1  0
 24 25  1  0
 25 17  1  0
 26 24  1  0
 27 26  2  0
 28 26  1  0
M  END
$$$$
