TFQ.pdb
     RDKit          3D

 28 28  0  0  1  0  0  0  0  0999 V2000
    8.0009  -18.4032   18.7569 C   0  0  0  0  0  0  0  0  0  0  0  0
    8.2640  -17.8744   20.1464 C   0  0  1  0  0  0  0  0  0  0  0  0
    9.1055  -18.7273   20.8538 O   0  0  0  0  0  0  0  0  0  0  0  0
    8.8588  -16.4843   20.0295 C   0  0  2  0  0  0  0  0  0  0  0  0
   10.1576  -16.6391   19.4099 N   0  0  0  0  0  0  0  0  0  0  0  0
    9.0593  -15.9011   21.3734 C   0  0  0  0  0  0  0  0  0  0  0  0
   10.1492  -16.0869   21.9613 O   0  0  0  0  0  0  0  0  0  0  0  0
    8.0814  -15.1333   22.0491 N   0  0  0  0  0  0  0  0  0  0  0  0
    8.2149  -14.6351   23.3989 C   0  0  1  0  0  0  0  0  0  0  0  0
    7.1415  -13.6029   23.6347 C   0  0  0  0  0  0  0  0  0  0  0  0
    7.0756  -13.1209   25.0144 C   0  0  0  0  0  0  0  0  0  0  0  0
    8.1014  -12.3955   25.5692 C   0  0  0  0  0  0  0  0  0  0  0  0
    8.0514  -11.9310   26.8801 C   0  0  0  0  0  0  0  0  0  0  0  0
    6.9532  -12.1928   27.6647 C   0  0  0  0  0  0  0  0  0  0  0  0
    5.9199  -12.9179   27.1213 C   0  0  0  0  0  0  0  0  0  0  0  0
    5.9869  -13.3706   25.8187 C   0  0  0  0  0  0  0  0  0  0  0  0
    8.1931  -15.7217   24.4025 C   0  0  0  0  0  0  0  0  0  0  0  0
    7.1773  -16.4502   24.4603 O   0  0  0  0  0  0  0  0  0  0  0  0
    9.4930  -20.9369   23.9798 N   0  0  0  0  0  0  0  0  0  0  0  0
   10.4970  -19.9694   23.7671 C   0  0  0  0  0  0  0  0  0  0  0  0
   11.4307  -20.2277   22.9629 O   0  0  0  0  0  0  0  0  0  0  0  0
   10.4659  -18.6844   24.4538 C   0  0  0  0  0  0  0  0  0  0  0  0
    9.2804  -18.4090   25.3125 C   0  0  0  0  0  0  0  0  0  0  0  0
    9.2856  -17.1929   26.1531 C   0  0  2  0  0  0  0  0  0  0  0  0
    9.2537  -15.9837   25.2993 N   0  0  0  0  0  0  0  0  0  0  0  0
   10.3036  -17.0133   27.1694 C   0  0  0  0  0  0  0  0  0  0  0  0
   10.5364  -17.8955   28.0751 O   0  0  0  0  0  0  0  0  0  0  0  0
   11.1272  -15.8906   27.2653 O   0  0  0  0  0  0  0  0  0  0  0  0
  2  1  1  6
  2  3  1  0
  4  2  1  0
  4  5  1  1
  6  7  2  0
  6  4  1  0
  8  6  1  0
  9  8  1  0
  9 10  1  1
 10 11  1  0
 11 16  2  0
 11 12  1  0
 12 13  2  0
 13 14  1  0
 15 14  2  0
 16 15  1  0
 17 18  2  0
 17  9  1  0
 20 19  1  0
 21 20  2  0
 22 20  1  0
 24 23  1  6
 23 22  1  0
 24 25  1  0
 25 17  1  0
 26 24  1  0
 27 26  2  0
 28 26  1  0
M  END
$$$$
