TFQ.pdb
     RDKit          3D

 28 28  0  0  1  0  0  0  0  0999 V2000
    8.9780  -19.1283   19.4051 C   0  0  0  0  0  0  0  0  0  0  0  0
    9.1594  -18.3743   20.7005 C   0  0  1  0  0  0  0  0  0  0  0  0
   10.1860  -18.9268   21.4600 O   0  0  0  0  0  0  0  0  0  0  0  0
    9.4342  -16.9183   20.3773 C   0  0  2  0  0  0  0  0  0  0  0  0
   10.7108  -16.8778   19.6965 N   0  0  0  0  0  0  0  0  0  0  0  0
    9.5554  -16.1334   21.6246 C   0  0  0  0  0  0  0  0  0  0  0  0
   10.6472  -16.1296   22.2378 O   0  0  0  0  0  0  0  0  0  0  0  0
    8.4983  -15.3734   22.1789 N   0  0  0  0  0  0  0  0  0  0  0  0
    8.5394  -14.7267   23.4704 C   0  0  1  0  0  0  0  0  0  0  0  0
    7.3499  -13.8070   23.5814 C   0  0  0  0  0  0  0  0  0  0  0  0
    7.2398  -13.1338   24.8756 C   0  0  0  0  0  0  0  0  0  0  0  0
    6.2787  -13.4915   25.7892 C   0  0  0  0  0  0  0  0  0  0  0  0
    6.1632  -12.8596   27.0237 C   0  0  0  0  0  0  0  0  0  0  0  0
    7.0248  -11.8435   27.3634 C   0  0  0  0  0  0  0  0  0  0  0  0
    7.9911  -11.4761   26.4579 C   0  0  0  0  0  0  0  0  0  0  0  0
    8.0909  -12.1144   25.2376 C   0  0  0  0  0  0  0  0  0  0  0  0
    8.6156  -15.6991   24.5825 C   0  0  0  0  0  0  0  0  0  0  0  0
    7.6926  -16.5363   24.6976 O   0  0  0  0  0  0  0  0  0  0  0  0
   12.9395  -18.9001   23.4909 N   0  0  0  0  0  0  0  0  0  0  0  0
   12.7311  -18.5535   24.8421 C   0  0  0  0  0  0  0  0  0  0  0  0
   13.3591  -19.1805   25.7353 O   0  0  0  0  0  0  0  0  0  0  0  0
   11.8126  -17.4854   25.2153 C   0  0  0  0  0  0  0  0  0  0  0  0
   10.6968  -17.8477   26.1330 C   0  0  0  0  0  0  0  0  0  0  0  0
    9.7643  -16.7845   26.5638 C   0  0  2  0  0  0  0  0  0  0  0  0
    9.6709  -15.7365   25.5221 N   0  0  0  0  0  0  0  0  0  0  0  0
    9.9366  -16.1411   27.8513 C   0  0  0  0  0  0  0  0  0  0  0  0
   10.0429  -14.8660   27.9757 O   0  0  0  0  0  0  0  0  0  0  0  0
    9.9960  -16.8230   29.0676 O   0  0  0  0  0  0  0  0  0  0  0  0
  2  1  1  6
  2  3  1  0
  4  2  1  0
  4  5  1  1
  6  7  2  0
  6  4  1  0
  8  6  1  0
  9  8  1  0
  9 10  1  1
 10 11  1  0
 11 16  2  0
 11 12  1  0
 12 13  2  0
 13 14  1  0
 15 14  2  0
 16 15  1  0
 17 18  2  0
 17  9  1  0
 20 19  1  0
 21 20  2  0
 22 20  1  0
 24 23  1  6
 23 22  1  0
 24 25  1  0
 25 17  1  0
 26 24  1  0
 27 26  2  0
 28 26  1  0
M  END
$$$$
