TFQ.pdb
     RDKit          3D

 28 28  0  0  1  0  0  0  0  0999 V2000
    8.2215  -18.6340   18.9643 C   0  0  0  0  0  0  0  0  0  0  0  0
    8.5547  -17.9244   20.2547 C   0  0  1  0  0  0  0  0  0  0  0  0
    9.7302  -18.4219   20.8086 O   0  0  0  0  0  0  0  0  0  0  0  0
    8.6627  -16.4380   19.9743 C   0  0  2  0  0  0  0  0  0  0  0  0
    9.8030  -16.2620   19.1004 N   0  0  0  0  0  0  0  0  0  0  0  0
    8.9289  -15.7008   21.2282 C   0  0  0  0  0  0  0  0  0  0  0  0
   10.1032  -15.6345   21.6579 O   0  0  0  0  0  0  0  0  0  0  0  0
    7.9241  -15.0545   21.9864 N   0  0  0  0  0  0  0  0  0  0  0  0
    8.1264  -14.4719   23.2932 C   0  0  1  0  0  0  0  0  0  0  0  0
    6.8870  -13.6999   23.6684 C   0  0  0  0  0  0  0  0  0  0  0  0
    6.9236  -13.1404   25.0197 C   0  0  0  0  0  0  0  0  0  0  0  0
    7.7528  -12.0932   25.3388 C   0  0  0  0  0  0  0  0  0  0  0  0
    7.7974  -11.5517   26.6200 C   0  0  0  0  0  0  0  0  0  0  0  0
    6.9971  -12.0623   27.6145 C   0  0  0  0  0  0  0  0  0  0  0  0
    6.1626  -13.1104   27.3080 C   0  0  0  0  0  0  0  0  0  0  0  0
    6.1318  -13.6350   26.0312 C   0  0  0  0  0  0  0  0  0  0  0  0
    8.4984  -15.4832   24.3067 C   0  0  0  0  0  0  0  0  0  0  0  0
    7.7852  -16.5065   24.4076 O   0  0  0  0  0  0  0  0  0  0  0  0
   15.0245  -16.6400   24.7989 N   0  0  0  0  0  0  0  0  0  0  0  0
   13.6860  -16.6939   24.3574 C   0  0  0  0  0  0  0  0  0  0  0  0
   13.4396  -17.1687   23.2175 O   0  0  0  0  0  0  0  0  0  0  0  0
   12.5937  -16.2184   25.1967 C   0  0  0  0  0  0  0  0  0  0  0  0
   11.3555  -17.0459   25.2222 C   0  0  0  0  0  0  0  0  0  0  0  0
   10.1643  -16.5118   25.9160 C   0  0  2  0  0  0  0  0  0  0  0  0
    9.6130  -15.3596   25.1671 N   0  0  0  0  0  0  0  0  0  0  0  0
   10.2358  -16.1579   27.3199 C   0  0  0  0  0  0  0  0  0  0  0  0
    9.9045  -14.9944   27.7550 O   0  0  0  0  0  0  0  0  0  0  0  0
   10.6552  -17.0273   28.3280 O   0  0  0  0  0  0  0  0  0  0  0  0
  2  1  1  6
  2  3  1  0
  4  2  1  0
  4  5  1  6
  6  7  2  0
  6  4  1  0
  8  6  1  0
  9  8  1  0
  9 10  1  1
 10 11  1  0
 11 16  2  0
 11 12  1  0
 12 13  2  0
 13 14  1  0
 15 14  2  0
 16 15  1  0
 17 18  2  0
 17  9  1  0
 20 19  1  0
 21 20  2  0
 22 20  1  0
 24 23  1  6
 23 22  1  0
 24 25  1  0
 25 17  1  0
 26 24  1  0
 27 26  2  0
 28 26  1  0
M  END
$$$$
