TFQ.pdb
     RDKit          3D

 28 28  0  0  1  0  0  0  0  0999 V2000
    8.1011  -18.7719   18.6242 C   0  0  0  0  0  0  0  0  0  0  0  0
    8.3928  -18.0743   19.9311 C   0  0  1  0  0  0  0  0  0  0  0  0
    9.5046  -18.6302   20.5563 O   0  0  0  0  0  0  0  0  0  0  0  0
    8.5961  -16.5971   19.6549 C   0  0  2  0  0  0  0  0  0  0  0  0
    9.7694  -16.4894   18.8144 N   0  0  0  0  0  0  0  0  0  0  0  0
    8.8691  -15.8756   20.9165 C   0  0  0  0  0  0  0  0  0  0  0  0
   10.0501  -15.7845   21.3225 O   0  0  0  0  0  0  0  0  0  0  0  0
    7.8635  -15.2712   21.7077 N   0  0  0  0  0  0  0  0  0  0  0  0
    8.0738  -14.7246   23.0286 C   0  0  1  0  0  0  0  0  0  0  0  0
    6.8717  -13.8927   23.3975 C   0  0  0  0  0  0  0  0  0  0  0  0
    6.9286  -13.3357   24.7492 C   0  0  0  0  0  0  0  0  0  0  0  0
    6.2510  -13.9176   25.7924 C   0  0  0  0  0  0  0  0  0  0  0  0
    6.2966  -13.3982   27.0827 C   0  0  0  0  0  0  0  0  0  0  0  0
    7.0352  -12.2692   27.3476 C   0  0  0  0  0  0  0  0  0  0  0  0
    7.7180  -11.6773   26.3121 C   0  0  0  0  0  0  0  0  0  0  0  0
    7.6611  -12.2068   25.0382 C   0  0  0  0  0  0  0  0  0  0  0  0
    8.3719  -15.7730   24.0287 C   0  0  0  0  0  0  0  0  0  0  0  0
    7.5876  -16.7443   24.1159 O   0  0  0  0  0  0  0  0  0  0  0  0
   13.4482  -18.7966   24.4322 N   0  0  0  0  0  0  0  0  0  0  0  0
   12.4223  -18.5262   23.5029 C   0  0  0  0  0  0  0  0  0  0  0  0
   12.5930  -18.8464   22.2972 O   0  0  0  0  0  0  0  0  0  0  0  0
   11.1762  -17.8932   23.9157 C   0  0  0  0  0  0  0  0  0  0  0  0
   11.0446  -17.5439   25.3577 C   0  0  0  0  0  0  0  0  0  0  0  0
    9.8152  -16.8570   25.8076 C   0  0  2  0  0  0  0  0  0  0  0  0
    9.4914  -15.7404   24.8909 N   0  0  0  0  0  0  0  0  0  0  0  0
    9.7040  -16.3807   27.1722 C   0  0  0  0  0  0  0  0  0  0  0  0
    9.6702  -15.1292   27.4646 O   0  0  0  0  0  0  0  0  0  0  0  0
    9.6154  -17.2129   28.2891 O   0  0  0  0  0  0  0  0  0  0  0  0
  2  1  1  6
  2  3  1  0
  4  2  1  0
  4  5  1  6
  6  7  2  0
  6  4  1  0
  8  6  1  0
  9  8  1  0
  9 10  1  1
 10 11  1  0
 11 16  2  0
 11 12  1  0
 12 13  2  0
 13 14  1  0
 15 14  2  0
 16 15  1  0
 17 18  2  0
 17  9  1  0
 20 19  1  0
 21 20  2  0
 22 20  1  0
 24 23  1  6
 23 22  1  0
 24 25  1  0
 25 17  1  0
 26 24  1  0
 27 26  2  0
 28 26  1  0
M  END
$$$$
