PEL.pdb
     RDKit          3D

 25 25  0  0  1  0  0  0  0  0999 V2000
   20.2809  -12.5146  -17.1442 N   0  0  0  0  0  0  0  0  0  0  0  0
   20.3130  -13.9410  -17.4473 C   0  0  0  0  0  0  0  0  0  0  0  0
   19.0034  -14.2658  -18.0894 C   0  0  0  0  0  0  0  0  0  0  0  0
   18.3844  -12.9090  -18.3508 C   0  0  0  0  0  0  0  0  0  0  0  0
   19.5263  -11.9211  -18.2210 C   0  0  1  0  0  0  0  0  0  0  0  0
   19.0809  -10.5581  -17.9146 C   0  0  0  0  0  0  0  0  0  0  0  0
   18.3552   -9.9227  -18.7196 O   0  0  0  0  0  0  0  0  0  0  0  0
   19.4489   -9.9175  -16.7107 N   0  0  0  0  0  0  0  0  0  0  0  0
   19.0647   -8.5852  -16.3137 C   0  0  1  0  0  0  0  0  0  0  0  0
   18.0234   -8.6609  -15.2548 C   0  0  0  0  0  0  0  0  0  0  0  0
   18.4419   -8.6381  -13.8397 C   0  0  0  0  0  0  0  0  0  0  0  0
   17.3321   -8.7585  -12.8897 C   0  0  0  0  0  0  0  0  0  0  0  0
   16.1375   -8.8200  -13.2638 O   0  0  0  0  0  0  0  0  0  0  0  0
   20.2439   -7.8163  -15.7601 C   0  0  0  0  0  0  0  0  0  0  0  0
   20.9919   -8.4366  -14.9468 O   0  0  0  0  0  0  0  0  0  0  0  0
   17.5504   -8.8077  -11.5000 O   0  0  0  0  0  0  0  0  0  0  0  0
   24.2629   -3.3930  -17.2663 C   0  0  0  0  0  0  0  0  0  0  0  0
   23.8373   -4.4870  -16.3300 C   0  0  2  0  0  0  0  0  0  0  0  0
   24.9288   -5.5714  -16.4247 C   0  0  0  0  0  0  0  0  0  0  0  0
   22.5647   -5.1473  -16.6810 C   0  0  0  0  0  0  0  0  0  0  0  0
   21.7818   -5.8519  -15.6587 C   0  0  2  0  0  0  0  0  0  0  0  0
   20.5633   -6.4928  -16.0729 N   0  0  0  0  0  0  0  0  0  0  0  0
   21.6129   -5.0966  -14.3846 C   0  0  0  0  0  0  0  0  0  0  0  0
   22.6917   -4.9920  -13.4916 O   0  0  0  0  0  0  0  0  0  0  0  0
   20.5564   -4.5282  -14.0302 O   0  0  0  0  0  0  0  0  0  0  0  0
  1  2  1  0
  3  2  1  0
  4  3  1  0
  5  4  1  0
  5  1  1  0
  6  7  2  0
  5  6  1  1
  8  6  1  0
  9  8  1  0
  9 10  1  1
 11 10  1  0
 12 11  1  0
 13 12  2  0
 14  9  1  0
 14 22  1  0
 15 14  2  0
 16 12  1  0
 18 17  1  6
 19 18  1  0
 20 18  1  0
 21 20  1  6
 21 22  1  0
 21 23  1  0
 23 24  1  0
 25 23  2  0
M  END
$$$$
