PEL.pdb
     RDKit          3D

 25 25  0  0  1  0  0  0  0  0999 V2000
   26.4321  -23.3034  -15.5962 N   0  0  0  0  0  0  0  0  0  0  0  0
   27.7182  -23.0450  -16.2339 C   0  0  0  0  0  0  0  0  0  0  0  0
   27.4298  -22.2247  -17.4491 C   0  0  0  0  0  0  0  0  0  0  0  0
   25.9744  -21.8399  -17.2865 C   0  0  0  0  0  0  0  0  0  0  0  0
   25.6532  -22.1119  -15.8306 C   0  0  1  0  0  0  0  0  0  0  0  0
   24.2224  -22.3141  -15.5812 C   0  0  0  0  0  0  0  0  0  0  0  0
   23.4019  -21.3778  -15.7504 O   0  0  0  0  0  0  0  0  0  0  0  0
   23.7208  -23.5609  -15.1465 N   0  0  0  0  0  0  0  0  0  0  0  0
   22.3282  -23.8970  -14.9802 C   0  0  1  0  0  0  0  0  0  0  0  0
   22.1836  -25.3704  -14.8409 C   0  0  0  0  0  0  0  0  0  0  0  0
   22.3552  -26.2202  -16.0353 C   0  0  0  0  0  0  0  0  0  0  0  0
   22.2467  -27.6565  -15.7634 C   0  0  0  0  0  0  0  0  0  0  0  0
   22.2930  -28.5136  -16.6766 O   0  0  0  0  0  0  0  0  0  0  0  0
   21.7515  -23.2484  -13.7413 C   0  0  0  0  0  0  0  0  0  0  0  0
   22.5702  -22.9718  -12.8146 O   0  0  0  0  0  0  0  0  0  0  0  0
   22.0798  -28.1511  -14.4562 O   0  0  0  0  0  0  0  0  0  0  0  0
   20.9824  -19.6617  -11.2039 C   0  0  0  0  0  0  0  0  0  0  0  0
   21.3018  -19.5417  -12.6661 C   0  0  2  0  0  0  0  0  0  0  0  0
   20.8921  -18.1120  -13.0713 C   0  0  0  0  0  0  0  0  0  0  0  0
   20.5461  -20.4550  -13.5458 C   0  0  0  0  0  0  0  0  0  0  0  0
   19.9482  -21.6838  -13.0102 C   0  0  2  0  0  0  0  0  0  0  0  0
   20.4035  -22.9380  -13.5456 N   0  0  0  0  0  0  0  0  0  0  0  0
   18.4643  -21.6374  -12.8753 C   0  0  0  0  0  0  0  0  0  0  0  0
   17.8884  -21.4290  -11.6116 O   0  0  0  0  0  0  0  0  0  0  0  0
   17.6600  -21.7728  -13.8239 O   0  0  0  0  0  0  0  0  0  0  0  0
  1  2  1  0
  3  2  1  0
  4  3  1  0
  5  4  1  0
  5  1  1  0
  6  7  2  0
  5  6  1  6
  8  6  1  0
  9  8  1  0
  9 10  1  1
 11 10  1  0
 12 11  1  0
 13 12  2  0
 14  9  1  0
 14 22  1  0
 15 14  2  0
 16 12  1  0
 18 17  1  1
 19 18  1  0
 20 18  1  0
 21 20  1  6
 21 22  1  0
 21 23  1  0
 23 24  1  0
 25 23  2  0
M  END
$$$$
