PEL.pdb
     RDKit          3D

 25 25  0  0  1  0  0  0  0  0999 V2000
   18.4730  -13.7624  -17.0823 N   0  0  0  0  0  0  0  0  0  0  0  0
   18.5291  -15.2030  -17.3036 C   0  0  0  0  0  0  0  0  0  0  0  0
   19.7357  -15.4538  -18.1487 C   0  0  0  0  0  0  0  0  0  0  0  0
   20.4590  -14.1236  -18.1469 C   0  0  0  0  0  0  0  0  0  0  0  0
   19.8509  -13.3437  -16.9986 C   0  0  1  0  0  0  0  0  0  0  0  0
   20.0098  -11.8924  -17.1358 C   0  0  0  0  0  0  0  0  0  0  0  0
   20.6307  -11.4032  -18.1124 O   0  0  0  0  0  0  0  0  0  0  0  0
   19.4722  -11.0005  -16.1817 N   0  0  0  0  0  0  0  0  0  0  0  0
   19.4478   -9.5627  -16.2924 C   0  0  1  0  0  0  0  0  0  0  0  0
   18.1215   -9.0509  -15.8564 C   0  0  0  0  0  0  0  0  0  0  0  0
   16.9442   -9.3012  -16.7105 C   0  0  0  0  0  0  0  0  0  0  0  0
   15.6820   -8.8244  -16.1376 C   0  0  0  0  0  0  0  0  0  0  0  0
   15.0217   -7.8955  -16.6590 O   0  0  0  0  0  0  0  0  0  0  0  0
   20.5074   -8.9274  -15.4195 C   0  0  0  0  0  0  0  0  0  0  0  0
   20.4467   -9.1828  -14.1799 O   0  0  0  0  0  0  0  0  0  0  0  0
   15.1445   -9.3848  -14.9637 O   0  0  0  0  0  0  0  0  0  0  0  0
   24.3079   -9.9143  -13.9003 C   0  0  0  0  0  0  0  0  0  0  0  0
   24.3725   -9.2267  -15.2335 C   0  0  2  0  0  0  0  0  0  0  0  0
   25.8638   -9.2009  -15.6230 C   0  0  0  0  0  0  0  0  0  0  0  0
   23.9195   -7.8218  -15.2325 C   0  0  0  0  0  0  0  0  0  0  0  0
   22.5078   -7.4921  -15.0034 C   0  0  2  0  0  0  0  0  0  0  0  0
   21.5312   -8.0913  -15.8719 N   0  0  0  0  0  0  0  0  0  0  0  0
   22.2436   -6.0423  -14.7785 C   0  0  0  0  0  0  0  0  0  0  0  0
   22.7233   -5.4219  -13.6136 O   0  0  0  0  0  0  0  0  0  0  0  0
   21.6093   -5.3051  -15.5655 O   0  0  0  0  0  0  0  0  0  0  0  0
  1  2  1  0
  3  2  1  0
  4  3  1  0
  5  4  1  0
  5  1  1  0
  6  7  2  0
  5  6  1  6
  8  6  1  0
  9  8  1  0
  9 10  1  1
 11 10  1  0
 12 11  1  0
 13 12  2  0
 14  9  1  0
 14 22  1  0
 15 14  2  0
 16 12  1  0
 18 17  1  1
 19 18  1  0
 20 18  1  0
 21 20  1  6
 21 22  1  0
 21 23  1  0
 23 24  1  0
 25 23  2  0
M  END
$$$$
