PEL.pdb
     RDKit          3D

 25 25  0  0  1  0  0  0  0  0999 V2000
   20.6212  -12.1278  -18.0529 N   0  0  0  0  0  0  0  0  0  0  0  0
   21.1633  -13.2979  -18.7345 C   0  0  0  0  0  0  0  0  0  0  0  0
   21.4634  -12.8698  -20.1343 C   0  0  0  0  0  0  0  0  0  0  0  0
   21.3043  -11.3647  -20.0923 C   0  0  0  0  0  0  0  0  0  0  0  0
   21.3272  -11.0049  -18.6203 C   0  0  1  0  0  0  0  0  0  0  0  0
   20.6784   -9.7230  -18.3273 C   0  0  0  0  0  0  0  0  0  0  0  0
   21.2342   -8.6374  -18.6291 O   0  0  0  0  0  0  0  0  0  0  0  0
   19.4136   -9.6653  -17.7010 N   0  0  0  0  0  0  0  0  0  0  0  0
   18.6483   -8.4674  -17.4570 C   0  0  1  0  0  0  0  0  0  0  0  0
   17.2377   -8.8291  -17.1560 C   0  0  0  0  0  0  0  0  0  0  0  0
   16.3580   -9.2525  -18.2627 C   0  0  0  0  0  0  0  0  0  0  0  0
   15.6312  -10.4983  -18.0010 C   0  0  0  0  0  0  0  0  0  0  0  0
   15.8080  -11.1666  -16.9556 O   0  0  0  0  0  0  0  0  0  0  0  0
   19.1982   -7.6959  -16.2778 C   0  0  0  0  0  0  0  0  0  0  0  0
   19.7822   -8.3743  -15.3809 O   0  0  0  0  0  0  0  0  0  0  0  0
   14.6946  -11.0142  -18.9162 O   0  0  0  0  0  0  0  0  0  0  0  0
   21.9882   -4.7878  -13.2067 C   0  0  0  0  0  0  0  0  0  0  0  0
   22.4412   -5.1099  -14.6015 C   0  0  2  0  0  0  0  0  0  0  0  0
   22.6718   -3.7521  -15.2941 C   0  0  0  0  0  0  0  0  0  0  0  0
   21.4536   -5.8337  -15.4258 C   0  0  0  0  0  0  0  0  0  0  0  0
   20.0190   -5.5547  -15.2899 C   0  0  2  0  0  0  0  0  0  0  0  0
   19.1098   -6.3123  -16.1061 N   0  0  0  0  0  0  0  0  0  0  0  0
   19.6744   -4.1046  -15.2645 C   0  0  0  0  0  0  0  0  0  0  0  0
   19.6349   -3.4220  -14.0379 O   0  0  0  0  0  0  0  0  0  0  0  0
   19.4081   -3.4196  -16.2769 O   0  0  0  0  0  0  0  0  0  0  0  0
  1  2  1  0
  3  2  1  0
  4  3  1  0
  5  4  1  0
  5  1  1  0
  6  7  2  0
  5  6  1  6
  8  6  1  0
  9  8  1  0
  9 10  1  1
 11 10  1  0
 12 11  1  0
 13 12  2  0
 14  9  1  0
 14 22  1  0
 15 14  2  0
 16 12  1  0
 18 17  1  1
 19 18  1  0
 20 18  1  0
 21 20  1  6
 21 22  1  0
 21 23  1  0
 23 24  1  0
 25 23  2  0
M  END
$$$$
