PEL.pdb
     RDKit          3D

 25 25  0  0  1  0  0  0  0  0999 V2000
   19.7836  -13.0268  -16.2510 N   0  0  0  0  0  0  0  0  0  0  0  0
   20.2263  -14.3157  -16.7709 C   0  0  0  0  0  0  0  0  0  0  0  0
   20.5131  -14.1094  -18.2228 C   0  0  0  0  0  0  0  0  0  0  0  0
   20.4558  -12.6057  -18.3909 C   0  0  0  0  0  0  0  0  0  0  0  0
   20.5457  -12.0464  -16.9852 C   0  0  1  0  0  0  0  0  0  0  0  0
   19.9926  -10.6939  -16.8635 C   0  0  0  0  0  0  0  0  0  0  0  0
   20.6240   -9.6995  -17.3007 O   0  0  0  0  0  0  0  0  0  0  0  0
   18.7383  -10.4644  -16.2560 N   0  0  0  0  0  0  0  0  0  0  0  0
   18.0986   -9.1809  -16.1031 C   0  0  1  0  0  0  0  0  0  0  0  0
   16.6601   -9.3756  -15.7802 C   0  0  0  0  0  0  0  0  0  0  0  0
   15.8149   -8.1889  -15.5444 C   0  0  0  0  0  0  0  0  0  0  0  0
   14.4219   -8.5069  -15.2171 C   0  0  0  0  0  0  0  0  0  0  0  0
   14.0235   -9.6863  -15.0712 O   0  0  0  0  0  0  0  0  0  0  0  0
   18.7287   -8.3841  -14.9823 C   0  0  0  0  0  0  0  0  0  0  0  0
   19.4401   -9.0323  -14.1582 O   0  0  0  0  0  0  0  0  0  0  0  0
   13.4525   -7.4998  -15.0527 O   0  0  0  0  0  0  0  0  0  0  0  0
   22.0809   -5.0784  -13.1407 C   0  0  0  0  0  0  0  0  0  0  0  0
   22.1464   -5.5712  -14.5575 C   0  0  2  0  0  0  0  0  0  0  0  0
   22.1826   -4.3090  -15.4418 C   0  0  0  0  0  0  0  0  0  0  0  0
   20.9757   -6.3541  -14.9995 C   0  0  0  0  0  0  0  0  0  0  0  0
   19.6615   -6.1478  -14.3794 C   0  0  2  0  0  0  0  0  0  0  0  0
   18.5852   -7.0077  -14.7906 N   0  0  0  0  0  0  0  0  0  0  0  0
   19.2384   -4.7208  -14.2958 C   0  0  0  0  0  0  0  0  0  0  0  0
   19.5558   -3.9686  -13.1532 O   0  0  0  0  0  0  0  0  0  0  0  0
   18.6028   -4.1147  -15.1867 O   0  0  0  0  0  0  0  0  0  0  0  0
  1  2  1  0
  3  2  1  0
  4  3  1  0
  5  4  1  0
  5  1  1  0
  6  7  2  0
  5  6  1  6
  8  6  1  0
  9  8  1  0
  9 10  1  1
 11 10  1  0
 12 11  1  0
 13 12  2  0
 14  9  1  0
 14 22  1  0
 15 14  2  0
 16 12  1  0
 18 17  1  1
 19 18  1  0
 20 18  1  0
 21 20  1  6
 21 22  1  0
 21 23  1  0
 23 24  1  0
 25 23  2  0
M  END
$$$$
