PEL.pdb
     RDKit          3D

 25 25  0  0  1  0  0  0  0  0999 V2000
   27.8409  -22.7907  -17.9541 N   0  0  0  0  0  0  0  0  0  0  0  0
   28.9372  -23.3341  -18.7481 C   0  0  0  0  0  0  0  0  0  0  0  0
   30.1741  -22.6242  -18.3020 C   0  0  0  0  0  0  0  0  0  0  0  0
   29.7318  -21.8744  -17.0632 C   0  0  0  0  0  0  0  0  0  0  0  0
   28.4180  -22.5140  -16.6612 C   0  0  1  0  0  0  0  0  0  0  0  0
   27.5744  -21.6384  -15.8416 C   0  0  0  0  0  0  0  0  0  0  0  0
   27.9287  -21.3048  -14.6833 O   0  0  0  0  0  0  0  0  0  0  0  0
   26.3432  -21.1418  -16.3239 N   0  0  0  0  0  0  0  0  0  0  0  0
   25.4747  -20.2238  -15.6289 C   0  0  1  0  0  0  0  0  0  0  0  0
   24.4975  -19.6398  -16.5856 C   0  0  0  0  0  0  0  0  0  0  0  0
   23.4957  -18.6788  -16.0847 C   0  0  0  0  0  0  0  0  0  0  0  0
   22.5941  -18.1661  -17.1205 C   0  0  0  0  0  0  0  0  0  0  0  0
   21.3625  -18.0361  -16.9280 O   0  0  0  0  0  0  0  0  0  0  0  0
   24.7004  -20.9237  -14.5339 C   0  0  0  0  0  0  0  0  0  0  0  0
   24.1503  -22.0223  -14.8439 O   0  0  0  0  0  0  0  0  0  0  0  0
   23.0657  -17.7947  -18.3936 O   0  0  0  0  0  0  0  0  0  0  0  0
   24.6274  -19.3527  -10.1234 C   0  0  0  0  0  0  0  0  0  0  0  0
   24.9669  -20.8006   -9.9167 C   0  0  2  0  0  0  0  0  0  0  0  0
   26.4939  -20.8506   -9.7119 C   0  0  0  0  0  0  0  0  0  0  0  0
   24.6733  -21.6794  -11.0658 C   0  0  0  0  0  0  0  0  0  0  0  0
   23.8713  -21.1913  -12.1940 C   0  0  2  0  0  0  0  0  0  0  0  0
   24.5479  -20.4548  -13.2268 N   0  0  0  0  0  0  0  0  0  0  0  0
   22.5831  -20.5520  -11.8015 C   0  0  0  0  0  0  0  0  0  0  0  0
   22.2476  -19.2911  -12.3206 O   0  0  0  0  0  0  0  0  0  0  0  0
   21.7461  -21.0598  -11.0226 O   0  0  0  0  0  0  0  0  0  0  0  0
  1  2  1  0
  3  2  1  0
  4  3  1  0
  5  4  1  0
  5  1  1  0
  6  7  2  0
  5  6  1  1
  8  6  1  0
  9  8  1  0
  9 10  1  6
 11 10  1  0
 12 11  1  0
 13 12  2  0
 14  9  1  0
 14 22  1  0
 15 14  2  0
 16 12  1  0
 18 17  1  6
 19 18  1  0
 20 18  1  0
 21 20  1  1
 21 22  1  0
 21 23  1  0
 23 24  1  0
 25 23  2  0
M  END
$$$$
