PEL.pdb
     RDKit          3D

 25 25  0  0  1  0  0  0  0  0999 V2000
   27.5548  -20.9804  -14.7457 N   0  0  0  0  0  0  0  0  0  0  0  0
   28.1289  -20.8544  -16.0806 C   0  0  0  0  0  0  0  0  0  0  0  0
   28.4458  -19.4063  -16.2690 C   0  0  0  0  0  0  0  0  0  0  0  0
   28.2597  -18.8145  -14.8879 C   0  0  0  0  0  0  0  0  0  0  0  0
   28.2507  -20.0019  -13.9462 C   0  0  1  0  0  0  0  0  0  0  0  0
   27.5747  -19.7272  -12.6743 C   0  0  0  0  0  0  0  0  0  0  0  0
   27.9927  -18.8256  -11.9057 O   0  0  0  0  0  0  0  0  0  0  0  0
   26.4365  -20.4612  -12.2731 N   0  0  0  0  0  0  0  0  0  0  0  0
   25.5363  -20.1027  -11.2049 C   0  0  1  0  0  0  0  0  0  0  0  0
   24.1660  -20.5838  -11.5244 C   0  0  0  0  0  0  0  0  0  0  0  0
   23.0730  -20.3089  -10.5716 C   0  0  0  0  0  0  0  0  0  0  0  0
   21.7484  -20.7099  -11.0546 C   0  0  0  0  0  0  0  0  0  0  0  0
   20.7075  -20.5179  -10.3835 O   0  0  0  0  0  0  0  0  0  0  0  0
   25.9617  -20.7293   -9.8955 C   0  0  0  0  0  0  0  0  0  0  0  0
   26.4459  -21.8985   -9.9591 O   0  0  0  0  0  0  0  0  0  0  0  0
   21.5754  -21.3386  -12.3019 O   0  0  0  0  0  0  0  0  0  0  0  0
   27.4063  -20.0319   -4.3896 C   0  0  0  0  0  0  0  0  0  0  0  0
   28.2529  -20.0999   -5.6278 C   0  0  2  0  0  0  0  0  0  0  0  0
   29.3835  -19.0724   -5.4227 C   0  0  0  0  0  0  0  0  0  0  0  0
   27.5640  -19.7155   -6.8754 C   0  0  0  0  0  0  0  0  0  0  0  0
   26.5544  -20.5971   -7.4736 C   0  0  2  0  0  0  0  0  0  0  0  0
   25.8601  -20.1243   -8.6404 N   0  0  0  0  0  0  0  0  0  0  0  0
   25.6308  -21.2306   -6.4899 C   0  0  0  0  0  0  0  0  0  0  0  0
   26.1570  -22.0002   -5.4397 O   0  0  0  0  0  0  0  0  0  0  0  0
   24.3840  -21.1322   -6.5203 O   0  0  0  0  0  0  0  0  0  0  0  0
  1  2  1  0
  3  2  1  0
  4  3  1  0
  5  4  1  0
  5  1  1  0
  6  7  2  0
  5  6  1  1
  8  6  1  0
  9  8  1  0
  9 10  1  6
 11 10  1  0
 12 11  1  0
 13 12  2  0
 14  9  1  0
 14 22  1  0
 15 14  2  0
 16 12  1  0
 18 17  1  1
 19 18  1  0
 20 18  1  0
 21 20  1  1
 21 22  1  0
 21 23  1  0
 23 24  1  0
 25 23  2  0
M  END
$$$$
