PEL.pdb
     RDKit          3D

 25 25  0  0  1  0  0  0  0  0999 V2000
   27.3362  -21.2114  -16.3079 N   0  0  0  0  0  0  0  0  0  0  0  0
   28.0117  -21.1175  -17.5972 C   0  0  0  0  0  0  0  0  0  0  0  0
   28.6367  -19.7612  -17.6488 C   0  0  0  0  0  0  0  0  0  0  0  0
   28.4870  -19.2420  -16.2344 C   0  0  0  0  0  0  0  0  0  0  0  0
   28.1668  -20.4633  -15.3960 C   0  0  1  0  0  0  0  0  0  0  0  0
   27.4801  -20.1406  -14.1413 C   0  0  0  0  0  0  0  0  0  0  0  0
   28.0118  -19.3796  -13.2948 O   0  0  0  0  0  0  0  0  0  0  0  0
   26.2046  -20.6696  -13.8441 N   0  0  0  0  0  0  0  0  0  0  0  0
   25.2494  -20.1001  -12.9258 C   0  0  1  0  0  0  0  0  0  0  0  0
   23.8708  -20.3284  -13.4343 C   0  0  0  0  0  0  0  0  0  0  0  0
   22.7323  -19.7512  -12.6935 C   0  0  0  0  0  0  0  0  0  0  0  0
   21.4238  -20.0694  -13.2724 C   0  0  0  0  0  0  0  0  0  0  0  0
   21.2053  -21.1461  -13.8756 O   0  0  0  0  0  0  0  0  0  0  0  0
   25.3576  -20.7359  -11.5575 C   0  0  0  0  0  0  0  0  0  0  0  0
   25.3501  -22.0025  -11.5203 O   0  0  0  0  0  0  0  0  0  0  0  0
   20.3393  -19.1765  -13.1843 O   0  0  0  0  0  0  0  0  0  0  0  0
   28.7518  -20.2308   -8.4787 C   0  0  0  0  0  0  0  0  0  0  0  0
   27.5863  -19.3034   -8.2889 C   0  0  2  0  0  0  0  0  0  0  0  0
   27.9173  -18.4597   -7.0419 C   0  0  0  0  0  0  0  0  0  0  0  0
   26.2991  -19.9696   -8.0094 C   0  0  0  0  0  0  0  0  0  0  0  0
   25.5826  -20.6862   -9.0713 C   0  0  2  0  0  0  0  0  0  0  0  0
   25.4618  -20.0407  -10.3502 N   0  0  0  0  0  0  0  0  0  0  0  0
   24.3011  -21.3106   -8.6351 C   0  0  0  0  0  0  0  0  0  0  0  0
   23.1232  -21.0532   -9.3551 O   0  0  0  0  0  0  0  0  0  0  0  0
   24.1805  -22.0707   -7.6487 O   0  0  0  0  0  0  0  0  0  0  0  0
  1  2  1  0
  3  2  1  0
  4  3  1  0
  5  4  1  0
  5  1  1  0
  6  7  2  0
  5  6  1  1
  8  6  1  0
  9  8  1  0
  9 10  1  6
 11 10  1  0
 12 11  1  0
 13 12  2  0
 14  9  1  0
 14 22  1  0
 15 14  2  0
 16 12  1  0
 18 17  1  1
 19 18  1  0
 20 18  1  0
 21 20  1  1
 21 22  1  0
 21 23  1  0
 23 24  1  0
 25 23  2  0
M  END
$$$$
