PEL.pdb
     RDKit          3D

 25 25  0  0  1  0  0  0  0  0999 V2000
   22.0486  -20.3246  -12.4150 N   0  0  0  0  0  0  0  0  0  0  0  0
   20.9412  -20.2876  -13.3636 C   0  0  0  0  0  0  0  0  0  0  0  0
   21.3200  -21.1929  -14.4905 C   0  0  0  0  0  0  0  0  0  0  0  0
   22.5508  -21.9102  -13.9777 C   0  0  0  0  0  0  0  0  0  0  0  0
   22.5512  -21.6753  -12.4805 C   0  0  1  0  0  0  0  0  0  0  0  0
   23.8783  -21.8145  -11.8728 C   0  0  0  0  0  0  0  0  0  0  0  0
   24.3954  -22.9480  -11.7106 O   0  0  0  0  0  0  0  0  0  0  0  0
   24.6168  -20.6860  -11.4531 N   0  0  0  0  0  0  0  0  0  0  0  0
   26.0369  -20.6538  -11.2030 C   0  0  1  0  0  0  0  0  0  0  0  0
   26.6580  -19.5577  -11.9930 C   0  0  0  0  0  0  0  0  0  0  0  0
   28.1291  -19.4431  -12.0202 C   0  0  0  0  0  0  0  0  0  0  0  0
   28.7537  -20.0817  -13.1824 C   0  0  0  0  0  0  0  0  0  0  0  0
   28.7779  -19.5361  -14.3104 O   0  0  0  0  0  0  0  0  0  0  0  0
   26.3307  -20.4045   -9.7403 C   0  0  0  0  0  0  0  0  0  0  0  0
   25.4380  -19.7936   -9.0803 O   0  0  0  0  0  0  0  0  0  0  0  0
   29.3586  -21.3495  -13.0933 O   0  0  0  0  0  0  0  0  0  0  0  0
   29.3551  -19.4298   -5.1818 C   0  0  0  0  0  0  0  0  0  0  0  0
   29.2723  -20.8505   -5.6604 C   0  0  2  0  0  0  0  0  0  0  0  0
   30.6675  -21.4594   -5.4175 C   0  0  0  0  0  0  0  0  0  0  0  0
   28.9964  -21.0072   -7.1020 C   0  0  0  0  0  0  0  0  0  0  0  0
   27.6986  -20.6115   -7.6617 C   0  0  2  0  0  0  0  0  0  0  0  0
   27.4962  -20.7905   -9.0737 N   0  0  0  0  0  0  0  0  0  0  0  0
   27.2022  -19.2882   -7.1875 C   0  0  0  0  0  0  0  0  0  0  0  0
   27.3489  -18.1575   -8.0072 O   0  0  0  0  0  0  0  0  0  0  0  0
   26.6469  -19.0915   -6.0838 O   0  0  0  0  0  0  0  0  0  0  0  0
  1  2  1  0
  3  2  1  0
  4  3  1  0
  5  4  1  0
  5  1  1  0
  6  7  2  0
  5  6  1  6
  8  6  1  0
  9  8  1  0
  9 10  1  6
 11 10  1  0
 12 11  1  0
 13 12  2  0
 14  9  1  0
 14 22  1  0
 15 14  2  0
 16 12  1  0
 18 17  1  6
 19 18  1  0
 20 18  1  0
 21 20  1  6
 21 22  1  0
 21 23  1  0
 23 24  1  0
 25 23  2  0
M  END
$$$$
