RAC.pdb
     RDKit          3D

 23 22  0  0  1  0  0  0  0  0999 V2000
   21.0109  -22.5101   -7.2780 N   0  0  0  0  0  0  0  0  0  0  0  0
   20.8181  -21.1842   -7.7819 C   0  0  0  0  0  0  0  0  0  0  0  0
   19.6355  -20.8200   -8.1659 N   0  0  0  0  0  0  0  0  0  0  0  0
   21.8916  -20.2662   -7.8683 N   0  0  0  0  0  0  0  0  0  0  0  0
   23.2857  -20.6982   -7.7427 C   0  0  0  0  0  0  0  0  0  0  0  0
   23.6427  -21.6335   -8.8520 C   0  0  0  0  0  0  0  0  0  0  0  0
   24.6138  -21.0795   -9.8404 C   0  0  0  0  0  0  0  0  0  0  0  0
   23.9055  -20.6187  -11.0801 C   0  0  2  0  0  0  0  0  0  0  0  0
   22.7716  -21.4680  -11.3315 N   0  0  0  0  0  0  0  0  0  0  0  0
   24.8164  -20.5327  -12.2492 C   0  0  0  0  0  0  0  0  0  0  0  0
   25.9052  -19.9208  -12.1043 O   0  0  0  0  0  0  0  0  0  0  0  0
   19.4660  -19.8493   -8.5051 C   0  0  0  0  0  0  0  0  0  0  0  0
   24.9621  -21.8684  -15.8055 C   0  0  1  0  0  0  0  0  0  0  0  0
   25.3153  -20.8951  -14.6918 N   0  0  0  0  0  0  0  0  0  0  0  0
   24.5365  -21.0960  -13.5164 C   0  0  0  0  0  0  0  0  0  0  0  0
   25.1957  -19.5312  -15.2549 O   0  0  0  0  0  0  0  0  0  0  0  0
   24.0407  -19.0075  -15.2210 N   0  0  0  0  0  0  0  0  0  0  0  0
   26.2680  -18.8015  -15.8124 C   0  0  1  0  0  0  0  0  0  0  0  0
   26.0428  -17.4683  -16.2828 C   0  0  0  0  0  0  0  0  0  0  0  0
   27.1114  -16.4980  -15.8467 S   0  0  0  0  0  0  0  0  0  0  0  0
   28.3127  -17.4209  -14.8457 C   0  0  0  0  0  0  0  0  0  0  0  0
   25.9781  -17.4805  -17.7645 O   0  0  0  0  0  0  0  0  0  0  0  0
   26.1618  -18.5691  -18.3502 O   0  0  0  0  0  0  0  0  0  0  0  0
  1  2  1  0
  2  3  2  0
  4  2  1  0
  5  4  1  0
  6  5  1  0
  7  6  1  0
  8  9  1  6
  8  7  1  0
  8 10  1  0
 10 11  2  0
 10 14  1  0
 13 12  1  1
 14 13  1  0
 15 13  1  0
 15 17  1  0
 16 15  2  0
 18 17  1  0
 18 21  1  0
 18 19  1  6
 20 19  1  0
 21 23  1  0
 22 21  2  0
M  END
$$$$
