RAC.pdb
     RDKit          3D

 23 22  0  0  1  0  0  0  0  0999 V2000
   21.2667  -23.3198  -13.0143 N   0  0  0  0  0  0  0  0  0  0  0  0
   20.1747  -22.8279  -13.7984 C   0  0  0  0  0  0  0  0  0  0  0  0
   20.2492  -22.8840  -15.0907 N   0  0  0  0  0  0  0  0  0  0  0  0
   19.0186  -22.2831  -13.1907 N   0  0  0  0  0  0  0  0  0  0  0  0
   18.4811  -22.8212  -11.9387 C   0  0  0  0  0  0  0  0  0  0  0  0
   17.9689  -24.2095  -12.1463 C   0  0  0  0  0  0  0  0  0  0  0  0
   17.3783  -24.8398  -10.9293 C   0  0  0  0  0  0  0  0  0  0  0  0
   18.4356  -25.5390  -10.1268 C   0  0  2  0  0  0  0  0  0  0  0  0
   18.9075  -26.6900  -10.8499 N   0  0  0  0  0  0  0  0  0  0  0  0
   17.9688  -25.8834   -8.7604 C   0  0  0  0  0  0  0  0  0  0  0  0
   17.0249  -26.7067   -8.6499 O   0  0  0  0  0  0  0  0  0  0  0  0
   19.4713  -22.5199  -15.6809 C   0  0  0  0  0  0  0  0  0  0  0  0
   18.8517  -24.9033   -5.1839 C   0  0  1  0  0  0  0  0  0  0  0  0
   17.9832  -25.5238   -6.2669 N   0  0  0  0  0  0  0  0  0  0  0  0
   18.5190  -25.3434   -7.5742 C   0  0  0  0  0  0  0  0  0  0  0  0
   16.6220  -24.9653   -6.1031 O   0  0  0  0  0  0  0  0  0  0  0  0
   16.3364  -23.9590   -6.8209 N   0  0  0  0  0  0  0  0  0  0  0  0
   15.6510  -25.4777   -5.2156 C   0  0  1  0  0  0  0  0  0  0  0  0
   14.3682  -24.8473   -5.1356 C   0  0  0  0  0  0  0  0  0  0  0  0
   13.2276  -25.8315   -5.0719 S   0  0  0  0  0  0  0  0  0  0  0  0
   11.7011  -24.8835   -4.8113 C   0  0  0  0  0  0  0  0  0  0  0  0
   14.3263  -23.9821   -3.9318 O   0  0  0  0  0  0  0  0  0  0  0  0
   15.0829  -24.2671   -2.9787 O   0  0  0  0  0  0  0  0  0  0  0  0
  1  2  1  0
  2  3  2  0
  4  2  1  0
  5  4  1  0
  6  5  1  0
  7  6  1  0
  8  9  1  6
  8  7  1  0
  8 10  1  0
 10 11  2  0
 10 14  1  0
 13 12  1  1
 14 13  1  0
 15 13  1  0
 15 17  1  0
 16 15  2  0
 18 17  1  0
 18 21  1  0
 18 19  1  1
 20 19  1  0
 21 23  1  0
 22 21  2  0
M  END
$$$$
