RAC.pdb
     RDKit          3D

 23 22  0  0  1  0  0  0  0  0999 V2000
   25.2424  -21.6264   -9.0710 N   0  0  0  0  0  0  0  0  0  0  0  0
   23.8412  -21.4374   -9.2950 C   0  0  0  0  0  0  0  0  0  0  0  0
   23.0297  -21.4719   -8.2855 N   0  0  0  0  0  0  0  0  0  0  0  0
   23.3268  -21.2143  -10.5943 N   0  0  0  0  0  0  0  0  0  0  0  0
   24.1764  -21.3043  -11.7843 C   0  0  0  0  0  0  0  0  0  0  0  0
   25.2440  -20.2596  -11.7419 C   0  0  0  0  0  0  0  0  0  0  0  0
   26.1473  -20.2491  -12.9297 C   0  0  0  0  0  0  0  0  0  0  0  0
   25.5097  -20.9577  -14.0883 C   0  0  2  0  0  0  0  0  0  0  0  0
   26.2188  -22.1810  -14.3547 N   0  0  0  0  0  0  0  0  0  0  0  0
   25.4070  -20.0918  -15.2897 C   0  0  0  0  0  0  0  0  0  0  0  0
   26.4602  -19.8464  -15.9312 O   0  0  0  0  0  0  0  0  0  0  0  0
   22.0091  -21.3121   -8.4226 C   0  0  0  0  0  0  0  0  0  0  0  0
   22.6062  -18.5011  -17.3186 C   0  0  1  0  0  0  0  0  0  0  0  0
   24.0587  -18.7731  -16.9599 N   0  0  0  0  0  0  0  0  0  0  0  0
   24.1986  -19.5251  -15.7585 C   0  0  0  0  0  0  0  0  0  0  0  0
   24.7476  -17.4633  -16.9218 O   0  0  0  0  0  0  0  0  0  0  0  0
   24.4212  -16.6830  -15.9763 N   0  0  0  0  0  0  0  0  0  0  0  0
   25.7217  -17.0468  -17.8550 C   0  0  1  0  0  0  0  0  0  0  0  0
   26.3231  -15.7552  -17.7154 C   0  0  0  0  0  0  0  0  0  0  0  0
   27.8286  -15.7916  -17.7914 S   0  0  0  0  0  0  0  0  0  0  0  0
   28.4283  -16.6901  -16.3319 C   0  0  0  0  0  0  0  0  0  0  0  0
   25.8080  -14.8619  -18.7814 O   0  0  0  0  0  0  0  0  0  0  0  0
   25.1493  -15.3771  -19.7102 O   0  0  0  0  0  0  0  0  0  0  0  0
  1  2  1  0
  2  3  2  0
  4  2  1  0
  5  4  1  0
  6  5  1  0
  7  6  1  0
  8  9  1  6
  8  7  1  0
  8 10  1  0
 10 11  2  0
 10 14  1  0
 13 12  1  6
 14 13  1  0
 15 13  1  0
 15 17  1  0
 16 15  2  0
 18 17  1  0
 18 21  1  0
 18 19  1  6
 20 19  1  0
 21 23  1  0
 22 21  2  0
M  END
$$$$
