RAC.pdb
     RDKit          3D

 23 22  0  0  1  0  0  0  0  0999 V2000
   23.4714  -21.2199  -10.1098 N   0  0  0  0  0  0  0  0  0  0  0  0
   24.7918  -21.3824   -9.5812 C   0  0  0  0  0  0  0  0  0  0  0  0
   24.9392  -21.6673   -8.3259 N   0  0  0  0  0  0  0  0  0  0  0  0
   25.9360  -21.2381  -10.4013 N   0  0  0  0  0  0  0  0  0  0  0  0
   25.8634  -20.6013  -11.7186 C   0  0  0  0  0  0  0  0  0  0  0  0
   26.5847  -21.4251  -12.7355 C   0  0  0  0  0  0  0  0  0  0  0  0
   25.8519  -22.6494  -13.1730 C   0  0  0  0  0  0  0  0  0  0  0  0
   25.7045  -22.6752  -14.6658 C   0  0  2  0  0  0  0  0  0  0  0  0
   26.9687  -23.0029  -15.2696 N   0  0  0  0  0  0  0  0  0  0  0  0
   25.1363  -21.4107  -15.1968 C   0  0  0  0  0  0  0  0  0  0  0  0
   25.9347  -20.4895  -15.5052 O   0  0  0  0  0  0  0  0  0  0  0  0
   25.8894  -21.8244   -7.9280 C   0  0  0  0  0  0  0  0  0  0  0  0
   21.7109  -19.8775  -15.7781 C   0  0  1  0  0  0  0  0  0  0  0  0
   23.1941  -20.0585  -16.0604 N   0  0  0  0  0  0  0  0  0  0  0  0
   23.7530  -21.1767  -15.3779 C   0  0  0  0  0  0  0  0  0  0  0  0
   23.8563  -18.7751  -15.7347 O   0  0  0  0  0  0  0  0  0  0  0  0
   23.6466  -18.3127  -14.5722 N   0  0  0  0  0  0  0  0  0  0  0  0
   24.6860  -18.0575  -16.6235 C   0  0  1  0  0  0  0  0  0  0  0  0
   25.2547  -16.8122  -16.2049 C   0  0  0  0  0  0  0  0  0  0  0  0
   26.7614  -16.8377  -16.1508 S   0  0  0  0  0  0  0  0  0  0  0  0
   27.3246  -15.1489  -15.7937 C   0  0  0  0  0  0  0  0  0  0  0  0
   24.8238  -15.7433  -17.1384 O   0  0  0  0  0  0  0  0  0  0  0  0
   24.7502  -16.0219  -18.3546 O   0  0  0  0  0  0  0  0  0  0  0  0
  1  2  1  0
  2  3  2  0
  4  2  1  0
  5  4  1  0
  6  5  1  0
  7  6  1  0
  8  9  1  6
  8  7  1  0
  8 10  1  0
 10 11  2  0
 10 14  1  0
 13 12  1  6
 14 13  1  0
 15 13  1  0
 15 17  1  0
 16 15  2  0
 18 17  1  0
 18 21  1  0
 18 19  1  6
 20 19  1  0
 21 23  1  0
 22 21  2  0
M  END
$$$$
