RAC.pdb
     RDKit          3D

 23 22  0  0  1  0  0  0  0  0999 V2000
   25.9647  -23.9361  -15.1328 N   0  0  0  0  0  0  0  0  0  0  0  0
   26.2364  -23.7509  -16.5260 C   0  0  0  0  0  0  0  0  0  0  0  0
   26.5388  -24.7799  -17.2530 N   0  0  0  0  0  0  0  0  0  0  0  0
   26.1812  -22.4689  -17.1228 N   0  0  0  0  0  0  0  0  0  0  0  0
   25.0601  -21.5566  -16.8841 C   0  0  0  0  0  0  0  0  0  0  0  0
   25.3030  -20.7444  -15.6536 C   0  0  0  0  0  0  0  0  0  0  0  0
   24.0853  -20.0861  -15.0961 C   0  0  0  0  0  0  0  0  0  0  0  0
   23.4268  -19.2230  -16.1317 C   0  0  2  0  0  0  0  0  0  0  0  0
   24.0775  -17.9404  -16.1751 N   0  0  0  0  0  0  0  0  0  0  0  0
   21.9625  -19.1059  -15.9177 C   0  0  0  0  0  0  0  0  0  0  0  0
   21.5634  -18.5564  -14.8596 O   0  0  0  0  0  0  0  0  0  0  0  0
   26.7640  -24.6645  -18.2639 C   0  0  0  0  0  0  0  0  0  0  0  0
   18.7760  -19.7700  -17.8733 C   0  0  1  0  0  0  0  0  0  0  0  0
   19.5818  -19.5687  -16.5996 N   0  0  0  0  0  0  0  0  0  0  0  0
   20.9873  -19.5739  -16.8296 C   0  0  0  0  0  0  0  0  0  0  0  0
   19.1359  -20.6019  -15.6376 O   0  0  0  0  0  0  0  0  0  0  0  0
   19.8676  -21.6337  -15.5404 N   0  0  0  0  0  0  0  0  0  0  0  0
   17.9723  -20.5040  -14.8442 C   0  0  1  0  0  0  0  0  0  0  0  0
   17.6590  -21.5531  -13.9219 C   0  0  0  0  0  0  0  0  0  0  0  0
   18.6661  -21.6821  -12.8072 S   0  0  0  0  0  0  0  0  0  0  0  0
   18.0290  -22.9130  -11.6342 C   0  0  0  0  0  0  0  0  0  0  0  0
   16.3203  -21.3007  -13.3356 O   0  0  0  0  0  0  0  0  0  0  0  0
   15.5083  -22.2501  -13.2983 O   0  0  0  0  0  0  0  0  0  0  0  0
  1  2  1  0
  2  3  2  0
  4  2  1  0
  5  4  1  0
  6  5  1  0
  7  6  1  0
  8  9  1  1
  8  7  1  0
  8 10  1  0
 10 11  2  0
 10 14  1  0
 13 12  1  6
 14 13  1  0
 15 13  1  0
 15 17  1  0
 16 15  2  0
 18 17  1  0
 18 21  1  0
 18 19  1  6
 20 19  1  0
 21 23  1  0
 22 21  2  0
M  END
$$$$
