RAC.pdb
     RDKit          3D

 23 22  0  0  1  0  0  0  0  0999 V2000
   25.8542  -25.0948  -15.5748 N   0  0  0  0  0  0  0  0  0  0  0  0
   24.6477  -25.8511  -15.4287 C   0  0  0  0  0  0  0  0  0  0  0  0
   24.4747  -26.9110  -16.1536 N   0  0  0  0  0  0  0  0  0  0  0  0
   23.6429  -25.4644  -14.5102 N   0  0  0  0  0  0  0  0  0  0  0  0
   23.1686  -24.0809  -14.4259 C   0  0  0  0  0  0  0  0  0  0  0  0
   22.0765  -23.8438  -15.4178 C   0  0  0  0  0  0  0  0  0  0  0  0
   22.2447  -22.6102  -16.2405 C   0  0  0  0  0  0  0  0  0  0  0  0
   22.9546  -21.5437  -15.4598 C   0  0  2  0  0  0  0  0  0  0  0  0
   22.6840  -21.7122  -14.0568 N   0  0  0  0  0  0  0  0  0  0  0  0
   22.6202  -20.1791  -15.9392 C   0  0  0  0  0  0  0  0  0  0  0  0
   22.8245  -19.9134  -17.1511 O   0  0  0  0  0  0  0  0  0  0  0  0
   25.2418  -27.2644  -16.7640 C   0  0  0  0  0  0  0  0  0  0  0  0
   20.4933  -17.2942  -15.0375 C   0  0  2  0  0  0  0  0  0  0  0  0
   21.8295  -17.8212  -15.5365 N   0  0  0  0  0  0  0  0  0  0  0  0
   22.0859  -19.1583  -15.1182 C   0  0  0  0  0  0  0  0  0  0  0  0
   22.8649  -16.8565  -15.1018 O   0  0  0  0  0  0  0  0  0  0  0  0
   23.4813  -17.1376  -14.0292 N   0  0  0  0  0  0  0  0  0  0  0  0
   23.1946  -15.6729  -15.7972 C   0  0  1  0  0  0  0  0  0  0  0  0
   24.3716  -14.9455  -15.4298 C   0  0  0  0  0  0  0  0  0  0  0  0
   25.6286  -15.7746  -15.5075 S   0  0  0  0  0  0  0  0  0  0  0  0
   27.0232  -14.6956  -15.0742 C   0  0  0  0  0  0  0  0  0  0  0  0
   24.5138  -13.7693  -16.3219 O   0  0  0  0  0  0  0  0  0  0  0  0
   24.4429  -13.9574  -17.5555 O   0  0  0  0  0  0  0  0  0  0  0  0
  1  2  1  0
  2  3  2  0
  4  2  1  0
  5  4  1  0
  6  5  1  0
  7  6  1  0
  8  9  1  1
  8  7  1  0
  8 10  1  0
 10 11  2  0
 10 14  1  0
 13 12  1  6
 14 13  1  0
 15 13  1  0
 15 17  1  0
 16 15  2  0
 18 17  1  0
 18 21  1  0
 18 19  1  1
 20 19  1  0
 21 23  1  0
 22 21  2  0
M  END
$$$$
