RAC.pdb
     RDKit          3D

 23 22  0  0  1  0  0  0  0  0999 V2000
   24.5638  -20.8157   -8.1275 N   0  0  0  0  0  0  0  0  0  0  0  0
   23.8119  -20.6260   -9.3307 C   0  0  0  0  0  0  0  0  0  0  0  0
   22.5307  -20.8186   -9.3121 N   0  0  0  0  0  0  0  0  0  0  0  0
   24.4393  -20.2332  -10.5368 N   0  0  0  0  0  0  0  0  0  0  0  0
   25.8373  -20.5664  -10.8209 C   0  0  0  0  0  0  0  0  0  0  0  0
   25.9297  -21.9030  -11.4825 C   0  0  0  0  0  0  0  0  0  0  0  0
   25.9066  -21.8584  -12.9740 C   0  0  0  0  0  0  0  0  0  0  0  0
   24.8816  -20.8768  -13.4603 C   0  0  2  0  0  0  0  0  0  0  0  0
   23.6505  -21.5655  -13.7434 N   0  0  0  0  0  0  0  0  0  0  0  0
   25.3656  -20.0863  -14.6199 C   0  0  0  0  0  0  0  0  0  0  0  0
   25.2124  -20.5720  -15.7695 O   0  0  0  0  0  0  0  0  0  0  0  0
   21.9746  -20.7572  -10.1912 C   0  0  0  0  0  0  0  0  0  0  0  0
   27.0712  -16.7232  -15.1813 C   0  0  2  0  0  0  0  0  0  0  0  0
   26.5371  -18.0836  -15.6014 N   0  0  0  0  0  0  0  0  0  0  0  0
   25.9885  -18.8207  -14.5131 C   0  0  0  0  0  0  0  0  0  0  0  0
   27.6400  -18.7860  -16.2956 O   0  0  0  0  0  0  0  0  0  0  0  0
   28.6630  -19.0572  -15.5961 N   0  0  0  0  0  0  0  0  0  0  0  0
   27.6157  -19.1602  -17.6566 C   0  0  1  0  0  0  0  0  0  0  0  0
   28.7042  -19.9160  -18.1982 C   0  0  0  0  0  0  0  0  0  0  0  0
   28.3891  -21.3827  -18.3500 S   0  0  0  0  0  0  0  0  0  0  0  0
   28.3574  -22.1103  -16.6867 C   0  0  0  0  0  0  0  0  0  0  0  0
   29.0683  -19.3612  -19.5246 O   0  0  0  0  0  0  0  0  0  0  0  0
   28.2083  -18.6911  -20.1357 O   0  0  0  0  0  0  0  0  0  0  0  0
  1  2  1  0
  2  3  2  0
  4  2  1  0
  5  4  1  0
  6  5  1  0
  7  6  1  0
  8  9  1  6
  8  7  1  0
  8 10  1  0
 10 11  2  0
 10 14  1  0
 13 12  1  6
 14 13  1  0
 15 13  1  0
 15 17  1  0
 16 15  2  0
 18 17  1  0
 18 21  1  0
 18 19  1  6
 20 19  1  0
 21 23  1  0
 22 21  2  0
M  END
$$$$
