RAC.pdb
     RDKit          3D

 23 22  0  0  1  0  0  0  0  0999 V2000
   27.1377  -22.3355  -18.0660 N   0  0  0  0  0  0  0  0  0  0  0  0
   27.7403  -23.1636  -17.0658 C   0  0  0  0  0  0  0  0  0  0  0  0
   28.9565  -23.5765  -17.2362 N   0  0  0  0  0  0  0  0  0  0  0  0
   27.0350  -23.5387  -15.8977 N   0  0  0  0  0  0  0  0  0  0  0  0
   25.6166  -23.2192  -15.7192 C   0  0  0  0  0  0  0  0  0  0  0  0
   25.4582  -22.0441  -14.8097 C   0  0  0  0  0  0  0  0  0  0  0  0
   24.0557  -21.5537  -14.6705 C   0  0  0  0  0  0  0  0  0  0  0  0
   23.5159  -21.1045  -15.9963 C   0  0  2  0  0  0  0  0  0  0  0  0
   24.3723  -20.0873  -16.5460 N   0  0  0  0  0  0  0  0  0  0  0  0
   22.1011  -20.6637  -15.9074 C   0  0  0  0  0  0  0  0  0  0  0  0
   21.8604  -19.5645  -15.3463 O   0  0  0  0  0  0  0  0  0  0  0  0
   29.4328  -24.1360  -16.4971 C   0  0  0  0  0  0  0  0  0  0  0  0
   18.7165  -21.9116  -17.1320 C   0  0  1  0  0  0  0  0  0  0  0  0
   19.6430  -20.9963  -16.3470 N   0  0  0  0  0  0  0  0  0  0  0  0
   21.0064  -21.4025  -16.4143 C   0  0  0  0  0  0  0  0  0  0  0  0
   19.1139  -20.9261  -14.9661 O   0  0  0  0  0  0  0  0  0  0  0  0
   19.4329  -21.8792  -14.1921 N   0  0  0  0  0  0  0  0  0  0  0  0
   18.2961  -19.8843  -14.4772 C   0  0  1  0  0  0  0  0  0  0  0  0
   17.9294  -19.8679  -13.0935 C   0  0  0  0  0  0  0  0  0  0  0  0
   18.5256  -18.7081  -12.3366 S   0  0  0  0  0  0  0  0  0  0  0  0
   17.8915  -17.1812  -13.0872 C   0  0  0  0  0  0  0  0  0  0  0  0
   16.4516  -19.8070  -12.9834 O   0  0  0  0  0  0  0  0  0  0  0  0
   15.7980  -19.5334  -14.0129 O   0  0  0  0  0  0  0  0  0  0  0  0
  1  2  1  0
  2  3  2  0
  4  2  1  0
  5  4  1  0
  6  5  1  0
  7  6  1  0
  8  9  1  1
  8  7  1  0
  8 10  1  0
 10 11  2  0
 10 14  1  0
 13 12  1  6
 14 13  1  0
 15 13  1  0
 15 17  1  0
 16 15  2  0
 18 17  1  0
 18 21  1  0
 18 19  1  1
 20 19  1  0
 21 23  1  0
 22 21  2  0
M  END
$$$$
