RAC.pdb
     RDKit          3D

 23 22  0  0  1  0  0  0  0  0999 V2000
   28.8219  -23.6247  -16.6017 N   0  0  0  0  0  0  0  0  0  0  0  0
   27.7997  -24.5520  -16.9814 C   0  0  0  0  0  0  0  0  0  0  0  0
   27.9576  -25.8103  -16.7158 N   0  0  0  0  0  0  0  0  0  0  0  0
   26.6230  -24.1219  -17.6396 N   0  0  0  0  0  0  0  0  0  0  0  0
   25.8447  -22.9789  -17.1559 C   0  0  0  0  0  0  0  0  0  0  0  0
   25.8824  -22.9178  -15.6634 C   0  0  0  0  0  0  0  0  0  0  0  0
   25.0578  -21.8260  -15.0676 C   0  0  0  0  0  0  0  0  0  0  0  0
   24.3902  -21.0182  -16.1412 C   0  0  2  0  0  0  0  0  0  0  0  0
   25.3003  -20.0148  -16.6261 N   0  0  0  0  0  0  0  0  0  0  0  0
   23.1002  -20.4391  -15.6892 C   0  0  0  0  0  0  0  0  0  0  0  0
   23.1364  -19.4970  -14.8572 O   0  0  0  0  0  0  0  0  0  0  0  0
   27.2891  -26.5169  -17.0895 C   0  0  0  0  0  0  0  0  0  0  0  0
   19.4406  -20.7097  -16.6535 C   0  0  1  0  0  0  0  0  0  0  0  0
   20.5834  -20.3339  -15.7233 N   0  0  0  0  0  0  0  0  0  0  0  0
   21.8324  -20.8804  -16.1355 C   0  0  0  0  0  0  0  0  0  0  0  0
   20.1814  -20.7405  -14.3577 O   0  0  0  0  0  0  0  0  0  0  0  0
   20.4416  -21.9375  -14.0274 N   0  0  0  0  0  0  0  0  0  0  0  0
   19.5418  -19.8918  -13.4284 C   0  0  1  0  0  0  0  0  0  0  0  0
   19.2440  -20.3817  -12.1168 C   0  0  0  0  0  0  0  0  0  0  0  0
   19.3929  -19.3321  -11.0445 S   0  0  0  0  0  0  0  0  0  0  0  0
   21.1688  -19.1141  -10.7354 C   0  0  0  0  0  0  0  0  0  0  0  0
   17.8541  -20.8990  -12.0955 O   0  0  0  0  0  0  0  0  0  0  0  0
   17.1187  -20.6434  -13.0732 O   0  0  0  0  0  0  0  0  0  0  0  0
  1  2  1  0
  2  3  2  0
  4  2  1  0
  5  4  1  0
  6  5  1  0
  7  6  1  0
  8  9  1  1
  8  7  1  0
  8 10  1  0
 10 11  2  0
 10 14  1  0
 13 12  1  6
 14 13  1  0
 15 13  1  0
 15 17  1  0
 16 15  2  0
 18 17  1  0
 18 21  1  0
 18 19  1  1
 20 19  1  0
 21 23  1  0
 22 21  2  0
M  END
$$$$
