AWE.pdb
     RDKit          3D

 29 30  0  0  1  0  0  0  0  0999 V2000
   29.8633  -20.0720  -12.7888 C   0  0  0  0  0  0  0  0  0  0  0  0
   30.0311  -20.4567  -11.3114 C   0  0  2  0  0  0  0  0  0  0  0  0
   30.9140  -21.6063  -11.3213 N   0  0  0  0  0  0  0  0  0  0  0  0
   28.7177  -20.8421  -10.8024 C   0  0  0  0  0  0  0  0  0  0  0  0
   28.3750  -22.0509  -10.8089 O   0  0  0  0  0  0  0  0  0  0  0  0
   27.7525  -19.9080  -10.2745 N   0  0  0  0  0  0  0  0  0  0  0  0
   26.4729  -20.3058   -9.7931 C   0  0  1  0  0  0  0  0  0  0  0  0
   25.9636  -19.5611   -8.6227 C   0  0  0  0  0  0  0  0  0  0  0  0
   26.9680  -19.1874   -7.6056 C   0  0  0  0  0  0  0  0  0  0  0  0
   27.7549  -18.0660   -7.5121 C   0  0  0  0  0  0  0  0  0  0  0  0
   28.5352  -18.1340   -6.4027 N   0  0  0  0  0  0  0  0  0  0  0  0
   28.2701  -19.2910   -5.7622 C   0  0  0  0  0  0  0  0  0  0  0  0
   28.7782  -19.8407   -4.6026 C   0  0  0  0  0  0  0  0  0  0  0  0
   28.3461  -21.0582   -4.1333 C   0  0  0  0  0  0  0  0  0  0  0  0
   27.3832  -21.7169   -4.8625 C   0  0  0  0  0  0  0  0  0  0  0  0
   26.8728  -21.1715   -6.0216 C   0  0  0  0  0  0  0  0  0  0  0  0
   27.3084  -19.9424   -6.4958 C   0  0  0  0  0  0  0  0  0  0  0  0
   25.4396  -20.3764  -10.8601 C   0  0  0  0  0  0  0  0  0  0  0  0
   25.4174  -19.5242  -11.8099 O   0  0  0  0  0  0  0  0  0  0  0  0
   24.4411  -21.3672  -10.8887 N   0  0  0  0  0  0  0  0  0  0  0  0
   23.4676  -21.5040  -12.0017 C   0  0  1  0  0  0  0  0  0  0  0  0
   23.4109  -22.9374  -12.4050 C   0  0  0  0  0  0  0  0  0  0  0  0
   22.4083  -23.2596  -13.4478 C   0  0  0  0  0  0  0  0  0  0  0  0
   22.8752  -24.0659  -14.5824 C   0  0  0  0  0  0  0  0  0  0  0  0
   23.8169  -23.7239  -15.3655 O   0  0  0  0  0  0  0  0  0  0  0  0
   22.2707  -20.8183  -11.5782 C   0  0  0  0  0  0  0  0  0  0  0  0
   22.0595  -20.5983  -10.3441 O   0  0  0  0  0  0  0  0  0  0  0  0
   22.2789  -25.3079  -14.8612 O   0  0  0  0  0  0  0  0  0  0  0  0
   21.2922  -20.3497  -12.4292 O   0  0  0  0  0  0  0  0  0  0  0  0
  2  1  1  6
  2  3  1  0
  4  2  1  0
  4  5  2  0
  6  4  1  0
  7  6  1  0
  7  8  1  1
  9  8  1  0
  9 10  2  0
 11 10  1  0
 12 11  1  0
 13 12  2  0
 14 13  1  0
 15 14  2  0
 15 16  1  0
 16 17  2  0
 17 12  1  0
 17  9  1  0
 18  7  1  0
 19 18  2  0
 20 18  1  0
 21 20  1  0
 21 22  1  1
 22 23  1  0
 24 23  1  0
 24 28  1  0
 25 24  2  0
 26 21  1  0
 26 29  1  0
 27 26  2  0
M  END
$$$$
