AWE.pdb
     RDKit          3D

 29 30  0  0  1  0  0  0  0  0999 V2000
   26.1810  -16.1478  -15.4938 C   0  0  0  0  0  0  0  0  0  0  0  0
   27.2064  -17.1895  -15.0225 C   0  0  2  0  0  0  0  0  0  0  0  0
   28.0284  -17.4594  -16.1855 N   0  0  0  0  0  0  0  0  0  0  0  0
   26.4719  -18.3930  -14.6419 C   0  0  0  0  0  0  0  0  0  0  0  0
   26.1148  -19.2125  -15.5248 O   0  0  0  0  0  0  0  0  0  0  0  0
   26.1142  -18.7226  -13.2831 N   0  0  0  0  0  0  0  0  0  0  0  0
   25.4419  -19.9269  -12.9297 C   0  0  1  0  0  0  0  0  0  0  0  0
   25.7949  -20.5010  -11.6146 C   0  0  0  0  0  0  0  0  0  0  0  0
   27.2255  -20.8038  -11.4029 C   0  0  0  0  0  0  0  0  0  0  0  0
   28.2145  -21.0778  -12.3153 C   0  0  0  0  0  0  0  0  0  0  0  0
   29.3936  -21.2908  -11.6763 N   0  0  0  0  0  0  0  0  0  0  0  0
   29.1920  -21.1596  -10.3492 C   0  0  0  0  0  0  0  0  0  0  0  0
   30.0462  -21.2726   -9.2709 C   0  0  0  0  0  0  0  0  0  0  0  0
   29.6059  -21.0915   -7.9814 C   0  0  0  0  0  0  0  0  0  0  0  0
   28.2757  -20.7918   -7.7985 C   0  0  0  0  0  0  0  0  0  0  0  0
   27.4187  -20.6780   -8.8729 C   0  0  0  0  0  0  0  0  0  0  0  0
   27.8625  -20.8605  -10.1748 C   0  0  0  0  0  0  0  0  0  0  0  0
   23.9655  -19.8433  -13.0863 C   0  0  0  0  0  0  0  0  0  0  0  0
   23.2916  -18.9413  -12.4854 O   0  0  0  0  0  0  0  0  0  0  0  0
   23.2333  -20.7360  -13.8904 N   0  0  0  0  0  0  0  0  0  0  0  0
   21.7593  -20.6576  -14.0523 C   0  0  1  0  0  0  0  0  0  0  0  0
   21.3993  -21.2342  -15.3783 C   0  0  0  0  0  0  0  0  0  0  0  0
   19.9496  -21.2505  -15.6859 C   0  0  0  0  0  0  0  0  0  0  0  0
   19.5510  -21.8967  -16.9425 C   0  0  0  0  0  0  0  0  0  0  0  0
   18.3503  -21.9920  -17.3502 O   0  0  0  0  0  0  0  0  0  0  0  0
   21.1905  -21.2012  -12.8426 C   0  0  0  0  0  0  0  0  0  0  0  0
   21.7959  -22.1191  -12.2047 O   0  0  0  0  0  0  0  0  0  0  0  0
   20.5225  -22.4580  -17.7892 O   0  0  0  0  0  0  0  0  0  0  0  0
   19.9985  -20.7919  -12.2834 O   0  0  0  0  0  0  0  0  0  0  0  0
  2  1  1  6
  2  3  1  0
  4  2  1  0
  4  5  2  0
  6  4  1  0
  7  6  1  0
  7  8  1  1
  9  8  1  0
  9 10  2  0
 11 10  1  0
 12 11  1  0
 13 12  2  0
 14 13  1  0
 15 14  2  0
 15 16  1  0
 16 17  2  0
 17 12  1  0
 17  9  1  0
 18  7  1  0
 19 18  2  0
 20 18  1  0
 21 20  1  0
 21 22  1  6
 22 23  1  0
 24 23  1  0
 24 28  1  0
 25 24  2  0
 26 21  1  0
 26 29  1  0
 27 26  2  0
M  END
$$$$
