AWE.pdb
     RDKit          3D

 29 30  0  0  1  0  0  0  0  0999 V2000
   28.4579  -20.7399  -14.3093 C   0  0  0  0  0  0  0  0  0  0  0  0
   28.9669  -20.9004  -12.8692 C   0  0  2  0  0  0  0  0  0  0  0  0
   29.8241  -22.0689  -12.9025 N   0  0  0  0  0  0  0  0  0  0  0  0
   27.8093  -21.1564  -12.0164 C   0  0  0  0  0  0  0  0  0  0  0  0
   27.3435  -22.3199  -11.9279 O   0  0  0  0  0  0  0  0  0  0  0  0
   27.1388  -20.1399  -11.2419 N   0  0  0  0  0  0  0  0  0  0  0  0
   25.9925  -20.4071  -10.4406 C   0  0  1  0  0  0  0  0  0  0  0  0
   25.8718  -19.6116   -9.2012 C   0  0  0  0  0  0  0  0  0  0  0  0
   27.0774  -19.5531   -8.3490 C   0  0  0  0  0  0  0  0  0  0  0  0
   28.3176  -19.0240   -8.6089 C   0  0  0  0  0  0  0  0  0  0  0  0
   29.1287  -19.1837   -7.5316 N   0  0  0  0  0  0  0  0  0  0  0  0
   28.4347  -19.8136   -6.5618 C   0  0  0  0  0  0  0  0  0  0  0  0
   28.7839  -20.2103   -5.2867 C   0  0  0  0  0  0  0  0  0  0  0  0
   27.8899  -20.8493   -4.4611 C   0  0  0  0  0  0  0  0  0  0  0  0
   26.6255  -21.0830   -4.9504 C   0  0  0  0  0  0  0  0  0  0  0  0
   26.2722  -20.6885   -6.2237 C   0  0  0  0  0  0  0  0  0  0  0  0
   27.1742  -20.0433   -7.0576 C   0  0  0  0  0  0  0  0  0  0  0  0
   24.7193  -20.3784  -11.2084 C   0  0  0  0  0  0  0  0  0  0  0  0
   24.6091  -19.6800  -12.2709 O   0  0  0  0  0  0  0  0  0  0  0  0
   23.5788  -21.1045  -10.8191 N   0  0  0  0  0  0  0  0  0  0  0  0
   22.3104  -21.0954  -11.5911 C   0  0  1  0  0  0  0  0  0  0  0  0
   21.4720  -22.2392  -11.1339 C   0  0  0  0  0  0  0  0  0  0  0  0
   20.1795  -22.3959  -11.8420 C   0  0  0  0  0  0  0  0  0  0  0  0
   19.3697  -23.5665  -11.4818 C   0  0  0  0  0  0  0  0  0  0  0  0
   18.8116  -24.3386  -12.3241 O   0  0  0  0  0  0  0  0  0  0  0  0
   21.8037  -19.7461  -11.5197 C   0  0  0  0  0  0  0  0  0  0  0  0
   21.1344  -19.2599  -12.4848 O   0  0  0  0  0  0  0  0  0  0  0  0
   19.1721  -23.9021  -10.1313 O   0  0  0  0  0  0  0  0  0  0  0  0
   21.9794  -18.8978  -10.4470 O   0  0  0  0  0  0  0  0  0  0  0  0
  2  1  1  6
  2  3  1  0
  4  2  1  0
  4  5  2  0
  6  4  1  0
  7  6  1  0
  7  8  1  1
  9  8  1  0
  9 10  2  0
 11 10  1  0
 12 11  1  0
 13 12  2  0
 14 13  1  0
 15 14  2  0
 15 16  1  0
 16 17  2  0
 17 12  1  0
 17  9  1  0
 18  7  1  0
 19 18  2  0
 20 18  1  0
 21 20  1  0
 21 22  1  1
 22 23  1  0
 24 23  1  0
 24 28  1  0
 25 24  2  0
 26 21  1  0
 26 29  1  0
 27 26  2  0
M  END
$$$$
