AWE.pdb
     RDKit          3D

 29 30  0  0  1  0  0  0  0  0999 V2000
   14.8659  -21.2900    3.9636 C   0  0  0  0  0  0  0  0  0  0  0  0
   15.1868  -19.9249    3.3371 C   0  0  2  0  0  0  0  0  0  0  0  0
   15.6804  -20.2288    2.0085 N   0  0  0  0  0  0  0  0  0  0  0  0
   16.2458  -19.3105    4.1332 C   0  0  0  0  0  0  0  0  0  0  0  0
   17.4337  -19.6966    3.9973 O   0  0  0  0  0  0  0  0  0  0  0  0
   16.0230  -18.2581    5.0953 N   0  0  0  0  0  0  0  0  0  0  0  0
   17.0803  -17.6206    5.8045 C   0  0  1  0  0  0  0  0  0  0  0  0
   17.0819  -16.1433    5.7699 C   0  0  0  0  0  0  0  0  0  0  0  0
   17.5330  -15.5256    4.5057 C   0  0  0  0  0  0  0  0  0  0  0  0
   17.4318  -15.9819    3.2146 C   0  0  0  0  0  0  0  0  0  0  0  0
   17.9775  -15.0816    2.3568 N   0  0  0  0  0  0  0  0  0  0  0  0
   18.4382  -14.0340    3.0705 C   0  0  0  0  0  0  0  0  0  0  0  0
   19.0702  -12.8667    2.6922 C   0  0  0  0  0  0  0  0  0  0  0  0
   19.4551  -11.9243    3.6157 C   0  0  0  0  0  0  0  0  0  0  0  0
   19.1883  -12.1840    4.9402 C   0  0  0  0  0  0  0  0  0  0  0  0
   18.5572  -13.3489    5.3227 C   0  0  0  0  0  0  0  0  0  0  0  0
   18.1682  -14.3005    4.3909 C   0  0  0  0  0  0  0  0  0  0  0  0
   17.2325  -18.1127    7.1995 C   0  0  0  0  0  0  0  0  0  0  0  0
   16.2110  -18.3618    7.9229 O   0  0  0  0  0  0  0  0  0  0  0  0
   18.4873  -18.3298    7.7977 N   0  0  0  0  0  0  0  0  0  0  0  0
   18.6474  -18.7714    9.2064 C   0  0  1  0  0  0  0  0  0  0  0  0
   19.9473  -19.4893    9.3306 C   0  0  0  0  0  0  0  0  0  0  0  0
   19.9857  -20.8351    8.7111 C   0  0  0  0  0  0  0  0  0  0  0  0
   19.8395  -21.9809    9.6173 C   0  0  0  0  0  0  0  0  0  0  0  0
   20.6524  -22.2624   10.5538 O   0  0  0  0  0  0  0  0  0  0  0  0
   18.3718  -17.6161   10.0258 C   0  0  0  0  0  0  0  0  0  0  0  0
   18.4775  -16.4456    9.5415 O   0  0  0  0  0  0  0  0  0  0  0  0
   18.7438  -22.8516    9.4867 O   0  0  0  0  0  0  0  0  0  0  0  0
   17.9775  -17.6668   11.3462 O   0  0  0  0  0  0  0  0  0  0  0  0
  2  1  1  1
  2  3  1  0
  4  2  1  0
  4  5  2  0
  6  4  1  0
  7  6  1  0
  7  8  1  1
  9  8  1  0
  9 10  2  0
 11 10  1  0
 12 11  1  0
 13 12  2  0
 14 13  1  0
 15 14  2  0
 15 16  1  0
 16 17  2  0
 17 12  1  0
 17  9  1  0
 18  7  1  0
 19 18  2  0
 20 18  1  0
 21 20  1  0
 21 22  1  6
 22 23  1  0
 24 23  1  0
 24 28  1  0
 25 24  2  0
 26 21  1  0
 26 29  1  0
 27 26  2  0
M  END
$$$$
