AWE.pdb
     RDKit          3D

 29 30  0  0  1  0  0  0  0  0999 V2000
   27.4826  -19.8305  -15.4299 C   0  0  0  0  0  0  0  0  0  0  0  0
   28.2651  -20.9149  -14.6746 C   0  0  2  0  0  0  0  0  0  0  0  0
   28.1893  -22.0898  -15.5202 N   0  0  0  0  0  0  0  0  0  0  0  0
   27.5719  -21.1637  -13.4134 C   0  0  0  0  0  0  0  0  0  0  0  0
   26.5197  -21.8502  -13.4037 O   0  0  0  0  0  0  0  0  0  0  0  0
   28.0199  -20.6642  -12.1357 N   0  0  0  0  0  0  0  0  0  0  0  0
   27.2526  -20.7896  -10.9430 C   0  0  1  0  0  0  0  0  0  0  0  0
   27.9394  -20.4103   -9.6908 C   0  0  0  0  0  0  0  0  0  0  0  0
   27.1274  -20.4843   -8.4586 C   0  0  0  0  0  0  0  0  0  0  0  0
   25.8344  -20.9094   -8.2774 C   0  0  0  0  0  0  0  0  0  0  0  0
   25.4902  -20.8134   -6.9673 N   0  0  0  0  0  0  0  0  0  0  0  0
   26.5454  -20.3286   -6.2812 C   0  0  0  0  0  0  0  0  0  0  0  0
   26.7233  -20.0449   -4.9422 C   0  0  0  0  0  0  0  0  0  0  0  0
   27.9121  -19.5482   -4.4631 C   0  0  0  0  0  0  0  0  0  0  0  0
   28.9271  -19.3409   -5.3684 C   0  0  0  0  0  0  0  0  0  0  0  0
   28.7536  -19.6229   -6.7071 C   0  0  0  0  0  0  0  0  0  0  0  0
   27.5540  -20.1245   -7.1913 C   0  0  0  0  0  0  0  0  0  0  0  0
   25.9204  -20.1345  -11.0298 C   0  0  0  0  0  0  0  0  0  0  0  0
   25.8187  -18.8738  -11.2006 O   0  0  0  0  0  0  0  0  0  0  0  0
   24.7125  -20.8491  -10.9304 N   0  0  0  0  0  0  0  0  0  0  0  0
   23.4495  -20.3974  -11.5674 C   0  0  1  0  0  0  0  0  0  0  0  0
   23.4465  -20.8555  -12.9853 C   0  0  0  0  0  0  0  0  0  0  0  0
   22.2109  -20.5488  -13.7442 C   0  0  0  0  0  0  0  0  0  0  0  0
   22.3845  -20.1113  -15.1348 C   0  0  0  0  0  0  0  0  0  0  0  0
   23.4879  -20.1495  -15.7658 O   0  0  0  0  0  0  0  0  0  0  0  0
   22.3850  -20.7855  -10.6739 C   0  0  0  0  0  0  0  0  0  0  0  0
   21.4194  -19.9917  -10.4428 O   0  0  0  0  0  0  0  0  0  0  0  0
   21.2895  -19.6144  -15.8626 O   0  0  0  0  0  0  0  0  0  0  0  0
   22.3103  -21.9988  -10.0230 O   0  0  0  0  0  0  0  0  0  0  0  0
  2  1  1  6
  2  3  1  0
  4  2  1  0
  4  5  2  0
  6  4  1  0
  7  6  1  0
  7  8  1  1
  9  8  1  0
  9 10  2  0
 11 10  1  0
 12 11  1  0
 13 12  2  0
 14 13  1  0
 15 14  2  0
 15 16  1  0
 16 17  2  0
 17 12  1  0
 17  9  1  0
 18  7  1  0
 19 18  2  0
 20 18  1  0
 21 20  1  0
 21 22  1  6
 22 23  1  0
 24 23  1  0
 24 28  1  0
 25 24  2  0
 26 21  1  0
 26 29  1  0
 27 26  2  0
M  END
$$$$
