AWE.pdb
     RDKit          3D

 29 30  0  0  1  0  0  0  0  0999 V2000
   30.8806  -21.0749  -10.5023 C   0  0  0  0  0  0  0  0  0  0  0  0
   29.6868  -20.5628  -11.3216 C   0  0  2  0  0  0  0  0  0  0  0  0
   29.7456  -19.1189  -11.2078 N   0  0  0  0  0  0  0  0  0  0  0  0
   28.4689  -21.0628  -10.6895 C   0  0  0  0  0  0  0  0  0  0  0  0
   28.2640  -22.3004  -10.6197 O   0  0  0  0  0  0  0  0  0  0  0  0
   27.4501  -20.2141  -10.1197 N   0  0  0  0  0  0  0  0  0  0  0  0
   26.1830  -20.7042   -9.6940 C   0  0  1  0  0  0  0  0  0  0  0  0
   25.7267  -20.2454   -8.3654 C   0  0  0  0  0  0  0  0  0  0  0  0
   26.7604  -19.6444   -7.4975 C   0  0  0  0  0  0  0  0  0  0  0  0
   27.3632  -18.4125   -7.5653 C   0  0  0  0  0  0  0  0  0  0  0  0
   28.2575  -18.2736   -6.5528 N   0  0  0  0  0  0  0  0  0  0  0  0
   28.2502  -19.4034   -5.8163 C   0  0  0  0  0  0  0  0  0  0  0  0
   28.9598  -19.7766   -4.6927 C   0  0  0  0  0  0  0  0  0  0  0  0
   28.7803  -21.0050   -4.1026 C   0  0  0  0  0  0  0  0  0  0  0  0
   27.8634  -21.8577   -4.6726 C   0  0  0  0  0  0  0  0  0  0  0  0
   27.1523  -21.4891   -5.7952 C   0  0  0  0  0  0  0  0  0  0  0  0
   27.3329  -20.2492   -6.3912 C   0  0  0  0  0  0  0  0  0  0  0  0
   25.1112  -20.5215  -10.7085 C   0  0  0  0  0  0  0  0  0  0  0  0
   24.8706  -19.3727  -11.2098 O   0  0  0  0  0  0  0  0  0  0  0  0
   24.3107  -21.5825  -11.1700 N   0  0  0  0  0  0  0  0  0  0  0  0
   23.3319  -21.4365  -12.2771 C   0  0  1  0  0  0  0  0  0  0  0  0
   23.4929  -22.5919  -13.2043 C   0  0  0  0  0  0  0  0  0  0  0  0
   24.7554  -22.6060  -13.9804 C   0  0  0  0  0  0  0  0  0  0  0  0
   24.9240  -23.7023  -14.9423 C   0  0  0  0  0  0  0  0  0  0  0  0
   24.0977  -24.6570  -15.0931 O   0  0  0  0  0  0  0  0  0  0  0  0
   22.0563  -21.1725  -11.6564 C   0  0  0  0  0  0  0  0  0  0  0  0
   21.8985  -21.3592  -10.4090 O   0  0  0  0  0  0  0  0  0  0  0  0
   26.0531  -23.7430  -15.7786 O   0  0  0  0  0  0  0  0  0  0  0  0
   20.9419  -20.7063  -12.3212 O   0  0  0  0  0  0  0  0  0  0  0  0
  2  1  1  1
  2  3  1  0
  4  2  1  0
  4  5  2  0
  6  4  1  0
  7  6  1  0
  7  8  1  1
  9  8  1  0
  9 10  2  0
 11 10  1  0
 12 11  1  0
 13 12  2  0
 14 13  1  0
 15 14  2  0
 15 16  1  0
 16 17  2  0
 17 12  1  0
 17  9  1  0
 18  7  1  0
 19 18  2  0
 20 18  1  0
 21 20  1  0
 21 22  1  1
 22 23  1  0
 24 23  1  0
 24 28  1  0
 25 24  2  0
 26 21  1  0
 26 29  1  0
 27 26  2  0
M  END
$$$$
