AWE.pdb
     RDKit          3D

 29 30  0  0  1  0  0  0  0  0999 V2000
   29.5658  -20.7666  -14.6884 C   0  0  0  0  0  0  0  0  0  0  0  0
   28.3898  -19.8846  -14.2433 C   0  0  2  0  0  0  0  0  0  0  0  0
   28.9642  -18.9378  -13.3080 N   0  0  0  0  0  0  0  0  0  0  0  0
   27.4284  -20.7426  -13.5558 C   0  0  0  0  0  0  0  0  0  0  0  0
   26.8273  -21.6432  -14.1931 O   0  0  0  0  0  0  0  0  0  0  0  0
   27.1070  -20.6300  -12.1534 N   0  0  0  0  0  0  0  0  0  0  0  0
   26.0989  -21.4146  -11.5246 C   0  0  1  0  0  0  0  0  0  0  0  0
   26.3284  -21.7404  -10.1017 C   0  0  0  0  0  0  0  0  0  0  0  0
   26.5166  -20.5885   -9.1956 C   0  0  0  0  0  0  0  0  0  0  0  0
   25.8454  -19.3920   -9.1374 C   0  0  0  0  0  0  0  0  0  0  0  0
   26.3472  -18.6230   -8.1370 N   0  0  0  0  0  0  0  0  0  0  0  0
   27.3442  -19.3018   -7.5333 C   0  0  0  0  0  0  0  0  0  0  0  0
   28.1713  -18.9796   -6.4763 C   0  0  0  0  0  0  0  0  0  0  0  0
   29.1354  -19.8493   -6.0252 C   0  0  0  0  0  0  0  0  0  0  0  0
   29.2508  -21.0610   -6.6666 C   0  0  0  0  0  0  0  0  0  0  0  0
   28.4268  -21.3870   -7.7232 C   0  0  0  0  0  0  0  0  0  0  0  0
   27.4532  -20.5096   -8.1788 C   0  0  0  0  0  0  0  0  0  0  0  0
   24.7265  -20.8782  -11.7252 C   0  0  0  0  0  0  0  0  0  0  0  0
   24.4904  -19.6275  -11.6320 O   0  0  0  0  0  0  0  0  0  0  0  0
   23.6240  -21.6997  -12.0238 N   0  0  0  0  0  0  0  0  0  0  0  0
   22.3242  -21.1673  -12.5056 C   0  0  1  0  0  0  0  0  0  0  0  0
   21.7769  -22.1087  -13.5227 C   0  0  0  0  0  0  0  0  0  0  0  0
   20.4240  -21.7746  -14.0273 C   0  0  0  0  0  0  0  0  0  0  0  0
   19.7749  -22.7763  -14.8822 C   0  0  0  0  0  0  0  0  0  0  0  0
   20.3735  -23.4475  -15.7812 O   0  0  0  0  0  0  0  0  0  0  0  0
   21.5584  -20.8427  -11.3264 C   0  0  0  0  0  0  0  0  0  0  0  0
   21.6948  -21.5271  -10.2639 O   0  0  0  0  0  0  0  0  0  0  0  0
   18.4047  -23.0527  -14.7339 O   0  0  0  0  0  0  0  0  0  0  0  0
   20.6556  -19.8042  -11.2385 O   0  0  0  0  0  0  0  0  0  0  0  0
  2  1  1  1
  2  3  1  0
  4  2  1  0
  4  5  2  0
  6  4  1  0
  7  6  1  0
  7  8  1  1
  9  8  1  0
  9 10  2  0
 11 10  1  0
 12 11  1  0
 13 12  2  0
 14 13  1  0
 15 14  2  0
 15 16  1  0
 16 17  2  0
 17 12  1  0
 17  9  1  0
 18  7  1  0
 19 18  2  0
 20 18  1  0
 21 20  1  0
 21 22  1  1
 22 23  1  0
 24 23  1  0
 24 28  1  0
 25 24  2  0
 26 21  1  0
 26 29  1  0
 27 26  2  0
M  END
$$$$
