QWQ.pdb
     RDKit          3D

 33 34  0  0  1  0  0  0  0  0999 V2000
   25.9921  -25.9146  -16.2822 N   0  0  0  0  0  0  0  0  0  0  0  0
   26.8924  -25.1897  -17.1371 C   0  0  0  0  0  0  0  0  0  0  0  0
   27.7604  -25.8219  -17.7832 O   0  0  0  0  0  0  0  0  0  0  0  0
   26.7531  -23.7288  -17.2198 C   0  0  0  0  0  0  0  0  0  0  0  0
   25.6203  -23.1163  -16.4829 C   0  0  0  0  0  0  0  0  0  0  0  0
   25.5554  -21.6298  -16.4533 C   0  0  2  0  0  0  0  0  0  0  0  0
   26.7666  -20.9735  -16.0893 N   0  0  0  0  0  0  0  0  0  0  0  0
   24.4726  -21.1758  -15.5254 C   0  0  0  0  0  0  0  0  0  0  0  0
   24.2455  -21.7753  -14.4392 O   0  0  0  0  0  0  0  0  0  0  0  0
   23.6763  -20.0656  -15.8359 N   0  0  0  0  0  0  0  0  0  0  0  0
   22.5615  -19.6095  -14.9804 C   0  0  1  0  0  0  0  0  0  0  0  0
   22.4549  -18.1348  -15.0015 C   0  0  0  0  0  0  0  0  0  0  0  0
   21.4199  -17.6240  -14.0932 C   0  0  0  0  0  0  0  0  0  0  0  0
   21.0716  -18.1182  -12.8273 C   0  0  0  0  0  0  0  0  0  0  0  0
   20.0656  -17.4439  -12.2986 N   0  0  0  0  0  0  0  0  0  0  0  0
   19.7032  -16.4854  -13.1717 C   0  0  0  0  0  0  0  0  0  0  0  0
   18.7484  -15.5013  -13.1359 C   0  0  0  0  0  0  0  0  0  0  0  0
   18.5857  -14.6012  -14.1769 C   0  0  0  0  0  0  0  0  0  0  0  0
   19.3943  -14.6749  -15.2925 C   0  0  0  0  0  0  0  0  0  0  0  0
   20.3423  -15.6665  -15.3092 C   0  0  0  0  0  0  0  0  0  0  0  0
   20.5287  -16.5833  -14.2827 C   0  0  0  0  0  0  0  0  0  0  0  0
   21.3253  -20.3319  -15.2768 C   0  0  0  0  0  0  0  0  0  0  0  0
   20.9434  -20.5991  -16.4590 O   0  0  0  0  0  0  0  0  0  0  0  0
   19.5755  -25.5759  -13.8090 N   0  0  0  0  0  0  0  0  0  0  0  0
   18.2271  -25.0473  -13.8686 C   0  0  0  0  0  0  0  0  0  0  0  0
   17.3155  -25.8656  -14.0593 O   0  0  0  0  0  0  0  0  0  0  0  0
   18.0016  -23.6264  -13.7127 C   0  0  0  0  0  0  0  0  0  0  0  0
   19.1603  -22.7103  -13.6321 C   0  0  0  0  0  0  0  0  0  0  0  0
   19.2170  -21.5906  -14.6189 C   0  0  2  0  0  0  0  0  0  0  0  0
   20.4312  -20.8050  -14.2653 N   0  0  0  0  0  0  0  0  0  0  0  0
   18.1187  -20.6301  -14.5807 C   0  0  0  0  0  0  0  0  0  0  0  0
   16.9649  -20.7893  -15.3112 O   0  0  0  0  0  0  0  0  0  0  0  0
   18.2204  -19.5971  -13.8445 O   0  0  0  0  0  0  0  0  0  0  0  0
  1  2  1  0
  2  4  1  0
  2  3  2  0
  4  5  1  0
  5  6  1  0
  6  7  1  1
  6  8  1  0
  8 10  1  0
  8  9  2  0
 10 11  1  0
 11 22  1  0
 11 12  1  6
 12 13  1  0
 13 14  2  0
 13 21  1  0
 14 15  1  0
 15 16  1  0
 16 17  2  0
 17 18  1  0
 19 18  2  0
 20 19  1  0
 21 20  2  0
 21 16  1  0
 22 23  2  0
 24 25  1  0
 25 27  1  0
 26 25  2  0
 27 28  1  0
 29 31  1  0
 29 28  1  1
 30 22  1  0
 30 29  1  0
 31 32  1  0
 33 31  2  0
M  END
$$$$
