QWQ.pdb
     RDKit          3D

 33 34  0  0  1  0  0  0  0  0999 V2000
   28.5694  -17.8226  -15.6164 N   0  0  0  0  0  0  0  0  0  0  0  0
   28.3900  -18.6282  -16.7935 C   0  0  0  0  0  0  0  0  0  0  0  0
   29.0310  -18.3411  -17.8314 O   0  0  0  0  0  0  0  0  0  0  0  0
   27.4589  -19.7635  -16.7278 C   0  0  0  0  0  0  0  0  0  0  0  0
   26.8593  -20.0688  -15.4053 C   0  0  0  0  0  0  0  0  0  0  0  0
   27.7711  -20.5931  -14.3525 C   0  0  2  0  0  0  0  0  0  0  0  0
   28.5534  -21.7226  -14.7301 N   0  0  0  0  0  0  0  0  0  0  0  0
   26.9955  -20.9436  -13.1215 C   0  0  0  0  0  0  0  0  0  0  0  0
   25.7791  -21.2712  -13.1838 O   0  0  0  0  0  0  0  0  0  0  0  0
   27.6002  -20.9197  -11.8578 N   0  0  0  0  0  0  0  0  0  0  0  0
   26.8325  -20.9725  -10.5966 C   0  0  1  0  0  0  0  0  0  0  0  0
   27.7085  -20.6923   -9.4386 C   0  0  0  0  0  0  0  0  0  0  0  0
   26.9716  -20.6160   -8.1704 C   0  0  0  0  0  0  0  0  0  0  0  0
   25.6308  -20.9564   -7.9371 C   0  0  0  0  0  0  0  0  0  0  0  0
   25.2784  -20.7263   -6.6845 N   0  0  0  0  0  0  0  0  0  0  0  0
   26.3491  -20.2313   -6.0356 C   0  0  0  0  0  0  0  0  0  0  0  0
   26.5570  -19.8416   -4.7371 C   0  0  0  0  0  0  0  0  0  0  0  0
   27.7877  -19.3780   -4.3002 C   0  0  0  0  0  0  0  0  0  0  0  0
   28.8507  -19.2962   -5.1761 C   0  0  0  0  0  0  0  0  0  0  0  0
   28.6219  -19.6897   -6.4703 C   0  0  0  0  0  0  0  0  0  0  0  0
   27.4007  -20.1575   -6.9380 C   0  0  0  0  0  0  0  0  0  0  0  0
   25.6162  -20.1647  -10.6727 C   0  0  0  0  0  0  0  0  0  0  0  0
   25.6196  -18.9310  -10.9775 O   0  0  0  0  0  0  0  0  0  0  0  0
   23.5632  -19.8507  -15.3294 N   0  0  0  0  0  0  0  0  0  0  0  0
   22.2986  -19.4974  -14.7153 C   0  0  0  0  0  0  0  0  0  0  0  0
   21.3810  -19.1657  -15.4800 O   0  0  0  0  0  0  0  0  0  0  0  0
   22.1592  -19.5390  -13.2755 C   0  0  0  0  0  0  0  0  0  0  0  0
   23.2951  -19.9999  -12.4475 C   0  0  0  0  0  0  0  0  0  0  0  0
   23.0948  -20.0303  -10.9677 C   0  0  2  0  0  0  0  0  0  0  0  0
   24.3101  -20.6866  -10.4118 N   0  0  0  0  0  0  0  0  0  0  0  0
   21.9747  -20.8266  -10.4764 C   0  0  0  0  0  0  0  0  0  0  0  0
   20.7573  -20.2772  -10.1502 O   0  0  0  0  0  0  0  0  0  0  0  0
   22.1173  -22.0838  -10.3393 O   0  0  0  0  0  0  0  0  0  0  0  0
  1  2  1  0
  2  4  1  0
  2  3  2  0
  4  5  1  0
  5  6  1  0
  6  7  1  6
  6  8  1  0
  8 10  1  0
  8  9  2  0
 10 11  1  0
 11 22  1  0
 11 12  1  1
 12 13  1  0
 13 14  2  0
 13 21  1  0
 14 15  1  0
 15 16  1  0
 16 17  2  0
 17 18  1  0
 19 18  2  0
 20 19  1  0
 21 20  2  0
 21 16  1  0
 22 23  2  0
 24 25  1  0
 25 27  1  0
 26 25  2  0
 27 28  1  0
 29 31  1  0
 29 28  1  6
 30 22  1  0
 30 29  1  0
 31 32  1  0
 33 31  2  0
M  END
$$$$
