QWQ.pdb
     RDKit          3D

 33 34  0  0  1  0  0  0  0  0999 V2000
   20.2217  -16.5621  -15.5957 N   0  0  0  0  0  0  0  0  0  0  0  0
   18.8159  -16.4360  -15.8689 C   0  0  0  0  0  0  0  0  0  0  0  0
   18.0384  -17.3439  -15.4921 O   0  0  0  0  0  0  0  0  0  0  0  0
   18.3472  -15.2382  -16.5802 C   0  0  0  0  0  0  0  0  0  0  0  0
   19.3654  -14.2140  -16.9205 C   0  0  0  0  0  0  0  0  0  0  0  0
   19.6190  -13.9643  -18.3656 C   0  0  2  0  0  0  0  0  0  0  0  0
   20.3249  -14.9968  -19.0483 N   0  0  0  0  0  0  0  0  0  0  0  0
   20.3650  -12.6798  -18.5473 C   0  0  0  0  0  0  0  0  0  0  0  0
   21.5213  -12.5195  -18.0698 O   0  0  0  0  0  0  0  0  0  0  0  0
   19.7995  -11.6126  -19.2576 N   0  0  0  0  0  0  0  0  0  0  0  0
   20.5136  -10.3438  -19.5084 C   0  0  1  0  0  0  0  0  0  0  0  0
   20.3662   -9.9305  -20.9206 C   0  0  0  0  0  0  0  0  0  0  0  0
   21.1617  -10.7522  -21.8421 C   0  0  0  0  0  0  0  0  0  0  0  0
   21.2692  -12.1507  -21.8674 C   0  0  0  0  0  0  0  0  0  0  0  0
   22.1055  -12.5603  -22.8050 N   0  0  0  0  0  0  0  0  0  0  0  0
   22.5855  -11.4732  -23.4376 C   0  0  0  0  0  0  0  0  0  0  0  0
   23.4558  -11.3098  -24.4850 C   0  0  0  0  0  0  0  0  0  0  0  0
   23.7786  -10.0562  -24.9797 C   0  0  0  0  0  0  0  0  0  0  0  0
   23.2224   -8.9239  -24.4208 C   0  0  0  0  0  0  0  0  0  0  0  0
   22.3552   -9.1087  -23.3739 C   0  0  0  0  0  0  0  0  0  0  0  0
   22.0131  -10.3510  -22.8557 C   0  0  0  0  0  0  0  0  0  0  0  0
   20.1667   -9.3259  -18.5177 C   0  0  0  0  0  0  0  0  0  0  0  0
   18.9682   -9.0141  -18.2326 O   0  0  0  0  0  0  0  0  0  0  0  0
   22.2717   -9.3791  -12.9463 N   0  0  0  0  0  0  0  0  0  0  0  0
   21.5903   -8.0998  -12.9336 C   0  0  0  0  0  0  0  0  0  0  0  0
   21.4948   -7.5299  -11.8368 O   0  0  0  0  0  0  0  0  0  0  0  0
   21.0584   -7.5534  -14.1636 C   0  0  0  0  0  0  0  0  0  0  0  0
   21.1691   -8.3348  -15.4147 C   0  0  0  0  0  0  0  0  0  0  0  0
   20.7388   -7.6663  -16.6791 C   0  0  2  0  0  0  0  0  0  0  0  0
   21.1425   -8.5870  -17.7773 N   0  0  0  0  0  0  0  0  0  0  0  0
   21.3792   -6.3936  -16.9957 C   0  0  0  0  0  0  0  0  0  0  0  0
   20.7705   -5.1799  -16.7797 O   0  0  0  0  0  0  0  0  0  0  0  0
   22.5504   -6.3928  -17.4935 O   0  0  0  0  0  0  0  0  0  0  0  0
  1  2  1  0
  2  4  1  0
  2  3  2  0
  4  5  1  0
  5  6  1  0
  6  7  1  1
  6  8  1  0
  8 10  1  0
  8  9  2  0
 10 11  1  0
 11 22  1  0
 11 12  1  6
 12 13  1  0
 13 14  2  0
 13 21  1  0
 14 15  1  0
 15 16  1  0
 16 17  2  0
 17 18  1  0
 19 18  2  0
 20 19  1  0
 21 20  2  0
 21 16  1  0
 22 23  2  0
 24 25  1  0
 25 27  1  0
 26 25  2  0
 27 28  1  0
 29 31  1  0
 29 28  1  1
 30 22  1  0
 30 29  1  0
 31 32  1  0
 33 31  2  0
M  END
$$$$
