QWQ.pdb
     RDKit          3D

 33 34  0  0  1  0  0  0  0  0999 V2000
   12.3330  -25.1929   -4.0291 N   0  0  0  0  0  0  0  0  0  0  0  0
   12.8826  -25.9984   -5.0855 C   0  0  0  0  0  0  0  0  0  0  0  0
   12.1904  -26.2180   -6.1069 O   0  0  0  0  0  0  0  0  0  0  0  0
   14.2430  -26.5305   -4.9227 C   0  0  0  0  0  0  0  0  0  0  0  0
   14.9745  -26.1469   -3.6901 C   0  0  0  0  0  0  0  0  0  0  0  0
   15.5208  -24.7639   -3.6288 C   0  0  2  0  0  0  0  0  0  0  0  0
   16.8994  -24.6370   -3.9662 N   0  0  0  0  0  0  0  0  0  0  0  0
   15.3107  -24.1827   -2.2659 C   0  0  0  0  0  0  0  0  0  0  0  0
   16.1665  -24.3296   -1.3511 O   0  0  0  0  0  0  0  0  0  0  0  0
   14.1529  -23.4536   -1.9642 N   0  0  0  0  0  0  0  0  0  0  0  0
   13.9562  -22.7495   -0.6803 C   0  0  1  0  0  0  0  0  0  0  0  0
   13.9976  -21.2842   -0.8753 C   0  0  0  0  0  0  0  0  0  0  0  0
   14.9932  -20.6225   -0.0220 C   0  0  0  0  0  0  0  0  0  0  0  0
   16.3747  -20.8619    0.0259 C   0  0  0  0  0  0  0  0  0  0  0  0
   16.9694  -20.1149    0.9394 N   0  0  0  0  0  0  0  0  0  0  0  0
   16.0288  -19.3556    1.5321 C   0  0  0  0  0  0  0  0  0  0  0  0
   16.0814  -18.4019    2.5164 C   0  0  0  0  0  0  0  0  0  0  0  0
   14.9482  -17.7294    2.9454 C   0  0  0  0  0  0  0  0  0  0  0  0
   13.7196  -18.0082    2.3826 C   0  0  0  0  0  0  0  0  0  0  0  0
   13.6882  -18.9656    1.4005 C   0  0  0  0  0  0  0  0  0  0  0  0
   14.8056  -19.6568    0.9503 C   0  0  0  0  0  0  0  0  0  0  0  0
   12.7859  -23.2540    0.0364 C   0  0  0  0  0  0  0  0  0  0  0  0
   11.6845  -23.5257   -0.5364 O   0  0  0  0  0  0  0  0  0  0  0  0
   12.7881  -25.8213    5.9192 N   0  0  0  0  0  0  0  0  0  0  0  0
   11.3841  -25.7553    5.5648 C   0  0  0  0  0  0  0  0  0  0  0  0
   10.5843  -26.2746    6.3570 O   0  0  0  0  0  0  0  0  0  0  0  0
   10.9801  -25.1093    4.3346 C   0  0  0  0  0  0  0  0  0  0  0  0
   12.0130  -24.5834    3.4155 C   0  0  0  0  0  0  0  0  0  0  0  0
   11.5439  -23.9812    2.1318 C   0  0  2  0  0  0  0  0  0  0  0  0
   12.7711  -23.4889    1.4474 N   0  0  0  0  0  0  0  0  0  0  0  0
   10.6738  -22.8142    2.2373 C   0  0  0  0  0  0  0  0  0  0  0  0
    9.3024  -22.9084    2.2657 O   0  0  0  0  0  0  0  0  0  0  0  0
   11.1932  -21.6545    2.3066 O   0  0  0  0  0  0  0  0  0  0  0  0
  1  2  1  0
  2  4  1  0
  2  3  2  0
  4  5  1  0
  5  6  1  0
  6  7  1  1
  6  8  1  0
  8 10  1  0
  8  9  2  0
 10 11  1  0
 11 22  1  0
 11 12  1  6
 12 13  1  0
 13 14  2  0
 13 21  1  0
 14 15  1  0
 15 16  1  0
 16 17  2  0
 17 18  1  0
 19 18  2  0
 20 19  1  0
 21 20  2  0
 21 16  1  0
 22 23  2  0
 24 25  1  0
 25 27  1  0
 26 25  2  0
 27 28  1  0
 29 31  1  0
 29 28  1  1
 30 22  1  0
 30 29  1  0
 31 32  1  0
 33 31  2  0
M  END
$$$$
