QWQ.pdb
     RDKit          3D

 33 34  0  0  1  0  0  0  0  0999 V2000
   29.7634  -25.6556  -17.4524 N   0  0  0  0  0  0  0  0  0  0  0  0
   30.3263  -24.3916  -17.0622 C   0  0  0  0  0  0  0  0  0  0  0  0
   31.2577  -24.3727  -16.2238 O   0  0  0  0  0  0  0  0  0  0  0  0
   29.7843  -23.1680  -17.6698 C   0  0  0  0  0  0  0  0  0  0  0  0
   28.9386  -22.3047  -16.8089 C   0  0  0  0  0  0  0  0  0  0  0  0
   27.4975  -22.6599  -16.7001 C   0  0  2  0  0  0  0  0  0  0  0  0
   26.7453  -22.5326  -17.9036 N   0  0  0  0  0  0  0  0  0  0  0  0
   26.8383  -21.8352  -15.6394 C   0  0  0  0  0  0  0  0  0  0  0  0
   27.4430  -21.5299  -14.5755 O   0  0  0  0  0  0  0  0  0  0  0  0
   25.5247  -21.3743  -15.7977 N   0  0  0  0  0  0  0  0  0  0  0  0
   24.8473  -20.5156  -14.8044 C   0  0  1  0  0  0  0  0  0  0  0  0
   25.6447  -19.3004  -14.5326 C   0  0  0  0  0  0  0  0  0  0  0  0
   25.8670  -18.4830  -15.7324 C   0  0  0  0  0  0  0  0  0  0  0  0
   24.8985  -17.8998  -16.5630 C   0  0  0  0  0  0  0  0  0  0  0  0
   25.4475  -17.2617  -17.5816 N   0  0  0  0  0  0  0  0  0  0  0  0
   26.7840  -17.3870  -17.4791 C   0  0  0  0  0  0  0  0  0  0  0  0
   27.8273  -16.9178  -18.2358 C   0  0  0  0  0  0  0  0  0  0  0  0
   29.1476  -17.1701  -17.8985 C   0  0  0  0  0  0  0  0  0  0  0  0
   29.4485  -17.9116  -16.7744 C   0  0  0  0  0  0  0  0  0  0  0  0
   28.3909  -18.3722  -16.0317 C   0  0  0  0  0  0  0  0  0  0  0  0
   27.0583  -18.1370  -16.3443 C   0  0  0  0  0  0  0  0  0  0  0  0
   23.4486  -20.2812  -15.1603 C   0  0  0  0  0  0  0  0  0  0  0  0
   23.0778  -19.9269  -16.3230 O   0  0  0  0  0  0  0  0  0  0  0  0
   18.9553  -24.1800  -13.8415 N   0  0  0  0  0  0  0  0  0  0  0  0
   18.9542  -23.1210  -12.8517 C   0  0  0  0  0  0  0  0  0  0  0  0
   18.3292  -23.3384  -11.8034 O   0  0  0  0  0  0  0  0  0  0  0  0
   19.6575  -21.8844  -13.1173 C   0  0  0  0  0  0  0  0  0  0  0  0
   20.3788  -21.7182  -14.3980 C   0  0  0  0  0  0  0  0  0  0  0  0
   20.9519  -20.3703  -14.6904 C   0  0  2  0  0  0  0  0  0  0  0  0
   22.3681  -20.4290  -14.2346 N   0  0  0  0  0  0  0  0  0  0  0  0
   20.3679  -19.2423  -13.9715 C   0  0  0  0  0  0  0  0  0  0  0  0
   19.1567  -18.6887  -14.3130 O   0  0  0  0  0  0  0  0  0  0  0  0
   20.9959  -18.7402  -12.9851 O   0  0  0  0  0  0  0  0  0  0  0  0
  1  2  1  0
  2  4  1  0
  2  3  2  0
  4  5  1  0
  5  6  1  0
  6  7  1  6
  6  8  1  0
  8 10  1  0
  8  9  2  0
 10 11  1  0
 11 22  1  0
 11 12  1  6
 12 13  1  0
 13 14  2  0
 13 21  1  0
 14 15  1  0
 15 16  1  0
 16 17  2  0
 17 18  1  0
 19 18  2  0
 20 19  1  0
 21 20  2  0
 21 16  1  0
 22 23  2  0
 24 25  1  0
 25 27  1  0
 26 25  2  0
 27 28  1  0
 29 31  1  0
 29 28  1  1
 30 22  1  0
 30 29  1  0
 31 32  1  0
 33 31  2  0
M  END
$$$$
