QWQ.pdb
     RDKit          3D

 33 34  0  0  1  0  0  0  0  0999 V2000
   28.4501  -22.9331  -17.5920 N   0  0  0  0  0  0  0  0  0  0  0  0
   29.5480  -22.0119  -17.4792 C   0  0  0  0  0  0  0  0  0  0  0  0
   30.2659  -21.7943  -18.4832 O   0  0  0  0  0  0  0  0  0  0  0  0
   29.7809  -21.3577  -16.1838 C   0  0  0  0  0  0  0  0  0  0  0  0
   28.8322  -21.6747  -15.0877 C   0  0  0  0  0  0  0  0  0  0  0  0
   27.5261  -20.9614  -15.0943 C   0  0  2  0  0  0  0  0  0  0  0  0
   27.6032  -19.5461  -14.9475 N   0  0  0  0  0  0  0  0  0  0  0  0
   26.6343  -21.5015  -14.0208 C   0  0  0  0  0  0  0  0  0  0  0  0
   26.3780  -22.7338  -13.9393 O   0  0  0  0  0  0  0  0  0  0  0  0
   26.0561  -20.6513  -13.0690 N   0  0  0  0  0  0  0  0  0  0  0  0
   25.0955  -21.1195  -12.0487 C   0  0  1  0  0  0  0  0  0  0  0  0
   25.3795  -20.4970  -10.7378 C   0  0  0  0  0  0  0  0  0  0  0  0
   26.6769  -20.9031  -10.1819 C   0  0  0  0  0  0  0  0  0  0  0  0
   27.6881  -21.6395  -10.8169 C   0  0  0  0  0  0  0  0  0  0  0  0
   28.7105  -21.8634  -10.0102 N   0  0  0  0  0  0  0  0  0  0  0  0
   28.4337  -21.2961   -8.8210 C   0  0  0  0  0  0  0  0  0  0  0  0
   29.1334  -21.2021   -7.6451 C   0  0  0  0  0  0  0  0  0  0  0  0
   28.6285  -20.5275   -6.5449 C   0  0  0  0  0  0  0  0  0  0  0  0
   27.3891  -19.9243   -6.6078 C   0  0  0  0  0  0  0  0  0  0  0  0
   26.7051  -20.0306   -7.7923 C   0  0  0  0  0  0  0  0  0  0  0  0
   27.1838  -20.7001   -8.9110 C   0  0  0  0  0  0  0  0  0  0  0  0
   23.7147  -20.9991  -12.5141 C   0  0  0  0  0  0  0  0  0  0  0  0
   23.1849  -19.8903  -12.8377 O   0  0  0  0  0  0  0  0  0  0  0  0
   22.8503  -25.5814  -14.2528 N   0  0  0  0  0  0  0  0  0  0  0  0
   22.5535  -24.7214  -15.3812 C   0  0  0  0  0  0  0  0  0  0  0  0
   23.0357  -25.0505  -16.4748 O   0  0  0  0  0  0  0  0  0  0  0  0
   21.7340  -23.5433  -15.1946 C   0  0  0  0  0  0  0  0  0  0  0  0
   21.1466  -23.2687  -13.8651 C   0  0  0  0  0  0  0  0  0  0  0  0
   21.4714  -21.9556  -13.2318 C   0  0  2  0  0  0  0  0  0  0  0  0
   22.8319  -22.1167  -12.6490 N   0  0  0  0  0  0  0  0  0  0  0  0
   20.6267  -21.5420  -12.1157 C   0  0  0  0  0  0  0  0  0  0  0  0
   20.9668  -21.7648  -10.8023 O   0  0  0  0  0  0  0  0  0  0  0  0
   19.5260  -20.9494  -12.3541 O   0  0  0  0  0  0  0  0  0  0  0  0
  1  2  1  0
  2  4  1  0
  2  3  2  0
  4  5  1  0
  5  6  1  0
  6  7  1  1
  6  8  1  0
  8 10  1  0
  8  9  2  0
 10 11  1  0
 11 22  1  0
 11 12  1  1
 12 13  1  0
 13 14  2  0
 13 21  1  0
 14 15  1  0
 15 16  1  0
 16 17  2  0
 17 18  1  0
 19 18  2  0
 20 19  1  0
 21 20  2  0
 21 16  1  0
 22 23  2  0
 24 25  1  0
 25 27  1  0
 26 25  2  0
 27 28  1  0
 29 31  1  0
 29 28  1  1
 30 22  1  0
 30 29  1  0
 31 32  1  0
 33 31  2  0
M  END
$$$$
