QWQ.pdb
     RDKit          3D

 33 34  0  0  1  0  0  0  0  0999 V2000
   16.6187  -21.2093    0.0461 N   0  0  0  0  0  0  0  0  0  0  0  0
   15.3382  -21.6371    0.5402 C   0  0  0  0  0  0  0  0  0  0  0  0
   14.5886  -22.3055   -0.2095 O   0  0  0  0  0  0  0  0  0  0  0  0
   14.9621  -21.2729    1.9135 C   0  0  0  0  0  0  0  0  0  0  0  0
   15.9352  -20.4630    2.6873 C   0  0  0  0  0  0  0  0  0  0  0  0
   15.5929  -20.1637    4.1044 C   0  0  2  0  0  0  0  0  0  0  0  0
   14.3007  -19.6010    4.3140 N   0  0  0  0  0  0  0  0  0  0  0  0
   16.6126  -19.2457    4.7019 C   0  0  0  0  0  0  0  0  0  0  0  0
   17.8453  -19.5051    4.6397 O   0  0  0  0  0  0  0  0  0  0  0  0
   16.2270  -18.0647    5.3498 N   0  0  0  0  0  0  0  0  0  0  0  0
   17.1954  -17.1086    5.9251 C   0  0  1  0  0  0  0  0  0  0  0  0
   16.6406  -15.7379    5.9251 C   0  0  0  0  0  0  0  0  0  0  0  0
   17.6361  -14.7189    6.2826 C   0  0  0  0  0  0  0  0  0  0  0  0
   18.0169  -14.3076    7.5686 C   0  0  0  0  0  0  0  0  0  0  0  0
   18.9134  -13.3377    7.5267 N   0  0  0  0  0  0  0  0  0  0  0  0
   19.1682  -13.0627    6.2337 C   0  0  0  0  0  0  0  0  0  0  0  0
   20.0136  -12.1768    5.6157 C   0  0  0  0  0  0  0  0  0  0  0  0
   20.1127  -12.1010    4.2355 C   0  0  0  0  0  0  0  0  0  0  0  0
   19.3505  -12.9290    3.4373 C   0  0  0  0  0  0  0  0  0  0  0  0
   18.5108  -13.8071    4.0746 C   0  0  0  0  0  0  0  0  0  0  0  0
   18.3888  -13.9058    5.4545 C   0  0  0  0  0  0  0  0  0  0  0  0
   17.7139  -17.5753    7.2101 C   0  0  0  0  0  0  0  0  0  0  0  0
   16.9677  -17.8549    8.1999 O   0  0  0  0  0  0  0  0  0  0  0  0
   18.8686  -22.6172    8.2007 N   0  0  0  0  0  0  0  0  0  0  0  0
   20.1650  -21.9827    8.3351 C   0  0  0  0  0  0  0  0  0  0  0  0
   21.1262  -22.7256    8.5822 O   0  0  0  0  0  0  0  0  0  0  0  0
   20.2853  -20.5485    8.1849 C   0  0  0  0  0  0  0  0  0  0  0  0
   19.3290  -19.6611    8.8823 C   0  0  0  0  0  0  0  0  0  0  0  0
   19.5861  -18.1913    8.8156 C   0  0  2  0  0  0  0  0  0  0  0  0
   19.1078  -17.7608    7.4730 N   0  0  0  0  0  0  0  0  0  0  0  0
   20.9819  -17.7690    8.8750 C   0  0  0  0  0  0  0  0  0  0  0  0
   21.6556  -17.2700    7.7853 O   0  0  0  0  0  0  0  0  0  0  0  0
   21.6141  -17.8614    9.9755 O   0  0  0  0  0  0  0  0  0  0  0  0
  1  2  1  0
  2  4  1  0
  2  3  2  0
  4  5  1  0
  5  6  1  0
  6  7  1  6
  6  8  1  0
  8 10  1  0
  8  9  2  0
 10 11  1  0
 11 22  1  0
 11 12  1  1
 12 13  1  0
 13 14  2  0
 13 21  1  0
 14 15  1  0
 15 16  1  0
 16 17  2  0
 17 18  1  0
 19 18  2  0
 20 19  1  0
 21 20  2  0
 21 16  1  0
 22 23  2  0
 24 25  1  0
 25 27  1  0
 26 25  2  0
 27 28  1  0
 29 31  1  0
 29 28  1  6
 30 22  1  0
 30 29  1  0
 31 32  1  0
 33 31  2  0
M  END
$$$$
