TIC.pdb
     RDKit          3D

 22 21  0  0  1  0  0  0  0  0999 V2000
   20.0388  -13.5993  -20.5099 C   0  0  0  0  0  0  0  0  0  0  0  0
   20.4896  -12.5589  -19.5303 C   0  0  1  0  0  0  0  0  0  0  0  0
   19.4773  -11.6847  -19.1492 O   0  0  0  0  0  0  0  0  0  0  0  0
   21.1333  -13.1475  -18.2950 C   0  0  2  0  0  0  0  0  0  0  0  0
   20.1620  -13.9898  -17.6143 N   0  0  0  0  0  0  0  0  0  0  0  0
   21.6246  -12.1453  -17.3443 C   0  0  0  0  0  0  0  0  0  0  0  0
   20.9738  -11.8940  -16.2878 O   0  0  0  0  0  0  0  0  0  0  0  0
   26.1080  -10.2517  -14.6118 C   0  0  0  0  0  0  0  0  0  0  0  0
   25.4388   -9.4152  -15.6945 C   0  0  0  0  0  0  0  0  0  0  0  0
   24.8256  -10.3957  -16.6881 C   0  0  2  0  0  0  0  0  0  0  0  0
   25.1927   -9.8584  -18.0738 C   0  0  0  0  0  0  0  0  0  0  0  0
   23.3167  -10.4465  -16.5375 C   0  0  2  0  0  0  0  0  0  0  0  0
   22.8202  -11.3917  -17.5020 N   0  0  0  0  0  0  0  0  0  0  0  0
   22.7917   -9.0920  -16.7231 C   0  0  0  0  0  0  0  0  0  0  0  0
   22.8405   -8.5715  -17.8600 O   0  0  0  0  0  0  0  0  0  0  0  0
   22.2311   -8.3534  -15.6573 N   0  0  0  0  0  0  0  0  0  0  0  0
   21.7311   -7.0235  -15.8978 C   0  0  1  0  0  0  0  0  0  0  0  0
   20.2157   -6.9828  -15.9197 C   0  0  0  0  0  0  0  0  0  0  0  0
   19.6865   -5.2520  -15.9761 S   0  0  0  0  0  0  0  0  0  0  0  0
   22.2410   -6.0721  -14.8768 C   0  0  0  0  0  0  0  0  0  0  0  0
   22.7010   -6.5085  -13.7847 O   0  0  0  0  0  0  0  0  0  0  0  0
   22.2183   -4.7051  -15.1082 O   0  0  0  0  0  0  0  0  0  0  0  0
  2  1  1  6
  2  4  1  0
  2  3  1  0
  4  6  1  0
  4  5  1  1
  6  7  2  0
  8  9  1  0
  9 10  1  0
 10 11  1  6
 10 12  1  0
 12 14  1  0
 12 13  1  6
 13  6  1  0
 14 15  2  0
 16 17  1  0
 16 14  1  0
 17 20  1  0
 17 18  1  1
 19 18  1  0
 20 21  2  0
 20 22  1  0
M  END
$$$$
