TIC.pdb
     RDKit          3D

 22 21  0  0  1  0  0  0  0  0999 V2000
   21.0645   -9.7498  -22.1230 C   0  0  0  0  0  0  0  0  0  0  0  0
   20.8710   -9.4036  -20.6780 C   0  0  1  0  0  0  0  0  0  0  0  0
   19.6348   -8.8252  -20.4101 O   0  0  0  0  0  0  0  0  0  0  0  0
   21.0832  -10.5809  -19.7529 C   0  0  2  0  0  0  0  0  0  0  0  0
   20.1033  -11.6091  -20.0677 N   0  0  0  0  0  0  0  0  0  0  0  0
   20.9657  -10.2490  -18.3298 C   0  0  0  0  0  0  0  0  0  0  0  0
   19.8684  -10.4212  -17.7221 O   0  0  0  0  0  0  0  0  0  0  0  0
   21.9747  -10.7126  -13.1608 C   0  0  0  0  0  0  0  0  0  0  0  0
   22.8127   -9.6551  -13.8673 C   0  0  0  0  0  0  0  0  0  0  0  0
   22.8863  -10.0639  -15.3343 C   0  0  2  0  0  0  0  0  0  0  0  0
   24.2993   -9.6935  -15.7926 C   0  0  0  0  0  0  0  0  0  0  0  0
   21.8616   -9.3079  -16.1591 C   0  0  2  0  0  0  0  0  0  0  0  0
   22.0169   -9.7271  -17.5267 N   0  0  0  0  0  0  0  0  0  0  0  0
   22.0802   -7.8737  -15.9592 C   0  0  0  0  0  0  0  0  0  0  0  0
   23.0706   -7.3290  -16.4962 O   0  0  0  0  0  0  0  0  0  0  0  0
   21.2069   -7.0846  -15.1779 N   0  0  0  0  0  0  0  0  0  0  0  0
   21.4940   -5.6863  -14.9812 C   0  0  1  0  0  0  0  0  0  0  0  0
   20.2857   -4.8145  -15.2611 C   0  0  0  0  0  0  0  0  0  0  0  0
   20.7233   -3.0929  -14.9091 S   0  0  0  0  0  0  0  0  0  0  0  0
   21.9824   -5.4339  -13.6009 C   0  0  0  0  0  0  0  0  0  0  0  0
   21.4736   -6.0600  -12.6294 O   0  0  0  0  0  0  0  0  0  0  0  0
   22.9942   -4.5156  -13.3642 O   0  0  0  0  0  0  0  0  0  0  0  0
  2  1  1  6
  2  4  1  0
  2  3  1  0
  4  6  1  0
  4  5  1  6
  6  7  2  0
  8  9  1  0
  9 10  1  0
 10 11  1  6
 10 12  1  0
 12 14  1  0
 12 13  1  6
 13  6  1  0
 14 15  2  0
 16 17  1  0
 16 14  1  0
 17 20  1  0
 17 18  1  1
 19 18  1  0
 20 21  2  0
 20 22  1  0
M  END
$$$$
