TIC.pdb
     RDKit          3D

 22 21  0  0  1  0  0  0  0  0999 V2000
   18.7113  -23.4952  -12.9700 C   0  0  0  0  0  0  0  0  0  0  0  0
   19.6546  -22.3824  -13.3121 C   0  0  1  0  0  0  0  0  0  0  0  0
   19.0600  -21.3612  -14.0455 O   0  0  0  0  0  0  0  0  0  0  0  0
   20.3407  -21.7934  -12.1000 C   0  0  2  0  0  0  0  0  0  0  0  0
   19.3791  -20.9928  -11.3578 N   0  0  0  0  0  0  0  0  0  0  0  0
   21.4963  -20.9503  -12.4207 C   0  0  0  0  0  0  0  0  0  0  0  0
   21.3948  -19.6886  -12.3898 O   0  0  0  0  0  0  0  0  0  0  0  0
   26.3874  -21.4308  -10.4405 C   0  0  0  0  0  0  0  0  0  0  0  0
   25.0855  -20.8853  -11.0128 C   0  0  0  0  0  0  0  0  0  0  0  0
   25.1315  -21.1326  -12.5166 C   0  0  2  0  0  0  0  0  0  0  0  0
   26.3589  -20.3687  -13.0201 C   0  0  0  0  0  0  0  0  0  0  0  0
   23.8806  -20.6014  -13.1912 C   0  0  2  0  0  0  0  0  0  0  0  0
   22.7833  -21.4365  -12.7805 N   0  0  0  0  0  0  0  0  0  0  0  0
   24.1052  -20.6013  -14.6383 C   0  0  0  0  0  0  0  0  0  0  0  0
   24.2789  -21.6920  -15.2267 O   0  0  0  0  0  0  0  0  0  0  0  0
   24.1320  -19.4068  -15.3921 N   0  0  0  0  0  0  0  0  0  0  0  0
   24.2250  -19.4730  -16.8285 C   0  0  1  0  0  0  0  0  0  0  0  0
   23.3170  -18.4632  -17.5027 C   0  0  0  0  0  0  0  0  0  0  0  0
   23.5755  -18.5605  -19.2924 S   0  0  0  0  0  0  0  0  0  0  0  0
   25.6251  -19.2644  -17.2798 C   0  0  0  0  0  0  0  0  0  0  0  0
   26.3626  -18.4343  -16.6785 O   0  0  0  0  0  0  0  0  0  0  0  0
   26.1351  -19.9724  -18.3576 O   0  0  0  0  0  0  0  0  0  0  0  0
  2  1  1  1
  2  4  1  0
  2  3  1  0
  4  6  1  0
  4  5  1  6
  6  7  2  0
  8  9  1  0
  9 10  1  0
 10 11  1  6
 10 12  1  0
 12 14  1  0
 12 13  1  6
 13  6  1  0
 14 15  2  0
 16 17  1  0
 16 14  1  0
 17 20  1  0
 17 18  1  6
 19 18  1  0
 20 21  2  0
 20 22  1  0
M  END
$$$$
