TIC.pdb
     RDKit          3D

 22 21  0  0  1  0  0  0  0  0999 V2000
   24.7987  -12.8494  -15.4374 C   0  0  0  0  0  0  0  0  0  0  0  0
   24.0215  -11.5799  -15.6101 C   0  0  1  0  0  0  0  0  0  0  0  0
   24.8259  -10.4493  -15.7043 O   0  0  0  0  0  0  0  0  0  0  0  0
   23.0754  -11.6201  -16.7890 C   0  0  2  0  0  0  0  0  0  0  0  0
   23.8538  -11.7222  -18.0137 N   0  0  0  0  0  0  0  0  0  0  0  0
   22.2016  -10.4474  -16.8918 C   0  0  0  0  0  0  0  0  0  0  0  0
   22.4713   -9.5194  -17.7097 O   0  0  0  0  0  0  0  0  0  0  0  0
   17.5442  -11.5454  -17.0826 C   0  0  0  0  0  0  0  0  0  0  0  0
   18.3203  -10.2955  -17.4764 C   0  0  0  0  0  0  0  0  0  0  0  0
   18.7269   -9.6063  -16.1786 C   0  0  2  0  0  0  0  0  0  0  0  0
   17.7651   -8.4254  -16.0229 C   0  0  0  0  0  0  0  0  0  0  0  0
   20.1554   -9.1013  -16.2581 C   0  0  2  0  0  0  0  0  0  0  0  0
   21.0224  -10.2417  -16.1239 N   0  0  0  0  0  0  0  0  0  0  0  0
   20.3453   -8.0963  -15.2099 C   0  0  0  0  0  0  0  0  0  0  0  0
   20.7056   -8.4670  -14.0703 O   0  0  0  0  0  0  0  0  0  0  0  0
   20.1340   -6.7195  -15.4452 N   0  0  0  0  0  0  0  0  0  0  0  0
   20.6053   -5.7525  -14.4864 C   0  0  1  0  0  0  0  0  0  0  0  0
   22.1041   -5.8450  -14.2777 C   0  0  0  0  0  0  0  0  0  0  0  0
   22.6072   -4.5406  -13.1268 S   0  0  0  0  0  0  0  0  0  0  0  0
   20.2437   -4.3729  -14.9026 C   0  0  0  0  0  0  0  0  0  0  0  0
   20.2691   -4.0577  -16.1251 O   0  0  0  0  0  0  0  0  0  0  0  0
   19.8770   -3.4222  -13.9619 O   0  0  0  0  0  0  0  0  0  0  0  0
  2  1  1  6
  2  4  1  0
  2  3  1  0
  4  6  1  0
  4  5  1  6
  6  7  2  0
  8  9  1  0
  9 10  1  0
 10 11  1  6
 10 12  1  0
 12 14  1  0
 12 13  1  1
 13  6  1  0
 14 15  2  0
 16 17  1  0
 16 14  1  0
 17 20  1  0
 17 18  1  6
 19 18  1  0
 20 21  2  0
 20 22  1  0
M  END
$$$$
