TIC.pdb
     RDKit          3D

 22 21  0  0  1  0  0  0  0  0999 V2000
   26.5086  -18.3674  -16.2369 C   0  0  0  0  0  0  0  0  0  0  0  0
   27.1916  -19.5197  -16.9086 C   0  0  1  0  0  0  0  0  0  0  0  0
   28.1871  -19.1287  -17.7976 O   0  0  0  0  0  0  0  0  0  0  0  0
   27.7603  -20.5233  -15.9308 C   0  0  2  0  0  0  0  0  0  0  0  0
   28.2862  -21.6580  -16.6738 N   0  0  0  0  0  0  0  0  0  0  0  0
   26.7870  -21.0202  -14.9535 C   0  0  0  0  0  0  0  0  0  0  0  0
   25.8968  -21.8496  -15.3035 O   0  0  0  0  0  0  0  0  0  0  0  0
   25.3159  -21.5351   -9.3098 C   0  0  0  0  0  0  0  0  0  0  0  0
   24.8478  -20.5343  -10.3582 C   0  0  0  0  0  0  0  0  0  0  0  0
   26.0024  -20.3549  -11.3376 C   0  0  2  0  0  0  0  0  0  0  0  0
   26.1793  -18.8419  -11.4900 C   0  0  0  0  0  0  0  0  0  0  0  0
   25.6723  -20.9739  -12.6829 C   0  0  2  0  0  0  0  0  0  0  0  0
   26.7445  -20.6422  -13.5832 N   0  0  0  0  0  0  0  0  0  0  0  0
   24.3686  -20.4649  -13.1142 C   0  0  0  0  0  0  0  0  0  0  0  0
   24.2591  -19.2568  -13.4218 O   0  0  0  0  0  0  0  0  0  0  0  0
   23.2290  -21.2959  -13.1938 N   0  0  0  0  0  0  0  0  0  0  0  0
   21.9608  -20.7306  -13.5789 C   0  0  1  0  0  0  0  0  0  0  0  0
   21.5341  -21.1840  -14.9613 C   0  0  0  0  0  0  0  0  0  0  0  0
   19.8831  -20.5223  -15.3008 S   0  0  0  0  0  0  0  0  0  0  0  0
   20.9046  -21.0757  -12.5926 C   0  0  0  0  0  0  0  0  0  0  0  0
   20.9090  -22.2099  -12.0373 O   0  0  0  0  0  0  0  0  0  0  0  0
   19.9094  -20.1647  -12.2722 O   0  0  0  0  0  0  0  0  0  0  0  0
  2  1  1  1
  2  4  1  0
  2  3  1  0
  4  6  1  0
  4  5  1  6
  6  7  2  0
  8  9  1  0
  9 10  1  0
 10 11  1  6
 10 12  1  0
 12 14  1  0
 12 13  1  6
 13  6  1  0
 14 15  2  0
 16 17  1  0
 16 14  1  0
 17 20  1  0
 17 18  1  6
 19 18  1  0
 20 21  2  0
 20 22  1  0
M  END
$$$$
