KPH.pdb
     RDKit          3D

 27 28  0  0  1  0  0  0  0  0999 V2000
    9.8659  -17.3214   18.0414 N   0  0  0  0  0  0  0  0  0  0  0  0
    8.7882  -16.9062   18.8499 C   0  0  1  0  0  0  0  0  0  0  0  0
    7.8848  -17.9723   19.3842 C   0  0  0  0  0  0  0  0  0  0  0  0
    8.5206  -19.0095   20.2315 C   0  0  0  0  0  0  0  0  0  0  0  0
    7.6422  -20.0932   20.7458 C   0  0  0  0  0  0  0  0  0  0  0  0
    8.3503  -21.0406   21.6983 C   0  0  0  0  0  0  0  0  0  0  0  0
    7.3892  -21.9707   22.2339 N   0  0  0  0  0  0  0  0  0  0  0  0
    9.2807  -16.0369   19.9717 C   0  0  0  0  0  0  0  0  0  0  0  0
   10.4584  -16.2741   20.4049 O   0  0  0  0  0  0  0  0  0  0  0  0
    8.5139  -15.0087   20.5389 N   0  0  0  0  0  0  0  0  0  0  0  0
    7.2001  -14.5930   20.1500 C   0  0  0  0  0  0  0  0  0  0  0  0
    6.7968  -13.5888   21.2012 C   0  0  0  0  0  0  0  0  0  0  0  0
    8.0925  -12.9448   21.5859 C   0  0  0  0  0  0  0  0  0  0  0  0
    8.9970  -14.1860   21.6563 C   0  0  1  0  0  0  0  0  0  0  0  0
    8.6749  -14.8302   22.9556 C   0  0  0  0  0  0  0  0  0  0  0  0
    7.7071  -15.6315   22.9892 O   0  0  0  0  0  0  0  0  0  0  0  0
    9.3828  -14.5987   24.1414 N   0  0  0  0  0  0  0  0  0  0  0  0
    9.2139  -15.3612   25.3752 C   0  0  1  0  0  0  0  0  0  0  0  0
    7.7849  -15.5468   25.7267 C   0  0  0  0  0  0  0  0  0  0  0  0
    7.1224  -14.2426   25.9064 C   0  0  0  0  0  0  0  0  0  0  0  0
    7.6862  -13.0231   26.2546 C   0  0  0  0  0  0  0  0  0  0  0  0
    6.7030  -12.1110   26.3020 N   0  0  0  0  0  0  0  0  0  0  0  0
    5.5413  -12.6995   25.9989 C   0  0  0  0  0  0  0  0  0  0  0  0
    5.8173  -13.9894   25.7629 N   0  0  0  0  0  0  0  0  0  0  0  0
    9.9423  -16.6430   25.3043 C   0  0  0  0  0  0  0  0  0  0  0  0
   10.0247  -17.4864   26.4188 O   0  0  0  0  0  0  0  0  0  0  0  0
   10.5197  -17.0527   24.2723 O   0  0  0  0  0  0  0  0  0  0  0  0
  2  1  1  1
  3  4  1  0
  3  2  1  0
  4  5  1  0
  6  5  1  0
  7  6  1  0
  8  9  2  0
  8  2  1  0
 10  8  1  0
 11 10  1  0
 12 11  1  0
 13 12  1  0
 13 14  1  0
 14 10  1  0
 14 15  1  1
 16 15  2  0
 17 15  1  0
 18 17  1  0
 18 19  1  6
 20 19  1  0
 20 21  2  0
 22 21  1  0
 23 22  1  0
 24 23  2  0
 24 20  1  0
 25 18  1  0
 26 25  1  0
 27 25  2  0
M  END
$$$$
