KPH.pdb
     RDKit          3D

 27 28  0  0  1  0  0  0  0  0999 V2000
    6.2863  -18.5686   19.1637 N   0  0  0  0  0  0  0  0  0  0  0  0
    6.0153  -17.3542   19.8264 C   0  0  1  0  0  0  0  0  0  0  0  0
    4.9723  -17.3791   20.8987 C   0  0  0  0  0  0  0  0  0  0  0  0
    4.1537  -18.6118   20.9916 C   0  0  0  0  0  0  0  0  0  0  0  0
    2.7099  -18.4904   20.6585 C   0  0  0  0  0  0  0  0  0  0  0  0
    1.9446  -19.7925   20.8163 C   0  0  0  0  0  0  0  0  0  0  0  0
    0.6364  -19.6402   20.2321 N   0  0  0  0  0  0  0  0  0  0  0  0
    7.2858  -16.7525   20.3559 C   0  0  0  0  0  0  0  0  0  0  0  0
    8.2089  -17.5686   20.6919 O   0  0  0  0  0  0  0  0  0  0  0  0
    7.4830  -15.3704   20.4888 N   0  0  0  0  0  0  0  0  0  0  0  0
    6.5971  -14.3254   20.0724 C   0  0  0  0  0  0  0  0  0  0  0  0
    7.2193  -13.0646   20.6196 C   0  0  0  0  0  0  0  0  0  0  0  0
    8.6880  -13.3521   20.5780 C   0  0  0  0  0  0  0  0  0  0  0  0
    8.6918  -14.7989   21.0980 C   0  0  1  0  0  0  0  0  0  0  0  0
    8.5297  -14.6846   22.5702 C   0  0  0  0  0  0  0  0  0  0  0  0
    7.4200  -14.2900   23.0095 O   0  0  0  0  0  0  0  0  0  0  0  0
    9.5361  -14.9893   23.4951 N   0  0  0  0  0  0  0  0  0  0  0  0
    9.3292  -15.7235   24.7402 C   0  0  1  0  0  0  0  0  0  0  0  0
    8.5942  -16.9937   24.5248 C   0  0  0  0  0  0  0  0  0  0  0  0
    8.6123  -17.8160   25.7478 C   0  0  0  0  0  0  0  0  0  0  0  0
    9.1463  -17.5100   26.9919 C   0  0  0  0  0  0  0  0  0  0  0  0
    8.9327  -18.5576   27.8030 N   0  0  0  0  0  0  0  0  0  0  0  0
    8.2868  -19.5135   27.1270 C   0  0  0  0  0  0  0  0  0  0  0  0
    8.1026  -19.0445   25.8853 N   0  0  0  0  0  0  0  0  0  0  0  0
   10.6087  -15.9319   25.4459 C   0  0  0  0  0  0  0  0  0  0  0  0
   11.7089  -16.4965   24.7893 O   0  0  0  0  0  0  0  0  0  0  0  0
   10.7931  -15.6267   26.6455 O   0  0  0  0  0  0  0  0  0  0  0  0
  2  1  1  1
  3  4  1  0
  3  2  1  0
  4  5  1  0
  6  5  1  0
  7  6  1  0
  8  9  2  0
  8  2  1  0
 10  8  1  0
 11 10  1  0
 12 11  1  0
 13 12  1  0
 13 14  1  0
 14 10  1  0
 14 15  1  1
 16 15  2  0
 17 15  1  0
 18 17  1  0
 18 19  1  6
 20 19  1  0
 20 21  2  0
 22 21  1  0
 23 22  1  0
 24 23  2  0
 24 20  1  0
 25 18  1  0
 26 25  1  0
 27 25  2  0
M  END
$$$$
