KPH.pdb
     RDKit          3D

 27 28  0  0  1  0  0  0  0  0999 V2000
    8.4743  -17.3245   17.1915 N   0  0  0  0  0  0  0  0  0  0  0  0
    7.7387  -17.0355   18.3589 C   0  0  1  0  0  0  0  0  0  0  0  0
    6.9092  -18.1396   18.9344 C   0  0  0  0  0  0  0  0  0  0  0  0
    5.8615  -18.7046   18.0506 C   0  0  0  0  0  0  0  0  0  0  0  0
    6.1295  -20.0394   17.4533 C   0  0  0  0  0  0  0  0  0  0  0  0
    4.9625  -20.5837   16.6484 C   0  0  0  0  0  0  0  0  0  0  0  0
    5.3272  -21.8669   16.1041 N   0  0  0  0  0  0  0  0  0  0  0  0
    8.6390  -16.4616   19.4157 C   0  0  0  0  0  0  0  0  0  0  0  0
    9.8761  -16.7706   19.3431 O   0  0  0  0  0  0  0  0  0  0  0  0
    8.1794  -15.6263   20.4441 N   0  0  0  0  0  0  0  0  0  0  0  0
    6.8343  -15.1906   20.6698 C   0  0  0  0  0  0  0  0  0  0  0  0
    6.8886  -14.4739   21.9963 C   0  0  0  0  0  0  0  0  0  0  0  0
    8.2625  -13.8793   22.0172 C   0  0  0  0  0  0  0  0  0  0  0  0
    9.0739  -15.0622   21.4643 C   0  0  1  0  0  0  0  0  0  0  0  0
    9.2213  -16.0016   22.6056 C   0  0  0  0  0  0  0  0  0  0  0  0
    8.1949  -16.6101   23.0010 O   0  0  0  0  0  0  0  0  0  0  0  0
   10.4314  -16.2488   23.2654 N   0  0  0  0  0  0  0  0  0  0  0  0
   10.5970  -17.1720   24.3846 C   0  0  1  0  0  0  0  0  0  0  0  0
   11.8363  -17.9782   24.2658 C   0  0  0  0  0  0  0  0  0  0  0  0
   11.9633  -18.5352   22.9072 C   0  0  0  0  0  0  0  0  0  0  0  0
   11.0131  -18.5842   21.8967 C   0  0  0  0  0  0  0  0  0  0  0  0
   11.5712  -19.1819   20.8325 N   0  0  0  0  0  0  0  0  0  0  0  0
   12.8330  -19.5135   21.1251 C   0  0  0  0  0  0  0  0  0  0  0  0
   13.0503  -19.1133   22.3854 N   0  0  0  0  0  0  0  0  0  0  0  0
   10.5186  -16.4554   25.6726 C   0  0  0  0  0  0  0  0  0  0  0  0
   10.5089  -17.1546   26.8856 O   0  0  0  0  0  0  0  0  0  0  0  0
   10.4573  -15.2090   25.7664 O   0  0  0  0  0  0  0  0  0  0  0  0
  2  1  1  6
  3  4  1  0
  3  2  1  0
  4  5  1  0
  6  5  1  0
  7  6  1  0
  8  9  2  0
  8  2  1  0
 10  8  1  0
 11 10  1  0
 12 11  1  0
 13 12  1  0
 13 14  1  0
 14 10  1  0
 14 15  1  1
 16 15  2  0
 17 15  1  0
 18 17  1  0
 18 19  1  6
 20 19  1  0
 20 21  2  0
 22 21  1  0
 23 22  1  0
 24 23  2  0
 24 20  1  0
 25 18  1  0
 26 25  1  0
 27 25  2  0
M  END
$$$$
