KPH.pdb
     RDKit          3D

 27 28  0  0  1  0  0  0  0  0999 V2000
    8.2776  -17.8782   16.7857 N   0  0  0  0  0  0  0  0  0  0  0  0
    7.5914  -17.1634   17.7885 C   0  0  1  0  0  0  0  0  0  0  0  0
    6.6103  -17.9263   18.6214 C   0  0  0  0  0  0  0  0  0  0  0  0
    6.0604  -19.1651   18.0205 C   0  0  0  0  0  0  0  0  0  0  0  0
    5.0646  -19.9214   18.8248 C   0  0  0  0  0  0  0  0  0  0  0  0
    4.6692  -21.2478   18.2000 C   0  0  0  0  0  0  0  0  0  0  0  0
    3.7062  -21.8979   19.0519 N   0  0  0  0  0  0  0  0  0  0  0  0
    8.5653  -16.4380   18.6729 C   0  0  0  0  0  0  0  0  0  0  0  0
    9.7062  -16.9872   18.8391 O   0  0  0  0  0  0  0  0  0  0  0  0
    8.2708  -15.2189   19.3004 N   0  0  0  0  0  0  0  0  0  0  0  0
    7.0085  -14.5438   19.3315 C   0  0  0  0  0  0  0  0  0  0  0  0
    7.2207  -13.3931   20.2838 C   0  0  0  0  0  0  0  0  0  0  0  0
    8.6615  -13.0367   20.0870 C   0  0  0  0  0  0  0  0  0  0  0  0
    9.2798  -14.4432   20.0347 C   0  0  1  0  0  0  0  0  0  0  0  0
    9.3530  -14.8900   21.4496 C   0  0  0  0  0  0  0  0  0  0  0  0
    8.2764  -15.1816   22.0293 O   0  0  0  0  0  0  0  0  0  0  0  0
   10.5459  -15.0053   22.1739 N   0  0  0  0  0  0  0  0  0  0  0  0
   10.7068  -15.7893   23.3953 C   0  0  1  0  0  0  0  0  0  0  0  0
   10.3255  -17.2097   23.2024 C   0  0  0  0  0  0  0  0  0  0  0  0
    8.8689  -17.3791   23.3494 C   0  0  0  0  0  0  0  0  0  0  0  0
    7.9486  -16.5169   23.9292 C   0  0  0  0  0  0  0  0  0  0  0  0
    6.7358  -17.0842   23.8386 N   0  0  0  0  0  0  0  0  0  0  0  0
    6.8478  -18.2678   23.2268 C   0  0  0  0  0  0  0  0  0  0  0  0
    8.1468  -18.4272   22.9390 N   0  0  0  0  0  0  0  0  0  0  0  0
   12.0732  -15.6465   23.9348 C   0  0  0  0  0  0  0  0  0  0  0  0
   13.0559  -14.9426   23.2283 O   0  0  0  0  0  0  0  0  0  0  0  0
   12.4371  -16.1309   25.0299 O   0  0  0  0  0  0  0  0  0  0  0  0
  2  1  1  6
  3  4  1  0
  3  2  1  0
  4  5  1  0
  6  5  1  0
  7  6  1  0
  8  9  2  0
  8  2  1  0
 10  8  1  0
 11 10  1  0
 12 11  1  0
 13 12  1  0
 13 14  1  0
 14 10  1  0
 14 15  1  1
 16 15  2  0
 17 15  1  0
 18 17  1  0
 18 19  1  6
 20 19  1  0
 20 21  2  0
 22 21  1  0
 23 22  1  0
 24 23  2  0
 24 20  1  0
 25 18  1  0
 26 25  1  0
 27 25  2  0
M  END
$$$$
