KPH.pdb
     RDKit          3D

 27 28  0  0  1  0  0  0  0  0999 V2000
    9.7117  -17.5533   17.9717 N   0  0  0  0  0  0  0  0  0  0  0  0
    8.6933  -16.7878   18.5753 C   0  0  1  0  0  0  0  0  0  0  0  0
    7.4343  -17.5025   18.9527 C   0  0  0  0  0  0  0  0  0  0  0  0
    6.8947  -18.4564   17.9542 C   0  0  0  0  0  0  0  0  0  0  0  0
    6.7166  -19.8654   18.3939 C   0  0  0  0  0  0  0  0  0  0  0  0
    6.0823  -20.7503   17.3352 C   0  0  0  0  0  0  0  0  0  0  0  0
    6.0005  -22.0977   17.8390 N   0  0  0  0  0  0  0  0  0  0  0  0
    9.2351  -16.0369   19.7582 C   0  0  0  0  0  0  0  0  0  0  0  0
   10.3016  -16.4972   20.2888 O   0  0  0  0  0  0  0  0  0  0  0  0
    8.6270  -14.8860   20.2803 N   0  0  0  0  0  0  0  0  0  0  0  0
    7.4433  -14.2387   19.8007 C   0  0  0  0  0  0  0  0  0  0  0  0
    7.1510  -13.1772   20.8321 C   0  0  0  0  0  0  0  0  0  0  0  0
    8.5093  -12.7792   21.3199 C   0  0  0  0  0  0  0  0  0  0  0  0
    9.1659  -14.1640   21.4410 C   0  0  1  0  0  0  0  0  0  0  0  0
    8.6357  -14.7380   22.7044 C   0  0  0  0  0  0  0  0  0  0  0  0
    7.5445  -15.3600   22.6538 O   0  0  0  0  0  0  0  0  0  0  0  0
    9.2767  -14.6279   23.9445 N   0  0  0  0  0  0  0  0  0  0  0  0
    8.8715  -15.3325   25.1576 C   0  0  1  0  0  0  0  0  0  0  0  0
    7.3965  -15.4153   25.2899 C   0  0  0  0  0  0  0  0  0  0  0  0
    6.8348  -14.1019   25.6529 C   0  0  0  0  0  0  0  0  0  0  0  0
    7.5038  -12.9162   25.9231 C   0  0  0  0  0  0  0  0  0  0  0  0
    6.5864  -11.9791   26.2082 N   0  0  0  0  0  0  0  0  0  0  0  0
    5.3659  -12.5195   26.1303 C   0  0  0  0  0  0  0  0  0  0  0  0
    5.5386  -13.8049   25.7929 N   0  0  0  0  0  0  0  0  0  0  0  0
    9.5141  -16.6591   25.2339 C   0  0  0  0  0  0  0  0  0  0  0  0
   10.1143  -17.1008   26.4192 O   0  0  0  0  0  0  0  0  0  0  0  0
    9.5650  -17.4578   24.2717 O   0  0  0  0  0  0  0  0  0  0  0  0
  2  1  1  1
  3  4  1  0
  3  2  1  0
  4  5  1  0
  6  5  1  0
  7  6  1  0
  8  9  2  0
  8  2  1  0
 10  8  1  0
 11 10  1  0
 12 11  1  0
 13 12  1  0
 13 14  1  0
 14 10  1  0
 14 15  1  1
 16 15  2  0
 17 15  1  0
 18 17  1  0
 18 19  1  6
 20 19  1  0
 20 21  2  0
 22 21  1  0
 23 22  1  0
 24 23  2  0
 24 20  1  0
 25 18  1  0
 26 25  1  0
 27 25  2  0
M  END
$$$$
