VNI.pdb
     RDKit          3D

 24 23  0  0  1  0  0  0  0  0999 V2000
   26.9572  -17.8340  -14.3203 C   0  0  0  0  0  0  0  0  0  0  0  0
   27.3899  -18.8445  -15.3757 C   0  0  2  0  0  0  0  0  0  0  0  0
   26.2387  -18.9823  -16.3481 C   0  0  0  0  0  0  0  0  0  0  0  0
   27.6231  -20.1970  -14.7458 C   0  0  2  0  0  0  0  0  0  0  0  0
   28.1012  -21.0876  -15.7883 N   0  0  0  0  0  0  0  0  0  0  0  0
   26.3487  -20.7740  -14.2345 C   0  0  0  0  0  0  0  0  0  0  0  0
   25.4712  -21.2650  -14.9817 O   0  0  0  0  0  0  0  0  0  0  0  0
   27.2534  -21.0518  -10.0660 N   0  0  0  0  0  0  0  0  0  0  0  0
   25.9027  -20.7285  -10.0878 C   0  0  0  0  0  0  0  0  0  0  0  0
   25.5355  -19.7045   -9.4142 O   0  0  0  0  0  0  0  0  0  0  0  0
   24.8296  -21.4306  -10.8013 C   0  0  0  0  0  0  0  0  0  0  0  0
   24.8343  -21.2677  -12.2757 C   0  0  2  0  0  0  0  0  0  0  0  0
   26.0606  -20.7944  -12.8249 N   0  0  0  0  0  0  0  0  0  0  0  0
   23.6743  -20.3748  -12.6332 C   0  0  0  0  0  0  0  0  0  0  0  0
   23.7949  -19.1238  -12.6878 O   0  0  0  0  0  0  0  0  0  0  0  0
   21.4159  -18.5491  -16.9894 C   0  0  0  0  0  0  0  0  0  0  0  0
   20.7900  -18.8982  -15.6560 C   0  0  0  0  0  0  0  0  0  0  0  0
   21.7609  -19.7431  -14.8991 C   0  0  2  0  0  0  0  0  0  0  0  0
   22.0980  -20.9762  -15.7041 C   0  0  0  0  0  0  0  0  0  0  0  0
   21.3231  -20.0990  -13.5027 C   0  0  2  0  0  0  0  0  0  0  0  0
   22.3936  -20.9158  -12.9236 N   0  0  0  0  0  0  0  0  0  0  0  0
   20.0493  -20.8544  -13.4937 C   0  0  0  0  0  0  0  0  0  0  0  0
   18.9123  -20.3269  -13.4659 O   0  0  0  0  0  0  0  0  0  0  0  0
   20.1107  -22.2370  -13.5176 O   0  0  0  0  0  0  0  0  0  0  0  0
  2  1  1  1
  2  3  1  0
  2  4  1  0
  4  6  1  0
  4  5  1  6
  6 13  1  0
  6  7  2  0
  9 10  2  0
  9  8  1  0
 11  9  1  0
 12 11  1  1
 12 14  1  0
 13 12  1  0
 14 15  2  0
 17 16  1  0
 18 17  1  0
 18 20  1  0
 18 19  1  6
 20 21  1  6
 21 14  1  0
 22 24  1  0
 22 20  1  0
 23 22  2  0
M  END
$$$$
