VNI.pdb
     RDKit          3D

 24 23  0  0  1  0  0  0  0  0999 V2000
   19.5006  -12.7188  -21.1235 C   0  0  0  0  0  0  0  0  0  0  0  0
   18.3740  -12.2395  -20.2161 C   0  0  2  0  0  0  0  0  0  0  0  0
   17.8219  -10.9736  -20.8346 C   0  0  0  0  0  0  0  0  0  0  0  0
   18.9120  -11.8862  -18.8501 C   0  0  2  0  0  0  0  0  0  0  0  0
   17.7789  -11.5393  -18.0109 N   0  0  0  0  0  0  0  0  0  0  0  0
   19.7861  -10.6820  -18.9163 C   0  0  0  0  0  0  0  0  0  0  0  0
   20.8987  -10.6745  -19.4922 O   0  0  0  0  0  0  0  0  0  0  0  0
   20.4242   -4.7069  -19.4404 N   0  0  0  0  0  0  0  0  0  0  0  0
   20.7395   -6.0114  -19.0824 C   0  0  0  0  0  0  0  0  0  0  0  0
   21.9226   -6.2284  -18.6461 O   0  0  0  0  0  0  0  0  0  0  0  0
   19.8658   -7.1888  -19.1453 C   0  0  0  0  0  0  0  0  0  0  0  0
   20.2213   -8.2940  -18.2220 C   0  0  2  0  0  0  0  0  0  0  0  0
   19.3827   -9.4424  -18.3071 N   0  0  0  0  0  0  0  0  0  0  0  0
   20.2553   -7.7223  -16.8282 C   0  0  0  0  0  0  0  0  0  0  0  0
   19.2027   -7.5277  -16.1673 O   0  0  0  0  0  0  0  0  0  0  0  0
   22.8769  -10.4189  -13.6790 C   0  0  0  0  0  0  0  0  0  0  0  0
   21.9013   -9.4729  -14.3460 C   0  0  0  0  0  0  0  0  0  0  0  0
   22.3780   -8.0780  -14.1091 C   0  0  2  0  0  0  0  0  0  0  0  0
   22.4935   -7.8250  -12.6242 C   0  0  0  0  0  0  0  0  0  0  0  0
   21.5564   -7.0135  -14.7874 C   0  0  2  0  0  0  0  0  0  0  0  0
   21.4846   -7.3796  -16.2049 N   0  0  0  0  0  0  0  0  0  0  0  0
   22.1582   -5.6683  -14.6422 C   0  0  0  0  0  0  0  0  0  0  0  0
   23.0141   -5.1865  -15.4215 O   0  0  0  0  0  0  0  0  0  0  0  0
   21.7531   -4.8839  -13.5761 O   0  0  0  0  0  0  0  0  0  0  0  0
  2  1  1  6
  2  3  1  0
  2  4  1  0
  4  6  1  0
  4  5  1  1
  6 13  1  0
  6  7  2  0
  9 10  2  0
  9  8  1  0
 11  9  1  0
 12 11  1  6
 12 14  1  0
 13 12  1  0
 14 15  2  0
 17 16  1  0
 18 17  1  0
 18 20  1  0
 18 19  1  1
 20 21  1  6
 21 14  1  0
 22 24  1  0
 22 20  1  0
 23 22  2  0
M  END
$$$$
