VNI.pdb
     RDKit          3D

 24 23  0  0  1  0  0  0  0  0999 V2000
   19.4369  -15.2283  -20.0829 C   0  0  0  0  0  0  0  0  0  0  0  0
   20.5162  -15.7039  -19.1180 C   0  0  2  0  0  0  0  0  0  0  0  0
   20.1930  -17.1415  -18.7733 C   0  0  0  0  0  0  0  0  0  0  0  0
   20.4688  -14.9033  -17.8384 C   0  0  2  0  0  0  0  0  0  0  0  0
   19.2048  -15.1966  -17.1865 N   0  0  0  0  0  0  0  0  0  0  0  0
   20.4798  -13.4414  -18.1233 C   0  0  0  0  0  0  0  0  0  0  0  0
   21.4120  -12.8701  -18.7349 O   0  0  0  0  0  0  0  0  0  0  0  0
   16.6902  -11.4915  -20.3371 N   0  0  0  0  0  0  0  0  0  0  0  0
   17.8884  -11.0171  -19.8189 C   0  0  0  0  0  0  0  0  0  0  0  0
   18.8762  -10.9180  -20.6260 O   0  0  0  0  0  0  0  0  0  0  0  0
   18.1620  -10.6098  -18.4359 C   0  0  0  0  0  0  0  0  0  0  0  0
   19.3934  -11.1804  -17.8371 C   0  0  2  0  0  0  0  0  0  0  0  0
   19.3939  -12.5982  -17.6986 N   0  0  0  0  0  0  0  0  0  0  0  0
   19.6168  -10.4847  -16.5193 C   0  0  0  0  0  0  0  0  0  0  0  0
   19.1611  -10.9471  -15.4417 O   0  0  0  0  0  0  0  0  0  0  0  0
   23.4473  -10.4245  -12.9507 C   0  0  0  0  0  0  0  0  0  0  0  0
   22.4083   -9.3812  -13.3027 C   0  0  0  0  0  0  0  0  0  0  0  0
   21.8707   -9.7061  -14.6572 C   0  0  2  0  0  0  0  0  0  0  0  0
   23.0124   -9.8586  -15.6348 C   0  0  0  0  0  0  0  0  0  0  0  0
   20.8345   -8.7391  -15.1664 C   0  0  2  0  0  0  0  0  0  0  0  0
   20.3548   -9.2736  -16.4442 N   0  0  0  0  0  0  0  0  0  0  0  0
   21.3895   -7.3802  -15.3629 C   0  0  0  0  0  0  0  0  0  0  0  0
   21.8861   -6.9656  -16.4368 O   0  0  0  0  0  0  0  0  0  0  0  0
   21.3612   -6.5030  -14.2925 O   0  0  0  0  0  0  0  0  0  0  0  0
  2  1  1  6
  2  3  1  0
  2  4  1  0
  4  6  1  0
  4  5  1  6
  6 13  1  0
  6  7  2  0
  9 10  2  0
  9  8  1  0
 11  9  1  0
 12 11  1  1
 12 14  1  0
 13 12  1  0
 14 15  2  0
 17 16  1  0
 18 17  1  0
 18 20  1  0
 18 19  1  6
 20 21  1  6
 21 14  1  0
 22 24  1  0
 22 20  1  0
 23 22  2  0
M  END
$$$$
