VNI.pdb
     RDKit          3D

 24 23  0  0  1  0  0  0  0  0999 V2000
   18.5299  -12.0519  -18.9230 C   0  0  0  0  0  0  0  0  0  0  0  0
   18.2602  -12.6814  -17.5617 C   0  0  2  0  0  0  0  0  0  0  0  0
   17.0128  -13.5254  -17.7088 C   0  0  0  0  0  0  0  0  0  0  0  0
   17.9726  -11.6124  -16.5346 C   0  0  2  0  0  0  0  0  0  0  0  0
   16.7321  -10.9618  -16.9171 N   0  0  0  0  0  0  0  0  0  0  0  0
   19.0315  -10.5649  -16.5443 C   0  0  0  0  0  0  0  0  0  0  0  0
   20.2086  -10.7779  -16.1720 O   0  0  0  0  0  0  0  0  0  0  0  0
   20.1614   -8.5020  -19.8758 N   0  0  0  0  0  0  0  0  0  0  0  0
   19.6721   -7.3253  -19.3234 C   0  0  0  0  0  0  0  0  0  0  0  0
   19.4228   -6.3613  -20.1270 O   0  0  0  0  0  0  0  0  0  0  0  0
   19.4024   -7.0502  -17.9074 C   0  0  0  0  0  0  0  0  0  0  0  0
   19.6942   -8.1673  -16.9762 C   0  0  2  0  0  0  0  0  0  0  0  0
   18.7436   -9.2282  -16.9925 N   0  0  0  0  0  0  0  0  0  0  0  0
   19.8552   -7.5752  -15.5999 C   0  0  0  0  0  0  0  0  0  0  0  0
   18.8652   -7.1923  -14.9247 O   0  0  0  0  0  0  0  0  0  0  0  0
   22.2293   -9.1316  -10.6519 C   0  0  0  0  0  0  0  0  0  0  0  0
   21.9238   -7.8284  -11.3590 C   0  0  0  0  0  0  0  0  0  0  0  0
   21.7055   -8.1298  -12.8050 C   0  0  2  0  0  0  0  0  0  0  0  0
   22.9260   -8.8168  -13.3715 C   0  0  0  0  0  0  0  0  0  0  0  0
   21.3064   -6.9399  -13.6376 C   0  0  2  0  0  0  0  0  0  0  0  0
   21.1386   -7.4265  -15.0101 N   0  0  0  0  0  0  0  0  0  0  0  0
   22.3273   -5.8677  -13.6024 C   0  0  0  0  0  0  0  0  0  0  0  0
   23.1102   -5.6028  -14.5451 O   0  0  0  0  0  0  0  0  0  0  0  0
   22.4296   -5.1019  -12.4538 O   0  0  0  0  0  0  0  0  0  0  0  0
  2  1  1  6
  2  3  1  0
  2  4  1  0
  4  6  1  0
  4  5  1  6
  6 13  1  0
  6  7  2  0
  9 10  2  0
  9  8  1  0
 11  9  1  0
 12 11  1  6
 12 14  1  0
 13 12  1  0
 14 15  2  0
 17 16  1  0
 18 17  1  0
 18 20  1  0
 18 19  1  6
 20 21  1  6
 21 14  1  0
 22 24  1  0
 22 20  1  0
 23 22  2  0
M  END
$$$$
