KPM.pdb
     RDKit          3D

 25 25  0  0  1  0  0  0  0  0999 V2000
    6.5449  -19.0595   19.5425 N   0  0  0  0  0  0  0  0  0  0  0  0
    6.2313  -17.9573   20.3660 C   0  0  1  0  0  0  0  0  0  0  0  0
    5.5450  -18.2557   21.6632 C   0  0  0  0  0  0  0  0  0  0  0  0
    4.6670  -19.4457   21.6537 C   0  0  0  0  0  0  0  0  0  0  0  0
    5.1336  -20.5280   22.5565 C   0  0  0  0  0  0  0  0  0  0  0  0
    4.1602  -21.7261   22.5163 C   0  0  0  0  0  0  0  0  0  0  0  0
    4.5869  -22.7411   23.4465 N   0  0  0  0  0  0  0  0  0  0  0  0
    7.4081  -17.0794   20.6213 C   0  0  0  0  0  0  0  0  0  0  0  0
    8.5032  -17.7103   20.7552 O   0  0  0  0  0  0  0  0  0  0  0  0
    7.4212  -15.6865   20.7233 N   0  0  0  0  0  0  0  0  0  0  0  0
    6.2714  -14.8343   20.6446 C   0  0  0  0  0  0  0  0  0  0  0  0
    6.6884  -13.4075   20.8566 C   0  0  0  0  0  0  0  0  0  0  0  0
    8.1743  -13.4488   20.5718 C   0  0  0  0  0  0  0  0  0  0  0  0
    8.5702  -14.8655   20.9209 C   0  0  1  0  0  0  0  0  0  0  0  0
    9.1158  -14.9053   22.2821 C   0  0  0  0  0  0  0  0  0  0  0  0
    8.4920  -14.3174   23.2025 O   0  0  0  0  0  0  0  0  0  0  0  0
    6.9015  -17.2395   26.9488 C   0  0  0  0  0  0  0  0  0  0  0  0
    8.5501  -17.5926   26.3411 S   0  0  0  0  0  0  0  0  0  0  0  0
    9.1756  -16.3550   25.2076 C   0  0  0  0  0  0  0  0  0  0  0  0
   10.5828  -16.6516   24.7310 C   0  0  0  0  0  0  0  0  0  0  0  0
   11.0135  -15.4945   23.8336 C   0  0  2  0  0  0  0  0  0  0  0  0
   10.3241  -15.5922   22.5642 N   0  0  0  0  0  0  0  0  0  0  0  0
   12.4647  -15.6583   23.5679 C   0  0  0  0  0  0  0  0  0  0  0  0
   12.8945  -16.0590   22.4425 O   0  0  0  0  0  0  0  0  0  0  0  0
   13.4121  -15.3779   24.5459 O   0  0  0  0  0  0  0  0  0  0  0  0
  2  1  1  1
  2  3  1  0
  3  4  1  0
  4  5  1  0
  6  7  1  0
  6  5  1  0
  8  2  1  0
  8 10  1  0
  9  8  2  0
 10 14  1  0
 11 10  1  0
 12 13  1  0
 12 11  1  0
 13 14  1  0
 14 15  1  1
 15 16  2  0
 15 22  1  0
 17 18  1  0
 18 19  1  0
 19 20  1  0
 21 20  1  1
 21 23  1  0
 22 21  1  0
 23 24  2  0
 23 25  1  0
M  END
$$$$
