KPM.pdb
     RDKit          3D

 25 25  0  0  1  0  0  0  0  0999 V2000
    7.7416  -18.9159   19.5897 N   0  0  0  0  0  0  0  0  0  0  0  0
    7.0611  -17.7344   19.9536 C   0  0  1  0  0  0  0  0  0  0  0  0
    5.8778  -17.8867   20.8587 C   0  0  0  0  0  0  0  0  0  0  0  0
    5.7869  -19.1821   21.5664 C   0  0  0  0  0  0  0  0  0  0  0  0
    6.4151  -19.1629   22.9113 C   0  0  0  0  0  0  0  0  0  0  0  0
    6.2841  -20.5429   23.5917 C   0  0  0  0  0  0  0  0  0  0  0  0
    6.9804  -20.5400   24.8537 N   0  0  0  0  0  0  0  0  0  0  0  0
    7.9741  -16.6944   20.5065 C   0  0  0  0  0  0  0  0  0  0  0  0
    8.9194  -17.1619   21.2157 O   0  0  0  0  0  0  0  0  0  0  0  0
    7.8928  -15.3117   20.3266 N   0  0  0  0  0  0  0  0  0  0  0  0
    6.9110  -14.6307   19.5350 C   0  0  0  0  0  0  0  0  0  0  0  0
    7.1234  -13.1478   19.6381 C   0  0  0  0  0  0  0  0  0  0  0  0
    8.5533  -13.0490   20.1239 C   0  0  0  0  0  0  0  0  0  0  0  0
    8.7643  -14.3345   20.8912 C   0  0  1  0  0  0  0  0  0  0  0  0
    8.5580  -14.0949   22.3238 C   0  0  0  0  0  0  0  0  0  0  0  0
    7.8299  -13.1327   22.6786 O   0  0  0  0  0  0  0  0  0  0  0  0
    6.3928  -11.4234   27.1281 C   0  0  0  0  0  0  0  0  0  0  0  0
    6.4515  -13.2011   27.3471 S   0  0  0  0  0  0  0  0  0  0  0  0
    7.9360  -13.9550   26.6872 C   0  0  0  0  0  0  0  0  0  0  0  0
    7.8219  -14.2870   25.2134 C   0  0  0  0  0  0  0  0  0  0  0  0
    9.2288  -14.5874   24.7035 C   0  0  2  0  0  0  0  0  0  0  0  0
    9.1647  -14.9283   23.2978 N   0  0  0  0  0  0  0  0  0  0  0  0
    9.7162  -15.7852   25.4321 C   0  0  0  0  0  0  0  0  0  0  0  0
    9.8011  -16.9193   24.8676 O   0  0  0  0  0  0  0  0  0  0  0  0
   10.0999  -15.7100   26.7662 O   0  0  0  0  0  0  0  0  0  0  0  0
  2  1  1  1
  2  3  1  0
  3  4  1  0
  4  5  1  0
  6  7  1  0
  6  5  1  0
  8  2  1  0
  8 10  1  0
  9  8  2  0
 10 14  1  0
 11 10  1  0
 12 13  1  0
 12 11  1  0
 13 14  1  0
 14 15  1  1
 15 16  2  0
 15 22  1  0
 17 18  1  0
 18 19  1  0
 19 20  1  0
 21 20  1  1
 21 23  1  0
 22 21  1  0
 23 24  2  0
 23 25  1  0
M  END
$$$$
