KPM.pdb
     RDKit          3D

 25 25  0  0  1  0  0  0  0  0999 V2000
    7.2366  -18.8401   19.5173 N   0  0  0  0  0  0  0  0  0  0  0  0
    6.8241  -17.7999   20.3769 C   0  0  1  0  0  0  0  0  0  0  0  0
    6.2171  -18.2039   21.6849 C   0  0  0  0  0  0  0  0  0  0  0  0
    7.0535  -19.0912   22.5217 C   0  0  0  0  0  0  0  0  0  0  0  0
    6.4076  -19.4721   23.8030 C   0  0  0  0  0  0  0  0  0  0  0  0
    7.3335  -20.3953   24.6246 C   0  0  0  0  0  0  0  0  0  0  0  0
    6.6887  -20.7715   25.8576 N   0  0  0  0  0  0  0  0  0  0  0  0
    7.8996  -16.7977   20.6210 C   0  0  0  0  0  0  0  0  0  0  0  0
    9.0326  -17.3101   20.8833 O   0  0  0  0  0  0  0  0  0  0  0  0
    7.7852  -15.4060   20.5903 N   0  0  0  0  0  0  0  0  0  0  0  0
    6.5716  -14.6741   20.3759 C   0  0  0  0  0  0  0  0  0  0  0  0
    6.8498  -13.2016   20.4707 C   0  0  0  0  0  0  0  0  0  0  0  0
    8.3473  -13.1314   20.2625 C   0  0  0  0  0  0  0  0  0  0  0  0
    8.8452  -14.4680   20.7635 C   0  0  1  0  0  0  0  0  0  0  0  0
    9.3148  -14.3339   22.1468 C   0  0  0  0  0  0  0  0  0  0  0  0
   10.3867  -13.7133   22.3655 O   0  0  0  0  0  0  0  0  0  0  0  0
    5.8020  -11.5148   26.7101 C   0  0  0  0  0  0  0  0  0  0  0  0
    7.4775  -12.0362   27.0741 S   0  0  0  0  0  0  0  0  0  0  0  0
    7.7899  -13.7583   26.6939 C   0  0  0  0  0  0  0  0  0  0  0  0
    7.4984  -14.1036   25.2478 C   0  0  0  0  0  0  0  0  0  0  0  0
    8.8143  -14.5394   24.6091 C   0  0  2  0  0  0  0  0  0  0  0  0
    8.5797  -14.8908   23.2242 N   0  0  0  0  0  0  0  0  0  0  0  0
    9.2610  -15.7679   25.3124 C   0  0  0  0  0  0  0  0  0  0  0  0
    9.0199  -16.9253   24.8494 O   0  0  0  0  0  0  0  0  0  0  0  0
    9.9634  -15.6971   26.5100 O   0  0  0  0  0  0  0  0  0  0  0  0
  2  1  1  1
  2  3  1  0
  3  4  1  0
  4  5  1  0
  6  7  1  0
  6  5  1  0
  8  2  1  0
  8 10  1  0
  9  8  2  0
 10 14  1  0
 11 10  1  0
 12 13  1  0
 12 11  1  0
 13 14  1  0
 14 15  1  1
 15 16  2  0
 15 22  1  0
 17 18  1  0
 18 19  1  0
 19 20  1  0
 21 20  1  1
 21 23  1  0
 22 21  1  0
 23 24  2  0
 23 25  1  0
M  END
$$$$
