KPM.pdb
     RDKit          3D

 25 25  0  0  1  0  0  0  0  0999 V2000
   11.4281  -17.2537   18.5285 N   0  0  0  0  0  0  0  0  0  0  0  0
   10.0857  -17.1870   18.9585 C   0  0  1  0  0  0  0  0  0  0  0  0
    9.3431  -18.4834   19.0613 C   0  0  0  0  0  0  0  0  0  0  0  0
   10.1546  -19.6437   19.4882 C   0  0  0  0  0  0  0  0  0  0  0  0
    9.9119  -20.0448   20.8968 C   0  0  0  0  0  0  0  0  0  0  0  0
   10.7723  -21.2722   21.2679 C   0  0  0  0  0  0  0  0  0  0  0  0
   10.6994  -21.5162   22.6866 N   0  0  0  0  0  0  0  0  0  0  0  0
    9.9285  -16.4266   20.2304 C   0  0  0  0  0  0  0  0  0  0  0  0
   11.0186  -16.2343   20.8548 O   0  0  0  0  0  0  0  0  0  0  0  0
    8.7456  -15.9258   20.7789 N   0  0  0  0  0  0  0  0  0  0  0  0
    7.4272  -16.1523   20.2642 C   0  0  0  0  0  0  0  0  0  0  0  0
    6.4181  -15.4963   21.1620 C   0  0  0  0  0  0  0  0  0  0  0  0
    7.2537  -14.4896   21.9228 C   0  0  0  0  0  0  0  0  0  0  0  0
    8.6347  -15.1044   21.9392 C   0  0  1  0  0  0  0  0  0  0  0  0
    8.8450  -15.8143   23.2057 C   0  0  0  0  0  0  0  0  0  0  0  0
    9.1259  -17.0398   23.1742 O   0  0  0  0  0  0  0  0  0  0  0  0
   10.9467  -14.1039   30.6899 C   0  0  0  0  0  0  0  0  0  0  0  0
    9.9789  -13.6486   29.2519 S   0  0  0  0  0  0  0  0  0  0  0  0
   10.1526  -14.7889   27.8818 C   0  0  0  0  0  0  0  0  0  0  0  0
    9.3573  -14.3690   26.6626 C   0  0  0  0  0  0  0  0  0  0  0  0
    9.5909  -15.4208   25.5815 C   0  0  2  0  0  0  0  0  0  0  0  0
    8.7356  -15.1386   24.4478 N   0  0  0  0  0  0  0  0  0  0  0  0
    9.1727  -16.7303   26.1418 C   0  0  0  0  0  0  0  0  0  0  0  0
    9.9780  -17.4628   26.7951 O   0  0  0  0  0  0  0  0  0  0  0  0
    7.8777  -17.2061   25.9712 O   0  0  0  0  0  0  0  0  0  0  0  0
  2  1  1  1
  2  3  1  0
  3  4  1  0
  4  5  1  0
  6  7  1  0
  6  5  1  0
  8  2  1  0
  8 10  1  0
  9  8  2  0
 10 14  1  0
 11 10  1  0
 12 13  1  0
 12 11  1  0
 13 14  1  0
 14 15  1  1
 15 16  2  0
 15 22  1  0
 17 18  1  0
 18 19  1  0
 19 20  1  0
 21 20  1  1
 21 23  1  0
 22 21  1  0
 23 24  2  0
 23 25  1  0
M  END
$$$$
