KPM.pdb
     RDKit          3D

 25 25  0  0  1  0  0  0  0  0999 V2000
    8.1976  -18.5773   18.9741 N   0  0  0  0  0  0  0  0  0  0  0  0
    7.5091  -17.6468   19.7813 C   0  0  1  0  0  0  0  0  0  0  0  0
    6.6949  -18.2017   20.9090 C   0  0  0  0  0  0  0  0  0  0  0  0
    5.8381  -19.3557   20.5609 C   0  0  0  0  0  0  0  0  0  0  0  0
    5.9945  -20.5051   21.4874 C   0  0  0  0  0  0  0  0  0  0  0  0
    5.0947  -21.6814   21.0503 C   0  0  0  0  0  0  0  0  0  0  0  0
    5.3638  -22.8391   21.8657 N   0  0  0  0  0  0  0  0  0  0  0  0
    8.3983  -16.5688   20.2989 C   0  0  0  0  0  0  0  0  0  0  0  0
    9.5525  -16.9732   20.6442 O   0  0  0  0  0  0  0  0  0  0  0  0
    8.0959  -15.2119   20.4350 N   0  0  0  0  0  0  0  0  0  0  0  0
    6.8146  -14.6157   20.1958 C   0  0  0  0  0  0  0  0  0  0  0  0
    6.8783  -13.1477   20.5052 C   0  0  0  0  0  0  0  0  0  0  0  0
    8.3637  -12.8615   20.4582 C   0  0  0  0  0  0  0  0  0  0  0  0
    8.9985  -14.1817   20.8315 C   0  0  1  0  0  0  0  0  0  0  0  0
    9.3302  -14.1845   22.2605 C   0  0  0  0  0  0  0  0  0  0  0  0
   10.2891  -13.4763   22.6615 O   0  0  0  0  0  0  0  0  0  0  0  0
    5.7969  -10.7228   26.4889 C   0  0  0  0  0  0  0  0  0  0  0  0
    5.9371  -12.5090   26.4491 S   0  0  0  0  0  0  0  0  0  0  0  0
    7.4769  -13.0906   25.7432 C   0  0  0  0  0  0  0  0  0  0  0  0
    7.3920  -14.5178   25.2418 C   0  0  0  0  0  0  0  0  0  0  0  0
    8.7409  -14.8621   24.6162 C   0  0  2  0  0  0  0  0  0  0  0  0
    8.5882  -14.9686   23.1803 N   0  0  0  0  0  0  0  0  0  0  0  0
    9.1346  -16.2002   25.1242 C   0  0  0  0  0  0  0  0  0  0  0  0
    8.8648  -17.2619   24.4825 O   0  0  0  0  0  0  0  0  0  0  0  0
    9.8167  -16.3416   26.3273 O   0  0  0  0  0  0  0  0  0  0  0  0
  2  1  1  1
  2  3  1  0
  3  4  1  0
  4  5  1  0
  6  7  1  0
  6  5  1  0
  8  2  1  0
  8 10  1  0
  9  8  2  0
 10 14  1  0
 11 10  1  0
 12 13  1  0
 12 11  1  0
 13 14  1  0
 14 15  1  1
 15 16  2  0
 15 22  1  0
 17 18  1  0
 18 19  1  0
 19 20  1  0
 21 20  1  1
 21 23  1  0
 22 21  1  0
 23 24  2  0
 23 25  1  0
M  END
$$$$
