KPM.pdb
     RDKit          3D

 25 25  0  0  1  0  0  0  0  0999 V2000
    6.8683  -15.4507   18.8597 N   0  0  0  0  0  0  0  0  0  0  0  0
    7.6239  -16.3702   19.6179 C   0  0  1  0  0  0  0  0  0  0  0  0
    9.1121  -16.3153   19.4603 C   0  0  0  0  0  0  0  0  0  0  0  0
    9.7613  -17.6054   19.1423 C   0  0  0  0  0  0  0  0  0  0  0  0
   10.8353  -17.4883   18.1242 C   0  0  0  0  0  0  0  0  0  0  0  0
   11.4731  -18.8669   17.8463 C   0  0  0  0  0  0  0  0  0  0  0  0
   12.4218  -18.7641   16.7660 N   0  0  0  0  0  0  0  0  0  0  0  0
    7.2800  -16.3369   21.0675 C   0  0  0  0  0  0  0  0  0  0  0  0
    7.1440  -15.1645   21.5389 O   0  0  0  0  0  0  0  0  0  0  0  0
    7.1005  -17.4270   21.9221 N   0  0  0  0  0  0  0  0  0  0  0  0
    7.2473  -18.8052   21.5569 C   0  0  0  0  0  0  0  0  0  0  0  0
    7.0279  -19.6708   22.7641 C   0  0  0  0  0  0  0  0  0  0  0  0
    6.2767  -18.7503   23.7018 C   0  0  0  0  0  0  0  0  0  0  0  0
    6.7403  -17.3684   23.3006 C   0  0  1  0  0  0  0  0  0  0  0  0
    7.8215  -16.9316   24.1907 C   0  0  0  0  0  0  0  0  0  0  0  0
    8.9887  -17.3480   23.9762 O   0  0  0  0  0  0  0  0  0  0  0  0
    6.6805  -10.5109   25.7946 C   0  0  0  0  0  0  0  0  0  0  0  0
    7.0058  -11.8899   26.8920 S   0  0  0  0  0  0  0  0  0  0  0  0
    7.7502  -13.2973   26.0719 C   0  0  0  0  0  0  0  0  0  0  0  0
    8.0481  -14.4408   27.0201 C   0  0  0  0  0  0  0  0  0  0  0  0
    8.5935  -15.5957   26.1844 C   0  0  2  0  0  0  0  0  0  0  0  0
    7.5641  -16.0557   25.2760 N   0  0  0  0  0  0  0  0  0  0  0  0
    8.8975  -16.7102   27.1166 C   0  0  0  0  0  0  0  0  0  0  0  0
    8.1088  -17.6951   27.2567 O   0  0  0  0  0  0  0  0  0  0  0  0
   10.0627  -16.7173   27.8748 O   0  0  0  0  0  0  0  0  0  0  0  0
  2  1  1  6
  2  3  1  0
  3  4  1  0
  4  5  1  0
  6  7  1  0
  6  5  1  0
  8  2  1  0
  8 10  1  0
  9  8  2  0
 10 14  1  0
 11 10  1  0
 12 13  1  0
 12 11  1  0
 13 14  1  0
 14 15  1  1
 15 16  2  0
 15 22  1  0
 17 18  1  0
 18 19  1  0
 19 20  1  0
 21 20  1  1
 21 23  1  0
 22 21  1  0
 23 24  2  0
 23 25  1  0
M  END
$$$$
