KPM.pdb
     RDKit          3D

 25 25  0  0  1  0  0  0  0  0999 V2000
   11.2177  -17.0327   18.3579 N   0  0  0  0  0  0  0  0  0  0  0  0
   10.0412  -17.3161   19.0839 C   0  0  1  0  0  0  0  0  0  0  0  0
    9.8006  -18.7482   19.4498 C   0  0  0  0  0  0  0  0  0  0  0  0
    9.2321  -19.5879   18.3733 C   0  0  0  0  0  0  0  0  0  0  0  0
    9.0395  -21.0048   18.7722 C   0  0  0  0  0  0  0  0  0  0  0  0
    8.4522  -21.8235   17.6020 C   0  0  0  0  0  0  0  0  0  0  0  0
    8.1658  -23.1684   18.0344 N   0  0  0  0  0  0  0  0  0  0  0  0
    9.8991  -16.4660   20.2995 C   0  0  0  0  0  0  0  0  0  0  0  0
   11.0055  -16.1373   20.8316 O   0  0  0  0  0  0  0  0  0  0  0  0
    8.7143  -16.0149   20.8856 N   0  0  0  0  0  0  0  0  0  0  0  0
    7.3911  -16.2910   20.4089 C   0  0  0  0  0  0  0  0  0  0  0  0
    6.3841  -15.6794   21.3399 C   0  0  0  0  0  0  0  0  0  0  0  0
    7.2018  -14.6439   22.0813 C   0  0  0  0  0  0  0  0  0  0  0  0
    8.6058  -15.2037   22.0533 C   0  0  1  0  0  0  0  0  0  0  0  0
    8.8815  -15.9103   23.3090 C   0  0  0  0  0  0  0  0  0  0  0  0
    8.6864  -17.1517   23.3613 O   0  0  0  0  0  0  0  0  0  0  0  0
    8.9241  -13.7302   29.8875 C   0  0  0  0  0  0  0  0  0  0  0  0
   10.4786  -14.5119   29.4584 S   0  0  0  0  0  0  0  0  0  0  0  0
   10.3713  -15.5795   28.0244 C   0  0  0  0  0  0  0  0  0  0  0  0
    9.9537  -14.8394   26.7701 C   0  0  0  0  0  0  0  0  0  0  0  0
    9.7758  -15.8780   25.6659 C   0  0  2  0  0  0  0  0  0  0  0  0
    9.3598  -15.2141   24.4482 N   0  0  0  0  0  0  0  0  0  0  0  0
    8.6732  -16.7805   26.0820 C   0  0  0  0  0  0  0  0  0  0  0  0
    8.8914  -17.8258   26.7687 O   0  0  0  0  0  0  0  0  0  0  0  0
    7.3539  -16.5138   25.7338 O   0  0  0  0  0  0  0  0  0  0  0  0
  2  1  1  1
  2  3  1  0
  3  4  1  0
  4  5  1  0
  6  7  1  0
  6  5  1  0
  8  2  1  0
  8 10  1  0
  9  8  2  0
 10 14  1  0
 11 10  1  0
 12 13  1  0
 12 11  1  0
 13 14  1  0
 14 15  1  1
 15 16  2  0
 15 22  1  0
 17 18  1  0
 18 19  1  0
 19 20  1  0
 21 20  1  1
 21 23  1  0
 22 21  1  0
 23 24  2  0
 23 25  1  0
M  END
$$$$
