KPM.pdb
     RDKit          3D

 25 25  0  0  1  0  0  0  0  0999 V2000
   11.6172  -18.0779   19.4427 N   0  0  0  0  0  0  0  0  0  0  0  0
   10.2227  -17.9316   19.6016 C   0  0  1  0  0  0  0  0  0  0  0  0
    9.4540  -19.1563   19.9914 C   0  0  0  0  0  0  0  0  0  0  0  0
   10.2301  -20.4152   19.9918 C   0  0  0  0  0  0  0  0  0  0  0  0
   10.9472  -20.6638   21.2677 C   0  0  0  0  0  0  0  0  0  0  0  0
   10.7938  -22.1387   21.6985 C   0  0  0  0  0  0  0  0  0  0  0  0
   11.6237  -22.9828   20.8761 N   0  0  0  0  0  0  0  0  0  0  0  0
    9.8647  -16.8123   20.5179 C   0  0  0  0  0  0  0  0  0  0  0  0
   10.7760  -16.5176   21.3533 O   0  0  0  0  0  0  0  0  0  0  0  0
    8.6717  -16.0863   20.5448 N   0  0  0  0  0  0  0  0  0  0  0  0
    7.5090  -16.3646   19.7543 C   0  0  0  0  0  0  0  0  0  0  0  0
    6.4168  -15.3973   20.1097 C   0  0  0  0  0  0  0  0  0  0  0  0
    7.1748  -14.2688   20.7750 C   0  0  0  0  0  0  0  0  0  0  0  0
    8.3959  -14.9457   21.3549 C   0  0  1  0  0  0  0  0  0  0  0  0
    8.1665  -15.2505   22.7714 C   0  0  0  0  0  0  0  0  0  0  0  0
    8.0100  -16.4500   23.1157 O   0  0  0  0  0  0  0  0  0  0  0  0
    5.9712  -10.9778   27.5731 C   0  0  0  0  0  0  0  0  0  0  0  0
    7.1640  -12.0611   28.3576 S   0  0  0  0  0  0  0  0  0  0  0  0
    7.5940  -13.4896   27.3666 C   0  0  0  0  0  0  0  0  0  0  0  0
    7.6932  -13.1717   25.8886 C   0  0  0  0  0  0  0  0  0  0  0  0
    8.0404  -14.4702   25.1654 C   0  0  2  0  0  0  0  0  0  0  0  0
    8.1207  -14.2174   23.7420 N   0  0  0  0  0  0  0  0  0  0  0  0
    6.9170  -15.4143   25.3890 C   0  0  0  0  0  0  0  0  0  0  0  0
    5.8324  -15.3255   24.7351 O   0  0  0  0  0  0  0  0  0  0  0  0
    7.0107  -16.4358   26.3273 O   0  0  0  0  0  0  0  0  0  0  0  0
  2  1  1  1
  2  3  1  0
  3  4  1  0
  4  5  1  0
  6  7  1  0
  6  5  1  0
  8  2  1  0
  8 10  1  0
  9  8  2  0
 10 14  1  0
 11 10  1  0
 12 13  1  0
 12 11  1  0
 13 14  1  0
 14 15  1  1
 15 16  2  0
 15 22  1  0
 17 18  1  0
 18 19  1  0
 19 20  1  0
 21 20  1  1
 21 23  1  0
 22 21  1  0
 23 24  2  0
 23 25  1  0
M  END
$$$$
