KPM.pdb
     RDKit          3D

 25 25  0  0  1  0  0  0  0  0999 V2000
   11.9972  -17.0051   19.5884 N   0  0  0  0  0  0  0  0  0  0  0  0
   10.6367  -17.2735   19.8497 C   0  0  1  0  0  0  0  0  0  0  0  0
   10.2862  -18.6771   20.2364 C   0  0  0  0  0  0  0  0  0  0  0  0
   10.5009  -19.6940   19.1843 C   0  0  0  0  0  0  0  0  0  0  0  0
   10.1460  -21.0698   19.6148 C   0  0  0  0  0  0  0  0  0  0  0  0
   10.3840  -22.0761   18.4680 C   0  0  0  0  0  0  0  0  0  0  0  0
   10.2268  -23.4244   18.9529 N   0  0  0  0  0  0  0  0  0  0  0  0
   10.0455  -16.3276   20.8380 C   0  0  0  0  0  0  0  0  0  0  0  0
   10.8698  -15.9119   21.7114 O   0  0  0  0  0  0  0  0  0  0  0  0
    8.7259  -15.8733   20.8932 N   0  0  0  0  0  0  0  0  0  0  0  0
    7.6921  -16.2008   19.9559 C   0  0  0  0  0  0  0  0  0  0  0  0
    6.4022  -15.5655   20.3888 C   0  0  0  0  0  0  0  0  0  0  0  0
    6.8671  -14.4774   21.3326 C   0  0  0  0  0  0  0  0  0  0  0  0
    8.1718  -15.0079   21.8818 C   0  0  1  0  0  0  0  0  0  0  0  0
    7.9381  -15.6456   23.1821 C   0  0  0  0  0  0  0  0  0  0  0  0
    8.1036  -16.8881   23.2863 O   0  0  0  0  0  0  0  0  0  0  0  0
    6.3602  -10.1767   26.8994 C   0  0  0  0  0  0  0  0  0  0  0  0
    6.0432  -11.9189   27.1748 S   0  0  0  0  0  0  0  0  0  0  0  0
    7.2571  -12.9960   26.4174 C   0  0  0  0  0  0  0  0  0  0  0  0
    6.9504  -14.4652   26.6242 C   0  0  0  0  0  0  0  0  0  0  0  0
    7.8426  -15.2558   25.6710 C   0  0  2  0  0  0  0  0  0  0  0  0
    7.5329  -14.8826   24.3067 N   0  0  0  0  0  0  0  0  0  0  0  0
    7.4977  -16.6906   25.8311 C   0  0  0  0  0  0  0  0  0  0  0  0
    6.5627  -17.2294   25.1622 O   0  0  0  0  0  0  0  0  0  0  0  0
    8.1886  -17.5022   26.7237 O   0  0  0  0  0  0  0  0  0  0  0  0
  2  1  1  1
  2  3  1  0
  3  4  1  0
  4  5  1  0
  6  7  1  0
  6  5  1  0
  8  2  1  0
  8 10  1  0
  9  8  2  0
 10 14  1  0
 11 10  1  0
 12 13  1  0
 12 11  1  0
 13 14  1  0
 14 15  1  1
 15 16  2  0
 15 22  1  0
 17 18  1  0
 18 19  1  0
 19 20  1  0
 21 20  1  1
 21 23  1  0
 22 21  1  0
 23 24  2  0
 23 25  1  0
M  END
$$$$
