AMR.pdb
     RDKit          3D

 25 24  0  0  1  0  0  0  0  0999 V2000
   16.4968   -8.3578  -17.6259 C   0  0  0  0  0  0  0  0  0  0  0  0
   17.0745   -7.4436  -16.5378 C   0  0  2  0  0  0  0  0  0  0  0  0
   18.4994   -7.5340  -16.4834 N   0  0  0  0  0  0  0  0  0  0  0  0
   16.5152   -7.9307  -15.2438 C   0  0  0  0  0  0  0  0  0  0  0  0
   15.2887   -7.9848  -15.1044 O   0  0  0  0  0  0  0  0  0  0  0  0
   17.5649  -14.2475  -13.8617 C   0  0  0  0  0  0  0  0  0  0  0  0
   17.9797  -12.8524  -12.8466 S   0  0  0  0  0  0  0  0  0  0  0  0
   17.2274  -11.2875  -13.2836 C   0  0  0  0  0  0  0  0  0  0  0  0
   17.5782  -10.1186  -12.4486 C   0  0  0  0  0  0  0  0  0  0  0  0
   16.9521   -8.8542  -12.9117 C   0  0  2  0  0  0  0  0  0  0  0  0
   17.3441   -8.3328  -14.1707 N   0  0  0  0  0  0  0  0  0  0  0  0
   16.7815   -7.8203  -11.8625 C   0  0  0  0  0  0  0  0  0  0  0  0
   17.4600   -6.7552  -11.8414 O   0  0  0  0  0  0  0  0  0  0  0  0
    9.9814   -7.2507   -6.2343 N   0  0  0  0  0  0  0  0  0  0  0  0
   10.6273   -6.0046   -6.1133 C   0  0  0  0  0  0  0  0  0  0  0  0
   10.0965   -5.0587   -5.3783 N   0  0  0  0  0  0  0  0  0  0  0  0
   11.8606   -5.7949   -6.8009 N   0  0  0  0  0  0  0  0  0  0  0  0
   12.4084   -6.8490   -7.6062 C   0  0  0  0  0  0  0  0  0  0  0  0
   13.7024   -6.3300   -8.2548 C   0  0  0  0  0  0  0  0  0  0  0  0
   14.1948   -7.4206   -9.1380 C   0  0  0  0  0  0  0  0  0  0  0  0
   15.4533   -7.0211   -9.8564 C   0  0  2  0  0  0  0  0  0  0  0  0
   15.8180   -8.0442  -10.8488 N   0  0  0  0  0  0  0  0  0  0  0  0
   16.5944   -6.7827   -8.9483 C   0  0  0  0  0  0  0  0  0  0  0  0
   17.3804   -7.7481   -8.6979 O   0  0  0  0  0  0  0  0  0  0  0  0
   16.9019   -5.5894   -8.3307 O   0  0  0  0  0  0  0  0  0  0  0  0
  2  1  1  6
  2  3  1  0
  4  2  1  0
  4  5  2  0
  6  7  1  0
  7  8  1  0
  8  9  1  0
 10  9  1  1
 10 11  1  0
 11  4  1  0
 12 13  2  0
 12 10  1  0
 15 14  1  0
 16 15  2  0
 17 15  1  0
 18 17  1  0
 19 18  1  0
 20 19  1  0
 21 22  1  0
 21 20  1  1
 22 12  1  0
 23 21  1  0
 24 23  2  0
 25 23  1  0
M  END
$$$$
