AMR.pdb
     RDKit          3D

 25 24  0  0  1  0  0  0  0  0999 V2000
   15.1638  -32.1152  -13.4611 C   0  0  0  0  0  0  0  0  0  0  0  0
   15.6577  -32.0319  -12.0110 C   0  0  2  0  0  0  0  0  0  0  0  0
   14.5681  -31.9037  -11.0957 N   0  0  0  0  0  0  0  0  0  0  0  0
   16.4990  -30.8032  -11.9270 C   0  0  0  0  0  0  0  0  0  0  0  0
   15.9464  -29.6980  -11.9304 O   0  0  0  0  0  0  0  0  0  0  0  0
   22.9776  -30.6040   -9.5169 C   0  0  0  0  0  0  0  0  0  0  0  0
   22.3491  -28.9559   -9.7102 S   0  0  0  0  0  0  0  0  0  0  0  0
   20.8172  -28.7806  -10.6203 C   0  0  0  0  0  0  0  0  0  0  0  0
   20.0412  -30.0143  -10.8707 C   0  0  0  0  0  0  0  0  0  0  0  0
   18.8216  -29.7879  -11.6870 C   0  0  2  0  0  0  0  0  0  0  0  0
   17.9096  -30.8624  -11.8437 N   0  0  0  0  0  0  0  0  0  0  0  0
   19.0351  -28.9989  -12.9243 C   0  0  0  0  0  0  0  0  0  0  0  0
   19.2921  -29.5372  -14.0376 O   0  0  0  0  0  0  0  0  0  0  0  0
   21.3841  -20.5556  -13.6134 N   0  0  0  0  0  0  0  0  0  0  0  0
   21.0411  -20.8924  -14.9376 C   0  0  0  0  0  0  0  0  0  0  0  0
   21.2730  -20.0466  -15.9111 N   0  0  0  0  0  0  0  0  0  0  0  0
   20.4415  -22.1619  -15.1955 N   0  0  0  0  0  0  0  0  0  0  0  0
   20.2199  -23.0723  -14.1084 C   0  0  0  0  0  0  0  0  0  0  0  0
   19.7129  -24.4004  -14.6946 C   0  0  0  0  0  0  0  0  0  0  0  0
   19.5615  -25.3341  -13.5469 C   0  0  0  0  0  0  0  0  0  0  0  0
   19.1629  -26.7092  -14.0051 C   0  0  2  0  0  0  0  0  0  0  0  0
   18.9454  -27.5876  -12.8451 N   0  0  0  0  0  0  0  0  0  0  0  0
   20.1454  -27.3289  -14.9185 C   0  0  0  0  0  0  0  0  0  0  0  0
   19.9090  -27.3078  -16.1660 O   0  0  0  0  0  0  0  0  0  0  0  0
   21.3225  -27.9417  -14.5462 O   0  0  0  0  0  0  0  0  0  0  0  0
  2  1  1  6
  2  3  1  0
  4  2  1  0
  4  5  2  0
  6  7  1  0
  7  8  1  0
  8  9  1  0
 10  9  1  6
 10 11  1  0
 11  4  1  0
 12 13  2  0
 12 10  1  0
 15 14  1  0
 16 15  2  0
 17 15  1  0
 18 17  1  0
 19 18  1  0
 20 19  1  0
 21 22  1  0
 21 20  1  1
 22 12  1  0
 23 21  1  0
 24 23  2  0
 25 23  1  0
M  END
$$$$
