AMR.pdb
     RDKit          3D

 25 24  0  0  1  0  0  0  0  0999 V2000
   17.7872  -14.7420  -15.9384 C   0  0  0  0  0  0  0  0  0  0  0  0
   18.2729  -13.6706  -16.9230 C   0  0  2  0  0  0  0  0  0  0  0  0
   18.8807  -14.2582  -18.0748 N   0  0  0  0  0  0  0  0  0  0  0  0
   19.3009  -12.8713  -16.1958 C   0  0  0  0  0  0  0  0  0  0  0  0
   18.9853  -12.3059  -15.1435 O   0  0  0  0  0  0  0  0  0  0  0  0
   26.8510  -10.7617  -14.7895 C   0  0  0  0  0  0  0  0  0  0  0  0
   25.7199  -11.8888  -15.5635 S   0  0  0  0  0  0  0  0  0  0  0  0
   23.9986  -11.3976  -15.6076 C   0  0  0  0  0  0  0  0  0  0  0  0
   23.0435  -12.3545  -16.2066 C   0  0  0  0  0  0  0  0  0  0  0  0
   21.6407  -11.8673  -16.2030 C   0  0  2  0  0  0  0  0  0  0  0  0
   20.6260  -12.7396  -16.6724 N   0  0  0  0  0  0  0  0  0  0  0  0
   21.4668  -10.4595  -16.6351 C   0  0  0  0  0  0  0  0  0  0  0  0
   21.6186  -10.0930  -17.8342 O   0  0  0  0  0  0  0  0  0  0  0  0
   14.9662   -5.2395  -15.2857 N   0  0  0  0  0  0  0  0  0  0  0  0
   15.9144   -4.3400  -15.8112 C   0  0  0  0  0  0  0  0  0  0  0  0
   15.5632   -3.1118  -16.1024 N   0  0  0  0  0  0  0  0  0  0  0  0
   17.2536   -4.7891  -16.0182 N   0  0  0  0  0  0  0  0  0  0  0  0
   17.5994   -6.1467  -15.7070 C   0  0  0  0  0  0  0  0  0  0  0  0
   19.0864   -6.3488  -16.0423 C   0  0  0  0  0  0  0  0  0  0  0  0
   19.3859   -7.7803  -15.7724 C   0  0  0  0  0  0  0  0  0  0  0  0
   20.8408   -8.0889  -15.9906 C   0  0  2  0  0  0  0  0  0  0  0  0
   21.1169   -9.4952  -15.6584 N   0  0  0  0  0  0  0  0  0  0  0  0
   21.7465   -7.2109  -15.2209 C   0  0  0  0  0  0  0  0  0  0  0  0
   22.1806   -7.6222  -14.1007 O   0  0  0  0  0  0  0  0  0  0  0  0
   22.1807   -5.9602  -15.6045 O   0  0  0  0  0  0  0  0  0  0  0  0
  2  1  1  1
  2  3  1  0
  4  2  1  0
  4  5  2  0
  6  7  1  0
  7  8  1  0
  8  9  1  0
 10  9  1  6
 10 11  1  0
 11  4  1  0
 12 13  2  0
 12 10  1  0
 15 14  1  0
 16 15  2  0
 17 15  1  0
 18 17  1  0
 19 18  1  0
 20 19  1  0
 21 22  1  0
 21 20  1  1
 22 12  1  0
 23 21  1  0
 24 23  2  0
 25 23  1  0
M  END
$$$$
