AMR.pdb
     RDKit          3D

 25 24  0  0  1  0  0  0  0  0999 V2000
   29.9241  -21.8658  -17.0110 C   0  0  0  0  0  0  0  0  0  0  0  0
   29.1166  -20.7343  -16.3620 C   0  0  2  0  0  0  0  0  0  0  0  0
   29.8947  -19.5422  -16.2399 N   0  0  0  0  0  0  0  0  0  0  0  0
   28.7551  -21.2108  -14.9957 C   0  0  0  0  0  0  0  0  0  0  0  0
   28.0304  -22.2050  -14.8808 O   0  0  0  0  0  0  0  0  0  0  0  0
   31.9642  -21.8640   -9.0109 C   0  0  0  0  0  0  0  0  0  0  0  0
   32.2834  -22.3130  -10.6976 S   0  0  0  0  0  0  0  0  0  0  0  0
   30.9825  -21.9740  -11.8803 C   0  0  0  0  0  0  0  0  0  0  0  0
   29.9602  -20.9808  -11.4863 C   0  0  0  0  0  0  0  0  0  0  0  0
   28.8665  -20.8347  -12.4800 C   0  0  2  0  0  0  0  0  0  0  0  0
   29.2154  -20.5610  -13.8269 N   0  0  0  0  0  0  0  0  0  0  0  0
   27.6847  -20.0771  -12.0020 C   0  0  0  0  0  0  0  0  0  0  0  0
   27.4977  -18.8604  -12.2847 O   0  0  0  0  0  0  0  0  0  0  0  0
   21.3684  -20.8367  -15.6169 N   0  0  0  0  0  0  0  0  0  0  0  0
   20.5415  -20.7363  -14.4809 C   0  0  0  0  0  0  0  0  0  0  0  0
   19.3101  -20.3050  -14.6013 N   0  0  0  0  0  0  0  0  0  0  0  0
   21.0669  -21.1105  -13.2074 N   0  0  0  0  0  0  0  0  0  0  0  0
   22.4430  -21.5032  -13.0987 C   0  0  0  0  0  0  0  0  0  0  0  0
   23.2299  -20.3236  -12.5041 C   0  0  0  0  0  0  0  0  0  0  0  0
   24.6563  -20.7434  -12.4758 C   0  0  0  0  0  0  0  0  0  0  0  0
   25.3097  -20.3849  -11.1703 C   0  0  2  0  0  0  0  0  0  0  0  0
   26.7341  -20.7522  -11.1978 N   0  0  0  0  0  0  0  0  0  0  0  0
   24.6593  -21.0100   -9.9999 C   0  0  0  0  0  0  0  0  0  0  0  0
   25.2015  -22.0348   -9.4820 O   0  0  0  0  0  0  0  0  0  0  0  0
   23.4959  -20.5831   -9.3965 O   0  0  0  0  0  0  0  0  0  0  0  0
  2  1  1  1
  2  3  1  0
  4  2  1  0
  4  5  2  0
  6  7  1  0
  7  8  1  0
  8  9  1  0
 10  9  1  1
 10 11  1  0
 11  4  1  0
 12 13  2  0
 12 10  1  0
 15 14  1  0
 16 15  2  0
 17 15  1  0
 18 17  1  0
 19 18  1  0
 20 19  1  0
 21 22  1  0
 21 20  1  6
 22 12  1  0
 23 21  1  0
 24 23  2  0
 25 23  1  0
M  END
$$$$
