AMR.pdb
     RDKit          3D

 25 24  0  0  1  0  0  0  0  0999 V2000
   21.6575  -18.4762  -16.7498 C   0  0  0  0  0  0  0  0  0  0  0  0
   21.3583  -17.5191  -17.9108 C   0  0  2  0  0  0  0  0  0  0  0  0
   21.4361  -18.1880  -19.1710 N   0  0  0  0  0  0  0  0  0  0  0  0
   22.4120  -16.4645  -17.8639 C   0  0  0  0  0  0  0  0  0  0  0  0
   22.5056  -15.7565  -16.8557 O   0  0  0  0  0  0  0  0  0  0  0  0
   28.5464  -16.6440  -20.8656 C   0  0  0  0  0  0  0  0  0  0  0  0
   28.1605  -14.9387  -20.5628 S   0  0  0  0  0  0  0  0  0  0  0  0
   26.6258  -14.6012  -19.7045 C   0  0  0  0  0  0  0  0  0  0  0  0
   25.5968  -15.6630  -19.7282 C   0  0  0  0  0  0  0  0  0  0  0  0
   24.3419  -15.2833  -19.0312 C   0  0  2  0  0  0  0  0  0  0  0  0
   23.3077  -16.2489  -18.9370 N   0  0  0  0  0  0  0  0  0  0  0  0
   23.8562  -13.9124  -19.3209 C   0  0  0  0  0  0  0  0  0  0  0  0
   23.2327  -13.6222  -20.3803 O   0  0  0  0  0  0  0  0  0  0  0  0
   21.5155   -7.8176  -13.5579 N   0  0  0  0  0  0  0  0  0  0  0  0
   20.9334   -7.4222  -14.7783 C   0  0  0  0  0  0  0  0  0  0  0  0
   20.0225   -6.4805  -14.7966 N   0  0  0  0  0  0  0  0  0  0  0  0
   21.3520   -8.0619  -15.9838 N   0  0  0  0  0  0  0  0  0  0  0  0
   22.3011   -9.1366  -15.9205 C   0  0  0  0  0  0  0  0  0  0  0  0
   22.4484   -9.7265  -17.3328 C   0  0  0  0  0  0  0  0  0  0  0  0
   23.3960  -10.8666  -17.2138 C   0  0  0  0  0  0  0  0  0  0  0  0
   23.6583  -11.5059  -18.5487 C   0  0  2  0  0  0  0  0  0  0  0  0
   24.1056  -12.8956  -18.3670 N   0  0  0  0  0  0  0  0  0  0  0  0
   24.6460  -10.7702  -19.3653 C   0  0  0  0  0  0  0  0  0  0  0  0
   24.2251   -9.8809  -20.1682 O   0  0  0  0  0  0  0  0  0  0  0  0
   26.0119  -10.9537  -19.3433 O   0  0  0  0  0  0  0  0  0  0  0  0
  2  1  1  1
  2  3  1  0
  4  2  1  0
  4  5  2  0
  6  7  1  0
  7  8  1  0
  8  9  1  0
 10  9  1  6
 10 11  1  0
 11  4  1  0
 12 13  2  0
 12 10  1  0
 15 14  1  0
 16 15  2  0
 17 15  1  0
 18 17  1  0
 19 18  1  0
 20 19  1  0
 21 22  1  0
 21 20  1  1
 22 12  1  0
 23 21  1  0
 24 23  2  0
 25 23  1  0
M  END
$$$$
