AMR.pdb
     RDKit          3D

 25 24  0  0  1  0  0  0  0  0999 V2000
   23.1298  -20.6812  -17.2377 C   0  0  0  0  0  0  0  0  0  0  0  0
   23.8538  -19.6278  -18.0861 C   0  0  2  0  0  0  0  0  0  0  0  0
   25.2682  -19.8293  -18.0719 N   0  0  0  0  0  0  0  0  0  0  0  0
   23.5529  -18.3086  -17.4587 C   0  0  0  0  0  0  0  0  0  0  0  0
   22.3838  -18.0390  -17.1633 O   0  0  0  0  0  0  0  0  0  0  0  0
   27.9849  -18.3103  -13.5307 C   0  0  0  0  0  0  0  0  0  0  0  0
   27.4418  -17.3219  -14.9007 S   0  0  0  0  0  0  0  0  0  0  0  0
   25.8873  -16.4559  -14.7016 C   0  0  0  0  0  0  0  0  0  0  0  0
   25.4956  -15.5246  -15.7814 C   0  0  0  0  0  0  0  0  0  0  0  0
   24.4147  -16.0527  -16.6519 C   0  0  2  0  0  0  0  0  0  0  0  0
   24.5633  -17.3558  -17.1910 N   0  0  0  0  0  0  0  0  0  0  0  0
   23.8455  -15.0713  -17.6068 C   0  0  0  0  0  0  0  0  0  0  0  0
   24.1675  -15.0458  -18.8278 O   0  0  0  0  0  0  0  0  0  0  0  0
   16.3901  -10.4522  -16.8376 N   0  0  0  0  0  0  0  0  0  0  0  0
   16.9001  -10.0573  -18.0900 C   0  0  0  0  0  0  0  0  0  0  0  0
   16.1742   -9.3162  -18.8904 N   0  0  0  0  0  0  0  0  0  0  0  0
   18.2118  -10.4766  -18.4663 N   0  0  0  0  0  0  0  0  0  0  0  0
   18.9510  -11.3482  -17.5983 C   0  0  0  0  0  0  0  0  0  0  0  0
   20.2378  -11.7683  -18.3277 C   0  0  0  0  0  0  0  0  0  0  0  0
   20.9696  -12.6712  -17.3997 C   0  0  0  0  0  0  0  0  0  0  0  0
   22.2853  -13.1083  -17.9805 C   0  0  2  0  0  0  0  0  0  0  0  0
   22.9050  -14.1298  -17.1219 N   0  0  0  0  0  0  0  0  0  0  0  0
   23.2327  -11.9932  -18.1867 C   0  0  0  0  0  0  0  0  0  0  0  0
   24.0545  -11.7179  -17.2585 O   0  0  0  0  0  0  0  0  0  0  0  0
   23.3192  -11.2022  -19.3122 O   0  0  0  0  0  0  0  0  0  0  0  0
  2  1  1  1
  2  3  1  0
  4  2  1  0
  4  5  2  0
  6  7  1  0
  7  8  1  0
  8  9  1  0
 10  9  1  6
 10 11  1  0
 11  4  1  0
 12 13  2  0
 12 10  1  0
 15 14  1  0
 16 15  2  0
 17 15  1  0
 18 17  1  0
 19 18  1  0
 20 19  1  0
 21 22  1  0
 21 20  1  1
 22 12  1  0
 23 21  1  0
 24 23  2  0
 25 23  1  0
M  END
$$$$
