AMR.pdb
     RDKit          3D

 25 24  0  0  1  0  0  0  0  0999 V2000
   26.9370  -17.9712  -15.6062 C   0  0  0  0  0  0  0  0  0  0  0  0
   27.8624  -19.0798  -15.0883 C   0  0  2  0  0  0  0  0  0  0  0  0
   28.4011  -19.8531  -16.1622 N   0  0  0  0  0  0  0  0  0  0  0  0
   27.0159  -19.9666  -14.2388 C   0  0  0  0  0  0  0  0  0  0  0  0
   26.3595  -20.8636  -14.7785 O   0  0  0  0  0  0  0  0  0  0  0  0
   27.0216  -21.1664   -7.1621 C   0  0  0  0  0  0  0  0  0  0  0  0
   25.4333  -20.8180   -7.8724 S   0  0  0  0  0  0  0  0  0  0  0  0
   25.2879  -21.0027   -9.6474 C   0  0  0  0  0  0  0  0  0  0  0  0
   26.2406  -20.2387  -10.4813 C   0  0  0  0  0  0  0  0  0  0  0  0
   26.0174  -20.4108  -11.9393 C   0  0  2  0  0  0  0  0  0  0  0  0
   26.9405  -19.8137  -12.8349 N   0  0  0  0  0  0  0  0  0  0  0  0
   24.6038  -20.2972  -12.3729 C   0  0  0  0  0  0  0  0  0  0  0  0
   24.0398  -19.1838  -12.5665 O   0  0  0  0  0  0  0  0  0  0  0  0
   17.9639  -25.1915  -15.1104 N   0  0  0  0  0  0  0  0  0  0  0  0
   19.0533  -24.7805  -15.9033 C   0  0  0  0  0  0  0  0  0  0  0  0
   18.9358  -24.7350  -17.2075 N   0  0  0  0  0  0  0  0  0  0  0  0
   20.2768  -24.4177  -15.2635 N   0  0  0  0  0  0  0  0  0  0  0  0
   20.3988  -24.5593  -13.8406 C   0  0  0  0  0  0  0  0  0  0  0  0
   20.6544  -23.1658  -13.2429 C   0  0  0  0  0  0  0  0  0  0  0  0
   22.0750  -22.8380  -13.5369 C   0  0  0  0  0  0  0  0  0  0  0  0
   22.4535  -21.4902  -12.9894 C   0  0  2  0  0  0  0  0  0  0  0  0
   23.8653  -21.4887  -12.5753 N   0  0  0  0  0  0  0  0  0  0  0  0
   21.6051  -21.0590  -11.8590 C   0  0  0  0  0  0  0  0  0  0  0  0
   22.0546  -21.1943  -10.6790 O   0  0  0  0  0  0  0  0  0  0  0  0
   20.3446  -20.5098  -11.9564 O   0  0  0  0  0  0  0  0  0  0  0  0
  2  1  1  6
  2  3  1  0
  4  2  1  0
  4  5  2  0
  6  7  1  0
  7  8  1  0
  8  9  1  0
 10  9  1  1
 10 11  1  0
 11  4  1  0
 12 13  2  0
 12 10  1  0
 15 14  1  0
 16 15  2  0
 17 15  1  0
 18 17  1  0
 19 18  1  0
 20 19  1  0
 21 22  1  0
 21 20  1  1
 22 12  1  0
 23 21  1  0
 24 23  2  0
 25 23  1  0
M  END
$$$$
