AMR.pdb
     RDKit          3D

 25 24  0  0  1  0  0  0  0  0999 V2000
   19.9398  -11.5209  -19.5151 C   0  0  0  0  0  0  0  0  0  0  0  0
   21.3374  -12.0410  -19.1548 C   0  0  2  0  0  0  0  0  0  0  0  0
   21.3769  -13.4692  -19.1498 N   0  0  0  0  0  0  0  0  0  0  0  0
   21.6219  -11.5505  -17.7752 C   0  0  0  0  0  0  0  0  0  0  0  0
   20.9719  -12.0105  -16.8305 O   0  0  0  0  0  0  0  0  0  0  0  0
   27.9069  -12.2656  -15.6199 C   0  0  0  0  0  0  0  0  0  0  0  0
   26.9505  -10.7735  -15.7076 S   0  0  0  0  0  0  0  0  0  0  0  0
   25.1990  -10.9585  -16.0300 C   0  0  0  0  0  0  0  0  0  0  0  0
   24.3719   -9.7345  -15.9624 C   0  0  0  0  0  0  0  0  0  0  0  0
   22.9394   -9.9733  -16.2722 C   0  0  2  0  0  0  0  0  0  0  0  0
   22.6124  -10.5754  -17.5137 N   0  0  0  0  0  0  0  0  0  0  0  0
   22.0235   -8.8749  -15.8801 C   0  0  0  0  0  0  0  0  0  0  0  0
   21.7231   -7.9290  -16.6613 O   0  0  0  0  0  0  0  0  0  0  0  0
   15.0056   -8.7587  -10.0634 N   0  0  0  0  0  0  0  0  0  0  0  0
   15.9072   -7.6809   -9.9651 C   0  0  0  0  0  0  0  0  0  0  0  0
   16.0033   -7.0053   -8.8465 N   0  0  0  0  0  0  0  0  0  0  0  0
   16.7072   -7.3424  -11.0979 N   0  0  0  0  0  0  0  0  0  0  0  0
   17.7794   -8.2118  -11.4906 C   0  0  0  0  0  0  0  0  0  0  0  0
   18.5386   -7.5402  -12.6469 C   0  0  0  0  0  0  0  0  0  0  0  0
   19.6292   -8.4756  -13.0311 C   0  0  0  0  0  0  0  0  0  0  0  0
   20.5014   -7.8916  -14.1071 C   0  0  2  0  0  0  0  0  0  0  0  0
   21.4687   -8.8956  -14.5770 N   0  0  0  0  0  0  0  0  0  0  0  0
   21.2200   -6.6730  -13.6801 C   0  0  0  0  0  0  0  0  0  0  0  0
   22.3210   -6.8054  -13.0614 O   0  0  0  0  0  0  0  0  0  0  0  0
   20.8081   -5.3747  -13.8909 O   0  0  0  0  0  0  0  0  0  0  0  0
  2  1  1  1
  2  3  1  0
  4  2  1  0
  4  5  2  0
  6  7  1  0
  7  8  1  0
  8  9  1  0
 10  9  1  6
 10 11  1  0
 11  4  1  0
 12 13  2  0
 12 10  1  0
 15 14  1  0
 16 15  2  0
 17 15  1  0
 18 17  1  0
 19 18  1  0
 20 19  1  0
 21 22  1  0
 21 20  1  1
 22 12  1  0
 23 21  1  0
 24 23  2  0
 25 23  1  0
M  END
$$$$
