AMR.pdb
     RDKit          3D

 25 24  0  0  1  0  0  0  0  0999 V2000
   23.0031  -28.6827  -17.9381 C   0  0  0  0  0  0  0  0  0  0  0  0
   23.3484  -27.2098  -17.6836 C   0  0  2  0  0  0  0  0  0  0  0  0
   24.7603  -27.0150  -17.5836 N   0  0  0  0  0  0  0  0  0  0  0  0
   22.7235  -26.8549  -16.3766 C   0  0  0  0  0  0  0  0  0  0  0  0
   23.1482  -27.3877  -15.3459 O   0  0  0  0  0  0  0  0  0  0  0  0
   18.3677  -21.5501  -12.2500 C   0  0  0  0  0  0  0  0  0  0  0  0
   19.1970  -21.9945  -13.7545 S   0  0  0  0  0  0  0  0  0  0  0  0
   19.8111  -23.6725  -13.8691 C   0  0  0  0  0  0  0  0  0  0  0  0
   20.5089  -24.0473  -15.1179 C   0  0  0  0  0  0  0  0  0  0  0  0
   21.0340  -25.4362  -15.1056 C   0  0  2  0  0  0  0  0  0  0  0  0
   21.6600  -25.9277  -16.2792 N   0  0  0  0  0  0  0  0  0  0  0  0
   20.1615  -26.4284  -14.4323 C   0  0  0  0  0  0  0  0  0  0  0  0
   19.2017  -26.9999  -15.0218 O   0  0  0  0  0  0  0  0  0  0  0  0
   21.9130  -32.1056   -9.5107 N   0  0  0  0  0  0  0  0  0  0  0  0
   22.6458  -30.9200   -9.7154 C   0  0  0  0  0  0  0  0  0  0  0  0
   23.9178  -30.9794  -10.0239 N   0  0  0  0  0  0  0  0  0  0  0  0
   21.9809  -29.6638   -9.5816 N   0  0  0  0  0  0  0  0  0  0  0  0
   20.6043  -29.6328   -9.1770 C   0  0  0  0  0  0  0  0  0  0  0  0
   19.7504  -29.3148  -10.4156 C   0  0  0  0  0  0  0  0  0  0  0  0
   20.4215  -28.1822  -11.1075 C   0  0  0  0  0  0  0  0  0  0  0  0
   19.6603  -27.7566  -12.3319 C   0  0  2  0  0  0  0  0  0  0  0  0
   20.4221  -26.7413  -13.0757 N   0  0  0  0  0  0  0  0  0  0  0  0
   18.3092  -27.2399  -12.0302 C   0  0  0  0  0  0  0  0  0  0  0  0
   18.1909  -26.0268  -11.6737 O   0  0  0  0  0  0  0  0  0  0  0  0
   17.1342  -27.9572  -12.0991 O   0  0  0  0  0  0  0  0  0  0  0  0
  2  1  1  1
  2  3  1  0
  4  2  1  0
  4  5  2  0
  6  7  1  0
  7  8  1  0
  8  9  1  0
 10  9  1  6
 10 11  1  0
 11  4  1  0
 12 13  2  0
 12 10  1  0
 15 14  1  0
 16 15  2  0
 17 15  1  0
 18 17  1  0
 19 18  1  0
 20 19  1  0
 21 22  1  0
 21 20  1  1
 22 12  1  0
 23 21  1  0
 24 23  2  0
 25 23  1  0
M  END
$$$$
