AMR.pdb
     RDKit          3D

 25 24  0  0  1  0  0  0  0  0999 V2000
   30.2081  -20.2991  -11.6390 C   0  0  0  0  0  0  0  0  0  0  0  0
   30.4816  -20.8729  -10.2428 C   0  0  2  0  0  0  0  0  0  0  0  0
   31.2183  -22.0949  -10.3165 N   0  0  0  0  0  0  0  0  0  0  0  0
   29.1472  -21.1553   -9.6393 C   0  0  0  0  0  0  0  0  0  0  0  0
   28.5329  -22.1678   -9.9921 O   0  0  0  0  0  0  0  0  0  0  0  0
   27.6000  -18.1330   -3.8555 C   0  0  0  0  0  0  0  0  0  0  0  0
   27.8316  -19.8781   -4.0780 S   0  0  0  0  0  0  0  0  0  0  0  0
   27.9574  -20.4643   -5.7652 C   0  0  0  0  0  0  0  0  0  0  0  0
   27.0373  -19.8628   -6.7543 C   0  0  0  0  0  0  0  0  0  0  0  0
   27.2517  -20.3597   -8.1371 C   0  0  2  0  0  0  0  0  0  0  0  0
   28.5621  -20.3011   -8.6759 N   0  0  0  0  0  0  0  0  0  0  0  0
   26.1897  -19.9928   -9.1048 C   0  0  0  0  0  0  0  0  0  0  0  0
   25.9065  -18.7932   -9.3805 O   0  0  0  0  0  0  0  0  0  0  0  0
   24.7431  -25.3007  -15.7410 N   0  0  0  0  0  0  0  0  0  0  0  0
   23.6111  -25.0782  -14.9326 C   0  0  0  0  0  0  0  0  0  0  0  0
   22.6145  -25.9286  -14.9501 N   0  0  0  0  0  0  0  0  0  0  0  0
   23.5717  -23.9184  -14.1012 N   0  0  0  0  0  0  0  0  0  0  0  0
   24.6787  -23.0051  -14.1100 C   0  0  0  0  0  0  0  0  0  0  0  0
   24.3051  -21.7947  -13.2383 C   0  0  0  0  0  0  0  0  0  0  0  0
   25.0222  -21.9711  -11.9473 C   0  0  0  0  0  0  0  0  0  0  0  0
   24.7335  -20.8414  -10.9986 C   0  0  2  0  0  0  0  0  0  0  0  0
   25.4704  -21.0345   -9.7400 N   0  0  0  0  0  0  0  0  0  0  0  0
   23.2941  -20.6741  -10.7095 C   0  0  0  0  0  0  0  0  0  0  0  0
   22.8274  -21.1851   -9.6447 O   0  0  0  0  0  0  0  0  0  0  0  0
   22.3832  -20.0021  -11.4960 O   0  0  0  0  0  0  0  0  0  0  0  0
  2  1  1  6
  2  3  1  0
  4  2  1  0
  4  5  2  0
  6  7  1  0
  7  8  1  0
  8  9  1  0
 10  9  1  1
 10 11  1  0
 11  4  1  0
 12 13  2  0
 12 10  1  0
 15 14  1  0
 16 15  2  0
 17 15  1  0
 18 17  1  0
 19 18  1  0
 20 19  1  0
 21 22  1  0
 21 20  1  6
 22 12  1  0
 23 21  1  0
 24 23  2  0
 25 23  1  0
M  END
$$$$
