AMR.pdb
     RDKit          3D

 25 24  0  0  1  0  0  0  0  0999 V2000
   26.2664  -32.3793  -15.6933 C   0  0  0  0  0  0  0  0  0  0  0  0
   25.1004  -33.3428  -15.4374 C   0  0  2  0  0  0  0  0  0  0  0  0
   23.8538  -32.7702  -15.8369 N   0  0  0  0  0  0  0  0  0  0  0  0
   25.0684  -33.5767  -13.9647 C   0  0  0  0  0  0  0  0  0  0  0  0
   26.0380  -34.1186  -13.4236 O   0  0  0  0  0  0  0  0  0  0  0  0
   22.4735  -29.5123   -9.2353 C   0  0  0  0  0  0  0  0  0  0  0  0
   23.0934  -30.9799   -8.4539 S   0  0  0  0  0  0  0  0  0  0  0  0
   23.3946  -32.3903   -9.5149 C   0  0  0  0  0  0  0  0  0  0  0  0
   23.4854  -32.1292  -10.9677 C   0  0  0  0  0  0  0  0  0  0  0  0
   23.8083  -33.3396  -11.7650 C   0  0  2  0  0  0  0  0  0  0  0  0
   23.9633  -33.1980  -13.1674 N   0  0  0  0  0  0  0  0  0  0  0  0
   23.0765  -34.5655  -11.3645 C   0  0  0  0  0  0  0  0  0  0  0  0
   21.9228  -34.8406  -11.7988 O   0  0  0  0  0  0  0  0  0  0  0  0
   26.9512  -41.7676  -10.0676 N   0  0  0  0  0  0  0  0  0  0  0  0
   26.4012  -41.0242  -11.1303 C   0  0  0  0  0  0  0  0  0  0  0  0
   26.9087  -41.1256  -12.3341 N   0  0  0  0  0  0  0  0  0  0  0  0
   25.2899  -40.1662  -10.8722 N   0  0  0  0  0  0  0  0  0  0  0  0
   24.7263  -40.1177   -9.5533 C   0  0  0  0  0  0  0  0  0  0  0  0
   23.5636  -39.1116   -9.5683 C   0  0  0  0  0  0  0  0  0  0  0  0
   24.1531  -37.7957   -9.9326 C   0  0  0  0  0  0  0  0  0  0  0  0
   23.0965  -36.7328  -10.0493 C   0  0  2  0  0  0  0  0  0  0  0  0
   23.7032  -35.4568  -10.4596 N   0  0  0  0  0  0  0  0  0  0  0  0
   22.3244  -36.5368   -8.8047 C   0  0  0  0  0  0  0  0  0  0  0  0
   22.5178  -35.4765   -8.1332 O   0  0  0  0  0  0  0  0  0  0  0  0
   21.3911  -37.4081   -8.2855 O   0  0  0  0  0  0  0  0  0  0  0  0
  2  1  1  1
  2  3  1  0
  4  2  1  0
  4  5  2  0
  6  7  1  0
  7  8  1  0
  8  9  1  0
 10  9  1  6
 10 11  1  0
 11  4  1  0
 12 13  2  0
 12 10  1  0
 15 14  1  0
 16 15  2  0
 17 15  1  0
 18 17  1  0
 19 18  1  0
 20 19  1  0
 21 22  1  0
 21 20  1  1
 22 12  1  0
 23 21  1  0
 24 23  2  0
 25 23  1  0
M  END
$$$$
