RNP.pdb
     RDKit          3D

 27 27  0  0  1  0  0  0  0  0999 V2000
    7.8807  -12.4497   16.9220 N   0  0  0  0  0  0  0  0  0  0  0  0
    8.3811  -13.6276   16.3234 C   0  0  0  0  0  0  0  0  0  0  0  0
    9.4070  -13.5862   15.5483 N   0  0  0  0  0  0  0  0  0  0  0  0
    7.7624  -14.9008   16.5605 N   0  0  0  0  0  0  0  0  0  0  0  0
    7.2058  -15.2697   17.8301 C   0  0  0  0  0  0  0  0  0  0  0  0
    7.8133  -14.4101   18.9049 C   0  0  0  0  0  0  0  0  0  0  0  0
    7.2634  -14.7366   20.2382 C   0  0  0  0  0  0  0  0  0  0  0  0
    7.2374  -16.1756   20.6199 C   0  0  2  0  0  0  0  0  0  0  0  0
    6.4039  -17.0229   19.8291 N   0  0  0  0  0  0  0  0  0  0  0  0
    6.8053  -16.2403   22.0443 C   0  0  0  0  0  0  0  0  0  0  0  0
    5.7261  -16.7697   22.3701 O   0  0  0  0  0  0  0  0  0  0  0  0
    9.8166  -14.4092   15.0958 N   0  0  0  0  0  0  0  0  0  0  0  0
    6.6674  -16.7794   26.9619 C   0  0  0  0  0  0  0  0  0  0  0  0
    6.9191  -17.7830   25.9850 O   0  0  0  0  0  0  0  0  0  0  0  0
    6.8499  -18.9737   26.3836 C   0  0  0  0  0  0  0  0  0  0  0  0
    7.2393  -17.4239   24.5968 C   0  0  1  0  0  0  0  0  0  0  0  0
    7.2992  -15.9124   24.4370 N   0  0  0  0  0  0  0  0  0  0  0  0
    7.6455  -15.6867   23.0316 C   0  0  0  0  0  0  0  0  0  0  0  0
    8.3925  -15.4238   25.3207 O   0  0  0  0  0  0  0  0  0  0  0  0
    9.5928  -15.7443   25.1397 N   0  0  0  0  0  0  0  0  0  0  0  0
    8.0769  -14.5731   26.3973 C   0  0  0  0  0  0  0  0  0  0  0  0
    6.7583  -14.3288   26.9298 C   0  0  0  0  0  0  0  0  0  0  0  0
    6.7825  -12.8087   27.1286 C   0  0  0  0  0  0  0  0  0  0  0  0
    8.2357  -12.4819   27.3688 C   0  0  1  0  0  0  0  0  0  0  0  0
    8.9945  -13.7724   27.2092 C   0  0  0  0  0  0  0  0  0  0  0  0
    9.2103  -14.4992   28.4802 O   0  0  0  0  0  0  0  0  0  0  0  0
   10.1461  -14.0660   29.4021 O   0  0  0  0  0  0  0  0  0  0  0  0
  2  1  1  0
  3  2  2  0
  4  2  1  0
  5  6  1  0
  5  4  1  0
  7  6  1  0
  8  7  1  0
  8  9  1  6
 10  8  1  0
 10 17  1  0
 11 10  2  0
 13 12  1  0
 14 13  2  0
 16 15  1  6
 15 13  1  0
 17 16  1  0
 18 20  1  0
 18 16  1  0
 19 18  2  0
 20 21  1  0
 22 21  1  0
 23 22  1  0
 24 23  1  0
 24 20  1  0
 24 25  1  1
 26 25  1  0
 27 25  2  0
M  END
$$$$
