RNP.pdb
     RDKit          3D

 27 27  0  0  1  0  0  0  0  0999 V2000
    8.3385  -14.4844   16.3852 N   0  0  0  0  0  0  0  0  0  0  0  0
    8.6203  -13.5390   17.3966 C   0  0  0  0  0  0  0  0  0  0  0  0
    8.5023  -12.2784   17.1691 N   0  0  0  0  0  0  0  0  0  0  0  0
    9.0454  -13.9545   18.7030 N   0  0  0  0  0  0  0  0  0  0  0  0
    8.2179  -13.8239   19.8674 C   0  0  0  0  0  0  0  0  0  0  0  0
    6.8793  -14.4542   19.5959 C   0  0  0  0  0  0  0  0  0  0  0  0
    6.6637  -15.6549   20.4319 C   0  0  0  0  0  0  0  0  0  0  0  0
    7.8143  -16.1130   21.2585 C   0  0  2  0  0  0  0  0  0  0  0  0
    8.2698  -17.4452   21.0221 N   0  0  0  0  0  0  0  0  0  0  0  0
    7.4093  -15.9706   22.6852 C   0  0  0  0  0  0  0  0  0  0  0  0
    6.9155  -14.9113   23.1154 O   0  0  0  0  0  0  0  0  0  0  0  0
    8.6090  -11.5545   17.8863 N   0  0  0  0  0  0  0  0  0  0  0  0
    6.3896  -19.0248   27.7761 C   0  0  0  0  0  0  0  0  0  0  0  0
    7.2710  -18.1643   27.0636 O   0  0  0  0  0  0  0  0  0  0  0  0
    7.9267  -17.3455   27.7572 C   0  0  0  0  0  0  0  0  0  0  0  0
    7.3909  -18.2468   25.6016 C   0  0  1  0  0  0  0  0  0  0  0  0
    7.3672  -16.8564   24.9852 N   0  0  0  0  0  0  0  0  0  0  0  0
    7.5953  -17.0656   23.5533 C   0  0  0  0  0  0  0  0  0  0  0  0
    8.4997  -16.0963   25.5805 O   0  0  0  0  0  0  0  0  0  0  0  0
    9.6968  -16.3488   25.2982 N   0  0  0  0  0  0  0  0  0  0  0  0
    8.2266  -15.0579   26.4913 C   0  0  0  0  0  0  0  0  0  0  0  0
    6.9203  -14.6494   26.9483 C   0  0  0  0  0  0  0  0  0  0  0  0
    7.0360  -13.1217   26.8877 C   0  0  0  0  0  0  0  0  0  0  0  0
    8.5041  -12.8452   27.0984 C   0  0  1  0  0  0  0  0  0  0  0  0
    9.1836  -14.1865   27.1745 C   0  0  0  0  0  0  0  0  0  0  0  0
    9.3418  -14.6982   28.5541 O   0  0  0  0  0  0  0  0  0  0  0  0
   10.2829  -14.1601   29.4133 O   0  0  0  0  0  0  0  0  0  0  0  0
  2  1  1  0
  3  2  2  0
  4  2  1  0
  5  6  1  0
  5  4  1  0
  7  6  1  0
  8  7  1  0
  8  9  1  6
 10  8  1  0
 10 17  1  0
 11 10  2  0
 13 12  1  0
 14 13  2  0
 16 15  1  6
 15 13  1  0
 17 16  1  0
 18 20  1  0
 18 16  1  0
 19 18  2  0
 20 21  1  0
 22 21  1  0
 23 22  1  0
 24 23  1  0
 24 20  1  0
 24 25  1  1
 26 25  1  0
 27 25  2  0
M  END
$$$$
