RNP.pdb
     RDKit          3D

 27 27  0  0  1  0  0  0  0  0999 V2000
    8.3132  -12.0986   17.8302 N   0  0  0  0  0  0  0  0  0  0  0  0
    8.7585  -13.3557   17.3638 C   0  0  0  0  0  0  0  0  0  0  0  0
    9.9877  -13.5347   17.0293 N   0  0  0  0  0  0  0  0  0  0  0  0
    7.8568  -14.4665   17.2491 N   0  0  0  0  0  0  0  0  0  0  0  0
    7.5665  -15.3477   18.3431 C   0  0  0  0  0  0  0  0  0  0  0  0
    7.5977  -14.5669   19.6286 C   0  0  0  0  0  0  0  0  0  0  0  0
    6.6303  -15.0995   20.6122 C   0  0  0  0  0  0  0  0  0  0  0  0
    6.8132  -16.5155   21.0349 C   0  0  2  0  0  0  0  0  0  0  0  0
    5.9465  -17.4725   20.4258 N   0  0  0  0  0  0  0  0  0  0  0  0
    6.6374  -16.5542   22.5139 C   0  0  0  0  0  0  0  0  0  0  0  0
    5.5091  -16.4684   23.0343 O   0  0  0  0  0  0  0  0  0  0  0  0
   10.3615  -14.4200   16.6737 N   0  0  0  0  0  0  0  0  0  0  0  0
    6.7409  -18.3919   27.5068 C   0  0  0  0  0  0  0  0  0  0  0  0
    7.8939  -17.9634   26.7913 O   0  0  0  0  0  0  0  0  0  0  0  0
    8.8705  -17.5873   27.4887 C   0  0  0  0  0  0  0  0  0  0  0  0
    7.9181  -17.9692   25.3224 C   0  0  1  0  0  0  0  0  0  0  0  0
    7.6110  -16.5823   24.7783 N   0  0  0  0  0  0  0  0  0  0  0  0
    7.7805  -16.6911   23.3273 C   0  0  0  0  0  0  0  0  0  0  0  0
    8.6280  -15.6562   25.3467 O   0  0  0  0  0  0  0  0  0  0  0  0
    9.8331  -15.6892   24.9959 N   0  0  0  0  0  0  0  0  0  0  0  0
    8.2320  -14.7088   26.3100 C   0  0  0  0  0  0  0  0  0  0  0  0
    6.8895  -14.5006   26.7960 C   0  0  0  0  0  0  0  0  0  0  0  0
    6.8006  -12.9700   26.8109 C   0  0  0  0  0  0  0  0  0  0  0  0
    8.2218  -12.5108   27.0246 C   0  0  1  0  0  0  0  0  0  0  0  0
    9.0742  -13.7517   27.0288 C   0  0  0  0  0  0  0  0  0  0  0  0
    9.3179  -14.3040   28.3801 O   0  0  0  0  0  0  0  0  0  0  0  0
   10.2537  -13.7374   29.2265 O   0  0  0  0  0  0  0  0  0  0  0  0
  2  1  1  0
  3  2  2  0
  4  2  1  0
  5  6  1  0
  5  4  1  0
  7  6  1  0
  8  7  1  0
  8  9  1  6
 10  8  1  0
 10 17  1  0
 11 10  2  0
 13 12  1  0
 14 13  2  0
 16 15  1  6
 15 13  1  0
 17 16  1  0
 18 20  1  0
 18 16  1  0
 19 18  2  0
 20 21  1  0
 22 21  1  0
 23 22  1  0
 24 23  1  0
 24 20  1  0
 24 25  1  1
 26 25  1  0
 27 25  2  0
M  END
$$$$
