RNP.pdb
     RDKit          3D

 27 27  0  0  1  0  0  0  0  0999 V2000
    8.7783  -11.7741   18.4817 N   0  0  0  0  0  0  0  0  0  0  0  0
    9.3986  -12.8141   19.2095 C   0  0  0  0  0  0  0  0  0  0  0  0
   10.5803  -12.6623   19.6948 N   0  0  0  0  0  0  0  0  0  0  0  0
    8.7323  -14.0663   19.4285 N   0  0  0  0  0  0  0  0  0  0  0  0
    7.4666  -14.3872   18.8344 C   0  0  0  0  0  0  0  0  0  0  0  0
    7.0451  -15.7606   19.2804 C   0  0  0  0  0  0  0  0  0  0  0  0
    6.7822  -15.8035   20.7350 C   0  0  0  0  0  0  0  0  0  0  0  0
    6.4334  -17.1296   21.3155 C   0  0  2  0  0  0  0  0  0  0  0  0
    5.2154  -17.7175   20.8585 N   0  0  0  0  0  0  0  0  0  0  0  0
    6.3790  -16.9566   22.7944 C   0  0  0  0  0  0  0  0  0  0  0  0
    5.3993  -16.4233   23.3483 O   0  0  0  0  0  0  0  0  0  0  0  0
   11.0948  -13.3970   20.1902 N   0  0  0  0  0  0  0  0  0  0  0  0
    7.5708  -17.0600   27.7489 C   0  0  0  0  0  0  0  0  0  0  0  0
    8.0712  -18.2334   27.1182 O   0  0  0  0  0  0  0  0  0  0  0  0
    8.5687  -19.1021   27.8793 C   0  0  0  0  0  0  0  0  0  0  0  0
    7.9995  -18.3975   25.6600 C   0  0  1  0  0  0  0  0  0  0  0  0
    7.4482  -17.1386   25.0080 N   0  0  0  0  0  0  0  0  0  0  0  0
    7.4661  -17.4105   23.5686 C   0  0  0  0  0  0  0  0  0  0  0  0
    8.3881  -16.0317   25.3338 O   0  0  0  0  0  0  0  0  0  0  0  0
    9.4906  -15.8961   24.7486 N   0  0  0  0  0  0  0  0  0  0  0  0
    8.0351  -15.1018   26.3303 C   0  0  0  0  0  0  0  0  0  0  0  0
    6.8334  -15.1262   27.1286 C   0  0  0  0  0  0  0  0  0  0  0  0
    6.4201  -13.6498   27.1094 C   0  0  0  0  0  0  0  0  0  0  0  0
    7.7168  -12.8964   26.9442 C   0  0  1  0  0  0  0  0  0  0  0  0
    8.7947  -13.9346   26.7804 C   0  0  0  0  0  0  0  0  0  0  0  0
    9.4650  -14.3041   28.0470 O   0  0  0  0  0  0  0  0  0  0  0  0
   10.3534  -13.4421   28.6643 O   0  0  0  0  0  0  0  0  0  0  0  0
  2  1  1  0
  3  2  2  0
  4  2  1  0
  5  6  1  0
  5  4  1  0
  7  6  1  0
  8  7  1  0
  8  9  1  6
 10  8  1  0
 10 17  1  0
 11 10  2  0
 13 12  1  0
 14 13  2  0
 16 15  1  1
 15 13  1  0
 17 16  1  0
 18 20  1  0
 18 16  1  0
 19 18  2  0
 20 21  1  0
 22 21  1  0
 23 22  1  0
 24 23  1  0
 24 20  1  0
 24 25  1  1
 26 25  1  0
 27 25  2  0
M  END
$$$$
