RNP.pdb
     RDKit          3D

 27 27  0  0  1  0  0  0  0  0999 V2000
    6.8283  -15.0247   16.6750 N   0  0  0  0  0  0  0  0  0  0  0  0
    7.9305  -14.1744   16.4337 C   0  0  0  0  0  0  0  0  0  0  0  0
    7.9950  -13.4711   15.3585 N   0  0  0  0  0  0  0  0  0  0  0  0
    9.0075  -14.0701   17.3768 N   0  0  0  0  0  0  0  0  0  0  0  0
    8.8943  -13.3431   18.6082 C   0  0  0  0  0  0  0  0  0  0  0  0
    7.4660  -13.3863   19.0783 C   0  0  0  0  0  0  0  0  0  0  0  0
    7.2410  -14.4922   20.0339 C   0  0  0  0  0  0  0  0  0  0  0  0
    8.4143  -14.9352   20.8366 C   0  0  2  0  0  0  0  0  0  0  0  0
    8.8892  -16.2573   20.5827 N   0  0  0  0  0  0  0  0  0  0  0  0
    8.0324  -14.8098   22.2713 C   0  0  0  0  0  0  0  0  0  0  0  0
    7.7171  -13.7102   22.7637 O   0  0  0  0  0  0  0  0  0  0  0  0
    8.7994  -12.8912   15.1007 N   0  0  0  0  0  0  0  0  0  0  0  0
    6.0149  -16.8902   22.7255 C   0  0  0  0  0  0  0  0  0  0  0  0
    6.2383  -17.6198   23.9266 O   0  0  0  0  0  0  0  0  0  0  0  0
    5.6088  -18.7024   24.0424 C   0  0  0  0  0  0  0  0  0  0  0  0
    7.1564  -17.1170   24.9575 C   0  0  2  0  0  0  0  0  0  0  0  0
    7.7950  -15.8103   24.5117 N   0  0  0  0  0  0  0  0  0  0  0  0
    8.0329  -15.9681   23.0748 C   0  0  0  0  0  0  0  0  0  0  0  0
    9.0889  -15.6880   25.2367 O   0  0  0  0  0  0  0  0  0  0  0  0
   10.1766  -16.0592   24.7313 N   0  0  0  0  0  0  0  0  0  0  0  0
    9.1006  -15.1381   26.5327 C   0  0  0  0  0  0  0  0  0  0  0  0
    7.9465  -14.7073   27.2841 C   0  0  0  0  0  0  0  0  0  0  0  0
    8.4397  -13.3808   27.8739 C   0  0  0  0  0  0  0  0  0  0  0  0
    9.9339  -13.5525   27.9935 C   0  0  1  0  0  0  0  0  0  0  0  0
   10.2573  -14.8961   27.3962 C   0  0  0  0  0  0  0  0  0  0  0  0
   10.3071  -15.9938   28.3876 O   0  0  0  0  0  0  0  0  0  0  0  0
   11.4001  -16.1577   29.2193 O   0  0  0  0  0  0  0  0  0  0  0  0
  2  1  1  0
  3  2  2  0
  4  2  1  0
  5  6  1  0
  5  4  1  0
  7  6  1  0
  8  7  1  0
  8  9  1  6
 10  8  1  0
 10 17  1  0
 11 10  2  0
 13 12  1  0
 14 13  2  0
 16 15  1  6
 15 13  1  0
 17 16  1  0
 18 20  1  0
 18 16  1  0
 19 18  2  0
 20 21  1  0
 22 21  1  0
 23 22  1  0
 24 23  1  0
 24 20  1  0
 24 25  1  1
 26 25  1  0
 27 25  2  0
M  END
$$$$
