RNP.pdb
     RDKit          3D

 27 27  0  0  1  0  0  0  0  0999 V2000
    7.7441  -14.0775   15.1195 N   0  0  0  0  0  0  0  0  0  0  0  0
    8.7212  -14.7739   15.8655 C   0  0  0  0  0  0  0  0  0  0  0  0
    9.2397  -15.8617   15.4154 N   0  0  0  0  0  0  0  0  0  0  0  0
    9.1628  -14.2911   17.1429 N   0  0  0  0  0  0  0  0  0  0  0  0
    8.4197  -13.3343   17.9112 C   0  0  0  0  0  0  0  0  0  0  0  0
    7.3144  -14.0418   18.6464 C   0  0  0  0  0  0  0  0  0  0  0  0
    7.4480  -13.8856   20.1108 C   0  0  0  0  0  0  0  0  0  0  0  0
    8.5468  -14.6444   20.7696 C   0  0  2  0  0  0  0  0  0  0  0  0
    8.8370  -15.9327   20.2272 N   0  0  0  0  0  0  0  0  0  0  0  0
    8.1809  -14.7800   22.2075 C   0  0  0  0  0  0  0  0  0  0  0  0
    7.7321  -13.8155   22.8551 O   0  0  0  0  0  0  0  0  0  0  0  0
    9.9302  -16.4210   15.9255 N   0  0  0  0  0  0  0  0  0  0  0  0
    5.6143  -17.5510   23.9512 C   0  0  0  0  0  0  0  0  0  0  0  0
    6.7396  -18.2811   24.4262 O   0  0  0  0  0  0  0  0  0  0  0  0
    6.5326  -19.4847   24.7261 C   0  0  0  0  0  0  0  0  0  0  0  0
    8.0574  -17.6435   24.5503 C   0  0  2  0  0  0  0  0  0  0  0  0
    7.9623  -16.1574   24.2401 N   0  0  0  0  0  0  0  0  0  0  0  0
    8.3521  -16.0313   22.8336 C   0  0  0  0  0  0  0  0  0  0  0  0
    8.9511  -15.4662   25.1115 O   0  0  0  0  0  0  0  0  0  0  0  0
   10.1857  -15.5095   24.8876 N   0  0  0  0  0  0  0  0  0  0  0  0
    8.4933  -14.7372   26.2257 C   0  0  0  0  0  0  0  0  0  0  0  0
    7.1168  -14.5688   26.6245 C   0  0  0  0  0  0  0  0  0  0  0  0
    7.0785  -13.0776   26.9790 C   0  0  0  0  0  0  0  0  0  0  0  0
    8.4860  -12.7570   27.4177 C   0  0  1  0  0  0  0  0  0  0  0  0
    9.2916  -14.0128   27.2157 C   0  0  0  0  0  0  0  0  0  0  0  0
    9.3808  -14.8653   28.4221 O   0  0  0  0  0  0  0  0  0  0  0  0
   10.2600  -14.5651   29.4469 O   0  0  0  0  0  0  0  0  0  0  0  0
  2  1  1  0
  3  2  2  0
  4  2  1  0
  5  6  1  0
  5  4  1  0
  7  6  1  0
  8  7  1  0
  8  9  1  6
 10  8  1  0
 10 17  1  0
 11 10  2  0
 13 12  1  0
 14 13  2  0
 16 15  1  6
 15 13  1  0
 17 16  1  0
 18 20  1  0
 18 16  1  0
 19 18  2  0
 20 21  1  0
 22 21  1  0
 23 22  1  0
 24 23  1  0
 24 20  1  0
 24 25  1  1
 26 25  1  0
 27 25  2  0
M  END
$$$$
