RNP.pdb
     RDKit          3D

 27 27  0  0  1  0  0  0  0  0999 V2000
    9.8488  -14.4513   17.5634 N   0  0  0  0  0  0  0  0  0  0  0  0
    8.5113  -14.0785   17.3021 C   0  0  0  0  0  0  0  0  0  0  0  0
    7.9172  -14.4706   16.2306 N   0  0  0  0  0  0  0  0  0  0  0  0
    7.7779  -13.2542   18.2202 N   0  0  0  0  0  0  0  0  0  0  0  0
    8.4110  -12.4992   19.2627 C   0  0  0  0  0  0  0  0  0  0  0  0
    7.9682  -13.0323   20.5979 C   0  0  0  0  0  0  0  0  0  0  0  0
    8.4725  -14.4028   20.8310 C   0  0  0  0  0  0  0  0  0  0  0  0
    7.4639  -15.4372   21.1913 C   0  0  2  0  0  0  0  0  0  0  0  0
    6.1561  -15.2594   20.6472 N   0  0  0  0  0  0  0  0  0  0  0  0
    7.3847  -15.4683   22.6788 C   0  0  0  0  0  0  0  0  0  0  0  0
    6.7899  -14.5776   23.3143 O   0  0  0  0  0  0  0  0  0  0  0  0
    6.9632  -14.1998   15.9728 N   0  0  0  0  0  0  0  0  0  0  0  0
    6.5921  -18.0364   27.4197 C   0  0  0  0  0  0  0  0  0  0  0  0
    7.8263  -18.0876   26.7131 O   0  0  0  0  0  0  0  0  0  0  0  0
    8.8601  -18.2350   27.4139 C   0  0  0  0  0  0  0  0  0  0  0  0
    7.8650  -17.9727   25.2489 C   0  0  1  0  0  0  0  0  0  0  0  0
    7.9762  -16.5143   24.8311 N   0  0  0  0  0  0  0  0  0  0  0  0
    8.0005  -16.5337   23.3665 C   0  0  0  0  0  0  0  0  0  0  0  0
    9.2715  -16.0070   25.3600 O   0  0  0  0  0  0  0  0  0  0  0  0
   10.3574  -16.1870   24.7559 N   0  0  0  0  0  0  0  0  0  0  0  0
    9.2867  -15.3006   26.5778 C   0  0  0  0  0  0  0  0  0  0  0  0
    8.1301  -14.8742   27.3279 C   0  0  0  0  0  0  0  0  0  0  0  0
    8.5298  -13.4489   27.7276 C   0  0  0  0  0  0  0  0  0  0  0  0
   10.0367  -13.4831   27.7927 C   0  0  1  0  0  0  0  0  0  0  0  0
   10.4512  -14.8601   27.3471 C   0  0  0  0  0  0  0  0  0  0  0  0
   10.6345  -15.8179   28.4604 O   0  0  0  0  0  0  0  0  0  0  0  0
    9.6831  -15.9482   29.4560 O   0  0  0  0  0  0  0  0  0  0  0  0
  2  1  1  0
  3  2  2  0
  4  2  1  0
  5  6  1  0
  5  4  1  0
  7  6  1  0
  8  7  1  0
  8  9  1  6
 10  8  1  0
 10 17  1  0
 11 10  2  0
 13 12  1  0
 14 13  2  0
 16 15  1  6
 15 13  1  0
 17 16  1  0
 18 20  1  0
 18 16  1  0
 19 18  2  0
 20 21  1  0
 22 21  1  0
 23 22  1  0
 24 23  1  0
 24 20  1  0
 24 25  1  1
 26 25  1  0
 27 25  2  0
M  END
$$$$
