RNP.pdb
     RDKit          3D

 27 27  0  0  1  0  0  0  0  0999 V2000
    7.2127  -15.6125   16.2038 N   0  0  0  0  0  0  0  0  0  0  0  0
    7.9284  -14.5241   16.7509 C   0  0  0  0  0  0  0  0  0  0  0  0
    8.9507  -14.0367   16.1408 N   0  0  0  0  0  0  0  0  0  0  0  0
    7.5384  -13.9318   17.9987 N   0  0  0  0  0  0  0  0  0  0  0  0
    8.2560  -12.8456   18.6011 C   0  0  0  0  0  0  0  0  0  0  0  0
    9.6034  -13.3354   19.0566 C   0  0  0  0  0  0  0  0  0  0  0  0
    9.7790  -13.1668   20.5152 C   0  0  0  0  0  0  0  0  0  0  0  0
   10.2540  -14.3553   21.2762 C   0  0  2  0  0  0  0  0  0  0  0  0
   10.0910  -15.6207   20.6357 N   0  0  0  0  0  0  0  0  0  0  0  0
    9.5276  -14.3579   22.5770 C   0  0  0  0  0  0  0  0  0  0  0  0
    9.5419  -13.3649   23.3286 O   0  0  0  0  0  0  0  0  0  0  0  0
    9.5438  -13.2928   16.5212 N   0  0  0  0  0  0  0  0  0  0  0  0
    7.0821  -16.0993   26.7259 C   0  0  0  0  0  0  0  0  0  0  0  0
    6.6470  -16.8747   25.6149 O   0  0  0  0  0  0  0  0  0  0  0  0
    5.7485  -17.7228   25.8492 C   0  0  0  0  0  0  0  0  0  0  0  0
    7.2292  -16.6776   24.2804 C   0  0  1  0  0  0  0  0  0  0  0  0
    8.2945  -15.5925   24.3182 N   0  0  0  0  0  0  0  0  0  0  0  0
    8.8146  -15.5150   22.9509 C   0  0  0  0  0  0  0  0  0  0  0  0
    9.3592  -16.0592   25.2475 O   0  0  0  0  0  0  0  0  0  0  0  0
   10.2603  -16.8556   24.8866 N   0  0  0  0  0  0  0  0  0  0  0  0
    9.3620  -15.5957   26.5769 C   0  0  0  0  0  0  0  0  0  0  0  0
    8.2901  -14.8862   27.2324 C   0  0  0  0  0  0  0  0  0  0  0  0
    9.0571  -13.7859   27.9751 C   0  0  0  0  0  0  0  0  0  0  0  0
   10.4162  -14.3851   28.2398 C   0  0  1  0  0  0  0  0  0  0  0  0
   10.4226  -15.7362   27.5757 C   0  0  0  0  0  0  0  0  0  0  0  0
   10.0385  -16.8460   28.4763 O   0  0  0  0  0  0  0  0  0  0  0  0
   10.8914  -17.2874   29.4718 O   0  0  0  0  0  0  0  0  0  0  0  0
  2  1  1  0
  3  2  2  0
  4  2  1  0
  5  6  1  0
  5  4  1  0
  7  6  1  0
  8  7  1  0
  8  9  1  6
 10  8  1  0
 10 17  1  0
 11 10  2  0
 13 12  1  0
 14 13  2  0
 16 15  1  6
 15 13  1  0
 17 16  1  0
 18 20  1  0
 18 16  1  0
 19 18  2  0
 20 21  1  0
 22 21  1  0
 23 22  1  0
 24 23  1  0
 24 20  1  0
 24 25  1  1
 26 25  1  0
 27 25  2  0
M  END
$$$$
