RNP.pdb
     RDKit          3D

 27 27  0  0  1  0  0  0  0  0999 V2000
    7.5485  -12.9115   17.2552 N   0  0  0  0  0  0  0  0  0  0  0  0
    8.1397  -13.9069   16.4454 C   0  0  0  0  0  0  0  0  0  0  0  0
    7.6190  -14.2284   15.3139 N   0  0  0  0  0  0  0  0  0  0  0  0
    9.3341  -14.5870   16.8590 N   0  0  0  0  0  0  0  0  0  0  0  0
    9.9446  -14.3757   18.1398 C   0  0  0  0  0  0  0  0  0  0  0  0
    8.9540  -14.7110   19.2211 C   0  0  0  0  0  0  0  0  0  0  0  0
    9.5261  -14.4981   20.5680 C   0  0  0  0  0  0  0  0  0  0  0  0
    9.2935  -15.5713   21.5736 C   0  0  2  0  0  0  0  0  0  0  0  0
    8.0978  -16.3352   21.4157 N   0  0  0  0  0  0  0  0  0  0  0  0
    9.2954  -14.9199   22.9136 C   0  0  0  0  0  0  0  0  0  0  0  0
   10.0975  -14.0079   23.1891 O   0  0  0  0  0  0  0  0  0  0  0  0
    8.0032  -14.9440   14.6893 N   0  0  0  0  0  0  0  0  0  0  0  0
    6.5080  -13.0307   25.0829 C   0  0  0  0  0  0  0  0  0  0  0  0
    6.2110  -14.2406   25.7706 O   0  0  0  0  0  0  0  0  0  0  0  0
    5.0320  -14.3640   26.1905 C   0  0  0  0  0  0  0  0  0  0  0  0
    7.2393  -15.2715   25.9664 C   0  0  2  0  0  0  0  0  0  0  0  0
    8.5267  -14.8826   25.2554 N   0  0  0  0  0  0  0  0  0  0  0  0
    8.3647  -15.3558   23.8785 C   0  0  0  0  0  0  0  0  0  0  0  0
    9.6336  -15.6182   25.9250 O   0  0  0  0  0  0  0  0  0  0  0  0
   10.3599  -16.4377   25.3108 N   0  0  0  0  0  0  0  0  0  0  0  0
    9.8801  -15.3920   27.2926 C   0  0  0  0  0  0  0  0  0  0  0  0
    9.0520  -14.6234   28.1901 C   0  0  0  0  0  0  0  0  0  0  0  0
   10.1015  -13.8169   28.9640 C   0  0  0  0  0  0  0  0  0  0  0  0
   11.3361  -14.6838   28.9420 C   0  0  1  0  0  0  0  0  0  0  0  0
   10.9990  -15.8839   28.0978 C   0  0  0  0  0  0  0  0  0  0  0  0
   10.5082  -17.0427   28.8766 O   0  0  0  0  0  0  0  0  0  0  0  0
   11.3760  -17.8293   29.6125 O   0  0  0  0  0  0  0  0  0  0  0  0
  2  1  1  0
  3  2  2  0
  4  2  1  0
  5  6  1  0
  5  4  1  0
  7  6  1  0
  8  7  1  0
  8  9  1  6
 10  8  1  0
 10 17  1  0
 11 10  2  0
 13 12  1  0
 14 13  2  0
 16 15  1  6
 15 13  1  0
 17 16  1  0
 18 20  1  0
 18 16  1  0
 19 18  2  0
 20 21  1  0
 22 21  1  0
 23 22  1  0
 24 23  1  0
 24 20  1  0
 24 25  1  1
 26 25  1  0
 27 25  2  0
M  END
$$$$
