WRA.pdb
     RDKit          3D

 31 32  0  0  1  0  0  0  0  0999 V2000
    5.9318  -17.6770   24.3790 N   0  0  0  0  0  0  0  0  0  0  0  0
    6.7587  -16.5361   24.1725 C   0  0  1  0  0  0  0  0  0  0  0  0
    7.4447  -16.0738   25.4344 C   0  0  0  0  0  0  0  0  0  0  0  0
    6.7596  -14.8999   26.0325 C   0  0  0  0  0  0  0  0  0  0  0  0
    5.5506  -14.9804   26.7294 C   0  0  0  0  0  0  0  0  0  0  0  0
    5.2427  -13.7481   27.1174 N   0  0  0  0  0  0  0  0  0  0  0  0
    6.1746  -12.8717   26.7168 C   0  0  0  0  0  0  0  0  0  0  0  0
    6.3028  -11.5232   26.8680 C   0  0  0  0  0  0  0  0  0  0  0  0
    7.3994  -10.8760   26.3318 C   0  0  0  0  0  0  0  0  0  0  0  0
    8.3662  -11.5799   25.6451 C   0  0  0  0  0  0  0  0  0  0  0  0
    8.2301  -12.9505   25.4952 C   0  0  0  0  0  0  0  0  0  0  0  0
    7.1377  -13.5840   26.0312 C   0  0  0  0  0  0  0  0  0  0  0  0
    7.7632  -16.7498   23.0953 C   0  0  0  0  0  0  0  0  0  0  0  0
    8.3959  -17.8381   22.9938 O   0  0  0  0  0  0  0  0  0  0  0  0
    7.9199  -12.7806   16.7192 N   0  0  0  0  0  0  0  0  0  0  0  0
    8.2180  -14.0881   16.2368 C   0  0  0  0  0  0  0  0  0  0  0  0
    7.8644  -14.5024   15.0813 N   0  0  0  0  0  0  0  0  0  0  0  0
    8.9465  -14.9589   17.1027 N   0  0  0  0  0  0  0  0  0  0  0  0
    8.3465  -15.5043   18.2856 C   0  0  0  0  0  0  0  0  0  0  0  0
    8.2049  -14.4237   19.3669 C   0  0  0  0  0  0  0  0  0  0  0  0
    9.3445  -14.6485   20.3296 C   0  0  0  0  0  0  0  0  0  0  0  0
    9.1524  -15.9216   21.1589 C   0  0  2  0  0  0  0  0  0  0  0  0
    8.0792  -15.7607   22.1175 N   0  0  0  0  0  0  0  0  0  0  0  0
   10.4160  -16.0717   21.9197 C   0  0  0  0  0  0  0  0  0  0  0  0
   10.7906  -15.0926   22.6016 O   0  0  0  0  0  0  0  0  0  0  0  0
    8.0481  -15.4381   14.7093 C   0  0  0  0  0  0  0  0  0  0  0  0
   12.9285  -18.6798   22.7265 C   0  0  1  0  0  0  0  0  0  0  0  0
   12.4907  -17.2223   22.5461 N   0  0  0  0  0  0  0  0  0  0  0  0
   11.2103  -17.2501   21.9149 C   0  0  0  0  0  0  0  0  0  0  0  0
   13.5205  -16.5094   21.7946 O   0  0  0  0  0  0  0  0  0  0  0  0
   13.2702  -16.0663   20.5120 O   0  0  0  0  0  0  0  0  0  0  0  0
  2 13  1  0
  2  1  1  1
  3  2  1  0
  4  3  1  0
  4  5  2  0
  6  5  1  0
  7 12  2  0
  7  6  1  0
  8  7  1  0
  9 10  1  0
  9  8  2  0
 10 11  2  0
 11 12  1  0
 12  4  1  0
 13 14  2  0
 16 17  2  0
 16 15  1  0
 18 16  1  0
 19 20  1  0
 19 18  1  0
 20 21  1  0
 22 21  1  6
 23 22  1  0
 23 13  1  0
 24 25  2  0
 24 22  1  0
 27 26  1  1
 27 29  1  0
 27 28  1  0
 28 24  1  0
 29 30  1  0
 31 29  2  0
M  END
$$$$
