WRA.pdb
     RDKit          3D

 31 32  0  0  1  0  0  0  0  0999 V2000
    6.5469  -17.2357   25.4617 N   0  0  0  0  0  0  0  0  0  0  0  0
    7.2270  -16.1460   24.8471 C   0  0  1  0  0  0  0  0  0  0  0  0
    8.4888  -15.7563   25.5771 C   0  0  0  0  0  0  0  0  0  0  0  0
    8.2206  -14.7532   26.6386 C   0  0  0  0  0  0  0  0  0  0  0  0
    8.4633  -14.9782   27.9966 C   0  0  0  0  0  0  0  0  0  0  0  0
    8.1098  -13.8733   28.6431 N   0  0  0  0  0  0  0  0  0  0  0  0
    7.6526  -12.9443   27.7916 C   0  0  0  0  0  0  0  0  0  0  0  0
    7.1826  -11.6773   27.9692 C   0  0  0  0  0  0  0  0  0  0  0  0
    6.7717  -10.9406   26.8749 C   0  0  0  0  0  0  0  0  0  0  0  0
    6.8320  -11.4735   25.6044 C   0  0  0  0  0  0  0  0  0  0  0  0
    7.3111  -12.7619   25.4308 C   0  0  0  0  0  0  0  0  0  0  0  0
    7.7167  -13.4853   26.5235 C   0  0  0  0  0  0  0  0  0  0  0  0
    7.5266  -16.4001   23.4116 C   0  0  0  0  0  0  0  0  0  0  0  0
    7.6933  -17.5726   22.9729 O   0  0  0  0  0  0  0  0  0  0  0  0
    7.1700  -14.5406   14.9980 N   0  0  0  0  0  0  0  0  0  0  0  0
    8.2089  -14.5390   15.9736 C   0  0  0  0  0  0  0  0  0  0  0  0
    8.9287  -15.5635   16.2273 N   0  0  0  0  0  0  0  0  0  0  0  0
    8.4379  -13.3249   16.6893 N   0  0  0  0  0  0  0  0  0  0  0  0
    8.1161  -13.2104   18.0821 C   0  0  0  0  0  0  0  0  0  0  0  0
    8.2999  -14.5593   18.7917 C   0  0  0  0  0  0  0  0  0  0  0  0
    7.9152  -14.3263   20.2317 C   0  0  0  0  0  0  0  0  0  0  0  0
    8.0072  -15.6081   21.0649 C   0  0  2  0  0  0  0  0  0  0  0  0
    7.6453  -15.3585   22.4444 N   0  0  0  0  0  0  0  0  0  0  0  0
    9.4432  -15.9756   21.0362 C   0  0  0  0  0  0  0  0  0  0  0  0
   10.2627  -15.1012   21.3940 O   0  0  0  0  0  0  0  0  0  0  0  0
    9.6432  -15.6150   16.9585 C   0  0  0  0  0  0  0  0  0  0  0  0
   11.5401  -18.9887   20.4589 C   0  0  1  0  0  0  0  0  0  0  0  0
   11.3381  -17.4783   20.6219 N   0  0  0  0  0  0  0  0  0  0  0  0
    9.9291  -17.2479   20.6307 C   0  0  0  0  0  0  0  0  0  0  0  0
   12.0575  -16.7877   19.5547 O   0  0  0  0  0  0  0  0  0  0  0  0
   13.4251  -16.6193   19.6278 O   0  0  0  0  0  0  0  0  0  0  0  0
  2 13  1  0
  2  1  1  1
  3  2  1  0
  4  3  1  0
  4  5  2  0
  6  5  1  0
  7 12  2  0
  7  6  1  0
  8  7  1  0
  9 10  1  0
  9  8  2  0
 10 11  2  0
 11 12  1  0
 12  4  1  0
 13 14  2  0
 16 17  2  0
 16 15  1  0
 18 16  1  0
 19 20  1  0
 19 18  1  0
 20 21  1  0
 22 21  1  6
 23 22  1  0
 23 13  1  0
 24 25  2  0
 24 22  1  0
 27 26  1  1
 27 29  1  0
 27 28  1  0
 28 24  1  0
 29 30  1  0
 31 29  2  0
M  END
$$$$
