WRA.pdb
     RDKit          3D

 31 32  0  0  1  0  0  0  0  0999 V2000
    7.0835  -18.1208   25.4900 N   0  0  0  0  0  0  0  0  0  0  0  0
    7.5901  -17.2227   24.5079 C   0  0  1  0  0  0  0  0  0  0  0  0
    8.2305  -15.9964   25.1103 C   0  0  0  0  0  0  0  0  0  0  0  0
    7.2170  -15.0713   25.6778 C   0  0  0  0  0  0  0  0  0  0  0  0
    6.0397  -15.4983   26.2987 C   0  0  0  0  0  0  0  0  0  0  0  0
    5.3840  -14.4082   26.6803 N   0  0  0  0  0  0  0  0  0  0  0  0
    6.0602  -13.2998   26.3467 C   0  0  0  0  0  0  0  0  0  0  0  0
    5.8043  -11.9723   26.5199 C   0  0  0  0  0  0  0  0  0  0  0  0
    6.7092  -11.0355   26.0587 C   0  0  0  0  0  0  0  0  0  0  0  0
    7.8689  -11.4292   25.4249 C   0  0  0  0  0  0  0  0  0  0  0  0
    8.1231  -12.7802   25.2523 C   0  0  0  0  0  0  0  0  0  0  0  0
    7.2186  -13.7026   25.7137 C   0  0  0  0  0  0  0  0  0  0  0  0
    8.5373  -17.8830   23.5687 C   0  0  0  0  0  0  0  0  0  0  0  0
    9.2380  -18.8702   23.9286 O   0  0  0  0  0  0  0  0  0  0  0  0
    6.9735  -14.0868   19.1943 N   0  0  0  0  0  0  0  0  0  0  0  0
    8.1248  -13.4167   18.6879 C   0  0  0  0  0  0  0  0  0  0  0  0
    8.2074  -12.1452   18.5960 N   0  0  0  0  0  0  0  0  0  0  0  0
    9.2253  -14.2242   18.2689 N   0  0  0  0  0  0  0  0  0  0  0  0
    9.1972  -15.6511   18.4103 C   0  0  0  0  0  0  0  0  0  0  0  0
    9.3898  -16.0523   19.8796 C   0  0  0  0  0  0  0  0  0  0  0  0
    9.4895  -17.5576   19.8888 C   0  0  0  0  0  0  0  0  0  0  0  0
    9.6337  -18.1144   21.3083 C   0  0  2  0  0  0  0  0  0  0  0  0
    8.7200  -17.4578   22.2196 N   0  0  0  0  0  0  0  0  0  0  0  0
   11.0126  -17.7547   21.7173 C   0  0  0  0  0  0  0  0  0  0  0  0
   11.9385  -18.0668   20.9367 O   0  0  0  0  0  0  0  0  0  0  0  0
    9.0337  -11.6298   18.2810 C   0  0  0  0  0  0  0  0  0  0  0  0
   12.7811  -15.7062   24.2154 C   0  0  2  0  0  0  0  0  0  0  0  0
   12.7043  -16.9243   23.2886 N   0  0  0  0  0  0  0  0  0  0  0  0
   11.3319  -17.0849   22.9292 C   0  0  0  0  0  0  0  0  0  0  0  0
   13.2896  -18.0751   23.9716 O   0  0  0  0  0  0  0  0  0  0  0  0
   14.6015  -18.0429   24.3983 O   0  0  0  0  0  0  0  0  0  0  0  0
  2 13  1  0
  2  1  1  1
  3  2  1  0
  4  3  1  0
  4  5  2  0
  6  5  1  0
  7 12  2  0
  7  6  1  0
  8  7  1  0
  9 10  1  0
  9  8  2  0
 10 11  2  0
 11 12  1  0
 12  4  1  0
 13 14  2  0
 16 17  2  0
 16 15  1  0
 18 16  1  0
 19 20  1  0
 19 18  1  0
 20 21  1  0
 22 21  1  6
 23 22  1  0
 23 13  1  0
 24 25  2  0
 24 22  1  0
 27 26  1  6
 27 29  1  0
 27 28  1  0
 28 24  1  0
 29 30  1  0
 31 29  2  0
M  END
$$$$
