WRA.pdb
     RDKit          3D

 31 32  0  0  1  0  0  0  0  0999 V2000
    6.5601  -17.0414   25.0990 N   0  0  0  0  0  0  0  0  0  0  0  0
    7.1908  -15.9041   24.5188 C   0  0  1  0  0  0  0  0  0  0  0  0
    8.3932  -15.4378   25.3022 C   0  0  0  0  0  0  0  0  0  0  0  0
    8.0069  -14.5246   26.4076 C   0  0  0  0  0  0  0  0  0  0  0  0
    8.3203  -14.7569   27.7498 C   0  0  0  0  0  0  0  0  0  0  0  0
    7.8222  -13.7418   28.4466 N   0  0  0  0  0  0  0  0  0  0  0  0
    7.2048  -12.8647   27.6426 C   0  0  0  0  0  0  0  0  0  0  0  0
    6.5535  -11.6911   27.8799 C   0  0  0  0  0  0  0  0  0  0  0  0
    6.0040  -10.9884   26.8249 C   0  0  0  0  0  0  0  0  0  0  0  0
    6.1075  -11.4615   25.5337 C   0  0  0  0  0  0  0  0  0  0  0  0
    6.7712  -12.6549   25.2992 C   0  0  0  0  0  0  0  0  0  0  0  0
    7.3134  -13.3453   26.3534 C   0  0  0  0  0  0  0  0  0  0  0  0
    7.5647  -16.1262   23.0954 C   0  0  0  0  0  0  0  0  0  0  0  0
    7.7521  -17.2888   22.6392 O   0  0  0  0  0  0  0  0  0  0  0  0
    8.3954  -12.9673   15.0552 N   0  0  0  0  0  0  0  0  0  0  0  0
    8.4894  -14.3303   15.4609 C   0  0  0  0  0  0  0  0  0  0  0  0
    9.3380  -15.1477   14.9673 N   0  0  0  0  0  0  0  0  0  0  0  0
    7.5825  -14.7815   16.4672 N   0  0  0  0  0  0  0  0  0  0  0  0
    7.3916  -14.0433   17.6817 C   0  0  0  0  0  0  0  0  0  0  0  0
    8.6268  -14.1618   18.5857 C   0  0  0  0  0  0  0  0  0  0  0  0
    8.1285  -13.9682   19.9964 C   0  0  0  0  0  0  0  0  0  0  0  0
    8.0601  -15.2898   20.7673 C   0  0  2  0  0  0  0  0  0  0  0  0
    7.7357  -15.0631   22.1600 N   0  0  0  0  0  0  0  0  0  0  0  0
    9.4384  -15.8331   20.7093 C   0  0  0  0  0  0  0  0  0  0  0  0
   10.3475  -15.1361   21.2110 O   0  0  0  0  0  0  0  0  0  0  0  0
    9.5036  -16.0999   15.3044 C   0  0  0  0  0  0  0  0  0  0  0  0
   11.1412  -19.0298   20.1325 C   0  0  1  0  0  0  0  0  0  0  0  0
   11.1412  -17.4974   20.1167 N   0  0  0  0  0  0  0  0  0  0  0  0
    9.7747  -17.0835   20.1239 C   0  0  0  0  0  0  0  0  0  0  0  0
   11.9068  -17.0369   18.9611 O   0  0  0  0  0  0  0  0  0  0  0  0
   13.2830  -16.9563   19.0205 O   0  0  0  0  0  0  0  0  0  0  0  0
  2 13  1  0
  2  1  1  1
  3  2  1  0
  4  3  1  0
  4  5  2  0
  6  5  1  0
  7 12  2  0
  7  6  1  0
  8  7  1  0
  9 10  1  0
  9  8  2  0
 10 11  2  0
 11 12  1  0
 12  4  1  0
 13 14  2  0
 16 17  2  0
 16 15  1  0
 18 16  1  0
 19 20  1  0
 19 18  1  0
 20 21  1  0
 22 21  1  6
 23 22  1  0
 23 13  1  0
 24 25  2  0
 24 22  1  0
 27 26  1  1
 27 29  1  0
 27 28  1  0
 28 24  1  0
 29 30  1  0
 31 29  2  0
M  END
$$$$
