WRA.pdb
     RDKit          3D

 31 32  0  0  1  0  0  0  0  0999 V2000
    6.3992  -16.9946   25.3604 N   0  0  0  0  0  0  0  0  0  0  0  0
    6.9892  -15.8920   24.6792 C   0  0  1  0  0  0  0  0  0  0  0  0
    8.2135  -15.3572   25.3806 C   0  0  0  0  0  0  0  0  0  0  0  0
    7.8527  -14.4325   26.4850 C   0  0  0  0  0  0  0  0  0  0  0  0
    8.1311  -14.6870   27.8309 C   0  0  0  0  0  0  0  0  0  0  0  0
    7.6706  -13.6529   28.5255 N   0  0  0  0  0  0  0  0  0  0  0  0
    7.1105  -12.7425   27.7166 C   0  0  0  0  0  0  0  0  0  0  0  0
    6.5126  -11.5401   27.9502 C   0  0  0  0  0  0  0  0  0  0  0  0
    6.0160  -10.8058   26.8904 C   0  0  0  0  0  0  0  0  0  0  0  0
    6.1190  -11.2763   25.5982 C   0  0  0  0  0  0  0  0  0  0  0  0
    6.7282  -12.4991   25.3676 C   0  0  0  0  0  0  0  0  0  0  0  0
    7.2180  -13.2208   26.4264 C   0  0  0  0  0  0  0  0  0  0  0  0
    7.3113  -16.2069   23.2607 C   0  0  0  0  0  0  0  0  0  0  0  0
    7.3200  -17.3969   22.8377 O   0  0  0  0  0  0  0  0  0  0  0  0
    7.0307  -13.2645   15.2325 N   0  0  0  0  0  0  0  0  0  0  0  0
    8.1679  -14.1231   15.2054 C   0  0  0  0  0  0  0  0  0  0  0  0
    8.6165  -14.6524   14.1328 N   0  0  0  0  0  0  0  0  0  0  0  0
    8.8203  -14.3906   16.4470 N   0  0  0  0  0  0  0  0  0  0  0  0
    8.1958  -14.0745   17.6987 C   0  0  0  0  0  0  0  0  0  0  0  0
    9.0838  -14.5136   18.8715 C   0  0  0  0  0  0  0  0  0  0  0  0
    8.2755  -14.2627   20.1204 C   0  0  0  0  0  0  0  0  0  0  0  0
    8.1301  -15.5264   20.9734 C   0  0  2  0  0  0  0  0  0  0  0  0
    7.6279  -15.2077   22.2934 N   0  0  0  0  0  0  0  0  0  0  0  0
    9.5128  -16.0381   21.1299 C   0  0  0  0  0  0  0  0  0  0  0  0
   10.3150  -15.3257   21.7725 O   0  0  0  0  0  0  0  0  0  0  0  0
    9.4471  -15.2475   14.0723 C   0  0  0  0  0  0  0  0  0  0  0  0
   11.4384  -19.1317   20.3939 C   0  0  1  0  0  0  0  0  0  0  0  0
   11.3252  -17.6603   20.8071 N   0  0  0  0  0  0  0  0  0  0  0  0
    9.9666  -17.2749   20.5972 C   0  0  0  0  0  0  0  0  0  0  0  0
   12.2996  -16.8803   20.0483 O   0  0  0  0  0  0  0  0  0  0  0  0
   13.5003  -16.5132   20.6205 O   0  0  0  0  0  0  0  0  0  0  0  0
  2 13  1  0
  2  1  1  1
  3  2  1  0
  4  3  1  0
  4  5  2  0
  6  5  1  0
  7 12  2  0
  7  6  1  0
  8  7  1  0
  9 10  1  0
  9  8  2  0
 10 11  2  0
 11 12  1  0
 12  4  1  0
 13 14  2  0
 16 17  2  0
 16 15  1  0
 18 16  1  0
 19 20  1  0
 19 18  1  0
 20 21  1  0
 22 21  1  6
 23 22  1  0
 23 13  1  0
 24 25  2  0
 24 22  1  0
 27 26  1  1
 27 29  1  0
 27 28  1  0
 28 24  1  0
 29 30  1  0
 31 29  2  0
M  END
$$$$
