WRA.pdb
     RDKit          3D

 31 32  0  0  1  0  0  0  0  0999 V2000
    6.7727  -17.4042   26.0602 N   0  0  0  0  0  0  0  0  0  0  0  0
    7.3367  -16.3599   25.2733 C   0  0  1  0  0  0  0  0  0  0  0  0
    8.6290  -15.8292   25.8437 C   0  0  0  0  0  0  0  0  0  0  0  0
    8.3889  -14.7428   26.8271 C   0  0  0  0  0  0  0  0  0  0  0  0
    8.6325  -14.8704   28.1976 C   0  0  0  0  0  0  0  0  0  0  0  0
    8.3077  -13.7118   28.7597 N   0  0  0  0  0  0  0  0  0  0  0  0
    7.8684  -12.8393   27.8417 C   0  0  0  0  0  0  0  0  0  0  0  0
    7.4288  -11.5517   27.9244 C   0  0  0  0  0  0  0  0  0  0  0  0
    7.0301  -10.8903   26.7787 C   0  0  0  0  0  0  0  0  0  0  0  0
    7.0723  -11.5188   25.5519 C   0  0  0  0  0  0  0  0  0  0  0  0
    7.5205  -12.8275   25.4748 C   0  0  0  0  0  0  0  0  0  0  0  0
    7.9141  -13.4758   26.6179 C   0  0  0  0  0  0  0  0  0  0  0  0
    7.5330  -16.7610   23.8536 C   0  0  0  0  0  0  0  0  0  0  0  0
    7.7674  -17.9607   23.5363 O   0  0  0  0  0  0  0  0  0  0  0  0
    9.1730  -12.9578   17.1947 N   0  0  0  0  0  0  0  0  0  0  0  0
    8.6089  -13.9797   16.3770 C   0  0  0  0  0  0  0  0  0  0  0  0
    9.1782  -14.4229   15.3228 N   0  0  0  0  0  0  0  0  0  0  0  0
    7.3474  -14.5185   16.7735 N   0  0  0  0  0  0  0  0  0  0  0  0
    6.8914  -14.4239   18.1299 C   0  0  0  0  0  0  0  0  0  0  0  0
    7.4991  -15.5458   18.9836 C   0  0  0  0  0  0  0  0  0  0  0  0
    7.2675  -15.1460   20.4198 C   0  0  0  0  0  0  0  0  0  0  0  0
    7.7527  -16.2187   21.3994 C   0  0  2  0  0  0  0  0  0  0  0  0
    7.4722  -15.8379   22.7679 N   0  0  0  0  0  0  0  0  0  0  0  0
    9.2256  -16.2446   21.2327 C   0  0  0  0  0  0  0  0  0  0  0  0
    9.8648  -15.2569   21.6568 O   0  0  0  0  0  0  0  0  0  0  0  0
    8.8094  -15.1648   14.7217 C   0  0  0  0  0  0  0  0  0  0  0  0
   11.8910  -18.6709   20.6282 C   0  0  1  0  0  0  0  0  0  0  0  0
   11.3601  -17.2361   20.5387 N   0  0  0  0  0  0  0  0  0  0  0  0
    9.9373  -17.3152   20.6270 C   0  0  0  0  0  0  0  0  0  0  0  0
   11.8570  -16.6244   19.3089 O   0  0  0  0  0  0  0  0  0  0  0  0
   13.1792  -16.2448   19.2008 O   0  0  0  0  0  0  0  0  0  0  0  0
  2 13  1  0
  2  1  1  1
  3  2  1  0
  4  3  1  0
  4  5  2  0
  6  5  1  0
  7 12  2  0
  7  6  1  0
  8  7  1  0
  9 10  1  0
  9  8  2  0
 10 11  2  0
 11 12  1  0
 12  4  1  0
 13 14  2  0
 16 17  2  0
 16 15  1  0
 18 16  1  0
 19 20  1  0
 19 18  1  0
 20 21  1  0
 22 21  1  6
 23 22  1  0
 23 13  1  0
 24 25  2  0
 24 22  1  0
 27 26  1  1
 27 29  1  0
 27 28  1  0
 28 24  1  0
 29 30  1  0
 31 29  2  0
M  END
$$$$
