WRA.pdb
     RDKit          3D

 31 32  0  0  1  0  0  0  0  0999 V2000
    6.5805  -17.3708   24.5799 N   0  0  0  0  0  0  0  0  0  0  0  0
    7.7895  -16.6379   24.7505 C   0  0  1  0  0  0  0  0  0  0  0  0
    7.7761  -15.7639   25.9805 C   0  0  0  0  0  0  0  0  0  0  0  0
    6.8149  -14.6402   25.8442 C   0  0  0  0  0  0  0  0  0  0  0  0
    5.5977  -14.5744   26.5284 C   0  0  0  0  0  0  0  0  0  0  0  0
    5.0088  -13.4406   26.1659 N   0  0  0  0  0  0  0  0  0  0  0  0
    5.7657  -12.7653   25.2895 C   0  0  0  0  0  0  0  0  0  0  0  0
    5.5963  -11.5775   24.6428 C   0  0  0  0  0  0  0  0  0  0  0  0
    6.5725  -11.1254   23.7758 C   0  0  0  0  0  0  0  0  0  0  0  0
    7.7170  -11.8632   23.5577 C   0  0  0  0  0  0  0  0  0  0  0  0
    7.8831  -13.0697   24.2183 C   0  0  0  0  0  0  0  0  0  0  0  0
    6.9081  -13.5100   25.0772 C   0  0  0  0  0  0  0  0  0  0  0  0
    8.9901  -17.5173   24.7632 C   0  0  0  0  0  0  0  0  0  0  0  0
    8.9708  -18.6471   25.3274 O   0  0  0  0  0  0  0  0  0  0  0  0
    9.3136  -18.7319   20.3288 N   0  0  0  0  0  0  0  0  0  0  0  0
   10.6225  -18.4652   19.8322 C   0  0  0  0  0  0  0  0  0  0  0  0
   10.8427  -17.7591   18.7906 N   0  0  0  0  0  0  0  0  0  0  0  0
   11.7245  -19.0237   20.5481 N   0  0  0  0  0  0  0  0  0  0  0  0
   11.9005  -18.7808   21.9504 C   0  0  0  0  0  0  0  0  0  0  0  0
   12.2727  -17.3127   22.2018 C   0  0  0  0  0  0  0  0  0  0  0  0
   12.6335  -17.2209   23.6638 C   0  0  0  0  0  0  0  0  0  0  0  0
   11.4979  -17.7109   24.5670 C   0  0  2  0  0  0  0  0  0  0  0  0
   10.2268  -17.1560   24.1515 N   0  0  0  0  0  0  0  0  0  0  0  0
   11.8139  -17.1576   25.9057 C   0  0  0  0  0  0  0  0  0  0  0  0
   13.0219  -17.0810   26.2202 O   0  0  0  0  0  0  0  0  0  0  0  0
   11.7686  -17.5285   18.4202 C   0  0  0  0  0  0  0  0  0  0  0  0
   10.4075  -15.0939   28.5196 C   0  0  2  0  0  0  0  0  0  0  0  0
   11.2482  -16.3179   28.1408 N   0  0  0  0  0  0  0  0  0  0  0  0
   10.8327  -16.7169   26.8344 C   0  0  0  0  0  0  0  0  0  0  0  0
   11.0807  -17.3423   29.1683 O   0  0  0  0  0  0  0  0  0  0  0  0
   11.5175  -17.1181   30.4578 O   0  0  0  0  0  0  0  0  0  0  0  0
  2 13  1  0
  2  1  1  1
  3  2  1  0
  4  3  1  0
  4  5  2  0
  6  5  1  0
  7 12  2  0
  7  6  1  0
  8  7  1  0
  9 10  1  0
  9  8  2  0
 10 11  2  0
 11 12  1  0
 12  4  1  0
 13 14  2  0
 16 17  2  0
 16 15  1  0
 18 16  1  0
 19 20  1  0
 19 18  1  0
 20 21  1  0
 22 21  1  6
 23 22  1  0
 23 13  1  0
 24 25  2  0
 24 22  1  0
 27 26  1  6
 27 29  1  0
 27 28  1  0
 28 24  1  0
 29 30  1  0
 31 29  2  0
M  END
$$$$
