WRA.pdb
     RDKit          3D

 31 32  0  0  1  0  0  0  0  0999 V2000
    6.6697  -17.2060   25.6157 N   0  0  0  0  0  0  0  0  0  0  0  0
    7.1600  -16.0897   24.8799 C   0  0  1  0  0  0  0  0  0  0  0  0
    8.3750  -15.4582   25.5140 C   0  0  0  0  0  0  0  0  0  0  0  0
    7.9982  -14.4611   26.5478 C   0  0  0  0  0  0  0  0  0  0  0  0
    8.3780  -14.5550   27.8897 C   0  0  0  0  0  0  0  0  0  0  0  0
    7.8679  -13.4990   28.5130 N   0  0  0  0  0  0  0  0  0  0  0  0
    7.1807  -12.7246   27.6614 C   0  0  0  0  0  0  0  0  0  0  0  0
    6.4914  -11.5595   27.8202 C   0  0  0  0  0  0  0  0  0  0  0  0
    5.8685  -10.9796   26.7318 C   0  0  0  0  0  0  0  0  0  0  0  0
    5.9367  -11.5669   25.4859 C   0  0  0  0  0  0  0  0  0  0  0  0
    6.6392  -12.7511   25.3313 C   0  0  0  0  0  0  0  0  0  0  0  0
    7.2542  -13.3191   26.4180 C   0  0  0  0  0  0  0  0  0  0  0  0
    7.4440  -16.4266   23.4584 C   0  0  0  0  0  0  0  0  0  0  0  0
    7.5542  -17.6255   23.0768 O   0  0  0  0  0  0  0  0  0  0  0  0
    9.8442  -13.8961   15.6479 N   0  0  0  0  0  0  0  0  0  0  0  0
    8.4245  -14.0100   15.5947 C   0  0  0  0  0  0  0  0  0  0  0  0
    7.7869  -14.2850   14.5225 N   0  0  0  0  0  0  0  0  0  0  0  0
    7.7016  -13.8024   16.8084 N   0  0  0  0  0  0  0  0  0  0  0  0
    8.3789  -13.4914   18.0337 C   0  0  0  0  0  0  0  0  0  0  0  0
    8.6156  -14.7645   18.8583 C   0  0  0  0  0  0  0  0  0  0  0  0
    7.9183  -14.5400   20.1772 C   0  0  0  0  0  0  0  0  0  0  0  0
    8.0050  -15.7679   21.0884 C   0  0  2  0  0  0  0  0  0  0  0  0
    7.6097  -15.4397   22.4420 N   0  0  0  0  0  0  0  0  0  0  0  0
    9.4452  -16.1194   21.1133 C   0  0  0  0  0  0  0  0  0  0  0  0
   10.2274  -15.2833   21.6163 O   0  0  0  0  0  0  0  0  0  0  0  0
    6.7734  -14.4119   14.4560 C   0  0  0  0  0  0  0  0  0  0  0  0
   11.6072  -19.0551   20.7885 C   0  0  1  0  0  0  0  0  0  0  0  0
   11.3860  -17.5456   20.6444 N   0  0  0  0  0  0  0  0  0  0  0  0
    9.9742  -17.3362   20.6045 C   0  0  0  0  0  0  0  0  0  0  0  0
   12.1012  -17.0742   19.4613 O   0  0  0  0  0  0  0  0  0  0  0  0
   13.4804  -17.0316   19.4481 O   0  0  0  0  0  0  0  0  0  0  0  0
  2 13  1  0
  2  1  1  1
  3  2  1  0
  4  3  1  0
  4  5  2  0
  6  5  1  0
  7 12  2  0
  7  6  1  0
  8  7  1  0
  9 10  1  0
  9  8  2  0
 10 11  2  0
 11 12  1  0
 12  4  1  0
 13 14  2  0
 16 17  2  0
 16 15  1  0
 18 16  1  0
 19 20  1  0
 19 18  1  0
 20 21  1  0
 22 21  1  6
 23 22  1  0
 23 13  1  0
 24 25  2  0
 24 22  1  0
 27 26  1  1
 27 29  1  0
 27 28  1  0
 28 24  1  0
 29 30  1  0
 31 29  2  0
M  END
$$$$
