WRA.pdb
     RDKit          3D

 31 32  0  0  1  0  0  0  0  0999 V2000
    6.9082  -17.5097   25.4753 N   0  0  0  0  0  0  0  0  0  0  0  0
    7.3223  -16.3733   24.7236 C   0  0  1  0  0  0  0  0  0  0  0  0
    8.3886  -15.5658   25.4221 C   0  0  0  0  0  0  0  0  0  0  0  0
    7.8042  -14.6265   26.4127 C   0  0  0  0  0  0  0  0  0  0  0  0
    7.6754  -14.9172   27.7739 C   0  0  0  0  0  0  0  0  0  0  0  0
    7.1184  -13.8565   28.3469 N   0  0  0  0  0  0  0  0  0  0  0  0
    6.8769  -12.8948   27.4448 C   0  0  0  0  0  0  0  0  0  0  0  0
    6.3299  -11.6502   27.5427 C   0  0  0  0  0  0  0  0  0  0  0  0
    6.2062  -10.8665   26.4115 C   0  0  0  0  0  0  0  0  0  0  0  0
    6.6305  -11.3301   25.1839 C   0  0  0  0  0  0  0  0  0  0  0  0
    7.1859  -12.5960   25.0913 C   0  0  0  0  0  0  0  0  0  0  0  0
    7.3044  -13.3665   26.2202 C   0  0  0  0  0  0  0  0  0  0  0  0
    7.7725  -16.7331   23.3514 C   0  0  0  0  0  0  0  0  0  0  0  0
    8.2115  -17.8871   23.0856 O   0  0  0  0  0  0  0  0  0  0  0  0
    8.6006  -12.5221   15.6037 N   0  0  0  0  0  0  0  0  0  0  0  0
    8.3716  -13.8872   15.2643 C   0  0  0  0  0  0  0  0  0  0  0  0
    8.7243  -14.3965   14.1471 N   0  0  0  0  0  0  0  0  0  0  0  0
    7.7153  -14.7052   16.2333 N   0  0  0  0  0  0  0  0  0  0  0  0
    7.6582  -14.3221   17.6141 C   0  0  0  0  0  0  0  0  0  0  0  0
    8.2080  -15.4420   18.5086 C   0  0  0  0  0  0  0  0  0  0  0  0
    7.8386  -15.0634   19.9215 C   0  0  0  0  0  0  0  0  0  0  0  0
    8.1345  -16.1917   20.9139 C   0  0  2  0  0  0  0  0  0  0  0  0
    7.7422  -15.8191   22.2569 N   0  0  0  0  0  0  0  0  0  0  0  0
    9.6105  -16.3309   20.8991 C   0  0  0  0  0  0  0  0  0  0  0  0
   10.2803  -15.3397   21.2636 O   0  0  0  0  0  0  0  0  0  0  0  0
    8.5653  -15.3678   13.8662 C   0  0  0  0  0  0  0  0  0  0  0  0
   12.1398  -18.9009   21.0588 C   0  0  1  0  0  0  0  0  0  0  0  0
   11.7199  -17.5272   20.5250 N   0  0  0  0  0  0  0  0  0  0  0  0
   10.2925  -17.5119   20.4995 C   0  0  0  0  0  0  0  0  0  0  0  0
   12.3507  -17.3126   19.2252 O   0  0  0  0  0  0  0  0  0  0  0  0
   13.6324  -16.8078   19.1441 O   0  0  0  0  0  0  0  0  0  0  0  0
  2 13  1  0
  2  1  1  1
  3  2  1  0
  4  3  1  0
  4  5  2  0
  6  5  1  0
  7 12  2  0
  7  6  1  0
  8  7  1  0
  9 10  1  0
  9  8  2  0
 10 11  2  0
 11 12  1  0
 12  4  1  0
 13 14  2  0
 16 17  2  0
 16 15  1  0
 18 16  1  0
 19 20  1  0
 19 18  1  0
 20 21  1  0
 22 21  1  6
 23 22  1  0
 23 13  1  0
 24 25  2  0
 24 22  1  0
 27 26  1  1
 27 29  1  0
 27 28  1  0
 28 24  1  0
 29 30  1  0
 31 29  2  0
M  END
$$$$
