WCT.pdb
     RDKit          3D

 28 29  0  0  1  0  0  0  0  0999 V2000
   24.9990  -19.3550  -11.2103 N   0  0  0  0  0  0  0  0  0  0  0  0
   26.1000  -20.2846  -11.5230 C   0  0  1  0  0  0  0  0  0  0  0  0
   26.0628  -21.3152  -10.4422 C   0  0  0  0  0  0  0  0  0  0  0  0
   26.3656  -20.7918   -9.0857 C   0  0  0  0  0  0  0  0  0  0  0  0
   25.4120  -20.4460   -8.1188 C   0  0  0  0  0  0  0  0  0  0  0  0
   26.0358  -20.0447   -7.0079 N   0  0  0  0  0  0  0  0  0  0  0  0
   27.3709  -20.1120   -7.2056 C   0  0  0  0  0  0  0  0  0  0  0  0
   28.4572  -19.8243   -6.4277 C   0  0  0  0  0  0  0  0  0  0  0  0
   29.7120  -19.9955   -6.9300 C   0  0  0  0  0  0  0  0  0  0  0  0
   29.9456  -20.4534   -8.2100 C   0  0  0  0  0  0  0  0  0  0  0  0
   28.8569  -20.7454   -8.9994 C   0  0  0  0  0  0  0  0  0  0  0  0
   27.5698  -20.5804   -8.5098 C   0  0  0  0  0  0  0  0  0  0  0  0
   25.9561  -20.7401  -12.8925 C   0  0  0  0  0  0  0  0  0  0  0  0
   24.8356  -20.8569  -13.4548 O   0  0  0  0  0  0  0  0  0  0  0  0
   27.0840  -21.0926  -13.7281 N   0  0  0  0  0  0  0  0  0  0  0  0
   26.9330  -21.3800  -15.1298 C   0  0  1  0  0  0  0  0  0  0  0  0
   28.3752  -21.6035  -15.6471 C   0  0  0  0  0  0  0  0  0  0  0  0
   28.2984  -22.0472  -17.4031 S   0  0  0  0  0  0  0  0  0  0  0  0
   26.1111  -22.5818  -15.4262 C   0  0  0  0  0  0  0  0  0  0  0  0
   26.3191  -23.6326  -14.7589 O   0  0  0  0  0  0  0  0  0  0  0  0
   21.9374  -24.6449  -17.0713 C   0  0  0  0  0  0  0  0  0  0  0  0
   22.7929  -23.4193  -16.8668 C   0  0  1  0  0  0  0  0  0  0  0  0
   22.3269  -22.5992  -15.8332 O   0  0  0  0  0  0  0  0  0  0  0  0
   24.2485  -23.6987  -16.7690 C   0  0  2  0  0  0  0  0  0  0  0  0
   25.0974  -22.6174  -16.4216 N   0  0  0  0  0  0  0  0  0  0  0  0
   24.7404  -24.5500  -17.9107 C   0  0  0  0  0  0  0  0  0  0  0  0
   24.9840  -23.9952  -19.0387 O   0  0  0  0  0  0  0  0  0  0  0  0
   24.9572  -25.9020  -17.8632 O   0  0  0  0  0  0  0  0  0  0  0  0
  2  1  1  1
  3  2  1  0
  3  4  1  0
  4  5  2  0
  5  6  1  0
  7  6  1  0
  8  7  2  0
  9  8  1  0
 10 11  1  0
 10  9  2  0
 11 12  2  0
 12  4  1  0
 12  7  1  0
 13 14  2  0
 13  2  1  0
 15 13  1  0
 16 19  1  0
 16 15  1  0
 16 17  1  1
 18 17  1  0
 19 20  2  0
 22 21  1  1
 22 23  1  0
 24 22  1  0
 25 19  1  0
 24 25  1  6
 26 28  1  0
 26 24  1  0
 27 26  2  0
M  END
$$$$
