WCT.pdb
     RDKit          3D

 28 29  0  0  1  0  0  0  0  0999 V2000
   19.0681  -12.2644  -16.9892 N   0  0  0  0  0  0  0  0  0  0  0  0
   20.0106  -11.4743  -17.8025 C   0  0  1  0  0  0  0  0  0  0  0  0
   19.9248  -12.0536  -19.1769 C   0  0  0  0  0  0  0  0  0  0  0  0
   20.4681  -13.4307  -19.2964 C   0  0  0  0  0  0  0  0  0  0  0  0
   20.3165  -14.4474  -18.3439 C   0  0  0  0  0  0  0  0  0  0  0  0
   20.9021  -15.5615  -18.7912 N   0  0  0  0  0  0  0  0  0  0  0  0
   21.4375  -15.3179  -20.0077 C   0  0  0  0  0  0  0  0  0  0  0  0
   22.1394  -16.0780  -20.9009 C   0  0  0  0  0  0  0  0  0  0  0  0
   22.5596  -15.5264  -22.0736 C   0  0  0  0  0  0  0  0  0  0  0  0
   22.3077  -14.2129  -22.4111 C   0  0  0  0  0  0  0  0  0  0  0  0
   21.6015  -13.4411  -21.5171 C   0  0  0  0  0  0  0  0  0  0  0  0
   21.1620  -13.9807  -20.3173 C   0  0  0  0  0  0  0  0  0  0  0  0
   19.7012  -10.0660  -17.6453 C   0  0  0  0  0  0  0  0  0  0  0  0
   18.8430   -9.4765  -18.3533 O   0  0  0  0  0  0  0  0  0  0  0  0
   20.3459   -9.2228  -16.6614 N   0  0  0  0  0  0  0  0  0  0  0  0
   20.0094   -7.8319  -16.5126 C   0  0  1  0  0  0  0  0  0  0  0  0
   18.5098   -7.8250  -16.1269 C   0  0  0  0  0  0  0  0  0  0  0  0
   18.0335   -6.1330  -15.6835 S   0  0  0  0  0  0  0  0  0  0  0  0
   20.7901   -7.1183  -15.4690 C   0  0  0  0  0  0  0  0  0  0  0  0
   20.9086   -7.6559  -14.3334 O   0  0  0  0  0  0  0  0  0  0  0  0
   24.0742   -4.8140  -16.5827 C   0  0  0  0  0  0  0  0  0  0  0  0
   23.2708   -4.2282  -15.4481 C   0  0  1  0  0  0  0  0  0  0  0  0
   22.6792   -3.0039  -15.7784 O   0  0  0  0  0  0  0  0  0  0  0  0
   22.3174   -5.1779  -14.8193 C   0  0  2  0  0  0  0  0  0  0  0  0
   21.4165   -5.8597  -15.6762 N   0  0  0  0  0  0  0  0  0  0  0  0
   21.6980   -4.6139  -13.5669 C   0  0  0  0  0  0  0  0  0  0  0  0
   20.4349   -4.4058  -13.5386 O   0  0  0  0  0  0  0  0  0  0  0  0
   22.3720   -4.2877  -12.4196 O   0  0  0  0  0  0  0  0  0  0  0  0
  2  1  1  1
  3  2  1  0
  3  4  1  0
  4  5  2  0
  5  6  1  0
  7  6  1  0
  8  7  2  0
  9  8  1  0
 10 11  1  0
 10  9  2  0
 11 12  2  0
 12  4  1  0
 12  7  1  0
 13 14  2  0
 13  2  1  0
 15 13  1  0
 16 19  1  0
 16 15  1  0
 16 17  1  1
 18 17  1  0
 19 20  2  0
 22 21  1  6
 22 23  1  0
 24 22  1  0
 25 19  1  0
 24 25  1  6
 26 28  1  0
 26 24  1  0
 27 26  2  0
M  END
$$$$
