WCT.pdb
     RDKit          3D

 28 29  0  0  1  0  0  0  0  0999 V2000
   28.1153  -21.9304  -13.3884 N   0  0  0  0  0  0  0  0  0  0  0  0
   26.9148  -21.6447  -12.5813 C   0  0  1  0  0  0  0  0  0  0  0  0
   27.2519  -20.4193  -11.7961 C   0  0  0  0  0  0  0  0  0  0  0  0
   28.2045  -20.6495  -10.6801 C   0  0  0  0  0  0  0  0  0  0  0  0
   29.5657  -20.9491  -10.8251 C   0  0  0  0  0  0  0  0  0  0  0  0
   30.1242  -21.0588   -9.6167 N   0  0  0  0  0  0  0  0  0  0  0  0
   29.1793  -20.8429   -8.6752 C   0  0  0  0  0  0  0  0  0  0  0  0
   29.1909  -20.8363   -7.3084 C   0  0  0  0  0  0  0  0  0  0  0  0
   28.0401  -20.5837   -6.6245 C   0  0  0  0  0  0  0  0  0  0  0  0
   26.8397  -20.3296   -7.2548 C   0  0  0  0  0  0  0  0  0  0  0  0
   26.8199  -20.3343   -8.6307 C   0  0  0  0  0  0  0  0  0  0  0  0
   27.9791  -20.5876   -9.3491 C   0  0  0  0  0  0  0  0  0  0  0  0
   25.7615  -21.5853  -13.4590 C   0  0  0  0  0  0  0  0  0  0  0  0
   25.8501  -21.2762  -14.6763 O   0  0  0  0  0  0  0  0  0  0  0  0
   24.4165  -21.8806  -13.0134 N   0  0  0  0  0  0  0  0  0  0  0  0
   23.2912  -21.8389  -13.9090 C   0  0  1  0  0  0  0  0  0  0  0  0
   23.0029  -23.3206  -14.2540 C   0  0  0  0  0  0  0  0  0  0  0  0
   21.5286  -23.3940  -15.3062 S   0  0  0  0  0  0  0  0  0  0  0  0
   22.0693  -21.2201  -13.3329 C   0  0  0  0  0  0  0  0  0  0  0  0
   21.6972  -21.5811  -12.1823 O   0  0  0  0  0  0  0  0  0  0  0  0
   19.8257  -18.1159  -15.5655 C   0  0  0  0  0  0  0  0  0  0  0  0
   19.8324  -18.2335  -14.0615 C   0  0  1  0  0  0  0  0  0  0  0  0
   18.7083  -17.6497  -13.4671 O   0  0  0  0  0  0  0  0  0  0  0  0
   20.1056  -19.6034  -13.5563 C   0  0  2  0  0  0  0  0  0  0  0  0
   21.2913  -20.2386  -14.0045 N   0  0  0  0  0  0  0  0  0  0  0  0
   18.8741  -20.4714  -13.5768 C   0  0  0  0  0  0  0  0  0  0  0  0
   18.7684  -21.3776  -14.4751 O   0  0  0  0  0  0  0  0  0  0  0  0
   17.8207  -20.3838  -12.7053 O   0  0  0  0  0  0  0  0  0  0  0  0
  2  1  1  6
  3  2  1  0
  3  4  1  0
  4  5  2  0
  5  6  1  0
  7  6  1  0
  8  7  2  0
  9  8  1  0
 10 11  1  0
 10  9  2  0
 11 12  2  0
 12  4  1  0
 12  7  1  0
 13 14  2  0
 13  2  1  0
 15 13  1  0
 16 19  1  0
 16 15  1  0
 16 17  1  1
 18 17  1  0
 19 20  2  0
 22 21  1  6
 22 23  1  0
 24 22  1  0
 25 19  1  0
 24 25  1  6
 26 28  1  0
 26 24  1  0
 27 26  2  0
M  END
$$$$
