WCT.pdb
     RDKit          3D

 28 29  0  0  1  0  0  0  0  0999 V2000
   25.0462  -20.5038  -13.6408 N   0  0  0  0  0  0  0  0  0  0  0  0
   23.7966  -20.5186  -12.8582 C   0  0  1  0  0  0  0  0  0  0  0  0
   22.7510  -21.0253  -13.7972 C   0  0  0  0  0  0  0  0  0  0  0  0
   22.5402  -20.1746  -14.9962 C   0  0  0  0  0  0  0  0  0  0  0  0
   23.0016  -20.4648  -16.2872 C   0  0  0  0  0  0  0  0  0  0  0  0
   22.6043  -19.5025  -17.1241 N   0  0  0  0  0  0  0  0  0  0  0  0
   21.8958  -18.5835  -16.4317 C   0  0  0  0  0  0  0  0  0  0  0  0
   21.2714  -17.4169  -16.7742 C   0  0  0  0  0  0  0  0  0  0  0  0
   20.6274  -16.6898  -15.8189 C   0  0  0  0  0  0  0  0  0  0  0  0
   20.5732  -17.0795  -14.4968 C   0  0  0  0  0  0  0  0  0  0  0  0
   21.1993  -18.2531  -14.1440 C   0  0  0  0  0  0  0  0  0  0  0  0
   21.8603  -19.0112  -15.0991 C   0  0  0  0  0  0  0  0  0  0  0  0
   24.0181  -21.2625  -11.6328 C   0  0  0  0  0  0  0  0  0  0  0  0
   24.4569  -22.4426  -11.6252 O   0  0  0  0  0  0  0  0  0  0  0  0
   23.7599  -20.7120  -10.3195 N   0  0  0  0  0  0  0  0  0  0  0  0
   23.4830  -21.5503   -9.1833 C   0  0  1  0  0  0  0  0  0  0  0  0
   24.5469  -21.1556   -8.1298 C   0  0  0  0  0  0  0  0  0  0  0  0
   25.0728  -19.4503   -8.4484 S   0  0  0  0  0  0  0  0  0  0  0  0
   22.1262  -21.3729   -8.6042 C   0  0  0  0  0  0  0  0  0  0  0  0
   21.5280  -20.2785   -8.7971 O   0  0  0  0  0  0  0  0  0  0  0  0
   19.3608  -22.2419  -10.0003 C   0  0  0  0  0  0  0  0  0  0  0  0
   19.2247  -23.0127   -8.7106 C   0  0  1  0  0  0  0  0  0  0  0  0
   19.3455  -24.3952   -8.8899 O   0  0  0  0  0  0  0  0  0  0  0  0
   20.0669  -22.4999   -7.5997 C   0  0  2  0  0  0  0  0  0  0  0  0
   21.4577  -22.3696   -7.8432 N   0  0  0  0  0  0  0  0  0  0  0  0
   19.7105  -23.1323   -6.2793 C   0  0  0  0  0  0  0  0  0  0  0  0
   20.6380  -23.6665   -5.5765 O   0  0  0  0  0  0  0  0  0  0  0  0
   18.4533  -23.1987   -5.7390 O   0  0  0  0  0  0  0  0  0  0  0  0
  2  1  1  6
  3  2  1  0
  3  4  1  0
  4  5  2  0
  5  6  1  0
  7  6  1  0
  8  7  2  0
  9  8  1  0
 10 11  1  0
 10  9  2  0
 11 12  2  0
 12  4  1  0
 12  7  1  0
 13 14  2  0
 13  2  1  0
 15 13  1  0
 16 19  1  0
 16 15  1  0
 16 17  1  1
 18 17  1  0
 19 20  2  0
 22 21  1  6
 22 23  1  0
 24 22  1  0
 25 19  1  0
 24 25  1  6
 26 28  1  0
 26 24  1  0
 27 26  2  0
M  END
$$$$
