WCT.pdb
     RDKit          3D

 28 29  0  0  1  0  0  0  0  0999 V2000
   19.3450  -10.9334  -16.7712 N   0  0  0  0  0  0  0  0  0  0  0  0
   19.5924   -9.9431  -15.7072 C   0  0  1  0  0  0  0  0  0  0  0  0
   20.1851   -8.7605  -16.4013 C   0  0  0  0  0  0  0  0  0  0  0  0
   21.2289   -8.0503  -15.6190 C   0  0  0  0  0  0  0  0  0  0  0  0
   22.5869   -8.3940  -15.5800 C   0  0  0  0  0  0  0  0  0  0  0  0
   23.2399   -7.5239  -14.8050 N   0  0  0  0  0  0  0  0  0  0  0  0
   22.3608   -6.6152  -14.3280 C   0  0  0  0  0  0  0  0  0  0  0  0
   22.4760   -5.5303  -13.5047 C   0  0  0  0  0  0  0  0  0  0  0  0
   21.3707   -4.7959  -13.1965 C   0  0  0  0  0  0  0  0  0  0  0  0
   20.1159   -5.0988  -13.6829 C   0  0  0  0  0  0  0  0  0  0  0  0
   19.9918   -6.1897  -14.5127 C   0  0  0  0  0  0  0  0  0  0  0  0
   21.1029   -6.9519  -14.8419 C   0  0  0  0  0  0  0  0  0  0  0  0
   18.3661   -9.7398  -14.9598 C   0  0  0  0  0  0  0  0  0  0  0  0
   17.2356   -9.6876  -15.5117 O   0  0  0  0  0  0  0  0  0  0  0  0
   18.3368   -9.5857  -13.5210 N   0  0  0  0  0  0  0  0  0  0  0  0
   17.1334   -9.2291  -12.8176 C   0  0  1  0  0  0  0  0  0  0  0  0
   17.3246   -9.7971  -11.3899 C   0  0  0  0  0  0  0  0  0  0  0  0
   15.9258   -9.2695  -10.3645 S   0  0  0  0  0  0  0  0  0  0  0  0
   16.8783   -7.7675  -12.7367 C   0  0  0  0  0  0  0  0  0  0  0  0
   17.7490   -7.0340  -12.1922 O   0  0  0  0  0  0  0  0  0  0  0  0
   15.7660   -5.5242  -15.7975 C   0  0  0  0  0  0  0  0  0  0  0  0
   16.0501   -4.9866  -14.4169 C   0  0  1  0  0  0  0  0  0  0  0  0
   15.8252   -3.6093  -14.3147 O   0  0  0  0  0  0  0  0  0  0  0  0
   15.4148   -5.7574  -13.3175 C   0  0  2  0  0  0  0  0  0  0  0  0
   15.7056   -7.1431  -13.2409 N   0  0  0  0  0  0  0  0  0  0  0  0
   13.9605   -5.4037  -13.1436 C   0  0  0  0  0  0  0  0  0  0  0  0
   13.0819   -6.3314  -13.2270 O   0  0  0  0  0  0  0  0  0  0  0  0
   13.4672   -4.1489  -12.9010 O   0  0  0  0  0  0  0  0  0  0  0  0
  2  1  1  6
  3  2  1  0
  3  4  1  0
  4  5  2  0
  5  6  1  0
  7  6  1  0
  8  7  2  0
  9  8  1  0
 10 11  1  0
 10  9  2  0
 11 12  2  0
 12  4  1  0
 12  7  1  0
 13 14  2  0
 13  2  1  0
 15 13  1  0
 16 19  1  0
 16 15  1  0
 16 17  1  1
 18 17  1  0
 19 20  2  0
 22 21  1  6
 22 23  1  0
 24 22  1  0
 25 19  1  0
 24 25  1  6
 26 28  1  0
 26 24  1  0
 27 26  2  0
M  END
$$$$
