WCT.pdb
     RDKit          3D

 28 29  0  0  1  0  0  0  0  0999 V2000
   27.6207  -22.2740  -14.4640 N   0  0  0  0  0  0  0  0  0  0  0  0
   26.5054  -21.8440  -13.6006 C   0  0  1  0  0  0  0  0  0  0  0  0
   26.8989  -20.4950  -13.0935 C   0  0  0  0  0  0  0  0  0  0  0  0
   27.7877  -20.5228  -11.9040 C   0  0  0  0  0  0  0  0  0  0  0  0
   29.1820  -20.3850  -11.9305 C   0  0  0  0  0  0  0  0  0  0  0  0
   29.6530  -20.4251  -10.6812 N   0  0  0  0  0  0  0  0  0  0  0  0
   28.6183  -20.5855   -9.8270 C   0  0  0  0  0  0  0  0  0  0  0  0
   28.5226  -20.6933   -8.4678 C   0  0  0  0  0  0  0  0  0  0  0  0
   27.3010  -20.8587   -7.8878 C   0  0  0  0  0  0  0  0  0  0  0  0
   26.1326  -20.9246   -8.6180 C   0  0  0  0  0  0  0  0  0  0  0  0
   26.2206  -20.8167   -9.9871 C   0  0  0  0  0  0  0  0  0  0  0  0
   27.4530  -20.6464  -10.6005 C   0  0  0  0  0  0  0  0  0  0  0  0
   25.2662  -21.9470  -14.3472 C   0  0  0  0  0  0  0  0  0  0  0  0
   25.1017  -21.3984  -15.4685 O   0  0  0  0  0  0  0  0  0  0  0  0
   24.1194  -22.6909  -13.8715 N   0  0  0  0  0  0  0  0  0  0  0  0
   22.9362  -22.8607  -14.6723 C   0  0  1  0  0  0  0  0  0  0  0  0
   22.6368  -24.3790  -14.6217 C   0  0  0  0  0  0  0  0  0  0  0  0
   23.9036  -25.2515  -15.5811 S   0  0  0  0  0  0  0  0  0  0  0  0
   21.7510  -22.1080  -14.1859 C   0  0  0  0  0  0  0  0  0  0  0  0
   21.5851  -21.9861  -12.9408 O   0  0  0  0  0  0  0  0  0  0  0  0
   19.8794  -19.1180  -16.6515 C   0  0  0  0  0  0  0  0  0  0  0  0
   19.7233  -19.2753  -15.1592 C   0  0  1  0  0  0  0  0  0  0  0  0
   18.6743  -18.5084  -14.6401 O   0  0  0  0  0  0  0  0  0  0  0  0
   19.6923  -20.6851  -14.6926 C   0  0  2  0  0  0  0  0  0  0  0  0
   20.7886  -21.5123  -15.0452 N   0  0  0  0  0  0  0  0  0  0  0  0
   18.3363  -21.3149  -14.8802 C   0  0  0  0  0  0  0  0  0  0  0  0
   18.1888  -22.2144  -15.7794 O   0  0  0  0  0  0  0  0  0  0  0  0
   17.2082  -21.0099  -14.1652 O   0  0  0  0  0  0  0  0  0  0  0  0
  2  1  1  6
  3  2  1  0
  3  4  1  0
  4  5  2  0
  5  6  1  0
  7  6  1  0
  8  7  2  0
  9  8  1  0
 10 11  1  0
 10  9  2  0
 11 12  2  0
 12  4  1  0
 12  7  1  0
 13 14  2  0
 13  2  1  0
 15 13  1  0
 16 19  1  0
 16 15  1  0
 16 17  1  1
 18 17  1  0
 19 20  2  0
 22 21  1  6
 22 23  1  0
 24 22  1  0
 25 19  1  0
 24 25  1  6
 26 28  1  0
 26 24  1  0
 27 26  2  0
M  END
$$$$
