WCT.pdb
     RDKit          3D

 28 29  0  0  1  0  0  0  0  0999 V2000
   20.7900  -18.7320  -18.3662 N   0  0  0  0  0  0  0  0  0  0  0  0
   20.5935  -20.1933  -18.3587 C   0  0  1  0  0  0  0  0  0  0  0  0
   21.8620  -20.7574  -17.8069 C   0  0  0  0  0  0  0  0  0  0  0  0
   23.0470  -20.5724  -18.6830 C   0  0  0  0  0  0  0  0  0  0  0  0
   24.1602  -19.7757  -18.3832 C   0  0  0  0  0  0  0  0  0  0  0  0
   25.0483  -19.8671  -19.3767 N   0  0  0  0  0  0  0  0  0  0  0  0
   24.5614  -20.6969  -20.3256 C   0  0  0  0  0  0  0  0  0  0  0  0
   25.0350  -21.1369  -21.5299 C   0  0  0  0  0  0  0  0  0  0  0  0
   24.2833  -21.9900  -22.2804 C   0  0  0  0  0  0  0  0  0  0  0  0
   23.0432  -22.4405  -21.8780 C   0  0  0  0  0  0  0  0  0  0  0  0
   22.5594  -22.0021  -20.6666 C   0  0  0  0  0  0  0  0  0  0  0  0
   23.3070  -21.1344  -19.8842 C   0  0  0  0  0  0  0  0  0  0  0  0
   19.3607  -20.4983  -17.6581 C   0  0  0  0  0  0  0  0  0  0  0  0
   18.9882  -19.8678  -16.6338 O   0  0  0  0  0  0  0  0  0  0  0  0
   18.4542  -21.5455  -18.0780 N   0  0  0  0  0  0  0  0  0  0  0  0
   17.2476  -21.8442  -17.3534 C   0  0  1  0  0  0  0  0  0  0  0  0
   16.2638  -22.3783  -18.4231 C   0  0  0  0  0  0  0  0  0  0  0  0
   14.7136  -22.8406  -17.6049 S   0  0  0  0  0  0  0  0  0  0  0  0
   17.4095  -22.8602  -16.2813 C   0  0  0  0  0  0  0  0  0  0  0  0
   18.2410  -23.7931  -16.4570 O   0  0  0  0  0  0  0  0  0  0  0  0
   18.7829  -22.1838  -12.9919 C   0  0  0  0  0  0  0  0  0  0  0  0
   18.2806  -23.5698  -13.3122 C   0  0  1  0  0  0  0  0  0  0  0  0
   18.4448  -24.4650  -12.2494 O   0  0  0  0  0  0  0  0  0  0  0  0
   16.9129  -23.6064  -13.8904 C   0  0  2  0  0  0  0  0  0  0  0  0
   16.6801  -22.8420  -15.0618 N   0  0  0  0  0  0  0  0  0  0  0  0
   15.8466  -23.4868  -12.8325 C   0  0  0  0  0  0  0  0  0  0  0  0
   14.9177  -22.6184  -12.9830 O   0  0  0  0  0  0  0  0  0  0  0  0
   15.7701  -24.2349  -11.6874 O   0  0  0  0  0  0  0  0  0  0  0  0
  2  1  1  1
  3  2  1  0
  3  4  1  0
  4  5  2  0
  5  6  1  0
  7  6  1  0
  8  7  2  0
  9  8  1  0
 10 11  1  0
 10  9  2  0
 11 12  2  0
 12  4  1  0
 12  7  1  0
 13 14  2  0
 13  2  1  0
 15 13  1  0
 16 19  1  0
 16 15  1  0
 16 17  1  6
 18 17  1  0
 19 20  2  0
 22 21  1  1
 22 23  1  0
 24 22  1  0
 25 19  1  0
 24 25  1  6
 26 28  1  0
 26 24  1  0
 27 26  2  0
M  END
$$$$
