WCT.pdb
     RDKit          3D

 28 29  0  0  1  0  0  0  0  0999 V2000
   29.0986  -20.4835  -14.6346 N   0  0  0  0  0  0  0  0  0  0  0  0
   27.7712  -19.8783  -14.4210 C   0  0  1  0  0  0  0  0  0  0  0  0
   27.2380  -19.6076  -15.7900 C   0  0  0  0  0  0  0  0  0  0  0  0
   27.8419  -18.4280  -16.4606 C   0  0  0  0  0  0  0  0  0  0  0  0
   28.6644  -18.4729  -17.5943 C   0  0  0  0  0  0  0  0  0  0  0  0
   28.9997  -17.2286  -17.9455 N   0  0  0  0  0  0  0  0  0  0  0  0
   28.4279  -16.3599  -17.0827 C   0  0  0  0  0  0  0  0  0  0  0  0
   28.4372  -14.9980  -16.9673 C   0  0  0  0  0  0  0  0  0  0  0  0
   27.7467  -14.4011  -15.9559 C   0  0  0  0  0  0  0  0  0  0  0  0
   27.0247  -15.1167  -15.0234 C   0  0  0  0  0  0  0  0  0  0  0  0
   27.0104  -16.4884  -15.1329 C   0  0  0  0  0  0  0  0  0  0  0  0
   27.7045  -17.1188  -16.1549 C   0  0  0  0  0  0  0  0  0  0  0  0
   26.9936  -20.7439  -13.5551 C   0  0  0  0  0  0  0  0  0  0  0  0
   27.4476  -21.8213  -13.0876 O   0  0  0  0  0  0  0  0  0  0  0  0
   25.6370  -20.4416  -13.1515 N   0  0  0  0  0  0  0  0  0  0  0  0
   24.8552  -21.3566  -12.3629 C   0  0  1  0  0  0  0  0  0  0  0  0
   25.5890  -21.4351  -11.0018 C   0  0  0  0  0  0  0  0  0  0  0  0
   25.5400  -19.7992  -10.2221 S   0  0  0  0  0  0  0  0  0  0  0  0
   23.4489  -20.9311  -12.1411 C   0  0  0  0  0  0  0  0  0  0  0  0
   23.2282  -19.7350  -11.8048 O   0  0  0  0  0  0  0  0  0  0  0  0
   21.6166  -22.4713  -15.1625 C   0  0  0  0  0  0  0  0  0  0  0  0
   20.6496  -22.4059  -14.0065 C   0  0  1  0  0  0  0  0  0  0  0  0
   20.2476  -23.6709  -13.5637 O   0  0  0  0  0  0  0  0  0  0  0  0
   21.0816  -21.5175  -12.8971 C   0  0  2  0  0  0  0  0  0  0  0  0
   22.3313  -21.7964  -12.2881 N   0  0  0  0  0  0  0  0  0  0  0  0
   19.9590  -21.2235  -11.9361 C   0  0  0  0  0  0  0  0  0  0  0  0
   20.1219  -21.4839  -10.6930 O   0  0  0  0  0  0  0  0  0  0  0  0
   18.7411  -20.6918  -12.2691 O   0  0  0  0  0  0  0  0  0  0  0  0
  2  1  1  6
  3  2  1  0
  3  4  1  0
  4  5  2  0
  5  6  1  0
  7  6  1  0
  8  7  2  0
  9  8  1  0
 10 11  1  0
 10  9  2  0
 11 12  2  0
 12  4  1  0
 12  7  1  0
 13 14  2  0
 13  2  1  0
 15 13  1  0
 16 19  1  0
 16 15  1  0
 16 17  1  1
 18 17  1  0
 19 20  2  0
 22 21  1  6
 22 23  1  0
 24 22  1  0
 25 19  1  0
 24 25  1  1
 26 28  1  0
 26 24  1  0
 27 26  2  0
M  END
$$$$
