HLH.pdb
     RDKit          3D

 29 30  0  0  1  0  0  0  0  0999 V2000
   22.3841  -15.1397  -17.2269 N   0  0  0  0  0  0  0  0  0  0  0  0
   22.2926  -13.9286  -17.9929 C   0  0  1  0  0  0  0  0  0  0  0  0
   20.8763  -13.7434  -18.4958 C   0  0  0  0  0  0  0  0  0  0  0  0
   20.5567  -14.7926  -19.5219 C   0  0  0  0  0  0  0  0  0  0  0  0
   21.4167  -15.7989  -19.8661 C   0  0  0  0  0  0  0  0  0  0  0  0
   20.8164  -16.5467  -20.8011 N   0  0  0  0  0  0  0  0  0  0  0  0
   19.6081  -16.0209  -21.0374 C   0  0  0  0  0  0  0  0  0  0  0  0
   19.4605  -14.9469  -20.2478 N   0  0  0  0  0  0  0  0  0  0  0  0
   22.5579  -12.7580  -17.0771 C   0  0  0  0  0  0  0  0  0  0  0  0
   22.0320  -12.7306  -15.9491 O   0  0  0  0  0  0  0  0  0  0  0  0
   25.8265  -11.4475  -14.6368 C   0  0  0  0  0  0  0  0  0  0  0  0
   26.1053  -10.9896  -16.0772 C   0  0  2  0  0  0  0  0  0  0  0  0
   27.5109  -10.6056  -16.2365 C   0  0  0  0  0  0  0  0  0  0  0  0
   25.0289  -10.1620  -16.6139 C   0  0  0  0  0  0  0  0  0  0  0  0
   23.6127  -10.5420  -16.5628 C   0  0  2  0  0  0  0  0  0  0  0  0
   23.3894  -11.6980  -17.4779 N   0  0  0  0  0  0  0  0  0  0  0  0
   22.5444   -9.5755  -16.7610 C   0  0  0  0  0  0  0  0  0  0  0  0
   22.1659   -9.2649  -17.9721 O   0  0  0  0  0  0  0  0  0  0  0  0
   21.8299   -8.9167  -15.7600 N   0  0  0  0  0  0  0  0  0  0  0  0
   20.8034   -7.8917  -16.1319 C   0  0  1  0  0  0  0  0  0  0  0  0
   19.5670   -8.3812  -15.4272 C   0  0  0  0  0  0  0  0  0  0  0  0
   18.4240   -7.4687  -15.4427 C   0  0  0  0  0  0  0  0  0  0  0  0
   18.1814   -6.2976  -14.7905 C   0  0  0  0  0  0  0  0  0  0  0  0
   16.9842   -5.8092  -15.2156 N   0  0  0  0  0  0  0  0  0  0  0  0
   16.4942   -6.6637  -16.1177 C   0  0  0  0  0  0  0  0  0  0  0  0
   17.3426   -7.6570  -16.2627 N   0  0  0  0  0  0  0  0  0  0  0  0
   21.2662   -6.6132  -15.5791 C   0  0  0  0  0  0  0  0  0  0  0  0
   20.8326   -5.3659  -15.9922 O   0  0  0  0  0  0  0  0  0  0  0  0
   22.1282   -6.5985  -14.6501 O   0  0  0  0  0  0  0  0  0  0  0  0
  2  1  1  1
  2  9  1  0
  3  2  1  0
  4  3  1  0
  5  4  2  0
  6  5  1  0
  7  6  1  0
  7  8  2  0
  8  4  1  0
  9 16  1  0
  9 10  2  0
 12 11  1  1
 12 13  1  0
 15 14  1  6
 14 12  1  0
 15 17  1  0
 16 15  1  0
 17 18  2  0
 19 20  1  0
 19 17  1  0
 20 27  1  0
 20 21  1  1
 22 21  1  0
 23 22  2  0
 24 23  1  0
 25 24  1  0
 25 26  2  0
 26 22  1  0
 27 28  1  0
 29 27  2  0
M  END
$$$$
