HLH.pdb
     RDKit          3D

 29 30  0  0  1  0  0  0  0  0999 V2000
   26.8931  -19.8118  -17.9342 N   0  0  0  0  0  0  0  0  0  0  0  0
   26.4148  -18.9970  -16.8529 C   0  0  1  0  0  0  0  0  0  0  0  0
   25.1682  -18.2521  -17.2821 C   0  0  0  0  0  0  0  0  0  0  0  0
   25.5355  -17.1390  -18.2212 C   0  0  0  0  0  0  0  0  0  0  0  0
   25.5186  -17.2635  -19.5831 C   0  0  0  0  0  0  0  0  0  0  0  0
   25.8978  -16.0897  -20.1049 N   0  0  0  0  0  0  0  0  0  0  0  0
   26.1466  -15.2492  -19.0931 C   0  0  0  0  0  0  0  0  0  0  0  0
   25.9212  -15.9032  -17.9442 N   0  0  0  0  0  0  0  0  0  0  0  0
   25.9827  -19.9006  -15.7232 C   0  0  0  0  0  0  0  0  0  0  0  0
   25.6180  -21.0641  -15.9740 O   0  0  0  0  0  0  0  0  0  0  0  0
   25.8617  -22.2327  -11.0603 C   0  0  0  0  0  0  0  0  0  0  0  0
   26.0793  -20.7319  -10.8104 C   0  0  2  0  0  0  0  0  0  0  0  0
   25.2314  -20.2610   -9.7113 C   0  0  0  0  0  0  0  0  0  0  0  0
   26.1981  -19.9745  -12.0528 C   0  0  0  0  0  0  0  0  0  0  0  0
   25.5241  -20.3532  -13.2998 C   0  0  2  0  0  0  0  0  0  0  0  0
   25.9856  -19.4490  -14.3921 N   0  0  0  0  0  0  0  0  0  0  0  0
   24.0792  -20.4925  -13.3872 C   0  0  0  0  0  0  0  0  0  0  0  0
   23.4693  -21.3978  -12.6696 O   0  0  0  0  0  0  0  0  0  0  0  0
   23.2215  -19.7261  -14.1768 N   0  0  0  0  0  0  0  0  0  0  0  0
   21.7393  -19.8714  -14.0203 C   0  0  1  0  0  0  0  0  0  0  0  0
   21.2303  -18.4887  -14.3271 C   0  0  0  0  0  0  0  0  0  0  0  0
   19.7827  -18.3682  -14.4974 C   0  0  0  0  0  0  0  0  0  0  0  0
   18.7651  -19.2562  -14.3196 C   0  0  0  0  0  0  0  0  0  0  0  0
   17.5880  -18.6123  -14.5492 N   0  0  0  0  0  0  0  0  0  0  0  0
   17.8725  -17.3455  -14.8627 C   0  0  0  0  0  0  0  0  0  0  0  0
   19.1769  -17.1866  -14.8351 N   0  0  0  0  0  0  0  0  0  0  0  0
   21.3027  -20.8413  -15.0317 C   0  0  0  0  0  0  0  0  0  0  0  0
   20.1532  -21.6074  -14.9534 O   0  0  0  0  0  0  0  0  0  0  0  0
   21.9980  -21.0264  -16.0751 O   0  0  0  0  0  0  0  0  0  0  0  0
  2  1  1  6
  2  9  1  0
  3  2  1  0
  4  3  1  0
  5  4  2  0
  6  5  1  0
  7  6  1  0
  7  8  2  0
  8  4  1  0
  9 16  1  0
  9 10  2  0
 12 11  1  6
 12 13  1  0
 15 14  1  1
 14 12  1  0
 15 17  1  0
 16 15  1  0
 17 18  2  0
 19 20  1  0
 19 17  1  0
 20 27  1  0
 20 21  1  6
 22 21  1  0
 23 22  2  0
 24 23  1  0
 25 24  1  0
 25 26  2  0
 26 22  1  0
 27 28  1  0
 29 27  2  0
M  END
$$$$
