HLH.pdb
     RDKit          3D

 29 30  0  0  1  0  0  0  0  0999 V2000
   22.1277  -12.8958  -17.5464 N   0  0  0  0  0  0  0  0  0  0  0  0
   21.4803  -11.6635  -17.8986 C   0  0  1  0  0  0  0  0  0  0  0  0
   20.0917  -11.6210  -17.2960 C   0  0  0  0  0  0  0  0  0  0  0  0
   19.2060  -12.6218  -17.9815 C   0  0  0  0  0  0  0  0  0  0  0  0
   19.6185  -13.4071  -19.0225 C   0  0  0  0  0  0  0  0  0  0  0  0
   18.5847  -14.1761  -19.3882 N   0  0  0  0  0  0  0  0  0  0  0  0
   17.5483  -13.8794  -18.5945 C   0  0  0  0  0  0  0  0  0  0  0  0
   17.9410  -12.9260  -17.7369 N   0  0  0  0  0  0  0  0  0  0  0  0
   22.2372  -10.5224  -17.2627 C   0  0  0  0  0  0  0  0  0  0  0  0
   22.7379  -10.6731  -16.1329 O   0  0  0  0  0  0  0  0  0  0  0  0
   26.1139   -8.8974  -17.4666 C   0  0  0  0  0  0  0  0  0  0  0  0
   25.3294   -8.3413  -18.6655 C   0  0  2  0  0  0  0  0  0  0  0  0
   26.2398   -7.7597  -19.6563 C   0  0  0  0  0  0  0  0  0  0  0  0
   24.1115   -7.6474  -18.2574 C   0  0  0  0  0  0  0  0  0  0  0  0
   23.1579   -8.1901  -17.2834 C   0  0  2  0  0  0  0  0  0  0  0  0
   22.3857   -9.2921  -17.9259 N   0  0  0  0  0  0  0  0  0  0  0  0
   22.2357   -7.3405  -16.5469 C   0  0  0  0  0  0  0  0  0  0  0  0
   21.0940   -7.0021  -17.0842 O   0  0  0  0  0  0  0  0  0  0  0  0
   22.4293   -6.8284  -15.2637 N   0  0  0  0  0  0  0  0  0  0  0  0
   21.4311   -5.8726  -14.6869 C   0  0  1  0  0  0  0  0  0  0  0  0
   20.9055   -6.6160  -13.4885 C   0  0  0  0  0  0  0  0  0  0  0  0
   19.8343   -7.5754  -13.7558 C   0  0  0  0  0  0  0  0  0  0  0  0
   19.2603   -8.0039  -14.9144 C   0  0  0  0  0  0  0  0  0  0  0  0
   18.3461   -8.9655  -14.6108 N   0  0  0  0  0  0  0  0  0  0  0  0
   18.3552   -9.1306  -13.2855 C   0  0  0  0  0  0  0  0  0  0  0  0
   19.2380   -8.3084  -12.7637 N   0  0  0  0  0  0  0  0  0  0  0  0
   22.1780   -4.6731  -14.2899 C   0  0  0  0  0  0  0  0  0  0  0  0
   21.6075   -3.4639  -13.9338 O   0  0  0  0  0  0  0  0  0  0  0  0
   23.4447   -4.6972  -14.2544 O   0  0  0  0  0  0  0  0  0  0  0  0
  2  1  1  1
  2  9  1  0
  3  2  1  0
  4  3  1  0
  5  4  2  0
  6  5  1  0
  7  6  1  0
  7  8  2  0
  8  4  1  0
  9 16  1  0
  9 10  2  0
 12 11  1  1
 12 13  1  0
 15 14  1  6
 14 12  1  0
 15 17  1  0
 16 15  1  0
 17 18  2  0
 19 20  1  0
 19 17  1  0
 20 27  1  0
 20 21  1  1
 22 21  1  0
 23 22  2  0
 24 23  1  0
 25 24  1  0
 25 26  2  0
 26 22  1  0
 27 28  1  0
 29 27  2  0
M  END
$$$$
