HLH.pdb
     RDKit          3D

 29 30  0  0  1  0  0  0  0  0999 V2000
   20.4517  -15.1183  -16.5587 N   0  0  0  0  0  0  0  0  0  0  0  0
   20.2539  -13.8088  -17.1136 C   0  0  1  0  0  0  0  0  0  0  0  0
   18.8087  -13.3903  -16.9431 C   0  0  0  0  0  0  0  0  0  0  0  0
   17.9195  -14.2733  -17.7711 C   0  0  0  0  0  0  0  0  0  0  0  0
   17.7058  -14.0877  -19.1092 C   0  0  0  0  0  0  0  0  0  0  0  0
   16.8686  -15.0467  -19.5256 N   0  0  0  0  0  0  0  0  0  0  0  0
   16.5649  -15.8154  -18.4725 C   0  0  0  0  0  0  0  0  0  0  0  0
   17.2146  -15.3318  -17.4036 N   0  0  0  0  0  0  0  0  0  0  0  0
   21.0639  -12.8184  -16.3121 C   0  0  0  0  0  0  0  0  0  0  0  0
   20.9737  -12.8150  -15.0705 O   0  0  0  0  0  0  0  0  0  0  0  0
   26.5063  -10.7510  -15.9134 C   0  0  0  0  0  0  0  0  0  0  0  0
   25.0802  -10.3251  -15.5296 C   0  0  2  0  0  0  0  0  0  0  0  0
   25.0195   -9.9273  -14.1201 C   0  0  0  0  0  0  0  0  0  0  0  0
   24.0652  -11.1961  -16.1148 C   0  0  0  0  0  0  0  0  0  0  0  0
   22.6345  -10.8715  -16.1368 C   0  0  2  0  0  0  0  0  0  0  0  0
   21.9184  -11.8995  -16.9455 N   0  0  0  0  0  0  0  0  0  0  0  0
   22.1451   -9.5552  -16.5144 C   0  0  0  0  0  0  0  0  0  0  0  0
   22.0977   -9.2169  -17.7753 O   0  0  0  0  0  0  0  0  0  0  0  0
   21.6841   -8.5649  -15.6466 N   0  0  0  0  0  0  0  0  0  0  0  0
   21.3635   -7.2020  -16.1781 C   0  0  1  0  0  0  0  0  0  0  0  0
   20.1652   -7.4543  -17.0530 C   0  0  0  0  0  0  0  0  0  0  0  0
   18.9082   -7.7096  -16.3502 C   0  0  0  0  0  0  0  0  0  0  0  0
   18.2561   -8.8633  -16.0349 C   0  0  0  0  0  0  0  0  0  0  0  0
   17.1502   -8.5466  -15.3073 N   0  0  0  0  0  0  0  0  0  0  0  0
   17.1191   -7.2181  -15.1731 C   0  0  0  0  0  0  0  0  0  0  0  0
   18.1613   -6.7070  -15.7897 N   0  0  0  0  0  0  0  0  0  0  0  0
   21.0172   -6.3696  -15.0198 C   0  0  0  0  0  0  0  0  0  0  0  0
   20.6584   -5.0347  -15.0800 O   0  0  0  0  0  0  0  0  0  0  0  0
   21.0328   -6.8666  -13.8540 O   0  0  0  0  0  0  0  0  0  0  0  0
  2  1  1  1
  2  9  1  0
  3  2  1  0
  4  3  1  0
  5  4  2  0
  6  5  1  0
  7  6  1  0
  7  8  2  0
  8  4  1  0
  9 16  1  0
  9 10  2  0
 12 11  1  1
 12 13  1  0
 15 14  1  6
 14 12  1  0
 15 17  1  0
 16 15  1  0
 17 18  2  0
 19 20  1  0
 19 17  1  0
 20 27  1  0
 20 21  1  6
 22 21  1  0
 23 22  2  0
 24 23  1  0
 25 24  1  0
 25 26  2  0
 26 22  1  0
 27 28  1  0
 29 27  2  0
M  END
$$$$
