HLH.pdb
     RDKit          3D

 29 30  0  0  1  0  0  0  0  0999 V2000
   22.4355  -14.5609  -19.2650 N   0  0  0  0  0  0  0  0  0  0  0  0
   23.0970  -13.3039  -19.4757 C   0  0  1  0  0  0  0  0  0  0  0  0
   22.2507  -12.4199  -20.3675 C   0  0  0  0  0  0  0  0  0  0  0  0
   22.5486  -12.7139  -21.8099 C   0  0  0  0  0  0  0  0  0  0  0  0
   23.8161  -12.8202  -22.3127 C   0  0  0  0  0  0  0  0  0  0  0  0
   23.7150  -13.0862  -23.6215 N   0  0  0  0  0  0  0  0  0  0  0  0
   22.4140  -13.1452  -23.9315 C   0  0  0  0  0  0  0  0  0  0  0  0
   21.7094  -12.9156  -22.8137 N   0  0  0  0  0  0  0  0  0  0  0  0
   23.1907  -12.5811  -18.1535 C   0  0  0  0  0  0  0  0  0  0  0  0
   22.3287  -12.7878  -17.2794 O   0  0  0  0  0  0  0  0  0  0  0  0
   25.5831  -13.1707  -14.7644 C   0  0  0  0  0  0  0  0  0  0  0  0
   26.3747  -12.3124  -15.7639 C   0  0  2  0  0  0  0  0  0  0  0  0
   27.8066  -12.3410  -15.4519 C   0  0  0  0  0  0  0  0  0  0  0  0
   25.6937  -11.0605  -16.0805 C   0  0  0  0  0  0  0  0  0  0  0  0
   24.3130  -10.9913  -16.5721 C   0  0  2  0  0  0  0  0  0  0  0  0
   24.2360  -11.6780  -17.8935 N   0  0  0  0  0  0  0  0  0  0  0  0
   23.5824   -9.7366  -16.6538 C   0  0  0  0  0  0  0  0  0  0  0  0
   23.8730   -8.8756  -17.5923 O   0  0  0  0  0  0  0  0  0  0  0  0
   22.5459   -9.3279  -15.8142 N   0  0  0  0  0  0  0  0  0  0  0  0
   21.9456   -7.9664  -15.9837 C   0  0  1  0  0  0  0  0  0  0  0  0
   20.5210   -8.2704  -16.3621 C   0  0  0  0  0  0  0  0  0  0  0  0
   20.3111   -8.7164  -17.7392 C   0  0  0  0  0  0  0  0  0  0  0  0
   20.5414   -8.1143  -18.9392 C   0  0  0  0  0  0  0  0  0  0  0  0
   20.2342   -8.9972  -19.9287 N   0  0  0  0  0  0  0  0  0  0  0  0
   19.8217  -10.1282  -19.3501 C   0  0  0  0  0  0  0  0  0  0  0  0
   19.8630   -9.9744  -18.0455 N   0  0  0  0  0  0  0  0  0  0  0  0
   22.0247   -7.3061  -14.6752 C   0  0  0  0  0  0  0  0  0  0  0  0
   22.4901   -7.8974  -13.5141 O   0  0  0  0  0  0  0  0  0  0  0  0
   21.6501   -6.1019  -14.5485 O   0  0  0  0  0  0  0  0  0  0  0  0
  2  1  1  1
  2  9  1  0
  3  2  1  0
  4  3  1  0
  5  4  2  0
  6  5  1  0
  7  6  1  0
  7  8  2  0
  8  4  1  0
  9 16  1  0
  9 10  2  0
 12 11  1  1
 12 13  1  0
 15 14  1  6
 14 12  1  0
 15 17  1  0
 16 15  1  0
 17 18  2  0
 19 20  1  0
 19 17  1  0
 20 27  1  0
 20 21  1  1
 22 21  1  0
 23 22  2  0
 24 23  1  0
 25 24  1  0
 25 26  2  0
 26 22  1  0
 27 28  1  0
 29 27  2  0
M  END
$$$$
