HLH.pdb
     RDKit          3D

 29 30  0  0  1  0  0  0  0  0999 V2000
   15.2805  -18.3053    3.5996 N   0  0  0  0  0  0  0  0  0  0  0  0
   15.0308  -17.2485    4.5391 C   0  0  1  0  0  0  0  0  0  0  0  0
   14.2433  -17.7824    5.7172 C   0  0  0  0  0  0  0  0  0  0  0  0
   12.8690  -18.1916    5.2704 C   0  0  0  0  0  0  0  0  0  0  0  0
   11.8444  -17.3073    5.0738 C   0  0  0  0  0  0  0  0  0  0  0  0
   10.7716  -18.0064    4.6810 N   0  0  0  0  0  0  0  0  0  0  0  0
   11.1163  -19.2991    4.6326 C   0  0  0  0  0  0  0  0  0  0  0  0
   12.4034  -19.4001    4.9957 N   0  0  0  0  0  0  0  0  0  0  0  0
   16.3513  -16.7854    5.1058 C   0  0  0  0  0  0  0  0  0  0  0  0
   17.3100  -17.5782    5.1528 O   0  0  0  0  0  0  0  0  0  0  0  0
   19.2156  -14.0393    3.6084 C   0  0  0  0  0  0  0  0  0  0  0  0
   18.2158  -13.1874    4.4063 C   0  0  2  0  0  0  0  0  0  0  0  0
   18.3809  -11.7649    4.0933 C   0  0  0  0  0  0  0  0  0  0  0  0
   18.0713  -13.6475    5.7842 C   0  0  0  0  0  0  0  0  0  0  0  0
   17.8273  -15.0475    6.1493 C   0  0  2  0  0  0  0  0  0  0  0  0
   16.5157  -15.4730    5.5815 N   0  0  0  0  0  0  0  0  0  0  0  0
   17.9163  -15.5160    7.5230 C   0  0  0  0  0  0  0  0  0  0  0  0
   16.9261  -16.1894    8.0452 O   0  0  0  0  0  0  0  0  0  0  0  0
   18.9942  -15.3340    8.3899 N   0  0  0  0  0  0  0  0  0  0  0  0
   19.0070  -16.0301    9.7157 C   0  0  1  0  0  0  0  0  0  0  0  0
   19.2626  -17.4652    9.3410 C   0  0  0  0  0  0  0  0  0  0  0  0
   18.1992  -18.4097    9.6822 C   0  0  0  0  0  0  0  0  0  0  0  0
   16.9526  -18.2327   10.2020 C   0  0  0  0  0  0  0  0  0  0  0  0
   16.3354  -19.4444   10.2600 N   0  0  0  0  0  0  0  0  0  0  0  0
   17.1859  -20.3567    9.7823 C   0  0  0  0  0  0  0  0  0  0  0  0
   18.3004  -19.7533    9.4340 N   0  0  0  0  0  0  0  0  0  0  0  0
   20.1282  -15.4656   10.4764 C   0  0  0  0  0  0  0  0  0  0  0  0
   20.2383  -15.4779   11.8555 O   0  0  0  0  0  0  0  0  0  0  0  0
   21.0939  -14.9145    9.8682 O   0  0  0  0  0  0  0  0  0  0  0  0
  2  1  1  6
  2  9  1  0
  3  2  1  0
  4  3  1  0
  5  4  2  0
  6  5  1  0
  7  6  1  0
  7  8  2  0
  8  4  1  0
  9 16  1  0
  9 10  2  0
 12 11  1  1
 12 13  1  0
 15 14  1  1
 14 12  1  0
 15 17  1  0
 16 15  1  0
 17 18  2  0
 19 20  1  0
 19 17  1  0
 20 27  1  0
 20 21  1  6
 22 21  1  0
 23 22  2  0
 24 23  1  0
 25 24  1  0
 25 26  2  0
 26 22  1  0
 27 28  1  0
 29 27  2  0
M  END
$$$$
