HLH.pdb
     RDKit          3D

 29 30  0  0  1  0  0  0  0  0999 V2000
   35.4174  -35.3615   -8.4778 N   0  0  0  0  0  0  0  0  0  0  0  0
   35.6196  -35.9321   -9.7798 C   0  0  1  0  0  0  0  0  0  0  0  0
   34.6674  -37.0910   -9.9875 C   0  0  0  0  0  0  0  0  0  0  0  0
   35.2600  -38.0721  -10.9582 C   0  0  0  0  0  0  0  0  0  0  0  0
   36.5063  -38.6168  -10.8152 C   0  0  0  0  0  0  0  0  0  0  0  0
   36.7120  -39.4426  -11.8494 N   0  0  0  0  0  0  0  0  0  0  0  0
   35.6195  -39.4158  -12.6227 C   0  0  0  0  0  0  0  0  0  0  0  0
   34.7371  -38.5728  -12.0666 N   0  0  0  0  0  0  0  0  0  0  0  0
   35.2454  -34.9038  -10.8200 C   0  0  0  0  0  0  0  0  0  0  0  0
   34.1312  -34.3515  -10.7629 O   0  0  0  0  0  0  0  0  0  0  0  0
   38.2699  -31.0773  -14.4621 C   0  0  0  0  0  0  0  0  0  0  0  0
   36.8939  -31.7394  -14.2869 C   0  0  2  0  0  0  0  0  0  0  0  0
   35.8200  -30.7559  -14.4547 C   0  0  0  0  0  0  0  0  0  0  0  0
   36.8765  -32.6989  -13.1868 C   0  0  0  0  0  0  0  0  0  0  0  0
   35.7286  -33.5602  -12.8814 C   0  0  2  0  0  0  0  0  0  0  0  0
   36.1351  -34.5600  -11.8525 N   0  0  0  0  0  0  0  0  0  0  0  0
   34.9728  -34.2402  -13.9212 C   0  0  0  0  0  0  0  0  0  0  0  0
   35.2208  -35.4943  -14.1899 O   0  0  0  0  0  0  0  0  0  0  0  0
   33.9528  -33.6878  -14.6965 N   0  0  0  0  0  0  0  0  0  0  0  0
   33.2298  -34.5428  -15.6910 C   0  0  1  0  0  0  0  0  0  0  0  0
   31.7825  -34.2625  -15.3880 C   0  0  0  0  0  0  0  0  0  0  0  0
   30.8117  -34.9212  -16.2615 C   0  0  0  0  0  0  0  0  0  0  0  0
   30.9578  -35.8144  -17.2795 C   0  0  0  0  0  0  0  0  0  0  0  0
   29.7200  -36.1692  -17.7206 N   0  0  0  0  0  0  0  0  0  0  0  0
   28.8220  -35.5071  -16.9863 C   0  0  0  0  0  0  0  0  0  0  0  0
   29.4593  -34.7600  -16.1127 N   0  0  0  0  0  0  0  0  0  0  0  0
   33.6054  -34.0494  -17.0214 C   0  0  0  0  0  0  0  0  0  0  0  0
   33.5251  -34.7825  -18.1921 O   0  0  0  0  0  0  0  0  0  0  0  0
   34.0417  -32.8676  -17.1600 O   0  0  0  0  0  0  0  0  0  0  0  0
  2  1  1  1
  2  9  1  0
  3  2  1  0
  4  3  1  0
  5  4  2  0
  6  5  1  0
  7  6  1  0
  7  8  2  0
  8  4  1  0
  9 16  1  0
  9 10  2  0
 12 11  1  1
 12 13  1  0
 15 14  1  6
 14 12  1  0
 15 17  1  0
 16 15  1  0
 17 18  2  0
 19 20  1  0
 19 17  1  0
 20 27  1  0
 20 21  1  1
 22 21  1  0
 23 22  2  0
 24 23  1  0
 25 24  1  0
 25 26  2  0
 26 22  1  0
 27 28  1  0
 29 27  2  0
M  END
$$$$
