HLH.pdb
     RDKit          3D

 29 30  0  0  1  0  0  0  0  0999 V2000
   14.6603  -27.3587    0.4354 N   0  0  0  0  0  0  0  0  0  0  0  0
   15.3066  -27.9986    1.5465 C   0  0  1  0  0  0  0  0  0  0  0  0
   16.6497  -28.5483    1.1139 C   0  0  0  0  0  0  0  0  0  0  0  0
   16.4512  -29.6847    0.1521 C   0  0  0  0  0  0  0  0  0  0  0  0
   16.3569  -30.9933    0.5385 C   0  0  0  0  0  0  0  0  0  0  0  0
   16.1845  -31.7331   -0.5645 N   0  0  0  0  0  0  0  0  0  0  0  0
   16.1711  -30.9070   -1.6179 C   0  0  0  0  0  0  0  0  0  0  0  0
   16.3354  -29.6549   -1.1663 N   0  0  0  0  0  0  0  0  0  0  0  0
   15.6101  -26.9546    2.5940 C   0  0  0  0  0  0  0  0  0  0  0  0
   15.9546  -25.8121    2.2391 O   0  0  0  0  0  0  0  0  0  0  0  0
   13.3153  -25.4288    7.8950 C   0  0  0  0  0  0  0  0  0  0  0  0
   14.5435  -25.1752    7.0065 C   0  0  2  0  0  0  0  0  0  0  0  0
   14.7508  -23.7380    6.8062 C   0  0  0  0  0  0  0  0  0  0  0  0
   14.6247  -26.1143    5.8917 C   0  0  0  0  0  0  0  0  0  0  0  0
   15.7688  -26.1877    4.9762 C   0  0  2  0  0  0  0  0  0  0  0  0
   15.5101  -27.2519    3.9642 N   0  0  0  0  0  0  0  0  0  0  0  0
   17.1357  -26.3197    5.4546 C   0  0  0  0  0  0  0  0  0  0  0  0
   17.6330  -27.5063    5.6810 O   0  0  0  0  0  0  0  0  0  0  0  0
   18.0294  -25.2769    5.7005 N   0  0  0  0  0  0  0  0  0  0  0  0
   19.3890  -25.5782    6.2513 C   0  0  1  0  0  0  0  0  0  0  0  0
   20.3096  -24.9483    5.2409 C   0  0  0  0  0  0  0  0  0  0  0  0
   20.4526  -25.6689    3.9762 C   0  0  0  0  0  0  0  0  0  0  0  0
   19.8589  -26.7968    3.4954 C   0  0  0  0  0  0  0  0  0  0  0  0
   20.2968  -27.0039    2.2234 N   0  0  0  0  0  0  0  0  0  0  0  0
   21.1469  -26.0191    1.9211 C   0  0  0  0  0  0  0  0  0  0  0  0
   21.2485  -25.2163    2.9569 N   0  0  0  0  0  0  0  0  0  0  0  0
   19.4753  -24.9023    7.5514 C   0  0  0  0  0  0  0  0  0  0  0  0
   18.4701  -24.1385    8.1176 O   0  0  0  0  0  0  0  0  0  0  0  0
   20.5309  -24.9962    8.2465 O   0  0  0  0  0  0  0  0  0  0  0  0
  2  1  1  6
  2  9  1  0
  3  2  1  0
  4  3  1  0
  5  4  2  0
  6  5  1  0
  7  6  1  0
  7  8  2  0
  8  4  1  0
  9 16  1  0
  9 10  2  0
 12 11  1  6
 12 13  1  0
 15 14  1  1
 14 12  1  0
 15 17  1  0
 16 15  1  0
 17 18  2  0
 19 20  1  0
 19 17  1  0
 20 27  1  0
 20 21  1  6
 22 21  1  0
 23 22  2  0
 24 23  1  0
 25 24  1  0
 25 26  2  0
 26 22  1  0
 27 28  1  0
 29 27  2  0
M  END
$$$$
