HLH.pdb
     RDKit          3D

 29 30  0  0  1  0  0  0  0  0999 V2000
   19.1857  -12.9261  -16.8678 N   0  0  0  0  0  0  0  0  0  0  0  0
   19.5742  -11.6778  -17.4617 C   0  0  1  0  0  0  0  0  0  0  0  0
   18.3866  -10.7396  -17.5112 C   0  0  0  0  0  0  0  0  0  0  0  0
   17.3424  -11.2852  -18.4427 C   0  0  0  0  0  0  0  0  0  0  0  0
   17.4758  -11.2954  -19.8038 C   0  0  0  0  0  0  0  0  0  0  0  0
   16.3696  -11.8483  -20.3182 N   0  0  0  0  0  0  0  0  0  0  0  0
   15.5618  -12.1771  -19.3026 C   0  0  0  0  0  0  0  0  0  0  0  0
   16.1685  -11.8273  -18.1588 N   0  0  0  0  0  0  0  0  0  0  0  0
   20.5858  -11.0101  -16.5617 C   0  0  0  0  0  0  0  0  0  0  0  0
   20.4330  -11.0567  -15.3271 O   0  0  0  0  0  0  0  0  0  0  0  0
   26.4841  -10.4935  -16.3311 C   0  0  0  0  0  0  0  0  0  0  0  0
   25.2164   -9.8843  -15.7116 C   0  0  2  0  0  0  0  0  0  0  0  0
   25.3008   -9.8882  -14.2482 C   0  0  0  0  0  0  0  0  0  0  0  0
   24.0023  -10.3112  -16.4010 C   0  0  0  0  0  0  0  0  0  0  0  0
   22.6880   -9.6969  -16.1820 C   0  0  2  0  0  0  0  0  0  0  0  0
   21.6979  -10.3362  -17.0955 N   0  0  0  0  0  0  0  0  0  0  0  0
   22.4919   -8.2563  -16.2143 C   0  0  0  0  0  0  0  0  0  0  0  0
   22.6168   -7.6088  -17.3420 O   0  0  0  0  0  0  0  0  0  0  0  0
   22.1559   -7.4438  -15.1311 N   0  0  0  0  0  0  0  0  0  0  0  0
   22.0454   -5.9623  -15.3200 C   0  0  1  0  0  0  0  0  0  0  0  0
   20.5807   -5.7014  -15.0931 C   0  0  0  0  0  0  0  0  0  0  0  0
   19.7235   -5.8254  -16.2717 C   0  0  0  0  0  0  0  0  0  0  0  0
   19.9929   -6.1508  -17.5668 C   0  0  0  0  0  0  0  0  0  0  0  0
   18.8180   -6.1921  -18.2527 N   0  0  0  0  0  0  0  0  0  0  0  0
   17.8368   -5.8983  -17.3955 C   0  0  0  0  0  0  0  0  0  0  0  0
   18.3627   -5.6780  -16.2113 N   0  0  0  0  0  0  0  0  0  0  0  0
   22.8696   -5.3425  -14.2755 C   0  0  0  0  0  0  0  0  0  0  0  0
   23.3225   -4.0352  -14.2927 O   0  0  0  0  0  0  0  0  0  0  0  0
   23.2185   -6.0155  -13.2598 O   0  0  0  0  0  0  0  0  0  0  0  0
  2  1  1  1
  2  9  1  0
  3  2  1  0
  4  3  1  0
  5  4  2  0
  6  5  1  0
  7  6  1  0
  7  8  2  0
  8  4  1  0
  9 16  1  0
  9 10  2  0
 12 11  1  6
 12 13  1  0
 15 14  1  6
 14 12  1  0
 15 17  1  0
 16 15  1  0
 17 18  2  0
 19 20  1  0
 19 17  1  0
 20 27  1  0
 20 21  1  1
 22 21  1  0
 23 22  2  0
 24 23  1  0
 25 24  1  0
 25 26  2  0
 26 22  1  0
 27 28  1  0
 29 27  2  0
M  END
$$$$
