WQY.pdb
     RDKit          3D

 36 38  0  0  1  0  0  0  0  0999 V2000
    5.5034  -17.3256   23.4037 N   0  0  0  0  0  0  0  0  0  0  0  0
    6.5585  -16.3377   23.2487 C   0  0  1  0  0  0  0  0  0  0  0  0
    7.1249  -16.0593   24.6129 C   0  0  0  0  0  0  0  0  0  0  0  0
    6.3135  -15.1220   25.3981 C   0  0  0  0  0  0  0  0  0  0  0  0
    5.3380  -15.4635   26.3062 C   0  0  0  0  0  0  0  0  0  0  0  0
    4.8159  -14.3285   26.8256 N   0  0  0  0  0  0  0  0  0  0  0  0
    5.4216  -13.2402   26.2839 C   0  0  0  0  0  0  0  0  0  0  0  0
    5.2525  -11.8896   26.4779 C   0  0  0  0  0  0  0  0  0  0  0  0
    6.0388  -11.0184   25.7616 C   0  0  0  0  0  0  0  0  0  0  0  0
    6.9766  -11.5280   24.8673 C   0  0  0  0  0  0  0  0  0  0  0  0
    7.1427  -12.8835   24.6761 C   0  0  0  0  0  0  0  0  0  0  0  0
    6.3570  -13.7494   25.3918 C   0  0  0  0  0  0  0  0  0  0  0  0
    7.5576  -16.7286   22.2553 C   0  0  0  0  0  0  0  0  0  0  0  0
    7.8696  -17.9358   22.1206 O   0  0  0  0  0  0  0  0  0  0  0  0
    9.2449  -12.2183   18.6885 N   0  0  0  0  0  0  0  0  0  0  0  0
    8.9744  -13.4623   18.0545 C   0  0  0  0  0  0  0  0  0  0  0  0
    9.0590  -13.4826   16.7925 O   0  0  0  0  0  0  0  0  0  0  0  0
    8.6124  -14.6670   18.8535 C   0  0  0  0  0  0  0  0  0  0  0  0
    9.7520  -14.9367   19.8031 C   0  0  0  0  0  0  0  0  0  0  0  0
    9.4575  -16.0911   20.7324 C   0  0  2  0  0  0  0  0  0  0  0  0
    8.2179  -15.7970   21.4068 N   0  0  0  0  0  0  0  0  0  0  0  0
   10.6050  -16.2247   21.6692 C   0  0  0  0  0  0  0  0  0  0  0  0
   11.8013  -16.0770   21.3498 O   0  0  0  0  0  0  0  0  0  0  0  0
   13.4285  -16.3673   30.1551 O   0  0  0  0  0  0  0  0  0  0  0  0
   12.7108  -16.2482   28.9706 C   0  0  0  0  0  0  0  0  0  0  0  0
   12.7357  -15.0732   28.2336 C   0  0  0  0  0  0  0  0  0  0  0  0
   12.0279  -14.9505   27.0626 C   0  0  0  0  0  0  0  0  0  0  0  0
   11.2571  -15.9932   26.5634 C   0  0  0  0  0  0  0  0  0  0  0  0
   10.4998  -15.8424   25.3183 C   0  0  0  0  0  0  0  0  0  0  0  0
   11.2634  -16.3006   24.0920 C   0  0  2  0  0  0  0  0  0  0  0  0
   10.3053  -16.5428   23.0189 N   0  0  0  0  0  0  0  0  0  0  0  0
   11.9909  -17.5513   24.3609 C   0  0  0  0  0  0  0  0  0  0  0  0
   11.5214  -18.7796   23.9373 O   0  0  0  0  0  0  0  0  0  0  0  0
   11.2429  -17.1552   27.3077 C   0  0  0  0  0  0  0  0  0  0  0  0
   11.9474  -17.2839   28.4778 C   0  0  0  0  0  0  0  0  0  0  0  0
   13.0693  -17.5231   24.9926 O   0  0  0  0  0  0  0  0  0  0  0  0
  2  3  1  0
  2  1  1  1
  4 12  1  0
  4  3  1  0
  5  4  2  0
  6  5  1  0
  6  7  1  0
  7  8  1  0
  7 12  2  0
  8  9  2  0
  9 10  1  0
 11 10  2  0
 12 11  1  0
 13  2  1  0
 14 13  2  0
 16 18  1  0
 16 15  1  0
 17 16  2  0
 20 19  1  6
 19 18  1  0
 20 21  1  0
 21 13  1  0
 22 20  1  0
 22 31  1  0
 23 22  2  0
 25 24  1  0
 25 26  2  0
 27 26  1  0
 28 27  2  0
 29 28  1  0
 30 31  1  0
 30 29  1  1
 32 30  1  0
 32 33  1  0
 34 35  2  0
 34 28  1  0
 35 25  1  0
 36 32  2  0
M  END
$$$$
