WQY.pdb
     RDKit          3D

 36 38  0  0  1  0  0  0  0  0999 V2000
    6.9730  -17.7254   25.2885 N   0  0  0  0  0  0  0  0  0  0  0  0
    7.7664  -17.1699   24.2044 C   0  0  1  0  0  0  0  0  0  0  0  0
    8.2874  -15.8355   24.6596 C   0  0  0  0  0  0  0  0  0  0  0  0
    7.2361  -14.9410   25.1575 C   0  0  0  0  0  0  0  0  0  0  0  0
    5.9747  -15.3205   25.5548 C   0  0  0  0  0  0  0  0  0  0  0  0
    5.2968  -14.2181   25.9493 N   0  0  0  0  0  0  0  0  0  0  0  0
    6.0782  -13.1142   25.8235 C   0  0  0  0  0  0  0  0  0  0  0  0
    5.8562  -11.7833   26.0877 C   0  0  0  0  0  0  0  0  0  0  0  0
    6.8714  -10.8871   25.8503 C   0  0  0  0  0  0  0  0  0  0  0  0
    8.0858  -11.3524   25.3526 C   0  0  0  0  0  0  0  0  0  0  0  0
    8.3039  -12.6883   25.0892 C   0  0  0  0  0  0  0  0  0  0  0  0
    7.2895  -13.5792   25.3270 C   0  0  0  0  0  0  0  0  0  0  0  0
    8.8033  -18.0877   23.7349 C   0  0  0  0  0  0  0  0  0  0  0  0
    9.2580  -18.9673   24.5045 O   0  0  0  0  0  0  0  0  0  0  0  0
   10.4894  -18.8904   18.0624 N   0  0  0  0  0  0  0  0  0  0  0  0
    9.9748  -17.6451   18.5172 C   0  0  0  0  0  0  0  0  0  0  0  0
    9.3385  -16.9542   17.6698 O   0  0  0  0  0  0  0  0  0  0  0  0
   10.1851  -17.1962   19.9225 C   0  0  0  0  0  0  0  0  0  0  0  0
   10.9095  -18.3034   20.6453 C   0  0  0  0  0  0  0  0  0  0  0  0
   10.7507  -18.2036   22.1446 C   0  0  2  0  0  0  0  0  0  0  0  0
    9.3450  -18.0435   22.4202 N   0  0  0  0  0  0  0  0  0  0  0  0
   11.5643  -17.0496   22.6120 C   0  0  0  0  0  0  0  0  0  0  0  0
   11.6184  -15.9428   22.0400 O   0  0  0  0  0  0  0  0  0  0  0  0
    9.8744  -16.6349   29.6478 O   0  0  0  0  0  0  0  0  0  0  0  0
   10.5287  -16.2604   28.4799 C   0  0  0  0  0  0  0  0  0  0  0  0
   11.9091  -16.3466   28.3737 C   0  0  0  0  0  0  0  0  0  0  0  0
   12.5604  -15.9774   27.2218 C   0  0  0  0  0  0  0  0  0  0  0  0
   11.8699  -15.5022   26.1137 C   0  0  0  0  0  0  0  0  0  0  0  0
   12.5806  -15.1027   24.8964 C   0  0  0  0  0  0  0  0  0  0  0  0
   13.3136  -16.2473   24.2261 C   0  0  2  0  0  0  0  0  0  0  0  0
   12.3285  -17.2323   23.7933 N   0  0  0  0  0  0  0  0  0  0  0  0
   14.2448  -16.8971   25.1624 C   0  0  0  0  0  0  0  0  0  0  0  0
   15.3506  -16.2433   25.6707 O   0  0  0  0  0  0  0  0  0  0  0  0
   10.4976  -15.4225   26.2350 C   0  0  0  0  0  0  0  0  0  0  0  0
    9.8414  -15.7896   27.3825 C   0  0  0  0  0  0  0  0  0  0  0  0
   14.0475  -18.0784   25.5206 O   0  0  0  0  0  0  0  0  0  0  0  0
  2  3  1  0
  2  1  1  1
  4 12  1  0
  4  3  1  0
  5  4  2  0
  6  5  1  0
  6  7  1  0
  7  8  1  0
  7 12  2  0
  8  9  2  0
  9 10  1  0
 11 10  2  0
 12 11  1  0
 13  2  1  0
 14 13  2  0
 16 18  1  0
 16 15  1  0
 17 16  2  0
 20 19  1  6
 19 18  1  0
 20 21  1  0
 21 13  1  0
 22 20  1  0
 22 31  1  0
 23 22  2  0
 25 24  1  0
 25 26  2  0
 27 26  1  0
 28 27  2  0
 29 28  1  0
 30 31  1  0
 30 29  1  1
 32 30  1  0
 32 33  1  0
 34 35  2  0
 34 28  1  0
 35 25  1  0
 36 32  2  0
M  END
$$$$
