WQY.pdb
     RDKit          3D

 36 38  0  0  1  0  0  0  0  0999 V2000
    6.3092  -17.5806   24.6309 N   0  0  0  0  0  0  0  0  0  0  0  0
    7.1178  -16.4372   24.2410 C   0  0  1  0  0  0  0  0  0  0  0  0
    7.7934  -15.9149   25.4780 C   0  0  0  0  0  0  0  0  0  0  0  0
    7.0050  -14.8991   26.1850 C   0  0  0  0  0  0  0  0  0  0  0  0
    5.9366  -15.1414   27.0173 C   0  0  0  0  0  0  0  0  0  0  0  0
    5.4728  -13.9576   27.4798 N   0  0  0  0  0  0  0  0  0  0  0  0
    6.2081  -12.9335   26.9743 C   0  0  0  0  0  0  0  0  0  0  0  0
    6.1385  -11.5701   27.1375 C   0  0  0  0  0  0  0  0  0  0  0  0
    7.0485  -10.7807   26.4749 C   0  0  0  0  0  0  0  0  0  0  0  0
    8.0068  -11.3829   25.6639 C   0  0  0  0  0  0  0  0  0  0  0  0
    8.0728  -12.7509   25.5032 C   0  0  0  0  0  0  0  0  0  0  0  0
    7.1639  -13.5351   26.1652 C   0  0  0  0  0  0  0  0  0  0  0  0
    8.0341  -16.7409   23.1428 C   0  0  0  0  0  0  0  0  0  0  0  0
    8.2791  -17.9334   22.8416 O   0  0  0  0  0  0  0  0  0  0  0  0
    7.6312  -12.9406   18.5674 N   0  0  0  0  0  0  0  0  0  0  0  0
    8.4902  -13.8971   17.9593 C   0  0  0  0  0  0  0  0  0  0  0  0
    8.8750  -13.6416   16.7817 O   0  0  0  0  0  0  0  0  0  0  0  0
    8.9036  -15.1292   18.6886 C   0  0  0  0  0  0  0  0  0  0  0  0
    8.5047  -14.9532   20.1318 C   0  0  0  0  0  0  0  0  0  0  0  0
    9.1691  -15.9674   21.0336 C   0  0  2  0  0  0  0  0  0  0  0  0
    8.6848  -15.7379   22.3718 N   0  0  0  0  0  0  0  0  0  0  0  0
   10.6406  -15.7864   20.9148 C   0  0  0  0  0  0  0  0  0  0  0  0
   11.3463  -16.2895   20.0183 O   0  0  0  0  0  0  0  0  0  0  0  0
   11.1728  -15.3909   29.5348 O   0  0  0  0  0  0  0  0  0  0  0  0
   11.0431  -15.5755   28.1631 C   0  0  0  0  0  0  0  0  0  0  0  0
   10.8848  -14.4952   27.3074 C   0  0  0  0  0  0  0  0  0  0  0  0
   10.7559  -14.6724   25.9511 C   0  0  0  0  0  0  0  0  0  0  0  0
   10.7780  -15.9368   25.3753 C   0  0  0  0  0  0  0  0  0  0  0  0
   10.6287  -16.1092   23.9281 C   0  0  0  0  0  0  0  0  0  0  0  0
   11.7941  -15.5543   23.1340 C   0  0  2  0  0  0  0  0  0  0  0  0
   11.2753  -14.9823   21.8964 N   0  0  0  0  0  0  0  0  0  0  0  0
   12.7528  -16.6174   22.7923 C   0  0  0  0  0  0  0  0  0  0  0  0
   14.0720  -16.5755   23.2003 O   0  0  0  0  0  0  0  0  0  0  0  0
   10.9364  -17.0008   26.2397 C   0  0  0  0  0  0  0  0  0  0  0  0
   11.0655  -16.8304   27.5948 C   0  0  0  0  0  0  0  0  0  0  0  0
   12.3818  -17.5976   22.1109 O   0  0  0  0  0  0  0  0  0  0  0  0
  2  3  1  0
  2  1  1  1
  4 12  1  0
  4  3  1  0
  5  4  2  0
  6  5  1  0
  6  7  1  0
  7  8  1  0
  7 12  2  0
  8  9  2  0
  9 10  1  0
 11 10  2  0
 12 11  1  0
 13  2  1  0
 14 13  2  0
 16 18  1  0
 16 15  1  0
 17 16  2  0
 20 19  1  6
 19 18  1  0
 20 21  1  0
 21 13  1  0
 22 20  1  0
 22 31  1  0
 23 22  2  0
 25 24  1  0
 25 26  2  0
 27 26  1  0
 28 27  2  0
 29 28  1  0
 30 31  1  0
 30 29  1  1
 32 30  1  0
 32 33  1  0
 34 35  2  0
 34 28  1  0
 35 25  1  0
 36 32  2  0
M  END
$$$$
