WQY.pdb
     RDKit          3D

 36 38  0  0  1  0  0  0  0  0999 V2000
    7.0787  -16.4127   22.6823 N   0  0  0  0  0  0  0  0  0  0  0  0
    8.3903  -15.9413   23.0957 C   0  0  1  0  0  0  0  0  0  0  0  0
    8.4080  -15.9056   24.5983 C   0  0  0  0  0  0  0  0  0  0  0  0
    7.3399  -15.0790   25.1719 C   0  0  0  0  0  0  0  0  0  0  0  0
    6.2806  -15.5353   25.9220 C   0  0  0  0  0  0  0  0  0  0  0  0
    5.5116  -14.4780   26.2704 N   0  0  0  0  0  0  0  0  0  0  0  0
    6.0349  -13.3292   25.7693 C   0  0  0  0  0  0  0  0  0  0  0  0
    5.6350  -12.0158   25.8432 C   0  0  0  0  0  0  0  0  0  0  0  0
    6.3973  -11.0594   25.2152 C   0  0  0  0  0  0  0  0  0  0  0  0
    7.5440  -11.4483   24.5277 C   0  0  0  0  0  0  0  0  0  0  0  0
    7.9413  -12.7669   24.4563 C   0  0  0  0  0  0  0  0  0  0  0  0
    7.1790  -13.7179   25.0835 C   0  0  0  0  0  0  0  0  0  0  0  0
    9.4812  -16.7138   22.5034 C   0  0  0  0  0  0  0  0  0  0  0  0
    9.2527  -17.4885   21.5439 O   0  0  0  0  0  0  0  0  0  0  0  0
   12.8354  -18.3596   19.0047 N   0  0  0  0  0  0  0  0  0  0  0  0
   11.4433  -18.0691   19.0151 C   0  0  0  0  0  0  0  0  0  0  0  0
   10.7368  -18.6616   18.1490 O   0  0  0  0  0  0  0  0  0  0  0  0
   10.8670  -17.1139   20.0031 C   0  0  0  0  0  0  0  0  0  0  0  0
   11.9946  -16.6465   20.8880 C   0  0  0  0  0  0  0  0  0  0  0  0
   11.9271  -17.2592   22.2675 C   0  0  2  0  0  0  0  0  0  0  0  0
   10.8260  -16.6397   22.9616 N   0  0  0  0  0  0  0  0  0  0  0  0
   13.2350  -17.0221   22.9348 C   0  0  0  0  0  0  0  0  0  0  0  0
   14.3451  -17.2888   22.4332 O   0  0  0  0  0  0  0  0  0  0  0  0
   10.0581  -13.9450   29.7282 O   0  0  0  0  0  0  0  0  0  0  0  0
   10.5937  -14.8663   28.8357 C   0  0  0  0  0  0  0  0  0  0  0  0
   10.5292  -14.6568   27.4660 C   0  0  0  0  0  0  0  0  0  0  0  0
   11.0568  -15.5646   26.5799 C   0  0  0  0  0  0  0  0  0  0  0  0
   11.6771  -16.7303   27.0124 C   0  0  0  0  0  0  0  0  0  0  0  0
   12.2252  -17.6932   26.0538 C   0  0  0  0  0  0  0  0  0  0  0  0
   13.5243  -17.2369   25.4207 C   0  0  2  0  0  0  0  0  0  0  0  0
   13.2052  -16.4515   24.2334 N   0  0  0  0  0  0  0  0  0  0  0  0
   14.3451  -18.3885   25.0132 C   0  0  0  0  0  0  0  0  0  0  0  0
   13.9072  -19.3093   24.0811 O   0  0  0  0  0  0  0  0  0  0  0  0
   11.7333  -16.9240   28.3775 C   0  0  0  0  0  0  0  0  0  0  0  0
   11.2084  -16.0214   29.2673 C   0  0  0  0  0  0  0  0  0  0  0  0
   15.4772  -18.5576   25.5159 O   0  0  0  0  0  0  0  0  0  0  0  0
  2  3  1  0
  2  1  1  1
  4 12  1  0
  4  3  1  0
  5  4  2  0
  6  5  1  0
  6  7  1  0
  7  8  1  0
  7 12  2  0
  8  9  2  0
  9 10  1  0
 11 10  2  0
 12 11  1  0
 13  2  1  0
 14 13  2  0
 16 18  1  0
 16 15  1  0
 17 16  2  0
 20 19  1  6
 19 18  1  0
 20 21  1  0
 21 13  1  0
 22 20  1  0
 22 31  1  0
 23 22  2  0
 25 24  1  0
 25 26  2  0
 27 26  1  0
 28 27  2  0
 29 28  1  0
 30 31  1  0
 30 29  1  6
 32 30  1  0
 32 33  1  0
 34 35  2  0
 34 28  1  0
 35 25  1  0
 36 32  2  0
M  END
$$$$
