WQY.pdb
     RDKit          3D

 36 38  0  0  1  0  0  0  0  0999 V2000
    6.7264  -18.2145   23.5526 N   0  0  0  0  0  0  0  0  0  0  0  0
    7.6504  -17.0930   23.5955 C   0  0  1  0  0  0  0  0  0  0  0  0
    7.7284  -16.6223   25.0209 C   0  0  0  0  0  0  0  0  0  0  0  0
    6.7746  -15.5512   25.3314 C   0  0  0  0  0  0  0  0  0  0  0  0
    5.6340  -15.6809   26.0899 C   0  0  0  0  0  0  0  0  0  0  0  0
    5.0178  -14.4780   26.1513 N   0  0  0  0  0  0  0  0  0  0  0  0
    5.7222  -13.5513   25.4513 C   0  0  0  0  0  0  0  0  0  0  0  0
    5.5183  -12.2123   25.2150 C   0  0  0  0  0  0  0  0  0  0  0  0
    6.4349  -11.5322   24.4485 C   0  0  0  0  0  0  0  0  0  0  0  0
    7.5350  -12.2166   23.9383 C   0  0  0  0  0  0  0  0  0  0  0  0
    7.7355  -13.5597   24.1780 C   0  0  0  0  0  0  0  0  0  0  0  0
    6.8196  -14.2348   24.9426 C   0  0  0  0  0  0  0  0  0  0  0  0
    8.9475  -17.4061   22.9978 C   0  0  0  0  0  0  0  0  0  0  0  0
    9.3162  -18.5997   22.8881 O   0  0  0  0  0  0  0  0  0  0  0  0
   13.5798  -13.4509   19.6706 N   0  0  0  0  0  0  0  0  0  0  0  0
   13.1408  -14.7927   19.4996 C   0  0  0  0  0  0  0  0  0  0  0  0
   12.8672  -15.1506   18.3176 O   0  0  0  0  0  0  0  0  0  0  0  0
   13.0168  -15.7130   20.6652 C   0  0  0  0  0  0  0  0  0  0  0  0
   11.6500  -15.4987   21.2645 C   0  0  0  0  0  0  0  0  0  0  0  0
   11.1575  -16.7179   22.0089 C   0  0  2  0  0  0  0  0  0  0  0  0
    9.8446  -16.4112   22.5189 N   0  0  0  0  0  0  0  0  0  0  0  0
   12.1376  -17.0197   23.0861 C   0  0  0  0  0  0  0  0  0  0  0  0
   13.3698  -17.1110   22.9177 O   0  0  0  0  0  0  0  0  0  0  0  0
    9.4440  -12.8711   28.5295 O   0  0  0  0  0  0  0  0  0  0  0  0
    9.9844  -14.0741   28.0901 C   0  0  0  0  0  0  0  0  0  0  0  0
    9.1917  -15.0335   27.4774 C   0  0  0  0  0  0  0  0  0  0  0  0
    9.7210  -16.2241   27.0418 C   0  0  0  0  0  0  0  0  0  0  0  0
   11.0697  -16.5218   27.1938 C   0  0  0  0  0  0  0  0  0  0  0  0
   11.6163  -17.8007   26.7330 C   0  0  0  0  0  0  0  0  0  0  0  0
   12.4712  -17.6746   25.4880 C   0  0  2  0  0  0  0  0  0  0  0  0
   11.6229  -17.2155   24.3935 N   0  0  0  0  0  0  0  0  0  0  0  0
   13.0541  -18.9735   25.1151 C   0  0  0  0  0  0  0  0  0  0  0  0
   13.9601  -19.6312   25.9244 O   0  0  0  0  0  0  0  0  0  0  0  0
   11.8448  -15.5574   27.8048 C   0  0  0  0  0  0  0  0  0  0  0  0
   11.3222  -14.3667   28.2420 C   0  0  0  0  0  0  0  0  0  0  0  0
   12.7333  -19.5150   24.0351 O   0  0  0  0  0  0  0  0  0  0  0  0
  2  3  1  0
  2  1  1  1
  4 12  1  0
  4  3  1  0
  5  4  2  0
  6  5  1  0
  6  7  1  0
  7  8  1  0
  7 12  2  0
  8  9  2  0
  9 10  1  0
 11 10  2  0
 12 11  1  0
 13  2  1  0
 14 13  2  0
 16 18  1  0
 16 15  1  0
 17 16  2  0
 20 19  1  1
 19 18  1  0
 20 21  1  0
 21 13  1  0
 22 20  1  0
 22 31  1  0
 23 22  2  0
 25 24  1  0
 25 26  2  0
 27 26  1  0
 28 27  2  0
 29 28  1  0
 30 31  1  0
 30 29  1  1
 32 30  1  0
 32 33  1  0
 34 35  2  0
 34 28  1  0
 35 25  1  0
 36 32  2  0
M  END
$$$$
