WQY.pdb
     RDKit          3D

 36 38  0  0  1  0  0  0  0  0999 V2000
    5.8929  -17.3979   24.2568 N   0  0  0  0  0  0  0  0  0  0  0  0
    7.0871  -16.6196   23.9717 C   0  0  1  0  0  0  0  0  0  0  0  0
    7.5831  -16.0542   25.2731 C   0  0  0  0  0  0  0  0  0  0  0  0
    6.7040  -15.0189   25.8287 C   0  0  0  0  0  0  0  0  0  0  0  0
    5.5408  -15.2386   26.5298 C   0  0  0  0  0  0  0  0  0  0  0  0
    5.0135  -14.0418   26.8765 N   0  0  0  0  0  0  0  0  0  0  0  0
    5.7991  -13.0313   26.4221 C   0  0  0  0  0  0  0  0  0  0  0  0
    5.6992  -11.6631   26.5139 C   0  0  0  0  0  0  0  0  0  0  0  0
    6.6797  -10.8915   25.9364 C   0  0  0  0  0  0  0  0  0  0  0  0
    7.7374  -11.5160   25.2805 C   0  0  0  0  0  0  0  0  0  0  0  0
    7.8334  -12.8887   25.1910 C   0  0  0  0  0  0  0  0  0  0  0  0
    6.8540  -13.6551   25.7678 C   0  0  0  0  0  0  0  0  0  0  0  0
    8.0920  -17.3779   23.2281 C   0  0  0  0  0  0  0  0  0  0  0  0
    7.7892  -18.4776   22.7066 O   0  0  0  0  0  0  0  0  0  0  0  0
    7.6638  -13.6295   19.7752 N   0  0  0  0  0  0  0  0  0  0  0  0
    8.8022  -14.4624   19.5946 C   0  0  0  0  0  0  0  0  0  0  0  0
    9.1349  -14.7119   18.3999 O   0  0  0  0  0  0  0  0  0  0  0  0
    9.5504  -15.0023   20.7649 C   0  0  0  0  0  0  0  0  0  0  0  0
    9.4439  -16.5053   20.7128 C   0  0  0  0  0  0  0  0  0  0  0  0
   10.1872  -17.1682   21.8491 C   0  0  2  0  0  0  0  0  0  0  0  0
    9.4320  -16.9330   23.0542 N   0  0  0  0  0  0  0  0  0  0  0  0
   11.5532  -16.5823   21.9020 C   0  0  0  0  0  0  0  0  0  0  0  0
   12.3884  -16.6474   20.9783 O   0  0  0  0  0  0  0  0  0  0  0  0
    9.5922  -16.3523   28.8344 O   0  0  0  0  0  0  0  0  0  0  0  0
   10.5098  -16.0224   27.8437 C   0  0  0  0  0  0  0  0  0  0  0  0
   11.7331  -16.6708   27.7567 C   0  0  0  0  0  0  0  0  0  0  0  0
   12.6435  -16.3482   26.7797 C   0  0  0  0  0  0  0  0  0  0  0  0
   12.3828  -15.3614   25.8368 C   0  0  0  0  0  0  0  0  0  0  0  0
   13.3689  -15.0222   24.8076 C   0  0  0  0  0  0  0  0  0  0  0  0
   13.2936  -15.9161   23.5861 C   0  0  2  0  0  0  0  0  0  0  0  0
   11.9210  -15.9037   23.0923 N   0  0  0  0  0  0  0  0  0  0  0  0
   13.6569  -17.3017   23.9239 C   0  0  0  0  0  0  0  0  0  0  0  0
   14.9406  -17.6553   24.2922 O   0  0  0  0  0  0  0  0  0  0  0  0
   11.1618  -14.7261   25.9366 C   0  0  0  0  0  0  0  0  0  0  0  0
   10.2486  -15.0437   26.9099 C   0  0  0  0  0  0  0  0  0  0  0  0
   12.7913  -18.2025   23.8809 O   0  0  0  0  0  0  0  0  0  0  0  0
  2  3  1  0
  2  1  1  1
  4 12  1  0
  4  3  1  0
  5  4  2  0
  6  5  1  0
  6  7  1  0
  7  8  1  0
  7 12  2  0
  8  9  2  0
  9 10  1  0
 11 10  2  0
 12 11  1  0
 13  2  1  0
 14 13  2  0
 16 18  1  0
 16 15  1  0
 17 16  2  0
 20 19  1  6
 19 18  1  0
 20 21  1  0
 21 13  1  0
 22 20  1  0
 22 31  1  0
 23 22  2  0
 25 24  1  0
 25 26  2  0
 27 26  1  0
 28 27  2  0
 29 28  1  0
 30 31  1  0
 30 29  1  1
 32 30  1  0
 32 33  1  0
 34 35  2  0
 34 28  1  0
 35 25  1  0
 36 32  2  0
M  END
$$$$
