WQY.pdb
     RDKit          3D

 36 38  0  0  1  0  0  0  0  0999 V2000
    7.6799  -18.2503   20.6187 N   0  0  0  0  0  0  0  0  0  0  0  0
    8.6345  -17.4115   21.3247 C   0  0  1  0  0  0  0  0  0  0  0  0
    7.8583  -16.3390   22.0365 C   0  0  0  0  0  0  0  0  0  0  0  0
    7.1376  -15.4425   21.1254 C   0  0  0  0  0  0  0  0  0  0  0  0
    5.7758  -15.4129   20.9317 C   0  0  0  0  0  0  0  0  0  0  0  0
    5.4906  -14.4554   20.0193 N   0  0  0  0  0  0  0  0  0  0  0  0
    6.6313  -13.8477   19.6016 C   0  0  0  0  0  0  0  0  0  0  0  0
    6.8694  -12.8348   18.7030 C   0  0  0  0  0  0  0  0  0  0  0  0
    8.1672  -12.4324   18.4936 C   0  0  0  0  0  0  0  0  0  0  0  0
    9.1943  -13.0597   19.1940 C   0  0  0  0  0  0  0  0  0  0  0  0
    8.9507  -14.0753   20.0944 C   0  0  0  0  0  0  0  0  0  0  0  0
    7.6555  -14.4740   20.3008 C   0  0  0  0  0  0  0  0  0  0  0  0
    9.5277  -18.1782   22.1920 C   0  0  0  0  0  0  0  0  0  0  0  0
    9.0528  -18.9950   23.0168 O   0  0  0  0  0  0  0  0  0  0  0  0
   14.5941  -21.2971   22.5594 N   0  0  0  0  0  0  0  0  0  0  0  0
   14.1210  -20.5870   21.4217 C   0  0  0  0  0  0  0  0  0  0  0  0
   14.7491  -20.7724   20.3394 O   0  0  0  0  0  0  0  0  0  0  0  0
   12.9450  -19.6770   21.5206 C   0  0  0  0  0  0  0  0  0  0  0  0
   12.5569  -19.5995   22.9754 C   0  0  0  0  0  0  0  0  0  0  0  0
   11.7857  -18.3394   23.2923 C   0  0  2  0  0  0  0  0  0  0  0  0
   10.9442  -18.0514   22.1579 N   0  0  0  0  0  0  0  0  0  0  0  0
   12.7714  -17.2600   23.5668 C   0  0  0  0  0  0  0  0  0  0  0  0
   13.6111  -16.8415   22.7453 O   0  0  0  0  0  0  0  0  0  0  0  0
   10.6509  -17.8725   30.4230 O   0  0  0  0  0  0  0  0  0  0  0  0
   11.1967  -17.1029   29.4022 C   0  0  0  0  0  0  0  0  0  0  0  0
   12.5687  -16.9307   29.2910 C   0  0  0  0  0  0  0  0  0  0  0  0
   13.1130  -16.1709   28.2840 C   0  0  0  0  0  0  0  0  0  0  0  0
   12.3180  -15.5418   27.3337 C   0  0  0  0  0  0  0  0  0  0  0  0
   12.9139  -14.7263   26.2724 C   0  0  0  0  0  0  0  0  0  0  0  0
   13.6065  -15.5463   25.2024 C   0  0  2  0  0  0  0  0  0  0  0  0
   12.7452  -16.6721   24.8577 N   0  0  0  0  0  0  0  0  0  0  0  0
   14.8913  -16.0723   25.6907 C   0  0  0  0  0  0  0  0  0  0  0  0
   15.9950  -15.2618   25.8730 O   0  0  0  0  0  0  0  0  0  0  0  0
   10.9557  -15.7230   27.4578 C   0  0  0  0  0  0  0  0  0  0  0  0
   10.4061  -16.4805   28.4610 C   0  0  0  0  0  0  0  0  0  0  0  0
   15.0088  -17.2888   25.9534 O   0  0  0  0  0  0  0  0  0  0  0  0
  2  3  1  0
  2  1  1  1
  4 12  1  0
  4  3  1  0
  5  4  2  0
  6  5  1  0
  6  7  1  0
  7  8  1  0
  7 12  2  0
  8  9  2  0
  9 10  1  0
 11 10  2  0
 12 11  1  0
 13  2  1  0
 14 13  2  0
 16 18  1  0
 16 15  1  0
 17 16  2  0
 20 19  1  6
 19 18  1  0
 20 21  1  0
 21 13  1  0
 22 20  1  0
 22 31  1  0
 23 22  2  0
 25 24  1  0
 25 26  2  0
 27 26  1  0
 28 27  2  0
 29 28  1  0
 30 31  1  0
 30 29  1  1
 32 30  1  0
 32 33  1  0
 34 35  2  0
 34 28  1  0
 35 25  1  0
 36 32  2  0
M  END
$$$$
