WQY.pdb
     RDKit          3D

 36 38  0  0  1  0  0  0  0  0999 V2000
    6.4695  -18.2615   23.8047 N   0  0  0  0  0  0  0  0  0  0  0  0
    7.4612  -17.1986   23.8153 C   0  0  1  0  0  0  0  0  0  0  0  0
    7.6040  -16.7239   25.2344 C   0  0  0  0  0  0  0  0  0  0  0  0
    6.7457  -15.5768   25.5518 C   0  0  0  0  0  0  0  0  0  0  0  0
    5.5904  -15.6150   26.2979 C   0  0  0  0  0  0  0  0  0  0  0  0
    5.0826  -14.3631   26.3712 N   0  0  0  0  0  0  0  0  0  0  0  0
    5.8735  -13.4931   25.6911 C   0  0  0  0  0  0  0  0  0  0  0  0
    5.7915  -12.1382   25.4724 C   0  0  0  0  0  0  0  0  0  0  0  0
    6.7726  -11.5318   24.7242 C   0  0  0  0  0  0  0  0  0  0  0  0
    7.8129  -12.3041   24.2141 C   0  0  0  0  0  0  0  0  0  0  0  0
    7.8911  -13.6629   24.4361 C   0  0  0  0  0  0  0  0  0  0  0  0
    6.9112  -14.2644   25.1825 C   0  0  0  0  0  0  0  0  0  0  0  0
    8.7212  -17.5947   23.1882 C   0  0  0  0  0  0  0  0  0  0  0  0
    9.1090  -18.7854   23.2563 O   0  0  0  0  0  0  0  0  0  0  0  0
   12.2750  -15.4424   18.1138 N   0  0  0  0  0  0  0  0  0  0  0  0
   11.2043  -16.3643   18.2754 C   0  0  0  0  0  0  0  0  0  0  0  0
   10.3567  -16.4146   17.3377 O   0  0  0  0  0  0  0  0  0  0  0  0
   11.1046  -17.2175   19.4932 C   0  0  0  0  0  0  0  0  0  0  0  0
   11.0701  -16.2966   20.6864 C   0  0  0  0  0  0  0  0  0  0  0  0
   10.8608  -17.0489   21.9800 C   0  0  2  0  0  0  0  0  0  0  0  0
    9.5601  -16.6863   22.4846 N   0  0  0  0  0  0  0  0  0  0  0  0
   11.9625  -16.6752   22.9066 C   0  0  0  0  0  0  0  0  0  0  0  0
   12.6966  -15.6767   22.7685 O   0  0  0  0  0  0  0  0  0  0  0  0
    9.1416  -14.3054   28.8184 O   0  0  0  0  0  0  0  0  0  0  0  0
   10.0645  -15.1435   28.2035 C   0  0  0  0  0  0  0  0  0  0  0  0
    9.7426  -16.4564   27.8918 C   0  0  0  0  0  0  0  0  0  0  0  0
   10.6512  -17.2887   27.2843 C   0  0  0  0  0  0  0  0  0  0  0  0
   11.9300  -16.8563   26.9549 C   0  0  0  0  0  0  0  0  0  0  0  0
   12.8906  -17.7600   26.3167 C   0  0  0  0  0  0  0  0  0  0  0  0
   13.3074  -17.3112   24.9305 C   0  0  2  0  0  0  0  0  0  0  0  0
   12.1848  -17.5219   24.0231 N   0  0  0  0  0  0  0  0  0  0  0  0
   14.4546  -18.0952   24.4454 C   0  0  0  0  0  0  0  0  0  0  0  0
   15.7118  -17.9815   25.0068 O   0  0  0  0  0  0  0  0  0  0  0  0
   12.2346  -15.5481   27.2711 C   0  0  0  0  0  0  0  0  0  0  0  0
   11.3318  -14.7121   27.8777 C   0  0  0  0  0  0  0  0  0  0  0  0
   14.3081  -18.8942   23.4952 O   0  0  0  0  0  0  0  0  0  0  0  0
  2  3  1  0
  2  1  1  1
  4 12  1  0
  4  3  1  0
  5  4  2  0
  6  5  1  0
  6  7  1  0
  7  8  1  0
  7 12  2  0
  8  9  2  0
  9 10  1  0
 11 10  2  0
 12 11  1  0
 13  2  1  0
 14 13  2  0
 16 18  1  0
 16 15  1  0
 17 16  2  0
 20 19  1  6
 19 18  1  0
 20 21  1  0
 21 13  1  0
 22 20  1  0
 22 31  1  0
 23 22  2  0
 25 24  1  0
 25 26  2  0
 27 26  1  0
 28 27  2  0
 29 28  1  0
 30 31  1  0
 30 29  1  1
 32 30  1  0
 32 33  1  0
 34 35  2  0
 34 28  1  0
 35 25  1  0
 36 32  2  0
M  END
$$$$
