TYK.pdb
     RDKit          3D

 29 29  0  0  1  0  0  0  0  0999 V2000
   28.4002  -20.0758  -17.8833 C   0  0  0  0  0  0  0  0  0  0  0  0
   27.5608  -20.3602  -16.6791 C   0  0  1  0  0  0  0  0  0  0  0  0
   26.1897  -20.3195  -16.9389 O   0  0  0  0  0  0  0  0  0  0  0  0
   27.9326  -21.6204  -15.9503 C   0  0  2  0  0  0  0  0  0  0  0  0
   27.6792  -22.7752  -16.7529 N   0  0  0  0  0  0  0  0  0  0  0  0
   27.3050  -21.7688  -14.6350 C   0  0  0  0  0  0  0  0  0  0  0  0
   26.2444  -22.4393  -14.4914 O   0  0  0  0  0  0  0  0  0  0  0  0
   25.9912  -20.4726   -5.8925 O   0  0  0  0  0  0  0  0  0  0  0  0
   26.4896  -20.5069   -7.1968 C   0  0  0  0  0  0  0  0  0  0  0  0
   27.8397  -20.4288   -7.3953 C   0  0  0  0  0  0  0  0  0  0  0  0
   28.3616  -20.4610   -8.6894 C   0  0  0  0  0  0  0  0  0  0  0  0
   27.5428  -20.5708   -9.7884 C   0  0  0  0  0  0  0  0  0  0  0  0
   28.1268  -20.6038  -11.1439 C   0  0  0  0  0  0  0  0  0  0  0  0
   27.2214  -21.2028  -12.1864 C   0  0  2  0  0  0  0  0  0  0  0  0
   27.8602  -21.1710  -13.4923 N   0  0  0  0  0  0  0  0  0  0  0  0
   25.9848  -20.3849  -12.2080 C   0  0  0  0  0  0  0  0  0  0  0  0
   26.0822  -19.1566  -12.4208 O   0  0  0  0  0  0  0  0  0  0  0  0
   26.1906  -20.6476   -9.5621 C   0  0  0  0  0  0  0  0  0  0  0  0
   25.6619  -20.6170   -8.2910 C   0  0  0  0  0  0  0  0  0  0  0  0
   24.6948  -20.9335  -11.9977 N   0  0  0  0  0  0  0  0  0  0  0  0
   23.4613  -20.1682  -12.1301 C   0  0  1  0  0  0  0  0  0  0  0  0
   22.8402  -20.4088  -13.4885 C   0  0  0  0  0  0  0  0  0  0  0  0
   21.5840  -19.6415  -13.7190 C   0  0  0  0  0  0  0  0  0  0  0  0
   20.9683  -19.9571  -15.0809 C   0  0  0  0  0  0  0  0  0  0  0  0
   19.7776  -19.0933  -15.3635 C   0  0  0  0  0  0  0  0  0  0  0  0
   19.3175  -19.3757  -16.6968 N   0  0  0  0  0  0  0  0  0  0  0  0
   22.5179  -20.5639  -11.0656 C   0  0  0  0  0  0  0  0  0  0  0  0
   22.4950  -21.6978  -10.5314 O   0  0  0  0  0  0  0  0  0  0  0  0
   21.5783  -19.6415  -10.6008 O   0  0  0  0  0  0  0  0  0  0  0  0
  2  4  1  0
  2  1  1  6
  3  2  1  0
  4  5  1  6
  6  4  1  0
  6  7  2  0
  8  9  1  0
  9 10  2  0
 10 11  1  0
 12 11  2  0
 12 13  1  0
 14 13  1  1
 14 15  1  0
 14 16  1  0
 15  6  1  0
 16 20  1  0
 17 16  2  0
 18 12  1  0
 19  9  1  0
 19 18  2  0
 20 21  1  0
 21 27  1  0
 22 23  1  0
 21 22  1  6
 24 23  1  0
 25 24  1  0
 26 25  1  0
 27 28  2  0
 27 29  1  0
M  END
$$$$
