TYK.pdb
     RDKit          3D

 29 29  0  0  1  0  0  0  0  0999 V2000
   19.6557  -11.5175  -20.4900 C   0  0  0  0  0  0  0  0  0  0  0  0
   19.4554  -12.8598  -19.8626 C   0  0  1  0  0  0  0  0  0  0  0  0
   19.4828  -13.9095  -20.7825 O   0  0  0  0  0  0  0  0  0  0  0  0
   20.3647  -13.1402  -18.6998 C   0  0  2  0  0  0  0  0  0  0  0  0
   20.2287  -14.4902  -18.2515 N   0  0  0  0  0  0  0  0  0  0  0  0
   20.2146  -12.2142  -17.5747 C   0  0  0  0  0  0  0  0  0  0  0  0
   19.1852  -12.2394  -16.8434 O   0  0  0  0  0  0  0  0  0  0  0  0
   22.0169   -5.0779  -12.5487 O   0  0  0  0  0  0  0  0  0  0  0  0
   22.1044   -6.2058  -13.3679 C   0  0  0  0  0  0  0  0  0  0  0  0
   21.9168   -7.4431  -12.8184 C   0  0  0  0  0  0  0  0  0  0  0  0
   21.9994   -8.5851  -13.6167 C   0  0  0  0  0  0  0  0  0  0  0  0
   22.2684   -8.4994  -14.9623 C   0  0  0  0  0  0  0  0  0  0  0  0
   22.3472   -9.7266  -15.7792 C   0  0  0  0  0  0  0  0  0  0  0  0
   21.0195  -10.1944  -16.3113 C   0  0  2  0  0  0  0  0  0  0  0  0
   21.2080  -11.2690  -17.2727 N   0  0  0  0  0  0  0  0  0  0  0  0
   20.3829   -9.0298  -16.9727 C   0  0  0  0  0  0  0  0  0  0  0  0
   20.7808   -8.6949  -18.1098 O   0  0  0  0  0  0  0  0  0  0  0  0
   22.4527   -7.2450  -15.4898 C   0  0  0  0  0  0  0  0  0  0  0  0
   22.3741   -6.1100  -14.7142 C   0  0  0  0  0  0  0  0  0  0  0  0
   19.3419   -8.2777  -16.3729 N   0  0  0  0  0  0  0  0  0  0  0  0
   18.7784   -7.0686  -16.9606 C   0  0  1  0  0  0  0  0  0  0  0  0
   17.3192   -7.2826  -17.2979 C   0  0  0  0  0  0  0  0  0  0  0  0
   16.6355   -6.0613  -17.8086 C   0  0  0  0  0  0  0  0  0  0  0  0
   15.1764   -6.3362  -18.1678 C   0  0  0  0  0  0  0  0  0  0  0  0
   14.4788   -5.0964  -18.6369 C   0  0  0  0  0  0  0  0  0  0  0  0
   13.0775   -5.3890  -18.7774 N   0  0  0  0  0  0  0  0  0  0  0  0
   18.9186   -5.9465  -16.0115 C   0  0  0  0  0  0  0  0  0  0  0  0
   19.1665   -4.7651  -16.3503 O   0  0  0  0  0  0  0  0  0  0  0  0
   18.7720   -6.1801  -14.6427 O   0  0  0  0  0  0  0  0  0  0  0  0
  2  4  1  0
  2  1  1  6
  3  2  1  0
  4  5  1  1
  6  4  1  0
  6  7  2  0
  8  9  1  0
  9 10  2  0
 10 11  1  0
 12 11  2  0
 12 13  1  0
 14 13  1  6
 14 15  1  0
 14 16  1  0
 15  6  1  0
 16 20  1  0
 17 16  2  0
 18 12  1  0
 19  9  1  0
 19 18  2  0
 20 21  1  0
 21 27  1  0
 22 23  1  0
 21 22  1  1
 24 23  1  0
 25 24  1  0
 26 25  1  0
 27 28  2  0
 27 29  1  0
M  END
$$$$
