TYK.pdb
     RDKit          3D

 29 29  0  0  1  0  0  0  0  0999 V2000
   27.3597  -19.2087  -17.3177 C   0  0  0  0  0  0  0  0  0  0  0  0
   28.0238  -20.4960  -17.6884 C   0  0  1  0  0  0  0  0  0  0  0  0
   29.0583  -20.3382  -18.6123 O   0  0  0  0  0  0  0  0  0  0  0  0
   28.4720  -21.3203  -16.5149 C   0  0  2  0  0  0  0  0  0  0  0  0
   29.0569  -22.5521  -16.9422 N   0  0  0  0  0  0  0  0  0  0  0  0
   27.4300  -21.5725  -15.5167 C   0  0  0  0  0  0  0  0  0  0  0  0
   26.5748  -22.4865  -15.6847 O   0  0  0  0  0  0  0  0  0  0  0  0
   22.9072  -20.9034   -7.8733 O   0  0  0  0  0  0  0  0  0  0  0  0
   23.8065  -20.7256   -8.9271 C   0  0  0  0  0  0  0  0  0  0  0  0
   25.0890  -21.1779   -8.7905 C   0  0  0  0  0  0  0  0  0  0  0  0
   26.0059  -21.0117   -9.8296 C   0  0  0  0  0  0  0  0  0  0  0  0
   25.6498  -20.3959  -11.0062 C   0  0  0  0  0  0  0  0  0  0  0  0
   26.6432  -20.2375  -12.0868 C   0  0  0  0  0  0  0  0  0  0  0  0
   26.3025  -20.9868  -13.3467 C   0  0  2  0  0  0  0  0  0  0  0  0
   27.3470  -20.8074  -14.3423 N   0  0  0  0  0  0  0  0  0  0  0  0
   25.0233  -20.4302  -13.8495 C   0  0  0  0  0  0  0  0  0  0  0  0
   24.9943  -19.2371  -14.2225 O   0  0  0  0  0  0  0  0  0  0  0  0
   24.3557  -19.9507  -11.1184 C   0  0  0  0  0  0  0  0  0  0  0  0
   23.4407  -20.1079  -10.1015 C   0  0  0  0  0  0  0  0  0  0  0  0
   23.8297  -21.1909  -13.9263 N   0  0  0  0  0  0  0  0  0  0  0  0
   22.5464  -20.6386  -14.3418 C   0  0  1  0  0  0  0  0  0  0  0  0
   22.2153  -21.0868  -15.7484 C   0  0  0  0  0  0  0  0  0  0  0  0
   23.1011  -20.4966  -16.7910 C   0  0  0  0  0  0  0  0  0  0  0  0
   22.6896  -20.9302  -18.1967 C   0  0  0  0  0  0  0  0  0  0  0  0
   23.6179  -20.3846  -19.2382 C   0  0  0  0  0  0  0  0  0  0  0  0
   23.1698  -20.8368  -20.5281 N   0  0  0  0  0  0  0  0  0  0  0  0
   21.4922  -21.0824  -13.4085 C   0  0  0  0  0  0  0  0  0  0  0  0
   21.5210  -22.1655  -12.7778 O   0  0  0  0  0  0  0  0  0  0  0  0
   20.3784  -20.2688  -13.1908 O   0  0  0  0  0  0  0  0  0  0  0  0
  2  4  1  0
  2  1  1  1
  3  2  1  0
  4  5  1  6
  6  4  1  0
  6  7  2  0
  8  9  1  0
  9 10  2  0
 10 11  1  0
 12 11  2  0
 12 13  1  0
 14 13  1  1
 14 15  1  0
 14 16  1  0
 15  6  1  0
 16 20  1  0
 17 16  2  0
 18 12  1  0
 19  9  1  0
 19 18  2  0
 20 21  1  0
 21 27  1  0
 22 23  1  0
 21 22  1  6
 24 23  1  0
 25 24  1  0
 26 25  1  0
 27 28  2  0
 27 29  1  0
M  END
$$$$
