TYK.pdb
     RDKit          3D

 29 29  0  0  1  0  0  0  0  0999 V2000
   28.7755   -9.0413  -16.8838 C   0  0  0  0  0  0  0  0  0  0  0  0
   28.9255  -10.2063  -17.8089 C   0  0  1  0  0  0  0  0  0  0  0  0
   30.2050  -10.7646  -17.7917 O   0  0  0  0  0  0  0  0  0  0  0  0
   27.8741  -11.2667  -17.6428 C   0  0  2  0  0  0  0  0  0  0  0  0
   28.1231  -12.3804  -18.5027 N   0  0  0  0  0  0  0  0  0  0  0  0
   26.4994  -10.7906  -17.8141 C   0  0  0  0  0  0  0  0  0  0  0  0
   25.9698  -10.7279  -18.9590 O   0  0  0  0  0  0  0  0  0  0  0  0
   22.5791  -16.0188  -17.9981 O   0  0  0  0  0  0  0  0  0  0  0  0
   22.7736  -14.7208  -17.5203 C   0  0  0  0  0  0  0  0  0  0  0  0
   23.6181  -14.5202  -16.4646 C   0  0  0  0  0  0  0  0  0  0  0  0
   23.8286  -13.2324  -15.9693 C   0  0  0  0  0  0  0  0  0  0  0  0
   23.2002  -12.1417  -16.5224 C   0  0  0  0  0  0  0  0  0  0  0  0
   23.4457  -10.7923  -15.9762 C   0  0  0  0  0  0  0  0  0  0  0  0
   24.3473   -9.9411  -16.8290 C   0  0  2  0  0  0  0  0  0  0  0  0
   25.7262  -10.3881  -16.7134 N   0  0  0  0  0  0  0  0  0  0  0  0
   24.2237   -8.5486  -16.3346 C   0  0  0  0  0  0  0  0  0  0  0  0
   24.7965   -8.2384  -15.2672 O   0  0  0  0  0  0  0  0  0  0  0  0
   22.3569  -12.3700  -17.5819 C   0  0  0  0  0  0  0  0  0  0  0  0
   22.1400  -13.6350  -18.0807 C   0  0  0  0  0  0  0  0  0  0  0  0
   23.4841   -7.5513  -17.0184 N   0  0  0  0  0  0  0  0  0  0  0  0
   23.4301   -6.1566  -16.5982 C   0  0  1  0  0  0  0  0  0  0  0  0
   22.7709   -5.3136  -17.6678 C   0  0  0  0  0  0  0  0  0  0  0  0
   22.6366   -3.8757  -17.3013 C   0  0  0  0  0  0  0  0  0  0  0  0
   22.0976   -3.0423  -18.4625 C   0  0  0  0  0  0  0  0  0  0  0  0
   22.1147   -1.5780  -18.1475 C   0  0  0  0  0  0  0  0  0  0  0  0
   21.7603   -0.8528  -19.3382 N   0  0  0  0  0  0  0  0  0  0  0  0
   22.6749   -6.0505  -15.3341 C   0  0  0  0  0  0  0  0  0  0  0  0
   22.9327   -5.2238  -14.4275 O   0  0  0  0  0  0  0  0  0  0  0  0
   21.5993   -6.9098  -15.1006 O   0  0  0  0  0  0  0  0  0  0  0  0
  2  4  1  0
  2  1  1  1
  3  2  1  0
  4  5  1  6
  6  4  1  0
  6  7  2  0
  8  9  1  0
  9 10  2  0
 10 11  1  0
 12 11  2  0
 12 13  1  0
 14 13  1  1
 14 15  1  0
 14 16  1  0
 15  6  1  0
 16 20  1  0
 17 16  2  0
 18 12  1  0
 19  9  1  0
 19 18  2  0
 20 21  1  0
 21 27  1  0
 22 23  1  0
 21 22  1  6
 24 23  1  0
 25 24  1  0
 26 25  1  0
 27 28  2  0
 27 29  1  0
M  END
$$$$
