TYK.pdb
     RDKit          3D

 29 29  0  0  1  0  0  0  0  0999 V2000
   15.9740  -11.2211  -16.8726 C   0  0  0  0  0  0  0  0  0  0  0  0
   17.0977  -11.6709  -15.9947 C   0  0  1  0  0  0  0  0  0  0  0  0
   18.0535  -12.4339  -16.6679 O   0  0  0  0  0  0  0  0  0  0  0  0
   17.7471  -10.5677  -15.2082 C   0  0  2  0  0  0  0  0  0  0  0  0
   18.8712  -11.0517  -14.4706 N   0  0  0  0  0  0  0  0  0  0  0  0
   16.8370   -9.8355  -14.3242 C   0  0  0  0  0  0  0  0  0  0  0  0
   15.7953   -9.2822  -14.7757 O   0  0  0  0  0  0  0  0  0  0  0  0
   11.5725   -8.6117   -7.5156 O   0  0  0  0  0  0  0  0  0  0  0  0
   12.6519   -8.9722   -8.3253 C   0  0  0  0  0  0  0  0  0  0  0  0
   12.4145   -9.6571   -9.4841 C   0  0  0  0  0  0  0  0  0  0  0  0
   13.4769  -10.0283  -10.3098 C   0  0  0  0  0  0  0  0  0  0  0  0
   14.7768   -9.7196   -9.9854 C   0  0  0  0  0  0  0  0  0  0  0  0
   15.8778  -10.1253  -10.8814 C   0  0  0  0  0  0  0  0  0  0  0  0
   16.1412   -9.1587  -12.0045 C   0  0  2  0  0  0  0  0  0  0  0  0
   17.0924   -9.7238  -12.9481 N   0  0  0  0  0  0  0  0  0  0  0  0
   16.7029   -7.9290  -11.3951 C   0  0  0  0  0  0  0  0  0  0  0  0
   17.9190   -7.9053  -11.1054 O   0  0  0  0  0  0  0  0  0  0  0  0
   14.9884   -9.0311   -8.8163 C   0  0  0  0  0  0  0  0  0  0  0  0
   13.9501   -8.6586   -7.9922 C   0  0  0  0  0  0  0  0  0  0  0  0
   15.9219   -6.7771  -11.1256 N   0  0  0  0  0  0  0  0  0  0  0  0
   16.4744   -5.5302  -10.6111 C   0  0  1  0  0  0  0  0  0  0  0  0
   15.8400   -4.3490  -11.3119 C   0  0  0  0  0  0  0  0  0  0  0  0
   16.3207   -3.0283  -10.8175 C   0  0  0  0  0  0  0  0  0  0  0  0
   15.5856   -1.8696  -11.4887 C   0  0  0  0  0  0  0  0  0  0  0  0
   16.0953   -0.5427  -11.0159 C   0  0  0  0  0  0  0  0  0  0  0  0
   15.2630    0.4891  -11.5744 N   0  0  0  0  0  0  0  0  0  0  0  0
   16.2321   -5.4454   -9.1573 C   0  0  0  0  0  0  0  0  0  0  0  0
   15.1357   -5.7101   -8.6100 O   0  0  0  0  0  0  0  0  0  0  0  0
   17.2676   -5.0485   -8.3088 O   0  0  0  0  0  0  0  0  0  0  0  0
  2  4  1  0
  2  1  1  6
  3  2  1  0
  4  5  1  1
  6  4  1  0
  6  7  2  0
  8  9  1  0
  9 10  2  0
 10 11  1  0
 12 11  2  0
 12 13  1  0
 14 13  1  1
 14 15  1  0
 14 16  1  0
 15  6  1  0
 16 20  1  0
 17 16  2  0
 18 12  1  0
 19  9  1  0
 19 18  2  0
 20 21  1  0
 21 27  1  0
 22 23  1  0
 21 22  1  6
 24 23  1  0
 25 24  1  0
 26 25  1  0
 27 28  2  0
 27 29  1  0
M  END
$$$$
