TYK.pdb
     RDKit          3D

 29 29  0  0  1  0  0  0  0  0999 V2000
   26.9434  -19.7337  -21.1232 C   0  0  0  0  0  0  0  0  0  0  0  0
   26.2201  -20.5060  -20.0668 C   0  0  1  0  0  0  0  0  0  0  0  0
   27.0525  -21.3548  -19.3351 O   0  0  0  0  0  0  0  0  0  0  0  0
   25.3759  -19.6626  -19.1538 C   0  0  2  0  0  0  0  0  0  0  0  0
   26.1559  -18.6455  -18.5221 N   0  0  0  0  0  0  0  0  0  0  0  0
   24.6223  -20.4201  -18.1518 C   0  0  0  0  0  0  0  0  0  0  0  0
   23.8868  -21.3907  -18.4866 O   0  0  0  0  0  0  0  0  0  0  0  0
   27.9268  -25.9281  -16.4704 O   0  0  0  0  0  0  0  0  0  0  0  0
   27.1924  -24.8226  -16.0352 C   0  0  0  0  0  0  0  0  0  0  0  0
   27.6973  -23.5682  -16.2349 C   0  0  0  0  0  0  0  0  0  0  0  0
   26.9819  -22.4480  -15.8088 C   0  0  0  0  0  0  0  0  0  0  0  0
   25.7637  -22.5724  -15.1837 C   0  0  0  0  0  0  0  0  0  0  0  0
   25.0314  -21.3672  -14.7467 C   0  0  0  0  0  0  0  0  0  0  0  0
   24.0281  -20.8632  -15.7489 C   0  0  2  0  0  0  0  0  0  0  0  0
   24.6918  -20.0926  -16.7882 N   0  0  0  0  0  0  0  0  0  0  0  0
   23.0740  -20.0008  -15.0108 C   0  0  0  0  0  0  0  0  0  0  0  0
   23.4001  -18.8186  -14.7664 O   0  0  0  0  0  0  0  0  0  0  0  0
   25.2785  -23.8431  -14.9952 C   0  0  0  0  0  0  0  0  0  0  0  0
   25.9734  -24.9571  -15.4103 C   0  0  0  0  0  0  0  0  0  0  0  0
   21.8068  -20.4568  -14.5687 N   0  0  0  0  0  0  0  0  0  0  0  0
   20.8193  -19.5980  -13.9269 C   0  0  1  0  0  0  0  0  0  0  0  0
   20.4237  -18.4714  -14.8561 C   0  0  0  0  0  0  0  0  0  0  0  0
   19.3912  -17.5594  -14.2886 C   0  0  0  0  0  0  0  0  0  0  0  0
   19.0115  -16.4520  -15.2699 C   0  0  0  0  0  0  0  0  0  0  0  0
   18.0165  -15.5030  -14.6756 C   0  0  0  0  0  0  0  0  0  0  0  0
   17.7552  -14.4607  -15.6319 N   0  0  0  0  0  0  0  0  0  0  0  0
   19.6310  -20.3961  -13.5655 C   0  0  0  0  0  0  0  0  0  0  0  0
   19.2458  -21.4095  -14.1951 O   0  0  0  0  0  0  0  0  0  0  0  0
   18.8647  -20.0270  -12.4581 O   0  0  0  0  0  0  0  0  0  0  0  0
  2  4  1  0
  2  1  1  1
  3  2  1  0
  4  5  1  1
  6  4  1  0
  6  7  2  0
  8  9  1  0
  9 10  2  0
 10 11  1  0
 12 11  2  0
 12 13  1  0
 14 13  1  1
 14 15  1  0
 14 16  1  0
 15  6  1  0
 16 20  1  0
 17 16  2  0
 18 12  1  0
 19  9  1  0
 19 18  2  0
 20 21  1  0
 21 27  1  0
 22 23  1  0
 21 22  1  6
 24 23  1  0
 25 24  1  0
 26 25  1  0
 27 28  2  0
 27 29  1  0
M  END
$$$$
