SPY.pdb
     RDKit          3D

 26 27  0  0  1  0  0  0  0  0999 V2000
   23.0249  -19.2397  -14.5690 O   0  0  0  0  0  0  0  0  0  0  0  0
   22.7648  -20.4171  -15.2755 C   0  0  0  0  0  0  0  0  0  0  0  0
   24.1078  -20.9208  -15.7996 C   0  0  2  0  0  0  0  0  0  0  0  0
   23.8311  -21.9286  -16.7677 N   0  0  0  0  0  0  0  0  0  0  0  0
   25.0094  -21.3142  -14.7227 C   0  0  0  0  0  0  0  0  0  0  0  0
   24.5789  -22.3260  -14.0234 O   0  0  0  0  0  0  0  0  0  0  0  0
   26.2326  -20.7861  -14.3429 N   0  0  0  0  0  0  0  0  0  0  0  0
   27.2628  -20.3804  -15.3676 C   0  0  0  0  0  0  0  0  0  0  0  0
   27.7556  -19.0401  -14.8631 C   0  0  0  0  0  0  0  0  0  0  0  0
   27.0719  -18.8882  -13.4931 C   0  0  0  0  0  0  0  0  0  0  0  0
   26.9047  -20.3477  -13.1537 C   0  0  1  0  0  0  0  0  0  0  0  0
   26.4692  -20.7401  -11.8638 C   0  0  0  0  0  0  0  0  0  0  0  0
   25.2555  -20.6999  -11.5251 O   0  0  0  0  0  0  0  0  0  0  0  0
   27.7926  -19.2530   -3.4023 O   0  0  0  0  0  0  0  0  0  0  0  0
   27.9285  -19.6684   -4.7111 C   0  0  0  0  0  0  0  0  0  0  0  0
   28.4033  -18.8428   -5.7133 C   0  0  0  0  0  0  0  0  0  0  0  0
   28.5279  -19.2792   -7.0000 C   0  0  0  0  0  0  0  0  0  0  0  0
   28.1627  -20.5857   -7.2816 C   0  0  0  0  0  0  0  0  0  0  0  0
   28.2929  -21.0509   -8.6622 C   0  0  0  0  0  0  0  0  0  0  0  0
   26.9796  -21.1115   -9.4109 C   0  0  2  0  0  0  0  0  0  0  0  0
   27.3453  -21.2170  -10.8203 N   0  0  0  0  0  0  0  0  0  0  0  0
   26.0884  -19.9785   -9.1572 C   0  0  0  0  0  0  0  0  0  0  0  0
   24.8981  -20.1641   -8.4750 O   0  0  0  0  0  0  0  0  0  0  0  0
   27.6903  -21.4281   -6.3184 C   0  0  0  0  0  0  0  0  0  0  0  0
   27.5781  -20.9517   -5.0286 C   0  0  0  0  0  0  0  0  0  0  0  0
   26.3583  -18.8113   -9.5399 O   0  0  0  0  0  0  0  0  0  0  0  0
  2  1  1  0
  3  2  1  0
  3  4  1  6
  5  7  1  0
  5  3  1  0
  6  5  2  0
  7 11  1  0
  8  9  1  0
  8  7  1  0
  9 10  1  0
 10 11  1  0
 11 12  1  1
 12 21  1  0
 13 12  2  0
 15 14  1  0
 16 15  2  0
 17 16  1  0
 18 24  1  0
 18 17  2  0
 19 18  1  0
 20 22  1  0
 20 21  1  0
 20 19  1  1
 22 23  1  0
 24 25  2  0
 25 15  1  0
 26 22  2  0
M  END
$$$$
