SPY.pdb
     RDKit          3D

 26 27  0  0  1  0  0  0  0  0999 V2000
   25.7372  -18.9013  -15.1312 O   0  0  0  0  0  0  0  0  0  0  0  0
   26.0792  -20.0679  -15.8203 C   0  0  0  0  0  0  0  0  0  0  0  0
   26.4277  -21.1154  -14.7652 C   0  0  2  0  0  0  0  0  0  0  0  0
   26.9870  -22.2328  -15.4494 N   0  0  0  0  0  0  0  0  0  0  0  0
   25.3004  -21.4145  -13.8893 C   0  0  0  0  0  0  0  0  0  0  0  0
   24.1924  -21.6626  -14.5289 O   0  0  0  0  0  0  0  0  0  0  0  0
   25.2342  -21.4772  -12.5069 N   0  0  0  0  0  0  0  0  0  0  0  0
   26.2883  -22.1986  -11.7042 C   0  0  0  0  0  0  0  0  0  0  0  0
   26.5752  -21.2479  -10.5607 C   0  0  0  0  0  0  0  0  0  0  0  0
   25.5228  -20.1384  -10.7313 C   0  0  0  0  0  0  0  0  0  0  0  0
   24.4533  -20.9382  -11.4310 C   0  0  1  0  0  0  0  0  0  0  0  0
   23.1677  -20.3835  -11.6483 C   0  0  0  0  0  0  0  0  0  0  0  0
   22.9069  -19.1764  -11.3947 O   0  0  0  0  0  0  0  0  0  0  0  0
   18.0542  -17.1596  -17.4677 O   0  0  0  0  0  0  0  0  0  0  0  0
   18.9389  -17.7758  -16.6066 C   0  0  0  0  0  0  0  0  0  0  0  0
   19.5071  -17.1270  -15.5260 C   0  0  0  0  0  0  0  0  0  0  0  0
   20.3795  -17.7603  -14.6897 C   0  0  0  0  0  0  0  0  0  0  0  0
   20.6862  -19.0856  -14.9527 C   0  0  0  0  0  0  0  0  0  0  0  0
   21.6248  -19.7620  -14.0577 C   0  0  0  0  0  0  0  0  0  0  0  0
   20.9598  -20.4531  -12.8875 C   0  0  2  0  0  0  0  0  0  0  0  0
   22.0420  -21.1210  -12.1705 N   0  0  0  0  0  0  0  0  0  0  0  0
   19.8931  -21.3821  -13.2631 C   0  0  0  0  0  0  0  0  0  0  0  0
   18.5676  -20.9880  -13.1984 O   0  0  0  0  0  0  0  0  0  0  0  0
   20.1449  -19.7571  -16.0094 C   0  0  0  0  0  0  0  0  0  0  0  0
   19.2666  -19.0841  -16.8333 C   0  0  0  0  0  0  0  0  0  0  0  0
   20.1283  -22.5547  -13.6523 O   0  0  0  0  0  0  0  0  0  0  0  0
  2  1  1  0
  3  2  1  0
  3  4  1  6
  5  7  1  0
  5  3  1  0
  6  5  2  0
  7 11  1  0
  8  9  1  0
  8  7  1  0
  9 10  1  0
 10 11  1  0
 11 12  1  6
 12 21  1  0
 13 12  2  0
 15 14  1  0
 16 15  2  0
 17 16  1  0
 18 24  1  0
 18 17  2  0
 19 18  1  0
 20 22  1  0
 20 21  1  0
 20 19  1  6
 22 23  1  0
 24 25  2  0
 25 15  1  0
 26 22  2  0
M  END
$$$$
