SPY.pdb
     RDKit          3D

 26 27  0  0  1  0  0  0  0  0999 V2000
   21.6344  -18.2994  -14.4622 O   0  0  0  0  0  0  0  0  0  0  0  0
   22.0381  -19.0941  -13.3858 C   0  0  0  0  0  0  0  0  0  0  0  0
   22.6644  -20.3536  -13.9801 C   0  0  2  0  0  0  0  0  0  0  0  0
   21.5961  -21.2051  -14.3841 N   0  0  0  0  0  0  0  0  0  0  0  0
   23.6462  -20.9577  -13.0862 C   0  0  0  0  0  0  0  0  0  0  0  0
   23.1274  -21.4560  -11.9996 O   0  0  0  0  0  0  0  0  0  0  0  0
   25.0195  -21.0821  -13.2196 N   0  0  0  0  0  0  0  0  0  0  0  0
   25.6371  -21.6378  -14.4789 C   0  0  0  0  0  0  0  0  0  0  0  0
   26.7895  -20.6947  -14.7543 C   0  0  0  0  0  0  0  0  0  0  0  0
   26.8209  -19.7802  -13.5173 C   0  0  0  0  0  0  0  0  0  0  0  0
   26.2164  -20.7278  -12.5124 C   0  0  1  0  0  0  0  0  0  0  0  0
   26.1979  -20.3981  -11.1345 C   0  0  0  0  0  0  0  0  0  0  0  0
   25.5073  -19.4452  -10.6824 O   0  0  0  0  0  0  0  0  0  0  0  0
   29.6619  -19.0169   -3.1990 O   0  0  0  0  0  0  0  0  0  0  0  0
   29.0866  -19.5505   -4.3340 C   0  0  0  0  0  0  0  0  0  0  0  0
   29.6918  -20.5406   -5.0856 C   0  0  0  0  0  0  0  0  0  0  0  0
   29.1006  -21.0511   -6.2043 C   0  0  0  0  0  0  0  0  0  0  0  0
   27.8639  -20.5471   -6.5735 C   0  0  0  0  0  0  0  0  0  0  0  0
   27.2332  -21.0924   -7.7753 C   0  0  0  0  0  0  0  0  0  0  0  0
   27.6360  -20.3833   -9.0496 C   0  0  2  0  0  0  0  0  0  0  0  0
   26.9498  -21.0992  -10.1210 N   0  0  0  0  0  0  0  0  0  0  0  0
   29.0812  -20.3159   -9.2708 C   0  0  0  0  0  0  0  0  0  0  0  0
   29.7543  -21.3899   -9.8278 O   0  0  0  0  0  0  0  0  0  0  0  0
   27.2375  -19.5705   -5.8562 C   0  0  0  0  0  0  0  0  0  0  0  0
   27.8658  -19.0787   -4.7308 C   0  0  0  0  0  0  0  0  0  0  0  0
   29.7613  -19.3014   -8.9707 O   0  0  0  0  0  0  0  0  0  0  0  0
  2  1  1  0
  3  2  1  0
  3  4  1  1
  5  7  1  0
  5  3  1  0
  6  5  2  0
  7 11  1  0
  8  9  1  0
  8  7  1  0
  9 10  1  0
 10 11  1  0
 11 12  1  1
 12 21  1  0
 13 12  2  0
 15 14  1  0
 16 15  2  0
 17 16  1  0
 18 24  1  0
 18 17  2  0
 19 18  1  0
 20 22  1  0
 20 21  1  0
 20 19  1  1
 22 23  1  0
 24 25  2  0
 25 15  1  0
 26 22  2  0
M  END
$$$$
