SPY.pdb
     RDKit          3D

 26 27  0  0  1  0  0  0  0  0999 V2000
   23.6009  -17.3604  -17.7989 O   0  0  0  0  0  0  0  0  0  0  0  0
   23.4459  -18.7111  -18.1221 C   0  0  0  0  0  0  0  0  0  0  0  0
   24.8368  -19.2454  -18.4566 C   0  0  2  0  0  0  0  0  0  0  0  0
   24.6709  -20.2724  -19.4299 N   0  0  0  0  0  0  0  0  0  0  0  0
   25.5851  -19.6250  -17.2635 C   0  0  0  0  0  0  0  0  0  0  0  0
   24.9113  -20.3786  -16.4412 O   0  0  0  0  0  0  0  0  0  0  0  0
   26.8806  -19.3137  -16.8838 N   0  0  0  0  0  0  0  0  0  0  0  0
   28.0094  -19.3051  -17.8846 C   0  0  0  0  0  0  0  0  0  0  0  0
   28.7670  -18.0363  -17.5533 C   0  0  0  0  0  0  0  0  0  0  0  0
   28.0865  -17.5251  -16.2714 C   0  0  0  0  0  0  0  0  0  0  0  0
   27.5912  -18.8422  -15.7302 C   0  0  1  0  0  0  0  0  0  0  0  0
   27.0358  -18.9212  -14.4291 C   0  0  0  0  0  0  0  0  0  0  0  0
   26.3953  -17.9650  -13.9144 O   0  0  0  0  0  0  0  0  0  0  0  0
   21.7870  -20.5622   -8.0390 O   0  0  0  0  0  0  0  0  0  0  0  0
   22.6314  -20.6202   -9.1288 C   0  0  0  0  0  0  0  0  0  0  0  0
   23.7761  -21.3953   -9.1488 C   0  0  0  0  0  0  0  0  0  0  0  0
   24.5940  -21.4345  -10.2401 C   0  0  0  0  0  0  0  0  0  0  0  0
   24.2455  -20.6693  -11.3414 C   0  0  0  0  0  0  0  0  0  0  0  0
   25.1255  -20.7091  -12.5091 C   0  0  0  0  0  0  0  0  0  0  0  0
   26.4939  -20.1133  -12.2610 C   0  0  2  0  0  0  0  0  0  0  0  0
   27.1399  -20.0765  -13.5697 N   0  0  0  0  0  0  0  0  0  0  0  0
   27.2955  -20.8356  -11.2721 C   0  0  0  0  0  0  0  0  0  0  0  0
   27.2763  -20.4527   -9.9418 O   0  0  0  0  0  0  0  0  0  0  0  0
   23.1241  -19.8929  -11.3570 C   0  0  0  0  0  0  0  0  0  0  0  0
   22.3212  -19.8786  -10.2353 C   0  0  0  0  0  0  0  0  0  0  0  0
   28.0220  -21.8148  -11.5804 O   0  0  0  0  0  0  0  0  0  0  0  0
  2  1  1  0
  3  2  1  0
  3  4  1  6
  5  7  1  0
  5  3  1  0
  6  5  2  0
  7 11  1  0
  8  9  1  0
  8  7  1  0
  9 10  1  0
 10 11  1  0
 11 12  1  1
 12 21  1  0
 13 12  2  0
 15 14  1  0
 16 15  2  0
 17 16  1  0
 18 24  1  0
 18 17  2  0
 19 18  1  0
 20 22  1  0
 20 21  1  0
 20 19  1  6
 22 23  1  0
 24 25  2  0
 25 15  1  0
 26 22  2  0
M  END
$$$$
