SPY.pdb
     RDKit          3D

 26 27  0  0  1  0  0  0  0  0999 V2000
   20.0771   -6.5460  -20.0173 O   0  0  0  0  0  0  0  0  0  0  0  0
   21.0144   -6.3038  -19.0095 C   0  0  0  0  0  0  0  0  0  0  0  0
   21.6627   -7.6467  -18.6803 C   0  0  2  0  0  0  0  0  0  0  0  0
   21.9088   -8.3101  -19.9168 N   0  0  0  0  0  0  0  0  0  0  0  0
   20.8937   -8.4068  -17.7013 C   0  0  0  0  0  0  0  0  0  0  0  0
   19.9736   -9.1624  -18.2312 O   0  0  0  0  0  0  0  0  0  0  0  0
   20.9964   -8.4479  -16.3203 N   0  0  0  0  0  0  0  0  0  0  0  0
   22.3242   -8.6717  -15.6400 C   0  0  0  0  0  0  0  0  0  0  0  0
   22.3261   -7.6501  -14.5220 C   0  0  0  0  0  0  0  0  0  0  0  0
   20.9103   -7.0494  -14.5695 C   0  0  0  0  0  0  0  0  0  0  0  0
   20.1783   -8.2265  -15.1629 C   0  0  1  0  0  0  0  0  0  0  0  0
   18.7635   -8.2288  -15.2388 C   0  0  0  0  0  0  0  0  0  0  0  0
   18.1009   -7.1740  -15.4333 O   0  0  0  0  0  0  0  0  0  0  0  0
   16.3521  -15.6445  -15.9855 O   0  0  0  0  0  0  0  0  0  0  0  0
   16.3324  -14.2731  -16.1368 C   0  0  0  0  0  0  0  0  0  0  0  0
   17.2236  -13.5964  -16.9488 C   0  0  0  0  0  0  0  0  0  0  0  0
   17.1821  -12.2391  -17.0806 C   0  0  0  0  0  0  0  0  0  0  0  0
   16.2133  -11.5466  -16.3724 C   0  0  0  0  0  0  0  0  0  0  0  0
   16.1726  -10.0911  -16.5115 C   0  0  0  0  0  0  0  0  0  0  0  0
   16.4913   -9.3480  -15.2327 C   0  0  2  0  0  0  0  0  0  0  0  0
   17.9443   -9.4098  -15.1045 N   0  0  0  0  0  0  0  0  0  0  0  0
   15.8117   -9.8706  -14.0465 C   0  0  0  0  0  0  0  0  0  0  0  0
   14.4542   -9.6636  -13.8702 O   0  0  0  0  0  0  0  0  0  0  0  0
   15.3180  -12.1809  -15.5620 C   0  0  0  0  0  0  0  0  0  0  0  0
   15.3906  -13.5543  -15.4537 C   0  0  0  0  0  0  0  0  0  0  0  0
   16.4178  -10.5166  -13.1537 O   0  0  0  0  0  0  0  0  0  0  0  0
  2  1  1  0
  3  2  1  0
  3  4  1  6
  5  7  1  0
  5  3  1  0
  6  5  2  0
  7 11  1  0
  8  9  1  0
  8  7  1  0
  9 10  1  0
 10 11  1  0
 11 12  1  6
 12 21  1  0
 13 12  2  0
 15 14  1  0
 16 15  2  0
 17 16  1  0
 18 24  1  0
 18 17  2  0
 19 18  1  0
 20 22  1  0
 20 21  1  0
 20 19  1  6
 22 23  1  0
 24 25  2  0
 25 15  1  0
 26 22  2  0
M  END
$$$$
