SPY.pdb
     RDKit          3D

 26 27  0  0  1  0  0  0  0  0999 V2000
   23.2304  -14.9294  -15.1444 O   0  0  0  0  0  0  0  0  0  0  0  0
   23.3855  -16.3072  -15.3195 C   0  0  0  0  0  0  0  0  0  0  0  0
   23.9992  -16.5079  -16.7033 C   0  0  2  0  0  0  0  0  0  0  0  0
   22.9227  -16.6174  -17.6299 N   0  0  0  0  0  0  0  0  0  0  0  0
   24.9631  -17.6024  -16.7273 C   0  0  0  0  0  0  0  0  0  0  0  0
   24.4134  -18.7839  -16.7156 O   0  0  0  0  0  0  0  0  0  0  0  0
   26.3477  -17.5739  -16.7645 N   0  0  0  0  0  0  0  0  0  0  0  0
   27.0881  -16.5582  -17.5988 C   0  0  0  0  0  0  0  0  0  0  0  0
   28.1878  -16.0756  -16.6761 C   0  0  0  0  0  0  0  0  0  0  0  0
   28.0694  -16.9964  -15.4490 C   0  0  0  0  0  0  0  0  0  0  0  0
   27.4651  -18.2030  -16.1213 C   0  0  1  0  0  0  0  0  0  0  0  0
   27.3286  -19.4248  -15.4170 C   0  0  0  0  0  0  0  0  0  0  0  0
   28.3180  -20.1595  -15.1512 O   0  0  0  0  0  0  0  0  0  0  0  0
   24.8271  -21.3208   -7.5099 O   0  0  0  0  0  0  0  0  0  0  0  0
   25.2765  -20.9746   -8.7677 C   0  0  0  0  0  0  0  0  0  0  0  0
   26.5530  -21.2642   -9.2128 C   0  0  0  0  0  0  0  0  0  0  0  0
   26.9721  -20.9104  -10.4621 C   0  0  0  0  0  0  0  0  0  0  0  0
   26.0765  -20.2456  -11.2841 C   0  0  0  0  0  0  0  0  0  0  0  0
   26.5285  -19.8632  -12.6216 C   0  0  0  0  0  0  0  0  0  0  0  0
   25.9971  -20.7551  -13.7221 C   0  0  2  0  0  0  0  0  0  0  0  0
   26.0724  -19.9510  -14.9383 N   0  0  0  0  0  0  0  0  0  0  0  0
   24.6467  -21.2668  -13.4839 C   0  0  0  0  0  0  0  0  0  0  0  0
   24.4621  -22.4983  -12.8788 O   0  0  0  0  0  0  0  0  0  0  0  0
   24.8098  -19.9434  -10.8785 C   0  0  0  0  0  0  0  0  0  0  0  0
   24.4215  -20.3171   -9.6085 C   0  0  0  0  0  0  0  0  0  0  0  0
   23.6162  -20.6246  -13.8116 O   0  0  0  0  0  0  0  0  0  0  0  0
  2  1  1  0
  3  2  1  0
  3  4  1  6
  5  7  1  0
  5  3  1  0
  6  5  2  0
  7 11  1  0
  8  9  1  0
  8  7  1  0
  9 10  1  0
 10 11  1  0
 11 12  1  1
 12 21  1  0
 13 12  2  0
 15 14  1  0
 16 15  2  0
 17 16  1  0
 18 24  1  0
 18 17  2  0
 19 18  1  0
 20 22  1  0
 20 21  1  0
 20 19  1  1
 22 23  1  0
 24 25  2  0
 25 15  1  0
 26 22  2  0
M  END
$$$$
