SPY.pdb
     RDKit          3D

 26 27  0  0  1  0  0  0  0  0999 V2000
   24.7283  -20.1268  -17.5998 O   0  0  0  0  0  0  0  0  0  0  0  0
   25.1990  -21.3953  -17.9496 C   0  0  0  0  0  0  0  0  0  0  0  0
   26.6234  -21.4999  -17.4091 C   0  0  2  0  0  0  0  0  0  0  0  0
   27.2595  -22.5698  -18.1021 N   0  0  0  0  0  0  0  0  0  0  0  0
   26.6577  -21.5853  -15.9534 C   0  0  0  0  0  0  0  0  0  0  0  0
   25.9113  -22.5365  -15.4675 O   0  0  0  0  0  0  0  0  0  0  0  0
   27.3549  -20.8241  -15.0293 N   0  0  0  0  0  0  0  0  0  0  0  0
   28.7753  -20.3862  -15.2873 C   0  0  0  0  0  0  0  0  0  0  0  0
   28.7805  -18.9324  -14.8631 C   0  0  0  0  0  0  0  0  0  0  0  0
   27.3894  -18.7260  -14.2387 C   0  0  0  0  0  0  0  0  0  0  0  0
   27.1241  -20.1405  -13.7894 C   0  0  1  0  0  0  0  0  0  0  0  0
   26.0054  -20.4369  -12.9719 C   0  0  0  0  0  0  0  0  0  0  0  0
   24.8210  -20.2715  -13.3709 O   0  0  0  0  0  0  0  0  0  0  0  0
   21.5032  -22.0298   -5.5094 O   0  0  0  0  0  0  0  0  0  0  0  0
   22.4632  -21.9475   -6.4972 C   0  0  0  0  0  0  0  0  0  0  0  0
   22.5951  -22.8963   -7.4941 C   0  0  0  0  0  0  0  0  0  0  0  0
   23.5536  -22.7907   -8.4593 C   0  0  0  0  0  0  0  0  0  0  0  0
   24.4019  -21.6961   -8.4159 C   0  0  0  0  0  0  0  0  0  0  0  0
   25.4316  -21.5863   -9.4490 C   0  0  0  0  0  0  0  0  0  0  0  0
   24.9244  -21.0184  -10.7564 C   0  0  2  0  0  0  0  0  0  0  0  0
   26.0958  -20.9479  -11.6248 N   0  0  0  0  0  0  0  0  0  0  0  0
   24.2537  -19.7236  -10.6312 C   0  0  0  0  0  0  0  0  0  0  0  0
   22.8769  -19.6351  -10.7463 O   0  0  0  0  0  0  0  0  0  0  0  0
   24.3011  -20.7409   -7.4474 C   0  0  0  0  0  0  0  0  0  0  0  0
   23.3197  -20.8813   -6.4881 C   0  0  0  0  0  0  0  0  0  0  0  0
   24.8848  -18.6567  -10.4187 O   0  0  0  0  0  0  0  0  0  0  0  0
  2  1  1  0
  3  2  1  0
  3  4  1  6
  5  7  1  0
  5  3  1  0
  6  5  2  0
  7 11  1  0
  8  9  1  0
  8  7  1  0
  9 10  1  0
 10 11  1  0
 11 12  1  6
 12 21  1  0
 13 12  2  0
 15 14  1  0
 16 15  2  0
 17 16  1  0
 18 24  1  0
 18 17  2  0
 19 18  1  0
 20 22  1  0
 20 21  1  0
 20 19  1  1
 22 23  1  0
 24 25  2  0
 25 15  1  0
 26 22  2  0
M  END
$$$$
