SPY.pdb
     RDKit          3D

 26 27  0  0  1  0  0  0  0  0999 V2000
   25.3880  -19.3896  -18.8694 O   0  0  0  0  0  0  0  0  0  0  0  0
   26.0821  -20.5111  -19.3315 C   0  0  0  0  0  0  0  0  0  0  0  0
   27.4361  -20.5116  -18.6252 C   0  0  2  0  0  0  0  0  0  0  0  0
   28.2655  -21.4495  -19.3049 N   0  0  0  0  0  0  0  0  0  0  0  0
   27.3090  -20.7121  -17.1860 C   0  0  0  0  0  0  0  0  0  0  0  0
   26.9367  -21.9166  -16.8564 O   0  0  0  0  0  0  0  0  0  0  0  0
   27.5250  -19.8319  -16.1381 N   0  0  0  0  0  0  0  0  0  0  0  0
   28.6807  -18.8623  -16.1552 C   0  0  0  0  0  0  0  0  0  0  0  0
   28.0602  -17.5633  -15.6849 C   0  0  0  0  0  0  0  0  0  0  0  0
   26.6310  -17.9635  -15.2790 C   0  0  0  0  0  0  0  0  0  0  0  0
   26.8852  -19.4072  -14.9265 C   0  0  1  0  0  0  0  0  0  0  0  0
   25.8759  -20.1835  -14.3050 C   0  0  0  0  0  0  0  0  0  0  0  0
   24.7322  -20.3285  -14.8152 O   0  0  0  0  0  0  0  0  0  0  0  0
   27.1944  -19.0411   -7.0956 O   0  0  0  0  0  0  0  0  0  0  0  0
   26.8217  -19.8654   -8.1376 C   0  0  0  0  0  0  0  0  0  0  0  0
   27.7315  -20.4046   -9.0281 C   0  0  0  0  0  0  0  0  0  0  0  0
   27.3359  -21.2172  -10.0502 C   0  0  0  0  0  0  0  0  0  0  0  0
   25.9838  -21.4924  -10.1758 C   0  0  0  0  0  0  0  0  0  0  0  0
   25.5607  -22.3604  -11.2745 C   0  0  0  0  0  0  0  0  0  0  0  0
   24.9410  -21.6145  -12.4359 C   0  0  2  0  0  0  0  0  0  0  0  0
   26.0412  -20.8766  -13.0495 N   0  0  0  0  0  0  0  0  0  0  0  0
   23.8298  -20.7373  -12.0647 C   0  0  0  0  0  0  0  0  0  0  0  0
   22.5678  -21.2622  -11.8445 O   0  0  0  0  0  0  0  0  0  0  0  0
   25.0582  -20.9779   -9.3161 C   0  0  0  0  0  0  0  0  0  0  0  0
   25.4955  -20.1603   -8.2946 C   0  0  0  0  0  0  0  0  0  0  0  0
   23.9689  -19.4943  -11.9326 O   0  0  0  0  0  0  0  0  0  0  0  0
  2  1  1  0
  3  2  1  0
  3  4  1  6
  5  7  1  0
  5  3  1  0
  6  5  2  0
  7 11  1  0
  8  9  1  0
  8  7  1  0
  9 10  1  0
 10 11  1  0
 11 12  1  6
 12 21  1  0
 13 12  2  0
 15 14  1  0
 16 15  2  0
 17 16  1  0
 18 24  1  0
 18 17  2  0
 19 18  1  0
 20 22  1  0
 20 21  1  0
 20 19  1  1
 22 23  1  0
 24 25  2  0
 25 15  1  0
 26 22  2  0
M  END
$$$$
