SPY.pdb
     RDKit          3D

 26 27  0  0  1  0  0  0  0  0999 V2000
   24.8519  -20.9481  -17.6865 O   0  0  0  0  0  0  0  0  0  0  0  0
   25.6972  -21.9302  -18.2099 C   0  0  0  0  0  0  0  0  0  0  0  0
   27.1276  -21.4520  -17.9706 C   0  0  2  0  0  0  0  0  0  0  0  0
   27.9873  -22.2988  -18.7278 N   0  0  0  0  0  0  0  0  0  0  0  0
   27.4440  -21.3428  -16.5509 C   0  0  0  0  0  0  0  0  0  0  0  0
   27.4084  -22.4813  -15.9179 O   0  0  0  0  0  0  0  0  0  0  0  0
   27.7743  -20.2323  -15.7912 N   0  0  0  0  0  0  0  0  0  0  0  0
   28.6728  -19.1497  -16.3360 C   0  0  0  0  0  0  0  0  0  0  0  0
   27.9746  -17.8700  -15.9257 C   0  0  0  0  0  0  0  0  0  0  0  0
   26.8197  -18.3514  -15.0301 C   0  0  0  0  0  0  0  0  0  0  0  0
   27.4318  -19.6362  -14.5322 C   0  0  1  0  0  0  0  0  0  0  0  0
   26.8040  -20.3792  -13.5020 C   0  0  0  0  0  0  0  0  0  0  0  0
   25.6467  -20.8618  -13.6334 O   0  0  0  0  0  0  0  0  0  0  0  0
   27.2398  -18.5086   -5.5430 O   0  0  0  0  0  0  0  0  0  0  0  0
   27.3224  -19.2986   -6.6713 C   0  0  0  0  0  0  0  0  0  0  0  0
   26.2278  -19.9451   -7.2146 C   0  0  0  0  0  0  0  0  0  0  0  0
   26.3373  -20.7208   -8.3317 C   0  0  0  0  0  0  0  0  0  0  0  0
   27.5874  -20.8466   -8.9157 C   0  0  0  0  0  0  0  0  0  0  0  0
   27.7041  -21.6817  -10.1108 C   0  0  0  0  0  0  0  0  0  0  0  0
   26.6744  -21.3699  -11.1746 C   0  0  2  0  0  0  0  0  0  0  0  0
   27.4048  -20.6586  -12.2194 N   0  0  0  0  0  0  0  0  0  0  0  0
   25.5219  -20.6075  -10.6926 C   0  0  0  0  0  0  0  0  0  0  0  0
   25.5099  -19.2260  -10.7829 O   0  0  0  0  0  0  0  0  0  0  0  0
   28.6892  -20.2236   -8.4072 C   0  0  0  0  0  0  0  0  0  0  0  0
   28.5398  -19.4474   -7.2765 C   0  0  0  0  0  0  0  0  0  0  0  0
   24.5130  -21.1614  -10.1854 O   0  0  0  0  0  0  0  0  0  0  0  0
  2  1  1  0
  3  2  1  0
  3  4  1  1
  5  7  1  0
  5  3  1  0
  6  5  2  0
  7 11  1  0
  8  9  1  0
  8  7  1  0
  9 10  1  0
 10 11  1  0
 11 12  1  6
 12 21  1  0
 13 12  2  0
 15 14  1  0
 16 15  2  0
 17 16  1  0
 18 24  1  0
 18 17  2  0
 19 18  1  0
 20 22  1  0
 20 21  1  0
 20 19  1  1
 22 23  1  0
 24 25  2  0
 25 15  1  0
 26 22  2  0
M  END
$$$$
