RGE.pdb
     RDKit          3D

 25 24  0  0  1  0  0  0  0  0999 V2000
    7.2745  -12.0523   18.3684 N   0  0  0  0  0  0  0  0  0  0  0  0
    7.6821  -13.2248   17.6616 C   0  0  0  0  0  0  0  0  0  0  0  0
    8.0913  -13.0803   16.4565 N   0  0  0  0  0  0  0  0  0  0  0  0
    7.6158  -14.4678   18.3183 N   0  0  0  0  0  0  0  0  0  0  0  0
    7.0333  -14.5959   19.6201 C   0  0  0  0  0  0  0  0  0  0  0  0
    7.9329  -13.9885   20.6763 C   0  0  0  0  0  0  0  0  0  0  0  0
    7.3101  -14.2529   22.0062 C   0  0  0  0  0  0  0  0  0  0  0  0
    8.2858  -14.9257   22.9069 C   0  0  2  0  0  0  0  0  0  0  0  0
    9.1651  -15.8195   22.2010 N   0  0  0  0  0  0  0  0  0  0  0  0
    7.5231  -15.6608   23.9429 C   0  0  0  0  0  0  0  0  0  0  0  0
    6.7565  -15.1237   24.7729 O   0  0  0  0  0  0  0  0  0  0  0  0
    8.4117  -13.8323   15.8421 N   0  0  0  0  0  0  0  0  0  0  0  0
    7.6607  -17.1011   24.0166 C   0  0  0  0  0  0  0  0  0  0  0  0
    7.0361  -17.7624   25.1286 C   0  0  0  0  0  0  0  0  0  0  0  0
    7.9987  -18.2927   26.0749 O   0  0  0  0  0  0  0  0  0  0  0  0
    7.5624  -19.0183   27.0225 N   0  0  0  0  0  0  0  0  0  0  0  0
    9.3746  -18.0546   26.0084 C   0  0  1  0  0  0  0  0  0  0  0  0
   10.2860  -18.7197   26.9779 C   0  0  0  0  0  0  0  0  0  0  0  0
   11.6922  -18.5322   26.5003 C   0  0  0  0  0  0  0  0  0  0  0  0
   11.8349  -18.8590   25.0568 C   0  0  0  0  0  0  0  0  0  0  0  0
   13.1893  -18.6816   24.5319 O   0  0  0  0  0  0  0  0  0  0  0  0
   13.4086  -18.9912   23.3208 C   0  0  0  0  0  0  0  0  0  0  0  0
   10.0460  -18.0501   28.2791 O   0  0  0  0  0  0  0  0  0  0  0  0
   10.4521  -18.5703   29.5013 O   0  0  0  0  0  0  0  0  0  0  0  0
   14.2857  -18.2028   25.2256 O   0  0  0  0  0  0  0  0  0  0  0  0
  1  2  1  0
  2  3  2  0
  4  2  1  0
  5  4  1  0
  6  5  1  0
  6  7  1  0
  7  8  1  0
  8  9  1  6
 10 12  1  0
 10  8  1  0
 11 10  2  0
 13 14  1  0
 13 12  1  0
 14 16  1  0
 15 14  2  0
 16 17  1  0
 17 22  1  0
 18 19  1  0
 17 18  1  1
 20 24  1  0
 20 19  1  0
 21 20  2  0
 22 25  2  0
 22 23  1  0
M  END
$$$$
