RGE.pdb
     RDKit          3D

 25 24  0  0  1  0  0  0  0  0999 V2000
    7.3421  -14.2793   24.0678 N   0  0  0  0  0  0  0  0  0  0  0  0
    8.2166  -14.9663   23.1713 C   0  0  0  0  0  0  0  0  0  0  0  0
    9.3267  -15.4007   23.6399 N   0  0  0  0  0  0  0  0  0  0  0  0
    7.8185  -15.1312   21.8316 N   0  0  0  0  0  0  0  0  0  0  0  0
    7.4191  -14.0159   21.0272 C   0  0  0  0  0  0  0  0  0  0  0  0
    8.6268  -13.3017   20.4567 C   0  0  0  0  0  0  0  0  0  0  0  0
    8.2757  -12.8518   19.0781 C   0  0  0  0  0  0  0  0  0  0  0  0
    8.9992  -13.6728   18.0688 C   0  0  2  0  0  0  0  0  0  0  0  0
    8.6812  -15.0729   18.1639 N   0  0  0  0  0  0  0  0  0  0  0  0
   10.4528  -13.4580   18.2589 C   0  0  0  0  0  0  0  0  0  0  0  0
   11.0158  -12.3417   18.2145 O   0  0  0  0  0  0  0  0  0  0  0  0
   10.0713  -15.8416   23.0952 N   0  0  0  0  0  0  0  0  0  0  0  0
   11.2978  -14.6067   18.5144 C   0  0  0  0  0  0  0  0  0  0  0  0
   12.6873  -14.3521   18.7761 C   0  0  0  0  0  0  0  0  0  0  0  0
   13.1398  -14.9491   20.0179 O   0  0  0  0  0  0  0  0  0  0  0  0
   14.3733  -14.8543   20.3078 N   0  0  0  0  0  0  0  0  0  0  0  0
   12.3032  -15.6215   20.9136 C   0  0  1  0  0  0  0  0  0  0  0  0
   12.8373  -16.0687   22.2281 C   0  0  0  0  0  0  0  0  0  0  0  0
   11.6842  -16.2350   23.1679 C   0  0  0  0  0  0  0  0  0  0  0  0
   12.1013  -16.8605   24.4508 C   0  0  0  0  0  0  0  0  0  0  0  0
   11.0054  -17.0834   25.3945 O   0  0  0  0  0  0  0  0  0  0  0  0
   10.2248  -16.1150   25.6470 C   0  0  0  0  0  0  0  0  0  0  0  0
   13.5302  -17.3529   21.9641 O   0  0  0  0  0  0  0  0  0  0  0  0
   14.6529  -17.7815   22.6607 O   0  0  0  0  0  0  0  0  0  0  0  0
   10.7178  -18.2611   26.0599 O   0  0  0  0  0  0  0  0  0  0  0  0
  1  2  1  0
  2  3  2  0
  4  2  1  0
  5  4  1  0
  6  5  1  0
  6  7  1  0
  7  8  1  0
  8  9  1  1
 10 12  1  0
 10  8  1  0
 11 10  2  0
 13 14  1  0
 13 12  1  0
 14 16  1  0
 15 14  2  0
 16 17  1  0
 17 22  1  0
 18 19  1  0
 17 18  1  1
 20 24  1  0
 20 19  1  0
 21 20  2  0
 22 25  2  0
 22 23  1  0
M  END
$$$$
