RGE.pdb
     RDKit          3D

 25 24  0  0  1  0  0  0  0  0999 V2000
    8.2622  -12.1549   19.1030 N   0  0  0  0  0  0  0  0  0  0  0  0
    8.3533  -13.4491   18.5053 C   0  0  0  0  0  0  0  0  0  0  0  0
    7.9554  -13.5738   17.2942 N   0  0  0  0  0  0  0  0  0  0  0  0
    8.8718  -14.5117   19.2685 N   0  0  0  0  0  0  0  0  0  0  0  0
    8.7605  -14.5314   20.6960 C   0  0  0  0  0  0  0  0  0  0  0  0
    7.4046  -15.0527   21.1246 C   0  0  0  0  0  0  0  0  0  0  0  0
    7.6002  -15.8469   22.3725 C   0  0  0  0  0  0  0  0  0  0  0  0
    8.0481  -17.2270   22.0393 C   0  0  2  0  0  0  0  0  0  0  0  0
    6.9478  -18.1325   21.8395 N   0  0  0  0  0  0  0  0  0  0  0  0
    8.9189  -17.7051   23.1386 C   0  0  0  0  0  0  0  0  0  0  0  0
    8.5171  -17.9859   24.2896 O   0  0  0  0  0  0  0  0  0  0  0  0
    8.0031  -14.4297   16.7368 N   0  0  0  0  0  0  0  0  0  0  0  0
   10.3360  -17.8646   22.8837 C   0  0  0  0  0  0  0  0  0  0  0  0
   11.1592  -18.2658   23.9907 C   0  0  0  0  0  0  0  0  0  0  0  0
   11.3109  -17.2182   24.9820 O   0  0  0  0  0  0  0  0  0  0  0  0
   12.2215  -16.3517   24.7960 N   0  0  0  0  0  0  0  0  0  0  0  0
   10.5180  -17.1038   26.1276 C   0  0  1  0  0  0  0  0  0  0  0  0
   10.6496  -15.9056   26.9993 C   0  0  0  0  0  0  0  0  0  0  0  0
    9.3849  -15.1118   26.8952 C   0  0  0  0  0  0  0  0  0  0  0  0
    9.4297  -13.8861   27.7356 C   0  0  0  0  0  0  0  0  0  0  0  0
    8.3048  -12.9737   27.5275 O   0  0  0  0  0  0  0  0  0  0  0  0
    7.3190  -13.3835   26.8412 C   0  0  0  0  0  0  0  0  0  0  0  0
   10.8678  -16.4281   28.3698 O   0  0  0  0  0  0  0  0  0  0  0  0
   11.4461  -15.6897   29.3944 O   0  0  0  0  0  0  0  0  0  0  0  0
    8.1927  -11.6811   28.0063 O   0  0  0  0  0  0  0  0  0  0  0  0
  1  2  1  0
  2  3  2  0
  4  2  1  0
  5  4  1  0
  6  5  1  0
  6  7  1  0
  7  8  1  0
  8  9  1  1
 10 12  1  0
 10  8  1  0
 11 10  2  0
 13 14  1  0
 13 12  1  0
 14 16  1  0
 15 14  2  0
 16 17  1  0
 17 22  1  0
 18 19  1  0
 17 18  1  1
 20 24  1  0
 20 19  1  0
 21 20  2  0
 22 25  2  0
 22 23  1  0
M  END
$$$$
