RGE.pdb
     RDKit          3D

 25 24  0  0  1  0  0  0  0  0999 V2000
    8.1993  -12.2563   18.6928 N   0  0  0  0  0  0  0  0  0  0  0  0
    8.9231  -12.9905   19.6814 C   0  0  0  0  0  0  0  0  0  0  0  0
   10.1949  -13.0692   19.5506 N   0  0  0  0  0  0  0  0  0  0  0  0
    8.2104  -13.5838   20.7399 N   0  0  0  0  0  0  0  0  0  0  0  0
    8.2668  -14.9940   20.9820 C   0  0  0  0  0  0  0  0  0  0  0  0
    7.0046  -15.6760   20.4965 C   0  0  0  0  0  0  0  0  0  0  0  0
    7.2341  -16.0973   19.0837 C   0  0  0  0  0  0  0  0  0  0  0  0
    7.7080  -17.5078   19.0377 C   0  0  2  0  0  0  0  0  0  0  0  0
    7.3050  -18.2647   20.1932 N   0  0  0  0  0  0  0  0  0  0  0  0
    9.1848  -17.4923   18.9182 C   0  0  0  0  0  0  0  0  0  0  0  0
    9.8119  -17.0167   17.9458 O   0  0  0  0  0  0  0  0  0  0  0  0
   10.8244  -13.5990   20.1578 N   0  0  0  0  0  0  0  0  0  0  0  0
    9.9750  -18.0623   19.9903 C   0  0  0  0  0  0  0  0  0  0  0  0
   11.4034  -18.0311   19.8388 C   0  0  0  0  0  0  0  0  0  0  0  0
   12.0255  -16.9848   20.6270 O   0  0  0  0  0  0  0  0  0  0  0  0
   11.3900  -15.8943   20.7743 N   0  0  0  0  0  0  0  0  0  0  0  0
   13.2796  -17.1024   21.2334 C   0  0  1  0  0  0  0  0  0  0  0  0
   13.8000  -15.9904   22.0734 C   0  0  0  0  0  0  0  0  0  0  0  0
   14.4277  -16.5837   23.2959 C   0  0  0  0  0  0  0  0  0  0  0  0
   13.4167  -17.2067   24.1907 C   0  0  0  0  0  0  0  0  0  0  0  0
   13.9815  -17.8603   25.3718 O   0  0  0  0  0  0  0  0  0  0  0  0
   15.2427  -17.9827   25.4443 C   0  0  0  0  0  0  0  0  0  0  0  0
   14.7896  -15.2785   21.2291 O   0  0  0  0  0  0  0  0  0  0  0  0
   15.3633  -14.0610   21.5725 O   0  0  0  0  0  0  0  0  0  0  0  0
   13.2770  -18.3736   26.4455 O   0  0  0  0  0  0  0  0  0  0  0  0
  1  2  1  0
  2  3  2  0
  4  2  1  0
  5  4  1  0
  6  5  1  0
  6  7  1  0
  7  8  1  0
  8  9  1  1
 10 12  1  0
 10  8  1  0
 11 10  2  0
 13 14  1  0
 13 12  1  0
 14 16  1  0
 15 14  2  0
 16 17  1  0
 17 22  1  0
 18 19  1  0
 17 18  1  6
 20 24  1  0
 20 19  1  0
 21 20  2  0
 22 25  2  0
 22 23  1  0
M  END
$$$$
