RGE.pdb
     RDKit          3D

 25 24  0  0  1  0  0  0  0  0999 V2000
    5.6087  -20.3712   15.9774 N   0  0  0  0  0  0  0  0  0  0  0  0
    6.5751  -19.6768   15.1873 C   0  0  0  0  0  0  0  0  0  0  0  0
    6.9591  -20.2289   14.0972 N   0  0  0  0  0  0  0  0  0  0  0  0
    7.0516  -18.4326   15.6406 N   0  0  0  0  0  0  0  0  0  0  0  0
    6.6988  -17.9214   16.9308 C   0  0  0  0  0  0  0  0  0  0  0  0
    7.8535  -18.0609   17.9009 C   0  0  0  0  0  0  0  0  0  0  0  0
    7.3820  -17.5874   19.2350 C   0  0  0  0  0  0  0  0  0  0  0  0
    8.3114  -16.5565   19.7733 C   0  0  2  0  0  0  0  0  0  0  0  0
    9.2990  -16.1457   18.8108 N   0  0  0  0  0  0  0  0  0  0  0  0
    8.9653  -17.1133   20.9806 C   0  0  0  0  0  0  0  0  0  0  0  0
    8.3558  -17.4927   22.0051 O   0  0  0  0  0  0  0  0  0  0  0  0
    7.7042  -19.8864   13.4864 N   0  0  0  0  0  0  0  0  0  0  0  0
   10.4088  -17.2349   20.9960 C   0  0  0  0  0  0  0  0  0  0  0  0
   11.0073  -17.7802   22.1827 C   0  0  0  0  0  0  0  0  0  0  0  0
   11.7056  -16.7793   22.9661 O   0  0  0  0  0  0  0  0  0  0  0  0
   12.0544  -15.7054   22.3831 N   0  0  0  0  0  0  0  0  0  0  0  0
   12.0181  -16.9236   24.3210 C   0  0  1  0  0  0  0  0  0  0  0  0
   12.8639  -15.9027   24.9959 C   0  0  0  0  0  0  0  0  0  0  0  0
   12.6943  -16.0602   26.4747 C   0  0  0  0  0  0  0  0  0  0  0  0
   11.3604  -15.5890   26.9324 C   0  0  0  0  0  0  0  0  0  0  0  0
   11.0992  -15.8146   28.3544 O   0  0  0  0  0  0  0  0  0  0  0  0
   11.9352  -16.5029   29.0162 C   0  0  0  0  0  0  0  0  0  0  0  0
   14.2540  -16.1825   24.5619 O   0  0  0  0  0  0  0  0  0  0  0  0
   15.3122  -15.3018   24.7466 O   0  0  0  0  0  0  0  0  0  0  0  0
   10.0150  -15.3505   29.0768 O   0  0  0  0  0  0  0  0  0  0  0  0
  1  2  1  0
  2  3  2  0
  4  2  1  0
  5  4  1  0
  6  5  1  0
  6  7  1  0
  7  8  1  0
  8  9  1  6
 10 12  1  0
 10  8  1  0
 11 10  2  0
 13 14  1  0
 13 12  1  0
 14 16  1  0
 15 14  2  0
 16 17  1  0
 17 22  1  0
 18 19  1  0
 17 18  1  1
 20 24  1  0
 20 19  1  0
 21 20  2  0
 22 25  2  0
 22 23  1  0
M  END
$$$$
