RGE.pdb
     RDKit          3D

 25 24  0  0  1  0  0  0  0  0999 V2000
   10.2796  -12.8705   19.9427 N   0  0  0  0  0  0  0  0  0  0  0  0
    8.9299  -12.5617   19.5914 C   0  0  0  0  0  0  0  0  0  0  0  0
    8.5385  -11.3515   19.7420 N   0  0  0  0  0  0  0  0  0  0  0  0
    8.1059  -13.5918   19.1010 N   0  0  0  0  0  0  0  0  0  0  0  0
    7.7841  -14.7363   19.8990 C   0  0  0  0  0  0  0  0  0  0  0  0
    6.2842  -14.9237   19.9941 C   0  0  0  0  0  0  0  0  0  0  0  0
    6.0005  -15.6595   21.2608 C   0  0  0  0  0  0  0  0  0  0  0  0
    7.1155  -16.5950   21.5733 C   0  0  2  0  0  0  0  0  0  0  0  0
    7.0023  -17.8451   20.8697 N   0  0  0  0  0  0  0  0  0  0  0  0
    7.1262  -16.8240   23.0372 C   0  0  0  0  0  0  0  0  0  0  0  0
    7.2547  -15.9219   23.8943 O   0  0  0  0  0  0  0  0  0  0  0  0
    7.6295  -10.9797   19.4575 N   0  0  0  0  0  0  0  0  0  0  0  0
    6.9795  -18.1783   23.5301 C   0  0  0  0  0  0  0  0  0  0  0  0
    7.0413  -18.3674   24.9529 C   0  0  0  0  0  0  0  0  0  0  0  0
    8.3987  -18.3322   25.4622 O   0  0  0  0  0  0  0  0  0  0  0  0
    9.3448  -18.2047   24.6236 N   0  0  0  0  0  0  0  0  0  0  0  0
    8.7292  -18.4301   26.8170 C   0  0  1  0  0  0  0  0  0  0  0  0
    9.9570  -17.7626   27.3269 C   0  0  0  0  0  0  0  0  0  0  0  0
    9.5549  -16.4674   27.9604 C   0  0  0  0  0  0  0  0  0  0  0  0
   10.7249  -15.7337   28.5113 C   0  0  0  0  0  0  0  0  0  0  0  0
   10.3999  -14.4251   29.0798 O   0  0  0  0  0  0  0  0  0  0  0  0
   10.7819  -14.1738   30.2638 C   0  0  0  0  0  0  0  0  0  0  0  0
   10.5469  -18.7035   28.3096 O   0  0  0  0  0  0  0  0  0  0  0  0
    9.8876  -19.8251   28.7962 O   0  0  0  0  0  0  0  0  0  0  0  0
    9.7045  -13.4054   28.4561 O   0  0  0  0  0  0  0  0  0  0  0  0
  1  2  1  0
  2  3  2  0
  4  2  1  0
  5  4  1  0
  6  5  1  0
  6  7  1  0
  7  8  1  0
  8  9  1  6
 10 12  1  0
 10  8  1  0
 11 10  2  0
 13 14  1  0
 13 12  1  0
 14 16  1  0
 15 14  2  0
 16 17  1  0
 17 22  1  0
 18 19  1  0
 17 18  1  1
 20 24  1  0
 20 19  1  0
 21 20  2  0
 22 25  2  0
 22 23  1  0
M  END
$$$$
