RGE.pdb
     RDKit          3D

 25 24  0  0  1  0  0  0  0  0999 V2000
    7.8975  -13.7957   15.8969 N   0  0  0  0  0  0  0  0  0  0  0  0
    8.7073  -13.4293   17.0151 C   0  0  0  0  0  0  0  0  0  0  0  0
    9.9723  -13.6040   16.9155 N   0  0  0  0  0  0  0  0  0  0  0  0
    8.0815  -12.8987   18.1585 N   0  0  0  0  0  0  0  0  0  0  0  0
    7.0558  -13.6181   18.8517 C   0  0  0  0  0  0  0  0  0  0  0  0
    7.3014  -15.1110   18.7810 C   0  0  0  0  0  0  0  0  0  0  0  0
    7.0964  -15.6676   20.1500 C   0  0  0  0  0  0  0  0  0  0  0  0
    8.4092  -15.9116   20.8083 C   0  0  2  0  0  0  0  0  0  0  0  0
    8.8354  -17.2818   20.7014 N   0  0  0  0  0  0  0  0  0  0  0  0
    8.2899  -15.5161   22.2313 C   0  0  0  0  0  0  0  0  0  0  0  0
    7.6918  -14.4941   22.6347 O   0  0  0  0  0  0  0  0  0  0  0  0
   10.6662  -13.3488   17.6219 N   0  0  0  0  0  0  0  0  0  0  0  0
    8.9011  -16.3570   23.2402 C   0  0  0  0  0  0  0  0  0  0  0  0
    8.5043  -16.1378   24.6034 C   0  0  0  0  0  0  0  0  0  0  0  0
    9.0927  -17.0979   25.5173 O   0  0  0  0  0  0  0  0  0  0  0  0
    9.6892  -18.1034   25.0196 N   0  0  0  0  0  0  0  0  0  0  0  0
    9.0437  -16.9848   26.9098 C   0  0  1  0  0  0  0  0  0  0  0  0
    9.7424  -17.9887   27.7565 C   0  0  0  0  0  0  0  0  0  0  0  0
    9.8125  -17.4535   29.1527 C   0  0  0  0  0  0  0  0  0  0  0  0
   10.4822  -18.4057   30.0777 C   0  0  0  0  0  0  0  0  0  0  0  0
   11.3746  -17.7722   31.0490 O   0  0  0  0  0  0  0  0  0  0  0  0
   11.3833  -16.5050   31.1184 C   0  0  0  0  0  0  0  0  0  0  0  0
    8.9244  -19.2228   27.6737 O   0  0  0  0  0  0  0  0  0  0  0  0
    9.4452  -20.5041   27.8031 O   0  0  0  0  0  0  0  0  0  0  0  0
   12.2325  -18.4160   31.9221 O   0  0  0  0  0  0  0  0  0  0  0  0
  1  2  1  0
  2  3  2  0
  4  2  1  0
  5  4  1  0
  6  5  1  0
  6  7  1  0
  7  8  1  0
  8  9  1  1
 10 12  1  0
 10  8  1  0
 11 10  2  0
 13 14  1  0
 13 12  1  0
 14 16  1  0
 15 14  2  0
 16 17  1  0
 17 22  1  0
 18 19  1  0
 17 18  1  1
 20 24  1  0
 20 19  1  0
 21 20  2  0
 22 25  2  0
 22 23  1  0
M  END
$$$$
