RGE.pdb
     RDKit          3D

 25 24  0  0  1  0  0  0  0  0999 V2000
    8.2801  -13.0826   17.8402 N   0  0  0  0  0  0  0  0  0  0  0  0
    8.5489  -12.7222   19.1960 C   0  0  0  0  0  0  0  0  0  0  0  0
    9.1415  -11.6067   19.4083 N   0  0  0  0  0  0  0  0  0  0  0  0
    8.1522  -13.6012   20.2210 N   0  0  0  0  0  0  0  0  0  0  0  0
    7.6458  -14.9088   19.9308 C   0  0  0  0  0  0  0  0  0  0  0  0
    6.4047  -15.2007   20.7483 C   0  0  0  0  0  0  0  0  0  0  0  0
    6.8470  -15.5673   22.1253 C   0  0  0  0  0  0  0  0  0  0  0  0
    7.7857  -16.7216   22.0742 C   0  0  2  0  0  0  0  0  0  0  0  0
    7.2295  -17.8569   21.3870 N   0  0  0  0  0  0  0  0  0  0  0  0
    8.1446  -17.0835   23.4655 C   0  0  0  0  0  0  0  0  0  0  0  0
    7.3163  -17.3477   24.3650 O   0  0  0  0  0  0  0  0  0  0  0  0
    9.4625  -11.2663   20.3175 N   0  0  0  0  0  0  0  0  0  0  0  0
    9.5456  -17.1407   23.8296 C   0  0  0  0  0  0  0  0  0  0  0  0
   10.1135  -15.9672   24.4335 C   0  0  0  0  0  0  0  0  0  0  0  0
   11.4749  -16.1764   24.8875 O   0  0  0  0  0  0  0  0  0  0  0  0
   11.9298  -17.3628   24.8745 N   0  0  0  0  0  0  0  0  0  0  0  0
   12.3156  -15.1543   25.3378 C   0  0  2  0  0  0  0  0  0  0  0  0
   13.0720  -15.3268   26.6071 C   0  0  0  0  0  0  0  0  0  0  0  0
   12.0893  -15.3522   27.7359 C   0  0  0  0  0  0  0  0  0  0  0  0
   11.2356  -14.1349   27.7544 C   0  0  0  0  0  0  0  0  0  0  0  0
    9.8386  -14.3865   28.1097 O   0  0  0  0  0  0  0  0  0  0  0  0
    9.5269  -15.5396   28.5387 C   0  0  0  0  0  0  0  0  0  0  0  0
   13.7969  -16.6132   26.4709 O   0  0  0  0  0  0  0  0  0  0  0  0
   14.4673  -17.0031   25.3185 O   0  0  0  0  0  0  0  0  0  0  0  0
    8.7924  -13.4857   28.0277 O   0  0  0  0  0  0  0  0  0  0  0  0
  1  2  1  0
  2  3  2  0
  4  2  1  0
  5  4  1  0
  6  5  1  0
  6  7  1  0
  7  8  1  0
  8  9  1  1
 10 12  1  0
 10  8  1  0
 11 10  2  0
 13 14  1  0
 13 12  1  0
 14 16  1  0
 15 14  2  0
 16 17  1  0
 17 22  1  0
 18 19  1  0
 17 18  1  6
 20 24  1  0
 20 19  1  0
 21 20  2  0
 22 25  2  0
 22 23  1  0
M  END
$$$$
