CNE.pdb
     RDKit          3D

 24 23  0  0  1  0  0  0  0  0999 V2000
   19.7056  -11.4731  -15.6603 N   0  0  0  0  0  0  0  0  0  0  0  0
   19.4704  -10.2875  -16.4324 C   0  0  1  0  0  0  0  0  0  0  0  0
   18.0725  -10.3572  -17.0174 C   0  0  0  0  0  0  0  0  0  0  0  0
   18.0368  -11.7472  -18.1822 S   0  0  0  0  0  0  0  0  0  0  0  0
   19.6235   -9.0495  -15.5952 C   0  0  0  0  0  0  0  0  0  0  0  0
   18.8362   -8.8730  -14.6474 O   0  0  0  0  0  0  0  0  0  0  0  0
   20.8239   -4.8174  -13.5671 N   0  0  0  0  0  0  0  0  0  0  0  0
   21.9389   -5.6612  -13.4199 C   0  0  0  0  0  0  0  0  0  0  0  0
   22.8525   -5.3214  -12.6272 O   0  0  0  0  0  0  0  0  0  0  0  0
   21.9868   -6.9317  -14.2181 C   0  0  0  0  0  0  0  0  0  0  0  0
   20.8034   -6.9203  -15.1213 C   0  0  2  0  0  0  0  0  0  0  0  0
   20.6307   -8.1149  -15.8760 N   0  0  0  0  0  0  0  0  0  0  0  0
   20.8384   -5.6742  -15.9610 C   0  0  0  0  0  0  0  0  0  0  0  0
   21.6971   -5.5067  -16.8829 O   0  0  0  0  0  0  0  0  0  0  0  0
   19.8662   -4.6792  -15.6853 N   0  0  0  0  0  0  0  0  0  0  0  0
   19.7196   -3.5734  -16.6103 C   0  0  1  0  0  0  0  0  0  0  0  0
   18.3204   -3.0708  -16.7028 C   0  0  0  0  0  0  0  0  0  0  0  0
   18.0837   -1.9428  -17.6406 C   0  0  0  0  0  0  0  0  0  0  0  0
   16.6814   -1.4613  -17.6713 C   0  0  0  0  0  0  0  0  0  0  0  0
   15.7980   -1.9849  -16.9323 O   0  0  0  0  0  0  0  0  0  0  0  0
   20.5507   -2.4310  -16.0876 C   0  0  0  0  0  0  0  0  0  0  0  0
   21.1028   -1.4737  -16.9265 O   0  0  0  0  0  0  0  0  0  0  0  0
   16.3352   -0.4291  -18.5153 O   0  0  0  0  0  0  0  0  0  0  0  0
   20.7746   -2.3053  -14.8577 O   0  0  0  0  0  0  0  0  0  0  0  0
  2  1  1  1
  3  2  1  0
  4  3  1  0
  5  2  1  0
  6  5  2  0
  7  8  1  0
  8 10  1  0
  9  8  2  0
 11 10  1  6
 11 13  1  0
 11 12  1  0
 12  5  1  0
 13 15  1  0
 14 13  2  0
 15 16  1  0
 16 17  1  1
 16 21  1  0
 18 17  1  0
 19 18  1  0
 20 19  2  0
 21 24  2  0
 21 22  1  0
 23 19  1  0
M  END
$$$$
