CNE.pdb
     RDKit          3D

 24 23  0  0  1  0  0  0  0  0999 V2000
   19.2219  -11.8366  -15.3048 N   0  0  0  0  0  0  0  0  0  0  0  0
   19.2526  -10.7012  -16.1807 C   0  0  1  0  0  0  0  0  0  0  0  0
   17.9899  -10.7010  -17.0213 C   0  0  0  0  0  0  0  0  0  0  0  0
   18.1435  -12.0377  -18.2377 S   0  0  0  0  0  0  0  0  0  0  0  0
   19.3647   -9.4172  -15.4089 C   0  0  0  0  0  0  0  0  0  0  0  0
   18.4123   -9.0752  -14.6842 O   0  0  0  0  0  0  0  0  0  0  0  0
   20.7427   -5.0491  -13.6225 N   0  0  0  0  0  0  0  0  0  0  0  0
   21.8663   -5.8689  -13.4169 C   0  0  0  0  0  0  0  0  0  0  0  0
   22.7470   -5.4929  -12.6036 O   0  0  0  0  0  0  0  0  0  0  0  0
   21.9624   -7.1582  -14.1797 C   0  0  0  0  0  0  0  0  0  0  0  0
   20.6442   -7.3708  -14.8381 C   0  0  2  0  0  0  0  0  0  0  0  0
   20.5166   -8.6227  -15.5035 N   0  0  0  0  0  0  0  0  0  0  0  0
   20.3347   -6.1874  -15.7115 C   0  0  0  0  0  0  0  0  0  0  0  0
   20.9550   -5.9726  -16.7998 O   0  0  0  0  0  0  0  0  0  0  0  0
   19.3124   -5.3078  -15.2731 N   0  0  0  0  0  0  0  0  0  0  0  0
   18.8476   -4.2747  -16.1768 C   0  0  1  0  0  0  0  0  0  0  0  0
   17.4002   -3.9628  -16.0126 C   0  0  0  0  0  0  0  0  0  0  0  0
   16.8585   -2.8715  -16.8631 C   0  0  0  0  0  0  0  0  0  0  0  0
   15.3779   -2.7882  -16.8757 C   0  0  0  0  0  0  0  0  0  0  0  0
   14.6755   -3.5987  -16.2046 O   0  0  0  0  0  0  0  0  0  0  0  0
   19.5975   -3.0109  -15.8458 C   0  0  0  0  0  0  0  0  0  0  0  0
   19.8422   -2.0266  -16.7925 O   0  0  0  0  0  0  0  0  0  0  0  0
   14.7579   -1.8147  -17.6277 O   0  0  0  0  0  0  0  0  0  0  0  0
   20.0325   -2.8034  -14.6854 O   0  0  0  0  0  0  0  0  0  0  0  0
  2  1  1  1
  3  2  1  0
  4  3  1  0
  5  2  1  0
  6  5  2  0
  7  8  1  0
  8 10  1  0
  9  8  2  0
 11 10  1  6
 11 13  1  0
 11 12  1  0
 12  5  1  0
 13 15  1  0
 14 13  2  0
 15 16  1  0
 16 17  1  1
 16 21  1  0
 18 17  1  0
 19 18  1  0
 20 19  2  0
 21 24  2  0
 21 22  1  0
 23 19  1  0
M  END
$$$$
