CNE.pdb
     RDKit          3D

 24 23  0  0  1  0  0  0  0  0999 V2000
   19.7603  -11.6228  -15.5953 N   0  0  0  0  0  0  0  0  0  0  0  0
   20.0154  -10.5085  -16.4616 C   0  0  1  0  0  0  0  0  0  0  0  0
   18.9292  -10.4559  -17.5193 C   0  0  0  0  0  0  0  0  0  0  0  0
   19.3405  -11.6872  -18.7860 S   0  0  0  0  0  0  0  0  0  0  0  0
   20.0587   -9.2174  -15.6948 C   0  0  0  0  0  0  0  0  0  0  0  0
   19.1099   -8.9455  -14.9365 O   0  0  0  0  0  0  0  0  0  0  0  0
   21.8918   -5.5495  -12.4503 N   0  0  0  0  0  0  0  0  0  0  0  0
   22.3919   -5.5214  -13.7641 C   0  0  0  0  0  0  0  0  0  0  0  0
   22.7043   -4.4135  -14.2674 O   0  0  0  0  0  0  0  0  0  0  0  0
   22.5299   -6.8188  -14.5066 C   0  0  0  0  0  0  0  0  0  0  0  0
   21.2145   -7.0925  -15.1478 C   0  0  2  0  0  0  0  0  0  0  0  0
   21.1437   -8.3394  -15.8309 N   0  0  0  0  0  0  0  0  0  0  0  0
   20.8277   -5.9146  -15.9975 C   0  0  0  0  0  0  0  0  0  0  0  0
   21.3938   -5.6705  -17.1089 O   0  0  0  0  0  0  0  0  0  0  0  0
   19.7946   -5.0747  -15.5094 N   0  0  0  0  0  0  0  0  0  0  0  0
   19.2709   -4.0387  -16.3769 C   0  0  1  0  0  0  0  0  0  0  0  0
   17.8235   -4.2105  -16.6843 C   0  0  0  0  0  0  0  0  0  0  0  0
   17.1817   -3.1263  -17.4718 C   0  0  0  0  0  0  0  0  0  0  0  0
   15.7389   -3.3411  -17.7392 C   0  0  0  0  0  0  0  0  0  0  0  0
   14.9997   -2.3880  -18.1213 O   0  0  0  0  0  0  0  0  0  0  0  0
   19.4003   -2.7273  -15.6472 C   0  0  0  0  0  0  0  0  0  0  0  0
   19.5548   -1.5212  -16.3155 O   0  0  0  0  0  0  0  0  0  0  0  0
   15.1952   -4.5954  -17.5701 O   0  0  0  0  0  0  0  0  0  0  0  0
   19.3724   -2.6813  -14.3919 O   0  0  0  0  0  0  0  0  0  0  0  0
  2  1  1  1
  3  2  1  0
  4  3  1  0
  5  2  1  0
  6  5  2  0
  7  8  1  0
  8 10  1  0
  9  8  2  0
 11 10  1  6
 11 13  1  0
 11 12  1  0
 12  5  1  0
 13 15  1  0
 14 13  2  0
 15 16  1  0
 16 17  1  1
 16 21  1  0
 18 17  1  0
 19 18  1  0
 20 19  2  0
 21 24  2  0
 21 22  1  0
 23 19  1  0
M  END
$$$$
