CNE.pdb
     RDKit          3D

 24 23  0  0  1  0  0  0  0  0999 V2000
   27.0278  -21.1887  -11.1176 N   0  0  0  0  0  0  0  0  0  0  0  0
   25.8710  -21.1768  -11.9654 C   0  0  1  0  0  0  0  0  0  0  0  0
   24.7718  -20.3896  -11.2775 C   0  0  0  0  0  0  0  0  0  0  0  0
   24.2688  -21.3248   -9.8069 S   0  0  0  0  0  0  0  0  0  0  0  0
   26.1813  -20.5753  -13.3066 C   0  0  0  0  0  0  0  0  0  0  0  0
   26.3560  -19.3451  -13.3791 O   0  0  0  0  0  0  0  0  0  0  0  0
   27.8408  -23.7825  -15.7710 N   0  0  0  0  0  0  0  0  0  0  0  0
   27.2559  -22.8932  -16.6897 C   0  0  0  0  0  0  0  0  0  0  0  0
   26.5217  -23.3588  -17.5966 O   0  0  0  0  0  0  0  0  0  0  0  0
   27.5361  -21.4256  -16.5445 C   0  0  0  0  0  0  0  0  0  0  0  0
   26.4108  -20.8456  -15.7611 C   0  0  2  0  0  0  0  0  0  0  0  0
   26.2717  -21.3823  -14.4500 N   0  0  0  0  0  0  0  0  0  0  0  0
   25.1531  -20.9178  -16.5807 C   0  0  0  0  0  0  0  0  0  0  0  0
   24.6088  -22.0256  -16.8837 O   0  0  0  0  0  0  0  0  0  0  0  0
   24.5871  -19.6901  -17.0091 N   0  0  0  0  0  0  0  0  0  0  0  0
   23.1807  -19.6551  -17.3566 C   0  0  1  0  0  0  0  0  0  0  0  0
   22.2835  -19.7553  -16.1718 C   0  0  0  0  0  0  0  0  0  0  0  0
   20.8235  -19.7683  -16.4473 C   0  0  0  0  0  0  0  0  0  0  0  0
   19.9749  -19.7679  -15.2310 C   0  0  0  0  0  0  0  0  0  0  0  0
   20.4861  -19.6305  -14.0818 O   0  0  0  0  0  0  0  0  0  0  0  0
   22.9030  -18.3176  -17.9914 C   0  0  0  0  0  0  0  0  0  0  0  0
   21.7877  -18.0930  -18.7855 O   0  0  0  0  0  0  0  0  0  0  0  0
   18.6111  -19.9184  -15.3532 O   0  0  0  0  0  0  0  0  0  0  0  0
   23.6829  -17.3474  -17.8204 O   0  0  0  0  0  0  0  0  0  0  0  0
  2  1  1  1
  3  2  1  0
  4  3  1  0
  5  2  1  0
  6  5  2  0
  7  8  1  0
  8 10  1  0
  9  8  2  0
 11 10  1  6
 11 13  1  0
 11 12  1  0
 12  5  1  0
 13 15  1  0
 14 13  2  0
 15 16  1  0
 16 17  1  1
 16 21  1  0
 18 17  1  0
 19 18  1  0
 20 19  2  0
 21 24  2  0
 21 22  1  0
 23 19  1  0
M  END
$$$$
