CNE.pdb
     RDKit          3D

 24 23  0  0  1  0  0  0  0  0999 V2000
   20.6735  -12.0162  -16.7054 N   0  0  0  0  0  0  0  0  0  0  0  0
   21.5106  -10.9355  -17.1399 C   0  0  1  0  0  0  0  0  0  0  0  0
   21.4200  -10.8269  -18.6502 C   0  0  0  0  0  0  0  0  0  0  0  0
   22.2189  -12.2963  -19.3522 S   0  0  0  0  0  0  0  0  0  0  0  0
   21.1065   -9.6382  -16.4992 C   0  0  0  0  0  0  0  0  0  0  0  0
   19.9062   -9.3100  -16.5293 O   0  0  0  0  0  0  0  0  0  0  0  0
   20.9046   -5.3170  -14.2188 N   0  0  0  0  0  0  0  0  0  0  0  0
   22.0708   -5.8625  -13.6539 C   0  0  0  0  0  0  0  0  0  0  0  0
   22.5333   -5.3450  -12.6067 O   0  0  0  0  0  0  0  0  0  0  0  0
   22.7111   -7.0405  -14.3290 C   0  0  0  0  0  0  0  0  0  0  0  0
   21.7414   -7.5380  -15.3431 C   0  0  2  0  0  0  0  0  0  0  0  0
   22.0605   -8.8166  -15.8815 N   0  0  0  0  0  0  0  0  0  0  0  0
   21.5346   -6.4767  -16.3871 C   0  0  0  0  0  0  0  0  0  0  0  0
   22.3944   -6.2476  -17.2947 O   0  0  0  0  0  0  0  0  0  0  0  0
   20.3304   -5.7306  -16.3235 N   0  0  0  0  0  0  0  0  0  0  0  0
   20.0603   -4.7542  -17.3597 C   0  0  1  0  0  0  0  0  0  0  0  0
   18.6444   -4.7698  -17.8224 C   0  0  0  0  0  0  0  0  0  0  0  0
   18.3041   -3.8522  -18.9404 C   0  0  0  0  0  0  0  0  0  0  0  0
   16.8772   -3.8868  -19.3429 C   0  0  0  0  0  0  0  0  0  0  0  0
   16.0454   -4.6138  -18.7263 O   0  0  0  0  0  0  0  0  0  0  0  0
   20.3028   -3.3889  -16.7714 C   0  0  0  0  0  0  0  0  0  0  0  0
   20.9231   -2.3748  -17.4868 O   0  0  0  0  0  0  0  0  0  0  0  0
   16.4505   -3.1165  -20.4022 O   0  0  0  0  0  0  0  0  0  0  0  0
   19.9467   -3.1194  -15.5970 O   0  0  0  0  0  0  0  0  0  0  0  0
  2  1  1  1
  3  2  1  0
  4  3  1  0
  5  2  1  0
  6  5  2  0
  7  8  1  0
  8 10  1  0
  9  8  2  0
 11 10  1  1
 11 13  1  0
 11 12  1  0
 12  5  1  0
 13 15  1  0
 14 13  2  0
 15 16  1  0
 16 17  1  1
 16 21  1  0
 18 17  1  0
 19 18  1  0
 20 19  2  0
 21 24  2  0
 21 22  1  0
 23 19  1  0
M  END
$$$$
