CNE.pdb
     RDKit          3D

 24 23  0  0  1  0  0  0  0  0999 V2000
   25.3457  -32.8490  -10.2309 N   0  0  0  0  0  0  0  0  0  0  0  0
   24.8609  -32.8619   -8.8811 C   0  0  1  0  0  0  0  0  0  0  0  0
   23.4642  -33.4536   -8.8714 C   0  0  0  0  0  0  0  0  0  0  0  0
   22.6837  -33.0369  -10.4548 S   0  0  0  0  0  0  0  0  0  0  0  0
   25.7678  -33.6523   -7.9812 C   0  0  0  0  0  0  0  0  0  0  0  0
   26.9651  -33.7697   -8.3002 O   0  0  0  0  0  0  0  0  0  0  0  0
   28.2071  -33.0956   -3.9197 N   0  0  0  0  0  0  0  0  0  0  0  0
   26.8782  -32.6385   -3.8749 C   0  0  0  0  0  0  0  0  0  0  0  0
   26.4113  -32.2470   -2.7763 O   0  0  0  0  0  0  0  0  0  0  0  0
   26.0766  -32.6393   -5.1442 C   0  0  0  0  0  0  0  0  0  0  0  0
   25.8919  -34.0629   -5.5386 C   0  0  2  0  0  0  0  0  0  0  0  0
   25.2754  -34.2439   -6.8088 N   0  0  0  0  0  0  0  0  0  0  0  0
   25.2032  -34.7965   -4.4221 C   0  0  0  0  0  0  0  0  0  0  0  0
   23.9544  -34.6869   -4.2132 O   0  0  0  0  0  0  0  0  0  0  0  0
   26.0064  -35.6268   -3.5995 N   0  0  0  0  0  0  0  0  0  0  0  0
   25.3555  -36.4904   -2.6349 C   0  0  1  0  0  0  0  0  0  0  0  0
   26.2847  -37.4725   -2.0094 C   0  0  0  0  0  0  0  0  0  0  0  0
   25.6591  -38.5625   -1.2168 C   0  0  0  0  0  0  0  0  0  0  0  0
   26.6293  -39.4908   -0.5874 C   0  0  0  0  0  0  0  0  0  0  0  0
   26.2344  -40.4592    0.1247 O   0  0  0  0  0  0  0  0  0  0  0  0
   24.8409  -35.6185   -1.5195 C   0  0  0  0  0  0  0  0  0  0  0  0
   25.0967  -34.2558   -1.4679 O   0  0  0  0  0  0  0  0  0  0  0  0
   27.9794  -39.2972   -0.7806 O   0  0  0  0  0  0  0  0  0  0  0  0
   24.1535  -36.1030   -0.5860 O   0  0  0  0  0  0  0  0  0  0  0  0
  2  1  1  6
  3  2  1  0
  4  3  1  0
  5  2  1  0
  6  5  2  0
  7  8  1  0
  8 10  1  0
  9  8  2  0
 11 10  1  1
 11 13  1  0
 11 12  1  0
 12  5  1  0
 13 15  1  0
 14 13  2  0
 15 16  1  0
 16 17  1  1
 16 21  1  0
 18 17  1  0
 19 18  1  0
 20 19  2  0
 21 24  2  0
 21 22  1  0
 23 19  1  0
M  END
$$$$
