CNE.pdb
     RDKit          3D

 24 23  0  0  1  0  0  0  0  0999 V2000
   13.2672  -14.4995  -13.3951 N   0  0  0  0  0  0  0  0  0  0  0  0
   13.4804  -13.2849  -14.1277 C   0  0  1  0  0  0  0  0  0  0  0  0
   12.6717  -12.1774  -13.4793 C   0  0  0  0  0  0  0  0  0  0  0  0
   10.9172  -12.5752  -13.7108 S   0  0  0  0  0  0  0  0  0  0  0  0
   14.9360  -12.9149  -14.1626 C   0  0  0  0  0  0  0  0  0  0  0  0
   15.5609  -12.8622  -13.0875 O   0  0  0  0  0  0  0  0  0  0  0  0
   19.9628  -12.9356  -14.9246 N   0  0  0  0  0  0  0  0  0  0  0  0
   19.2125  -12.7859  -16.1042 C   0  0  0  0  0  0  0  0  0  0  0  0
   19.7466  -12.2219  -17.0917 O   0  0  0  0  0  0  0  0  0  0  0  0
   17.8052  -13.3076  -16.1298 C   0  0  0  0  0  0  0  0  0  0  0  0
   16.9526  -12.2861  -15.4620 C   0  0  2  0  0  0  0  0  0  0  0  0
   15.5752  -12.6357  -15.3793 N   0  0  0  0  0  0  0  0  0  0  0  0
   17.1997  -10.9475  -16.0993 C   0  0  0  0  0  0  0  0  0  0  0  0
   16.6454  -10.6086  -17.1916 O   0  0  0  0  0  0  0  0  0  0  0  0
   18.0840  -10.0640  -15.4297 N   0  0  0  0  0  0  0  0  0  0  0  0
   18.2920   -8.7387  -15.9777 C   0  0  1  0  0  0  0  0  0  0  0  0
   17.5470   -7.6789  -15.2422 C   0  0  0  0  0  0  0  0  0  0  0  0
   17.7150   -6.2881  -15.7372 C   0  0  0  0  0  0  0  0  0  0  0  0
   16.9753   -5.2698  -14.9529 C   0  0  0  0  0  0  0  0  0  0  0  0
   16.9958   -4.0500  -15.2882 O   0  0  0  0  0  0  0  0  0  0  0  0
   19.7552   -8.4118  -15.8326 C   0  0  0  0  0  0  0  0  0  0  0  0
   20.3576   -7.3845  -16.5443 O   0  0  0  0  0  0  0  0  0  0  0  0
   16.2550   -5.6566  -13.8442 O   0  0  0  0  0  0  0  0  0  0  0  0
   20.4890   -9.0678  -15.0515 O   0  0  0  0  0  0  0  0  0  0  0  0
  2  1  1  1
  3  2  1  0
  4  3  1  0
  5  2  1  0
  6  5  2  0
  7  8  1  0
  8 10  1  0
  9  8  2  0
 11 10  1  6
 11 13  1  0
 11 12  1  0
 12  5  1  0
 13 15  1  0
 14 13  2  0
 15 16  1  0
 16 17  1  1
 16 21  1  0
 18 17  1  0
 19 18  1  0
 20 19  2  0
 21 24  2  0
 21 22  1  0
 23 19  1  0
M  END
$$$$
