CNE.pdb
     RDKit          3D

 24 23  0  0  1  0  0  0  0  0999 V2000
   25.5816  -10.9797  -17.9068 N   0  0  0  0  0  0  0  0  0  0  0  0
   24.9898  -11.0899  -16.6049 C   0  0  1  0  0  0  0  0  0  0  0  0
   25.8333  -10.3040  -15.6190 C   0  0  0  0  0  0  0  0  0  0  0  0
   27.3895  -11.2072  -15.3904 S   0  0  0  0  0  0  0  0  0  0  0  0
   23.5759  -10.5821  -16.6015 C   0  0  0  0  0  0  0  0  0  0  0  0
   23.2910   -9.6146  -17.3309 O   0  0  0  0  0  0  0  0  0  0  0  0
   20.7187  -12.1774  -17.9347 N   0  0  0  0  0  0  0  0  0  0  0  0
   20.0792  -12.6340  -16.7687 C   0  0  0  0  0  0  0  0  0  0  0  0
   19.3760  -13.6730  -16.8335 O   0  0  0  0  0  0  0  0  0  0  0  0
   20.2663  -11.8576  -15.4976 C   0  0  0  0  0  0  0  0  0  0  0  0
   21.2386  -10.7699  -15.7939 C   0  0  2  0  0  0  0  0  0  0  0  0
   22.6002  -11.1850  -15.7944 N   0  0  0  0  0  0  0  0  0  0  0  0
   20.9623   -9.6035  -14.8871 C   0  0  0  0  0  0  0  0  0  0  0  0
   21.4331   -9.5401  -13.7083 O   0  0  0  0  0  0  0  0  0  0  0  0
   20.1476   -8.5623  -15.4001 N   0  0  0  0  0  0  0  0  0  0  0  0
   20.0050   -7.3446  -14.6275 C   0  0  1  0  0  0  0  0  0  0  0  0
   21.1672   -6.4235  -14.7688 C   0  0  0  0  0  0  0  0  0  0  0  0
   21.1017   -5.1538  -14.0000 C   0  0  0  0  0  0  0  0  0  0  0  0
   22.2687   -4.2607  -14.2000 C   0  0  0  0  0  0  0  0  0  0  0  0
   22.1250   -3.0047  -14.2497 O   0  0  0  0  0  0  0  0  0  0  0  0
   18.8062   -6.6056  -15.1620 C   0  0  0  0  0  0  0  0  0  0  0  0
   18.1164   -5.6695  -14.4050 O   0  0  0  0  0  0  0  0  0  0  0  0
   23.5270   -4.8054  -14.3329 O   0  0  0  0  0  0  0  0  0  0  0  0
   18.3852   -6.8151  -16.3271 O   0  0  0  0  0  0  0  0  0  0  0  0
  2  1  1  6
  3  2  1  0
  4  3  1  0
  5  2  1  0
  6  5  2  0
  7  8  1  0
  8 10  1  0
  9  8  2  0
 11 10  1  1
 11 13  1  0
 11 12  1  0
 12  5  1  0
 13 15  1  0
 14 13  2  0
 15 16  1  0
 16 17  1  6
 16 21  1  0
 18 17  1  0
 19 18  1  0
 20 19  2  0
 21 24  2  0
 21 22  1  0
 23 19  1  0
M  END
$$$$
