CDW.pdb
     RDKit          3D

 29 30  0  0  1  0  0  0  0  0999 V2000
   27.0530  -16.9542  -17.4077 N   0  0  0  0  0  0  0  0  0  0  0  0
   26.8471  -17.7581  -16.2470 C   0  0  1  0  0  0  0  0  0  0  0  0
   26.0119  -17.0826  -15.1827 C   0  0  0  0  0  0  0  0  0  0  0  0
   26.8817  -15.5603  -14.6943 S   0  0  0  0  0  0  0  0  0  0  0  0
   26.3368  -19.1168  -16.5694 C   0  0  0  0  0  0  0  0  0  0  0  0
   25.3952  -19.2158  -17.3864 O   0  0  0  0  0  0  0  0  0  0  0  0
   26.8831  -20.2861  -15.9840 N   0  0  0  0  0  0  0  0  0  0  0  0
   26.4259  -21.6303  -16.2404 C   0  0  1  0  0  0  0  0  0  0  0  0
   27.5583  -22.6297  -16.1154 C   0  0  0  0  0  0  0  0  0  0  0  0
   28.7050  -22.2923  -16.9664 C   0  0  0  0  0  0  0  0  0  0  0  0
   28.4589  -21.9033  -18.1485 O   0  0  0  0  0  0  0  0  0  0  0  0
   25.3787  -22.0432  -15.2663 C   0  0  0  0  0  0  0  0  0  0  0  0
   24.7162  -23.1018  -15.3997 O   0  0  0  0  0  0  0  0  0  0  0  0
   30.0416  -22.3557  -16.6044 O   0  0  0  0  0  0  0  0  0  0  0  0
   25.0635  -21.2570  -14.1185 N   0  0  0  0  0  0  0  0  0  0  0  0
   24.0376  -21.6274  -13.1476 C   0  0  1  0  0  0  0  0  0  0  0  0
   24.6775  -22.3254  -11.9540 C   0  0  0  0  0  0  0  0  0  0  0  0
   25.5695  -21.3547  -11.2712 C   0  0  0  0  0  0  0  0  0  0  0  0
   25.2447  -20.4202  -10.2838 C   0  0  0  0  0  0  0  0  0  0  0  0
   26.3587  -19.7290   -9.9404 N   0  0  0  0  0  0  0  0  0  0  0  0
   27.4094  -20.1589  -10.6522 C   0  0  0  0  0  0  0  0  0  0  0  0
   28.7361  -19.7721  -10.6615 C   0  0  0  0  0  0  0  0  0  0  0  0
   29.6056  -20.4108  -11.5214 C   0  0  0  0  0  0  0  0  0  0  0  0
   29.1608  -21.4208  -12.3599 C   0  0  0  0  0  0  0  0  0  0  0  0
   27.8288  -21.7734  -12.3164 C   0  0  0  0  0  0  0  0  0  0  0  0
   26.9299  -21.1618  -11.4749 C   0  0  0  0  0  0  0  0  0  0  0  0
   23.1995  -20.4896  -12.7667 C   0  0  0  0  0  0  0  0  0  0  0  0
   23.5485  -19.1891  -13.1065 O   0  0  0  0  0  0  0  0  0  0  0  0
   22.1403  -20.6778  -12.1206 O   0  0  0  0  0  0  0  0  0  0  0  0
  2  1  1  6
  2  5  1  0
  3  2  1  0
  4  3  1  0
  5  6  2  0
  7  5  1  0
  7  8  1  0
  8 12  1  0
  8  9  1  1
 10 14  1  0
 10  9  1  0
 11 10  2  0
 12 13  2  0
 15 16  1  0
 15 12  1  0
 16 27  1  0
 16 17  1  1
 18 17  1  0
 18 19  2  0
 20 19  1  0
 21 20  1  0
 22 21  2  0
 23 22  1  0
 24 23  2  0
 24 25  1  0
 25 26  2  0
 26 21  1  0
 26 18  1  0
 27 29  2  0
 27 28  1  0
M  END
$$$$
