CDW.pdb
     RDKit          3D

 29 30  0  0  1  0  0  0  0  0999 V2000
   22.7481  -22.0672  -15.3213 N   0  0  0  0  0  0  0  0  0  0  0  0
   22.6270  -20.6517  -15.4545 C   0  0  1  0  0  0  0  0  0  0  0  0
   21.5112  -20.2236  -16.3808 C   0  0  0  0  0  0  0  0  0  0  0  0
   20.8879  -21.7201  -17.2083 S   0  0  0  0  0  0  0  0  0  0  0  0
   22.5551  -19.9531  -14.1440 C   0  0  0  0  0  0  0  0  0  0  0  0
   22.5539  -18.7025  -14.1404 O   0  0  0  0  0  0  0  0  0  0  0  0
   22.4874  -20.6579  -12.9163 N   0  0  0  0  0  0  0  0  0  0  0  0
   22.4257  -20.0435  -11.6124 C   0  0  1  0  0  0  0  0  0  0  0  0
   21.5964  -20.8727  -10.6524 C   0  0  0  0  0  0  0  0  0  0  0  0
   20.2452  -21.1387  -11.1588 C   0  0  0  0  0  0  0  0  0  0  0  0
   20.1326  -21.9707  -12.1098 O   0  0  0  0  0  0  0  0  0  0  0  0
   23.7801  -19.9132  -11.0085 C   0  0  0  0  0  0  0  0  0  0  0  0
   23.9628  -19.4224   -9.8670 O   0  0  0  0  0  0  0  0  0  0  0  0
   19.0694  -20.5679  -10.6971 O   0  0  0  0  0  0  0  0  0  0  0  0
   24.9563  -20.3394  -11.6939 N   0  0  0  0  0  0  0  0  0  0  0  0
   26.2852  -20.3352  -11.0887 C   0  0  1  0  0  0  0  0  0  0  0  0
   26.2715  -21.1411   -9.7958 C   0  0  0  0  0  0  0  0  0  0  0  0
   27.5936  -20.9871   -9.1381 C   0  0  0  0  0  0  0  0  0  0  0  0
   28.8608  -21.2732   -9.6542 C   0  0  0  0  0  0  0  0  0  0  0  0
   29.7979  -20.9926   -8.7164 N   0  0  0  0  0  0  0  0  0  0  0  0
   29.2150  -20.5333   -7.6008 C   0  0  0  0  0  0  0  0  0  0  0  0
   29.7392  -20.1208   -6.3904 C   0  0  0  0  0  0  0  0  0  0  0  0
   28.8731  -19.6899   -5.4067 C   0  0  0  0  0  0  0  0  0  0  0  0
   27.5046  -19.6693   -5.6249 C   0  0  0  0  0  0  0  0  0  0  0  0
   27.0268  -20.0898   -6.8477 C   0  0  0  0  0  0  0  0  0  0  0  0
   27.8554  -20.5270   -7.8539 C   0  0  0  0  0  0  0  0  0  0  0  0
   27.3216  -20.7698  -12.0262 C   0  0  0  0  0  0  0  0  0  0  0  0
   28.6286  -20.3122  -11.9217 O   0  0  0  0  0  0  0  0  0  0  0  0
   27.0385  -21.5730  -12.9479 O   0  0  0  0  0  0  0  0  0  0  0  0
  2  1  1  1
  2  5  1  0
  3  2  1  0
  4  3  1  0
  5  6  2  0
  7  5  1  0
  7  8  1  0
  8 12  1  0
  8  9  1  1
 10 14  1  0
 10  9  1  0
 11 10  2  0
 12 13  2  0
 15 16  1  0
 15 12  1  0
 16 27  1  0
 16 17  1  1
 18 17  1  0
 18 19  2  0
 20 19  1  0
 21 20  1  0
 22 21  2  0
 23 22  1  0
 24 23  2  0
 24 25  1  0
 25 26  2  0
 26 21  1  0
 26 18  1  0
 27 29  2  0
 27 28  1  0
M  END
$$$$
