CDW.pdb
     RDKit          3D

 29 30  0  0  1  0  0  0  0  0999 V2000
   27.9086  -20.0150  -17.0090 N   0  0  0  0  0  0  0  0  0  0  0  0
   28.3870  -19.9067  -15.6691 C   0  0  1  0  0  0  0  0  0  0  0  0
   29.6197  -19.0415  -15.5341 C   0  0  0  0  0  0  0  0  0  0  0  0
   29.1314  -17.3341  -15.9333 S   0  0  0  0  0  0  0  0  0  0  0  0
   27.3250  -19.5084  -14.7079 C   0  0  0  0  0  0  0  0  0  0  0  0
   26.5831  -18.5485  -15.0115 O   0  0  0  0  0  0  0  0  0  0  0  0
   27.1336  -20.1798  -13.4745 N   0  0  0  0  0  0  0  0  0  0  0  0
   25.9529  -20.0773  -12.6518 C   0  0  1  0  0  0  0  0  0  0  0  0
   24.7291  -20.5973  -13.3788 C   0  0  0  0  0  0  0  0  0  0  0  0
   23.4989  -20.4443  -12.5936 C   0  0  0  0  0  0  0  0  0  0  0  0
   23.5884  -19.8386  -11.4826 O   0  0  0  0  0  0  0  0  0  0  0  0
   26.0870  -20.8814  -11.4062 C   0  0  0  0  0  0  0  0  0  0  0  0
   27.0633  -21.6441  -11.2001 O   0  0  0  0  0  0  0  0  0  0  0  0
   22.2381  -20.8982  -12.9481 O   0  0  0  0  0  0  0  0  0  0  0  0
   25.1097  -20.8338  -10.3683 N   0  0  0  0  0  0  0  0  0  0  0  0
   25.4219  -21.0574   -8.9595 C   0  0  1  0  0  0  0  0  0  0  0  0
   26.5737  -20.1566   -8.5316 C   0  0  0  0  0  0  0  0  0  0  0  0
   26.7531  -20.2966   -7.0645 C   0  0  0  0  0  0  0  0  0  0  0  0
   25.9157  -20.9307   -6.1422 C   0  0  0  0  0  0  0  0  0  0  0  0
   26.4526  -20.8198   -4.9028 N   0  0  0  0  0  0  0  0  0  0  0  0
   27.6073  -20.1423   -4.9563 C   0  0  0  0  0  0  0  0  0  0  0  0
   28.5083  -19.7787   -3.9735 C   0  0  0  0  0  0  0  0  0  0  0  0
   29.6335  -19.0681   -4.3374 C   0  0  0  0  0  0  0  0  0  0  0  0
   29.8590  -18.7247   -5.6611 C   0  0  0  0  0  0  0  0  0  0  0  0
   28.9331  -19.1087   -6.6075 C   0  0  0  0  0  0  0  0  0  0  0  0
   27.7990  -19.8167   -6.2867 C   0  0  0  0  0  0  0  0  0  0  0  0
   24.2418  -20.9272   -8.1036 C   0  0  0  0  0  0  0  0  0  0  0  0
   24.1117  -21.6656   -6.9347 O   0  0  0  0  0  0  0  0  0  0  0  0
   23.3208  -20.1353   -8.4192 O   0  0  0  0  0  0  0  0  0  0  0  0
  2  1  1  6
  2  5  1  0
  3  2  1  0
  4  3  1  0
  5  6  2  0
  7  5  1  0
  7  8  1  0
  8 12  1  0
  8  9  1  6
 10 14  1  0
 10  9  1  0
 11 10  2  0
 12 13  2  0
 15 16  1  0
 15 12  1  0
 16 27  1  0
 16 17  1  1
 18 17  1  0
 18 19  2  0
 20 19  1  0
 21 20  1  0
 22 21  2  0
 23 22  1  0
 24 23  2  0
 24 25  1  0
 25 26  2  0
 26 21  1  0
 26 18  1  0
 27 29  2  0
 27 28  1  0
M  END
$$$$
