CDW.pdb
     RDKit          3D

 29 30  0  0  1  0  0  0  0  0999 V2000
   20.8247  -21.4845  -12.1668 N   0  0  0  0  0  0  0  0  0  0  0  0
   21.0997  -20.1742  -12.6606 C   0  0  1  0  0  0  0  0  0  0  0  0
   21.3690  -19.1606  -11.5713 C   0  0  0  0  0  0  0  0  0  0  0  0
   22.7047  -19.8253  -10.5289 S   0  0  0  0  0  0  0  0  0  0  0  0
   22.1610  -20.1611  -13.7016 C   0  0  0  0  0  0  0  0  0  0  0  0
   22.8676  -21.1838  -13.8379 O   0  0  0  0  0  0  0  0  0  0  0  0
   22.3885  -19.0358  -14.5325 N   0  0  0  0  0  0  0  0  0  0  0  0
   23.4038  -18.9541  -15.5543 C   0  0  1  0  0  0  0  0  0  0  0  0
   23.1773  -17.7607  -16.4605 C   0  0  0  0  0  0  0  0  0  0  0  0
   24.0902  -17.7432  -17.6092 C   0  0  0  0  0  0  0  0  0  0  0  0
   24.4900  -16.6110  -18.0185 O   0  0  0  0  0  0  0  0  0  0  0  0
   24.7597  -18.7924  -14.9614 C   0  0  0  0  0  0  0  0  0  0  0  0
   25.2159  -17.6726  -14.6219 O   0  0  0  0  0  0  0  0  0  0  0  0
   24.5644  -18.8494  -18.2968 O   0  0  0  0  0  0  0  0  0  0  0  0
   25.6256  -19.9048  -14.7433 N   0  0  0  0  0  0  0  0  0  0  0  0
   26.9728  -19.7792  -14.1944 C   0  0  1  0  0  0  0  0  0  0  0  0
   26.9141  -19.1497  -12.8082 C   0  0  0  0  0  0  0  0  0  0  0  0
   26.4617  -20.1859  -11.8460 C   0  0  0  0  0  0  0  0  0  0  0  0
   25.7935  -21.3852  -12.1092 C   0  0  0  0  0  0  0  0  0  0  0  0
   25.5629  -22.0326  -10.9412 N   0  0  0  0  0  0  0  0  0  0  0  0
   26.0458  -21.3217   -9.9133 C   0  0  0  0  0  0  0  0  0  0  0  0
   26.0535  -21.5592   -8.5519 C   0  0  0  0  0  0  0  0  0  0  0  0
   26.6362  -20.6250   -7.7204 C   0  0  0  0  0  0  0  0  0  0  0  0
   27.2038  -19.4709   -8.2369 C   0  0  0  0  0  0  0  0  0  0  0  0
   27.1730  -19.2761   -9.6013 C   0  0  0  0  0  0  0  0  0  0  0  0
   26.6018  -20.1814  -10.4641 C   0  0  0  0  0  0  0  0  0  0  0  0
   27.7011  -21.0484  -14.2191 C   0  0  0  0  0  0  0  0  0  0  0  0
   27.0951  -22.2211  -14.6504 O   0  0  0  0  0  0  0  0  0  0  0  0
   28.8987  -21.0931  -13.8468 O   0  0  0  0  0  0  0  0  0  0  0  0
  2  1  1  1
  2  5  1  0
  3  2  1  0
  4  3  1  0
  5  6  2  0
  7  5  1  0
  7  8  1  0
  8 12  1  0
  8  9  1  6
 10 14  1  0
 10  9  1  0
 11 10  2  0
 12 13  2  0
 15 16  1  0
 15 12  1  0
 16 27  1  0
 16 17  1  1
 18 17  1  0
 18 19  2  0
 20 19  1  0
 21 20  1  0
 22 21  2  0
 23 22  1  0
 24 23  2  0
 24 25  1  0
 25 26  2  0
 26 21  1  0
 26 18  1  0
 27 29  2  0
 27 28  1  0
M  END
$$$$
