CDW.pdb
     RDKit          3D

 29 30  0  0  1  0  0  0  0  0999 V2000
   28.5241  -22.8602  -19.2599 N   0  0  0  0  0  0  0  0  0  0  0  0
   28.2125  -22.4883  -17.9179 C   0  0  1  0  0  0  0  0  0  0  0  0
   29.2937  -21.6690  -17.2499 C   0  0  0  0  0  0  0  0  0  0  0  0
   29.1097  -21.8890  -15.4526 S   0  0  0  0  0  0  0  0  0  0  0  0
   26.8770  -21.8473  -17.7923 C   0  0  0  0  0  0  0  0  0  0  0  0
   26.5221  -21.0422  -18.6811 O   0  0  0  0  0  0  0  0  0  0  0  0
   26.0075  -22.1221  -16.7075 N   0  0  0  0  0  0  0  0  0  0  0  0
   24.7454  -21.4640  -16.4721 C   0  0  1  0  0  0  0  0  0  0  0  0
   23.6553  -22.0317  -17.3587 C   0  0  0  0  0  0  0  0  0  0  0  0
   22.4238  -21.2349  -17.3193 C   0  0  0  0  0  0  0  0  0  0  0  0
   22.5099  -20.0511  -16.8717 O   0  0  0  0  0  0  0  0  0  0  0  0
   24.2926  -21.6440  -15.0655 C   0  0  0  0  0  0  0  0  0  0  0  0
   24.2429  -22.7713  -14.5142 O   0  0  0  0  0  0  0  0  0  0  0  0
   21.1654  -21.6495  -17.7268 O   0  0  0  0  0  0  0  0  0  0  0  0
   23.8860  -20.5416  -14.2566 N   0  0  0  0  0  0  0  0  0  0  0  0
   23.3730  -20.6882  -12.8973 C   0  0  1  0  0  0  0  0  0  0  0  0
   24.3065  -19.9977  -11.9108 C   0  0  0  0  0  0  0  0  0  0  0  0
   25.6031  -19.7531  -12.5912 C   0  0  0  0  0  0  0  0  0  0  0  0
   25.8615  -18.9579  -13.7114 C   0  0  0  0  0  0  0  0  0  0  0  0
   27.1829  -19.0190  -14.0063 N   0  0  0  0  0  0  0  0  0  0  0  0
   27.8162  -19.8167  -13.1358 C   0  0  0  0  0  0  0  0  0  0  0  0
   29.1425  -20.1885  -13.0236 C   0  0  0  0  0  0  0  0  0  0  0  0
   29.5064  -21.0424  -12.0029 C   0  0  0  0  0  0  0  0  0  0  0  0
   28.5634  -21.5191  -11.1060 C   0  0  0  0  0  0  0  0  0  0  0  0
   27.2520  -21.1214  -11.2565 C   0  0  0  0  0  0  0  0  0  0  0  0
   26.8479  -20.2728  -12.2600 C   0  0  0  0  0  0  0  0  0  0  0  0
   21.9829  -20.2456  -12.7796 C   0  0  0  0  0  0  0  0  0  0  0  0
   21.2403  -20.4929  -11.6325 O   0  0  0  0  0  0  0  0  0  0  0  0
   21.4378  -19.6278  -13.7262 O   0  0  0  0  0  0  0  0  0  0  0  0
  2  1  1  6
  2  5  1  0
  3  2  1  0
  4  3  1  0
  5  6  2  0
  7  5  1  0
  7  8  1  0
  8 12  1  0
  8  9  1  6
 10 14  1  0
 10  9  1  0
 11 10  2  0
 12 13  2  0
 15 16  1  0
 15 12  1  0
 16 27  1  0
 16 17  1  1
 18 17  1  0
 18 19  2  0
 20 19  1  0
 21 20  1  0
 22 21  2  0
 23 22  1  0
 24 23  2  0
 24 25  1  0
 25 26  2  0
 26 21  1  0
 26 18  1  0
 27 29  2  0
 27 28  1  0
M  END
$$$$
