CDW.pdb
     RDKit          3D

 29 30  0  0  1  0  0  0  0  0999 V2000
   26.0946  -18.2986  -17.1563 N   0  0  0  0  0  0  0  0  0  0  0  0
   26.4195  -19.2872  -16.1799 C   0  0  1  0  0  0  0  0  0  0  0  0
   27.9023  -19.4063  -15.9087 C   0  0  0  0  0  0  0  0  0  0  0  0
   28.4376  -17.8537  -15.1241 S   0  0  0  0  0  0  0  0  0  0  0  0
   25.6390  -19.1354  -14.9236 C   0  0  0  0  0  0  0  0  0  0  0  0
   25.5174  -17.9893  -14.4384 O   0  0  0  0  0  0  0  0  0  0  0  0
   25.0367  -20.2404  -14.2718 N   0  0  0  0  0  0  0  0  0  0  0  0
   24.3164  -20.1720  -13.0236 C   0  0  1  0  0  0  0  0  0  0  0  0
   23.0196  -20.9531  -13.0936 C   0  0  0  0  0  0  0  0  0  0  0  0
   22.2146  -20.8207  -11.8739 C   0  0  0  0  0  0  0  0  0  0  0  0
   22.1365  -19.6682  -11.3496 O   0  0  0  0  0  0  0  0  0  0  0  0
   25.1090  -20.7541  -11.9061 C   0  0  0  0  0  0  0  0  0  0  0  0
   25.7274  -21.8417  -12.0156 O   0  0  0  0  0  0  0  0  0  0  0  0
   21.5243  -21.8373  -11.2326 O   0  0  0  0  0  0  0  0  0  0  0  0
   25.2133  -20.1084  -10.6384 N   0  0  0  0  0  0  0  0  0  0  0  0
   26.0730  -20.5885   -9.5602 C   0  0  1  0  0  0  0  0  0  0  0  0
   27.1144  -19.5315   -9.2142 C   0  0  0  0  0  0  0  0  0  0  0  0
   28.0891  -20.1314   -8.2687 C   0  0  0  0  0  0  0  0  0  0  0  0
   28.9938  -21.1726   -8.4957 C   0  0  0  0  0  0  0  0  0  0  0  0
   29.6927  -21.4117   -7.3595 N   0  0  0  0  0  0  0  0  0  0  0  0
   29.2965  -20.5793   -6.3872 C   0  0  0  0  0  0  0  0  0  0  0  0
   29.7026  -20.4373   -5.0739 C   0  0  0  0  0  0  0  0  0  0  0  0
   29.0985  -19.4720   -4.2951 C   0  0  0  0  0  0  0  0  0  0  0  0
   28.1045  -18.6588   -4.8164 C   0  0  0  0  0  0  0  0  0  0  0  0
   27.7316  -18.8362   -6.1316 C   0  0  0  0  0  0  0  0  0  0  0  0
   28.3077  -19.7867   -6.9410 C   0  0  0  0  0  0  0  0  0  0  0  0
   25.3047  -21.0402   -8.3992 C   0  0  0  0  0  0  0  0  0  0  0  0
   25.7414  -22.0960   -7.6100 O   0  0  0  0  0  0  0  0  0  0  0  0
   24.2279  -20.4706   -8.0980 O   0  0  0  0  0  0  0  0  0  0  0  0
  2  1  1  6
  2  5  1  0
  3  2  1  0
  4  3  1  0
  5  6  2  0
  7  5  1  0
  7  8  1  0
  8 12  1  0
  8  9  1  6
 10 14  1  0
 10  9  1  0
 11 10  2  0
 12 13  2  0
 15 16  1  0
 15 12  1  0
 16 27  1  0
 16 17  1  1
 18 17  1  0
 18 19  2  0
 20 19  1  0
 21 20  1  0
 22 21  2  0
 23 22  1  0
 24 23  2  0
 24 25  1  0
 25 26  2  0
 26 21  1  0
 26 18  1  0
 27 29  2  0
 27 28  1  0
M  END
$$$$
