CDW.pdb
     RDKit          3D

 29 30  0  0  1  0  0  0  0  0999 V2000
   27.2544  -20.7113  -15.9188 N   0  0  0  0  0  0  0  0  0  0  0  0
   26.7715  -21.3127  -14.7183 C   0  0  1  0  0  0  0  0  0  0  0  0
   27.6272  -22.4591  -14.2285 C   0  0  0  0  0  0  0  0  0  0  0  0
   29.2856  -21.7917  -13.8865 S   0  0  0  0  0  0  0  0  0  0  0  0
   26.5081  -20.3214  -13.6421 C   0  0  0  0  0  0  0  0  0  0  0  0
   26.8107  -19.1264  -13.8525 O   0  0  0  0  0  0  0  0  0  0  0  0
   25.9297  -20.6904  -12.4019 N   0  0  0  0  0  0  0  0  0  0  0  0
   24.5944  -20.3467  -11.9774 C   0  0  1  0  0  0  0  0  0  0  0  0
   23.5581  -20.8444  -12.9648 C   0  0  0  0  0  0  0  0  0  0  0  0
   22.7649  -19.7558  -13.5471 C   0  0  0  0  0  0  0  0  0  0  0  0
   23.3882  -18.8683  -14.2051 O   0  0  0  0  0  0  0  0  0  0  0  0
   24.2665  -20.9633  -10.6628 C   0  0  0  0  0  0  0  0  0  0  0  0
   23.0846  -21.1813  -10.2985 O   0  0  0  0  0  0  0  0  0  0  0  0
   21.3910  -19.5997  -13.4502 O   0  0  0  0  0  0  0  0  0  0  0  0
   25.2800  -21.3444   -9.7341 N   0  0  0  0  0  0  0  0  0  0  0  0
   25.1431  -21.1935   -8.2882 C   0  0  1  0  0  0  0  0  0  0  0  0
   25.6493  -19.8227   -7.8570 C   0  0  0  0  0  0  0  0  0  0  0  0
   27.1064  -19.9274   -7.5925 C   0  0  0  0  0  0  0  0  0  0  0  0
   28.1482  -20.0864   -8.5109 C   0  0  0  0  0  0  0  0  0  0  0  0
   29.3262  -20.1431   -7.8434 N   0  0  0  0  0  0  0  0  0  0  0  0
   29.1183  -20.0294   -6.5247 C   0  0  0  0  0  0  0  0  0  0  0  0
   29.9889  -20.0298   -5.4514 C   0  0  0  0  0  0  0  0  0  0  0  0
   29.4718  -19.8921   -4.1798 C   0  0  0  0  0  0  0  0  0  0  0  0
   28.1073  -19.7552   -3.9792 C   0  0  0  0  0  0  0  0  0  0  0  0
   27.2767  -19.7603   -5.0795 C   0  0  0  0  0  0  0  0  0  0  0  0
   27.7513  -19.8958   -6.3627 C   0  0  0  0  0  0  0  0  0  0  0  0
   23.7822  -21.4744   -7.8288 C   0  0  0  0  0  0  0  0  0  0  0  0
   23.5401  -22.3516   -6.7797 O   0  0  0  0  0  0  0  0  0  0  0  0
   22.8041  -20.9179   -8.3840 O   0  0  0  0  0  0  0  0  0  0  0  0
  2  1  1  6
  2  5  1  0
  3  2  1  0
  4  3  1  0
  5  6  2  0
  7  5  1  0
  7  8  1  0
  8 12  1  0
  8  9  1  6
 10 14  1  0
 10  9  1  0
 11 10  2  0
 12 13  2  0
 15 16  1  0
 15 12  1  0
 16 27  1  0
 16 17  1  6
 18 17  1  0
 18 19  2  0
 20 19  1  0
 21 20  1  0
 22 21  2  0
 23 22  1  0
 24 23  2  0
 24 25  1  0
 25 26  2  0
 26 21  1  0
 26 18  1  0
 27 29  2  0
 27 28  1  0
M  END
$$$$
