CDW.pdb
     RDKit          3D

 29 30  0  0  1  0  0  0  0  0999 V2000
   29.0570  -35.1258   -4.1536 N   0  0  0  0  0  0  0  0  0  0  0  0
   28.7113  -35.3502   -2.7875 C   0  0  1  0  0  0  0  0  0  0  0  0
   29.9003  -35.6524   -1.9035 C   0  0  0  0  0  0  0  0  0  0  0  0
   30.8517  -36.9795   -2.7075 S   0  0  0  0  0  0  0  0  0  0  0  0
   27.8638  -34.2677   -2.2217 C   0  0  0  0  0  0  0  0  0  0  0  0
   27.2868  -33.4929   -3.0158 O   0  0  0  0  0  0  0  0  0  0  0  0
   27.6942  -34.0944   -0.8253 N   0  0  0  0  0  0  0  0  0  0  0  0
   26.7476  -33.1945   -0.2127 C   0  0  1  0  0  0  0  0  0  0  0  0
   25.3385  -33.4611   -0.7029 C   0  0  0  0  0  0  0  0  0  0  0  0
   24.3568  -32.5327   -0.1307 C   0  0  0  0  0  0  0  0  0  0  0  0
   24.7827  -31.4048    0.2640 O   0  0  0  0  0  0  0  0  0  0  0  0
   26.7252  -33.3542    1.2672 C   0  0  0  0  0  0  0  0  0  0  0  0
   26.3078  -34.3994    1.8244 O   0  0  0  0  0  0  0  0  0  0  0  0
   22.9991  -32.7665    0.0220 O   0  0  0  0  0  0  0  0  0  0  0  0
   27.1782  -32.3245    2.1443 N   0  0  0  0  0  0  0  0  0  0  0  0
   27.0847  -32.4091    3.5991 C   0  0  1  0  0  0  0  0  0  0  0  0
   25.6464  -32.6943    4.0131 C   0  0  0  0  0  0  0  0  0  0  0  0
   24.8789  -31.4261    3.9307 C   0  0  0  0  0  0  0  0  0  0  0  0
   25.1991  -30.2592    3.2309 C   0  0  0  0  0  0  0  0  0  0  0  0
   24.2259  -29.3377    3.4317 N   0  0  0  0  0  0  0  0  0  0  0  0
   23.2734  -29.8355    4.2318 C   0  0  0  0  0  0  0  0  0  0  0  0
   22.1005  -29.2896    4.7177 C   0  0  0  0  0  0  0  0  0  0  0  0
   21.3032  -30.0591    5.5397 C   0  0  0  0  0  0  0  0  0  0  0  0
   21.6678  -31.3541    5.8727 C   0  0  0  0  0  0  0  0  0  0  0  0
   22.8465  -31.8571    5.3646 C   0  0  0  0  0  0  0  0  0  0  0  0
   23.6695  -31.1235    4.5432 C   0  0  0  0  0  0  0  0  0  0  0  0
   28.0441  -33.3609    4.1609 C   0  0  0  0  0  0  0  0  0  0  0  0
   28.0788  -33.6338    5.5221 O   0  0  0  0  0  0  0  0  0  0  0  0
   28.8576  -33.9509    3.4093 O   0  0  0  0  0  0  0  0  0  0  0  0
  2  1  1  6
  2  5  1  0
  3  2  1  0
  4  3  1  0
  5  6  2  0
  7  5  1  0
  7  8  1  0
  8 12  1  0
  8  9  1  6
 10 14  1  0
 10  9  1  0
 11 10  2  0
 12 13  2  0
 15 16  1  0
 15 12  1  0
 16 27  1  0
 16 17  1  6
 18 17  1  0
 18 19  2  0
 20 19  1  0
 21 20  1  0
 22 21  2  0
 23 22  1  0
 24 23  2  0
 24 25  1  0
 25 26  2  0
 26 21  1  0
 26 18  1  0
 27 29  2  0
 27 28  1  0
M  END
$$$$
