MHS.pdb
     RDKit          3D

 25 25  0  0  1  0  0  0  0  0999 V2000
    8.7570  -11.9942   18.4074 C   0  0  0  0  0  0  0  0  0  0  0  0
    8.0650  -12.5192   19.9765 S   0  0  0  0  0  0  0  0  0  0  0  0
    7.5995  -14.2885   19.8948 C   0  0  0  0  0  0  0  0  0  0  0  0
    6.9967  -14.6479   21.2397 C   0  0  0  0  0  0  0  0  0  0  0  0
    6.6059  -16.1067   21.3022 C   0  0  2  0  0  0  0  0  0  0  0  0
    5.4138  -16.3362   20.5500 N   0  0  0  0  0  0  0  0  0  0  0  0
    6.4552  -16.5396   22.7291 C   0  0  0  0  0  0  0  0  0  0  0  0
    5.3818  -16.4360   23.3402 O   0  0  0  0  0  0  0  0  0  0  0  0
    7.5847  -17.0787   23.3749 N   0  0  0  0  0  0  0  0  0  0  0  0
    7.6439  -17.5705   24.7056 C   0  0  1  0  0  0  0  0  0  0  0  0
    7.4482  -19.0543   24.9054 C   0  0  0  0  0  0  0  0  0  0  0  0
    7.6365  -19.4881   26.3212 C   0  0  0  0  0  0  0  0  0  0  0  0
    8.8056  -20.0119   26.8689 C   0  0  0  0  0  0  0  0  0  0  0  0
    8.6023  -20.2842   28.1617 N   0  0  0  0  0  0  0  0  0  0  0  0
    7.3395  -19.9516   28.4609 C   0  0  0  0  0  0  0  0  0  0  0  0
    6.7759  -19.4751   27.3415 N   0  0  0  0  0  0  0  0  0  0  0  0
    8.6728  -16.9594   25.5562 C   0  0  0  0  0  0  0  0  0  0  0  0
    9.9032  -16.9019   25.1968 O   0  0  0  0  0  0  0  0  0  0  0  0
    9.9091  -14.0886   29.2350 O   0  0  0  0  0  0  0  0  0  0  0  0
    8.8452  -14.7540   28.6240 C   0  0  0  0  0  0  0  0  0  0  0  0
    9.4290  -15.6777   27.5932 C   0  0  2  0  0  0  0  0  0  0  0  0
    8.4253  -16.3835   26.8285 N   0  0  0  0  0  0  0  0  0  0  0  0
   10.3613  -16.6150   28.2415 C   0  0  0  0  0  0  0  0  0  0  0  0
   11.6773  -16.3076   28.5412 O   0  0  0  0  0  0  0  0  0  0  0  0
    9.9513  -17.7647   28.5460 O   0  0  0  0  0  0  0  0  0  0  0  0
  2  1  1  0
  3  2  1  0
  4  3  1  0
  4  5  1  0
  5  6  1  6
  5  7  1  0
  7  9  1  0
  8  7  2  0
  9 10  1  0
 10 11  1  6
 11 12  1  0
 12 16  1  0
 13 12  2  0
 13 14  1  0
 14 15  1  0
 16 15  2  0
 17 10  1  0
 17 22  1  0
 18 17  2  0
 19 20  1  0
 21 20  1  1
 21 23  1  0
 21 22  1  0
 23 24  1  0
 25 23  2  0
M  END
$$$$
