MHS.pdb
     RDKit          3D

 25 25  0  0  1  0  0  0  0  0999 V2000
    7.7543  -12.2762   21.4750 C   0  0  0  0  0  0  0  0  0  0  0  0
    7.7953  -12.2696   19.6820 S   0  0  0  0  0  0  0  0  0  0  0  0
    6.9975  -13.7845   19.0319 C   0  0  0  0  0  0  0  0  0  0  0  0
    7.4902  -14.9408   19.8812 C   0  0  0  0  0  0  0  0  0  0  0  0
    8.6557  -15.6511   19.2317 C   0  0  2  0  0  0  0  0  0  0  0  0
    8.2721  -16.1804   17.9619 N   0  0  0  0  0  0  0  0  0  0  0  0
    9.1822  -16.7182   20.1429 C   0  0  0  0  0  0  0  0  0  0  0  0
    8.5710  -17.7783   20.3398 O   0  0  0  0  0  0  0  0  0  0  0  0
   10.4139  -16.4849   20.7849 N   0  0  0  0  0  0  0  0  0  0  0  0
   11.1026  -17.3807   21.6447 C   0  0  1  0  0  0  0  0  0  0  0  0
   12.3900  -17.9810   21.1327 C   0  0  0  0  0  0  0  0  0  0  0  0
   12.2437  -18.6420   19.8023 C   0  0  0  0  0  0  0  0  0  0  0  0
   12.7721  -18.1836   18.5974 C   0  0  0  0  0  0  0  0  0  0  0  0
   12.4396  -19.0326   17.6199 N   0  0  0  0  0  0  0  0  0  0  0  0
   11.7144  -20.0214   18.1597 C   0  0  0  0  0  0  0  0  0  0  0  0
   11.6080  -19.7682   19.4721 N   0  0  0  0  0  0  0  0  0  0  0  0
   11.1133  -17.0060   23.0643 C   0  0  0  0  0  0  0  0  0  0  0  0
   11.6510  -15.9153   23.4735 O   0  0  0  0  0  0  0  0  0  0  0  0
    9.1235  -19.1742   25.9387 O   0  0  0  0  0  0  0  0  0  0  0  0
    9.3439  -17.8319   26.2513 C   0  0  0  0  0  0  0  0  0  0  0  0
   10.5661  -17.3924   25.4965 C   0  0  2  0  0  0  0  0  0  0  0  0
   10.5470  -17.7855   24.1053 N   0  0  0  0  0  0  0  0  0  0  0  0
   11.7726  -17.8941   26.1751 C   0  0  0  0  0  0  0  0  0  0  0  0
   12.1315  -17.5441   27.4654 O   0  0  0  0  0  0  0  0  0  0  0  0
   12.5298  -18.6871   25.5583 O   0  0  0  0  0  0  0  0  0  0  0  0
  2  1  1  0
  3  2  1  0
  4  3  1  0
  4  5  1  0
  5  6  1  6
  5  7  1  0
  7  9  1  0
  8  7  2  0
  9 10  1  0
 10 11  1  6
 11 12  1  0
 12 16  1  0
 13 12  2  0
 13 14  1  0
 14 15  1  0
 16 15  2  0
 17 10  1  0
 17 22  1  0
 18 17  2  0
 19 20  1  0
 21 20  1  1
 21 23  1  0
 21 22  1  0
 23 24  1  0
 25 23  2  0
M  END
$$$$
