MHS.pdb
     RDKit          3D

 25 25  0  0  1  0  0  0  0  0999 V2000
    8.0049  -12.5296   20.9854 C   0  0  0  0  0  0  0  0  0  0  0  0
    7.7234  -12.1548   19.2543 S   0  0  0  0  0  0  0  0  0  0  0  0
    8.6616  -13.3222   18.2004 C   0  0  0  0  0  0  0  0  0  0  0  0
    9.0795  -14.4789   19.0884 C   0  0  0  0  0  0  0  0  0  0  0  0
   10.5835  -14.6173   19.1507 C   0  0  2  0  0  0  0  0  0  0  0  0
   11.1226  -14.7945   17.8402 N   0  0  0  0  0  0  0  0  0  0  0  0
   10.9603  -15.7442   20.0642 C   0  0  0  0  0  0  0  0  0  0  0  0
   10.4320  -15.8983   21.1748 O   0  0  0  0  0  0  0  0  0  0  0  0
   11.9499  -16.6442   19.6235 N   0  0  0  0  0  0  0  0  0  0  0  0
   12.3866  -17.8165   20.2950 C   0  0  1  0  0  0  0  0  0  0  0  0
   13.3245  -18.7344   19.5481 C   0  0  0  0  0  0  0  0  0  0  0  0
   13.5477  -20.0384   20.2395 C   0  0  0  0  0  0  0  0  0  0  0  0
   12.5931  -21.0332   20.4398 C   0  0  0  0  0  0  0  0  0  0  0  0
   13.1540  -22.0561   21.0924 N   0  0  0  0  0  0  0  0  0  0  0  0
   14.4385  -21.7489   21.3172 C   0  0  0  0  0  0  0  0  0  0  0  0
   14.6553  -20.5324   20.7970 N   0  0  0  0  0  0  0  0  0  0  0  0
   12.6877  -17.6481   21.7220 C   0  0  0  0  0  0  0  0  0  0  0  0
   13.5166  -16.7622   22.1400 O   0  0  0  0  0  0  0  0  0  0  0  0
   10.4594  -19.4347   24.5539 O   0  0  0  0  0  0  0  0  0  0  0  0
   11.2288  -18.3849   25.0580 C   0  0  0  0  0  0  0  0  0  0  0  0
   12.4246  -18.2369   24.1609 C   0  0  2  0  0  0  0  0  0  0  0  0
   12.1121  -18.4225   22.7616 N   0  0  0  0  0  0  0  0  0  0  0  0
   13.4859  -19.1597   24.5965 C   0  0  0  0  0  0  0  0  0  0  0  0
   14.0516  -19.1408   25.8598 O   0  0  0  0  0  0  0  0  0  0  0  0
   13.9126  -20.0201   23.7838 O   0  0  0  0  0  0  0  0  0  0  0  0
  2  1  1  0
  3  2  1  0
  4  3  1  0
  4  5  1  0
  5  6  1  6
  5  7  1  0
  7  9  1  0
  8  7  2  0
  9 10  1  0
 10 11  1  6
 11 12  1  0
 12 16  1  0
 13 12  2  0
 13 14  1  0
 14 15  1  0
 16 15  2  0
 17 10  1  0
 17 22  1  0
 18 17  2  0
 19 20  1  0
 21 20  1  1
 21 23  1  0
 21 22  1  0
 23 24  1  0
 25 23  2  0
M  END
$$$$
