MHS.pdb
     RDKit          3D

 25 25  0  0  1  0  0  0  0  0999 V2000
    8.4826  -11.3486   20.4783 C   0  0  0  0  0  0  0  0  0  0  0  0
    7.7401  -12.2653   19.1274 S   0  0  0  0  0  0  0  0  0  0  0  0
    7.6730  -14.0477   19.5426 C   0  0  0  0  0  0  0  0  0  0  0  0
    8.6456  -14.2707   20.6852 C   0  0  0  0  0  0  0  0  0  0  0  0
    8.6515  -15.7130   21.1373 C   0  0  2  0  0  0  0  0  0  0  0  0
    7.3948  -16.3294   20.8542 N   0  0  0  0  0  0  0  0  0  0  0  0
    8.9959  -15.7957   22.5936 C   0  0  0  0  0  0  0  0  0  0  0  0
   10.0929  -15.4233   23.0344 O   0  0  0  0  0  0  0  0  0  0  0  0
    8.0245  -16.3172   23.4699 N   0  0  0  0  0  0  0  0  0  0  0  0
    8.1616  -16.5034   24.8707 C   0  0  1  0  0  0  0  0  0  0  0  0
    7.0186  -16.0477   25.7457 C   0  0  0  0  0  0  0  0  0  0  0  0
    6.8400  -14.5658   25.7575 C   0  0  0  0  0  0  0  0  0  0  0  0
    7.6835  -13.6343   25.1559 C   0  0  0  0  0  0  0  0  0  0  0  0
    7.2068  -12.4045   25.3729 N   0  0  0  0  0  0  0  0  0  0  0  0
    6.0839  -12.5174   26.0948 C   0  0  0  0  0  0  0  0  0  0  0  0
    5.8807  -13.8242   26.3156 N   0  0  0  0  0  0  0  0  0  0  0  0
    8.7910  -17.7658   25.2783 C   0  0  0  0  0  0  0  0  0  0  0  0
    8.3711  -18.9010   24.8525 O   0  0  0  0  0  0  0  0  0  0  0  0
   12.7917  -19.7819   25.0696 O   0  0  0  0  0  0  0  0  0  0  0  0
   11.8148  -18.7949   24.9292 C   0  0  0  0  0  0  0  0  0  0  0  0
   10.8768  -18.9259   26.0952 C   0  0  2  0  0  0  0  0  0  0  0  0
    9.8979  -17.8639   26.1596 N   0  0  0  0  0  0  0  0  0  0  0  0
   11.6511  -19.0130   27.3445 C   0  0  0  0  0  0  0  0  0  0  0  0
   12.5635  -20.0180   27.6159 O   0  0  0  0  0  0  0  0  0  0  0  0
   11.4836  -18.1298   28.2245 O   0  0  0  0  0  0  0  0  0  0  0  0
  2  1  1  0
  3  2  1  0
  4  3  1  0
  4  5  1  0
  5  6  1  1
  5  7  1  0
  7  9  1  0
  8  7  2  0
  9 10  1  0
 10 11  1  1
 11 12  1  0
 12 16  1  0
 13 12  2  0
 13 14  1  0
 14 15  1  0
 16 15  2  0
 17 10  1  0
 17 22  1  0
 18 17  2  0
 19 20  1  0
 21 20  1  6
 21 23  1  0
 21 22  1  0
 23 24  1  0
 25 23  2  0
M  END
$$$$
