MHS.pdb
     RDKit          3D

 25 25  0  0  1  0  0  0  0  0999 V2000
    8.8886  -11.8714   19.3964 C   0  0  0  0  0  0  0  0  0  0  0  0
    7.2012  -12.3919   19.0827 S   0  0  0  0  0  0  0  0  0  0  0  0
    7.1934  -14.0301   18.2640 C   0  0  0  0  0  0  0  0  0  0  0  0
    8.0522  -14.9499   19.1113 C   0  0  0  0  0  0  0  0  0  0  0  0
    8.2229  -16.3048   18.4632 C   0  0  2  0  0  0  0  0  0  0  0  0
    6.9511  -16.9156   18.2421 N   0  0  0  0  0  0  0  0  0  0  0  0
    9.1164  -17.1684   19.3013 C   0  0  0  0  0  0  0  0  0  0  0  0
    8.6828  -17.8495   20.2417 O   0  0  0  0  0  0  0  0  0  0  0  0
   10.4897  -17.1898   18.9900 N   0  0  0  0  0  0  0  0  0  0  0  0
   11.4935  -17.9521   19.6437 C   0  0  1  0  0  0  0  0  0  0  0  0
   12.5640  -18.5745   18.7797 C   0  0  0  0  0  0  0  0  0  0  0  0
   13.5334  -19.4073   19.5509 C   0  0  0  0  0  0  0  0  0  0  0  0
   13.5134  -19.6246   20.9269 C   0  0  0  0  0  0  0  0  0  0  0  0
   14.5326  -20.4221   21.2613 N   0  0  0  0  0  0  0  0  0  0  0  0
   15.2061  -20.7235   20.1431 C   0  0  0  0  0  0  0  0  0  0  0  0
   14.5898  -20.1040   19.1262 N   0  0  0  0  0  0  0  0  0  0  0  0
   11.9667  -17.4041   20.9210 C   0  0  0  0  0  0  0  0  0  0  0  0
   12.5527  -16.2649   20.9944 O   0  0  0  0  0  0  0  0  0  0  0  0
   10.5193  -18.6612   24.4728 O   0  0  0  0  0  0  0  0  0  0  0  0
   11.1094  -17.3970   24.4327 C   0  0  0  0  0  0  0  0  0  0  0  0
   12.2261  -17.4571   23.4298 C   0  0  2  0  0  0  0  0  0  0  0  0
   11.8310  -18.0547   22.1740 N   0  0  0  0  0  0  0  0  0  0  0  0
   13.3786  -18.1616   24.0156 C   0  0  0  0  0  0  0  0  0  0  0  0
   14.0653  -17.7177   25.1326 O   0  0  0  0  0  0  0  0  0  0  0  0
   13.7726  -19.2296   23.4801 O   0  0  0  0  0  0  0  0  0  0  0  0
  2  1  1  0
  3  2  1  0
  4  3  1  0
  4  5  1  0
  5  6  1  1
  5  7  1  0
  7  9  1  0
  8  7  2  0
  9 10  1  0
 10 11  1  6
 11 12  1  0
 12 16  1  0
 13 12  2  0
 13 14  1  0
 14 15  1  0
 16 15  2  0
 17 10  1  0
 17 22  1  0
 18 17  2  0
 19 20  1  0
 21 20  1  1
 21 23  1  0
 21 22  1  0
 23 24  1  0
 25 23  2  0
M  END
$$$$
