MHS.pdb
     RDKit          3D

 25 25  0  0  1  0  0  0  0  0999 V2000
    7.8642  -11.6054   26.7797 C   0  0  0  0  0  0  0  0  0  0  0  0
    6.1621  -12.0417   27.1387 S   0  0  0  0  0  0  0  0  0  0  0  0
    5.7928  -13.7122   26.4850 C   0  0  0  0  0  0  0  0  0  0  0  0
    6.7683  -13.9671   25.3516 C   0  0  0  0  0  0  0  0  0  0  0  0
    6.4663  -15.2657   24.6393 C   0  0  2  0  0  0  0  0  0  0  0  0
    5.9033  -16.2132   25.5475 N   0  0  0  0  0  0  0  0  0  0  0  0
    7.7055  -15.7937   23.9820 C   0  0  0  0  0  0  0  0  0  0  0  0
    8.0788  -16.9670   24.1239 O   0  0  0  0  0  0  0  0  0  0  0  0
    8.4531  -14.9080   23.1819 N   0  0  0  0  0  0  0  0  0  0  0  0
    9.5481  -15.2448   22.3433 C   0  0  1  0  0  0  0  0  0  0  0  0
    9.8553  -14.3120   21.1963 C   0  0  0  0  0  0  0  0  0  0  0  0
    8.7018  -14.1185   20.2690 C   0  0  0  0  0  0  0  0  0  0  0  0
    8.0859  -12.9051   19.9698 C   0  0  0  0  0  0  0  0  0  0  0  0
    7.0922  -13.1185   19.1015 N   0  0  0  0  0  0  0  0  0  0  0  0
    7.0510  -14.4306   18.8342 C   0  0  0  0  0  0  0  0  0  0  0  0
    8.0263  -15.0141   19.5456 N   0  0  0  0  0  0  0  0  0  0  0  0
   10.7241  -15.7891   23.0335 C   0  0  0  0  0  0  0  0  0  0  0  0
   11.4047  -15.0903   23.8671 O   0  0  0  0  0  0  0  0  0  0  0  0
   11.7741  -19.7031   22.6866 O   0  0  0  0  0  0  0  0  0  0  0  0
   12.2936  -19.0959   23.8309 C   0  0  0  0  0  0  0  0  0  0  0  0
   12.3776  -17.6216   23.5552 C   0  0  2  0  0  0  0  0  0  0  0  0
   11.2198  -17.1066   22.8591 N   0  0  0  0  0  0  0  0  0  0  0  0
   13.6172  -17.3270   22.8175 C   0  0  0  0  0  0  0  0  0  0  0  0
   14.8846  -17.6022   23.3015 O   0  0  0  0  0  0  0  0  0  0  0  0
   13.5344  -16.7945   21.6808 O   0  0  0  0  0  0  0  0  0  0  0  0
  2  1  1  0
  3  2  1  0
  4  3  1  0
  4  5  1  0
  5  6  1  1
  5  7  1  0
  7  9  1  0
  8  7  2  0
  9 10  1  0
 10 11  1  1
 11 12  1  0
 12 16  1  0
 13 12  2  0
 13 14  1  0
 14 15  1  0
 16 15  2  0
 17 10  1  0
 17 22  1  0
 18 17  2  0
 19 20  1  0
 21 20  1  6
 21 23  1  0
 21 22  1  0
 23 24  1  0
 25 23  2  0
M  END
$$$$
