MHS.pdb
     RDKit          3D

 25 25  0  0  1  0  0  0  0  0999 V2000
    6.6525  -10.8573   28.0537 C   0  0  0  0  0  0  0  0  0  0  0  0
    5.8855  -12.0931   27.0044 S   0  0  0  0  0  0  0  0  0  0  0  0
    6.9210  -12.3862   25.5226 C   0  0  0  0  0  0  0  0  0  0  0  0
    6.3418  -13.5953   24.8127 C   0  0  0  0  0  0  0  0  0  0  0  0
    7.2094  -14.8188   25.0000 C   0  0  2  0  0  0  0  0  0  0  0  0
    8.3148  -14.5202   25.8535 N   0  0  0  0  0  0  0  0  0  0  0  0
    7.6596  -15.3405   23.6690 C   0  0  0  0  0  0  0  0  0  0  0  0
    6.8571  -15.7037   22.7970 O   0  0  0  0  0  0  0  0  0  0  0  0
    9.0449  -15.4105   23.4252 N   0  0  0  0  0  0  0  0  0  0  0  0
    9.6735  -15.9098   22.2541 C   0  0  1  0  0  0  0  0  0  0  0  0
   10.0224  -14.9121   21.1757 C   0  0  0  0  0  0  0  0  0  0  0  0
    8.8295  -14.3973   20.4408 C   0  0  0  0  0  0  0  0  0  0  0  0
    8.4460  -13.0621   20.3348 C   0  0  0  0  0  0  0  0  0  0  0  0
    7.3314  -12.9814   19.6015 N   0  0  0  0  0  0  0  0  0  0  0  0
    6.9875  -14.2229   19.2336 C   0  0  0  0  0  0  0  0  0  0  0  0
    7.9003  -15.0594   19.7480 N   0  0  0  0  0  0  0  0  0  0  0  0
   10.6758  -16.9591   22.4775 C   0  0  0  0  0  0  0  0  0  0  0  0
   11.5585  -16.8672   23.4042 O   0  0  0  0  0  0  0  0  0  0  0  0
   10.1301  -20.8322   21.8320 O   0  0  0  0  0  0  0  0  0  0  0  0
   11.4042  -20.5046   21.3656 C   0  0  0  0  0  0  0  0  0  0  0  0
   11.7680  -19.1732   21.9585 C   0  0  2  0  0  0  0  0  0  0  0  0
   10.7735  -18.1521   21.7165 N   0  0  0  0  0  0  0  0  0  0  0  0
   13.0904  -18.7566   21.4631 C   0  0  0  0  0  0  0  0  0  0  0  0
   14.2452  -19.5009   21.6328 O   0  0  0  0  0  0  0  0  0  0  0  0
   13.1910  -17.6637   20.8483 O   0  0  0  0  0  0  0  0  0  0  0  0
  2  1  1  0
  3  2  1  0
  4  3  1  0
  4  5  1  0
  5  6  1  1
  5  7  1  0
  7  9  1  0
  8  7  2  0
  9 10  1  0
 10 11  1  1
 11 12  1  0
 12 16  1  0
 13 12  2  0
 13 14  1  0
 14 15  1  0
 16 15  2  0
 17 10  1  0
 17 22  1  0
 18 17  2  0
 19 20  1  0
 21 20  1  6
 21 23  1  0
 21 22  1  0
 23 24  1  0
 25 23  2  0
M  END
$$$$
