MTW.pdb
     RDKit          3D

 30 31  0  0  1  0  0  0  0  0999 V2000
    7.8606  -19.3151   15.4605 C   0  0  0  0  0  0  0  0  0  0  0  0
    7.3447  -20.5244   16.7013 S   0  0  0  0  0  0  0  0  0  0  0  0
    8.0676  -20.2152   18.3144 C   0  0  0  0  0  0  0  0  0  0  0  0
    8.3610  -18.7376   18.5479 C   0  0  0  0  0  0  0  0  0  0  0  0
    9.0535  -18.6197   19.8612 C   0  0  2  0  0  0  0  0  0  0  0  0
    8.2453  -19.3546   20.8443 N   0  0  0  0  0  0  0  0  0  0  0  0
    9.2504  -17.2403   20.3265 C   0  0  0  0  0  0  0  0  0  0  0  0
   10.0395  -16.4852   19.6947 O   0  0  0  0  0  0  0  0  0  0  0  0
    6.9593  -14.2135   20.4910 C   0  0  0  0  0  0  0  0  0  0  0  0
    7.4130  -14.6104   21.8781 C   0  0  1  0  0  0  0  0  0  0  0  0
    6.5245  -15.4969   22.4781 O   0  0  0  0  0  0  0  0  0  0  0  0
    8.7750  -15.2809   21.8441 C   0  0  2  0  0  0  0  0  0  0  0  0
    8.6071  -16.6732   21.4605 N   0  0  0  0  0  0  0  0  0  0  0  0
    9.3875  -15.1618   23.1929 C   0  0  0  0  0  0  0  0  0  0  0  0
    9.9129  -14.0772   23.5480 O   0  0  0  0  0  0  0  0  0  0  0  0
    9.4130  -16.2289   24.1236 N   0  0  0  0  0  0  0  0  0  0  0  0
   10.2493  -16.2810   25.2953 C   0  0  1  0  0  0  0  0  0  0  0  0
    9.5158  -16.0032   26.5630 C   0  0  0  0  0  0  0  0  0  0  0  0
    8.1948  -15.4144   26.2432 C   0  0  0  0  0  0  0  0  0  0  0  0
    7.0628  -16.0472   25.7379 C   0  0  0  0  0  0  0  0  0  0  0  0
    6.0640  -15.1650   25.5816 N   0  0  0  0  0  0  0  0  0  0  0  0
    6.5030  -13.9379   25.9750 C   0  0  0  0  0  0  0  0  0  0  0  0
    5.9153  -12.6946   26.0287 C   0  0  0  0  0  0  0  0  0  0  0  0
    6.6125  -11.5991   26.4819 C   0  0  0  0  0  0  0  0  0  0  0  0
    7.9291  -11.7193   26.8975 C   0  0  0  0  0  0  0  0  0  0  0  0
    8.5023  -12.9666   26.8381 C   0  0  0  0  0  0  0  0  0  0  0  0
    7.8124  -14.0828   26.3833 C   0  0  0  0  0  0  0  0  0  0  0  0
   10.8579  -17.6316   25.3643 C   0  0  0  0  0  0  0  0  0  0  0  0
   10.5912  -18.5732   24.5808 O   0  0  0  0  0  0  0  0  0  0  0  0
   11.8058  -17.9398   26.3540 O   0  0  0  0  0  0  0  0  0  0  0  0
  1  2  1  0
  3  2  1  0
  4  3  1  0
  5  6  1  1
  5  4  1  0
  7  8  2  0
  7  5  1  0
 10  9  1  6
 10 12  1  0
 11 10  1  0
 12 13  1  1
 13  7  1  0
 14 12  1  0
 14 16  1  0
 15 14  2  0
 17 16  1  0
 17 28  1  0
 17 18  1  1
 19 18  1  0
 20 19  2  0
 21 20  1  0
 22 21  1  0
 22 27  2  0
 23 24  2  0
 23 22  1  0
 24 25  1  0
 25 26  2  0
 26 27  1  0
 27 19  1  0
 28 29  2  0
 28 30  1  0
M  END
$$$$
