MTW.pdb
     RDKit          3D

 30 31  0  0  1  0  0  0  0  0999 V2000
    9.0135  -11.3229   19.6903 C   0  0  0  0  0  0  0  0  0  0  0  0
    7.6787  -12.0628   18.7212 S   0  0  0  0  0  0  0  0  0  0  0  0
    7.9249  -13.8156   18.4256 C   0  0  0  0  0  0  0  0  0  0  0  0
    9.0907  -14.3835   19.2271 C   0  0  0  0  0  0  0  0  0  0  0  0
    9.0674  -15.8638   19.0656 C   0  0  2  0  0  0  0  0  0  0  0  0
    8.0616  -16.1716   18.0391 N   0  0  0  0  0  0  0  0  0  0  0  0
    8.7536  -16.6076   20.2930 C   0  0  0  0  0  0  0  0  0  0  0  0
    7.5474  -16.7449   20.6372 O   0  0  0  0  0  0  0  0  0  0  0  0
    9.2150  -20.0575   21.4135 C   0  0  0  0  0  0  0  0  0  0  0  0
    9.8810  -19.2144   22.4781 C   0  0  1  0  0  0  0  0  0  0  0  0
   11.2635  -19.1864   22.3247 O   0  0  0  0  0  0  0  0  0  0  0  0
    9.3872  -17.7791   22.4365 C   0  0  2  0  0  0  0  0  0  0  0  0
    9.7244  -17.2002   21.1460 N   0  0  0  0  0  0  0  0  0  0  0  0
   10.0303  -17.0321   23.5487 C   0  0  0  0  0  0  0  0  0  0  0  0
   10.9442  -16.2061   23.3016 O   0  0  0  0  0  0  0  0  0  0  0  0
    9.6619  -17.2033   24.9053 N   0  0  0  0  0  0  0  0  0  0  0  0
   10.3839  -16.6657   26.0299 C   0  0  1  0  0  0  0  0  0  0  0  0
   10.0456  -15.2454   26.3307 C   0  0  0  0  0  0  0  0  0  0  0  0
    8.5743  -15.0769   26.2972 C   0  0  0  0  0  0  0  0  0  0  0  0
    7.5949  -16.0459   26.1003 C   0  0  0  0  0  0  0  0  0  0  0  0
    6.3737  -15.4911   26.1363 N   0  0  0  0  0  0  0  0  0  0  0  0
    6.5103  -14.1545   26.3558 C   0  0  0  0  0  0  0  0  0  0  0  0
    5.6124  -13.1193   26.4826 C   0  0  0  0  0  0  0  0  0  0  0  0
    6.0408  -11.8317   26.7068 C   0  0  0  0  0  0  0  0  0  0  0  0
    7.3922  -11.5426   26.8111 C   0  0  0  0  0  0  0  0  0  0  0  0
    8.2765  -12.5863   26.6823 C   0  0  0  0  0  0  0  0  0  0  0  0
    7.8606  -13.8918   26.4559 C   0  0  0  0  0  0  0  0  0  0  0  0
   10.0801  -17.5057   27.2137 C   0  0  0  0  0  0  0  0  0  0  0  0
    9.3002  -18.4871   27.2085 O   0  0  0  0  0  0  0  0  0  0  0  0
   10.6758  -17.2337   28.4562 O   0  0  0  0  0  0  0  0  0  0  0  0
  1  2  1  0
  3  2  1  0
  4  3  1  0
  5  6  1  6
  5  4  1  0
  7  8  2  0
  7  5  1  0
 10  9  1  6
 10 12  1  0
 11 10  1  0
 12 13  1  6
 13  7  1  0
 14 12  1  0
 14 16  1  0
 15 14  2  0
 17 16  1  0
 17 28  1  0
 17 18  1  1
 19 18  1  0
 20 19  2  0
 21 20  1  0
 22 21  1  0
 22 27  2  0
 23 24  2  0
 23 22  1  0
 24 25  1  0
 25 26  2  0
 26 27  1  0
 27 19  1  0
 28 29  2  0
 28 30  1  0
M  END
$$$$
