MTW.pdb
     RDKit          3D

 30 31  0  0  1  0  0  0  0  0999 V2000
    8.3351  -12.0553   20.9123 C   0  0  0  0  0  0  0  0  0  0  0  0
    8.5217  -11.9834   19.1155 S   0  0  0  0  0  0  0  0  0  0  0  0
    8.8429  -13.5912   18.3862 C   0  0  0  0  0  0  0  0  0  0  0  0
    7.8971  -14.6671   18.9076 C   0  0  0  0  0  0  0  0  0  0  0  0
    8.6800  -15.9270   19.0397 C   0  0  2  0  0  0  0  0  0  0  0  0
    8.2862  -16.8004   17.9253 N   0  0  0  0  0  0  0  0  0  0  0  0
    8.4824  -16.6390   20.3094 C   0  0  0  0  0  0  0  0  0  0  0  0
    7.3080  -16.8493   20.7200 O   0  0  0  0  0  0  0  0  0  0  0  0
    9.0549  -20.0105   21.3697 C   0  0  0  0  0  0  0  0  0  0  0  0
    9.8152  -19.1788   22.3785 C   0  0  1  0  0  0  0  0  0  0  0  0
   11.1734  -19.1220   22.0822 O   0  0  0  0  0  0  0  0  0  0  0  0
    9.2969  -17.7522   22.4227 C   0  0  2  0  0  0  0  0  0  0  0  0
    9.5349  -17.1225   21.1340 N   0  0  0  0  0  0  0  0  0  0  0  0
   10.0032  -17.0329   23.5146 C   0  0  0  0  0  0  0  0  0  0  0  0
   10.9591  -16.2646   23.2418 O   0  0  0  0  0  0  0  0  0  0  0  0
    9.6506  -17.1681   24.8795 N   0  0  0  0  0  0  0  0  0  0  0  0
   10.3129  -16.5027   25.9720 C   0  0  1  0  0  0  0  0  0  0  0  0
    9.9630  -15.0584   26.0893 C   0  0  0  0  0  0  0  0  0  0  0  0
    8.4947  -14.9013   25.9737 C   0  0  0  0  0  0  0  0  0  0  0  0
    7.5273  -15.8884   25.8095 C   0  0  0  0  0  0  0  0  0  0  0  0
    6.3048  -15.3393   25.7438 N   0  0  0  0  0  0  0  0  0  0  0  0
    6.4285  -13.9887   25.8615 C   0  0  0  0  0  0  0  0  0  0  0  0
    5.5238  -12.9517   25.8628 C   0  0  0  0  0  0  0  0  0  0  0  0
    5.9389  -11.6479   26.0027 C   0  0  0  0  0  0  0  0  0  0  0  0
    7.2833  -11.3439   26.1466 C   0  0  0  0  0  0  0  0  0  0  0  0
    8.1746  -12.3896   26.1434 C   0  0  0  0  0  0  0  0  0  0  0  0
    7.7721  -13.7113   26.0032 C   0  0  0  0  0  0  0  0  0  0  0  0
    9.9437  -17.2023   27.2263 C   0  0  0  0  0  0  0  0  0  0  0  0
    9.1196  -18.1441   27.2998 O   0  0  0  0  0  0  0  0  0  0  0  0
   10.5230  -16.8302   28.4506 O   0  0  0  0  0  0  0  0  0  0  0  0
  1  2  1  0
  3  2  1  0
  4  3  1  0
  5  6  1  6
  5  4  1  0
  7  8  2  0
  7  5  1  0
 10  9  1  6
 10 12  1  0
 11 10  1  0
 12 13  1  6
 13  7  1  0
 14 12  1  0
 14 16  1  0
 15 14  2  0
 17 16  1  0
 17 28  1  0
 17 18  1  1
 19 18  1  0
 20 19  2  0
 21 20  1  0
 22 21  1  0
 22 27  2  0
 23 24  2  0
 23 22  1  0
 24 25  1  0
 25 26  2  0
 26 27  1  0
 27 19  1  0
 28 29  2  0
 28 30  1  0
M  END
$$$$
