MTW.pdb
     RDKit          3D

 30 31  0  0  1  0  0  0  0  0999 V2000
    9.9588  -10.7118   20.4648 C   0  0  0  0  0  0  0  0  0  0  0  0
    8.9923  -11.6947   19.2952 S   0  0  0  0  0  0  0  0  0  0  0  0
    9.2017  -13.4609   19.5336 C   0  0  0  0  0  0  0  0  0  0  0  0
    8.3627  -14.2835   18.5623 C   0  0  0  0  0  0  0  0  0  0  0  0
    8.7126  -15.7162   18.7692 C   0  0  2  0  0  0  0  0  0  0  0  0
    8.0021  -16.4884   17.7403 N   0  0  0  0  0  0  0  0  0  0  0  0
    8.3697  -16.2434   20.0968 C   0  0  0  0  0  0  0  0  0  0  0  0
    7.1688  -16.5358   20.3508 O   0  0  0  0  0  0  0  0  0  0  0  0
    8.3015  -19.2314   21.2631 C   0  0  0  0  0  0  0  0  0  0  0  0
    9.2107  -18.5880   22.2862 C   0  0  1  0  0  0  0  0  0  0  0  0
   10.5531  -18.7528   21.9601 O   0  0  0  0  0  0  0  0  0  0  0  0
    8.9476  -17.0969   22.4004 C   0  0  2  0  0  0  0  0  0  0  0  0
    9.3060  -16.4561   21.1454 N   0  0  0  0  0  0  0  0  0  0  0  0
    9.7557  -16.5656   23.5288 C   0  0  0  0  0  0  0  0  0  0  0  0
   10.8343  -15.9643   23.2973 O   0  0  0  0  0  0  0  0  0  0  0  0
    9.3687  -16.7025   24.8841 N   0  0  0  0  0  0  0  0  0  0  0  0
   10.1531  -16.2720   26.0130 C   0  0  1  0  0  0  0  0  0  0  0  0
    9.3372  -15.6970   27.1203 C   0  0  0  0  0  0  0  0  0  0  0  0
    7.9563  -15.4637   26.6382 C   0  0  0  0  0  0  0  0  0  0  0  0
    7.0268  -16.3956   26.1856 C   0  0  0  0  0  0  0  0  0  0  0  0
    5.8853  -15.7848   25.8329 N   0  0  0  0  0  0  0  0  0  0  0  0
    6.0268  -14.4468   26.0403 C   0  0  0  0  0  0  0  0  0  0  0  0
    5.1936  -13.3670   25.8563 C   0  0  0  0  0  0  0  0  0  0  0  0
    5.6087  -12.0909   26.1579 C   0  0  0  0  0  0  0  0  0  0  0  0
    6.8808  -11.8588   26.6565 C   0  0  0  0  0  0  0  0  0  0  0  0
    7.7010  -12.9465   26.8348 C   0  0  0  0  0  0  0  0  0  0  0  0
    7.2976  -14.2411   26.5354 C   0  0  0  0  0  0  0  0  0  0  0  0
   10.9120  -17.4422   26.5169 C   0  0  0  0  0  0  0  0  0  0  0  0
   10.6707  -18.6332   26.2087 O   0  0  0  0  0  0  0  0  0  0  0  0
   11.9871  -17.2700   27.4042 O   0  0  0  0  0  0  0  0  0  0  0  0
  1  2  1  0
  3  2  1  0
  4  3  1  0
  5  6  1  6
  5  4  1  0
  7  8  2  0
  7  5  1  0
 10  9  1  6
 10 12  1  0
 11 10  1  0
 12 13  1  6
 13  7  1  0
 14 12  1  0
 14 16  1  0
 15 14  2  0
 17 16  1  0
 17 28  1  0
 17 18  1  1
 19 18  1  0
 20 19  2  0
 21 20  1  0
 22 21  1  0
 22 27  2  0
 23 24  2  0
 23 22  1  0
 24 25  1  0
 25 26  2  0
 26 27  1  0
 27 19  1  0
 28 29  2  0
 28 30  1  0
M  END
$$$$
