MTW.pdb
     RDKit          3D

 30 31  0  0  1  0  0  0  0  0999 V2000
    8.1378  -11.2947   20.4041 C   0  0  0  0  0  0  0  0  0  0  0  0
    8.2463  -11.8387   18.6835 S   0  0  0  0  0  0  0  0  0  0  0  0
    8.8435  -13.5235   18.5247 C   0  0  0  0  0  0  0  0  0  0  0  0
    8.0543  -14.5049   19.3837 C   0  0  0  0  0  0  0  0  0  0  0  0
    8.7017  -15.8394   19.2501 C   0  0  2  0  0  0  0  0  0  0  0  0
    8.0759  -16.5113   18.1027 N   0  0  0  0  0  0  0  0  0  0  0  0
    8.5866  -16.6961   20.4380 C   0  0  0  0  0  0  0  0  0  0  0  0
    7.8283  -17.7038   20.3981 O   0  0  0  0  0  0  0  0  0  0  0  0
    8.8856  -19.3386   21.3023 C   0  0  0  0  0  0  0  0  0  0  0  0
    9.6728  -18.7313   22.4420 C   0  0  1  0  0  0  0  0  0  0  0  0
   11.0194  -18.5902   22.1219 O   0  0  0  0  0  0  0  0  0  0  0  0
    9.1436  -17.3562   22.8092 C   0  0  2  0  0  0  0  0  0  0  0  0
    9.2785  -16.4754   21.6603 N   0  0  0  0  0  0  0  0  0  0  0  0
    9.9211  -16.8521   23.9711 C   0  0  0  0  0  0  0  0  0  0  0  0
   11.0550  -16.3419   23.7913 O   0  0  0  0  0  0  0  0  0  0  0  0
    9.4438  -16.9162   25.3028 N   0  0  0  0  0  0  0  0  0  0  0  0
   10.1597  -16.4412   26.4590 C   0  0  1  0  0  0  0  0  0  0  0  0
    9.2869  -15.7756   27.4677 C   0  0  0  0  0  0  0  0  0  0  0  0
    8.0391  -15.3232   26.8102 C   0  0  0  0  0  0  0  0  0  0  0  0
    6.9776  -16.0922   26.3421 C   0  0  0  0  0  0  0  0  0  0  0  0
    6.0316  -15.3067   25.8051 N   0  0  0  0  0  0  0  0  0  0  0  0
    6.4368  -14.0106   25.9023 C   0  0  0  0  0  0  0  0  0  0  0  0
    5.8754  -12.8123   25.5241 C   0  0  0  0  0  0  0  0  0  0  0  0
    6.5245  -11.6214   25.7518 C   0  0  0  0  0  0  0  0  0  0  0  0
    7.7647  -11.5971   26.3698 C   0  0  0  0  0  0  0  0  0  0  0  0
    8.3124  -12.8012   26.7416 C   0  0  0  0  0  0  0  0  0  0  0  0
    7.6704  -14.0122   26.5192 C   0  0  0  0  0  0  0  0  0  0  0  0
   10.8402  -17.6006   27.0851 C   0  0  0  0  0  0  0  0  0  0  0  0
   10.6233  -18.7989   26.7874 O   0  0  0  0  0  0  0  0  0  0  0  0
   11.8047  -17.4085   28.0879 O   0  0  0  0  0  0  0  0  0  0  0  0
  1  2  1  0
  3  2  1  0
  4  3  1  0
  5  6  1  6
  5  4  1  0
  7  8  2  0
  7  5  1  0
 10  9  1  6
 10 12  1  0
 11 10  1  0
 12 13  1  6
 13  7  1  0
 14 12  1  0
 14 16  1  0
 15 14  2  0
 17 16  1  0
 17 28  1  0
 17 18  1  1
 19 18  1  0
 20 19  2  0
 21 20  1  0
 22 21  1  0
 22 27  2  0
 23 24  2  0
 23 22  1  0
 24 25  1  0
 25 26  2  0
 26 27  1  0
 27 19  1  0
 28 29  2  0
 28 30  1  0
M  END
$$$$
