MTW.pdb
     RDKit          3D

 30 31  0  0  1  0  0  0  0  0999 V2000
    8.3586  -11.7919   17.8101 C   0  0  0  0  0  0  0  0  0  0  0  0
    8.9827  -12.0724   19.4835 S   0  0  0  0  0  0  0  0  0  0  0  0
    8.7164  -13.7540   20.0507 C   0  0  0  0  0  0  0  0  0  0  0  0
    7.6423  -14.4771   19.2461 C   0  0  0  0  0  0  0  0  0  0  0  0
    7.9829  -15.9269   19.2443 C   0  0  2  0  0  0  0  0  0  0  0  0
    6.9312  -16.6178   18.4850 N   0  0  0  0  0  0  0  0  0  0  0  0
    8.0954  -16.5298   20.5792 C   0  0  0  0  0  0  0  0  0  0  0  0
    7.0476  -16.7328   21.2524 O   0  0  0  0  0  0  0  0  0  0  0  0
    9.5725  -19.8420   21.3094 C   0  0  0  0  0  0  0  0  0  0  0  0
   10.2185  -18.8779   22.2794 C   0  0  1  0  0  0  0  0  0  0  0  0
   11.4802  -18.4801   21.8488 O   0  0  0  0  0  0  0  0  0  0  0  0
    9.3794  -17.6248   22.4557 C   0  0  2  0  0  0  0  0  0  0  0  0
    9.3212  -16.9127   21.1893 N   0  0  0  0  0  0  0  0  0  0  0  0
   10.0027  -16.7913   23.5164 C   0  0  0  0  0  0  0  0  0  0  0  0
   10.8622  -15.9279   23.2095 O   0  0  0  0  0  0  0  0  0  0  0  0
    9.6743  -16.9188   24.8881 N   0  0  0  0  0  0  0  0  0  0  0  0
   10.4418  -16.3659   25.9744 C   0  0  1  0  0  0  0  0  0  0  0  0
   10.0352  -14.9807   26.3461 C   0  0  0  0  0  0  0  0  0  0  0  0
    8.5629  -14.9294   26.5005 C   0  0  0  0  0  0  0  0  0  0  0  0
    7.6459  -15.9735   26.4213 C   0  0  0  0  0  0  0  0  0  0  0  0
    6.3992  -15.5172   26.6163 N   0  0  0  0  0  0  0  0  0  0  0  0
    6.4567  -14.1735   26.8275 C   0  0  0  0  0  0  0  0  0  0  0  0
    5.5032  -13.2125   27.0754 C   0  0  0  0  0  0  0  0  0  0  0  0
    5.8537  -11.8946   27.2539 C   0  0  0  0  0  0  0  0  0  0  0  0
    7.1804  -11.4990   27.1886 C   0  0  0  0  0  0  0  0  0  0  0  0
    8.1208  -12.4696   26.9405 C   0  0  0  0  0  0  0  0  0  0  0  0
    7.7838  -13.8043   26.7579 C   0  0  0  0  0  0  0  0  0  0  0  0
   10.2824  -17.2577   27.1486 C   0  0  0  0  0  0  0  0  0  0  0  0
    9.5664  -18.2864   27.1689 O   0  0  0  0  0  0  0  0  0  0  0  0
   10.9544  -16.9843   28.3514 O   0  0  0  0  0  0  0  0  0  0  0  0
  1  2  1  0
  3  2  1  0
  4  3  1  0
  5  6  1  6
  5  4  1  0
  7  8  2  0
  7  5  1  0
 10  9  1  6
 10 12  1  0
 11 10  1  0
 12 13  1  6
 13  7  1  0
 14 12  1  0
 14 16  1  0
 15 14  2  0
 17 16  1  0
 17 28  1  0
 17 18  1  1
 19 18  1  0
 20 19  2  0
 21 20  1  0
 22 21  1  0
 22 27  2  0
 23 24  2  0
 23 22  1  0
 24 25  1  0
 25 26  2  0
 26 27  1  0
 27 19  1  0
 28 29  2  0
 28 30  1  0
M  END
$$$$
