MTW.pdb
     RDKit          3D

 30 31  0  0  1  0  0  0  0  0999 V2000
    9.3712  -11.4708   20.1341 C   0  0  0  0  0  0  0  0  0  0  0  0
    7.8105  -12.2297   19.6276 S   0  0  0  0  0  0  0  0  0  0  0  0
    7.8999  -14.0207   19.5583 C   0  0  0  0  0  0  0  0  0  0  0  0
    9.2092  -14.5157   18.9544 C   0  0  0  0  0  0  0  0  0  0  0  0
    9.1903  -16.0042   19.0010 C   0  0  2  0  0  0  0  0  0  0  0  0
    8.1448  -16.4532   18.0709 N   0  0  0  0  0  0  0  0  0  0  0  0
    8.9338  -16.5707   20.3319 C   0  0  0  0  0  0  0  0  0  0  0  0
    7.7415  -16.7361   20.7103 O   0  0  0  0  0  0  0  0  0  0  0  0
    9.8125  -19.8961   21.5231 C   0  0  0  0  0  0  0  0  0  0  0  0
   10.3602  -18.9469   22.5655 C   0  0  1  0  0  0  0  0  0  0  0  0
   11.7189  -18.7091   22.3843 O   0  0  0  0  0  0  0  0  0  0  0  0
    9.6510  -17.6051   22.5193 C   0  0  2  0  0  0  0  0  0  0  0  0
    9.9468  -16.9574   21.2516 N   0  0  0  0  0  0  0  0  0  0  0  0
   10.1235  -16.7878   23.6670 C   0  0  0  0  0  0  0  0  0  0  0  0
   10.9307  -15.8448   23.4735 O   0  0  0  0  0  0  0  0  0  0  0  0
    9.7046  -17.0181   25.0001 N   0  0  0  0  0  0  0  0  0  0  0  0
   10.0823  -16.2135   26.1336 C   0  0  1  0  0  0  0  0  0  0  0  0
    9.0162  -16.1078   27.1703 C   0  0  0  0  0  0  0  0  0  0  0  0
    7.7874  -15.5586   26.5520 C   0  0  0  0  0  0  0  0  0  0  0  0
    6.7257  -16.2476   25.9728 C   0  0  0  0  0  0  0  0  0  0  0  0
    5.8004  -15.3874   25.5210 N   0  0  0  0  0  0  0  0  0  0  0  0
    6.2199  -14.1197   25.7861 C   0  0  0  0  0  0  0  0  0  0  0  0
    5.6811  -12.8754   25.5501 C   0  0  0  0  0  0  0  0  0  0  0  0
    6.3406  -11.7318   25.9360 C   0  0  0  0  0  0  0  0  0  0  0  0
    7.5686  -11.8031   26.5744 C   0  0  0  0  0  0  0  0  0  0  0  0
    8.0937  -13.0520   26.8030 C   0  0  0  0  0  0  0  0  0  0  0  0
    7.4410  -14.2164   26.4200 C   0  0  0  0  0  0  0  0  0  0  0  0
   11.2977  -16.8124   26.7364 C   0  0  0  0  0  0  0  0  0  0  0  0
   11.9158  -16.3337   27.7163 O   0  0  0  0  0  0  0  0  0  0  0  0
   11.8435  -17.9984   26.2183 O   0  0  0  0  0  0  0  0  0  0  0  0
  1  2  1  0
  3  2  1  0
  4  3  1  0
  5  6  1  6
  5  4  1  0
  7  8  2  0
  7  5  1  0
 10  9  1  6
 10 12  1  0
 11 10  1  0
 12 13  1  6
 13  7  1  0
 14 12  1  0
 14 16  1  0
 15 14  2  0
 17 16  1  0
 17 28  1  0
 17 18  1  1
 19 18  1  0
 20 19  2  0
 21 20  1  0
 22 21  1  0
 22 27  2  0
 23 24  2  0
 23 22  1  0
 24 25  1  0
 25 26  2  0
 26 27  1  0
 27 19  1  0
 28 29  2  0
 28 30  1  0
M  END
$$$$
