MTW.pdb
     RDKit          3D

 30 31  0  0  1  0  0  0  0  0999 V2000
    8.2572  -11.8184   19.8403 C   0  0  0  0  0  0  0  0  0  0  0  0
    7.6379  -12.3967   18.2433 S   0  0  0  0  0  0  0  0  0  0  0  0
    8.1640  -14.0688   17.8592 C   0  0  0  0  0  0  0  0  0  0  0  0
    8.6544  -14.8226   19.0901 C   0  0  0  0  0  0  0  0  0  0  0  0
    9.0954  -16.1731   18.6431 C   0  0  2  0  0  0  0  0  0  0  0  0
    7.9219  -16.8423   18.0645 N   0  0  0  0  0  0  0  0  0  0  0  0
    9.6605  -17.0144   19.7065 C   0  0  0  0  0  0  0  0  0  0  0  0
    8.9347  -17.8955   20.2443 O   0  0  0  0  0  0  0  0  0  0  0  0
   13.4663  -18.4250   22.6014 C   0  0  0  0  0  0  0  0  0  0  0  0
   12.9451  -17.7435   21.3559 C   0  0  1  0  0  0  0  0  0  0  0  0
   13.2415  -18.4703   20.2072 O   0  0  0  0  0  0  0  0  0  0  0  0
   11.4377  -17.5690   21.4102 C   0  0  2  0  0  0  0  0  0  0  0  0
   10.9933  -16.9133   20.1910 N   0  0  0  0  0  0  0  0  0  0  0  0
   11.1047  -16.7597   22.6114 C   0  0  0  0  0  0  0  0  0  0  0  0
   11.2743  -15.5150   22.5940 O   0  0  0  0  0  0  0  0  0  0  0  0
   10.5944  -17.3269   23.8045 N   0  0  0  0  0  0  0  0  0  0  0  0
    9.7753  -16.6311   24.7635 C   0  0  1  0  0  0  0  0  0  0  0  0
    8.5686  -15.9931   24.1641 C   0  0  0  0  0  0  0  0  0  0  0  0
    7.7542  -15.3827   25.2403 C   0  0  0  0  0  0  0  0  0  0  0  0
    7.0226  -16.0172   26.2400 C   0  0  0  0  0  0  0  0  0  0  0  0
    6.4167  -15.1116   27.0230 N   0  0  0  0  0  0  0  0  0  0  0  0
    6.7275  -13.8668   26.5679 C   0  0  0  0  0  0  0  0  0  0  0  0
    6.3910  -12.5972   26.9788 C   0  0  0  0  0  0  0  0  0  0  0  0
    6.8611  -11.4884   26.3146 C   0  0  0  0  0  0  0  0  0  0  0  0
    7.6884  -11.6214   25.2107 C   0  0  0  0  0  0  0  0  0  0  0  0
    8.0156  -12.8951   24.8124 C   0  0  0  0  0  0  0  0  0  0  0  0
    7.5497  -14.0249   25.4718 C   0  0  0  0  0  0  0  0  0  0  0  0
    9.3541  -17.6054   25.7991 C   0  0  0  0  0  0  0  0  0  0  0  0
    8.9729  -18.7759   25.5619 O   0  0  0  0  0  0  0  0  0  0  0  0
    9.3602  -17.2524   27.1586 O   0  0  0  0  0  0  0  0  0  0  0  0
  1  2  1  0
  3  2  1  0
  4  3  1  0
  5  6  1  1
  5  4  1  0
  7  8  2  0
  7  5  1  0
 10  9  1  1
 10 12  1  0
 11 10  1  0
 12 13  1  6
 13  7  1  0
 14 12  1  0
 14 16  1  0
 15 14  2  0
 17 16  1  0
 17 28  1  0
 17 18  1  6
 19 18  1  0
 20 19  2  0
 21 20  1  0
 22 21  1  0
 22 27  2  0
 23 24  2  0
 23 22  1  0
 24 25  1  0
 25 26  2  0
 26 27  1  0
 27 19  1  0
 28 29  2  0
 28 30  1  0
M  END
$$$$
