MTW.pdb
     RDKit          3D

 30 31  0  0  1  0  0  0  0  0999 V2000
   10.6608  -12.8815   20.7263 C   0  0  0  0  0  0  0  0  0  0  0  0
    9.2601  -12.1525   19.8462 S   0  0  0  0  0  0  0  0  0  0  0  0
    7.7621  -13.1294   19.9955 C   0  0  0  0  0  0  0  0  0  0  0  0
    7.4787  -13.9561   18.7465 C   0  0  0  0  0  0  0  0  0  0  0  0
    8.2290  -15.2361   18.8759 C   0  0  2  0  0  0  0  0  0  0  0  0
    7.9381  -16.0317   17.6750 N   0  0  0  0  0  0  0  0  0  0  0  0
    7.8964  -16.0210   20.0723 C   0  0  0  0  0  0  0  0  0  0  0  0
    6.6850  -16.2538   20.3377 O   0  0  0  0  0  0  0  0  0  0  0  0
    7.8537  -19.2307   20.5407 C   0  0  0  0  0  0  0  0  0  0  0  0
    8.6905  -18.8443   21.7399 C   0  0  1  0  0  0  0  0  0  0  0  0
   10.0489  -19.0288   21.5026 O   0  0  0  0  0  0  0  0  0  0  0  0
    8.4852  -17.3864   22.1114 C   0  0  2  0  0  0  0  0  0  0  0  0
    8.8542  -16.5532   20.9783 N   0  0  0  0  0  0  0  0  0  0  0  0
    9.3247  -17.0851   23.3000 C   0  0  0  0  0  0  0  0  0  0  0  0
   10.5385  -16.7965   23.1519 O   0  0  0  0  0  0  0  0  0  0  0  0
    8.8210  -17.1057   24.6234 N   0  0  0  0  0  0  0  0  0  0  0  0
    9.6154  -16.9214   25.8108 C   0  0  1  0  0  0  0  0  0  0  0  0
    8.9701  -16.0436   26.8285 C   0  0  0  0  0  0  0  0  0  0  0  0
    8.8483  -14.6720   26.2826 C   0  0  0  0  0  0  0  0  0  0  0  0
    9.8200  -13.9002   25.6522 C   0  0  0  0  0  0  0  0  0  0  0  0
    9.3162  -12.7063   25.3042 N   0  0  0  0  0  0  0  0  0  0  0  0
    8.0118  -12.6561   25.6905 C   0  0  0  0  0  0  0  0  0  0  0  0
    7.0310  -11.6958   25.5903 C   0  0  0  0  0  0  0  0  0  0  0  0
    5.7657  -11.9199   26.0806 C   0  0  0  0  0  0  0  0  0  0  0  0
    5.4446  -13.1224   26.6901 C   0  0  0  0  0  0  0  0  0  0  0  0
    6.4339  -14.0713   26.7827 C   0  0  0  0  0  0  0  0  0  0  0  0
    7.7163  -13.8611   26.2930 C   0  0  0  0  0  0  0  0  0  0  0  0
    9.8709  -18.2566   26.4032 C   0  0  0  0  0  0  0  0  0  0  0  0
   10.5451  -18.4575   27.4408 O   0  0  0  0  0  0  0  0  0  0  0  0
    9.3486  -19.4161   25.8069 O   0  0  0  0  0  0  0  0  0  0  0  0
  1  2  1  0
  3  2  1  0
  4  3  1  0
  5  6  1  6
  5  4  1  0
  7  8  2  0
  7  5  1  0
 10  9  1  6
 10 12  1  0
 11 10  1  0
 12 13  1  6
 13  7  1  0
 14 12  1  0
 14 16  1  0
 15 14  2  0
 17 16  1  0
 17 28  1  0
 17 18  1  1
 19 18  1  0
 20 19  2  0
 21 20  1  0
 22 21  1  0
 22 27  2  0
 23 24  2  0
 23 22  1  0
 24 25  1  0
 25 26  2  0
 26 27  1  0
 27 19  1  0
 28 29  2  0
 28 30  1  0
M  END
$$$$
