QNW.pdb
     RDKit          3D

 32 33  0  0  1  0  0  0  0  0999 V2000
   28.6524  -16.5620  -18.4801 N   0  0  0  0  0  0  0  0  0  0  0  0
   29.6256  -16.6151  -17.4662 C   0  0  0  0  0  0  0  0  0  0  0  0
   30.4398  -15.6625  -17.3500 O   0  0  0  0  0  0  0  0  0  0  0  0
   29.6867  -17.7665  -16.5599 C   0  0  0  0  0  0  0  0  0  0  0  0
   28.2950  -18.2167  -16.1331 C   0  0  0  0  0  0  0  0  0  0  0  0
   28.4777  -19.3315  -15.1017 C   0  0  2  0  0  0  0  0  0  0  0  0
   28.6188  -20.5592  -15.8470 N   0  0  0  0  0  0  0  0  0  0  0  0
   27.2562  -19.4150  -14.2792 C   0  0  0  0  0  0  0  0  0  0  0  0
   26.2113  -18.8588  -14.7603 O   0  0  0  0  0  0  0  0  0  0  0  0
   23.5573  -21.4673  -13.8870 N   0  0  0  0  0  0  0  0  0  0  0  0
   24.6598  -22.2823  -14.2243 C   0  0  0  0  0  0  0  0  0  0  0  0
   24.4629  -23.1737  -15.0885 O   0  0  0  0  0  0  0  0  0  0  0  0
   25.9967  -22.1286  -13.6155 C   0  0  0  0  0  0  0  0  0  0  0  0
   26.1108  -20.9394  -12.7005 C   0  0  2  0  0  0  0  0  0  0  0  0
   27.2250  -20.0694  -13.0265 N   0  0  0  0  0  0  0  0  0  0  0  0
   26.2763  -21.4186  -11.3051 C   0  0  0  0  0  0  0  0  0  0  0  0
   27.3210  -21.9487  -10.9023 O   0  0  0  0  0  0  0  0  0  0  0  0
   25.2222  -21.2919  -10.3358 N   0  0  0  0  0  0  0  0  0  0  0  0
   25.4614  -21.1690   -8.9252 C   0  0  1  0  0  0  0  0  0  0  0  0
   26.3191  -20.0087   -8.5460 C   0  0  0  0  0  0  0  0  0  0  0  0
   27.5769  -20.3551   -7.8870 C   0  0  0  0  0  0  0  0  0  0  0  0
   28.6317  -21.0301   -8.4874 C   0  0  0  0  0  0  0  0  0  0  0  0
   29.6460  -21.1950   -7.6222 N   0  0  0  0  0  0  0  0  0  0  0  0
   29.2721  -20.6318   -6.4442 C   0  0  0  0  0  0  0  0  0  0  0  0
   29.8774  -20.4912   -5.2149 C   0  0  0  0  0  0  0  0  0  0  0  0
   29.2593  -19.8535   -4.1409 C   0  0  0  0  0  0  0  0  0  0  0  0
   27.9924  -19.3545   -4.3487 C   0  0  0  0  0  0  0  0  0  0  0  0
   27.3474  -19.4696   -5.5549 C   0  0  0  0  0  0  0  0  0  0  0  0
   28.0030  -20.1123   -6.5938 C   0  0  0  0  0  0  0  0  0  0  0  0
   24.1097  -21.0022   -8.3052 C   0  0  0  0  0  0  0  0  0  0  0  0
   23.2284  -20.3852   -8.9610 O   0  0  0  0  0  0  0  0  0  0  0  0
   23.7674  -21.4824   -7.0584 O   0  0  0  0  0  0  0  0  0  0  0  0
  1  2  1  0
  2  3  2  0
  2  4  1  0
  4  5  1  0
  6  5  1  0
  6  7  1  6
  8  9  2  0
  8  6  1  0
 11 10  1  0
 11 13  1  0
 12 11  2  0
 14 13  1  6
 14 15  1  0
 15  8  1  0
 16 14  1  0
 16 18  1  0
 17 16  2  0
 19 18  1  0
 19 30  1  0
 19 20  1  6
 21 20  1  0
 21 29  1  0
 22 21  2  0
 23 22  1  0
 23 24  1  0
 24 25  1  0
 24 29  2  0
 25 26  2  0
 26 27  1  0
 28 27  2  0
 29 28  1  0
 30 31  2  0
 30 32  1  0
M  END
$$$$
