QNW.pdb
     RDKit          3D

 32 33  0  0  1  0  0  0  0  0999 V2000
   31.2001  -24.0318  -14.2269 N   0  0  0  0  0  0  0  0  0  0  0  0
   31.0831  -24.0728  -15.6279 C   0  0  0  0  0  0  0  0  0  0  0  0
   31.8660  -24.8066  -16.2854 O   0  0  0  0  0  0  0  0  0  0  0  0
   30.0616  -23.2697  -16.3081 C   0  0  0  0  0  0  0  0  0  0  0  0
   29.2538  -22.4384  -15.3192 C   0  0  0  0  0  0  0  0  0  0  0  0
   28.1627  -21.7223  -16.1172 C   0  0  2  0  0  0  0  0  0  0  0  0
   28.8343  -20.7561  -16.9527 N   0  0  0  0  0  0  0  0  0  0  0  0
   27.2860  -21.0037  -15.1735 C   0  0  0  0  0  0  0  0  0  0  0  0
   27.6308  -19.8092  -14.8788 O   0  0  0  0  0  0  0  0  0  0  0  0
   22.7387  -18.8051  -13.0340 N   0  0  0  0  0  0  0  0  0  0  0  0
   22.9776  -20.1967  -13.0405 C   0  0  0  0  0  0  0  0  0  0  0  0
   22.4180  -20.8723  -12.1402 O   0  0  0  0  0  0  0  0  0  0  0  0
   23.8363  -20.8662  -14.0383 C   0  0  0  0  0  0  0  0  0  0  0  0
   25.3027  -20.8169  -13.7038 C   0  0  2  0  0  0  0  0  0  0  0  0
   26.1256  -21.5881  -14.6163 N   0  0  0  0  0  0  0  0  0  0  0  0
   25.5016  -21.3402  -12.3289 C   0  0  0  0  0  0  0  0  0  0  0  0
   25.3842  -22.5414  -12.0498 O   0  0  0  0  0  0  0  0  0  0  0  0
   25.8449  -20.4722  -11.2355 N   0  0  0  0  0  0  0  0  0  0  0  0
   25.9829  -20.9297   -9.8813 C   0  0  1  0  0  0  0  0  0  0  0  0
   26.9741  -20.1633   -9.0715 C   0  0  0  0  0  0  0  0  0  0  0  0
   26.9945  -20.4864   -7.6462 C   0  0  0  0  0  0  0  0  0  0  0  0
   26.2102  -21.4579   -7.0379 C   0  0  0  0  0  0  0  0  0  0  0  0
   26.4614  -21.5164   -5.7196 N   0  0  0  0  0  0  0  0  0  0  0  0
   27.4121  -20.5862   -5.4445 C   0  0  0  0  0  0  0  0  0  0  0  0
   28.0588  -20.1884   -4.2952 C   0  0  0  0  0  0  0  0  0  0  0  0
   29.0215  -19.1808   -4.2845 C   0  0  0  0  0  0  0  0  0  0  0  0
   29.3160  -18.5778   -5.4873 C   0  0  0  0  0  0  0  0  0  0  0  0
   28.6992  -18.9388   -6.6593 C   0  0  0  0  0  0  0  0  0  0  0  0
   27.7480  -19.9467   -6.6197 C   0  0  0  0  0  0  0  0  0  0  0  0
   24.6262  -20.7758   -9.2688 C   0  0  0  0  0  0  0  0  0  0  0  0
   24.3985  -21.3617   -8.1769 O   0  0  0  0  0  0  0  0  0  0  0  0
   23.6076  -20.0313   -9.8257 O   0  0  0  0  0  0  0  0  0  0  0  0
  1  2  1  0
  2  3  2  0
  2  4  1  0
  4  5  1  0
  6  5  1  0
  6  7  1  6
  8  9  2  0
  8  6  1  0
 11 10  1  0
 11 13  1  0
 12 11  2  0
 14 13  1  6
 14 15  1  0
 15  8  1  0
 16 14  1  0
 16 18  1  0
 17 16  2  0
 19 18  1  0
 19 30  1  0
 19 20  1  1
 21 20  1  0
 21 29  1  0
 22 21  2  0
 23 22  1  0
 23 24  1  0
 24 25  1  0
 24 29  2  0
 25 26  2  0
 26 27  1  0
 28 27  2  0
 29 28  1  0
 30 31  2  0
 30 32  1  0
M  END
$$$$
