QNW.pdb
     RDKit          3D

 32 33  0  0  1  0  0  0  0  0999 V2000
   27.9806  -21.3578  -15.2516 N   0  0  0  0  0  0  0  0  0  0  0  0
   27.9507  -22.0935  -16.4498 C   0  0  0  0  0  0  0  0  0  0  0  0
   29.0235  -22.5751  -16.8982 O   0  0  0  0  0  0  0  0  0  0  0  0
   26.6849  -22.2938  -17.1629 C   0  0  0  0  0  0  0  0  0  0  0  0
   25.5057  -21.7332  -16.3773 C   0  0  0  0  0  0  0  0  0  0  0  0
   24.8546  -22.9061  -15.6423 C   0  0  2  0  0  0  0  0  0  0  0  0
   25.1497  -24.0882  -16.4157 N   0  0  0  0  0  0  0  0  0  0  0  0
   23.3941  -22.7004  -15.6309 C   0  0  0  0  0  0  0  0  0  0  0  0
   22.9146  -21.9963  -16.5833 O   0  0  0  0  0  0  0  0  0  0  0  0
   17.9090  -24.1243  -15.1720 N   0  0  0  0  0  0  0  0  0  0  0  0
   18.8366  -23.7792  -14.1648 C   0  0  0  0  0  0  0  0  0  0  0  0
   18.3858  -23.1651  -13.1650 O   0  0  0  0  0  0  0  0  0  0  0  0
   20.2750  -24.1051  -14.2428 C   0  0  0  0  0  0  0  0  0  0  0  0
   21.1383  -22.9380  -14.6393 C   0  0  2  0  0  0  0  0  0  0  0  0
   22.5563  -23.2441  -14.6303 N   0  0  0  0  0  0  0  0  0  0  0  0
   20.8902  -21.8140  -13.7018 C   0  0  0  0  0  0  0  0  0  0  0  0
   21.5333  -21.6668  -12.6533 O   0  0  0  0  0  0  0  0  0  0  0  0
   19.8798  -20.8253  -13.9627 N   0  0  0  0  0  0  0  0  0  0  0  0
   19.6954  -19.6556  -13.1502 C   0  0  1  0  0  0  0  0  0  0  0  0
   20.8348  -18.6935  -13.1903 C   0  0  0  0  0  0  0  0  0  0  0  0
   21.2036  -18.2226  -14.5239 C   0  0  0  0  0  0  0  0  0  0  0  0
   20.4040  -17.4325  -15.3395 C   0  0  0  0  0  0  0  0  0  0  0  0
   21.0245  -17.1657  -16.5007 N   0  0  0  0  0  0  0  0  0  0  0  0
   22.2375  -17.7756  -16.4638 C   0  0  0  0  0  0  0  0  0  0  0  0
   23.2943  -17.8601  -17.3432 C   0  0  0  0  0  0  0  0  0  0  0  0
   24.4582  -18.5700  -17.0541 C   0  0  0  0  0  0  0  0  0  0  0  0
   24.5239  -19.2015  -15.8318 C   0  0  0  0  0  0  0  0  0  0  0  0
   23.4977  -19.1468  -14.9218 C   0  0  0  0  0  0  0  0  0  0  0  0
   22.3597  -18.4282  -15.2546 C   0  0  0  0  0  0  0  0  0  0  0  0
   18.4699  -18.9863  -13.6882 C   0  0  0  0  0  0  0  0  0  0  0  0
   17.9950  -19.4052  -14.7774 O   0  0  0  0  0  0  0  0  0  0  0  0
   17.8264  -17.9375  -13.0653 O   0  0  0  0  0  0  0  0  0  0  0  0
  1  2  1  0
  2  3  2  0
  2  4  1  0
  4  5  1  0
  6  5  1  0
  6  7  1  6
  8  9  2  0
  8  6  1  0
 11 10  1  0
 11 13  1  0
 12 11  2  0
 14 13  1  1
 14 15  1  0
 15  8  1  0
 16 14  1  0
 16 18  1  0
 17 16  2  0
 19 18  1  0
 19 30  1  0
 19 20  1  6
 21 20  1  0
 21 29  1  0
 22 21  2  0
 23 22  1  0
 23 24  1  0
 24 25  1  0
 24 29  2  0
 25 26  2  0
 26 27  1  0
 28 27  2  0
 29 28  1  0
 30 31  2  0
 30 32  1  0
M  END
$$$$
