QNW.pdb
     RDKit          3D

 32 33  0  0  1  0  0  0  0  0999 V2000
   30.1610  -20.2608  -19.7446 N   0  0  0  0  0  0  0  0  0  0  0  0
   29.5961  -18.9773  -19.6372 C   0  0  0  0  0  0  0  0  0  0  0  0
   29.7308  -18.1684  -20.5918 O   0  0  0  0  0  0  0  0  0  0  0  0
   28.8613  -18.5920  -18.4279 C   0  0  0  0  0  0  0  0  0  0  0  0
   29.8069  -18.2812  -17.2742 C   0  0  0  0  0  0  0  0  0  0  0  0
   29.2954  -19.0467  -16.0526 C   0  0  2  0  0  0  0  0  0  0  0  0
   28.6404  -20.2300  -16.5561 N   0  0  0  0  0  0  0  0  0  0  0  0
   28.2964  -18.2116  -15.3597 C   0  0  0  0  0  0  0  0  0  0  0  0
   28.4451  -16.9470  -15.4657 O   0  0  0  0  0  0  0  0  0  0  0  0
   23.5259  -19.6557  -16.6326 N   0  0  0  0  0  0  0  0  0  0  0  0
   24.7595  -20.0971  -17.1590 C   0  0  0  0  0  0  0  0  0  0  0  0
   24.7170  -20.7495  -18.2326 O   0  0  0  0  0  0  0  0  0  0  0  0
   26.0592  -19.8271  -16.5115 C   0  0  0  0  0  0  0  0  0  0  0  0
   25.9505  -18.9961  -15.2617 C   0  0  2  0  0  0  0  0  0  0  0  0
   27.2281  -18.7622  -14.6153 N   0  0  0  0  0  0  0  0  0  0  0  0
   25.0525  -19.6850  -14.3010 C   0  0  0  0  0  0  0  0  0  0  0  0
   23.8464  -19.8589  -14.5237 O   0  0  0  0  0  0  0  0  0  0  0  0
   25.5391  -20.1929  -13.0473 N   0  0  0  0  0  0  0  0  0  0  0  0
   25.0388  -21.3928  -12.4372 C   0  0  1  0  0  0  0  0  0  0  0  0
   25.9852  -22.0365  -11.4803 C   0  0  0  0  0  0  0  0  0  0  0  0
   26.3156  -21.2381  -10.3015 C   0  0  0  0  0  0  0  0  0  0  0  0
   25.4041  -20.5001   -9.5577 C   0  0  0  0  0  0  0  0  0  0  0  0
   26.0152  -19.8789   -8.5354 N   0  0  0  0  0  0  0  0  0  0  0  0
   27.3337  -20.1998   -8.5935 C   0  0  0  0  0  0  0  0  0  0  0  0
   28.4336  -19.8727   -7.8316 C   0  0  0  0  0  0  0  0  0  0  0  0
   29.7125  -20.3493   -8.1138 C   0  0  0  0  0  0  0  0  0  0  0  0
   29.8493  -21.1788   -9.2048 C   0  0  0  0  0  0  0  0  0  0  0  0
   28.7841  -21.5337   -9.9946 C   0  0  0  0  0  0  0  0  0  0  0  0
   27.5311  -21.0343   -9.6740 C   0  0  0  0  0  0  0  0  0  0  0  0
   23.8031  -20.9800  -11.7011 C   0  0  0  0  0  0  0  0  0  0  0  0
   23.6174  -19.7506  -11.4968 O   0  0  0  0  0  0  0  0  0  0  0  0
   22.8531  -21.8624  -11.2313 O   0  0  0  0  0  0  0  0  0  0  0  0
  1  2  1  0
  2  3  2  0
  2  4  1  0
  4  5  1  0
  6  5  1  0
  6  7  1  6
  8  9  2  0
  8  6  1  0
 11 10  1  0
 11 13  1  0
 12 11  2  0
 14 13  1  6
 14 15  1  0
 15  8  1  0
 16 14  1  0
 16 18  1  0
 17 16  2  0
 19 18  1  0
 19 30  1  0
 19 20  1  1
 21 20  1  0
 21 29  1  0
 22 21  2  0
 23 22  1  0
 23 24  1  0
 24 25  1  0
 24 29  2  0
 25 26  2  0
 26 27  1  0
 28 27  2  0
 29 28  1  0
 30 31  2  0
 30 32  1  0
M  END
$$$$
