QNW.pdb
     RDKit          3D

 32 33  0  0  1  0  0  0  0  0999 V2000
   21.1706  -19.5524  -20.3511 N   0  0  0  0  0  0  0  0  0  0  0  0
   22.5421  -19.3057  -20.5415 C   0  0  0  0  0  0  0  0  0  0  0  0
   23.1698  -19.9754  -21.4024 O   0  0  0  0  0  0  0  0  0  0  0  0
   23.2262  -18.2813  -19.7455 C   0  0  0  0  0  0  0  0  0  0  0  0
   24.6145  -18.7407  -19.3172 C   0  0  0  0  0  0  0  0  0  0  0  0
   24.4406  -19.5858  -18.0541 C   0  0  2  0  0  0  0  0  0  0  0  0
   23.7844  -18.7420  -17.0844 N   0  0  0  0  0  0  0  0  0  0  0  0
   25.7763  -19.9449  -17.5419 C   0  0  0  0  0  0  0  0  0  0  0  0
   26.5323  -20.5952  -18.3407 O   0  0  0  0  0  0  0  0  0  0  0  0
   29.3810  -18.0981  -17.7465 N   0  0  0  0  0  0  0  0  0  0  0  0
   28.5653  -17.8554  -16.6198 C   0  0  0  0  0  0  0  0  0  0  0  0
   27.9359  -16.7675  -16.5990 O   0  0  0  0  0  0  0  0  0  0  0  0
   28.4297  -18.8069  -15.4983 C   0  0  0  0  0  0  0  0  0  0  0  0
   27.5416  -19.9819  -15.8067 C   0  0  2  0  0  0  0  0  0  0  0  0
   26.2124  -19.5975  -16.2427 N   0  0  0  0  0  0  0  0  0  0  0  0
   27.4162  -20.8241  -14.5906 C   0  0  0  0  0  0  0  0  0  0  0  0
   28.3136  -21.5919  -14.2167 O   0  0  0  0  0  0  0  0  0  0  0  0
   26.2345  -20.7937  -13.7726 N   0  0  0  0  0  0  0  0  0  0  0  0
   26.0721  -21.5993  -12.5949 C   0  0  1  0  0  0  0  0  0  0  0  0
   27.1572  -21.4362  -11.5841 C   0  0  0  0  0  0  0  0  0  0  0  0
   26.7303  -20.8916  -10.2967 C   0  0  0  0  0  0  0  0  0  0  0  0
   25.4210  -20.5725   -9.9611 C   0  0  0  0  0  0  0  0  0  0  0  0
   25.3532  -20.0962   -8.7069 N   0  0  0  0  0  0  0  0  0  0  0  0
   26.6143  -20.0960   -8.2026 C   0  0  0  0  0  0  0  0  0  0  0  0
   27.1625  -19.7279   -6.9938 C   0  0  0  0  0  0  0  0  0  0  0  0
   28.5260  -19.8298   -6.7242 C   0  0  0  0  0  0  0  0  0  0  0  0
   29.3315  -20.3222   -7.7271 C   0  0  0  0  0  0  0  0  0  0  0  0
   28.8330  -20.7023   -8.9483 C   0  0  0  0  0  0  0  0  0  0  0  0
   27.4696  -20.5823   -9.1695 C   0  0  0  0  0  0  0  0  0  0  0  0
   24.7725  -21.1665  -11.9924 C   0  0  0  0  0  0  0  0  0  0  0  0
   24.2433  -20.1069  -12.4222 O   0  0  0  0  0  0  0  0  0  0  0  0
   24.1164  -21.8560  -10.9944 O   0  0  0  0  0  0  0  0  0  0  0  0
  1  2  1  0
  2  3  2  0
  2  4  1  0
  4  5  1  0
  6  5  1  0
  6  7  1  1
  8  9  2  0
  8  6  1  0
 11 10  1  0
 11 13  1  0
 12 11  2  0
 14 13  1  1
 14 15  1  0
 15  8  1  0
 16 14  1  0
 16 18  1  0
 17 16  2  0
 19 18  1  0
 19 30  1  0
 19 20  1  1
 21 20  1  0
 21 29  1  0
 22 21  2  0
 23 22  1  0
 23 24  1  0
 24 25  1  0
 24 29  2  0
 25 26  2  0
 26 27  1  0
 28 27  2  0
 29 28  1  0
 30 31  2  0
 30 32  1  0
M  END
$$$$
