QNW.pdb
     RDKit          3D

 32 33  0  0  1  0  0  0  0  0999 V2000
   32.3594  -24.3476  -16.9156 N   0  0  0  0  0  0  0  0  0  0  0  0
   31.5245  -24.5363  -18.0316 C   0  0  0  0  0  0  0  0  0  0  0  0
   31.6597  -25.5764  -18.7271 O   0  0  0  0  0  0  0  0  0  0  0  0
   30.5124  -23.5322  -18.3757 C   0  0  0  0  0  0  0  0  0  0  0  0
   30.4797  -22.3993  -17.3573 C   0  0  0  0  0  0  0  0  0  0  0  0
   29.2840  -22.6533  -16.4378 C   0  0  2  0  0  0  0  0  0  0  0  0
   28.1094  -22.6206  -17.2755 N   0  0  0  0  0  0  0  0  0  0  0  0
   29.1999  -21.5508  -15.4616 C   0  0  0  0  0  0  0  0  0  0  0  0
   30.1206  -20.6672  -15.5256 O   0  0  0  0  0  0  0  0  0  0  0  0
   27.3968  -16.8508  -14.5671 N   0  0  0  0  0  0  0  0  0  0  0  0
   26.5978  -18.0146  -14.5965 C   0  0  0  0  0  0  0  0  0  0  0  0
   25.4178  -17.9032  -14.1777 O   0  0  0  0  0  0  0  0  0  0  0  0
   27.0855  -19.3194  -15.0875 C   0  0  0  0  0  0  0  0  0  0  0  0
   27.7429  -20.1577  -14.0247 C   0  0  2  0  0  0  0  0  0  0  0  0
   28.1658  -21.4608  -14.5018 N   0  0  0  0  0  0  0  0  0  0  0  0
   26.7889  -20.3502  -12.9036 C   0  0  0  0  0  0  0  0  0  0  0  0
   26.3575  -19.4068  -12.2265 O   0  0  0  0  0  0  0  0  0  0  0  0
   26.3092  -21.6555  -12.5394 N   0  0  0  0  0  0  0  0  0  0  0  0
   25.5156  -21.9034  -11.3684 C   0  0  1  0  0  0  0  0  0  0  0  0
   26.3054  -22.0601  -10.1125 C   0  0  0  0  0  0  0  0  0  0  0  0
   26.4717  -20.8389   -9.3268 C   0  0  0  0  0  0  0  0  0  0  0  0
   25.6790  -19.7042   -9.4400 C   0  0  0  0  0  0  0  0  0  0  0  0
   26.0822  -18.7536   -8.5809 N   0  0  0  0  0  0  0  0  0  0  0  0
   27.1431  -19.2497   -7.8930 C   0  0  0  0  0  0  0  0  0  0  0  0
   27.9598  -18.7517   -6.9019 C   0  0  0  0  0  0  0  0  0  0  0  0
   29.0079  -19.4868   -6.3511 C   0  0  0  0  0  0  0  0  0  0  0  0
   29.2095  -20.7592   -6.8384 C   0  0  0  0  0  0  0  0  0  0  0  0
   28.4229  -21.3000   -7.8250 C   0  0  0  0  0  0  0  0  0  0  0  0
   27.3923  -20.5301   -8.3420 C   0  0  0  0  0  0  0  0  0  0  0  0
   24.6173  -20.7139  -11.2370 C   0  0  0  0  0  0  0  0  0  0  0  0
   23.6202  -20.8053  -10.4722 O   0  0  0  0  0  0  0  0  0  0  0  0
   24.8128  -19.5214  -11.9017 O   0  0  0  0  0  0  0  0  0  0  0  0
  1  2  1  0
  2  3  2  0
  2  4  1  0
  4  5  1  0
  6  5  1  0
  6  7  1  6
  8  9  2  0
  8  6  1  0
 11 10  1  0
 11 13  1  0
 12 11  2  0
 14 13  1  6
 14 15  1  0
 15  8  1  0
 16 14  1  0
 16 18  1  0
 17 16  2  0
 19 18  1  0
 19 30  1  0
 19 20  1  1
 21 20  1  0
 21 29  1  0
 22 21  2  0
 23 22  1  0
 23 24  1  0
 24 25  1  0
 24 29  2  0
 25 26  2  0
 26 27  1  0
 28 27  2  0
 29 28  1  0
 30 31  2  0
 30 32  1  0
M  END
$$$$
