QNW.pdb
     RDKit          3D

 32 33  0  0  1  0  0  0  0  0999 V2000
   17.3113  -26.3913  -16.2408 N   0  0  0  0  0  0  0  0  0  0  0  0
   18.6697  -26.5393  -16.5737 C   0  0  0  0  0  0  0  0  0  0  0  0
   19.2479  -25.6177  -17.2062 O   0  0  0  0  0  0  0  0  0  0  0  0
   19.3975  -27.7524  -16.1869 C   0  0  0  0  0  0  0  0  0  0  0  0
   20.2954  -27.5052  -14.9809 C   0  0  0  0  0  0  0  0  0  0  0  0
   19.5672  -28.0591  -13.7550 C   0  0  2  0  0  0  0  0  0  0  0  0
   19.0020  -26.9234  -13.0670 N   0  0  0  0  0  0  0  0  0  0  0  0
   20.5576  -28.7027  -12.8716 C   0  0  0  0  0  0  0  0  0  0  0  0
   21.0940  -27.9557  -11.9845 O   0  0  0  0  0  0  0  0  0  0  0  0
   22.5215  -30.7661   -9.2575 N   0  0  0  0  0  0  0  0  0  0  0  0
   21.6633  -31.7487   -9.7976 C   0  0  0  0  0  0  0  0  0  0  0  0
   21.2741  -32.6532   -9.0162 O   0  0  0  0  0  0  0  0  0  0  0  0
   21.2201  -31.7507  -11.2065 C   0  0  0  0  0  0  0  0  0  0  0  0
   21.8319  -30.6528  -12.0339 C   0  0  2  0  0  0  0  0  0  0  0  0
   20.9063  -30.0680  -12.9857 N   0  0  0  0  0  0  0  0  0  0  0  0
   22.9940  -31.2002  -12.7782 C   0  0  0  0  0  0  0  0  0  0  0  0
   23.9661  -31.7163  -12.2096 O   0  0  0  0  0  0  0  0  0  0  0  0
   23.0546  -31.1607  -14.2139 N   0  0  0  0  0  0  0  0  0  0  0  0
   24.1728  -31.6541  -14.9679 C   0  0  1  0  0  0  0  0  0  0  0  0
   25.4724  -30.9989  -14.6401 C   0  0  0  0  0  0  0  0  0  0  0  0
   26.4236  -30.9175  -15.7469 C   0  0  0  0  0  0  0  0  0  0  0  0
   26.1846  -30.2811  -16.9580 C   0  0  0  0  0  0  0  0  0  0  0  0
   27.2531  -30.3782  -17.7663 N   0  0  0  0  0  0  0  0  0  0  0  0
   28.2065  -31.0782  -17.0987 C   0  0  0  0  0  0  0  0  0  0  0  0
   29.4858  -31.4866  -17.4051 C   0  0  0  0  0  0  0  0  0  0  0  0
   30.2757  -32.2145  -16.5173 C   0  0  0  0  0  0  0  0  0  0  0  0
   29.7268  -32.5222  -15.2921 C   0  0  0  0  0  0  0  0  0  0  0  0
   28.4569  -32.1380  -14.9399 C   0  0  0  0  0  0  0  0  0  0  0  0
   27.7093  -31.4152  -15.8569 C   0  0  0  0  0  0  0  0  0  0  0  0
   24.2624  -33.1114  -14.6397 C   0  0  0  0  0  0  0  0  0  0  0  0
   23.3617  -33.6127  -13.9153 O   0  0  0  0  0  0  0  0  0  0  0  0
   25.2711  -33.9417  -15.0814 O   0  0  0  0  0  0  0  0  0  0  0  0
  1  2  1  0
  2  3  2  0
  2  4  1  0
  4  5  1  0
  6  5  1  0
  6  7  1  1
  8  9  2  0
  8  6  1  0
 11 10  1  0
 11 13  1  0
 12 11  2  0
 14 13  1  6
 14 15  1  0
 15  8  1  0
 16 14  1  0
 16 18  1  0
 17 16  2  0
 19 18  1  0
 19 30  1  0
 19 20  1  1
 21 20  1  0
 21 29  1  0
 22 21  2  0
 23 22  1  0
 23 24  1  0
 24 25  1  0
 24 29  2  0
 25 26  2  0
 26 27  1  0
 28 27  2  0
 29 28  1  0
 30 31  2  0
 30 32  1  0
M  END
$$$$
