QNW.pdb
     RDKit          3D

 32 33  0  0  1  0  0  0  0  0999 V2000
   28.1616  -25.3456  -17.6890 N   0  0  0  0  0  0  0  0  0  0  0  0
   28.0046  -23.9869  -18.0165 C   0  0  0  0  0  0  0  0  0  0  0  0
   27.0060  -23.6335  -18.6959 O   0  0  0  0  0  0  0  0  0  0  0  0
   28.9934  -23.0000  -17.5702 C   0  0  0  0  0  0  0  0  0  0  0  0
   28.3239  -21.7627  -16.9850 C   0  0  0  0  0  0  0  0  0  0  0  0
   28.3686  -21.9030  -15.4624 C   0  0  2  0  0  0  0  0  0  0  0  0
   27.5985  -23.0793  -15.1371 N   0  0  0  0  0  0  0  0  0  0  0  0
   27.7112  -20.7264  -14.8631 C   0  0  0  0  0  0  0  0  0  0  0  0
   28.0260  -19.5904  -15.3560 O   0  0  0  0  0  0  0  0  0  0  0  0
   23.2692  -18.2546  -15.0077 N   0  0  0  0  0  0  0  0  0  0  0  0
   23.3739  -19.6620  -14.9629 C   0  0  0  0  0  0  0  0  0  0  0  0
   22.2981  -20.3090  -14.8988 O   0  0  0  0  0  0  0  0  0  0  0  0
   24.6648  -20.3791  -14.9881 C   0  0  0  0  0  0  0  0  0  0  0  0
   25.5676  -20.0390  -13.8332 C   0  0  2  0  0  0  0  0  0  0  0  0
   26.7827  -20.8310  -13.8022 N   0  0  0  0  0  0  0  0  0  0  0  0
   24.8288  -20.2548  -12.5637 C   0  0  0  0  0  0  0  0  0  0  0  0
   23.7848  -19.6471  -12.2889 O   0  0  0  0  0  0  0  0  0  0  0  0
   25.2897  -21.1904  -11.5744 N   0  0  0  0  0  0  0  0  0  0  0  0
   24.9203  -21.1158  -10.1886 C   0  0  1  0  0  0  0  0  0  0  0  0
   25.6153  -20.0395   -9.4243 C   0  0  0  0  0  0  0  0  0  0  0  0
   27.0223  -20.2992   -9.1254 C   0  0  0  0  0  0  0  0  0  0  0  0
   27.9023  -20.9769   -9.9592 C   0  0  0  0  0  0  0  0  0  0  0  0
   29.1235  -21.0501   -9.4045 N   0  0  0  0  0  0  0  0  0  0  0  0
   29.0626  -20.4230   -8.2014 C   0  0  0  0  0  0  0  0  0  0  0  0
   29.9768  -20.1810   -7.1998 C   0  0  0  0  0  0  0  0  0  0  0  0
   29.6489  -19.4946   -6.0322 C   0  0  0  0  0  0  0  0  0  0  0  0
   28.3505  -19.0531   -5.9042 C   0  0  0  0  0  0  0  0  0  0  0  0
   27.4033  -19.2694   -6.8739 C   0  0  0  0  0  0  0  0  0  0  0  0
   27.7771  -19.9573   -8.0181 C   0  0  0  0  0  0  0  0  0  0  0  0
   23.4480  -20.8480  -10.1829 C   0  0  0  0  0  0  0  0  0  0  0  0
   22.9853  -20.0591  -11.0495 O   0  0  0  0  0  0  0  0  0  0  0  0
   22.5642  -21.4117   -9.2867 O   0  0  0  0  0  0  0  0  0  0  0  0
  1  2  1  0
  2  3  2  0
  2  4  1  0
  4  5  1  0
  6  5  1  0
  6  7  1  6
  8  9  2  0
  8  6  1  0
 11 10  1  0
 11 13  1  0
 12 11  2  0
 14 13  1  6
 14 15  1  0
 15  8  1  0
 16 14  1  0
 16 18  1  0
 17 16  2  0
 19 18  1  0
 19 30  1  0
 19 20  1  6
 21 20  1  0
 21 29  1  0
 22 21  2  0
 23 22  1  0
 23 24  1  0
 24 25  1  0
 24 29  2  0
 25 26  2  0
 26 27  1  0
 28 27  2  0
 29 28  1  0
 30 31  2  0
 30 32  1  0
M  END
$$$$
