QNW.pdb
     RDKit          3D

 32 33  0  0  1  0  0  0  0  0999 V2000
   30.8004  -22.2362  -20.2504 N   0  0  0  0  0  0  0  0  0  0  0  0
   31.5418  -22.6473  -19.1283 C   0  0  0  0  0  0  0  0  0  0  0  0
   32.7243  -23.0467  -19.2899 O   0  0  0  0  0  0  0  0  0  0  0  0
   30.9410  -22.6090  -17.7909 C   0  0  0  0  0  0  0  0  0  0  0  0
   29.5242  -22.0498  -17.8301 C   0  0  0  0  0  0  0  0  0  0  0  0
   29.0341  -21.9604  -16.3839 C   0  0  2  0  0  0  0  0  0  0  0  0
   29.5235  -23.1403  -15.7124 N   0  0  0  0  0  0  0  0  0  0  0  0
   27.5595  -21.9939  -16.3850 C   0  0  0  0  0  0  0  0  0  0  0  0
   26.9716  -20.9993  -16.9306 O   0  0  0  0  0  0  0  0  0  0  0  0
   25.3349  -24.3167  -18.3640 N   0  0  0  0  0  0  0  0  0  0  0  0
   24.8021  -24.9785  -17.2363 C   0  0  0  0  0  0  0  0  0  0  0  0
   24.3799  -26.1493  -17.4127 O   0  0  0  0  0  0  0  0  0  0  0  0
   24.7259  -24.3616  -15.8965 C   0  0  0  0  0  0  0  0  0  0  0  0
   25.3719  -23.0047  -15.8184 C   0  0  2  0  0  0  0  0  0  0  0  0
   26.8216  -23.0586  -15.8187 N   0  0  0  0  0  0  0  0  0  0  0  0
   24.9231  -22.3277  -14.5758 C   0  0  0  0  0  0  0  0  0  0  0  0
   23.8281  -21.7552  -14.4872 O   0  0  0  0  0  0  0  0  0  0  0  0
   25.7435  -22.2996  -13.3956 N   0  0  0  0  0  0  0  0  0  0  0  0
   25.2495  -21.9151  -12.1031 C   0  0  1  0  0  0  0  0  0  0  0  0
   26.1756  -22.2227  -10.9747 C   0  0  0  0  0  0  0  0  0  0  0  0
   26.2849  -21.1780   -9.9584 C   0  0  0  0  0  0  0  0  0  0  0  0
   25.2305  -20.3997   -9.4988 C   0  0  0  0  0  0  0  0  0  0  0  0
   25.6511  -19.5315   -8.5640 N   0  0  0  0  0  0  0  0  0  0  0  0
   26.9847  -19.7272   -8.3971 C   0  0  0  0  0  0  0  0  0  0  0  0
   27.9446  -19.1498   -7.5956 C   0  0  0  0  0  0  0  0  0  0  0  0
   29.2806  -19.5457   -7.6182 C   0  0  0  0  0  0  0  0  0  0  0  0
   29.6234  -20.5576   -8.4875 C   0  0  0  0  0  0  0  0  0  0  0  0
   28.7035  -21.1644   -9.3062 C   0  0  0  0  0  0  0  0  0  0  0  0
   27.3862  -20.7361   -9.2479 C   0  0  0  0  0  0  0  0  0  0  0  0
   25.0449  -20.4347  -12.1793 C   0  0  0  0  0  0  0  0  0  0  0  0
   25.7894  -19.7720  -12.9500 O   0  0  0  0  0  0  0  0  0  0  0  0
   24.0906  -19.7490  -11.4574 O   0  0  0  0  0  0  0  0  0  0  0  0
  1  2  1  0
  2  3  2  0
  2  4  1  0
  4  5  1  0
  6  5  1  0
  6  7  1  1
  8  9  2  0
  8  6  1  0
 11 10  1  0
 11 13  1  0
 12 11  2  0
 14 13  1  1
 14 15  1  0
 15  8  1  0
 16 14  1  0
 16 18  1  0
 17 16  2  0
 19 18  1  0
 19 30  1  0
 19 20  1  1
 21 20  1  0
 21 29  1  0
 22 21  2  0
 23 22  1  0
 23 24  1  0
 24 25  1  0
 24 29  2  0
 25 26  2  0
 26 27  1  0
 28 27  2  0
 29 28  1  0
 30 31  2  0
 30 32  1  0
M  END
$$$$
