QNW.pdb
     RDKit          3D

 32 33  0  0  1  0  0  0  0  0999 V2000
   30.7279  -22.9619  -17.6811 N   0  0  0  0  0  0  0  0  0  0  0  0
   31.1599  -21.8587  -18.4389 C   0  0  0  0  0  0  0  0  0  0  0  0
   32.2265  -21.9516  -19.1003 O   0  0  0  0  0  0  0  0  0  0  0  0
   30.3750  -20.6199  -18.4547 C   0  0  0  0  0  0  0  0  0  0  0  0
   29.2111  -20.6827  -17.4734 C   0  0  0  0  0  0  0  0  0  0  0  0
   28.0137  -21.2606  -18.2297 C   0  0  2  0  0  0  0  0  0  0  0  0
   27.6916  -20.3141  -19.2704 N   0  0  0  0  0  0  0  0  0  0  0  0
   26.8710  -21.3504  -17.3015 C   0  0  0  0  0  0  0  0  0  0  0  0
   26.0878  -20.3414  -17.2693 O   0  0  0  0  0  0  0  0  0  0  0  0
   26.2425  -25.7152  -16.3990 N   0  0  0  0  0  0  0  0  0  0  0  0
   25.4401  -25.0215  -15.4670 C   0  0  0  0  0  0  0  0  0  0  0  0
   25.3986  -25.4843  -14.2990 O   0  0  0  0  0  0  0  0  0  0  0  0
   24.6708  -23.8073  -15.8064 C   0  0  0  0  0  0  0  0  0  0  0  0
   25.4545  -22.5322  -15.6506 C   0  0  2  0  0  0  0  0  0  0  0  0
   26.6398  -22.4816  -16.4856 N   0  0  0  0  0  0  0  0  0  0  0  0
   25.8680  -22.3905  -14.2319 C   0  0  0  0  0  0  0  0  0  0  0  0
   27.0141  -22.6539  -13.8425 O   0  0  0  0  0  0  0  0  0  0  0  0
   24.9512  -21.9351  -13.2226 N   0  0  0  0  0  0  0  0  0  0  0  0
   25.3345  -21.7046  -11.8579 C   0  0  1  0  0  0  0  0  0  0  0  0
   26.3368  -20.6147  -11.6767 C   0  0  0  0  0  0  0  0  0  0  0  0
   26.6644  -20.2966  -10.2882 C   0  0  0  0  0  0  0  0  0  0  0  0
   25.7941  -19.7110   -9.3780 C   0  0  0  0  0  0  0  0  0  0  0  0
   26.3899  -19.5499   -8.1849 N   0  0  0  0  0  0  0  0  0  0  0  0
   27.6571  -20.0264   -8.2948 C   0  0  0  0  0  0  0  0  0  0  0  0
   28.7207  -20.1287   -7.4257 C   0  0  0  0  0  0  0  0  0  0  0  0
   29.9480  -20.6728   -7.7999 C   0  0  0  0  0  0  0  0  0  0  0  0
   30.0707  -21.1173   -9.0978 C   0  0  0  0  0  0  0  0  0  0  0  0
   29.0402  -21.0372  -10.0011 C   0  0  0  0  0  0  0  0  0  0  0  0
   27.8381  -20.4880   -9.5821 C   0  0  0  0  0  0  0  0  0  0  0  0
   24.0715  -21.3319  -11.1471 C   0  0  0  0  0  0  0  0  0  0  0  0
   23.8544  -21.8431  -10.0162 O   0  0  0  0  0  0  0  0  0  0  0  0
   23.1285  -20.4621  -11.6532 O   0  0  0  0  0  0  0  0  0  0  0  0
  1  2  1  0
  2  3  2  0
  2  4  1  0
  4  5  1  0
  6  5  1  0
  6  7  1  6
  8  9  2  0
  8  6  1  0
 11 10  1  0
 11 13  1  0
 12 11  2  0
 14 13  1  1
 14 15  1  0
 15  8  1  0
 16 14  1  0
 16 18  1  0
 17 16  2  0
 19 18  1  0
 19 30  1  0
 19 20  1  6
 21 20  1  0
 21 29  1  0
 22 21  2  0
 23 22  1  0
 23 24  1  0
 24 25  1  0
 24 29  2  0
 25 26  2  0
 26 27  1  0
 28 27  2  0
 29 28  1  0
 30 31  2  0
 30 32  1  0
M  END
$$$$
