QNW.pdb
     RDKit          3D

 32 33  0  0  1  0  0  0  0  0999 V2000
   22.3910  -16.9744  -17.2007 N   0  0  0  0  0  0  0  0  0  0  0  0
   21.2649  -16.5027  -17.8987 C   0  0  0  0  0  0  0  0  0  0  0  0
   21.4291  -15.9256  -19.0050 O   0  0  0  0  0  0  0  0  0  0  0  0
   19.9205  -16.6831  -17.3410 C   0  0  0  0  0  0  0  0  0  0  0  0
   19.9529  -17.5048  -16.0582 C   0  0  0  0  0  0  0  0  0  0  0  0
   20.0574  -18.9752  -16.4667 C   0  0  2  0  0  0  0  0  0  0  0  0
   18.7093  -19.4289  -16.7103 N   0  0  0  0  0  0  0  0  0  0  0  0
   20.6162  -19.7382  -15.3348 C   0  0  0  0  0  0  0  0  0  0  0  0
   19.7709  -20.2383  -14.5176 O   0  0  0  0  0  0  0  0  0  0  0  0
   22.9199  -24.0441  -12.8230 N   0  0  0  0  0  0  0  0  0  0  0  0
   22.9243  -23.3040  -14.0255 C   0  0  0  0  0  0  0  0  0  0  0  0
   23.8209  -23.5843  -14.8607 O   0  0  0  0  0  0  0  0  0  0  0  0
   21.9415  -22.2436  -14.3271 C   0  0  0  0  0  0  0  0  0  0  0  0
   22.4808  -20.8505  -14.1455 C   0  0  2  0  0  0  0  0  0  0  0  0
   22.0063  -19.9162  -15.1488 N   0  0  0  0  0  0  0  0  0  0  0  0
   23.9635  -20.8959  -14.2039 C   0  0  0  0  0  0  0  0  0  0  0  0
   24.5864  -20.9618  -15.2727 O   0  0  0  0  0  0  0  0  0  0  0  0
   24.7650  -20.8654  -13.0109 N   0  0  0  0  0  0  0  0  0  0  0  0
   26.2010  -20.8767  -13.0274 C   0  0  1  0  0  0  0  0  0  0  0  0
   26.8335  -19.7939  -12.2193 C   0  0  0  0  0  0  0  0  0  0  0  0
   27.7295  -20.2524  -11.1595 C   0  0  0  0  0  0  0  0  0  0  0  0
   29.0289  -20.7027  -11.3537 C   0  0  0  0  0  0  0  0  0  0  0  0
   29.5924  -21.0504  -10.1849 N   0  0  0  0  0  0  0  0  0  0  0  0
   28.6729  -20.8338   -9.2091 C   0  0  0  0  0  0  0  0  0  0  0  0
   28.6702  -20.9993   -7.8416 C   0  0  0  0  0  0  0  0  0  0  0  0
   27.5654  -20.6930   -7.0493 C   0  0  0  0  0  0  0  0  0  0  0  0
   26.4466  -20.2070   -7.6888 C   0  0  0  0  0  0  0  0  0  0  0  0
   26.4001  -20.0245   -9.0486 C   0  0  0  0  0  0  0  0  0  0  0  0
   27.5242  -20.3435   -9.7948 C   0  0  0  0  0  0  0  0  0  0  0  0
   26.5953  -22.2045  -12.4612 C   0  0  0  0  0  0  0  0  0  0  0  0
   25.8122  -22.7565  -11.6429 O   0  0  0  0  0  0  0  0  0  0  0  0
   27.7643  -22.8633  -12.7795 O   0  0  0  0  0  0  0  0  0  0  0  0
  1  2  1  0
  2  3  2  0
  2  4  1  0
  4  5  1  0
  6  5  1  0
  6  7  1  1
  8  9  2  0
  8  6  1  0
 11 10  1  0
 11 13  1  0
 12 11  2  0
 14 13  1  6
 14 15  1  0
 15  8  1  0
 16 14  1  0
 16 18  1  0
 17 16  2  0
 19 18  1  0
 19 30  1  0
 19 20  1  1
 21 20  1  0
 21 29  1  0
 22 21  2  0
 23 22  1  0
 23 24  1  0
 24 25  1  0
 24 29  2  0
 25 26  2  0
 26 27  1  0
 28 27  2  0
 29 28  1  0
 30 31  2  0
 30 32  1  0
M  END
$$$$
