YLW.pdb
     RDKit          3D

 35 37  0  0  1  0  0  0  0  0999 V2000
   28.5694  -35.7138  -23.6922 O   0  0  0  0  0  0  0  0  0  0  0  0
   27.8919  -35.0951  -22.6422 C   0  0  0  0  0  0  0  0  0  0  0  0
   27.7320  -33.7083  -22.6871 C   0  0  0  0  0  0  0  0  0  0  0  0
   27.0649  -33.1244  -21.6461 C   0  0  0  0  0  0  0  0  0  0  0  0
   26.5548  -33.8231  -20.5786 C   0  0  0  0  0  0  0  0  0  0  0  0
   25.8442  -33.1216  -19.4731 C   0  0  0  0  0  0  0  0  0  0  0  0
   26.8552  -32.4696  -18.5913 C   0  0  2  0  0  0  0  0  0  0  0  0
   27.5688  -33.4510  -17.7771 N   0  0  0  0  0  0  0  0  0  0  0  0
   26.2636  -31.4721  -17.6857 C   0  0  0  0  0  0  0  0  0  0  0  0
   26.1058  -31.7011  -16.4519 O   0  0  0  0  0  0  0  0  0  0  0  0
   26.7132  -35.1952  -20.5353 C   0  0  0  0  0  0  0  0  0  0  0  0
   27.3897  -35.8241  -21.5838 C   0  0  0  0  0  0  0  0  0  0  0  0
   27.9045  -28.4546  -15.7699 C   0  0  0  0  0  0  0  0  0  0  0  0
   27.6435  -28.0587  -17.2380 C   0  0  2  0  0  0  0  0  0  0  0  0
   28.3833  -26.7548  -17.4696 C   0  0  0  0  0  0  0  0  0  0  0  0
   26.1524  -27.9258  -17.3477 C   0  0  0  0  0  0  0  0  0  0  0  0
   25.3793  -29.1877  -17.3575 C   0  0  2  0  0  0  0  0  0  0  0  0
   25.8649  -30.2060  -18.2370 N   0  0  0  0  0  0  0  0  0  0  0  0
   23.9169  -28.9587  -17.5932 C   0  0  0  0  0  0  0  0  0  0  0  0
   23.4931  -28.9332  -18.7672 O   0  0  0  0  0  0  0  0  0  0  0  0
   23.0218  -28.7712  -16.5169 N   0  0  0  0  0  0  0  0  0  0  0  0
   21.6071  -28.5035  -16.7004 C   0  0  1  0  0  0  0  0  0  0  0  0
   20.7803  -29.0246  -15.5630 C   0  0  0  0  0  0  0  0  0  0  0  0
   19.3395  -28.7406  -15.7280 C   0  0  0  0  0  0  0  0  0  0  0  0
   18.7087  -27.6870  -16.3477 C   0  0  0  0  0  0  0  0  0  0  0  0
   17.3614  -27.8418  -16.2545 N   0  0  0  0  0  0  0  0  0  0  0  0
   17.0958  -28.9658  -15.5913 C   0  0  0  0  0  0  0  0  0  0  0  0
   15.9299  -29.5802  -15.2249 C   0  0  0  0  0  0  0  0  0  0  0  0
   15.9831  -30.7775  -14.5143 C   0  0  0  0  0  0  0  0  0  0  0  0
   17.1967  -31.3447  -14.1811 C   0  0  0  0  0  0  0  0  0  0  0  0
   18.3698  -30.7295  -14.5492 C   0  0  0  0  0  0  0  0  0  0  0  0
   18.3026  -29.5369  -15.2561 C   0  0  0  0  0  0  0  0  0  0  0  0
   21.3493  -27.0541  -16.8436 C   0  0  0  0  0  0  0  0  0  0  0  0
   22.3333  -26.1660  -16.4769 O   0  0  0  0  0  0  0  0  0  0  0  0
   20.2582  -26.6679  -17.2887 O   0  0  0  0  0  0  0  0  0  0  0  0
  2  1  1  0
  3  2  2  0
  4  3  1  0
  5  4  2  0
  5 11  1  0
  6  5  1  0
  7  6  1  0
  7  8  1  1
  9 18  1  0
  9  7  1  0
 10  9  2  0
 11 12  2  0
 12  2  1  0
 14 13  1  1
 14 16  1  0
 15 14  1  0
 17 16  1  6
 17 18  1  0
 17 19  1  0
 19 21  1  0
 19 20  2  0
 21 22  1  0
 22 23  1  1
 22 33  1  0
 24 23  1  0
 25 24  2  0
 26 25  1  0
 27 26  1  0
 27 32  2  0
 28 27  1  0
 29 28  2  0
 29 30  1  0
 30 31  2  0
 31 32  1  0
 32 24  1  0
 33 34  1  0
 35 33  2  0
M  END
$$$$
