YLW.pdb
     RDKit          3D

 35 37  0  0  1  0  0  0  0  0999 V2000
   30.0757  -18.5617  -20.5415 O   0  0  0  0  0  0  0  0  0  0  0  0
   29.1142  -18.9858  -19.6251 C   0  0  0  0  0  0  0  0  0  0  0  0
   27.8777  -19.4109  -20.1162 C   0  0  0  0  0  0  0  0  0  0  0  0
   26.9510  -19.8215  -19.1985 C   0  0  0  0  0  0  0  0  0  0  0  0
   27.1737  -19.8354  -17.8427 C   0  0  0  0  0  0  0  0  0  0  0  0
   26.1156  -20.2890  -16.8973 C   0  0  0  0  0  0  0  0  0  0  0  0
   26.6776  -21.3636  -16.0288 C   0  0  2  0  0  0  0  0  0  0  0  0
   27.1674  -22.4905  -16.8197 N   0  0  0  0  0  0  0  0  0  0  0  0
   25.7011  -21.8808  -15.0572 C   0  0  0  0  0  0  0  0  0  0  0  0
   24.9402  -22.8539  -15.3290 O   0  0  0  0  0  0  0  0  0  0  0  0
   28.3976  -19.4151  -17.3578 C   0  0  0  0  0  0  0  0  0  0  0  0
   29.3679  -18.9894  -18.2687 C   0  0  0  0  0  0  0  0  0  0  0  0
   27.5261  -21.4072  -11.6296 C   0  0  0  0  0  0  0  0  0  0  0  0
   26.2595  -20.7038  -11.0995 C   0  0  2  0  0  0  0  0  0  0  0  0
   26.4867  -20.4681   -9.6183 C   0  0  0  0  0  0  0  0  0  0  0  0
   25.1349  -21.6557  -11.3862 C   0  0  0  0  0  0  0  0  0  0  0  0
   24.7051  -21.7584  -12.7987 C   0  0  2  0  0  0  0  0  0  0  0  0
   25.6287  -21.2523  -13.7666 N   0  0  0  0  0  0  0  0  0  0  0  0
   23.3465  -21.1675  -13.0257 C   0  0  0  0  0  0  0  0  0  0  0  0
   22.4118  -21.4978  -12.2669 O   0  0  0  0  0  0  0  0  0  0  0  0
   23.1113  -20.2536  -14.0766 N   0  0  0  0  0  0  0  0  0  0  0  0
   21.8077  -19.6753  -14.3467 C   0  0  1  0  0  0  0  0  0  0  0  0
   21.9044  -18.4101  -15.1460 C   0  0  0  0  0  0  0  0  0  0  0  0
   20.9060  -18.3446  -16.2335 C   0  0  0  0  0  0  0  0  0  0  0  0
   19.6226  -17.8498  -16.2305 C   0  0  0  0  0  0  0  0  0  0  0  0
   19.0719  -17.9994  -17.4643 N   0  0  0  0  0  0  0  0  0  0  0  0
   19.9593  -18.5779  -18.2714 C   0  0  0  0  0  0  0  0  0  0  0  0
   19.9206  -18.9510  -19.5868 C   0  0  0  0  0  0  0  0  0  0  0  0
   21.0389  -19.5540  -20.1588 C   0  0  0  0  0  0  0  0  0  0  0  0
   22.1786  -19.7746  -19.4118 C   0  0  0  0  0  0  0  0  0  0  0  0
   22.2202  -19.3995  -18.0898 C   0  0  0  0  0  0  0  0  0  0  0  0
   21.0990  -18.8006  -17.5323 C   0  0  0  0  0  0  0  0  0  0  0  0
   20.9392  -20.6260  -15.0746 C   0  0  0  0  0  0  0  0  0  0  0  0
   19.5752  -20.4643  -15.0059 O   0  0  0  0  0  0  0  0  0  0  0  0
   21.4526  -21.5453  -15.7295 O   0  0  0  0  0  0  0  0  0  0  0  0
  2  1  1  0
  3  2  2  0
  4  3  1  0
  5  4  2  0
  5 11  1  0
  6  5  1  0
  7  6  1  0
  7  8  1  6
  9 18  1  0
  9  7  1  0
 10  9  2  0
 11 12  2  0
 12  2  1  0
 14 13  1  1
 14 16  1  0
 15 14  1  0
 17 16  1  1
 17 18  1  0
 17 19  1  0
 19 21  1  0
 19 20  2  0
 21 22  1  0
 22 23  1  6
 22 33  1  0
 24 23  1  0
 25 24  2  0
 26 25  1  0
 27 26  1  0
 27 32  2  0
 28 27  1  0
 29 28  2  0
 29 30  1  0
 30 31  2  0
 31 32  1  0
 32 24  1  0
 33 34  1  0
 35 33  2  0
M  END
$$$$
