YLW.pdb
     RDKit          3D

 35 37  0  0  1  0  0  0  0  0999 V2000
   18.9020  -15.6293  -16.0624 O   0  0  0  0  0  0  0  0  0  0  0  0
   19.9784  -16.5119  -15.9796 C   0  0  0  0  0  0  0  0  0  0  0  0
   19.7458  -17.7884  -15.4627 C   0  0  0  0  0  0  0  0  0  0  0  0
   20.8167  -18.6356  -15.3908 C   0  0  0  0  0  0  0  0  0  0  0  0
   22.0858  -18.2977  -15.7947 C   0  0  0  0  0  0  0  0  0  0  0  0
   23.2097  -19.2687  -15.6814 C   0  0  0  0  0  0  0  0  0  0  0  0
   23.7184  -19.2514  -14.2793 C   0  0  2  0  0  0  0  0  0  0  0  0
   24.3202  -17.9629  -13.9433 N   0  0  0  0  0  0  0  0  0  0  0  0
   24.7177  -20.3004  -14.0221 C   0  0  0  0  0  0  0  0  0  0  0  0
   24.5117  -21.5091  -14.3326 O   0  0  0  0  0  0  0  0  0  0  0  0
   22.3147  -17.0345  -16.3064 C   0  0  0  0  0  0  0  0  0  0  0  0
   21.2418  -16.1437  -16.3944 C   0  0  0  0  0  0  0  0  0  0  0  0
   28.6906  -20.9320  -15.6702 C   0  0  0  0  0  0  0  0  0  0  0  0
   28.7262  -19.7997  -14.6229 C   0  0  2  0  0  0  0  0  0  0  0  0
   30.1366  -19.2415  -14.6412 C   0  0  0  0  0  0  0  0  0  0  0  0
   28.3621  -20.4575  -13.3237 C   0  0  0  0  0  0  0  0  0  0  0  0
   26.9616  -20.9168  -13.1897 C   0  0  2  0  0  0  0  0  0  0  0  0
   25.9585  -19.9199  -13.4046 N   0  0  0  0  0  0  0  0  0  0  0  0
   26.7150  -21.6233  -11.8910 C   0  0  0  0  0  0  0  0  0  0  0  0
   26.9305  -22.8511  -11.8232 O   0  0  0  0  0  0  0  0  0  0  0  0
   26.2448  -20.9268  -10.7558 N   0  0  0  0  0  0  0  0  0  0  0  0
   25.7141  -21.5936   -9.5809 C   0  0  1  0  0  0  0  0  0  0  0  0
   26.7157  -21.6597   -8.4668 C   0  0  0  0  0  0  0  0  0  0  0  0
   26.9220  -20.3535   -7.8070 C   0  0  0  0  0  0  0  0  0  0  0  0
   26.4400  -19.1079   -8.1359 C   0  0  0  0  0  0  0  0  0  0  0  0
   26.8919  -18.1914   -7.2395 N   0  0  0  0  0  0  0  0  0  0  0  0
   27.6550  -18.8036   -6.3359 C   0  0  0  0  0  0  0  0  0  0  0  0
   28.3445  -18.3593   -5.2412 C   0  0  0  0  0  0  0  0  0  0  0  0
   29.0729  -19.2690   -4.4775 C   0  0  0  0  0  0  0  0  0  0  0  0
   29.1020  -20.6071   -4.8154 C   0  0  0  0  0  0  0  0  0  0  0  0
   28.4089  -21.0562   -5.9146 C   0  0  0  0  0  0  0  0  0  0  0  0
   27.6880  -20.1394   -6.6671 C   0  0  0  0  0  0  0  0  0  0  0  0
   24.4990  -20.9142   -9.0811 C   0  0  0  0  0  0  0  0  0  0  0  0
   23.8807  -21.4046   -7.9548 O   0  0  0  0  0  0  0  0  0  0  0  0
   24.0625  -19.9212   -9.6821 O   0  0  0  0  0  0  0  0  0  0  0  0
  2  1  1  0
  3  2  2  0
  4  3  1  0
  5  4  2  0
  5 11  1  0
  6  5  1  0
  7  6  1  0
  7  8  1  6
  9 18  1  0
  9  7  1  0
 10  9  2  0
 11 12  2  0
 12  2  1  0
 14 13  1  6
 14 16  1  0
 15 14  1  0
 17 16  1  1
 17 18  1  0
 17 19  1  0
 19 21  1  0
 19 20  2  0
 21 22  1  0
 22 23  1  1
 22 33  1  0
 24 23  1  0
 25 24  2  0
 26 25  1  0
 27 26  1  0
 27 32  2  0
 28 27  1  0
 29 28  2  0
 29 30  1  0
 30 31  2  0
 31 32  1  0
 32 24  1  0
 33 34  1  0
 35 33  2  0
M  END
$$$$
