YLW.pdb
     RDKit          3D

 35 37  0  0  1  0  0  0  0  0999 V2000
   17.8345  -17.3957  -17.4452 O   0  0  0  0  0  0  0  0  0  0  0  0
   19.1072  -17.9508  -17.3166 C   0  0  0  0  0  0  0  0  0  0  0  0
   19.2107  -19.2576  -16.8348 C   0  0  0  0  0  0  0  0  0  0  0  0
   20.4689  -19.7800  -16.7168 C   0  0  0  0  0  0  0  0  0  0  0  0
   21.6138  -19.0938  -17.0430 C   0  0  0  0  0  0  0  0  0  0  0  0
   22.9551  -19.7218  -16.8827 C   0  0  0  0  0  0  0  0  0  0  0  0
   23.3335  -19.6822  -15.4405 C   0  0  2  0  0  0  0  0  0  0  0  0
   23.3719  -18.3121  -14.9339 N   0  0  0  0  0  0  0  0  0  0  0  0
   24.6422  -20.3009  -15.1769 C   0  0  0  0  0  0  0  0  0  0  0  0
   24.9317  -21.4566  -15.6014 O   0  0  0  0  0  0  0  0  0  0  0  0
   21.5102  -17.8010  -17.5200 C   0  0  0  0  0  0  0  0  0  0  0  0
   20.2389  -17.2368  -17.6535 C   0  0  0  0  0  0  0  0  0  0  0  0
   28.0960  -19.5595  -16.9384 C   0  0  0  0  0  0  0  0  0  0  0  0
   27.9359  -18.5142  -15.8150 C   0  0  2  0  0  0  0  0  0  0  0  0
   29.0481  -17.5010  -16.0090 C   0  0  0  0  0  0  0  0  0  0  0  0
   28.0546  -19.2926  -14.5371 C   0  0  0  0  0  0  0  0  0  0  0  0
   26.8915  -20.1298  -14.1674 C   0  0  2  0  0  0  0  0  0  0  0  0
   25.6069  -19.5528  -14.4184 N   0  0  0  0  0  0  0  0  0  0  0  0
   26.9681  -20.6196  -12.7529 C   0  0  0  0  0  0  0  0  0  0  0  0
   27.8025  -21.5027  -12.4659 O   0  0  0  0  0  0  0  0  0  0  0  0
   26.1166  -20.1028  -11.7515 N   0  0  0  0  0  0  0  0  0  0  0  0
   26.0484  -20.6510  -10.4093 C   0  0  1  0  0  0  0  0  0  0  0  0
   26.9034  -19.8877   -9.4421 C   0  0  0  0  0  0  0  0  0  0  0  0
   26.6958  -20.3095   -8.0411 C   0  0  0  0  0  0  0  0  0  0  0  0
   25.6977  -21.0746   -7.4840 C   0  0  0  0  0  0  0  0  0  0  0  0
   25.9139  -21.2065   -6.1485 N   0  0  0  0  0  0  0  0  0  0  0  0
   27.0243  -20.5491   -5.8189 C   0  0  0  0  0  0  0  0  0  0  0  0
   27.6805  -20.3606   -4.6336 C   0  0  0  0  0  0  0  0  0  0  0  0
   28.8468  -19.5986   -4.6125 C   0  0  0  0  0  0  0  0  0  0  0  0
   29.3418  -19.0376   -5.7725 C   0  0  0  0  0  0  0  0  0  0  0  0
   28.6846  -19.2265   -6.9652 C   0  0  0  0  0  0  0  0  0  0  0  0
   27.5235  -19.9870   -6.9721 C   0  0  0  0  0  0  0  0  0  0  0  0
   24.6587  -20.6594   -9.9029 C   0  0  0  0  0  0  0  0  0  0  0  0
   24.3779  -21.3508   -8.7477 O   0  0  0  0  0  0  0  0  0  0  0  0
   23.7775  -20.0471  -10.5245 O   0  0  0  0  0  0  0  0  0  0  0  0
  2  1  1  0
  3  2  2  0
  4  3  1  0
  5  4  2  0
  5 11  1  0
  6  5  1  0
  7  6  1  0
  7  8  1  6
  9 18  1  0
  9  7  1  0
 10  9  2  0
 11 12  2  0
 12  2  1  0
 14 13  1  6
 14 16  1  0
 15 14  1  0
 17 16  1  1
 17 18  1  0
 17 19  1  0
 19 21  1  0
 19 20  2  0
 21 22  1  0
 22 23  1  1
 22 33  1  0
 24 23  1  0
 25 24  2  0
 26 25  1  0
 27 26  1  0
 27 32  2  0
 28 27  1  0
 29 28  2  0
 29 30  1  0
 30 31  2  0
 31 32  1  0
 32 24  1  0
 33 34  1  0
 35 33  2  0
M  END
$$$$
