YLW.pdb
     RDKit          3D

 35 37  0  0  1  0  0  0  0  0999 V2000
   28.2970  -14.9555  -18.7962 O   0  0  0  0  0  0  0  0  0  0  0  0
   27.4806  -15.9065  -18.1852 C   0  0  0  0  0  0  0  0  0  0  0  0
   27.2445  -15.7891  -16.8137 C   0  0  0  0  0  0  0  0  0  0  0  0
   26.4414  -16.7337  -16.2370 C   0  0  0  0  0  0  0  0  0  0  0  0
   25.8670  -17.7726  -16.9289 C   0  0  0  0  0  0  0  0  0  0  0  0
   25.0072  -18.7721  -16.2355 C   0  0  0  0  0  0  0  0  0  0  0  0
   25.8652  -19.6074  -15.3461 C   0  0  2  0  0  0  0  0  0  0  0  0
   26.8250  -20.3970  -16.1146 N   0  0  0  0  0  0  0  0  0  0  0  0
   25.0867  -20.5309  -14.5058 C   0  0  0  0  0  0  0  0  0  0  0  0
   24.7093  -21.6614  -14.9291 O   0  0  0  0  0  0  0  0  0  0  0  0
   26.1009  -17.8876  -18.2860 C   0  0  0  0  0  0  0  0  0  0  0  0
   26.9168  -16.9385  -18.9072 C   0  0  0  0  0  0  0  0  0  0  0  0
   26.7368  -21.9061  -11.3224 C   0  0  0  0  0  0  0  0  0  0  0  0
   25.9003  -20.7740  -10.6908 C   0  0  2  0  0  0  0  0  0  0  0  0
   26.2594  -20.7450   -9.2172 C   0  0  0  0  0  0  0  0  0  0  0  0
   24.4712  -21.1534  -10.9489 C   0  0  0  0  0  0  0  0  0  0  0  0
   23.9912  -20.9981  -12.3402 C   0  0  2  0  0  0  0  0  0  0  0  0
   24.7604  -20.1205  -13.1675 N   0  0  0  0  0  0  0  0  0  0  0  0
   22.5406  -20.6263  -12.4048 C   0  0  0  0  0  0  0  0  0  0  0  0
   22.1654  -19.5680  -11.8592 O   0  0  0  0  0  0  0  0  0  0  0  0
   21.6021  -21.4494  -13.0656 N   0  0  0  0  0  0  0  0  0  0  0  0
   20.1960  -21.1096  -13.1849 C   0  0  1  0  0  0  0  0  0  0  0  0
   19.9427  -20.1285  -14.2905 C   0  0  0  0  0  0  0  0  0  0  0  0
   20.5927  -20.5182  -15.5591 C   0  0  0  0  0  0  0  0  0  0  0  0
   20.8518  -21.7663  -16.0760 C   0  0  0  0  0  0  0  0  0  0  0  0
   21.4711  -21.6433  -17.2797 N   0  0  0  0  0  0  0  0  0  0  0  0
   21.6237  -20.3508  -17.5623 C   0  0  0  0  0  0  0  0  0  0  0  0
   22.1750  -19.6859  -18.6229 C   0  0  0  0  0  0  0  0  0  0  0  0
   22.1877  -18.2926  -18.6235 C   0  0  0  0  0  0  0  0  0  0  0  0
   21.6499  -17.5836  -17.5682 C   0  0  0  0  0  0  0  0  0  0  0  0
   21.0944  -18.2497  -16.5015 C   0  0  0  0  0  0  0  0  0  0  0  0
   21.0889  -19.6377  -16.5132 C   0  0  0  0  0  0  0  0  0  0  0  0
   19.3715  -22.3136  -13.4269 C   0  0  0  0  0  0  0  0  0  0  0  0
   18.0019  -22.1897  -13.4311 O   0  0  0  0  0  0  0  0  0  0  0  0
   19.9260  -23.4058  -13.6205 O   0  0  0  0  0  0  0  0  0  0  0  0
  2  1  1  0
  3  2  2  0
  4  3  1  0
  5  4  2  0
  5 11  1  0
  6  5  1  0
  7  6  1  0
  7  8  1  6
  9 18  1  0
  9  7  1  0
 10  9  2  0
 11 12  2  0
 12  2  1  0
 14 13  1  6
 14 16  1  0
 15 14  1  0
 17 16  1  1
 17 18  1  0
 17 19  1  0
 19 21  1  0
 19 20  2  0
 21 22  1  0
 22 23  1  6
 22 33  1  0
 24 23  1  0
 25 24  2  0
 26 25  1  0
 27 26  1  0
 27 32  2  0
 28 27  1  0
 29 28  2  0
 29 30  1  0
 30 31  2  0
 31 32  1  0
 32 24  1  0
 33 34  1  0
 35 33  2  0
M  END
$$$$
