YLW.pdb
     RDKit          3D

 35 37  0  0  1  0  0  0  0  0999 V2000
   19.0644  -16.3000  -15.9113 O   0  0  0  0  0  0  0  0  0  0  0  0
   19.9078  -17.2001  -15.2613 C   0  0  0  0  0  0  0  0  0  0  0  0
   21.0485  -16.6975  -14.6313 C   0  0  0  0  0  0  0  0  0  0  0  0
   21.8604  -17.5995  -14.0012 C   0  0  0  0  0  0  0  0  0  0  0  0
   21.6125  -18.9503  -13.9593 C   0  0  0  0  0  0  0  0  0  0  0  0
   22.5445  -19.8787  -13.2603 C   0  0  0  0  0  0  0  0  0  0  0  0
   23.8505  -19.8790  -13.9807 C   0  0  2  0  0  0  0  0  0  0  0  0
   23.6941  -20.2916  -15.3738 N   0  0  0  0  0  0  0  0  0  0  0  0
   24.8471  -20.7620  -13.3546 C   0  0  0  0  0  0  0  0  0  0  0  0
   24.9257  -21.9908  -13.6438 O   0  0  0  0  0  0  0  0  0  0  0  0
   20.4834  -19.4466  -14.5826 C   0  0  0  0  0  0  0  0  0  0  0  0
   19.6315  -18.5518  -15.2355 C   0  0  0  0  0  0  0  0  0  0  0  0
   28.2137  -20.8417  -14.4752 C   0  0  0  0  0  0  0  0  0  0  0  0
   28.4061  -19.8111  -13.3435 C   0  0  2  0  0  0  0  0  0  0  0  0
   29.8250  -19.2904  -13.4728 C   0  0  0  0  0  0  0  0  0  0  0  0
   28.1646  -20.5750  -12.0741 C   0  0  0  0  0  0  0  0  0  0  0  0
   26.7739  -21.0170  -11.8278 C   0  0  2  0  0  0  0  0  0  0  0  0
   25.7513  -20.1921  -12.3935 N   0  0  0  0  0  0  0  0  0  0  0  0
   26.4993  -21.2522  -10.3732 C   0  0  0  0  0  0  0  0  0  0  0  0
   27.2486  -22.0208   -9.7357 O   0  0  0  0  0  0  0  0  0  0  0  0
   25.4148  -20.6245   -9.7215 N   0  0  0  0  0  0  0  0  0  0  0  0
   24.9931  -20.9679   -8.3758 C   0  0  1  0  0  0  0  0  0  0  0  0
   25.1832  -19.8315   -7.4159 C   0  0  0  0  0  0  0  0  0  0  0  0
   26.6005  -19.4397   -7.2691 C   0  0  0  0  0  0  0  0  0  0  0  0
   27.4096  -18.7080   -8.1070 C   0  0  0  0  0  0  0  0  0  0  0  0
   28.6496  -18.5949   -7.5617 N   0  0  0  0  0  0  0  0  0  0  0  0
   28.6723  -19.2323   -6.3925 C   0  0  0  0  0  0  0  0  0  0  0  0
   29.6483  -19.4267   -5.4541 C   0  0  0  0  0  0  0  0  0  0  0  0
   29.3560  -20.1618   -4.3071 C   0  0  0  0  0  0  0  0  0  0  0  0
   28.0958  -20.6904   -4.1123 C   0  0  0  0  0  0  0  0  0  0  0  0
   27.1129  -20.4954   -5.0536 C   0  0  0  0  0  0  0  0  0  0  0  0
   27.4176  -19.7620   -6.1920 C   0  0  0  0  0  0  0  0  0  0  0  0
   23.5715  -21.3754   -8.3463 C   0  0  0  0  0  0  0  0  0  0  0  0
   23.0553  -21.8980   -7.1836 O   0  0  0  0  0  0  0  0  0  0  0  0
   22.8750  -21.2393   -9.3633 O   0  0  0  0  0  0  0  0  0  0  0  0
  2  1  1  0
  3  2  2  0
  4  3  1  0
  5  4  2  0
  5 11  1  0
  6  5  1  0
  7  6  1  0
  7  8  1  6
  9 18  1  0
  9  7  1  0
 10  9  2  0
 11 12  2  0
 12  2  1  0
 14 13  1  6
 14 16  1  0
 15 14  1  0
 17 16  1  1
 17 18  1  0
 17 19  1  0
 19 21  1  0
 19 20  2  0
 21 22  1  0
 22 23  1  1
 22 33  1  0
 24 23  1  0
 25 24  2  0
 26 25  1  0
 27 26  1  0
 27 32  2  0
 28 27  1  0
 29 28  2  0
 29 30  1  0
 30 31  2  0
 31 32  1  0
 32 24  1  0
 33 34  1  0
 35 33  2  0
M  END
$$$$
