YLW.pdb
     RDKit          3D

 35 37  0  0  1  0  0  0  0  0999 V2000
   16.4559  -23.7347   -9.4222 O   0  0  0  0  0  0  0  0  0  0  0  0
   17.6155  -23.3725  -10.1066 C   0  0  0  0  0  0  0  0  0  0  0  0
   17.5110  -23.0683  -11.4657 C   0  0  0  0  0  0  0  0  0  0  0  0
   18.6616  -22.7166  -12.1154 C   0  0  0  0  0  0  0  0  0  0  0  0
   19.8917  -22.6498  -11.5069 C   0  0  0  0  0  0  0  0  0  0  0  0
   21.1076  -22.2660  -12.2773 C   0  0  0  0  0  0  0  0  0  0  0  0
   21.5227  -20.8939  -11.8651 C   0  0  2  0  0  0  0  0  0  0  0  0
   20.5958  -19.8807  -12.3647 N   0  0  0  0  0  0  0  0  0  0  0  0
   22.8737  -20.5427  -12.3305 C   0  0  0  0  0  0  0  0  0  0  0  0
   23.0623  -19.8616  -13.3795 O   0  0  0  0  0  0  0  0  0  0  0  0
   19.9940  -22.9505  -10.1619 C   0  0  0  0  0  0  0  0  0  0  0  0
   18.8370  -23.3133   -9.4675 C   0  0  0  0  0  0  0  0  0  0  0  0
   28.2201  -21.6689   -9.7771 C   0  0  0  0  0  0  0  0  0  0  0  0
   27.5577  -21.4745  -11.1569 C   0  0  2  0  0  0  0  0  0  0  0  0
   28.5871  -20.7889  -12.0351 C   0  0  0  0  0  0  0  0  0  0  0  0
   26.3437  -20.6323  -10.8923 C   0  0  0  0  0  0  0  0  0  0  0  0
   25.3158  -20.6086  -11.9568 C   0  0  2  0  0  0  0  0  0  0  0  0
   23.9974  -20.9913  -11.5548 N   0  0  0  0  0  0  0  0  0  0  0  0
   25.7310  -21.3878  -13.1679 C   0  0  0  0  0  0  0  0  0  0  0  0
   25.8891  -22.6219  -13.0648 O   0  0  0  0  0  0  0  0  0  0  0  0
   25.9459  -20.7515  -14.4104 N   0  0  0  0  0  0  0  0  0  0  0  0
   26.2754  -21.4752  -15.6247 C   0  0  1  0  0  0  0  0  0  0  0  0
   25.9968  -20.6683  -16.8577 C   0  0  0  0  0  0  0  0  0  0  0  0
   26.9998  -19.6067  -17.0833 C   0  0  0  0  0  0  0  0  0  0  0  0
   28.2264  -19.6629  -17.7033 C   0  0  0  0  0  0  0  0  0  0  0  0
   28.8079  -18.4345  -17.6787 N   0  0  0  0  0  0  0  0  0  0  0  0
   27.9959  -17.5791  -17.0601 C   0  0  0  0  0  0  0  0  0  0  0  0
   28.0919  -16.2466  -16.7667 C   0  0  0  0  0  0  0  0  0  0  0  0
   27.0491  -15.6200  -16.0876 C   0  0  0  0  0  0  0  0  0  0  0  0
   25.9264  -16.3302  -15.7126 C   0  0  0  0  0  0  0  0  0  0  0  0
   25.8271  -17.6694  -16.0073 C   0  0  0  0  0  0  0  0  0  0  0  0
   26.8734  -18.2815  -16.6835 C   0  0  0  0  0  0  0  0  0  0  0  0
   27.6980  -21.8798  -15.6391 C   0  0  0  0  0  0  0  0  0  0  0  0
   28.5689  -21.2733  -14.7644 O   0  0  0  0  0  0  0  0  0  0  0  0
   28.0776  -22.7528  -16.4338 O   0  0  0  0  0  0  0  0  0  0  0  0
  2  1  1  0
  3  2  2  0
  4  3  1  0
  5  4  2  0
  5 11  1  0
  6  5  1  0
  7  6  1  0
  7  8  1  6
  9 18  1  0
  9  7  1  0
 10  9  2  0
 11 12  2  0
 12  2  1  0
 14 13  1  1
 14 16  1  0
 15 14  1  0
 17 16  1  1
 17 18  1  0
 17 19  1  0
 19 21  1  0
 19 20  2  0
 21 22  1  0
 22 23  1  6
 22 33  1  0
 24 23  1  0
 25 24  2  0
 26 25  1  0
 27 26  1  0
 27 32  2  0
 28 27  1  0
 29 28  2  0
 29 30  1  0
 30 31  2  0
 31 32  1  0
 32 24  1  0
 33 34  1  0
 35 33  2  0
M  END
$$$$
