YLW.pdb
     RDKit          3D

 35 37  0  0  1  0  0  0  0  0999 V2000
   20.3919  -18.0038  -23.6631 O   0  0  0  0  0  0  0  0  0  0  0  0
   21.0170  -18.6294  -22.5850 C   0  0  0  0  0  0  0  0  0  0  0  0
   20.4644  -19.8174  -22.1014 C   0  0  0  0  0  0  0  0  0  0  0  0
   21.0945  -20.4118  -21.0434 C   0  0  0  0  0  0  0  0  0  0  0  0
   22.2231  -19.9059  -20.4449 C   0  0  0  0  0  0  0  0  0  0  0  0
   22.8551  -20.6021  -19.2895 C   0  0  0  0  0  0  0  0  0  0  0  0
   24.2639  -20.9389  -19.6453 C   0  0  2  0  0  0  0  0  0  0  0  0
   24.3241  -21.9834  -20.6654 N   0  0  0  0  0  0  0  0  0  0  0  0
   25.0526  -21.3888  -18.4874 C   0  0  0  0  0  0  0  0  0  0  0  0
   25.3239  -22.6096  -18.2982 O   0  0  0  0  0  0  0  0  0  0  0  0
   22.7694  -18.7306  -20.9245 C   0  0  0  0  0  0  0  0  0  0  0  0
   22.1506  -18.0972  -22.0055 C   0  0  0  0  0  0  0  0  0  0  0  0
   28.7237  -20.0908  -18.0765 C   0  0  0  0  0  0  0  0  0  0  0  0
   28.0159  -19.0687  -17.1629 C   0  0  2  0  0  0  0  0  0  0  0  0
   29.0867  -18.1072  -16.6833 C   0  0  0  0  0  0  0  0  0  0  0  0
   27.4099  -19.8854  -16.0589 C   0  0  0  0  0  0  0  0  0  0  0  0
   26.3221  -20.8107  -16.4472 C   0  0  2  0  0  0  0  0  0  0  0  0
   25.5234  -20.3971  -17.5595 N   0  0  0  0  0  0  0  0  0  0  0  0
   25.4428  -21.1749  -15.2894 C   0  0  0  0  0  0  0  0  0  0  0  0
   25.9676  -21.6487  -14.2605 O   0  0  0  0  0  0  0  0  0  0  0  0
   24.0432  -20.9935  -15.3468 N   0  0  0  0  0  0  0  0  0  0  0  0
   23.1646  -21.2476  -14.2198 C   0  0  1  0  0  0  0  0  0  0  0  0
   23.2369  -20.1605  -13.1894 C   0  0  0  0  0  0  0  0  0  0  0  0
   23.1242  -18.8092  -13.7768 C   0  0  0  0  0  0  0  0  0  0  0  0
   22.0454  -18.1801  -14.3534 C   0  0  0  0  0  0  0  0  0  0  0  0
   22.4056  -16.9335  -14.7582 N   0  0  0  0  0  0  0  0  0  0  0  0
   23.6884  -16.7319  -14.4624 C   0  0  0  0  0  0  0  0  0  0  0  0
   24.5343  -15.6733  -14.6491 C   0  0  0  0  0  0  0  0  0  0  0  0
   25.8570  -15.7727  -14.2226 C   0  0  0  0  0  0  0  0  0  0  0  0
   26.3159  -16.9244  -13.6157 C   0  0  0  0  0  0  0  0  0  0  0  0
   25.4673  -17.9893  -13.4260 C   0  0  0  0  0  0  0  0  0  0  0  0
   24.1524  -17.8774  -13.8562 C   0  0  0  0  0  0  0  0  0  0  0  0
   21.7585  -21.3886  -14.6566 C   0  0  0  0  0  0  0  0  0  0  0  0
   20.8202  -21.8131  -13.7451 O   0  0  0  0  0  0  0  0  0  0  0  0
   21.4525  -21.1231  -15.8287 O   0  0  0  0  0  0  0  0  0  0  0  0
  2  1  1  0
  3  2  2  0
  4  3  1  0
  5  4  2  0
  5 11  1  0
  6  5  1  0
  7  6  1  0
  7  8  1  6
  9 18  1  0
  9  7  1  0
 10  9  2  0
 11 12  2  0
 12  2  1  0
 14 13  1  6
 14 16  1  0
 15 14  1  0
 17 16  1  1
 17 18  1  0
 17 19  1  0
 19 21  1  0
 19 20  2  0
 21 22  1  0
 22 23  1  1
 22 33  1  0
 24 23  1  0
 25 24  2  0
 26 25  1  0
 27 26  1  0
 27 32  2  0
 28 27  1  0
 29 28  2  0
 29 30  1  0
 30 31  2  0
 31 32  1  0
 32 24  1  0
 33 34  1  0
 35 33  2  0
M  END
$$$$
