CGG.pdb
     RDKit          3D

 15 14  0  0  1  0  0  0  0  0999 V2000
   18.6372  -11.8785  -15.3368 N   0  0  0  0  0  0  0  0  0  0  0  0
   17.6005  -11.1050  -15.9437 C   0  0  1  0  0  0  0  0  0  0  0  0
   16.2971  -11.3054  -15.1992 C   0  0  0  0  0  0  0  0  0  0  0  0
   16.2634  -12.8843  -14.3538 S   0  0  0  0  0  0  0  0  0  0  0  0
   17.9168   -9.6460  -15.8562 C   0  0  0  0  0  0  0  0  0  0  0  0
   16.9909   -8.8125  -16.0292 O   0  0  0  0  0  0  0  0  0  0  0  0
   19.2406   -9.2053  -15.5822 N   0  0  0  0  0  0  0  0  0  0  0  0
   19.9808   -8.4318  -16.5599 C   0  0  0  0  0  0  0  0  0  0  0  0
   20.9960   -7.6019  -15.9030 C   0  0  0  0  0  0  0  0  0  0  0  0
   21.7278   -6.8603  -16.5915 O   0  0  0  0  0  0  0  0  0  0  0  0
   21.1688   -7.6201  -14.4983 N   0  0  0  0  0  0  0  0  0  0  0  0
   22.2180   -6.8158  -13.9151 C   0  0  0  0  0  0  0  0  0  0  0  0
   21.7327   -5.4208  -13.7352 C   0  0  0  0  0  0  0  0  0  0  0  0
   22.6491   -4.4284  -13.5132 O   0  0  0  0  0  0  0  0  0  0  0  0
   20.5178   -5.1667  -13.7863 O   0  0  0  0  0  0  0  0  0  0  0  0
  2  1  1  1
  2  3  1  0
  3  4  1  0
  5  2  1  0
  6  5  2  0
  7  5  1  0
  8  7  1  0
  9 11  1  0
  9  8  1  0
 10  9  2  0
 12 13  1  0
 12 11  1  0
 13 14  1  0
 15 13  2  0
M  END
$$$$
