CGG.pdb
     RDKit          3D

 15 14  0  0  1  0  0  0  0  0999 V2000
   23.4034  -13.4890  -17.3102 N   0  0  0  0  0  0  0  0  0  0  0  0
   23.9536  -12.4489  -16.4997 C   0  0  1  0  0  0  0  0  0  0  0  0
   25.4386  -12.3132  -16.7635 C   0  0  0  0  0  0  0  0  0  0  0  0
   26.3139  -13.8247  -16.3658 S   0  0  0  0  0  0  0  0  0  0  0  0
   23.3400  -11.1314  -16.8517 C   0  0  0  0  0  0  0  0  0  0  0  0
   23.0512  -10.8978  -18.0533 O   0  0  0  0  0  0  0  0  0  0  0  0
   23.0862  -10.1573  -15.8475 N   0  0  0  0  0  0  0  0  0  0  0  0
   22.3798   -8.9319  -16.1661 C   0  0  0  0  0  0  0  0  0  0  0  0
   22.3639   -8.0279  -15.0115 C   0  0  0  0  0  0  0  0  0  0  0  0
   22.5206   -8.4907  -13.8622 O   0  0  0  0  0  0  0  0  0  0  0  0
   22.1742   -6.6340  -15.1675 N   0  0  0  0  0  0  0  0  0  0  0  0
   22.1324   -5.8003  -13.9881 C   0  0  0  0  0  0  0  0  0  0  0  0
   21.8793   -4.3891  -14.3860 C   0  0  0  0  0  0  0  0  0  0  0  0
   21.8744   -3.4225  -13.4167 O   0  0  0  0  0  0  0  0  0  0  0  0
   21.6769   -4.0987  -15.5767 O   0  0  0  0  0  0  0  0  0  0  0  0
  2  1  1  6
  2  3  1  0
  3  4  1  0
  5  2  1  0
  6  5  2  0
  7  5  1  0
  8  7  1  0
  9 11  1  0
  9  8  1  0
 10  9  2  0
 12 13  1  0
 12 11  1  0
 13 14  1  0
 15 13  2  0
M  END
$$$$
