CGG.pdb
     RDKit          3D

 15 14  0  0  1  0  0  0  0  0999 V2000
   19.9278  -12.1329  -15.6964 N   0  0  0  0  0  0  0  0  0  0  0  0
   18.9809  -11.2922  -16.3582 C   0  0  1  0  0  0  0  0  0  0  0  0
   17.6827  -11.2559  -15.5793 C   0  0  0  0  0  0  0  0  0  0  0  0
   17.1633  -12.9011  -15.0973 S   0  0  0  0  0  0  0  0  0  0  0  0
   19.4802   -9.8837  -16.4127 C   0  0  0  0  0  0  0  0  0  0  0  0
   18.7697   -9.0088  -16.9710 O   0  0  0  0  0  0  0  0  0  0  0  0
   20.7363   -9.5362  -15.8441 N   0  0  0  0  0  0  0  0  0  0  0  0
   21.3210   -8.2309  -16.0817 C   0  0  0  0  0  0  0  0  0  0  0  0
   21.4429   -7.4817  -14.8269 C   0  0  0  0  0  0  0  0  0  0  0  0
   21.2294   -8.0582  -13.7398 O   0  0  0  0  0  0  0  0  0  0  0  0
   21.7991   -6.1119  -14.8162 N   0  0  0  0  0  0  0  0  0  0  0  0
   21.9417   -5.4391  -13.5455 C   0  0  0  0  0  0  0  0  0  0  0  0
   22.1755   -3.9878  -13.7753 C   0  0  0  0  0  0  0  0  0  0  0  0
   22.3111   -3.1629  -12.6912 O   0  0  0  0  0  0  0  0  0  0  0  0
   22.2457   -3.5380  -14.9311 O   0  0  0  0  0  0  0  0  0  0  0  0
  2  1  1  1
  2  3  1  0
  3  4  1  0
  5  2  1  0
  6  5  2  0
  7  5  1  0
  8  7  1  0
  9 11  1  0
  9  8  1  0
 10  9  2  0
 12 13  1  0
 12 11  1  0
 13 14  1  0
 15 13  2  0
M  END
$$$$
