CGG.pdb
     RDKit          3D

 15 14  0  0  1  0  0  0  0  0999 V2000
   27.2423  -12.8590  -17.5882 N   0  0  0  0  0  0  0  0  0  0  0  0
   26.5938  -12.2716  -16.4588 C   0  0  1  0  0  0  0  0  0  0  0  0
   27.4921  -12.3517  -15.2423 C   0  0  0  0  0  0  0  0  0  0  0  0
   27.8493  -14.0516  -14.8044 S   0  0  0  0  0  0  0  0  0  0  0  0
   26.3380  -10.8180  -16.6998 C   0  0  0  0  0  0  0  0  0  0  0  0
   27.1713  -10.1582  -17.3723 O   0  0  0  0  0  0  0  0  0  0  0  0
   25.1737  -10.1897  -16.1791 N   0  0  0  0  0  0  0  0  0  0  0  0
   24.8859   -8.8003  -16.4770 C   0  0  0  0  0  0  0  0  0  0  0  0
   23.6605   -8.3677  -15.7973 C   0  0  0  0  0  0  0  0  0  0  0  0
   23.0298   -9.1774  -15.0858 O   0  0  0  0  0  0  0  0  0  0  0  0
   23.1707   -7.0462  -15.9280 N   0  0  0  0  0  0  0  0  0  0  0  0
   21.8958   -6.7140  -15.3348 C   0  0  0  0  0  0  0  0  0  0  0  0
   21.5764   -5.2872  -15.6104 C   0  0  0  0  0  0  0  0  0  0  0  0
   20.4156   -4.7633  -15.1080 O   0  0  0  0  0  0  0  0  0  0  0  0
   22.3516   -4.5885  -16.2843 O   0  0  0  0  0  0  0  0  0  0  0  0
  2  1  1  6
  2  3  1  0
  3  4  1  0
  5  2  1  0
  6  5  2  0
  7  5  1  0
  8  7  1  0
  9 11  1  0
  9  8  1  0
 10  9  2  0
 12 13  1  0
 12 11  1  0
 13 14  1  0
 15 13  2  0
M  END
$$$$
