WIR.pdb
     RDKit          3D

 34 35  0  0  1  0  0  0  0  0999 V2000
   26.4901  -20.9712  -13.3957 N   0  0  0  0  0  0  0  0  0  0  0  0
   25.4274  -20.5952  -12.4710 C   0  0  1  0  0  0  0  0  0  0  0  0
   24.0924  -21.0235  -13.0516 C   0  0  0  0  0  0  0  0  0  0  0  0
   23.8581  -20.1975  -14.2576 C   0  0  0  0  0  0  0  0  0  0  0  0
   24.6228  -20.1433  -15.3996 C   0  0  0  0  0  0  0  0  0  0  0  0
   24.0722  -19.2459  -16.2686 N   0  0  0  0  0  0  0  0  0  0  0  0
   22.9733  -18.7227  -15.7155 C   0  0  0  0  0  0  0  0  0  0  0  0
   22.0759  -17.7969  -16.1760 C   0  0  0  0  0  0  0  0  0  0  0  0
   21.0023  -17.4471  -15.3569 C   0  0  0  0  0  0  0  0  0  0  0  0
   20.8290  -18.0098  -14.1061 C   0  0  0  0  0  0  0  0  0  0  0  0
   21.7638  -18.9531  -13.6634 C   0  0  0  0  0  0  0  0  0  0  0  0
   22.8164  -19.2960  -14.4661 C   0  0  0  0  0  0  0  0  0  0  0  0
   25.6454  -21.0407  -11.0986 C   0  0  0  0  0  0  0  0  0  0  0  0
   25.6281  -22.3079  -10.8863 O   0  0  0  0  0  0  0  0  0  0  0  0
   27.8754  -19.5620   -5.5905 C   0  0  0  0  0  0  0  0  0  0  0  0
   26.9290  -20.4531   -6.3858 C   0  0  0  0  0  0  0  0  0  0  0  0
   26.7460  -19.9432   -7.7761 C   0  0  2  0  0  0  0  0  0  0  0  0
   26.3847  -18.4879   -7.7543 C   0  0  0  0  0  0  0  0  0  0  0  0
   25.8117  -20.7934   -8.6020 C   0  0  2  0  0  0  0  0  0  0  0  0
   25.8768  -20.2346   -9.9590 N   0  0  0  0  0  0  0  0  0  0  0  0
   24.4261  -20.8150   -8.0946 C   0  0  0  0  0  0  0  0  0  0  0  0
   23.6358  -19.8730   -8.3677 O   0  0  0  0  0  0  0  0  0  0  0  0
   17.9240  -24.7438   -5.2698 N   0  0  0  0  0  0  0  0  0  0  0  0
   17.4634  -24.4781   -6.5988 C   0  0  0  0  0  0  0  0  0  0  0  0
   16.1971  -24.3015   -6.7980 N   0  0  0  0  0  0  0  0  0  0  0  0
   18.3965  -24.4122   -7.6671 N   0  0  0  0  0  0  0  0  0  0  0  0
   19.8204  -24.5974   -7.4434 C   0  0  0  0  0  0  0  0  0  0  0  0
   20.4778  -23.3692   -6.9219 C   0  0  0  0  0  0  0  0  0  0  0  0
   21.8660  -23.1012   -7.3526 C   0  0  0  0  0  0  0  0  0  0  0  0
   22.5529  -21.8903   -6.8232 C   0  0  2  0  0  0  0  0  0  0  0  0
   23.9215  -21.8695   -7.2931 N   0  0  0  0  0  0  0  0  0  0  0  0
   22.4774  -21.6673   -5.3865 C   0  0  0  0  0  0  0  0  0  0  0  0
   21.3485  -21.1924   -4.7371 O   0  0  0  0  0  0  0  0  0  0  0  0
   23.4856  -21.9080   -4.6370 O   0  0  0  0  0  0  0  0  0  0  0  0
  2  1  1  6
  3  2  1  0
  4  3  1  0
  5  4  2  0
  6  5  1  0
  7 12  2  0
  7  6  1  0
  8  7  1  0
  9  8  2  0
  9 10  1  0
 10 11  2  0
 11 12  1  0
 12  4  1  0
 13  2  1  0
 14 13  2  0
 15 16  1  0
 17 16  1  0
 17 19  1  0
 17 18  1  1
 19 21  1  0
 19 20  1  6
 20 13  1  0
 21 31  1  0
 22 21  2  0
 23 24  1  0
 24 25  2  0
 26 24  1  0
 26 27  1  0
 28 27  1  0
 28 29  1  0
 30 29  1  1
 30 32  1  0
 31 30  1  0
 32 34  2  0
 32 33  1  0
M  END
$$$$
