WIR.pdb
     RDKit          3D

 34 35  0  0  1  0  0  0  0  0999 V2000
   29.4256  -19.5745  -14.9956 N   0  0  0  0  0  0  0  0  0  0  0  0
   28.0810  -19.2888  -14.5096 C   0  0  1  0  0  0  0  0  0  0  0  0
   27.1521  -19.1176  -15.6972 C   0  0  0  0  0  0  0  0  0  0  0  0
   27.4702  -17.8092  -16.3124 C   0  0  0  0  0  0  0  0  0  0  0  0
   28.2448  -17.5700  -17.4236 C   0  0  0  0  0  0  0  0  0  0  0  0
   28.3014  -16.2254  -17.6527 N   0  0  0  0  0  0  0  0  0  0  0  0
   27.5828  -15.5942  -16.7186 C   0  0  0  0  0  0  0  0  0  0  0  0
   27.3240  -14.2655  -16.5139 C   0  0  0  0  0  0  0  0  0  0  0  0
   26.5172  -13.9039  -15.4350 C   0  0  0  0  0  0  0  0  0  0  0  0
   25.9807  -14.8486  -14.5800 C   0  0  0  0  0  0  0  0  0  0  0  0
   26.2641  -16.1992  -14.8154 C   0  0  0  0  0  0  0  0  0  0  0  0
   27.0551  -16.5538  -15.8729 C   0  0  0  0  0  0  0  0  0  0  0  0
   27.5945  -20.2343  -13.5101 C   0  0  0  0  0  0  0  0  0  0  0  0
   27.8096  -21.4815  -13.7327 O   0  0  0  0  0  0  0  0  0  0  0  0
   26.9575  -19.2904   -8.2678 C   0  0  0  0  0  0  0  0  0  0  0  0
   27.1706  -20.2054   -9.4677 C   0  0  0  0  0  0  0  0  0  0  0  0
   25.8996  -20.4155  -10.2205 C   0  0  2  0  0  0  0  0  0  0  0  0
   24.9322  -21.2132   -9.3978 C   0  0  0  0  0  0  0  0  0  0  0  0
   26.1163  -20.9614  -11.6108 C   0  0  2  0  0  0  0  0  0  0  0  0
   26.9059  -19.9389  -12.3099 N   0  0  0  0  0  0  0  0  0  0  0  0
   24.8637  -21.2604  -12.3315 C   0  0  0  0  0  0  0  0  0  0  0  0
   24.1554  -20.3241  -12.7878 O   0  0  0  0  0  0  0  0  0  0  0  0
   19.8549  -28.0515  -13.6608 N   0  0  0  0  0  0  0  0  0  0  0  0
   19.7525  -27.4719  -14.9657 C   0  0  0  0  0  0  0  0  0  0  0  0
   18.6877  -27.6942  -15.6667 N   0  0  0  0  0  0  0  0  0  0  0  0
   20.8119  -26.6685  -15.4641 N   0  0  0  0  0  0  0  0  0  0  0  0
   21.9425  -26.3002  -14.6288 C   0  0  0  0  0  0  0  0  0  0  0  0
   21.9471  -24.8530  -14.2851 C   0  0  0  0  0  0  0  0  0  0  0  0
   23.1861  -24.2913  -13.7074 C   0  0  0  0  0  0  0  0  0  0  0  0
   23.1888  -22.8633  -13.2837 C   0  0  2  0  0  0  0  0  0  0  0  0
   24.4008  -22.5830  -12.5445 N   0  0  0  0  0  0  0  0  0  0  0  0
   22.0089  -22.3853  -12.5774 C   0  0  0  0  0  0  0  0  0  0  0  0
   20.8553  -21.9473  -13.2091 O   0  0  0  0  0  0  0  0  0  0  0  0
   21.9871  -22.3472  -11.2990 O   0  0  0  0  0  0  0  0  0  0  0  0
  2  1  1  6
  3  2  1  0
  4  3  1  0
  5  4  2  0
  6  5  1  0
  7 12  2  0
  7  6  1  0
  8  7  1  0
  9  8  2  0
  9 10  1  0
 10 11  2  0
 11 12  1  0
 12  4  1  0
 13  2  1  0
 14 13  2  0
 15 16  1  0
 17 16  1  0
 17 19  1  0
 17 18  1  1
 19 21  1  0
 19 20  1  6
 20 13  1  0
 21 31  1  0
 22 21  2  0
 23 24  1  0
 24 25  2  0
 26 24  1  0
 26 27  1  0
 28 27  1  0
 28 29  1  0
 30 29  1  1
 30 32  1  0
 31 30  1  0
 32 34  2  0
 32 33  1  0
M  END
$$$$
