WIR.pdb
     RDKit          3D

 34 35  0  0  1  0  0  0  0  0999 V2000
   27.6335  -19.1630   -8.8418 N   0  0  0  0  0  0  0  0  0  0  0  0
   26.9622  -20.4192   -9.1535 C   0  0  1  0  0  0  0  0  0  0  0  0
   26.3442  -20.9773   -7.8849 C   0  0  0  0  0  0  0  0  0  0  0  0
   26.9788  -20.2745   -6.7469 C   0  0  0  0  0  0  0  0  0  0  0  0
   26.4938  -19.1897   -6.0542 C   0  0  0  0  0  0  0  0  0  0  0  0
   27.3892  -18.8357   -5.0865 N   0  0  0  0  0  0  0  0  0  0  0  0
   28.4365  -19.6650   -5.1384 C   0  0  0  0  0  0  0  0  0  0  0  0
   29.5806  -19.7332   -4.3895 C   0  0  0  0  0  0  0  0  0  0  0  0
   30.5076  -20.7338   -4.6816 C   0  0  0  0  0  0  0  0  0  0  0  0
   30.2961  -21.6461   -5.6987 C   0  0  0  0  0  0  0  0  0  0  0  0
   29.1168  -21.5499   -6.4467 C   0  0  0  0  0  0  0  0  0  0  0  0
   28.2080  -20.5689   -6.1608 C   0  0  0  0  0  0  0  0  0  0  0  0
   26.0342  -20.3370  -10.2766 C   0  0  0  0  0  0  0  0  0  0  0  0
   25.0717  -19.4914  -10.1781 O   0  0  0  0  0  0  0  0  0  0  0  0
   28.4559  -19.4432  -14.5391 C   0  0  0  0  0  0  0  0  0  0  0  0
   27.4314  -19.5448  -13.4156 C   0  0  0  0  0  0  0  0  0  0  0  0
   26.3488  -20.5134  -13.7565 C   0  0  2  0  0  0  0  0  0  0  0  0
   25.7694  -20.1951  -15.1026 C   0  0  0  0  0  0  0  0  0  0  0  0
   25.3169  -20.6587  -12.6648 C   0  0  2  0  0  0  0  0  0  0  0  0
   26.0674  -21.0860  -11.4765 N   0  0  0  0  0  0  0  0  0  0  0  0
   24.2387  -21.6117  -12.9921 C   0  0  0  0  0  0  0  0  0  0  0  0
   24.5183  -22.7726  -13.3930 O   0  0  0  0  0  0  0  0  0  0  0  0
   17.4441  -25.0737   -9.8687 N   0  0  0  0  0  0  0  0  0  0  0  0
   18.2460  -24.2038   -9.0628 C   0  0  0  0  0  0  0  0  0  0  0  0
   18.5038  -24.5443   -7.8413 N   0  0  0  0  0  0  0  0  0  0  0  0
   18.7418  -22.9925   -9.6134 N   0  0  0  0  0  0  0  0  0  0  0  0
   18.5144  -22.6427  -11.0054 C   0  0  0  0  0  0  0  0  0  0  0  0
   19.6615  -23.0106  -11.8780 C   0  0  0  0  0  0  0  0  0  0  0  0
   20.7853  -22.0549  -11.9693 C   0  0  0  0  0  0  0  0  0  0  0  0
   21.8219  -22.2750  -13.0159 C   0  0  2  0  0  0  0  0  0  0  0  0
   22.8651  -21.2819  -12.8763 N   0  0  0  0  0  0  0  0  0  0  0  0
   21.3562  -22.3715  -14.3919 C   0  0  0  0  0  0  0  0  0  0  0  0
   20.9038  -23.5457  -14.9735 O   0  0  0  0  0  0  0  0  0  0  0  0
   21.3458  -21.3404  -15.1489 O   0  0  0  0  0  0  0  0  0  0  0  0
  2  1  1  1
  3  2  1  0
  4  3  1  0
  5  4  2  0
  6  5  1  0
  7 12  2  0
  7  6  1  0
  8  7  1  0
  9  8  2  0
  9 10  1  0
 10 11  2  0
 11 12  1  0
 12  4  1  0
 13  2  1  0
 14 13  2  0
 15 16  1  0
 17 16  1  0
 17 19  1  0
 17 18  1  6
 19 21  1  0
 19 20  1  1
 20 13  1  0
 21 31  1  0
 22 21  2  0
 23 24  1  0
 24 25  2  0
 26 24  1  0
 26 27  1  0
 28 27  1  0
 28 29  1  0
 30 29  1  1
 30 32  1  0
 31 30  1  0
 32 34  2  0
 32 33  1  0
M  END
$$$$
