WIR.pdb
     RDKit          3D

 34 35  0  0  1  0  0  0  0  0999 V2000
   22.7716  -19.2323  -16.2671 N   0  0  0  0  0  0  0  0  0  0  0  0
   21.6043  -18.8685  -15.4729 C   0  0  1  0  0  0  0  0  0  0  0  0
   20.4328  -18.6147  -16.4035 C   0  0  0  0  0  0  0  0  0  0  0  0
   20.5414  -17.2126  -16.8661 C   0  0  0  0  0  0  0  0  0  0  0  0
   21.2337  -16.7393  -17.9563 C   0  0  0  0  0  0  0  0  0  0  0  0
   21.0925  -15.3834  -18.0262 N   0  0  0  0  0  0  0  0  0  0  0  0
   20.3269  -14.9727  -17.0101 C   0  0  0  0  0  0  0  0  0  0  0  0
   19.8916  -13.7271  -16.6449 C   0  0  0  0  0  0  0  0  0  0  0  0
   19.0818  -13.6107  -15.5150 C   0  0  0  0  0  0  0  0  0  0  0  0
   18.7149  -14.7140  -14.7671 C   0  0  0  0  0  0  0  0  0  0  0  0
   19.1764  -15.9740  -15.1659 C   0  0  0  0  0  0  0  0  0  0  0  0
   19.9704  -16.0883  -16.2733 C   0  0  0  0  0  0  0  0  0  0  0  0
   21.3070  -19.7987  -14.3885 C   0  0  0  0  0  0  0  0  0  0  0  0
   21.5242  -21.0452  -14.6124 O   0  0  0  0  0  0  0  0  0  0  0  0
   21.5479  -20.5491   -8.4593 C   0  0  0  0  0  0  0  0  0  0  0  0
   20.6322  -20.8639   -9.6359 C   0  0  0  0  0  0  0  0  0  0  0  0
   20.8865  -19.9421  -10.7813 C   0  0  2  0  0  0  0  0  0  0  0  0
   20.2580  -18.6051  -10.5239 C   0  0  0  0  0  0  0  0  0  0  0  0
   20.5236  -20.5418  -12.1179 C   0  0  2  0  0  0  0  0  0  0  0  0
   20.8021  -19.4888  -13.1036 N   0  0  0  0  0  0  0  0  0  0  0  0
   19.1233  -21.0002  -12.2008 C   0  0  0  0  0  0  0  0  0  0  0  0
   18.1800  -20.1660  -12.1701 O   0  0  0  0  0  0  0  0  0  0  0  0
   18.4761  -25.4690   -8.9480 N   0  0  0  0  0  0  0  0  0  0  0  0
   18.6408  -26.7859   -9.4842 C   0  0  0  0  0  0  0  0  0  0  0  0
   18.4342  -27.8050   -8.7139 N   0  0  0  0  0  0  0  0  0  0  0  0
   19.0239  -26.9503  -10.8415 N   0  0  0  0  0  0  0  0  0  0  0  0
   19.0113  -25.8357  -11.7739 C   0  0  0  0  0  0  0  0  0  0  0  0
   17.6367  -25.3340  -12.0406 C   0  0  0  0  0  0  0  0  0  0  0  0
   17.2630  -24.0249  -11.4651 C   0  0  0  0  0  0  0  0  0  0  0  0
   17.3940  -22.8105  -12.3176 C   0  0  2  0  0  0  0  0  0  0  0  0
   18.7719  -22.3684  -12.3166 N   0  0  0  0  0  0  0  0  0  0  0  0
   16.4797  -21.7119  -12.0410 C   0  0  0  0  0  0  0  0  0  0  0  0
   15.4024  -21.3819  -12.8485 O   0  0  0  0  0  0  0  0  0  0  0  0
   16.6386  -20.9785  -11.0051 O   0  0  0  0  0  0  0  0  0  0  0  0
  2  1  1  6
  3  2  1  0
  4  3  1  0
  5  4  2  0
  6  5  1  0
  7 12  2  0
  7  6  1  0
  8  7  1  0
  9  8  2  0
  9 10  1  0
 10 11  2  0
 11 12  1  0
 12  4  1  0
 13  2  1  0
 14 13  2  0
 15 16  1  0
 17 16  1  0
 17 19  1  0
 17 18  1  1
 19 21  1  0
 19 20  1  6
 20 13  1  0
 21 31  1  0
 22 21  2  0
 23 24  1  0
 24 25  2  0
 26 24  1  0
 26 27  1  0
 28 27  1  0
 28 29  1  0
 30 29  1  1
 30 32  1  0
 31 30  1  0
 32 34  2  0
 32 33  1  0
M  END
$$$$
