WIR.pdb
     RDKit          3D

 34 35  0  0  1  0  0  0  0  0999 V2000
   28.3932  -19.9927  -15.7752 N   0  0  0  0  0  0  0  0  0  0  0  0
   27.4319  -19.3400  -14.8944 C   0  0  1  0  0  0  0  0  0  0  0  0
   26.5221  -18.4544  -15.7255 C   0  0  0  0  0  0  0  0  0  0  0  0
   27.0193  -17.0671  -15.5845 C   0  0  0  0  0  0  0  0  0  0  0  0
   26.6170  -16.1196  -14.6722 C   0  0  0  0  0  0  0  0  0  0  0  0
   27.3112  -14.9639  -14.8866 N   0  0  0  0  0  0  0  0  0  0  0  0
   28.1497  -15.1440  -15.9121 C   0  0  0  0  0  0  0  0  0  0  0  0
   29.0533  -14.3043  -16.5063 C   0  0  0  0  0  0  0  0  0  0  0  0
   29.8065  -14.7880  -17.5761 C   0  0  0  0  0  0  0  0  0  0  0  0
   29.6605  -16.0816  -18.0417 C   0  0  0  0  0  0  0  0  0  0  0  0
   28.7281  -16.9156  -17.4135 C   0  0  0  0  0  0  0  0  0  0  0  0
   27.9894  -16.4416  -16.3648 C   0  0  0  0  0  0  0  0  0  0  0  0
   26.7186  -20.2539  -14.0081 C   0  0  0  0  0  0  0  0  0  0  0  0
   26.3748  -21.3916  -14.4965 O   0  0  0  0  0  0  0  0  0  0  0  0
   27.7947  -21.8423  -10.2565 C   0  0  0  0  0  0  0  0  0  0  0  0
   27.0577  -20.5354   -9.9896 C   0  0  0  0  0  0  0  0  0  0  0  0
   25.6471  -20.6015  -10.4713 C   0  0  2  0  0  0  0  0  0  0  0  0
   24.8173  -21.4360   -9.5417 C   0  0  0  0  0  0  0  0  0  0  0  0
   25.5332  -21.0039  -11.9215 C   0  0  2  0  0  0  0  0  0  0  0  0
   26.3558  -20.0350  -12.6582 N   0  0  0  0  0  0  0  0  0  0  0  0
   24.1456  -21.0238  -12.4234 C   0  0  0  0  0  0  0  0  0  0  0  0
   23.4744  -19.9592  -12.4748 O   0  0  0  0  0  0  0  0  0  0  0  0
   17.3452  -25.4475  -13.9001 N   0  0  0  0  0  0  0  0  0  0  0  0
   17.6650  -25.5123  -15.2939 C   0  0  0  0  0  0  0  0  0  0  0  0
   16.7482  -25.8816  -16.1291 N   0  0  0  0  0  0  0  0  0  0  0  0
   18.9718  -25.1720  -15.7328 N   0  0  0  0  0  0  0  0  0  0  0  0
   20.1054  -25.1869  -14.8238 C   0  0  0  0  0  0  0  0  0  0  0  0
   20.4097  -23.8391  -14.2733 C   0  0  0  0  0  0  0  0  0  0  0  0
   21.8044  -23.5649  -13.8680 C   0  0  0  0  0  0  0  0  0  0  0  0
   22.1303  -22.2250  -13.3049 C   0  0  2  0  0  0  0  0  0  0  0  0
   23.5085  -22.2108  -12.8637 N   0  0  0  0  0  0  0  0  0  0  0  0
   21.2353  -21.7077  -12.2797 C   0  0  0  0  0  0  0  0  0  0  0  0
   20.1001  -20.9601  -12.5514 O   0  0  0  0  0  0  0  0  0  0  0  0
   21.4681  -21.9285  -11.0414 O   0  0  0  0  0  0  0  0  0  0  0  0
  2  1  1  6
  3  2  1  0
  4  3  1  0
  5  4  2  0
  6  5  1  0
  7 12  2  0
  7  6  1  0
  8  7  1  0
  9  8  2  0
  9 10  1  0
 10 11  2  0
 11 12  1  0
 12  4  1  0
 13  2  1  0
 14 13  2  0
 15 16  1  0
 17 16  1  0
 17 19  1  0
 17 18  1  1
 19 21  1  0
 19 20  1  6
 20 13  1  0
 21 31  1  0
 22 21  2  0
 23 24  1  0
 24 25  2  0
 26 24  1  0
 26 27  1  0
 28 27  1  0
 28 29  1  0
 30 29  1  1
 30 32  1  0
 31 30  1  0
 32 34  2  0
 32 33  1  0
M  END
$$$$
