WIR.pdb
     RDKit          3D

 34 35  0  0  1  0  0  0  0  0999 V2000
   27.6220  -20.6503  -15.4334 N   0  0  0  0  0  0  0  0  0  0  0  0
   27.3215  -19.8514  -14.2514 C   0  0  1  0  0  0  0  0  0  0  0  0
   26.4729  -18.6620  -14.6612 C   0  0  0  0  0  0  0  0  0  0  0  0
   27.1513  -18.0194  -15.8095 C   0  0  0  0  0  0  0  0  0  0  0  0
   26.5684  -17.4433  -16.9141 C   0  0  0  0  0  0  0  0  0  0  0  0
   27.5441  -16.9776  -17.7475 N   0  0  0  0  0  0  0  0  0  0  0  0
   28.7388  -17.2384  -17.2072 C   0  0  0  0  0  0  0  0  0  0  0  0
   30.0103  -16.9733  -17.6403 C   0  0  0  0  0  0  0  0  0  0  0  0
   31.0815  -17.3698  -16.8396 C   0  0  0  0  0  0  0  0  0  0  0  0
   30.8868  -18.0162  -15.6331 C   0  0  0  0  0  0  0  0  0  0  0  0
   29.5749  -18.2734  -15.2179 C   0  0  0  0  0  0  0  0  0  0  0  0
   28.5246  -17.8850  -16.0028 C   0  0  0  0  0  0  0  0  0  0  0  0
   26.7685  -20.6167  -13.1388 C   0  0  0  0  0  0  0  0  0  0  0  0
   26.3439  -21.8013  -13.3988 O   0  0  0  0  0  0  0  0  0  0  0  0
   27.9952  -19.8792   -7.9456 C   0  0  0  0  0  0  0  0  0  0  0  0
   27.5367  -20.6991   -9.1455 C   0  0  0  0  0  0  0  0  0  0  0  0
   26.1154  -20.4045   -9.4910 C   0  0  2  0  0  0  0  0  0  0  0  0
   25.2041  -20.8799   -8.3991 C   0  0  0  0  0  0  0  0  0  0  0  0
   25.7263  -20.8880  -10.8668 C   0  0  2  0  0  0  0  0  0  0  0  0
   26.6423  -20.2059  -11.7907 N   0  0  0  0  0  0  0  0  0  0  0  0
   24.3164  -20.6213  -11.2116 C   0  0  0  0  0  0  0  0  0  0  0  0
   23.9096  -19.4369  -11.3463 O   0  0  0  0  0  0  0  0  0  0  0  0
   21.3271  -23.8541  -16.9178 N   0  0  0  0  0  0  0  0  0  0  0  0
   20.3145  -22.8431  -16.9578 C   0  0  0  0  0  0  0  0  0  0  0  0
   20.0680  -22.2491  -18.0808 N   0  0  0  0  0  0  0  0  0  0  0  0
   19.6027  -22.5127  -15.7744 N   0  0  0  0  0  0  0  0  0  0  0  0
   19.8668  -23.1898  -14.5161 C   0  0  0  0  0  0  0  0  0  0  0  0
   20.2357  -22.2442  -13.4288 C   0  0  0  0  0  0  0  0  0  0  0  0
   21.6204  -22.2999  -12.9148 C   0  0  0  0  0  0  0  0  0  0  0  0
   22.0038  -21.3831  -11.8052 C   0  0  2  0  0  0  0  0  0  0  0  0
   23.3674  -21.6561  -11.4050 N   0  0  0  0  0  0  0  0  0  0  0  0
   21.1098  -21.3310  -10.6573 C   0  0  0  0  0  0  0  0  0  0  0  0
   19.8267  -20.8083  -10.7009 O   0  0  0  0  0  0  0  0  0  0  0  0
   21.4848  -21.7806   -9.5200 O   0  0  0  0  0  0  0  0  0  0  0  0
  2  1  1  6
  3  2  1  0
  4  3  1  0
  5  4  2  0
  6  5  1  0
  7 12  2  0
  7  6  1  0
  8  7  1  0
  9  8  2  0
  9 10  1  0
 10 11  2  0
 11 12  1  0
 12  4  1  0
 13  2  1  0
 14 13  2  0
 15 16  1  0
 17 16  1  0
 17 19  1  0
 17 18  1  1
 19 21  1  0
 19 20  1  6
 20 13  1  0
 21 31  1  0
 22 21  2  0
 23 24  1  0
 24 25  2  0
 26 24  1  0
 26 27  1  0
 28 27  1  0
 28 29  1  0
 30 29  1  6
 30 32  1  0
 31 30  1  0
 32 34  2  0
 32 33  1  0
M  END
$$$$
