GFE.pdb
     RDKit          3D

 25 25  0  0  1  0  0  0  0  0999 V2000
   31.2176  -22.3071  -10.3091 N   0  0  0  0  0  0  0  0  0  0  0  0
   30.6137  -21.0396  -10.0137 C   0  0  0  0  0  0  0  0  0  0  0  0
   29.2550  -21.2777   -9.4469 C   0  0  0  0  0  0  0  0  0  0  0  0
   28.7769  -22.4475   -9.3451 O   0  0  0  0  0  0  0  0  0  0  0  0
   28.4151  -20.2249   -8.9889 N   0  0  0  0  0  0  0  0  0  0  0  0
   27.0245  -20.3995   -8.6487 C   0  0  1  0  0  0  0  0  0  0  0  0
   26.7110  -19.4351   -7.5291 C   0  0  0  0  0  0  0  0  0  0  0  0
   27.4845  -19.6740   -6.3105 C   0  0  0  0  0  0  0  0  0  0  0  0
   27.1815  -20.7271   -5.4756 C   0  0  0  0  0  0  0  0  0  0  0  0
   27.9083  -20.9715   -4.3110 C   0  0  0  0  0  0  0  0  0  0  0  0
   28.9634  -20.1638   -3.9493 C   0  0  0  0  0  0  0  0  0  0  0  0
   29.2707  -19.1087   -4.7811 C   0  0  0  0  0  0  0  0  0  0  0  0
   28.5451  -18.8687   -5.9392 C   0  0  0  0  0  0  0  0  0  0  0  0
   26.1986  -20.2131   -9.8381 C   0  0  0  0  0  0  0  0  0  0  0  0
   26.4125  -19.3367  -10.7192 O   0  0  0  0  0  0  0  0  0  0  0  0
   25.0673  -21.0576  -10.0497 N   0  0  0  0  0  0  0  0  0  0  0  0
   24.2133  -21.0024  -11.1680 C   0  0  1  0  0  0  0  0  0  0  0  0
   24.3742  -22.0812  -12.1801 C   0  0  0  0  0  0  0  0  0  0  0  0
   23.5053  -22.0692  -13.3718 C   0  0  0  0  0  0  0  0  0  0  0  0
   23.9706  -21.2482  -14.4993 C   0  0  0  0  0  0  0  0  0  0  0  0
   25.0453  -21.4135  -15.1040 O   0  0  0  0  0  0  0  0  0  0  0  0
   22.7763  -20.8548  -10.8336 C   0  0  0  0  0  0  0  0  0  0  0  0
   22.1379  -19.9255  -11.3908 O   0  0  0  0  0  0  0  0  0  0  0  0
   23.1204  -20.2018  -14.9088 O   0  0  0  0  0  0  0  0  0  0  0  0
   22.0899  -21.6677   -9.9519 O   0  0  0  0  0  0  0  0  0  0  0  0
  1  2  1  0
  3  5  1  0
  3  2  1  0
  4  3  2  0
  6  5  1  0
  6 14  1  0
  6  7  1  1
  8  7  1  0
  9  8  2  0
 10  9  1  0
 11 12  1  0
 11 10  2  0
 12 13  2  0
 13  8  1  0
 14 16  1  0
 15 14  2  0
 16 17  1  0
 17 22  1  0
 17 18  1  1
 19 18  1  0
 20 19  1  0
 20 24  1  0
 21 20  2  0
 22 23  2  0
 22 25  1  0
M  END
$$$$
