GFE.pdb
     RDKit          3D

 25 25  0  0  1  0  0  0  0  0999 V2000
   27.2229  -24.4810  -17.2955 N   0  0  0  0  0  0  0  0  0  0  0  0
   27.2869  -23.1070  -16.8875 C   0  0  0  0  0  0  0  0  0  0  0  0
   26.4601  -22.9340  -15.6584 C   0  0  0  0  0  0  0  0  0  0  0  0
   25.5913  -23.7931  -15.3200 O   0  0  0  0  0  0  0  0  0  0  0  0
   26.5875  -21.8106  -14.7951 N   0  0  0  0  0  0  0  0  0  0  0  0
   25.7651  -21.5985  -13.6294 C   0  0  1  0  0  0  0  0  0  0  0  0
   26.6258  -20.9211  -12.5893 C   0  0  0  0  0  0  0  0  0  0  0  0
   25.9365  -20.6741  -11.3226 C   0  0  0  0  0  0  0  0  0  0  0  0
   24.8427  -19.8387  -11.2639 C   0  0  0  0  0  0  0  0  0  0  0  0
   24.1721  -19.5927  -10.0664 C   0  0  0  0  0  0  0  0  0  0  0  0
   24.5808  -20.1796   -8.8896 C   0  0  0  0  0  0  0  0  0  0  0  0
   25.6748  -21.0163   -8.9428 C   0  0  0  0  0  0  0  0  0  0  0  0
   26.3396  -21.2586  -10.1364 C   0  0  0  0  0  0  0  0  0  0  0  0
   24.5743  -20.8384  -13.9977 C   0  0  0  0  0  0  0  0  0  0  0  0
   24.5983  -19.7353  -14.6082 O   0  0  0  0  0  0  0  0  0  0  0  0
   23.2829  -21.3447  -13.6601 N   0  0  0  0  0  0  0  0  0  0  0  0
   22.0635  -20.6891  -13.9167 C   0  0  1  0  0  0  0  0  0  0  0  0
   21.5646  -20.7392  -15.3177 C   0  0  0  0  0  0  0  0  0  0  0  0
   21.1825  -22.0451  -15.8868 C   0  0  0  0  0  0  0  0  0  0  0  0
   21.8123  -22.3983  -17.1675 C   0  0  0  0  0  0  0  0  0  0  0  0
   21.6777  -23.4897  -17.7496 O   0  0  0  0  0  0  0  0  0  0  0  0
   20.9644  -21.0573  -12.9920 C   0  0  0  0  0  0  0  0  0  0  0  0
   21.1605  -22.0158  -12.2018 O   0  0  0  0  0  0  0  0  0  0  0  0
   22.6247  -21.4125  -17.7623 O   0  0  0  0  0  0  0  0  0  0  0  0
   19.7395  -20.4202  -12.9385 O   0  0  0  0  0  0  0  0  0  0  0  0
  1  2  1  0
  3  5  1  0
  3  2  1  0
  4  3  2  0
  6  5  1  0
  6 14  1  0
  6  7  1  1
  8  7  1  0
  9  8  2  0
 10  9  1  0
 11 12  1  0
 11 10  2  0
 12 13  2  0
 13  8  1  0
 14 16  1  0
 15 14  2  0
 16 17  1  0
 17 22  1  0
 17 18  1  6
 19 18  1  0
 20 19  1  0
 20 24  1  0
 21 20  2  0
 22 23  2  0
 22 25  1  0
M  END
$$$$
