GFE.pdb
     RDKit          3D

 25 25  0  0  1  0  0  0  0  0999 V2000
   25.2694  -13.1077  -19.0448 N   0  0  0  0  0  0  0  0  0  0  0  0
   24.4448  -12.0044  -19.4465 C   0  0  0  0  0  0  0  0  0  0  0  0
   24.3119  -11.0634  -18.2973 C   0  0  0  0  0  0  0  0  0  0  0  0
   23.7801  -11.4251  -17.2047 O   0  0  0  0  0  0  0  0  0  0  0  0
   24.7656   -9.7160  -18.3473 N   0  0  0  0  0  0  0  0  0  0  0  0
   24.5584   -8.7608  -17.2868 C   0  0  1  0  0  0  0  0  0  0  0  0
   25.9205   -8.2988  -16.8255 C   0  0  0  0  0  0  0  0  0  0  0  0
   26.7937   -9.3859  -16.3824 C   0  0  0  0  0  0  0  0  0  0  0  0
   27.8086   -9.8513  -17.1894 C   0  0  0  0  0  0  0  0  0  0  0  0
   28.6517  -10.8851  -16.7836 C   0  0  0  0  0  0  0  0  0  0  0  0
   28.5005  -11.4836  -15.5527 C   0  0  0  0  0  0  0  0  0  0  0  0
   27.4865  -11.0217  -14.7414 C   0  0  0  0  0  0  0  0  0  0  0  0
   26.6495   -9.9927  -15.1487 C   0  0  0  0  0  0  0  0  0  0  0  0
   23.6959   -7.6808  -17.7573 C   0  0  0  0  0  0  0  0  0  0  0  0
   23.8081   -7.1235  -18.8829 O   0  0  0  0  0  0  0  0  0  0  0  0
   22.6487   -7.1982  -16.9158 N   0  0  0  0  0  0  0  0  0  0  0  0
   21.7255   -6.1945  -17.2666 C   0  0  1  0  0  0  0  0  0  0  0  0
   20.3036   -6.6147  -17.3921 C   0  0  0  0  0  0  0  0  0  0  0  0
   19.5724   -7.0110  -16.1740 C   0  0  0  0  0  0  0  0  0  0  0  0
   18.1502   -7.3373  -16.3546 C   0  0  0  0  0  0  0  0  0  0  0  0
   17.5453   -7.3054  -17.4414 O   0  0  0  0  0  0  0  0  0  0  0  0
   21.8031   -4.9725  -16.4302 C   0  0  0  0  0  0  0  0  0  0  0  0
   22.5128   -5.0170  -15.3930 O   0  0  0  0  0  0  0  0  0  0  0  0
   17.4385   -7.7112  -15.1974 O   0  0  0  0  0  0  0  0  0  0  0  0
   21.1494   -3.7882  -16.7117 O   0  0  0  0  0  0  0  0  0  0  0  0
  1  2  1  0
  3  5  1  0
  3  2  1  0
  4  3  2  0
  6  5  1  0
  6 14  1  0
  6  7  1  6
  8  7  1  0
  9  8  2  0
 10  9  1  0
 11 12  1  0
 11 10  2  0
 12 13  2  0
 13  8  1  0
 14 16  1  0
 15 14  2  0
 16 17  1  0
 17 22  1  0
 17 18  1  1
 19 18  1  0
 20 19  1  0
 20 24  1  0
 21 20  2  0
 22 23  2  0
 22 25  1  0
M  END
$$$$
