GFE.pdb
     RDKit          3D

 25 25  0  0  1  0  0  0  0  0999 V2000
   27.3112  -22.7921  -15.6791 N   0  0  0  0  0  0  0  0  0  0  0  0
   26.6372  -21.5260  -15.6470 C   0  0  0  0  0  0  0  0  0  0  0  0
   25.4904  -21.6186  -14.6982 C   0  0  0  0  0  0  0  0  0  0  0  0
   25.1388  -22.7266  -14.1923 O   0  0  0  0  0  0  0  0  0  0  0  0
   24.7239  -20.4875  -14.3021 N   0  0  0  0  0  0  0  0  0  0  0  0
   23.6166  -20.5528  -13.3803 C   0  0  1  0  0  0  0  0  0  0  0  0
   23.8525  -19.5040  -12.3192 C   0  0  0  0  0  0  0  0  0  0  0  0
   24.8562  -19.8851  -11.3254 C   0  0  0  0  0  0  0  0  0  0  0  0
   26.1486  -19.4156  -11.4096 C   0  0  0  0  0  0  0  0  0  0  0  0
   27.1183  -19.7665  -10.4711 C   0  0  0  0  0  0  0  0  0  0  0  0
   26.8183  -20.6011   -9.4176 C   0  0  0  0  0  0  0  0  0  0  0  0
   25.5267  -21.0737   -9.3287 C   0  0  0  0  0  0  0  0  0  0  0  0
   24.5645  -20.7223  -10.2647 C   0  0  0  0  0  0  0  0  0  0  0  0
   22.3605  -20.3877  -14.1059 C   0  0  0  0  0  0  0  0  0  0  0  0
   22.1814  -19.5499  -15.0312 O   0  0  0  0  0  0  0  0  0  0  0  0
   21.2413  -21.2088  -13.7728 N   0  0  0  0  0  0  0  0  0  0  0  0
   19.9863  -21.1646  -14.4099 C   0  0  1  0  0  0  0  0  0  0  0  0
   19.1963  -22.4255  -14.4086 C   0  0  0  0  0  0  0  0  0  0  0  0
   17.9615  -22.4881  -15.2127 C   0  0  0  0  0  0  0  0  0  0  0  0
   17.2449  -23.7718  -15.1929 C   0  0  0  0  0  0  0  0  0  0  0  0
   17.5675  -24.7562  -14.5037 O   0  0  0  0  0  0  0  0  0  0  0  0
   19.1191  -20.0428  -13.9761 C   0  0  0  0  0  0  0  0  0  0  0  0
   19.0766  -19.7767  -12.7478 O   0  0  0  0  0  0  0  0  0  0  0  0
   16.1115  -23.8727  -16.0240 O   0  0  0  0  0  0  0  0  0  0  0  0
   18.3543  -19.2695  -14.8283 O   0  0  0  0  0  0  0  0  0  0  0  0
  1  2  1  0
  3  5  1  0
  3  2  1  0
  4  3  2  0
  6  5  1  0
  6 14  1  0
  6  7  1  1
  8  7  1  0
  9  8  2  0
 10  9  1  0
 11 12  1  0
 11 10  2  0
 12 13  2  0
 13  8  1  0
 14 16  1  0
 15 14  2  0
 16 17  1  0
 17 22  1  0
 17 18  1  1
 19 18  1  0
 20 19  1  0
 20 24  1  0
 21 20  2  0
 22 23  2  0
 22 25  1  0
M  END
$$$$
