GFE.pdb
     RDKit          3D

 25 25  0  0  1  0  0  0  0  0999 V2000
   25.4604  -25.2445  -15.0392 N   0  0  0  0  0  0  0  0  0  0  0  0
   25.2566  -23.8670  -15.3849 C   0  0  0  0  0  0  0  0  0  0  0  0
   24.1495  -23.3224  -14.5472 C   0  0  0  0  0  0  0  0  0  0  0  0
   23.4601  -24.0734  -13.7934 O   0  0  0  0  0  0  0  0  0  0  0  0
   23.7963  -21.9445  -14.5367 N   0  0  0  0  0  0  0  0  0  0  0  0
   22.7723  -21.3861  -13.6883 C   0  0  1  0  0  0  0  0  0  0  0  0
   23.3419  -20.1367  -13.0589 C   0  0  0  0  0  0  0  0  0  0  0  0
   24.1721  -20.3943  -11.8822 C   0  0  0  0  0  0  0  0  0  0  0  0
   23.6633  -20.2429  -10.6109 C   0  0  0  0  0  0  0  0  0  0  0  0
   24.4387  -20.4855   -9.4777 C   0  0  0  0  0  0  0  0  0  0  0  0
   25.7510  -20.8882   -9.5876 C   0  0  0  0  0  0  0  0  0  0  0  0
   26.2649  -21.0411  -10.8572 C   0  0  0  0  0  0  0  0  0  0  0  0
   25.4902  -20.7988  -11.9826 C   0  0  0  0  0  0  0  0  0  0  0  0
   21.5587  -21.1556  -14.4665 C   0  0  0  0  0  0  0  0  0  0  0  0
   21.5473  -20.7147  -15.6479 O   0  0  0  0  0  0  0  0  0  0  0  0
   20.2852  -21.4345  -13.8848 N   0  0  0  0  0  0  0  0  0  0  0  0
   19.0531  -21.3694  -14.5635 C   0  0  1  0  0  0  0  0  0  0  0  0
   18.2628  -22.6285  -14.6271 C   0  0  0  0  0  0  0  0  0  0  0  0
   16.9868  -22.6269  -15.3668 C   0  0  0  0  0  0  0  0  0  0  0  0
   16.2681  -23.9087  -15.4133 C   0  0  0  0  0  0  0  0  0  0  0  0
   15.4890  -24.2551  -16.3194 O   0  0  0  0  0  0  0  0  0  0  0  0
   18.1720  -20.2596  -14.1267 C   0  0  0  0  0  0  0  0  0  0  0  0
   18.0354  -20.0721  -12.8907 O   0  0  0  0  0  0  0  0  0  0  0  0
   16.4930  -24.7955  -14.3417 O   0  0  0  0  0  0  0  0  0  0  0  0
   17.4905  -19.4171  -14.9840 O   0  0  0  0  0  0  0  0  0  0  0  0
  1  2  1  0
  3  5  1  0
  3  2  1  0
  4  3  2  0
  6  5  1  0
  6 14  1  0
  6  7  1  6
  8  7  1  0
  9  8  2  0
 10  9  1  0
 11 12  1  0
 11 10  2  0
 12 13  2  0
 13  8  1  0
 14 16  1  0
 15 14  2  0
 16 17  1  0
 17 22  1  0
 17 18  1  1
 19 18  1  0
 20 19  1  0
 20 24  1  0
 21 20  2  0
 22 23  2  0
 22 25  1  0
M  END
$$$$
