GFE.pdb
     RDKit          3D

 25 25  0  0  1  0  0  0  0  0999 V2000
   28.6257  -22.1773  -13.8038 N   0  0  0  0  0  0  0  0  0  0  0  0
   29.2676  -21.3161  -12.8526 C   0  0  0  0  0  0  0  0  0  0  0  0
   28.6456  -21.5333  -11.5147 C   0  0  0  0  0  0  0  0  0  0  0  0
   27.6849  -22.3453  -11.3565 O   0  0  0  0  0  0  0  0  0  0  0  0
   29.0806  -20.8547  -10.3426 N   0  0  0  0  0  0  0  0  0  0  0  0
   28.3852  -20.9094   -9.0803 C   0  0  1  0  0  0  0  0  0  0  0  0
   29.3308  -20.3898   -8.0232 C   0  0  0  0  0  0  0  0  0  0  0  0
   28.7078  -20.2076   -6.7121 C   0  0  0  0  0  0  0  0  0  0  0  0
   28.0418  -19.0424   -6.4013 C   0  0  0  0  0  0  0  0  0  0  0  0
   27.4406  -18.8514   -5.1579 C   0  0  0  0  0  0  0  0  0  0  0  0
   27.4903  -19.8269   -4.1872 C   0  0  0  0  0  0  0  0  0  0  0  0
   28.1555  -20.9947   -4.4930 C   0  0  0  0  0  0  0  0  0  0  0  0
   28.7526  -21.1811   -5.7315 C   0  0  0  0  0  0  0  0  0  0  0  0
   27.1344  -20.1621   -9.1735 C   0  0  0  0  0  0  0  0  0  0  0  0
   27.0405  -18.9920   -9.6343 O   0  0  0  0  0  0  0  0  0  0  0  0
   25.9200  -20.7620   -8.7225 N   0  0  0  0  0  0  0  0  0  0  0  0
   24.6453  -20.5202   -9.2698 C   0  0  1  0  0  0  0  0  0  0  0  0
   24.5082  -20.7045  -10.7400 C   0  0  0  0  0  0  0  0  0  0  0  0
   23.1924  -20.4687  -11.3633 C   0  0  0  0  0  0  0  0  0  0  0  0
   23.1316  -20.6394  -12.8224 C   0  0  0  0  0  0  0  0  0  0  0  0
   22.1603  -21.1063  -13.4442 O   0  0  0  0  0  0  0  0  0  0  0  0
   23.5397  -21.2295   -8.5820 C   0  0  0  0  0  0  0  0  0  0  0  0
   23.8416  -22.1731   -7.8074 O   0  0  0  0  0  0  0  0  0  0  0  0
   24.2688  -20.2379  -13.5509 O   0  0  0  0  0  0  0  0  0  0  0  0
   22.2003  -20.9254   -8.7333 O   0  0  0  0  0  0  0  0  0  0  0  0
  1  2  1  0
  3  5  1  0
  3  2  1  0
  4  3  2  0
  6  5  1  0
  6 14  1  0
  6  7  1  1
  8  7  1  0
  9  8  2  0
 10  9  1  0
 11 12  1  0
 11 10  2  0
 12 13  2  0
 13  8  1  0
 14 16  1  0
 15 14  2  0
 16 17  1  0
 17 22  1  0
 17 18  1  6
 19 18  1  0
 20 19  1  0
 20 24  1  0
 21 20  2  0
 22 23  2  0
 22 25  1  0
M  END
$$$$
