GFE.pdb
     RDKit          3D

 25 25  0  0  1  0  0  0  0  0999 V2000
   29.5676  -22.8066  -16.5236 N   0  0  0  0  0  0  0  0  0  0  0  0
   28.3605  -22.9659  -17.2825 C   0  0  0  0  0  0  0  0  0  0  0  0
   27.4690  -21.8011  -17.0131 C   0  0  0  0  0  0  0  0  0  0  0  0
   27.5378  -21.1537  -15.9252 O   0  0  0  0  0  0  0  0  0  0  0  0
   26.4952  -21.3438  -17.9438 N   0  0  0  0  0  0  0  0  0  0  0  0
   25.5607  -20.2803  -17.6683 C   0  0  1  0  0  0  0  0  0  0  0  0
   25.7150  -19.2514  -18.7634 C   0  0  0  0  0  0  0  0  0  0  0  0
   26.9599  -18.4870  -18.6840 C   0  0  0  0  0  0  0  0  0  0  0  0
   28.1165  -18.9567  -19.2667 C   0  0  0  0  0  0  0  0  0  0  0  0
   29.3118  -18.2415  -19.2029 C   0  0  0  0  0  0  0  0  0  0  0  0
   29.3813  -17.0307  -18.5507 C   0  0  0  0  0  0  0  0  0  0  0  0
   28.2270  -16.5563  -17.9659 C   0  0  0  0  0  0  0  0  0  0  0  0
   27.0394  -17.2709  -18.0314 C   0  0  0  0  0  0  0  0  0  0  0  0
   24.2114  -20.8263  -17.5559 C   0  0  0  0  0  0  0  0  0  0  0  0
   23.8175  -21.8694  -18.1450 O   0  0  0  0  0  0  0  0  0  0  0  0
   23.2489  -20.1628  -16.7365 N   0  0  0  0  0  0  0  0  0  0  0  0
   21.9204  -20.5873  -16.5424 C   0  0  1  0  0  0  0  0  0  0  0  0
   21.4505  -20.6747  -15.1333 C   0  0  0  0  0  0  0  0  0  0  0  0
   20.0945  -21.1915  -14.8699 C   0  0  0  0  0  0  0  0  0  0  0  0
   19.7088  -21.2953  -13.4549 C   0  0  0  0  0  0  0  0  0  0  0  0
   18.6252  -21.7484  -13.0442 O   0  0  0  0  0  0  0  0  0  0  0  0
   20.9182  -19.8487  -17.3479 C   0  0  0  0  0  0  0  0  0  0  0  0
   19.9792  -20.5082  -17.8623 O   0  0  0  0  0  0  0  0  0  0  0  0
   20.6514  -20.8420  -12.5108 O   0  0  0  0  0  0  0  0  0  0  0  0
   20.9449  -18.4856  -17.5726 O   0  0  0  0  0  0  0  0  0  0  0  0
  1  2  1  0
  3  5  1  0
  3  2  1  0
  4  3  2  0
  6  5  1  0
  6 14  1  0
  6  7  1  6
  8  7  1  0
  9  8  2  0
 10  9  1  0
 11 12  1  0
 11 10  2  0
 12 13  2  0
 13  8  1  0
 14 16  1  0
 15 14  2  0
 16 17  1  0
 17 22  1  0
 17 18  1  1
 19 18  1  0
 20 19  1  0
 20 24  1  0
 21 20  2  0
 22 23  2  0
 22 25  1  0
M  END
$$$$
