GFE.pdb
     RDKit          3D

 25 25  0  0  1  0  0  0  0  0999 V2000
   28.1225  -22.0564  -13.9047 N   0  0  0  0  0  0  0  0  0  0  0  0
   28.5016  -20.9568  -13.0647 C   0  0  0  0  0  0  0  0  0  0  0  0
   28.0482  -21.2401  -11.6724 C   0  0  0  0  0  0  0  0  0  0  0  0
   27.2181  -22.1652  -11.4229 O   0  0  0  0  0  0  0  0  0  0  0  0
   28.5088  -20.5029  -10.5464 N   0  0  0  0  0  0  0  0  0  0  0  0
   27.9827  -20.6642   -9.2132 C   0  0  1  0  0  0  0  0  0  0  0  0
   28.9958  -20.0813   -8.2565 C   0  0  0  0  0  0  0  0  0  0  0  0
   28.5316  -20.0199   -6.8704 C   0  0  0  0  0  0  0  0  0  0  0  0
   28.7268  -21.0792   -6.0117 C   0  0  0  0  0  0  0  0  0  0  0  0
   28.2930  -21.0383   -4.6872 C   0  0  0  0  0  0  0  0  0  0  0  0
   27.6488  -19.9299   -4.1844 C   0  0  0  0  0  0  0  0  0  0  0  0
   27.4509  -18.8672   -5.0395 C   0  0  0  0  0  0  0  0  0  0  0  0
   27.8841  -18.9116   -6.3570 C   0  0  0  0  0  0  0  0  0  0  0  0
   26.6630  -20.0459   -9.1258 C   0  0  0  0  0  0  0  0  0  0  0  0
   26.3636  -18.9376   -9.6474 O   0  0  0  0  0  0  0  0  0  0  0  0
   25.6203  -20.7090   -8.4107 N   0  0  0  0  0  0  0  0  0  0  0  0
   24.2481  -20.6225   -8.7147 C   0  0  1  0  0  0  0  0  0  0  0  0
   23.8522  -20.9779  -10.1043 C   0  0  0  0  0  0  0  0  0  0  0  0
   23.3437  -19.9135  -10.9896 C   0  0  0  0  0  0  0  0  0  0  0  0
   22.0927  -20.2120  -11.7021 C   0  0  0  0  0  0  0  0  0  0  0  0
   21.6862  -21.3552  -11.9778 O   0  0  0  0  0  0  0  0  0  0  0  0
   23.3638  -21.3297   -7.7574 C   0  0  0  0  0  0  0  0  0  0  0  0
   23.9055  -22.0682   -6.8955 O   0  0  0  0  0  0  0  0  0  0  0  0
   21.3116  -19.1062  -12.0926 O   0  0  0  0  0  0  0  0  0  0  0  0
   21.9854  -21.2336   -7.7468 O   0  0  0  0  0  0  0  0  0  0  0  0
  1  2  1  0
  3  5  1  0
  3  2  1  0
  4  3  2  0
  6  5  1  0
  6 14  1  0
  6  7  1  1
  8  7  1  0
  9  8  2  0
 10  9  1  0
 11 12  1  0
 11 10  2  0
 12 13  2  0
 13  8  1  0
 14 16  1  0
 15 14  2  0
 16 17  1  0
 17 22  1  0
 17 18  1  6
 19 18  1  0
 20 19  1  0
 20 24  1  0
 21 20  2  0
 22 23  2  0
 22 25  1  0
M  END
$$$$
