DSH.pdb
     RDKit          3D

 25 25  0  0  1  0  0  0  0  0999 V2000
   19.1843  -12.3481  -16.9897 N   0  0  0  0  0  0  0  0  0  0  0  0
   19.7400  -11.2866  -17.8002 C   0  0  1  0  0  0  0  0  0  0  0  0
   18.7811  -11.0529  -18.9700 C   0  0  0  0  0  0  0  0  0  0  0  0
   18.8211  -12.1952  -19.8828 C   0  0  0  0  0  0  0  0  0  0  0  0
   19.9103  -12.6619  -20.2834 O   0  0  0  0  0  0  0  0  0  0  0  0
   19.8387  -10.0720  -16.9866 C   0  0  0  0  0  0  0  0  0  0  0  0
   18.8020   -9.4631  -16.5738 O   0  0  0  0  0  0  0  0  0  0  0  0
   17.6523  -12.7847  -20.3232 O   0  0  0  0  0  0  0  0  0  0  0  0
   23.4705   -7.8837  -16.3859 O   0  0  0  0  0  0  0  0  0  0  0  0
   22.5488   -7.9530  -15.3639 C   0  0  0  0  0  0  0  0  0  0  0  0
   21.1490   -8.2456  -15.8488 C   0  0  2  0  0  0  0  0  0  0  0  0
   21.0834   -9.4826  -16.5973 N   0  0  0  0  0  0  0  0  0  0  0  0
   20.5621   -7.1112  -16.6092 C   0  0  0  0  0  0  0  0  0  0  0  0
   20.5389   -7.1450  -17.8668 O   0  0  0  0  0  0  0  0  0  0  0  0
   20.0103   -5.9591  -15.9829 N   0  0  0  0  0  0  0  0  0  0  0  0
   19.5499   -4.8136  -16.7577 C   0  0  1  0  0  0  0  0  0  0  0  0
   18.3803   -5.1566  -17.6192 C   0  0  0  0  0  0  0  0  0  0  0  0
   17.9389   -3.9971  -18.4011 C   0  0  0  0  0  0  0  0  0  0  0  0
   18.7096   -2.9236  -18.8171 C   0  0  0  0  0  0  0  0  0  0  0  0
   17.9475   -2.0630  -19.5109 N   0  0  0  0  0  0  0  0  0  0  0  0
   16.7017   -2.5594  -19.5508 C   0  0  0  0  0  0  0  0  0  0  0  0
   16.7077   -3.7309  -18.8756 N   0  0  0  0  0  0  0  0  0  0  0  0
   19.2900   -3.6565  -15.8988 C   0  0  0  0  0  0  0  0  0  0  0  0
   18.9619   -3.8861  -14.6821 O   0  0  0  0  0  0  0  0  0  0  0  0
   19.3620   -2.3320  -16.2618 O   0  0  0  0  0  0  0  0  0  0  0  0
  2  1  1  1
  3  2  1  0
  4  3  1  0
  5  4  2  0
  6  7  2  0
  6  2  1  0
  8  4  1  0
  9 10  1  0
 11 10  1  6
 11 12  1  0
 12  6  1  0
 13 15  1  0
 13 11  1  0
 14 13  2  0
 16 23  1  0
 16 15  1  0
 16 17  1  1
 17 18  1  0
 18 22  1  0
 19 18  2  0
 19 20  1  0
 20 21  1  0
 22 21  2  0
 23 25  1  0
 24 23  2  0
M  END
$$$$
