DSH.pdb
     RDKit          3D

 25 25  0  0  1  0  0  0  0  0999 V2000
   18.6845  -14.9885  -15.8256 N   0  0  0  0  0  0  0  0  0  0  0  0
   17.7280  -13.9619  -16.1769 C   0  0  1  0  0  0  0  0  0  0  0  0
   16.5357  -14.1018  -15.2274 C   0  0  0  0  0  0  0  0  0  0  0  0
   15.5765  -15.0632  -15.7704 C   0  0  0  0  0  0  0  0  0  0  0  0
   14.5569  -15.3912  -15.1241 O   0  0  0  0  0  0  0  0  0  0  0  0
   18.3552  -12.6497  -15.9991 C   0  0  0  0  0  0  0  0  0  0  0  0
   19.0633  -12.3850  -14.9772 O   0  0  0  0  0  0  0  0  0  0  0  0
   15.7772  -15.6315  -17.0132 O   0  0  0  0  0  0  0  0  0  0  0  0
   19.6594  -10.0127  -18.9645 O   0  0  0  0  0  0  0  0  0  0  0  0
   18.8688   -9.4562  -17.9825 C   0  0  0  0  0  0  0  0  0  0  0  0
   18.8264  -10.2817  -16.7189 C   0  0  2  0  0  0  0  0  0  0  0  0
   18.2257  -11.5797  -16.9407 N   0  0  0  0  0  0  0  0  0  0  0  0
   18.1788   -9.5619  -15.5911 C   0  0  0  0  0  0  0  0  0  0  0  0
   17.0601   -9.9462  -15.1621 O   0  0  0  0  0  0  0  0  0  0  0  0
   18.7643   -8.4343  -14.9509 N   0  0  0  0  0  0  0  0  0  0  0  0
   18.1037   -7.7546  -13.8436 C   0  0  1  0  0  0  0  0  0  0  0  0
   17.8602   -8.6716  -12.6916 C   0  0  0  0  0  0  0  0  0  0  0  0
   17.2051   -7.9693  -11.5833 C   0  0  0  0  0  0  0  0  0  0  0  0
   16.8382   -6.6341  -11.5367 C   0  0  0  0  0  0  0  0  0  0  0  0
   16.2637   -6.3651  -10.3533 N   0  0  0  0  0  0  0  0  0  0  0  0
   16.2528   -7.4990   -9.6362 C   0  0  0  0  0  0  0  0  0  0  0  0
   16.8253   -8.4641  -10.3905 N   0  0  0  0  0  0  0  0  0  0  0  0
   18.8284   -6.5445  -13.4501 C   0  0  0  0  0  0  0  0  0  0  0  0
   18.2983   -5.8060  -12.5478 O   0  0  0  0  0  0  0  0  0  0  0  0
   20.0334   -6.1100  -13.9505 O   0  0  0  0  0  0  0  0  0  0  0  0
  2  1  1  1
  3  2  1  0
  4  3  1  0
  5  4  2  0
  6  7  2  0
  6  2  1  0
  8  4  1  0
  9 10  1  0
 11 10  1  6
 11 12  1  0
 12  6  1  0
 13 15  1  0
 13 11  1  0
 14 13  2  0
 16 23  1  0
 16 15  1  0
 16 17  1  1
 17 18  1  0
 18 22  1  0
 19 18  2  0
 19 20  1  0
 20 21  1  0
 22 21  2  0
 23 25  1  0
 24 23  2  0
M  END
$$$$
