DSH.pdb
     RDKit          3D

 25 25  0  0  1  0  0  0  0  0999 V2000
   14.0185  -13.5907  -13.2662 N   0  0  0  0  0  0  0  0  0  0  0  0
   13.7765  -12.3519  -12.5598 C   0  0  1  0  0  0  0  0  0  0  0  0
   13.3158  -12.7128  -11.1456 C   0  0  0  0  0  0  0  0  0  0  0  0
   11.9995  -13.3484  -11.1974 C   0  0  0  0  0  0  0  0  0  0  0  0
   11.2529  -13.2038  -12.1907 O   0  0  0  0  0  0  0  0  0  0  0  0
   15.0269  -11.5905  -12.4974 C   0  0  0  0  0  0  0  0  0  0  0  0
   16.1561  -12.1546  -12.6478 O   0  0  0  0  0  0  0  0  0  0  0  0
   11.5515  -14.1247  -10.1466 O   0  0  0  0  0  0  0  0  0  0  0  0
   17.9084   -8.9536  -14.2727 O   0  0  0  0  0  0  0  0  0  0  0  0
   16.8066   -9.7130  -13.9433 C   0  0  0  0  0  0  0  0  0  0  0  0
   16.2552   -9.3922  -12.5747 C   0  0  2  0  0  0  0  0  0  0  0  0
   15.0802  -10.1791  -12.2669 N   0  0  0  0  0  0  0  0  0  0  0  0
   16.0076   -7.9385  -12.3880 C   0  0  0  0  0  0  0  0  0  0  0  0
   14.9915   -7.4045  -12.9035 O   0  0  0  0  0  0  0  0  0  0  0  0
   16.8741   -7.0926  -11.6413 N   0  0  0  0  0  0  0  0  0  0  0  0
   16.5590   -5.6887  -11.4082 C   0  0  1  0  0  0  0  0  0  0  0  0
   16.7849   -5.2947   -9.9865 C   0  0  0  0  0  0  0  0  0  0  0  0
   15.9030   -6.0403   -9.0826 C   0  0  0  0  0  0  0  0  0  0  0  0
   14.5529   -5.8232   -8.8601 C   0  0  0  0  0  0  0  0  0  0  0  0
   14.0949   -6.7109   -7.9629 N   0  0  0  0  0  0  0  0  0  0  0  0
   15.1218   -7.4956   -7.6023 C   0  0  0  0  0  0  0  0  0  0  0  0
   16.2119   -7.0808   -8.2864 N   0  0  0  0  0  0  0  0  0  0  0  0
   17.2686   -4.8181  -12.3479 C   0  0  0  0  0  0  0  0  0  0  0  0
   18.1477   -5.3597  -13.1059 O   0  0  0  0  0  0  0  0  0  0  0  0
   17.0901   -3.4639  -12.5074 O   0  0  0  0  0  0  0  0  0  0  0  0
  2  1  1  6
  3  2  1  0
  4  3  1  0
  5  4  2  0
  6  7  2  0
  6  2  1  0
  8  4  1  0
  9 10  1  0
 11 10  1  6
 11 12  1  0
 12  6  1  0
 13 15  1  0
 13 11  1  0
 14 13  2  0
 16 23  1  0
 16 15  1  0
 16 17  1  1
 17 18  1  0
 18 22  1  0
 19 18  2  0
 19 20  1  0
 20 21  1  0
 22 21  2  0
 23 25  1  0
 24 23  2  0
M  END
$$$$
