DSH.pdb
     RDKit          3D

 25 25  0  0  1  0  0  0  0  0999 V2000
   23.9000  -14.4429  -18.7552 N   0  0  0  0  0  0  0  0  0  0  0  0
   24.9365  -13.4397  -18.8618 C   0  0  1  0  0  0  0  0  0  0  0  0
   24.7601  -12.7397  -20.2115 C   0  0  0  0  0  0  0  0  0  0  0  0
   25.0331  -13.6788  -21.2991 C   0  0  0  0  0  0  0  0  0  0  0  0
   24.1887  -13.8860  -22.1985 O   0  0  0  0  0  0  0  0  0  0  0  0
   24.7726  -12.4722  -17.7737 C   0  0  0  0  0  0  0  0  0  0  0  0
   23.6291  -12.2114  -17.2835 O   0  0  0  0  0  0  0  0  0  0  0  0
   26.2338  -14.3590  -21.3562 O   0  0  0  0  0  0  0  0  0  0  0  0
   27.7658   -9.6168  -16.6010 O   0  0  0  0  0  0  0  0  0  0  0  0
   26.9628  -10.1986  -15.6441 C   0  0  0  0  0  0  0  0  0  0  0  0
   25.6573  -10.7138  -16.2012 C   0  0  2  0  0  0  0  0  0  0  0  0
   25.8624  -11.7557  -17.1846 N   0  0  0  0  0  0  0  0  0  0  0  0
   24.7942   -9.6239  -16.7271 C   0  0  0  0  0  0  0  0  0  0  0  0
   24.8655   -9.2980  -17.9404 O   0  0  0  0  0  0  0  0  0  0  0  0
   23.8676   -8.9083  -15.9187 N   0  0  0  0  0  0  0  0  0  0  0  0
   23.0476   -7.8334  -16.4635 C   0  0  1  0  0  0  0  0  0  0  0  0
   22.1690   -8.3092  -17.5722 C   0  0  0  0  0  0  0  0  0  0  0  0
   21.3230   -7.2250  -18.0816 C   0  0  0  0  0  0  0  0  0  0  0  0
   20.1381   -6.7587  -17.5356 C   0  0  0  0  0  0  0  0  0  0  0  0
   19.6581   -5.7560  -18.2885 N   0  0  0  0  0  0  0  0  0  0  0  0
   20.5089   -5.5662  -19.3084 C   0  0  0  0  0  0  0  0  0  0  0  0
   21.5136   -6.4611  -19.1734 N   0  0  0  0  0  0  0  0  0  0  0  0
   22.2954   -7.1482  -15.4104 C   0  0  0  0  0  0  0  0  0  0  0  0
   21.7979   -6.0017  -15.6907 O   0  0  0  0  0  0  0  0  0  0  0  0
   22.0615   -7.6092  -14.1360 O   0  0  0  0  0  0  0  0  0  0  0  0
  2  1  1  1
  3  2  1  0
  4  3  1  0
  5  4  2  0
  6  7  2  0
  6  2  1  0
  8  4  1  0
  9 10  1  0
 11 10  1  6
 11 12  1  0
 12  6  1  0
 13 15  1  0
 13 11  1  0
 14 13  2  0
 16 23  1  0
 16 15  1  0
 16 17  1  6
 17 18  1  0
 18 22  1  0
 19 18  2  0
 19 20  1  0
 20 21  1  0
 22 21  2  0
 23 25  1  0
 24 23  2  0
M  END
$$$$
