DSH.pdb
     RDKit          3D

 25 25  0  0  1  0  0  0  0  0999 V2000
   20.1845  -13.4219  -17.0943 N   0  0  0  0  0  0  0  0  0  0  0  0
   20.8568  -12.3454  -17.7881 C   0  0  1  0  0  0  0  0  0  0  0  0
   19.8089  -11.6223  -18.6376 C   0  0  0  0  0  0  0  0  0  0  0  0
   19.3736  -12.4869  -19.7342 C   0  0  0  0  0  0  0  0  0  0  0  0
   18.2989  -13.1234  -19.6651 O   0  0  0  0  0  0  0  0  0  0  0  0
   21.4189  -11.4226  -16.7985 C   0  0  0  0  0  0  0  0  0  0  0  0
   20.7121  -10.9518  -15.8526 O   0  0  0  0  0  0  0  0  0  0  0  0
   20.1431  -12.6192  -20.8735 O   0  0  0  0  0  0  0  0  0  0  0  0
   25.3216   -9.2289  -14.8180 O   0  0  0  0  0  0  0  0  0  0  0  0
   24.7924  -10.1726  -15.6714 C   0  0  0  0  0  0  0  0  0  0  0  0
   23.2979  -10.0425  -15.8435 C   0  0  2  0  0  0  0  0  0  0  0  0
   22.7811  -10.9838  -16.8137 N   0  0  0  0  0  0  0  0  0  0  0  0
   22.8804   -8.6497  -16.1525 C   0  0  0  0  0  0  0  0  0  0  0  0
   22.9783   -8.2124  -17.3283 O   0  0  0  0  0  0  0  0  0  0  0  0
   22.3631   -7.7582  -15.1718 N   0  0  0  0  0  0  0  0  0  0  0  0
   22.0019   -6.3850  -15.5007 C   0  0  1  0  0  0  0  0  0  0  0  0
   20.5352   -6.2339  -15.7317 C   0  0  0  0  0  0  0  0  0  0  0  0
   20.1869   -4.8433  -16.0407 C   0  0  0  0  0  0  0  0  0  0  0  0
   20.5950   -4.1002  -17.1366 C   0  0  0  0  0  0  0  0  0  0  0  0
   20.0675   -2.8675  -17.0676 N   0  0  0  0  0  0  0  0  0  0  0  0
   19.3279   -2.8004  -15.9502 C   0  0  0  0  0  0  0  0  0  0  0  0
   19.4072   -4.0023  -15.3359 N   0  0  0  0  0  0  0  0  0  0  0  0
   22.5089   -5.4441  -14.4997 C   0  0  0  0  0  0  0  0  0  0  0  0
   22.7608   -5.9042  -13.3311 O   0  0  0  0  0  0  0  0  0  0  0  0
   22.7480   -4.1021  -14.6812 O   0  0  0  0  0  0  0  0  0  0  0  0
  2  1  1  1
  3  2  1  0
  4  3  1  0
  5  4  2  0
  6  7  2  0
  6  2  1  0
  8  4  1  0
  9 10  1  0
 11 10  1  6
 11 12  1  0
 12  6  1  0
 13 15  1  0
 13 11  1  0
 14 13  2  0
 16 23  1  0
 16 15  1  0
 16 17  1  1
 17 18  1  0
 18 22  1  0
 19 18  2  0
 19 20  1  0
 20 21  1  0
 22 21  2  0
 23 25  1  0
 24 23  2  0
M  END
$$$$
