DSH.pdb
     RDKit          3D

 25 25  0  0  1  0  0  0  0  0999 V2000
   24.5674  -13.1398  -15.1987 N   0  0  0  0  0  0  0  0  0  0  0  0
   23.4120  -12.7315  -15.9672 C   0  0  1  0  0  0  0  0  0  0  0  0
   22.2332  -13.5986  -15.5187 C   0  0  0  0  0  0  0  0  0  0  0  0
   22.4635  -14.9906  -15.9043 C   0  0  0  0  0  0  0  0  0  0  0  0
   22.9915  -15.2761  -17.0018 O   0  0  0  0  0  0  0  0  0  0  0  0
   23.1296  -11.3218  -15.6846 C   0  0  0  0  0  0  0  0  0  0  0  0
   23.1686  -10.8611  -14.5005 O   0  0  0  0  0  0  0  0  0  0  0  0
   22.1014  -16.0230  -15.0613 O   0  0  0  0  0  0  0  0  0  0  0  0
   23.4143   -8.2457  -18.5510 O   0  0  0  0  0  0  0  0  0  0  0  0
   23.5449   -8.0860  -17.1885 C   0  0  0  0  0  0  0  0  0  0  0  0
   22.6042   -8.9632  -16.3975 C   0  0  2  0  0  0  0  0  0  0  0  0
   22.7935  -10.3666  -16.6960 N   0  0  0  0  0  0  0  0  0  0  0  0
   21.1830   -8.5555  -16.5506 C   0  0  0  0  0  0  0  0  0  0  0  0
   20.4920   -9.0313  -17.4884 O   0  0  0  0  0  0  0  0  0  0  0  0
   20.5405   -7.6350  -15.6765 N   0  0  0  0  0  0  0  0  0  0  0  0
   19.1741   -7.1844  -15.9101 C   0  0  1  0  0  0  0  0  0  0  0  0
   18.2851   -7.4725  -14.7464 C   0  0  0  0  0  0  0  0  0  0  0  0
   16.9226   -6.9859  -14.9861 C   0  0  0  0  0  0  0  0  0  0  0  0
   16.4143   -6.4620  -16.1637 C   0  0  0  0  0  0  0  0  0  0  0  0
   15.1255   -6.1279  -15.9897 N   0  0  0  0  0  0  0  0  0  0  0  0
   14.7925   -6.4255  -14.7245 C   0  0  0  0  0  0  0  0  0  0  0  0
   15.8882   -6.9446  -14.1257 N   0  0  0  0  0  0  0  0  0  0  0  0
   19.1360   -5.7751  -16.3060 C   0  0  0  0  0  0  0  0  0  0  0  0
   20.0627   -5.0114  -15.8604 O   0  0  0  0  0  0  0  0  0  0  0  0
   18.2008   -5.1751  -17.1162 O   0  0  0  0  0  0  0  0  0  0  0  0
  2  1  1  1
  3  2  1  0
  4  3  1  0
  5  4  2  0
  6  7  2  0
  6  2  1  0
  8  4  1  0
  9 10  1  0
 11 10  1  6
 11 12  1  0
 12  6  1  0
 13 15  1  0
 13 11  1  0
 14 13  2  0
 16 23  1  0
 16 15  1  0
 16 17  1  1
 17 18  1  0
 18 22  1  0
 19 18  2  0
 19 20  1  0
 20 21  1  0
 22 21  2  0
 23 25  1  0
 24 23  2  0
M  END
$$$$
