DSH.pdb
     RDKit          3D

 25 25  0  0  1  0  0  0  0  0999 V2000
   19.9005  -12.8315  -16.8304 N   0  0  0  0  0  0  0  0  0  0  0  0
   18.6567  -12.3552  -16.2660 C   0  0  1  0  0  0  0  0  0  0  0  0
   18.2351  -13.3491  -15.1811 C   0  0  0  0  0  0  0  0  0  0  0  0
   17.7104  -14.5671  -15.7980 C   0  0  0  0  0  0  0  0  0  0  0  0
   17.6309  -14.6766  -17.0416 O   0  0  0  0  0  0  0  0  0  0  0  0
   18.8815  -11.0348  -15.6719 C   0  0  0  0  0  0  0  0  0  0  0  0
   17.9282  -10.3632  -15.1658 O   0  0  0  0  0  0  0  0  0  0  0  0
   17.2900  -15.6260  -15.0172 O   0  0  0  0  0  0  0  0  0  0  0  0
   21.8632   -7.8138  -13.6313 O   0  0  0  0  0  0  0  0  0  0  0  0
   21.6340   -9.0517  -14.1917 C   0  0  0  0  0  0  0  0  0  0  0  0
   20.3593   -9.1084  -14.9992 C   0  0  2  0  0  0  0  0  0  0  0  0
   20.1651  -10.4046  -15.6130 N   0  0  0  0  0  0  0  0  0  0  0  0
   20.2682   -8.0092  -15.9956 C   0  0  0  0  0  0  0  0  0  0  0  0
   20.8370   -8.1265  -17.1119 O   0  0  0  0  0  0  0  0  0  0  0  0
   19.5574   -6.8004  -15.7558 N   0  0  0  0  0  0  0  0  0  0  0  0
   19.4703   -5.7511  -16.7637 C   0  0  1  0  0  0  0  0  0  0  0  0
   18.0591   -5.4809  -17.1675 C   0  0  0  0  0  0  0  0  0  0  0  0
   17.9923   -4.4441  -18.2024 C   0  0  0  0  0  0  0  0  0  0  0  0
   18.0004   -3.0712  -18.0158 C   0  0  0  0  0  0  0  0  0  0  0  0
   17.9250   -2.4537  -19.2056 N   0  0  0  0  0  0  0  0  0  0  0  0
   17.8685   -3.3998  -20.1553 C   0  0  0  0  0  0  0  0  0  0  0  0
   17.9100   -4.6015  -19.5367 N   0  0  0  0  0  0  0  0  0  0  0  0
   20.1699   -4.5382  -16.3349 C   0  0  0  0  0  0  0  0  0  0  0  0
   20.1739   -4.2705  -15.0824 O   0  0  0  0  0  0  0  0  0  0  0  0
   20.8329   -3.6441  -17.1424 O   0  0  0  0  0  0  0  0  0  0  0  0
  2  1  1  1
  3  2  1  0
  4  3  1  0
  5  4  2  0
  6  7  2  0
  6  2  1  0
  8  4  1  0
  9 10  1  0
 11 10  1  6
 11 12  1  0
 12  6  1  0
 13 15  1  0
 13 11  1  0
 14 13  2  0
 16 23  1  0
 16 15  1  0
 16 17  1  1
 17 18  1  0
 18 22  1  0
 19 18  2  0
 19 20  1  0
 20 21  1  0
 22 21  2  0
 23 25  1  0
 24 23  2  0
M  END
$$$$
