DSH.pdb
     RDKit          3D

 25 25  0  0  1  0  0  0  0  0999 V2000
   19.2705  -12.5413  -17.7092 N   0  0  0  0  0  0  0  0  0  0  0  0
   20.3567  -11.7067  -17.2448 C   0  0  1  0  0  0  0  0  0  0  0  0
   21.4510  -11.7409  -18.3144 C   0  0  0  0  0  0  0  0  0  0  0  0
   22.0671  -13.0668  -18.3545 C   0  0  0  0  0  0  0  0  0  0  0  0
   22.4628  -13.6253  -17.3073 O   0  0  0  0  0  0  0  0  0  0  0  0
   19.8639  -10.3367  -17.0799 C   0  0  0  0  0  0  0  0  0  0  0  0
   19.2262   -9.7442  -18.0064 O   0  0  0  0  0  0  0  0  0  0  0  0
   22.2256  -13.7327  -19.5541 O   0  0  0  0  0  0  0  0  0  0  0  0
   20.8153   -7.8757  -13.7107 O   0  0  0  0  0  0  0  0  0  0  0  0
   19.6064   -7.7115  -14.3515 C   0  0  0  0  0  0  0  0  0  0  0  0
   19.6267   -8.1893  -15.7838 C   0  0  2  0  0  0  0  0  0  0  0  0
   20.0550   -9.5678  -15.8881 N   0  0  0  0  0  0  0  0  0  0  0  0
   20.4215   -7.2983  -16.6691 C   0  0  0  0  0  0  0  0  0  0  0  0
   21.6316   -7.5578  -16.8961 O   0  0  0  0  0  0  0  0  0  0  0  0
   19.8809   -6.1388  -17.2916 N   0  0  0  0  0  0  0  0  0  0  0  0
   20.6983   -5.2666  -18.1256 C   0  0  1  0  0  0  0  0  0  0  0  0
   19.9476   -4.7684  -19.3154 C   0  0  0  0  0  0  0  0  0  0  0  0
   20.8007   -3.9381  -20.1718 C   0  0  0  0  0  0  0  0  0  0  0  0
   21.8596   -4.3583  -20.9603 C   0  0  0  0  0  0  0  0  0  0  0  0
   22.3937   -3.3041  -21.5977 N   0  0  0  0  0  0  0  0  0  0  0  0
   21.7011   -2.2132  -21.2364 C   0  0  0  0  0  0  0  0  0  0  0  0
   20.7388   -2.6085  -20.3727 N   0  0  0  0  0  0  0  0  0  0  0  0
   21.2897   -4.1791  -17.3434 C   0  0  0  0  0  0  0  0  0  0  0  0
   20.6301   -3.7534  -16.3313 O   0  0  0  0  0  0  0  0  0  0  0  0
   22.4933   -3.5576  -17.5806 O   0  0  0  0  0  0  0  0  0  0  0  0
  2  1  1  6
  3  2  1  0
  4  3  1  0
  5  4  2  0
  6  7  2  0
  6  2  1  0
  8  4  1  0
  9 10  1  0
 11 10  1  1
 11 12  1  0
 12  6  1  0
 13 15  1  0
 13 11  1  0
 14 13  2  0
 16 23  1  0
 16 15  1  0
 16 17  1  6
 17 18  1  0
 18 22  1  0
 19 18  2  0
 19 20  1  0
 20 21  1  0
 22 21  2  0
 23 25  1  0
 24 23  2  0
M  END
$$$$
