DSH.pdb
     RDKit          3D

 25 25  0  0  1  0  0  0  0  0999 V2000
   21.0348  -14.4047  -18.5752 N   0  0  0  0  0  0  0  0  0  0  0  0
   22.0142  -13.4843  -18.0405 C   0  0  1  0  0  0  0  0  0  0  0  0
   23.2437  -13.5435  -18.9501 C   0  0  0  0  0  0  0  0  0  0  0  0
   24.3216  -12.7330  -18.3840 C   0  0  0  0  0  0  0  0  0  0  0  0
   24.1899  -12.1701  -17.2747 O   0  0  0  0  0  0  0  0  0  0  0  0
   21.4496  -12.1323  -18.0534 C   0  0  0  0  0  0  0  0  0  0  0  0
   21.2410  -11.5100  -19.1420 O   0  0  0  0  0  0  0  0  0  0  0  0
   25.5122  -12.5715  -19.0652 O   0  0  0  0  0  0  0  0  0  0  0  0
   19.5827  -10.1770  -14.7061 O   0  0  0  0  0  0  0  0  0  0  0  0
   19.3252   -9.9340  -16.0379 C   0  0  0  0  0  0  0  0  0  0  0  0
   20.5484  -10.0750  -16.9120 C   0  0  2  0  0  0  0  0  0  0  0  0
   21.0936  -11.4149  -16.8673 N   0  0  0  0  0  0  0  0  0  0  0  0
   21.5827   -9.0504  -16.6119 C   0  0  0  0  0  0  0  0  0  0  0  0
   22.6825   -9.3986  -16.1093 O   0  0  0  0  0  0  0  0  0  0  0  0
   21.3981   -7.6628  -16.8658 N   0  0  0  0  0  0  0  0  0  0  0  0
   22.4094   -6.6776  -16.5039 C   0  0  1  0  0  0  0  0  0  0  0  0
   23.2017   -6.2308  -17.6872 C   0  0  0  0  0  0  0  0  0  0  0  0
   24.1445   -5.1679  -17.3241 C   0  0  0  0  0  0  0  0  0  0  0  0
   25.4781   -5.3122  -16.9775 C   0  0  0  0  0  0  0  0  0  0  0  0
   26.0083   -4.1076  -16.7118 N   0  0  0  0  0  0  0  0  0  0  0  0
   25.0441   -3.1898  -16.8800 C   0  0  0  0  0  0  0  0  0  0  0  0
   23.9197   -3.8428  -17.2508 N   0  0  0  0  0  0  0  0  0  0  0  0
   21.8235   -5.5550  -15.7686 C   0  0  0  0  0  0  0  0  0  0  0  0
   22.6289   -4.7151  -15.2333 O   0  0  0  0  0  0  0  0  0  0  0  0
   20.4840   -5.3010  -15.5889 O   0  0  0  0  0  0  0  0  0  0  0  0
  2  1  1  6
  3  2  1  0
  4  3  1  0
  5  4  2  0
  6  7  2  0
  6  2  1  0
  8  4  1  0
  9 10  1  0
 11 10  1  1
 11 12  1  0
 12  6  1  0
 13 15  1  0
 13 11  1  0
 14 13  2  0
 16 23  1  0
 16 15  1  0
 16 17  1  6
 17 18  1  0
 18 22  1  0
 19 18  2  0
 19 20  1  0
 20 21  1  0
 22 21  2  0
 23 25  1  0
 24 23  2  0
M  END
$$$$
