GPI.pdb
     RDKit          3D

 20 20  0  0  1  0  0  0  0  0999 V2000
    5.7738  -19.3297   21.8137 N   0  0  0  0  0  0  0  0  0  0  0  0
    5.7385  -17.9404   22.3505 C   0  0  0  0  0  0  0  0  0  0  0  0
    7.0956  -17.4087   22.3863 C   0  0  0  0  0  0  0  0  0  0  0  0
    7.9804  -18.2367   22.8673 O   0  0  0  0  0  0  0  0  0  0  0  0
    7.6024  -16.1732   21.9950 N   0  0  0  0  0  0  0  0  0  0  0  0
    7.0069  -15.4731   20.7948 C   0  0  0  0  0  0  0  0  0  0  0  0
    6.7171  -14.1219   21.4321 C   0  0  0  0  0  0  0  0  0  0  0  0
    7.6846  -13.9952   22.6143 C   0  0  0  0  0  0  0  0  0  0  0  0
    8.5885  -15.2218   22.3627 C   0  0  1  0  0  0  0  0  0  0  0  0
    9.5103  -15.4475   23.4367 C   0  0  0  0  0  0  0  0  0  0  0  0
   10.7299  -15.3981   23.3527 O   0  0  0  0  0  0  0  0  0  0  0  0
   10.0272  -13.1758   28.7440 C   0  0  0  0  0  0  0  0  0  0  0  0
   10.3537  -14.4549   27.9942 C   0  0  0  0  0  0  0  0  0  0  0  0
    9.5400  -14.4408   26.7162 C   0  0  2  0  0  0  0  0  0  0  0  0
    8.0866  -14.5082   27.1388 C   0  0  0  0  0  0  0  0  0  0  0  0
    9.8186  -15.6781   25.8775 C   0  0  2  0  0  0  0  0  0  0  0  0
    8.9640  -15.7622   24.7398 N   0  0  0  0  0  0  0  0  0  0  0  0
    9.5910  -16.8443   26.7485 C   0  0  0  0  0  0  0  0  0  0  0  0
   10.5499  -17.2217   27.6555 O   0  0  0  0  0  0  0  0  0  0  0  0
    8.5300  -17.4878   26.6626 O   0  0  0  0  0  0  0  0  0  0  0  0
  2  1  1  0
  3  2  1  0
  4  3  2  0
  5  6  1  0
  5  3  1  0
  7  6  1  0
  8  9  1  0
  8  7  1  0
  9 10  1  1
  9  5  1  0
 10 17  1  0
 11 10  2  0
 12 13  1  0
 13 14  1  0
 14 15  1  1
 16 18  1  0
 16 14  1  0
 16 17  1  6
 18 19  1  0
 20 18  2  0
M  END
$$$$
