GPI.pdb
     RDKit          3D

 20 20  0  0  1  0  0  0  0  0999 V2000
    8.0918  -18.7700   19.3973 N   0  0  0  0  0  0  0  0  0  0  0  0
    7.2410  -17.7446   20.0640 C   0  0  0  0  0  0  0  0  0  0  0  0
    8.0958  -16.8241   20.8041 C   0  0  0  0  0  0  0  0  0  0  0  0
    8.8763  -17.4028   21.6734 O   0  0  0  0  0  0  0  0  0  0  0  0
    8.2183  -15.4394   20.7384 N   0  0  0  0  0  0  0  0  0  0  0  0
    7.8767  -14.7244   19.4511 C   0  0  0  0  0  0  0  0  0  0  0  0
    6.9061  -13.6926   20.0070 C   0  0  0  0  0  0  0  0  0  0  0  0
    7.2712  -13.5217   21.4860 C   0  0  0  0  0  0  0  0  0  0  0  0
    8.5872  -14.3281   21.5394 C   0  0  1  0  0  0  0  0  0  0  0  0
    9.0806  -14.4758   22.8769 C   0  0  0  0  0  0  0  0  0  0  0  0
   10.2488  -14.3649   23.2229 O   0  0  0  0  0  0  0  0  0  0  0  0
    6.8058  -11.5449   27.3225 C   0  0  0  0  0  0  0  0  0  0  0  0
    7.6817  -12.7602   27.0758 C   0  0  0  0  0  0  0  0  0  0  0  0
    7.3856  -13.2434   25.6707 C   0  0  2  0  0  0  0  0  0  0  0  0
    6.0214  -13.9002   25.7275 C   0  0  0  0  0  0  0  0  0  0  0  0
    8.3776  -14.3122   25.2401 C   0  0  2  0  0  0  0  0  0  0  0  0
    8.1238  -14.7830   23.9188 N   0  0  0  0  0  0  0  0  0  0  0  0
    8.2427  -15.4284   26.1922 C   0  0  0  0  0  0  0  0  0  0  0  0
    7.8158  -16.6573   25.7541 O   0  0  0  0  0  0  0  0  0  0  0  0
    8.5156  -15.2580   27.3938 O   0  0  0  0  0  0  0  0  0  0  0  0
  2  1  1  0
  3  2  1  0
  4  3  2  0
  5  6  1  0
  5  3  1  0
  7  6  1  0
  8  9  1  0
  8  7  1  0
  9 10  1  1
  9  5  1  0
 10 17  1  0
 11 10  2  0
 12 13  1  0
 13 14  1  0
 14 15  1  1
 16 18  1  0
 16 14  1  0
 16 17  1  6
 18 19  1  0
 20 18  2  0
M  END
$$$$
