GPI.pdb
     RDKit          3D

 20 20  0  0  1  0  0  0  0  0999 V2000
   11.8073  -17.2513   19.3466 N   0  0  0  0  0  0  0  0  0  0  0  0
   10.7014  -17.8929   20.1114 C   0  0  0  0  0  0  0  0  0  0  0  0
   10.4670  -17.1362   21.3355 C   0  0  0  0  0  0  0  0  0  0  0  0
   11.5524  -16.6874   21.9014 O   0  0  0  0  0  0  0  0  0  0  0  0
    9.2859  -16.8138   21.9972 N   0  0  0  0  0  0  0  0  0  0  0  0
    8.0479  -16.4922   21.1916 C   0  0  0  0  0  0  0  0  0  0  0  0
    7.0785  -17.4586   21.8564 C   0  0  0  0  0  0  0  0  0  0  0  0
    7.6373  -17.7203   23.2597 C   0  0  0  0  0  0  0  0  0  0  0  0
    8.7642  -16.6655   23.3081 C   0  0  1  0  0  0  0  0  0  0  0  0
    9.5809  -16.7956   24.4786 C   0  0  0  0  0  0  0  0  0  0  0  0
   10.3532  -17.7155   24.7114 O   0  0  0  0  0  0  0  0  0  0  0  0
   10.4421  -13.4476   29.5853 C   0  0  0  0  0  0  0  0  0  0  0  0
   10.5209  -14.7790   28.8600 C   0  0  0  0  0  0  0  0  0  0  0  0
   10.3730  -14.4882   27.3804 C   0  0  2  0  0  0  0  0  0  0  0  0
    8.9891  -13.8980   27.2011 C   0  0  0  0  0  0  0  0  0  0  0  0
   10.4204  -15.7702   26.5642 C   0  0  2  0  0  0  0  0  0  0  0  0
    9.4941  -15.7547   25.4809 N   0  0  0  0  0  0  0  0  0  0  0  0
   10.0833  -16.8729   27.4813 C   0  0  0  0  0  0  0  0  0  0  0  0
    8.8689  -17.5047   27.3787 O   0  0  0  0  0  0  0  0  0  0  0  0
   10.8988  -17.2320   28.3492 O   0  0  0  0  0  0  0  0  0  0  0  0
  2  1  1  0
  3  2  1  0
  4  3  2  0
  5  6  1  0
  5  3  1  0
  7  6  1  0
  8  9  1  0
  8  7  1  0
  9 10  1  1
  9  5  1  0
 10 17  1  0
 11 10  2  0
 12 13  1  0
 13 14  1  0
 14 15  1  1
 16 18  1  0
 16 14  1  0
 16 17  1  6
 18 19  1  0
 20 18  2  0
M  END
$$$$
