GPI.pdb
     RDKit          3D

 20 20  0  0  1  0  0  0  0  0999 V2000
   12.7200  -13.8014   19.5181 N   0  0  0  0  0  0  0  0  0  0  0  0
   11.4125  -14.4973   19.3577 C   0  0  0  0  0  0  0  0  0  0  0  0
   10.5311  -14.1143   20.4542 C   0  0  0  0  0  0  0  0  0  0  0  0
   11.1515  -13.8512   21.5704 O   0  0  0  0  0  0  0  0  0  0  0  0
    9.1468  -13.9825   20.5092 N   0  0  0  0  0  0  0  0  0  0  0  0
    8.4044  -13.4429   19.3080 C   0  0  0  0  0  0  0  0  0  0  0  0
    7.3730  -14.5510   19.1532 C   0  0  0  0  0  0  0  0  0  0  0  0
    7.2335  -15.1958   20.5368 C   0  0  0  0  0  0  0  0  0  0  0  0
    8.0545  -14.2022   21.3874 C   0  0  1  0  0  0  0  0  0  0  0  0
    8.2322  -14.6572   22.7348 C   0  0  0  0  0  0  0  0  0  0  0  0
    8.9878  -15.5505   23.0926 O   0  0  0  0  0  0  0  0  0  0  0  0
    5.9898  -11.3218   26.6360 C   0  0  0  0  0  0  0  0  0  0  0  0
    7.0395  -12.0461   25.8122 C   0  0  0  0  0  0  0  0  0  0  0  0
    6.8885  -13.5256   26.1019 C   0  0  2  0  0  0  0  0  0  0  0  0
    7.4707  -13.7482   27.4829 C   0  0  0  0  0  0  0  0  0  0  0  0
    7.7107  -14.3590   25.1316 C   0  0  2  0  0  0  0  0  0  0  0  0
    7.4561  -14.0122   23.7727 N   0  0  0  0  0  0  0  0  0  0  0  0
    7.3382  -15.7666   25.3561 C   0  0  0  0  0  0  0  0  0  0  0  0
    8.1404  -16.5757   26.1218 O   0  0  0  0  0  0  0  0  0  0  0  0
    6.2967  -16.2229   24.8519 O   0  0  0  0  0  0  0  0  0  0  0  0
  2  1  1  0
  3  2  1  0
  4  3  2  0
  5  6  1  0
  5  3  1  0
  7  6  1  0
  8  9  1  0
  8  7  1  0
  9 10  1  1
  9  5  1  0
 10 17  1  0
 11 10  2  0
 12 13  1  0
 13 14  1  0
 14 15  1  1
 16 18  1  0
 16 14  1  0
 16 17  1  6
 18 19  1  0
 20 18  2  0
M  END
$$$$
