GPI.pdb
     RDKit          3D

 20 20  0  0  1  0  0  0  0  0999 V2000
   11.9047  -17.0907   19.7944 N   0  0  0  0  0  0  0  0  0  0  0  0
   10.4282  -17.2130   19.9516 C   0  0  0  0  0  0  0  0  0  0  0  0
    9.9444  -16.1139   20.7785 C   0  0  0  0  0  0  0  0  0  0  0  0
   10.8685  -15.5405   21.4977 O   0  0  0  0  0  0  0  0  0  0  0  0
    8.6693  -15.5767   20.9278 N   0  0  0  0  0  0  0  0  0  0  0  0
    7.8856  -15.1729   19.6998 C   0  0  0  0  0  0  0  0  0  0  0  0
    6.5991  -15.9350   19.9823 C   0  0  0  0  0  0  0  0  0  0  0  0
    6.5492  -16.1329   21.5016 C   0  0  0  0  0  0  0  0  0  0  0  0
    7.7296  -15.2362   21.9347 C   0  0  1  0  0  0  0  0  0  0  0  0
    8.0228  -15.3605   23.3321 C   0  0  0  0  0  0  0  0  0  0  0  0
    8.7921  -16.1708   23.8305 O   0  0  0  0  0  0  0  0  0  0  0  0
    6.0397  -11.2622   26.5636 C   0  0  0  0  0  0  0  0  0  0  0  0
    7.1376  -12.1525   26.0095 C   0  0  0  0  0  0  0  0  0  0  0  0
    6.8342  -13.5661   26.4626 C   0  0  2  0  0  0  0  0  0  0  0  0
    7.3355  -13.6705   27.8886 C   0  0  0  0  0  0  0  0  0  0  0  0
    7.6119  -14.5819   25.6409 C   0  0  2  0  0  0  0  0  0  0  0  0
    7.3573  -14.4546   24.2442 N   0  0  0  0  0  0  0  0  0  0  0  0
    7.1854  -15.9164   26.0969 C   0  0  0  0  0  0  0  0  0  0  0  0
    6.1127  -16.5345   25.5039 O   0  0  0  0  0  0  0  0  0  0  0  0
    7.7969  -16.4837   27.0196 O   0  0  0  0  0  0  0  0  0  0  0  0
  2  1  1  0
  3  2  1  0
  4  3  2  0
  5  6  1  0
  5  3  1  0
  7  6  1  0
  8  9  1  0
  8  7  1  0
  9 10  1  1
  9  5  1  0
 10 17  1  0
 11 10  2  0
 12 13  1  0
 13 14  1  0
 14 15  1  1
 16 18  1  0
 16 14  1  0
 16 17  1  6
 18 19  1  0
 20 18  2  0
M  END
$$$$
