GPI.pdb
     RDKit          3D

 20 20  0  0  1  0  0  0  0  0999 V2000
   12.8690  -14.1441   19.5847 N   0  0  0  0  0  0  0  0  0  0  0  0
   11.4696  -14.6123   19.3792 C   0  0  0  0  0  0  0  0  0  0  0  0
   10.6578  -14.2026   20.5190 C   0  0  0  0  0  0  0  0  0  0  0  0
   11.2929  -14.2131   21.6576 O   0  0  0  0  0  0  0  0  0  0  0  0
    9.3267  -13.8039   20.5952 N   0  0  0  0  0  0  0  0  0  0  0  0
    8.7398  -12.9610   19.4861 C   0  0  0  0  0  0  0  0  0  0  0  0
    7.5126  -13.8053   19.1749 C   0  0  0  0  0  0  0  0  0  0  0  0
    7.2097  -14.5984   20.4512 C   0  0  0  0  0  0  0  0  0  0  0  0
    8.1892  -13.9214   21.4347 C   0  0  1  0  0  0  0  0  0  0  0  0
    8.2359  -14.5894   22.7019 C   0  0  0  0  0  0  0  0  0  0  0  0
    8.7269  -15.6904   22.9106 O   0  0  0  0  0  0  0  0  0  0  0  0
    5.9264  -11.8980   27.1891 C   0  0  0  0  0  0  0  0  0  0  0  0
    6.1502  -12.8178   26.0021 C   0  0  0  0  0  0  0  0  0  0  0  0
    7.4461  -13.5613   26.2544 C   0  0  2  0  0  0  0  0  0  0  0  0
    8.5424  -12.5155   26.2476 C   0  0  0  0  0  0  0  0  0  0  0  0
    7.7483  -14.5317   25.1236 C   0  0  2  0  0  0  0  0  0  0  0  0
    7.6550  -13.9135   23.8426 N   0  0  0  0  0  0  0  0  0  0  0  0
    6.7571  -15.6178   25.2168 C   0  0  0  0  0  0  0  0  0  0  0  0
    6.7653  -16.4642   26.2975 O   0  0  0  0  0  0  0  0  0  0  0  0
    5.9123  -15.7685   24.3164 O   0  0  0  0  0  0  0  0  0  0  0  0
  2  1  1  0
  3  2  1  0
  4  3  2  0
  5  6  1  0
  5  3  1  0
  7  6  1  0
  8  9  1  0
  8  7  1  0
  9 10  1  1
  9  5  1  0
 10 17  1  0
 11 10  2  0
 12 13  1  0
 13 14  1  0
 14 15  1  6
 16 18  1  0
 16 14  1  0
 16 17  1  6
 18 19  1  0
 20 18  2  0
M  END
$$$$
