GPI.pdb
     RDKit          3D

 20 20  0  0  1  0  0  0  0  0999 V2000
   11.8274  -17.2739   19.8143 N   0  0  0  0  0  0  0  0  0  0  0  0
   10.3413  -17.2183   19.9049 C   0  0  0  0  0  0  0  0  0  0  0  0
    9.9615  -16.2279   20.9052 C   0  0  0  0  0  0  0  0  0  0  0  0
   10.8564  -16.0377   21.8341 O   0  0  0  0  0  0  0  0  0  0  0  0
    8.8112  -15.4555   21.0341 N   0  0  0  0  0  0  0  0  0  0  0  0
    8.2586  -14.7394   19.8229 C   0  0  0  0  0  0  0  0  0  0  0  0
    6.8231  -15.2401   19.8898 C   0  0  0  0  0  0  0  0  0  0  0  0
    6.5740  -15.6169   21.3546 C   0  0  0  0  0  0  0  0  0  0  0  0
    7.8573  -15.0556   22.0050 C   0  0  1  0  0  0  0  0  0  0  0  0
    7.9700  -15.4185   23.3870 C   0  0  0  0  0  0  0  0  0  0  0  0
    8.2496  -16.5311   23.8121 O   0  0  0  0  0  0  0  0  0  0  0  0
    5.8067  -11.8594   27.2407 C   0  0  0  0  0  0  0  0  0  0  0  0
    6.1317  -12.9487   26.2343 C   0  0  0  0  0  0  0  0  0  0  0  0
    7.4428  -13.5744   26.6648 C   0  0  2  0  0  0  0  0  0  0  0  0
    8.5016  -12.5061   26.4827 C   0  0  0  0  0  0  0  0  0  0  0  0
    7.8187  -14.7345   25.7565 C   0  0  2  0  0  0  0  0  0  0  0  0
    7.7350  -14.3882   24.3764 N   0  0  0  0  0  0  0  0  0  0  0  0
    6.8733  -15.8268   26.0458 C   0  0  0  0  0  0  0  0  0  0  0  0
    7.0182  -16.5764   27.1867 O   0  0  0  0  0  0  0  0  0  0  0  0
    5.9434  -16.0705   25.2566 O   0  0  0  0  0  0  0  0  0  0  0  0
  2  1  1  0
  3  2  1  0
  4  3  2  0
  5  6  1  0
  5  3  1  0
  7  6  1  0
  8  9  1  0
  8  7  1  0
  9 10  1  1
  9  5  1  0
 10 17  1  0
 11 10  2  0
 12 13  1  0
 13 14  1  0
 14 15  1  6
 16 18  1  0
 16 14  1  0
 16 17  1  6
 18 19  1  0
 20 18  2  0
M  END
$$$$
