GPI.pdb
     RDKit          3D

 20 20  0  0  1  0  0  0  0  0999 V2000
   10.9817  -17.8201   19.3378 N   0  0  0  0  0  0  0  0  0  0  0  0
    9.5683  -17.4368   19.6118 C   0  0  0  0  0  0  0  0  0  0  0  0
    9.5426  -16.4397   20.6753 C   0  0  0  0  0  0  0  0  0  0  0  0
   10.4689  -16.5993   21.5787 O   0  0  0  0  0  0  0  0  0  0  0  0
    8.7005  -15.3520   20.8865 N   0  0  0  0  0  0  0  0  0  0  0  0
    8.0808  -14.6516   19.6989 C   0  0  0  0  0  0  0  0  0  0  0  0
    6.6239  -14.6939   20.1364 C   0  0  0  0  0  0  0  0  0  0  0  0
    6.6440  -14.8058   21.6651 C   0  0  0  0  0  0  0  0  0  0  0  0
    8.1467  -14.5770   21.9378 C   0  0  1  0  0  0  0  0  0  0  0  0
    8.4888  -14.7924   23.3128 C   0  0  0  0  0  0  0  0  0  0  0  0
    9.5324  -15.2845   23.7200 O   0  0  0  0  0  0  0  0  0  0  0  0
    5.9579  -11.8248   27.3234 C   0  0  0  0  0  0  0  0  0  0  0  0
    6.2114  -12.8735   26.2553 C   0  0  0  0  0  0  0  0  0  0  0  0
    7.5007  -13.5794   26.6230 C   0  0  2  0  0  0  0  0  0  0  0  0
    8.6099  -12.5672   26.4214 C   0  0  0  0  0  0  0  0  0  0  0  0
    7.7775  -14.7385   25.6786 C   0  0  2  0  0  0  0  0  0  0  0  0
    7.5245  -14.3979   24.3178 N   0  0  0  0  0  0  0  0  0  0  0  0
    6.8860  -15.8399   26.0819 C   0  0  0  0  0  0  0  0  0  0  0  0
    7.1585  -16.5641   27.2158 O   0  0  0  0  0  0  0  0  0  0  0  0
    5.8859  -16.1145   25.3952 O   0  0  0  0  0  0  0  0  0  0  0  0
  2  1  1  0
  3  2  1  0
  4  3  2  0
  5  6  1  0
  5  3  1  0
  7  6  1  0
  8  9  1  0
  8  7  1  0
  9 10  1  1
  9  5  1  0
 10 17  1  0
 11 10  2  0
 12 13  1  0
 13 14  1  0
 14 15  1  6
 16 18  1  0
 16 14  1  0
 16 17  1  6
 18 19  1  0
 20 18  2  0
M  END
$$$$
