GPI.pdb
     RDKit          3D

 20 20  0  0  1  0  0  0  0  0999 V2000
    7.9138  -19.6817   20.6592 N   0  0  0  0  0  0  0  0  0  0  0  0
    7.0971  -18.5274   21.1285 C   0  0  0  0  0  0  0  0  0  0  0  0
    7.9885  -17.4594   21.5653 C   0  0  0  0  0  0  0  0  0  0  0  0
    8.9249  -17.8479   22.3852 O   0  0  0  0  0  0  0  0  0  0  0  0
    8.0079  -16.1028   21.2555 N   0  0  0  0  0  0  0  0  0  0  0  0
    7.5998  -15.6517   19.8717 C   0  0  0  0  0  0  0  0  0  0  0  0
    6.5622  -14.6091   20.2620 C   0  0  0  0  0  0  0  0  0  0  0  0
    6.9307  -14.1550   21.6789 C   0  0  0  0  0  0  0  0  0  0  0  0
    8.3031  -14.8446   21.8406 C   0  0  1  0  0  0  0  0  0  0  0  0
    8.8213  -14.7191   23.1709 C   0  0  0  0  0  0  0  0  0  0  0  0
    9.9952  -14.5404   23.4656 O   0  0  0  0  0  0  0  0  0  0  0  0
    5.9548  -11.5993   26.1280 C   0  0  0  0  0  0  0  0  0  0  0  0
    7.1491  -12.3004   25.5058 C   0  0  0  0  0  0  0  0  0  0  0  0
    7.3976  -13.5570   26.3149 C   0  0  2  0  0  0  0  0  0  0  0  0
    8.1027  -13.1132   27.5804 C   0  0  0  0  0  0  0  0  0  0  0  0
    8.3420  -14.4990   25.5849 C   0  0  2  0  0  0  0  0  0  0  0  0
    7.8849  -14.8100   24.2711 N   0  0  0  0  0  0  0  0  0  0  0  0
    8.4143  -15.7347   26.3839 C   0  0  0  0  0  0  0  0  0  0  0  0
    9.4132  -15.8953   27.3117 O   0  0  0  0  0  0  0  0  0  0  0  0
    7.5703  -16.6333   26.2183 O   0  0  0  0  0  0  0  0  0  0  0  0
  2  1  1  0
  3  2  1  0
  4  3  2  0
  5  6  1  0
  5  3  1  0
  7  6  1  0
  8  9  1  0
  8  7  1  0
  9 10  1  1
  9  5  1  0
 10 17  1  0
 11 10  2  0
 12 13  1  0
 13 14  1  0
 14 15  1  1
 16 18  1  0
 16 14  1  0
 16 17  1  6
 18 19  1  0
 20 18  2  0
M  END
$$$$
