GPI.pdb
     RDKit          3D

 20 20  0  0  1  0  0  0  0  0999 V2000
   12.9359  -14.0443   19.6685 N   0  0  0  0  0  0  0  0  0  0  0  0
   11.5314  -14.4741   19.4189 C   0  0  0  0  0  0  0  0  0  0  0  0
   10.6969  -14.0481   20.5361 C   0  0  0  0  0  0  0  0  0  0  0  0
   11.3140  -14.0249   21.6844 O   0  0  0  0  0  0  0  0  0  0  0  0
    9.3603  -13.6635   20.5823 N   0  0  0  0  0  0  0  0  0  0  0  0
    8.7877  -12.8329   19.4566 C   0  0  0  0  0  0  0  0  0  0  0  0
    7.5764  -13.6922   19.1245 C   0  0  0  0  0  0  0  0  0  0  0  0
    7.2555  -14.4819   20.3986 C   0  0  0  0  0  0  0  0  0  0  0  0
    8.2068  -13.7890   21.3985 C   0  0  1  0  0  0  0  0  0  0  0  0
    8.2342  -14.4498   22.6701 C   0  0  0  0  0  0  0  0  0  0  0  0
    8.8774  -15.4554   22.9380 O   0  0  0  0  0  0  0  0  0  0  0  0
    5.8949  -11.4589   26.7120 C   0  0  0  0  0  0  0  0  0  0  0  0
    7.0614  -12.1627   26.0420 C   0  0  0  0  0  0  0  0  0  0  0  0
    6.7649  -13.6481   26.0795 C   0  0  2  0  0  0  0  0  0  0  0  0
    7.1930  -14.1308   27.4503 C   0  0  0  0  0  0  0  0  0  0  0  0
    7.6059  -14.3990   25.0593 C   0  0  2  0  0  0  0  0  0  0  0  0
    7.4356  -13.8888   23.7393 N   0  0  0  0  0  0  0  0  0  0  0  0
    7.1712  -15.8061   25.1005 C   0  0  0  0  0  0  0  0  0  0  0  0
    7.8233  -16.7030   25.9096 O   0  0  0  0  0  0  0  0  0  0  0  0
    6.2131  -16.1824   24.4021 O   0  0  0  0  0  0  0  0  0  0  0  0
  2  1  1  0
  3  2  1  0
  4  3  2  0
  5  6  1  0
  5  3  1  0
  7  6  1  0
  8  9  1  0
  8  7  1  0
  9 10  1  1
  9  5  1  0
 10 17  1  0
 11 10  2  0
 12 13  1  0
 13 14  1  0
 14 15  1  1
 16 18  1  0
 16 14  1  0
 16 17  1  6
 18 19  1  0
 20 18  2  0
M  END
$$$$
