GPI.pdb
     RDKit          3D

 20 20  0  0  1  0  0  0  0  0999 V2000
   10.7203  -17.5700   18.9693 N   0  0  0  0  0  0  0  0  0  0  0  0
    9.3620  -16.9873   19.1569 C   0  0  0  0  0  0  0  0  0  0  0  0
    9.3371  -16.2276   20.4012 C   0  0  0  0  0  0  0  0  0  0  0  0
   10.0520  -16.7489   21.3589 O   0  0  0  0  0  0  0  0  0  0  0  0
    8.6828  -15.0460   20.7363 N   0  0  0  0  0  0  0  0  0  0  0  0
    8.7148  -13.8812   19.7733 C   0  0  0  0  0  0  0  0  0  0  0  0
    7.2204  -13.6070   19.6880 C   0  0  0  0  0  0  0  0  0  0  0  0
    6.6148  -14.1544   20.9854 C   0  0  0  0  0  0  0  0  0  0  0  0
    7.9021  -14.4769   21.7752 C   0  0  1  0  0  0  0  0  0  0  0  0
    7.6297  -15.1711   22.9991 C   0  0  0  0  0  0  0  0  0  0  0  0
    7.1518  -16.2936   23.0918 O   0  0  0  0  0  0  0  0  0  0  0  0
    8.1861  -12.3087   27.9391 C   0  0  0  0  0  0  0  0  0  0  0  0
    7.5642  -13.0130   26.7465 C   0  0  0  0  0  0  0  0  0  0  0  0
    8.1838  -14.3938   26.6735 C   0  0  2  0  0  0  0  0  0  0  0  0
    9.6681  -14.1809   26.4567 C   0  0  0  0  0  0  0  0  0  0  0  0
    7.6630  -15.1632   25.4698 C   0  0  2  0  0  0  0  0  0  0  0  0
    7.9426  -14.4968   24.2413 N   0  0  0  0  0  0  0  0  0  0  0  0
    6.2047  -15.2859   25.6399 C   0  0  0  0  0  0  0  0  0  0  0  0
    5.6927  -16.1426   26.5824 O   0  0  0  0  0  0  0  0  0  0  0  0
    5.4365  -14.6133   24.9295 O   0  0  0  0  0  0  0  0  0  0  0  0
  2  1  1  0
  3  2  1  0
  4  3  2  0
  5  6  1  0
  5  3  1  0
  7  6  1  0
  8  9  1  0
  8  7  1  0
  9 10  1  1
  9  5  1  0
 10 17  1  0
 11 10  2  0
 12 13  1  0
 13 14  1  0
 14 15  1  6
 16 18  1  0
 16 14  1  0
 16 17  1  6
 18 19  1  0
 20 18  2  0
M  END
$$$$
