CHR.pdb
     RDKit          3D

 28 28  0  0  1  0  0  0  0  0999 V2000
   28.4801  -20.8143   -8.0647 N   0  0  0  0  0  0  0  0  0  0  0  0
   27.0668  -20.7321   -8.3537 C   0  0  1  0  0  0  0  0  0  0  0  0
   26.4110  -19.6120   -7.5590 C   0  0  0  0  0  0  0  0  0  0  0  0
   26.9996  -19.5456   -5.8596 S   0  0  0  0  0  0  0  0  0  0  0  0
   26.8146  -20.5699   -9.8165 C   0  0  0  0  0  0  0  0  0  0  0  0
   27.6593  -19.9365  -10.4892 O   0  0  0  0  0  0  0  0  0  0  0  0
   25.6413  -21.1446  -10.3263 N   0  0  0  0  0  0  0  0  0  0  0  0
   25.3966  -21.2622  -11.7927 C   0  0  1  0  0  0  0  0  0  0  0  0
   25.4553  -22.7027  -12.1416 C   0  0  0  0  0  0  0  0  0  0  0  0
   25.1841  -23.1460  -13.4934 C   0  0  0  0  0  0  0  0  0  0  0  0
   24.9080  -22.2099  -14.5216 C   0  0  0  0  0  0  0  0  0  0  0  0
   24.7014  -22.8973  -15.6397 N   0  0  0  0  0  0  0  0  0  0  0  0
   24.8254  -24.2181  -15.4034 C   0  0  0  0  0  0  0  0  0  0  0  0
   25.1138  -24.3138  -14.1079 N   0  0  0  0  0  0  0  0  0  0  0  0
   24.1468  -20.5464  -12.0158 C   0  0  0  0  0  0  0  0  0  0  0  0
   23.1060  -20.8698  -11.3488 O   0  0  0  0  0  0  0  0  0  0  0  0
   24.6285  -19.7642  -17.5523 N   0  0  0  0  0  0  0  0  0  0  0  0
   23.4157  -19.9313  -18.2660 C   0  0  0  0  0  0  0  0  0  0  0  0
   23.2777  -20.9031  -19.1087 N   0  0  0  0  0  0  0  0  0  0  0  0
   22.2992  -19.0658  -18.1094 N   0  0  0  0  0  0  0  0  0  0  0  0
   22.2467  -18.0533  -17.1128 C   0  0  0  0  0  0  0  0  0  0  0  0
   21.7077  -18.5040  -15.7703 C   0  0  0  0  0  0  0  0  0  0  0  0
   22.9287  -18.7910  -14.9238 C   0  0  0  0  0  0  0  0  0  0  0  0
   22.6393  -19.2094  -13.5260 C   0  0  2  0  0  0  0  0  0  0  0  0
   23.9679  -19.4945  -12.9185 N   0  0  0  0  0  0  0  0  0  0  0  0
   21.7639  -20.3847  -13.3855 C   0  0  0  0  0  0  0  0  0  0  0  0
   20.4474  -20.2305  -13.0160 O   0  0  0  0  0  0  0  0  0  0  0  0
   22.1987  -21.5364  -13.5984 O   0  0  0  0  0  0  0  0  0  0  0  0
  2  1  1  6
  2  5  1  0
  3  2  1  0
  4  3  1  0
  5  6  2  0
  5  7  1  0
  7  8  1  0
  8 15  1  0
  8  9  1  1
 10  9  1  0
 10 11  2  0
 12 11  1  0
 13 12  1  0
 14 13  2  0
 14 10  1  0
 15 16  2  0
 17 18  1  0
 18 20  1  0
 19 18  2  0
 20 21  1  0
 21 22  1  0
 24 23  1  6
 23 22  1  0
 25 24  1  0
 25 15  1  0
 26 27  1  0
 26 24  1  0
 28 26  2  0
M  END
$$$$
