CHR.pdb
     RDKit          3D

 28 28  0  0  1  0  0  0  0  0999 V2000
   27.9109  -20.8648  -16.7724 N   0  0  0  0  0  0  0  0  0  0  0  0
   28.0063  -20.2938  -15.4486 C   0  0  1  0  0  0  0  0  0  0  0  0
   27.7960  -18.7870  -15.4871 C   0  0  0  0  0  0  0  0  0  0  0  0
   27.2761  -18.2117  -17.1113 S   0  0  0  0  0  0  0  0  0  0  0  0
   27.0530  -20.9438  -14.5008 C   0  0  0  0  0  0  0  0  0  0  0  0
   26.0986  -21.5936  -14.9846 O   0  0  0  0  0  0  0  0  0  0  0  0
   27.3037  -20.7738  -13.1315 N   0  0  0  0  0  0  0  0  0  0  0  0
   26.4316  -21.3901  -12.0904 C   0  0  1  0  0  0  0  0  0  0  0  0
   27.2082  -21.4371  -10.8275 C   0  0  0  0  0  0  0  0  0  0  0  0
   26.7702  -20.6939   -9.6641 C   0  0  0  0  0  0  0  0  0  0  0  0
   25.5252  -20.0159   -9.6635 C   0  0  0  0  0  0  0  0  0  0  0  0
   25.3926  -19.4298   -8.4784 N   0  0  0  0  0  0  0  0  0  0  0  0
   26.4705  -19.6835   -7.7107 C   0  0  0  0  0  0  0  0  0  0  0  0
   27.2631  -20.4418   -8.4641 N   0  0  0  0  0  0  0  0  0  0  0  0
   25.2073  -20.6000  -12.1211 C   0  0  0  0  0  0  0  0  0  0  0  0
   25.2696  -19.3480  -12.3690 O   0  0  0  0  0  0  0  0  0  0  0  0
   22.9096  -20.4765  -18.8826 N   0  0  0  0  0  0  0  0  0  0  0  0
   22.9313  -19.2004  -18.2669 C   0  0  0  0  0  0  0  0  0  0  0  0
   23.3198  -18.1584  -18.9278 N   0  0  0  0  0  0  0  0  0  0  0  0
   22.5391  -18.9844  -16.9179 N   0  0  0  0  0  0  0  0  0  0  0  0
   22.0152  -20.0192  -16.0958 C   0  0  0  0  0  0  0  0  0  0  0  0
   21.7873  -19.6333  -14.6484 C   0  0  0  0  0  0  0  0  0  0  0  0
   22.9380  -20.2497  -13.8831 C   0  0  0  0  0  0  0  0  0  0  0  0
   22.7159  -20.3876  -12.4187 C   0  0  2  0  0  0  0  0  0  0  0  0
   23.9191  -21.0967  -11.9041 N   0  0  0  0  0  0  0  0  0  0  0  0
   21.5000  -21.1206  -12.0292 C   0  0  0  0  0  0  0  0  0  0  0  0
   21.5867  -22.4126  -11.5638 O   0  0  0  0  0  0  0  0  0  0  0  0
   20.3744  -20.5852  -12.1138 O   0  0  0  0  0  0  0  0  0  0  0  0
  2  1  1  6
  2  5  1  0
  3  2  1  0
  4  3  1  0
  5  6  2  0
  5  7  1  0
  7  8  1  0
  8 15  1  0
  8  9  1  1
 10  9  1  0
 10 11  2  0
 12 11  1  0
 13 12  1  0
 14 13  2  0
 14 10  1  0
 15 16  2  0
 17 18  1  0
 18 20  1  0
 19 18  2  0
 20 21  1  0
 21 22  1  0
 24 23  1  6
 23 22  1  0
 25 24  1  0
 25 15  1  0
 26 27  1  0
 26 24  1  0
 28 26  2  0
M  END
$$$$
