CHR.pdb
     RDKit          3D

 28 28  0  0  1  0  0  0  0  0999 V2000
   26.0117  -33.5159   -8.3128 N   0  0  0  0  0  0  0  0  0  0  0  0
   26.8892  -32.9531   -7.3123 C   0  0  1  0  0  0  0  0  0  0  0  0
   26.2756  -31.7097   -6.6847 C   0  0  0  0  0  0  0  0  0  0  0  0
   24.7367  -32.0684   -5.8231 S   0  0  0  0  0  0  0  0  0  0  0  0
   27.2474  -33.9590   -6.2685 C   0  0  0  0  0  0  0  0  0  0  0  0
   26.5518  -34.9972   -6.1933 O   0  0  0  0  0  0  0  0  0  0  0  0
   28.3440  -33.6592   -5.4474 N   0  0  0  0  0  0  0  0  0  0  0  0
   28.8020  -34.5908   -4.3766 C   0  0  1  0  0  0  0  0  0  0  0  0
   30.2794  -34.4873   -4.2959 C   0  0  0  0  0  0  0  0  0  0  0  0
   31.1233  -35.2918   -5.1551 C   0  0  0  0  0  0  0  0  0  0  0  0
   30.5622  -36.2796   -6.0031 C   0  0  0  0  0  0  0  0  0  0  0  0
   31.5633  -36.8501   -6.6648 N   0  0  0  0  0  0  0  0  0  0  0  0
   32.7368  -36.2968   -6.3010 C   0  0  0  0  0  0  0  0  0  0  0  0
   32.4198  -35.3721   -5.3981 N   0  0  0  0  0  0  0  0  0  0  0  0
   28.0171  -34.2201   -3.2058 C   0  0  0  0  0  0  0  0  0  0  0  0
   27.4073  -33.0973   -3.1839 O   0  0  0  0  0  0  0  0  0  0  0  0
   20.5671  -34.5291   -3.0143 N   0  0  0  0  0  0  0  0  0  0  0  0
   20.6802  -34.2501   -1.6296 C   0  0  0  0  0  0  0  0  0  0  0  0
   19.6231  -34.0507   -0.9110 N   0  0  0  0  0  0  0  0  0  0  0  0
   21.9285  -34.1719   -0.9545 N   0  0  0  0  0  0  0  0  0  0  0  0
   23.1748  -34.2693   -1.6318 C   0  0  0  0  0  0  0  0  0  0  0  0
   24.3859  -34.3910   -0.7294 C   0  0  0  0  0  0  0  0  0  0  0  0
   25.5675  -34.5432   -1.6623 C   0  0  0  0  0  0  0  0  0  0  0  0
   26.8918  -34.6253   -0.9899 C   0  0  2  0  0  0  0  0  0  0  0  0
   27.8531  -35.0049   -2.0610 N   0  0  0  0  0  0  0  0  0  0  0  0
   26.9787  -35.5864    0.1219 C   0  0  0  0  0  0  0  0  0  0  0  0
   26.6322  -35.2058    1.3981 O   0  0  0  0  0  0  0  0  0  0  0  0
   27.3662  -36.7580   -0.0729 O   0  0  0  0  0  0  0  0  0  0  0  0
  2  1  1  6
  2  5  1  0
  3  2  1  0
  4  3  1  0
  5  6  2  0
  5  7  1  0
  7  8  1  0
  8 15  1  0
  8  9  1  1
 10  9  1  0
 10 11  2  0
 12 11  1  0
 13 12  1  0
 14 13  2  0
 14 10  1  0
 15 16  2  0
 17 18  1  0
 18 20  1  0
 19 18  2  0
 20 21  1  0
 21 22  1  0
 24 23  1  6
 23 22  1  0
 25 24  1  0
 25 15  1  0
 26 27  1  0
 26 24  1  0
 28 26  2  0
M  END
$$$$
