CHR.pdb
     RDKit          3D

 28 28  0  0  1  0  0  0  0  0999 V2000
   28.4296  -18.3207  -16.9773 N   0  0  0  0  0  0  0  0  0  0  0  0
   27.5546  -18.4356  -15.8332 C   0  0  1  0  0  0  0  0  0  0  0  0
   27.0172  -17.0737  -15.4175 C   0  0  0  0  0  0  0  0  0  0  0  0
   28.3026  -16.0095  -14.7433 S   0  0  0  0  0  0  0  0  0  0  0  0
   26.4402  -19.3959  -16.0891 C   0  0  0  0  0  0  0  0  0  0  0  0
   25.8782  -19.3555  -17.2070 O   0  0  0  0  0  0  0  0  0  0  0  0
   26.1078  -20.2750  -15.0483 N   0  0  0  0  0  0  0  0  0  0  0  0
   25.0234  -21.2888  -15.1919 C   0  0  1  0  0  0  0  0  0  0  0  0
   25.5747  -22.5969  -14.7621 C   0  0  0  0  0  0  0  0  0  0  0  0
   26.4785  -23.3345  -15.6203 C   0  0  0  0  0  0  0  0  0  0  0  0
   26.7185  -22.9135  -16.9526 C   0  0  0  0  0  0  0  0  0  0  0  0
   27.5789  -23.7708  -17.4912 N   0  0  0  0  0  0  0  0  0  0  0  0
   27.9124  -24.7202  -16.5951 C   0  0  0  0  0  0  0  0  0  0  0  0
   27.2291  -24.4149  -15.4948 N   0  0  0  0  0  0  0  0  0  0  0  0
   23.8995  -20.7333  -14.4486 C   0  0  0  0  0  0  0  0  0  0  0  0
   24.0874  -19.7370  -13.6708 O   0  0  0  0  0  0  0  0  0  0  0  0
   21.0082  -15.3713  -18.4764 N   0  0  0  0  0  0  0  0  0  0  0  0
   20.5154  -16.6962  -18.5747 C   0  0  0  0  0  0  0  0  0  0  0  0
   20.1706  -17.1857  -19.7216 N   0  0  0  0  0  0  0  0  0  0  0  0
   20.3694  -17.5539  -17.4508 N   0  0  0  0  0  0  0  0  0  0  0  0
   20.6859  -17.1445  -16.1266 C   0  0  0  0  0  0  0  0  0  0  0  0
   20.3948  -18.1722  -15.0520 C   0  0  0  0  0  0  0  0  0  0  0  0
   21.5012  -19.1980  -15.1679 C   0  0  0  0  0  0  0  0  0  0  0  0
   21.4314  -20.3107  -14.1831 C   0  0  2  0  0  0  0  0  0  0  0  0
   22.5823  -21.1964  -14.5092 N   0  0  0  0  0  0  0  0  0  0  0  0
   20.1825  -21.0901  -14.1961 C   0  0  0  0  0  0  0  0  0  0  0  0
   19.1851  -20.8197  -13.2877 O   0  0  0  0  0  0  0  0  0  0  0  0
   20.0075  -22.0057  -15.0280 O   0  0  0  0  0  0  0  0  0  0  0  0
  2  1  1  6
  2  5  1  0
  3  2  1  0
  4  3  1  0
  5  6  2  0
  5  7  1  0
  7  8  1  0
  8 15  1  0
  8  9  1  1
 10  9  1  0
 10 11  2  0
 12 11  1  0
 13 12  1  0
 14 13  2  0
 14 10  1  0
 15 16  2  0
 17 18  1  0
 18 20  1  0
 19 18  2  0
 20 21  1  0
 21 22  1  0
 24 23  1  6
 23 22  1  0
 25 24  1  0
 25 15  1  0
 26 27  1  0
 26 24  1  0
 28 26  2  0
M  END
$$$$
