CHR.pdb
     RDKit          3D

 28 28  0  0  1  0  0  0  0  0999 V2000
   24.4121  -18.0587  -17.4720 N   0  0  0  0  0  0  0  0  0  0  0  0
   25.3346  -19.0640  -17.9474 C   0  0  1  0  0  0  0  0  0  0  0  0
   26.6360  -18.4317  -18.4195 C   0  0  0  0  0  0  0  0  0  0  0  0
   27.8612  -19.6627  -18.8914 S   0  0  0  0  0  0  0  0  0  0  0  0
   25.5912  -20.1074  -16.9104 C   0  0  0  0  0  0  0  0  0  0  0  0
   26.0553  -19.7357  -15.8087 O   0  0  0  0  0  0  0  0  0  0  0  0
   25.2897  -21.4329  -17.2550 N   0  0  0  0  0  0  0  0  0  0  0  0
   25.4269  -22.5500  -16.2764 C   0  0  1  0  0  0  0  0  0  0  0  0
   24.0762  -22.8391  -15.7360 C   0  0  0  0  0  0  0  0  0  0  0  0
   23.4914  -21.9901  -14.7188 C   0  0  0  0  0  0  0  0  0  0  0  0
   24.2838  -21.4717  -13.6638 C   0  0  0  0  0  0  0  0  0  0  0  0
   23.4884  -20.7373  -12.8934 N   0  0  0  0  0  0  0  0  0  0  0  0
   22.2319  -20.7458  -13.3801 C   0  0  0  0  0  0  0  0  0  0  0  0
   22.2866  -21.5074  -14.4699 N   0  0  0  0  0  0  0  0  0  0  0  0
   26.1176  -23.6013  -17.0125 C   0  0  0  0  0  0  0  0  0  0  0  0
   25.7247  -23.9118  -18.1882 O   0  0  0  0  0  0  0  0  0  0  0  0
   33.4164  -25.2940  -14.0027 N   0  0  0  0  0  0  0  0  0  0  0  0
   33.4267  -25.5063  -15.4037 C   0  0  0  0  0  0  0  0  0  0  0  0
   34.4508  -26.0489  -15.9785 N   0  0  0  0  0  0  0  0  0  0  0  0
   32.3426  -25.1469  -16.2497 N   0  0  0  0  0  0  0  0  0  0  0  0
   31.1638  -24.5193  -15.7620 C   0  0  0  0  0  0  0  0  0  0  0  0
   30.0911  -24.2747  -16.8038 C   0  0  0  0  0  0  0  0  0  0  0  0
   29.2393  -25.5254  -16.8035 C   0  0  0  0  0  0  0  0  0  0  0  0
   27.8807  -25.3598  -17.3864 C   0  0  2  0  0  0  0  0  0  0  0  0
   27.2152  -24.3287  -16.5442 N   0  0  0  0  0  0  0  0  0  0  0  0
   27.0564  -26.5789  -17.4269 C   0  0  0  0  0  0  0  0  0  0  0  0
   27.0261  -27.3599  -18.5593 O   0  0  0  0  0  0  0  0  0  0  0  0
   26.3739  -26.9239  -16.4389 O   0  0  0  0  0  0  0  0  0  0  0  0
  2  1  1  1
  2  5  1  0
  3  2  1  0
  4  3  1  0
  5  6  2  0
  5  7  1  0
  7  8  1  0
  8 15  1  0
  8  9  1  6
 10  9  1  0
 10 11  2  0
 12 11  1  0
 13 12  1  0
 14 13  2  0
 14 10  1  0
 15 16  2  0
 17 18  1  0
 18 20  1  0
 19 18  2  0
 20 21  1  0
 21 22  1  0
 24 23  1  1
 23 22  1  0
 25 24  1  0
 25 15  1  0
 26 27  1  0
 26 24  1  0
 28 26  2  0
M  END
$$$$
