CHR.pdb
     RDKit          3D

 28 28  0  0  1  0  0  0  0  0999 V2000
   33.7500   -6.2269  -17.6095 N   0  0  0  0  0  0  0  0  0  0  0  0
   33.0498   -7.2747  -16.9026 C   0  0  1  0  0  0  0  0  0  0  0  0
   31.9692   -6.6969  -15.9999 C   0  0  0  0  0  0  0  0  0  0  0  0
   32.6572   -5.8141  -14.5905 S   0  0  0  0  0  0  0  0  0  0  0  0
   32.4789   -8.2841  -17.8432 C   0  0  0  0  0  0  0  0  0  0  0  0
   32.1482   -7.8970  -18.9869 O   0  0  0  0  0  0  0  0  0  0  0  0
   32.3567   -9.5977  -17.3675 N   0  0  0  0  0  0  0  0  0  0  0  0
   31.7613  -10.6828  -18.1997 C   0  0  1  0  0  0  0  0  0  0  0  0
   32.3924  -11.9600  -17.7868 C   0  0  0  0  0  0  0  0  0  0  0  0
   31.9222  -13.2215  -18.3206 C   0  0  0  0  0  0  0  0  0  0  0  0
   30.7949  -13.2704  -19.1789 C   0  0  0  0  0  0  0  0  0  0  0  0
   30.6001  -14.5432  -19.5066 N   0  0  0  0  0  0  0  0  0  0  0  0
   31.5274  -15.3228  -18.9167 C   0  0  0  0  0  0  0  0  0  0  0  0
   32.2926  -14.4861  -18.2202 N   0  0  0  0  0  0  0  0  0  0  0  0
   30.3221  -10.5333  -18.0243 C   0  0  0  0  0  0  0  0  0  0  0  0
   29.8632  -10.0942  -16.9155 O   0  0  0  0  0  0  0  0  0  0  0  0
   25.1051   -5.6077  -22.0568 N   0  0  0  0  0  0  0  0  0  0  0  0
   24.1774   -6.2826  -21.2250 C   0  0  0  0  0  0  0  0  0  0  0  0
   22.9494   -5.8826  -21.1506 N   0  0  0  0  0  0  0  0  0  0  0  0
   24.5236   -7.4137  -20.4369 N   0  0  0  0  0  0  0  0  0  0  0  0
   25.8537   -7.9075  -20.3455 C   0  0  0  0  0  0  0  0  0  0  0  0
   26.0132   -9.1675  -19.5193 C   0  0  0  0  0  0  0  0  0  0  0  0
   27.4956   -9.4710  -19.5331 C   0  0  0  0  0  0  0  0  0  0  0  0
   27.9036  -10.6455  -18.7164 C   0  0  2  0  0  0  0  0  0  0  0  0
   29.3554  -10.8282  -18.9895 N   0  0  0  0  0  0  0  0  0  0  0  0
   27.1811  -11.8961  -19.0011 C   0  0  0  0  0  0  0  0  0  0  0  0
   26.0228  -12.1993  -18.3230 O   0  0  0  0  0  0  0  0  0  0  0  0
   27.6046  -12.6996  -19.8590 O   0  0  0  0  0  0  0  0  0  0  0  0
  2  1  1  6
  2  5  1  0
  3  2  1  0
  4  3  1  0
  5  6  2  0
  5  7  1  0
  7  8  1  0
  8 15  1  0
  8  9  1  1
 10  9  1  0
 10 11  2  0
 12 11  1  0
 13 12  1  0
 14 13  2  0
 14 10  1  0
 15 16  2  0
 17 18  1  0
 18 20  1  0
 19 18  2  0
 20 21  1  0
 21 22  1  0
 24 23  1  6
 23 22  1  0
 25 24  1  0
 25 15  1  0
 26 27  1  0
 26 24  1  0
 28 26  2  0
M  END
$$$$
