CHR.pdb
     RDKit          3D

 28 28  0  0  1  0  0  0  0  0999 V2000
   26.1558  -14.2643  -17.5786 N   0  0  0  0  0  0  0  0  0  0  0  0
   26.0068  -14.0777  -16.1536 C   0  0  1  0  0  0  0  0  0  0  0  0
   27.2526  -14.5367  -15.4094 C   0  0  0  0  0  0  0  0  0  0  0  0
   27.7474  -16.2045  -15.8705 S   0  0  0  0  0  0  0  0  0  0  0  0
   25.6734  -12.6615  -15.8177 C   0  0  0  0  0  0  0  0  0  0  0  0
   25.5552  -12.3592  -14.6086 O   0  0  0  0  0  0  0  0  0  0  0  0
   25.5174  -11.7737  -16.8921 N   0  0  0  0  0  0  0  0  0  0  0  0
   25.2643  -10.3194  -16.6795 C   0  0  1  0  0  0  0  0  0  0  0  0
   25.8919   -9.5872  -17.8064 C   0  0  0  0  0  0  0  0  0  0  0  0
   25.7116   -8.1572  -17.9487 C   0  0  0  0  0  0  0  0  0  0  0  0
   24.9376   -7.4274  -17.0117 C   0  0  0  0  0  0  0  0  0  0  0  0
   24.9490   -6.1546  -17.3926 N   0  0  0  0  0  0  0  0  0  0  0  0
   25.6798   -6.0115  -18.5156 C   0  0  0  0  0  0  0  0  0  0  0  0
   26.1129   -7.2356  -18.8066 N   0  0  0  0  0  0  0  0  0  0  0  0
   23.8206  -10.2185  -16.5070 C   0  0  0  0  0  0  0  0  0  0  0  0
   23.0507  -11.0089  -17.1515 O   0  0  0  0  0  0  0  0  0  0  0  0
   18.9923  -15.2475  -14.4178 N   0  0  0  0  0  0  0  0  0  0  0  0
   18.4117  -14.6095  -15.5420 C   0  0  0  0  0  0  0  0  0  0  0  0
   17.4861  -15.1993  -16.2269 N   0  0  0  0  0  0  0  0  0  0  0  0
   18.7967  -13.3140  -15.9821 N   0  0  0  0  0  0  0  0  0  0  0  0
   19.7861  -12.5398  -15.3166 C   0  0  0  0  0  0  0  0  0  0  0  0
   20.1214  -11.2207  -15.9824 C   0  0  0  0  0  0  0  0  0  0  0  0
   21.2814  -10.6559  -15.1917 C   0  0  0  0  0  0  0  0  0  0  0  0
   21.6837   -9.2740  -15.5676 C   0  0  2  0  0  0  0  0  0  0  0  0
   23.1684   -9.3109  -15.6679 N   0  0  0  0  0  0  0  0  0  0  0  0
   21.2733   -8.2176  -14.6279 C   0  0  0  0  0  0  0  0  0  0  0  0
   20.0062   -7.6849  -14.6916 O   0  0  0  0  0  0  0  0  0  0  0  0
   22.0640   -7.7888  -13.7609 O   0  0  0  0  0  0  0  0  0  0  0  0
  2  1  1  6
  2  5  1  0
  3  2  1  0
  4  3  1  0
  5  6  2  0
  5  7  1  0
  7  8  1  0
  8 15  1  0
  8  9  1  6
 10  9  1  0
 10 11  2  0
 12 11  1  0
 13 12  1  0
 14 13  2  0
 14 10  1  0
 15 16  2  0
 17 18  1  0
 18 20  1  0
 19 18  2  0
 20 21  1  0
 21 22  1  0
 24 23  1  1
 23 22  1  0
 25 24  1  0
 25 15  1  0
 26 27  1  0
 26 24  1  0
 28 26  2  0
M  END
$$$$
