CHR.pdb
     RDKit          3D

 28 28  0  0  1  0  0  0  0  0999 V2000
   29.3097  -27.2429  -21.3402 N   0  0  0  0  0  0  0  0  0  0  0  0
   27.9088  -27.4854  -21.0823 C   0  0  1  0  0  0  0  0  0  0  0  0
   27.4113  -28.6945  -21.8613 C   0  0  0  0  0  0  0  0  0  0  0  0
   27.0695  -28.3029  -23.5844 S   0  0  0  0  0  0  0  0  0  0  0  0
   27.6387  -27.6406  -19.6220 C   0  0  0  0  0  0  0  0  0  0  0  0
   28.4948  -28.2354  -18.9287 O   0  0  0  0  0  0  0  0  0  0  0  0
   26.4371  -27.1037  -19.1378 N   0  0  0  0  0  0  0  0  0  0  0  0
   26.0992  -27.1172  -17.6852 C   0  0  1  0  0  0  0  0  0  0  0  0
   25.8331  -25.7168  -17.2752 C   0  0  0  0  0  0  0  0  0  0  0  0
   26.9254  -24.7887  -17.0677 C   0  0  0  0  0  0  0  0  0  0  0  0
   28.2709  -25.2047  -17.2303 C   0  0  0  0  0  0  0  0  0  0  0  0
   29.0446  -24.1543  -16.9781 N   0  0  0  0  0  0  0  0  0  0  0  0
   28.2886  -23.0845  -16.6625 C   0  0  0  0  0  0  0  0  0  0  0  0
   27.0314  -23.5153  -16.7304 N   0  0  0  0  0  0  0  0  0  0  0  0
   25.0202  -28.0898  -17.5675 C   0  0  0  0  0  0  0  0  0  0  0  0
   24.1437  -28.1760  -18.4934 O   0  0  0  0  0  0  0  0  0  0  0  0
   24.3979  -34.9986  -12.2306 N   0  0  0  0  0  0  0  0  0  0  0  0
   23.0724  -34.8943  -12.7207 C   0  0  0  0  0  0  0  0  0  0  0  0
   22.1761  -35.7633  -12.3815 N   0  0  0  0  0  0  0  0  0  0  0  0
   22.6492  -33.8566  -13.5950 N   0  0  0  0  0  0  0  0  0  0  0  0
   23.5247  -32.8349  -14.0540 C   0  0  0  0  0  0  0  0  0  0  0  0
   22.9471  -31.9295  -15.1229 C   0  0  0  0  0  0  0  0  0  0  0  0
   24.0352  -30.9226  -15.4264 C   0  0  0  0  0  0  0  0  0  0  0  0
   23.6750  -29.8956  -16.4405 C   0  0  2  0  0  0  0  0  0  0  0  0
   24.8453  -28.9780  -16.5027 N   0  0  0  0  0  0  0  0  0  0  0  0
   22.4524  -29.1264  -16.1557 C   0  0  0  0  0  0  0  0  0  0  0  0
   21.2454  -29.5177  -16.6881 O   0  0  0  0  0  0  0  0  0  0  0  0
   22.4893  -28.1106  -15.4294 O   0  0  0  0  0  0  0  0  0  0  0  0
  2  1  1  1
  2  5  1  0
  3  2  1  0
  4  3  1  0
  5  6  2  0
  5  7  1  0
  7  8  1  0
  8 15  1  0
  8  9  1  6
 10  9  1  0
 10 11  2  0
 12 11  1  0
 13 12  1  0
 14 13  2  0
 14 10  1  0
 15 16  2  0
 17 18  1  0
 18 20  1  0
 19 18  2  0
 20 21  1  0
 21 22  1  0
 24 23  1  1
 23 22  1  0
 25 24  1  0
 25 15  1  0
 26 27  1  0
 26 24  1  0
 28 26  2  0
M  END
$$$$
