CHR.pdb
     RDKit          3D

 28 28  0  0  1  0  0  0  0  0999 V2000
   20.0227  -16.1446  -16.6268 N   0  0  0  0  0  0  0  0  0  0  0  0
   19.8854  -14.7450  -16.9581 C   0  0  1  0  0  0  0  0  0  0  0  0
   18.4766  -14.2497  -16.6643 C   0  0  0  0  0  0  0  0  0  0  0  0
   17.2152  -15.3871  -17.2599 S   0  0  0  0  0  0  0  0  0  0  0  0
   20.9042  -13.9118  -16.2528 C   0  0  0  0  0  0  0  0  0  0  0  0
   21.7333  -14.4974  -15.5200 O   0  0  0  0  0  0  0  0  0  0  0  0
   20.8518  -12.5271  -16.4682 N   0  0  0  0  0  0  0  0  0  0  0  0
   21.8923  -11.6072  -15.9248 C   0  0  1  0  0  0  0  0  0  0  0  0
   23.2161  -12.1442  -16.3239 C   0  0  0  0  0  0  0  0  0  0  0  0
   24.4307  -11.4199  -16.0114 C   0  0  0  0  0  0  0  0  0  0  0  0
   24.3837  -10.2092  -15.2753 C   0  0  0  0  0  0  0  0  0  0  0  0
   25.6329   -9.7765  -15.1423 N   0  0  0  0  0  0  0  0  0  0  0  0
   26.4867  -10.6276  -15.7442 C   0  0  0  0  0  0  0  0  0  0  0  0
   25.7196  -11.5914  -16.2475 N   0  0  0  0  0  0  0  0  0  0  0  0
   21.5061  -10.2877  -16.4087 C   0  0  0  0  0  0  0  0  0  0  0  0
   20.9200  -10.1761  -17.5388 O   0  0  0  0  0  0  0  0  0  0  0  0
   14.9138   -8.8276  -17.0847 N   0  0  0  0  0  0  0  0  0  0  0  0
   15.5301   -8.3718  -15.8929 C   0  0  0  0  0  0  0  0  0  0  0  0
   14.8904   -8.4029  -14.7690 N   0  0  0  0  0  0  0  0  0  0  0  0
   16.8566   -7.8627  -15.8524 N   0  0  0  0  0  0  0  0  0  0  0  0
   17.4927   -7.2870  -16.9861 C   0  0  0  0  0  0  0  0  0  0  0  0
   18.9035   -6.7898  -16.7447 C   0  0  0  0  0  0  0  0  0  0  0  0
   19.7041   -8.0194  -16.3744 C   0  0  0  0  0  0  0  0  0  0  0  0
   21.1690   -7.7980  -16.2411 C   0  0  2  0  0  0  0  0  0  0  0  0
   21.7155   -9.0845  -15.7295 N   0  0  0  0  0  0  0  0  0  0  0  0
   21.5640   -6.6972  -15.3469 C   0  0  0  0  0  0  0  0  0  0  0  0
   22.1498   -6.9658  -14.1311 O   0  0  0  0  0  0  0  0  0  0  0  0
   21.3755   -5.5065  -15.6747 O   0  0  0  0  0  0  0  0  0  0  0  0
  2  1  1  1
  2  5  1  0
  3  2  1  0
  4  3  1  0
  5  6  2  0
  5  7  1  0
  7  8  1  0
  8 15  1  0
  8  9  1  6
 10  9  1  0
 10 11  2  0
 12 11  1  0
 13 12  1  0
 14 13  2  0
 14 10  1  0
 15 16  2  0
 17 18  1  0
 18 20  1  0
 19 18  2  0
 20 21  1  0
 21 22  1  0
 24 23  1  1
 23 22  1  0
 25 24  1  0
 25 15  1  0
 26 27  1  0
 26 24  1  0
 28 26  2  0
M  END
$$$$
