CHR.pdb
     RDKit          3D

 28 28  0  0  1  0  0  0  0  0999 V2000
   28.0145  -20.4596  -16.8739 N   0  0  0  0  0  0  0  0  0  0  0  0
   27.5150  -21.8099  -16.9955 C   0  0  1  0  0  0  0  0  0  0  0  0
   28.6557  -22.7992  -17.1867 C   0  0  0  0  0  0  0  0  0  0  0  0
   29.5663  -22.5048  -18.7109 S   0  0  0  0  0  0  0  0  0  0  0  0
   26.6676  -22.1887  -15.8259 C   0  0  0  0  0  0  0  0  0  0  0  0
   26.0654  -23.2854  -15.8704 O   0  0  0  0  0  0  0  0  0  0  0  0
   26.6122  -21.2785  -14.7605 N   0  0  0  0  0  0  0  0  0  0  0  0
   25.6934  -21.4786  -13.6029 C   0  0  1  0  0  0  0  0  0  0  0  0
   26.3464  -20.8918  -12.4073 C   0  0  0  0  0  0  0  0  0  0  0  0
   25.6495  -20.8356  -11.1390 C   0  0  0  0  0  0  0  0  0  0  0  0
   24.3178  -21.3076  -11.0221 C   0  0  0  0  0  0  0  0  0  0  0  0
   23.9434  -21.1315   -9.7594 N   0  0  0  0  0  0  0  0  0  0  0  0
   24.9454  -20.5762   -9.0501 C   0  0  0  0  0  0  0  0  0  0  0  0
   25.9410  -20.4196   -9.9190 N   0  0  0  0  0  0  0  0  0  0  0  0
   24.4213  -20.9187  -14.0416 C   0  0  0  0  0  0  0  0  0  0  0  0
   24.4096  -19.9841  -14.9130 O   0  0  0  0  0  0  0  0  0  0  0  0
   21.2082  -22.0316  -20.6547 N   0  0  0  0  0  0  0  0  0  0  0  0
   20.1197  -21.2931  -20.1277 C   0  0  0  0  0  0  0  0  0  0  0  0
   19.2152  -20.8048  -20.9133 N   0  0  0  0  0  0  0  0  0  0  0  0
   19.9523  -21.0448  -18.7383 N   0  0  0  0  0  0  0  0  0  0  0  0
   20.8824  -21.4931  -17.7609 C   0  0  0  0  0  0  0  0  0  0  0  0
   20.6268  -20.9886  -16.3552 C   0  0  0  0  0  0  0  0  0  0  0  0
   21.9109  -21.2459  -15.5972 C   0  0  0  0  0  0  0  0  0  0  0  0
   21.9113  -20.7768  -14.1855 C   0  0  2  0  0  0  0  0  0  0  0  0
   23.1617  -21.3230  -13.5908 N   0  0  0  0  0  0  0  0  0  0  0  0
   20.7520  -21.1938  -13.3796 C   0  0  0  0  0  0  0  0  0  0  0  0
   20.9141  -22.0673  -12.3289 O   0  0  0  0  0  0  0  0  0  0  0  0
   19.6069  -20.7638  -13.6342 O   0  0  0  0  0  0  0  0  0  0  0  0
  2  1  1  1
  2  5  1  0
  3  2  1  0
  4  3  1  0
  5  6  2  0
  5  7  1  0
  7  8  1  0
  8 15  1  0
  8  9  1  1
 10  9  1  0
 10 11  2  0
 12 11  1  0
 13 12  1  0
 14 13  2  0
 14 10  1  0
 15 16  2  0
 17 18  1  0
 18 20  1  0
 19 18  2  0
 20 21  1  0
 21 22  1  0
 24 23  1  6
 23 22  1  0
 25 24  1  0
 25 15  1  0
 26 27  1  0
 26 24  1  0
 28 26  2  0
M  END
$$$$
