GLE.pdb
     RDKit          3D

 22 21  0  0  1  0  0  0  0  0999 V2000
   22.2913  -13.0609  -18.8723 N   0  0  0  0  0  0  0  0  0  0  0  0
   21.5987  -12.8099  -17.6358 C   0  0  0  0  0  0  0  0  0  0  0  0
   22.1632  -11.6871  -16.8718 C   0  0  0  0  0  0  0  0  0  0  0  0
   21.5602  -11.3185  -15.8203 O   0  0  0  0  0  0  0  0  0  0  0  0
   26.1963  -11.0139  -14.8238 C   0  0  0  0  0  0  0  0  0  0  0  0
   26.2667  -10.6761  -16.2662 C   0  0  2  0  0  0  0  0  0  0  0  0
   27.6860  -10.1591  -16.5576 C   0  0  0  0  0  0  0  0  0  0  0  0
   25.3364   -9.6475  -16.7751 C   0  0  0  0  0  0  0  0  0  0  0  0
   23.8790   -9.8841  -16.6308 C   0  0  2  0  0  0  0  0  0  0  0  0
   23.3587  -11.0394  -17.3148 N   0  0  0  0  0  0  0  0  0  0  0  0
   23.0728   -8.6628  -16.9064 C   0  0  0  0  0  0  0  0  0  0  0  0
   22.9144   -8.3266  -18.1040 O   0  0  0  0  0  0  0  0  0  0  0  0
   22.4743   -7.8578  -15.9037 N   0  0  0  0  0  0  0  0  0  0  0  0
   21.5324   -6.7696  -16.2525 C   0  0  1  0  0  0  0  0  0  0  0  0
   20.2473   -7.4056  -16.6541 C   0  0  0  0  0  0  0  0  0  0  0  0
   19.1186   -6.4422  -16.8589 C   0  0  0  0  0  0  0  0  0  0  0  0
   17.8693   -7.0654  -17.3074 C   0  0  0  0  0  0  0  0  0  0  0  0
   16.8350   -6.3848  -17.5110 O   0  0  0  0  0  0  0  0  0  0  0  0
   21.3666   -5.9605  -15.0167 C   0  0  0  0  0  0  0  0  0  0  0  0
   20.7259   -4.8767  -15.0374 O   0  0  0  0  0  0  0  0  0  0  0  0
   17.7579   -8.4360  -17.5319 O   0  0  0  0  0  0  0  0  0  0  0  0
   21.8951   -6.3417  -13.7905 O   0  0  0  0  0  0  0  0  0  0  0  0
  2  1  1  0
  2  3  1  0
  3 10  1  0
  3  4  2  0
  6  8  1  0
  6  5  1  1
  7  6  1  0
  9  8  1  6
 10  9  1  0
 11  9  1  0
 11 13  1  0
 12 11  2  0
 14 15  1  1
 14 13  1  0
 14 19  1  0
 16 15  1  0
 17 16  1  0
 18 17  2  0
 19 22  1  0
 20 19  2  0
 21 17  1  0
M  END
$$$$
