GLE.pdb
     RDKit          3D

 22 21  0  0  1  0  0  0  0  0999 V2000
   18.4911  -12.6158  -17.7007 N   0  0  0  0  0  0  0  0  0  0  0  0
   18.7857  -11.2448  -18.0250 C   0  0  0  0  0  0  0  0  0  0  0  0
   19.5328  -10.5460  -16.9683 C   0  0  0  0  0  0  0  0  0  0  0  0
   18.8772  -10.0398  -16.0096 O   0  0  0  0  0  0  0  0  0  0  0  0
   22.6221  -12.1424  -13.8407 C   0  0  0  0  0  0  0  0  0  0  0  0
   23.1180  -11.8818  -15.2139 C   0  0  2  0  0  0  0  0  0  0  0  0
   24.5998  -12.2922  -15.2626 C   0  0  0  0  0  0  0  0  0  0  0  0
   23.0541  -10.4930  -15.7134 C   0  0  0  0  0  0  0  0  0  0  0  0
   21.7188   -9.8901  -15.9464 C   0  0  2  0  0  0  0  0  0  0  0  0
   20.9580  -10.4482  -17.0341 N   0  0  0  0  0  0  0  0  0  0  0  0
   21.7667   -8.4029  -16.0046 C   0  0  0  0  0  0  0  0  0  0  0  0
   22.2016   -7.8741  -17.0552 O   0  0  0  0  0  0  0  0  0  0  0  0
   21.3530   -7.5486  -14.9507 N   0  0  0  0  0  0  0  0  0  0  0  0
   21.4160   -6.0752  -15.0860 C   0  0  1  0  0  0  0  0  0  0  0  0
   20.0213   -5.5851  -15.2649 C   0  0  0  0  0  0  0  0  0  0  0  0
   19.8969   -4.0950  -15.3554 C   0  0  0  0  0  0  0  0  0  0  0  0
   18.5276   -3.6175  -15.5726 C   0  0  0  0  0  0  0  0  0  0  0  0
   17.5644   -4.4157  -15.6714 O   0  0  0  0  0  0  0  0  0  0  0  0
   22.0017   -5.5726  -13.8158 C   0  0  0  0  0  0  0  0  0  0  0  0
   22.0085   -6.2902  -12.7811 O   0  0  0  0  0  0  0  0  0  0  0  0
   18.2181   -2.2633  -15.6810 O   0  0  0  0  0  0  0  0  0  0  0  0
   22.5659   -4.3095  -13.6945 O   0  0  0  0  0  0  0  0  0  0  0  0
  2  1  1  0
  2  3  1  0
  3 10  1  0
  3  4  2  0
  6  8  1  0
  6  5  1  1
  7  6  1  0
  9  8  1  6
 10  9  1  0
 11  9  1  0
 11 13  1  0
 12 11  2  0
 14 15  1  1
 14 13  1  0
 14 19  1  0
 16 15  1  0
 17 16  1  0
 18 17  2  0
 19 22  1  0
 20 19  2  0
 21 17  1  0
M  END
$$$$
