GLE.pdb
     RDKit          3D

 22 21  0  0  1  0  0  0  0  0999 V2000
   15.2216  -13.4852  -13.0260 N   0  0  0  0  0  0  0  0  0  0  0  0
   16.1532  -12.8651  -12.1208 C   0  0  0  0  0  0  0  0  0  0  0  0
   15.8341  -11.4586  -11.8329 C   0  0  0  0  0  0  0  0  0  0  0  0
   15.6915  -10.6671  -12.8118 O   0  0  0  0  0  0  0  0  0  0  0  0
   12.1925   -9.0940  -10.6334 C   0  0  0  0  0  0  0  0  0  0  0  0
   12.8441   -9.8814   -9.5587 C   0  0  2  0  0  0  0  0  0  0  0  0
   11.9858   -9.7420   -8.2896 C   0  0  0  0  0  0  0  0  0  0  0  0
   14.2204   -9.5071   -9.1736 C   0  0  0  0  0  0  0  0  0  0  0  0
   15.2986   -9.6591  -10.1812 C   0  0  2  0  0  0  0  0  0  0  0  0
   15.6919  -11.0112  -10.4820 N   0  0  0  0  0  0  0  0  0  0  0  0
   16.4717   -8.7870   -9.8971 C   0  0  0  0  0  0  0  0  0  0  0  0
   17.2380   -9.1258   -8.9641 O   0  0  0  0  0  0  0  0  0  0  0  0
   16.7770   -7.6010  -10.6126 N   0  0  0  0  0  0  0  0  0  0  0  0
   17.9779   -6.7965  -10.2901 C   0  0  1  0  0  0  0  0  0  0  0  0
   18.9290   -6.9425  -11.4265 C   0  0  0  0  0  0  0  0  0  0  0  0
   20.1590   -6.0946  -11.3154 C   0  0  0  0  0  0  0  0  0  0  0  0
   21.0908   -6.2359  -12.4388 C   0  0  0  0  0  0  0  0  0  0  0  0
   20.8637   -7.0331  -13.3809 O   0  0  0  0  0  0  0  0  0  0  0  0
   17.5072   -5.3925  -10.1623 C   0  0  0  0  0  0  0  0  0  0  0  0
   16.4546   -5.0109  -10.7384 O   0  0  0  0  0  0  0  0  0  0  0  0
   22.2713   -5.5009  -12.5259 O   0  0  0  0  0  0  0  0  0  0  0  0
   18.1834   -4.4366   -9.4158 O   0  0  0  0  0  0  0  0  0  0  0  0
  2  1  1  0
  2  3  1  0
  3 10  1  0
  3  4  2  0
  6  8  1  0
  6  5  1  6
  7  6  1  0
  9  8  1  1
 10  9  1  0
 11  9  1  0
 11 13  1  0
 12 11  2  0
 14 15  1  6
 14 13  1  0
 14 19  1  0
 16 15  1  0
 17 16  1  0
 18 17  2  0
 19 22  1  0
 20 19  2  0
 21 17  1  0
M  END
$$$$
