GLE.pdb
     RDKit          3D

 22 21  0  0  1  0  0  0  0  0999 V2000
   27.2981  -19.5068  -17.6398 N   0  0  0  0  0  0  0  0  0  0  0  0
   26.8843  -18.8419  -16.4322 C   0  0  0  0  0  0  0  0  0  0  0  0
   26.1807  -19.7286  -15.4931 C   0  0  0  0  0  0  0  0  0  0  0  0
   25.7061  -20.8147  -15.9405 O   0  0  0  0  0  0  0  0  0  0  0  0
   25.2640  -20.7099   -9.3636 C   0  0  0  0  0  0  0  0  0  0  0  0
   25.0657  -21.0073  -10.8031 C   0  0  2  0  0  0  0  0  0  0  0  0
   25.5751  -22.4358  -11.0608 C   0  0  0  0  0  0  0  0  0  0  0  0
   25.7497  -20.1384  -11.7826 C   0  0  0  0  0  0  0  0  0  0  0  0
   25.3030  -20.1851  -13.1966 C   0  0  2  0  0  0  0  0  0  0  0  0
   26.0438  -19.3626  -14.1175 N   0  0  0  0  0  0  0  0  0  0  0  0
   23.8328  -19.9944  -13.3368 C   0  0  0  0  0  0  0  0  0  0  0  0
   23.3483  -18.9000  -12.9623 O   0  0  0  0  0  0  0  0  0  0  0  0
   22.9479  -20.9685  -13.8656 N   0  0  0  0  0  0  0  0  0  0  0  0
   21.5020  -20.6892  -14.0221 C   0  0  1  0  0  0  0  0  0  0  0  0
   21.0174  -21.4897  -15.1804 C   0  0  0  0  0  0  0  0  0  0  0  0
   19.5433  -21.3895  -15.4271 C   0  0  0  0  0  0  0  0  0  0  0  0
   19.0663  -22.1929  -16.5573 C   0  0  0  0  0  0  0  0  0  0  0  0
   19.8371  -22.9547  -17.1899 O   0  0  0  0  0  0  0  0  0  0  0  0
   20.8603  -21.1341  -12.7575 C   0  0  0  0  0  0  0  0  0  0  0  0
   19.8827  -20.5041  -12.2748 O   0  0  0  0  0  0  0  0  0  0  0  0
   17.7426  -22.1585  -16.9911 O   0  0  0  0  0  0  0  0  0  0  0  0
   21.2889  -22.2473  -12.0465 O   0  0  0  0  0  0  0  0  0  0  0  0
  2  1  1  0
  2  3  1  0
  3 10  1  0
  3  4  2  0
  6  8  1  0
  6  5  1  1
  7  6  1  0
  9  8  1  1
 10  9  1  0
 11  9  1  0
 11 13  1  0
 12 11  2  0
 14 15  1  6
 14 13  1  0
 14 19  1  0
 16 15  1  0
 17 16  1  0
 18 17  2  0
 19 22  1  0
 20 19  2  0
 21 17  1  0
M  END
$$$$
