GLE.pdb
     RDKit          3D

 22 21  0  0  1  0  0  0  0  0999 V2000
   15.7700   -9.1830  -15.5224 N   0  0  0  0  0  0  0  0  0  0  0  0
   15.8590   -8.3703  -16.7070 C   0  0  0  0  0  0  0  0  0  0  0  0
   16.8747   -7.3112  -16.6095 C   0  0  0  0  0  0  0  0  0  0  0  0
   18.0351   -7.5550  -17.0558 O   0  0  0  0  0  0  0  0  0  0  0  0
   17.3198   -1.1025  -15.7973 C   0  0  0  0  0  0  0  0  0  0  0  0
   17.8928   -2.4667  -15.8988 C   0  0  2  0  0  0  0  0  0  0  0  0
   18.6632   -2.5537  -17.2275 C   0  0  0  0  0  0  0  0  0  0  0  0
   16.9535   -3.6069  -15.8868 C   0  0  0  0  0  0  0  0  0  0  0  0
   17.5117   -4.9789  -15.9712 C   0  0  2  0  0  0  0  0  0  0  0  0
   16.5481   -6.0474  -16.0253 N   0  0  0  0  0  0  0  0  0  0  0  0
   18.5659   -5.2296  -14.9498 C   0  0  0  0  0  0  0  0  0  0  0  0
   18.2008   -5.3792  -13.7594 O   0  0  0  0  0  0  0  0  0  0  0  0
   19.9526   -5.3099  -15.2364 N   0  0  0  0  0  0  0  0  0  0  0  0
   20.9367   -5.6492  -14.1831 C   0  0  1  0  0  0  0  0  0  0  0  0
   21.8162   -6.7215  -14.7252 C   0  0  0  0  0  0  0  0  0  0  0  0
   21.2321   -8.0987  -14.6459 C   0  0  0  0  0  0  0  0  0  0  0  0
   22.1245   -9.1594  -15.1241 C   0  0  0  0  0  0  0  0  0  0  0  0
   23.2945   -8.9089  -15.5024 O   0  0  0  0  0  0  0  0  0  0  0  0
   21.7063   -4.4040  -13.9259 C   0  0  0  0  0  0  0  0  0  0  0  0
   21.6946   -3.4565  -14.7553 O   0  0  0  0  0  0  0  0  0  0  0  0
   21.7305  -10.4944  -15.1861 O   0  0  0  0  0  0  0  0  0  0  0  0
   22.4680   -4.2122  -12.7807 O   0  0  0  0  0  0  0  0  0  0  0  0
  2  1  1  0
  2  3  1  0
  3 10  1  0
  3  4  2  0
  6  8  1  0
  6  5  1  6
  7  6  1  0
  9  8  1  1
 10  9  1  0
 11  9  1  0
 11 13  1  0
 12 11  2  0
 14 15  1  6
 14 13  1  0
 14 19  1  0
 16 15  1  0
 17 16  1  0
 18 17  2  0
 19 22  1  0
 20 19  2  0
 21 17  1  0
M  END
$$$$
