GLE.pdb
     RDKit          3D

 22 21  0  0  1  0  0  0  0  0999 V2000
   11.6543  -13.4706    4.1487 N   0  0  0  0  0  0  0  0  0  0  0  0
   12.8060  -13.0328    4.8926 C   0  0  0  0  0  0  0  0  0  0  0  0
   13.9804  -13.8984    4.7069 C   0  0  0  0  0  0  0  0  0  0  0  0
   13.8338  -14.9685    4.0447 O   0  0  0  0  0  0  0  0  0  0  0  0
   18.4637  -13.7376    2.7194 C   0  0  0  0  0  0  0  0  0  0  0  0
   18.1284  -12.9525    3.9321 C   0  0  2  0  0  0  0  0  0  0  0  0
   19.3772  -12.1464    4.3284 C   0  0  0  0  0  0  0  0  0  0  0  0
   17.7143  -13.6983    5.1382 C   0  0  0  0  0  0  0  0  0  0  0  0
   16.3979  -14.3823    5.1249 C   0  0  2  0  0  0  0  0  0  0  0  0
   15.2454  -13.5304    5.2635 N   0  0  0  0  0  0  0  0  0  0  0  0
   16.3488  -15.5431    6.0563 C   0  0  0  0  0  0  0  0  0  0  0  0
   16.0080  -15.3244    7.2432 O   0  0  0  0  0  0  0  0  0  0  0  0
   16.6617  -16.8765    5.6879 N   0  0  0  0  0  0  0  0  0  0  0  0
   16.5638  -17.9865    6.6634 C   0  0  1  0  0  0  0  0  0  0  0  0
   16.5367  -19.2579    5.8887 C   0  0  0  0  0  0  0  0  0  0  0  0
   16.4242  -20.4919    6.7305 C   0  0  0  0  0  0  0  0  0  0  0  0
   16.4431  -21.7443    5.9681 C   0  0  0  0  0  0  0  0  0  0  0  0
   16.5204  -21.7466    4.7156 O   0  0  0  0  0  0  0  0  0  0  0  0
   17.7845  -17.8988    7.5066 C   0  0  0  0  0  0  0  0  0  0  0  0
   17.7840  -18.3341    8.6882 O   0  0  0  0  0  0  0  0  0  0  0  0
   16.3771  -22.9930    6.5827 O   0  0  0  0  0  0  0  0  0  0  0  0
   18.9746  -17.3448    7.0535 O   0  0  0  0  0  0  0  0  0  0  0  0
  2  1  1  0
  2  3  1  0
  3 10  1  0
  3  4  2  0
  6  8  1  0
  6  5  1  6
  7  6  1  0
  9  8  1  1
 10  9  1  0
 11  9  1  0
 11 13  1  0
 12 11  2  0
 14 15  1  6
 14 13  1  0
 14 19  1  0
 16 15  1  0
 17 16  1  0
 18 17  2  0
 19 22  1  0
 20 19  2  0
 21 17  1  0
M  END
$$$$
