GLE.pdb
     RDKit          3D

 22 21  0  0  1  0  0  0  0  0999 V2000
   19.4344  -12.3767  -18.2343 N   0  0  0  0  0  0  0  0  0  0  0  0
   19.2305  -10.9683  -18.4501 C   0  0  0  0  0  0  0  0  0  0  0  0
   19.3118  -10.1740  -17.2151 C   0  0  0  0  0  0  0  0  0  0  0  0
   18.2768  -10.0935  -16.4888 O   0  0  0  0  0  0  0  0  0  0  0  0
   21.5181  -10.1301  -12.9482 C   0  0  0  0  0  0  0  0  0  0  0  0
   22.2764   -9.8647  -14.1948 C   0  0  2  0  0  0  0  0  0  0  0  0
   23.7574   -9.6940  -13.8149 C   0  0  0  0  0  0  0  0  0  0  0  0
   21.9075   -8.6687  -14.9796 C   0  0  0  0  0  0  0  0  0  0  0  0
   20.6077   -8.6701  -15.6947 C   0  0  2  0  0  0  0  0  0  0  0  0
   20.5303   -9.5168  -16.8567 N   0  0  0  0  0  0  0  0  0  0  0  0
   20.1080   -7.2950  -15.9722 C   0  0  0  0  0  0  0  0  0  0  0  0
   20.4887   -6.7384  -17.0294 O   0  0  0  0  0  0  0  0  0  0  0  0
   19.2312   -6.5767  -15.1196 N   0  0  0  0  0  0  0  0  0  0  0  0
   18.5735   -5.3283  -15.5692 C   0  0  1  0  0  0  0  0  0  0  0  0
   17.8094   -5.6489  -16.8063 C   0  0  0  0  0  0  0  0  0  0  0  0
   17.0093   -4.5060  -17.3519 C   0  0  0  0  0  0  0  0  0  0  0  0
   16.2939   -4.8115  -18.5950 C   0  0  0  0  0  0  0  0  0  0  0  0
   16.9000   -5.2185  -19.6155 O   0  0  0  0  0  0  0  0  0  0  0  0
   17.6625   -4.9258  -14.4659 C   0  0  0  0  0  0  0  0  0  0  0  0
   17.1066   -5.7923  -13.7410 O   0  0  0  0  0  0  0  0  0  0  0  0
   14.9130   -4.6693  -18.7153 O   0  0  0  0  0  0  0  0  0  0  0  0
   17.3754   -3.5992  -14.1724 O   0  0  0  0  0  0  0  0  0  0  0  0
  2  1  1  0
  2  3  1  0
  3 10  1  0
  3  4  2  0
  6  8  1  0
  6  5  1  1
  7  6  1  0
  9  8  1  6
 10  9  1  0
 11  9  1  0
 11 13  1  0
 12 11  2  0
 14 15  1  6
 14 13  1  0
 14 19  1  0
 16 15  1  0
 17 16  1  0
 18 17  2  0
 19 22  1  0
 20 19  2  0
 21 17  1  0
M  END
$$$$
