GLE.pdb
     RDKit          3D

 22 21  0  0  1  0  0  0  0  0999 V2000
   16.9359  -11.6193  -17.0282 N   0  0  0  0  0  0  0  0  0  0  0  0
   17.4907  -10.3538  -17.4309 C   0  0  0  0  0  0  0  0  0  0  0  0
   18.5286   -9.8571  -16.5148 C   0  0  0  0  0  0  0  0  0  0  0  0
   18.1611   -9.3770  -15.4015 O   0  0  0  0  0  0  0  0  0  0  0  0
   24.5505  -10.6398  -15.1396 C   0  0  0  0  0  0  0  0  0  0  0  0
   23.2690   -9.8985  -15.0514 C   0  0  2  0  0  0  0  0  0  0  0  0
   22.6951  -10.1210  -13.6416 C   0  0  0  0  0  0  0  0  0  0  0  0
   22.1978  -10.2668  -15.9997 C   0  0  0  0  0  0  0  0  0  0  0  0
   20.9424   -9.4765  -15.9843 C   0  0  2  0  0  0  0  0  0  0  0  0
   19.9089   -9.9204  -16.8833 N   0  0  0  0  0  0  0  0  0  0  0  0
   21.1888   -8.0123  -16.0972 C   0  0  0  0  0  0  0  0  0  0  0  0
   21.7039   -7.5877  -17.1588 O   0  0  0  0  0  0  0  0  0  0  0  0
   20.8790   -7.0698  -15.0836 N   0  0  0  0  0  0  0  0  0  0  0  0
   21.1958   -5.6325  -15.2478 C   0  0  1  0  0  0  0  0  0  0  0  0
   19.9217   -4.8765  -15.0983 C   0  0  0  0  0  0  0  0  0  0  0  0
   19.0809   -4.8317  -16.3373 C   0  0  0  0  0  0  0  0  0  0  0  0
   19.6374   -4.0045  -17.4126 C   0  0  0  0  0  0  0  0  0  0  0  0
   20.0786   -4.5162  -18.4700 O   0  0  0  0  0  0  0  0  0  0  0  0
   22.1490   -5.2968  -14.1580 C   0  0  0  0  0  0  0  0  0  0  0  0
   22.3744   -6.1122  -13.2253 O   0  0  0  0  0  0  0  0  0  0  0  0
   19.7083   -2.6157  -17.3250 O   0  0  0  0  0  0  0  0  0  0  0  0
   22.8353   -4.0908  -14.1026 O   0  0  0  0  0  0  0  0  0  0  0  0
  2  1  1  0
  2  3  1  0
  3 10  1  0
  3  4  2  0
  6  8  1  0
  6  5  1  6
  7  6  1  0
  9  8  1  6
 10  9  1  0
 11  9  1  0
 11 13  1  0
 12 11  2  0
 14 15  1  1
 14 13  1  0
 14 19  1  0
 16 15  1  0
 17 16  1  0
 18 17  2  0
 19 22  1  0
 20 19  2  0
 21 17  1  0
M  END
$$$$
