YCV.pdb
     RDKit          3D

 26 26  0  0  1  0  0  0  0  0999 V2000
   28.5291  -14.7636  -18.2092 O   0  0  0  0  0  0  0  0  0  0  0  0
   27.8992  -15.8347  -17.5957 C   0  0  0  0  0  0  0  0  0  0  0  0
   28.0379  -15.9767  -16.2482 C   0  0  0  0  0  0  0  0  0  0  0  0
   27.4147  -17.0409  -15.6241 C   0  0  0  0  0  0  0  0  0  0  0  0
   26.6676  -17.9398  -16.3533 C   0  0  0  0  0  0  0  0  0  0  0  0
   26.0148  -19.0685  -15.6443 C   0  0  0  0  0  0  0  0  0  0  0  0
   27.0970  -19.9440  -15.0544 C   0  0  2  0  0  0  0  0  0  0  0  0
   27.8692  -20.5897  -16.0904 N   0  0  0  0  0  0  0  0  0  0  0  0
   26.5547  -20.9482  -14.1184 C   0  0  0  0  0  0  0  0  0  0  0  0
   25.9790  -21.9643  -14.5569 O   0  0  0  0  0  0  0  0  0  0  0  0
   26.5289  -17.7939  -17.7157 C   0  0  0  0  0  0  0  0  0  0  0  0
   27.1594  -16.7211  -18.3327 C   0  0  0  0  0  0  0  0  0  0  0  0
   26.6933  -20.7482  -12.7326 N   0  0  0  0  0  0  0  0  0  0  0  0
   25.6513  -21.0436  -11.7809 C   0  0  1  0  0  0  0  0  0  0  0  0
   26.1199  -20.5746  -10.4124 C   0  0  0  0  0  0  0  0  0  0  0  0
   24.8615  -20.8822   -9.1655 S   0  0  0  0  0  0  0  0  0  0  0  0
   24.3742  -20.3709  -12.1157 C   0  0  0  0  0  0  0  0  0  0  0  0
   24.3803  -19.2196  -12.6213 O   0  0  0  0  0  0  0  0  0  0  0  0
   20.6418  -20.1313  -14.4712 C   0  0  0  0  0  0  0  0  0  0  0  0
   21.9170  -20.6521  -13.8877 C   0  0  2  0  0  0  0  0  0  0  0  0
   22.1897  -22.0837  -14.2924 C   0  0  0  0  0  0  0  0  0  0  0  0
   21.8626  -20.5104  -12.3641 C   0  0  2  0  0  0  0  0  0  0  0  0
   23.1368  -20.9991  -11.8778 N   0  0  0  0  0  0  0  0  0  0  0  0
   20.7930  -21.3570  -11.8152 C   0  0  0  0  0  0  0  0  0  0  0  0
   19.5559  -20.8191  -11.5436 O   0  0  0  0  0  0  0  0  0  0  0  0
   21.0012  -22.5676  -11.5926 O   0  0  0  0  0  0  0  0  0  0  0  0
  2  3  2  0
  2  1  1  0
  4  3  1  0
  5  4  2  0
  6  5  1  0
  7  6  1  0
  7  9  1  0
  7  8  1  6
  9 13  1  0
  9 10  2  0
 11  5  1  0
 11 12  2  0
 12  2  1  0
 13 14  1  0
 14 15  1  1
 15 16  1  0
 17 14  1  0
 17 18  2  0
 20 19  1  6
 20 22  1  0
 20 21  1  0
 22 23  1  1
 23 17  1  0
 24 22  1  0
 25 24  1  0
 26 24  2  0
M  END
$$$$
