YCV.pdb
     RDKit          3D

 26 26  0  0  1  0  0  0  0  0999 V2000
   27.3195  -19.7506   -5.2854 O   0  0  0  0  0  0  0  0  0  0  0  0
   26.9750  -19.7343   -6.6277 C   0  0  0  0  0  0  0  0  0  0  0  0
   27.3801  -18.6756   -7.3829 C   0  0  0  0  0  0  0  0  0  0  0  0
   27.0430  -18.6473   -8.7230 C   0  0  0  0  0  0  0  0  0  0  0  0
   26.3110  -19.6716   -9.2823 C   0  0  0  0  0  0  0  0  0  0  0  0
   25.9702  -19.6022  -10.7251 C   0  0  0  0  0  0  0  0  0  0  0  0
   26.1241  -20.9865  -11.3132 C   0  0  2  0  0  0  0  0  0  0  0  0
   27.5162  -21.3565  -11.4213 N   0  0  0  0  0  0  0  0  0  0  0  0
   25.4569  -21.1139  -12.6236 C   0  0  0  0  0  0  0  0  0  0  0  0
   26.0035  -20.6615  -13.6497 O   0  0  0  0  0  0  0  0  0  0  0  0
   25.9027  -20.7408   -8.5164 C   0  0  0  0  0  0  0  0  0  0  0  0
   26.2468  -20.7594   -7.1709 C   0  0  0  0  0  0  0  0  0  0  0  0
   24.2035  -21.7482  -12.7029 N   0  0  0  0  0  0  0  0  0  0  0  0
   23.4993  -21.9602  -13.9431 C   0  0  1  0  0  0  0  0  0  0  0  0
   23.1260  -23.4320  -14.0243 C   0  0  0  0  0  0  0  0  0  0  0  0
   24.5973  -24.4603  -14.1273 S   0  0  0  0  0  0  0  0  0  0  0  0
   22.2696  -21.1393  -14.0410 C   0  0  0  0  0  0  0  0  0  0  0  0
   21.5825  -20.9060  -13.0140 O   0  0  0  0  0  0  0  0  0  0  0  0
   21.1535  -19.8915  -17.8640 C   0  0  0  0  0  0  0  0  0  0  0  0
   20.9142  -18.9635  -16.7153 C   0  0  2  0  0  0  0  0  0  0  0  0
   22.0573  -17.9937  -16.5145 C   0  0  0  0  0  0  0  0  0  0  0  0
   20.6633  -19.7898  -15.4508 C   0  0  2  0  0  0  0  0  0  0  0  0
   21.8464  -20.6069  -15.2738 N   0  0  0  0  0  0  0  0  0  0  0  0
   19.5050  -20.6742  -15.6460 C   0  0  0  0  0  0  0  0  0  0  0  0
   18.2311  -20.2054  -15.4204 O   0  0  0  0  0  0  0  0  0  0  0  0
   19.6708  -21.8546  -16.0171 O   0  0  0  0  0  0  0  0  0  0  0  0
  2  3  2  0
  2  1  1  0
  4  3  1  0
  5  4  2  0
  6  5  1  0
  7  6  1  0
  7  9  1  0
  7  8  1  6
  9 13  1  0
  9 10  2  0
 11  5  1  0
 11 12  2  0
 12  2  1  0
 13 14  1  0
 14 15  1  1
 15 16  1  0
 17 14  1  0
 17 18  2  0
 20 19  1  6
 20 22  1  0
 20 21  1  0
 22 23  1  6
 23 17  1  0
 24 22  1  0
 25 24  1  0
 26 24  2  0
M  END
$$$$
