YCV.pdb
     RDKit          3D

 26 26  0  0  1  0  0  0  0  0999 V2000
   22.7930  -15.0690  -17.6288 O   0  0  0  0  0  0  0  0  0  0  0  0
   23.2377  -16.3734  -17.4826 C   0  0  0  0  0  0  0  0  0  0  0  0
   23.4683  -17.1044  -18.6085 C   0  0  0  0  0  0  0  0  0  0  0  0
   23.9121  -18.4066  -18.4764 C   0  0  0  0  0  0  0  0  0  0  0  0
   24.1167  -18.9531  -17.2283 C   0  0  0  0  0  0  0  0  0  0  0  0
   24.5938  -20.3551  -17.1309 C   0  0  0  0  0  0  0  0  0  0  0  0
   26.1036  -20.3459  -17.2079 C   0  0  2  0  0  0  0  0  0  0  0  0
   26.5714  -21.0506  -18.3789 N   0  0  0  0  0  0  0  0  0  0  0  0
   26.7283  -20.9020  -15.9918 C   0  0  0  0  0  0  0  0  0  0  0  0
   26.5686  -22.1046  -15.7013 O   0  0  0  0  0  0  0  0  0  0  0  0
   23.8828  -18.2117  -16.0916 C   0  0  0  0  0  0  0  0  0  0  0  0
   23.4370  -16.9042  -16.2357 C   0  0  0  0  0  0  0  0  0  0  0  0
   27.5023  -20.0650  -15.1671 N   0  0  0  0  0  0  0  0  0  0  0  0
   27.9031  -20.4216  -13.8288 C   0  0  1  0  0  0  0  0  0  0  0  0
   29.2943  -19.8561  -13.5899 C   0  0  0  0  0  0  0  0  0  0  0  0
   29.7759  -20.0486  -11.8683 S   0  0  0  0  0  0  0  0  0  0  0  0
   26.9774  -19.8886  -12.8019 C   0  0  0  0  0  0  0  0  0  0  0  0
   26.6374  -18.6782  -12.8252 O   0  0  0  0  0  0  0  0  0  0  0  0
   23.2491  -20.3511   -9.9862 C   0  0  0  0  0  0  0  0  0  0  0  0
   24.2181  -20.8425  -11.0145 C   0  0  2  0  0  0  0  0  0  0  0  0
   24.2653  -22.3527  -11.0819 C   0  0  0  0  0  0  0  0  0  0  0  0
   25.6020  -20.2603  -10.7139 C   0  0  2  0  0  0  0  0  0  0  0  0
   26.4622  -20.7168  -11.7865 N   0  0  0  0  0  0  0  0  0  0  0  0
   26.1106  -20.7952   -9.4422 C   0  0  0  0  0  0  0  0  0  0  0  0
   25.7844  -20.1823   -8.2543 O   0  0  0  0  0  0  0  0  0  0  0  0
   26.8407  -21.8078   -9.4333 O   0  0  0  0  0  0  0  0  0  0  0  0
  2  3  2  0
  2  1  1  0
  4  3  1  0
  5  4  2  0
  6  5  1  0
  7  6  1  0
  7  9  1  0
  7  8  1  6
  9 13  1  0
  9 10  2  0
 11  5  1  0
 11 12  2  0
 12  2  1  0
 13 14  1  0
 14 15  1  1
 15 16  1  0
 17 14  1  0
 17 18  2  0
 20 19  1  1
 20 22  1  0
 20 21  1  0
 22 23  1  6
 23 17  1  0
 24 22  1  0
 25 24  1  0
 26 24  2  0
M  END
$$$$
