YCV.pdb
     RDKit          3D

 26 26  0  0  1  0  0  0  0  0999 V2000
   25.3510  -16.2291  -20.7351 O   0  0  0  0  0  0  0  0  0  0  0  0
   24.6295  -17.1465  -19.9877 C   0  0  0  0  0  0  0  0  0  0  0  0
   23.8571  -16.6796  -18.9676 C   0  0  0  0  0  0  0  0  0  0  0  0
   23.1326  -17.5842  -18.2146 C   0  0  0  0  0  0  0  0  0  0  0  0
   23.1920  -18.9323  -18.4923 C   0  0  0  0  0  0  0  0  0  0  0  0
   22.3984  -19.8698  -17.6593 C   0  0  0  0  0  0  0  0  0  0  0  0
   23.1315  -20.0768  -16.3534 C   0  0  2  0  0  0  0  0  0  0  0  0
   24.4320  -20.6663  -16.5720 N   0  0  0  0  0  0  0  0  0  0  0  0
   22.3538  -20.8911  -15.3992 C   0  0  0  0  0  0  0  0  0  0  0  0
   22.2375  -22.1204  -15.5766 O   0  0  0  0  0  0  0  0  0  0  0  0
   23.9739  -19.4016  -19.5243 C   0  0  0  0  0  0  0  0  0  0  0  0
   24.6978  -18.4841  -20.2747 C   0  0  0  0  0  0  0  0  0  0  0  0
   21.7476  -20.2690  -14.2923 N   0  0  0  0  0  0  0  0  0  0  0  0
   20.9564  -20.9794  -13.3186 C   0  0  1  0  0  0  0  0  0  0  0  0
   21.0540  -20.2304  -11.9989 C   0  0  0  0  0  0  0  0  0  0  0  0
   20.1464  -21.0903  -10.7068 S   0  0  0  0  0  0  0  0  0  0  0  0
   19.5327  -21.0834  -13.7160 C   0  0  0  0  0  0  0  0  0  0  0  0
   18.9250  -20.0750  -14.1578 O   0  0  0  0  0  0  0  0  0  0  0  0
   18.4460  -24.0730  -15.6854 C   0  0  0  0  0  0  0  0  0  0  0  0
   17.4222  -23.9336  -14.6035 C   0  0  2  0  0  0  0  0  0  0  0  0
   16.0314  -24.2861  -15.0820 C   0  0  0  0  0  0  0  0  0  0  0  0
   17.4705  -22.5059  -14.0524 C   0  0  2  0  0  0  0  0  0  0  0  0
   18.8346  -22.3014  -13.6091 N   0  0  0  0  0  0  0  0  0  0  0  0
   16.5748  -22.3805  -12.8930 C   0  0  0  0  0  0  0  0  0  0  0  0
   15.3849  -21.6993  -13.0088 O   0  0  0  0  0  0  0  0  0  0  0  0
   16.8888  -22.8912  -11.7979 O   0  0  0  0  0  0  0  0  0  0  0  0
  2  3  2  0
  2  1  1  0
  4  3  1  0
  5  4  2  0
  6  5  1  0
  7  6  1  0
  7  9  1  0
  7  8  1  6
  9 13  1  0
  9 10  2  0
 11  5  1  0
 11 12  2  0
 12  2  1  0
 13 14  1  0
 14 15  1  1
 15 16  1  0
 17 14  1  0
 17 18  2  0
 20 19  1  6
 20 22  1  0
 20 21  1  0
 22 23  1  1
 23 17  1  0
 24 22  1  0
 25 24  1  0
 26 24  2  0
M  END
$$$$
