YCV.pdb
     RDKit          3D

 26 26  0  0  1  0  0  0  0  0999 V2000
   18.9212  -22.1118  -11.8610 O   0  0  0  0  0  0  0  0  0  0  0  0
   18.5175  -22.7804  -10.7162 C   0  0  0  0  0  0  0  0  0  0  0  0
   17.2408  -23.2520  -10.6631 C   0  0  0  0  0  0  0  0  0  0  0  0
   16.8257  -23.9205   -9.5269 C   0  0  0  0  0  0  0  0  0  0  0  0
   17.6888  -24.1053   -8.4691 C   0  0  0  0  0  0  0  0  0  0  0  0
   17.2029  -24.8287   -7.2677 C   0  0  0  0  0  0  0  0  0  0  0  0
   17.9466  -26.1418   -7.1749 C   0  0  2  0  0  0  0  0  0  0  0  0
   17.7379  -26.9451   -8.3571 N   0  0  0  0  0  0  0  0  0  0  0  0
   17.5824  -26.9057   -5.9657 C   0  0  0  0  0  0  0  0  0  0  0  0
   16.5726  -27.6381   -5.9698 O   0  0  0  0  0  0  0  0  0  0  0  0
   18.9791  -23.6274   -8.5254 C   0  0  0  0  0  0  0  0  0  0  0  0
   19.3859  -22.9571   -9.6718 C   0  0  0  0  0  0  0  0  0  0  0  0
   18.3826  -26.7995   -4.8133 N   0  0  0  0  0  0  0  0  0  0  0  0
   18.1091  -27.5115   -3.5898 C   0  0  1  0  0  0  0  0  0  0  0  0
   19.2029  -28.5502   -3.3974 C   0  0  0  0  0  0  0  0  0  0  0  0
   18.9818  -29.4321   -1.8463 S   0  0  0  0  0  0  0  0  0  0  0  0
   18.0756  -26.6148   -2.4107 C   0  0  0  0  0  0  0  0  0  0  0  0
   19.0360  -25.8361   -2.1818 O   0  0  0  0  0  0  0  0  0  0  0  0
   14.8291  -27.0201    0.2053 C   0  0  0  0  0  0  0  0  0  0  0  0
   15.3459  -25.6489   -0.0961 C   0  0  2  0  0  0  0  0  0  0  0  0
   14.6066  -24.9975   -1.2435 C   0  0  0  0  0  0  0  0  0  0  0  0
   16.8471  -25.7342   -0.3846 C   0  0  2  0  0  0  0  0  0  0  0  0
   16.9785  -26.6140   -1.5281 N   0  0  0  0  0  0  0  0  0  0  0  0
   17.5484  -26.3387    0.7577 C   0  0  0  0  0  0  0  0  0  0  0  0
   17.9019  -27.6682    0.7274 O   0  0  0  0  0  0  0  0  0  0  0  0
   17.8267  -25.6494    1.7608 O   0  0  0  0  0  0  0  0  0  0  0  0
  2  3  2  0
  2  1  1  0
  4  3  1  0
  5  4  2  0
  6  5  1  0
  7  6  1  0
  7  9  1  0
  7  8  1  6
  9 13  1  0
  9 10  2  0
 11  5  1  0
 11 12  2  0
 12  2  1  0
 13 14  1  0
 14 15  1  1
 15 16  1  0
 17 14  1  0
 17 18  2  0
 20 19  1  6
 20 22  1  0
 20 21  1  0
 22 23  1  6
 23 17  1  0
 24 22  1  0
 25 24  1  0
 26 24  2  0
M  END
$$$$
