YCV.pdb
     RDKit          3D

 26 26  0  0  1  0  0  0  0  0999 V2000
   20.8378  -15.7204  -18.1145 O   0  0  0  0  0  0  0  0  0  0  0  0
   21.0819  -16.7042  -17.1695 C   0  0  0  0  0  0  0  0  0  0  0  0
   20.9962  -18.0064  -17.5596 C   0  0  0  0  0  0  0  0  0  0  0  0
   21.2373  -18.9972  -16.6267 C   0  0  0  0  0  0  0  0  0  0  0  0
   21.5583  -18.6716  -15.3271 C   0  0  0  0  0  0  0  0  0  0  0  0
   21.8097  -19.7661  -14.3568 C   0  0  0  0  0  0  0  0  0  0  0  0
   23.2980  -19.8366  -14.1005 C   0  0  2  0  0  0  0  0  0  0  0  0
   24.0039  -20.3398  -15.2560 N   0  0  0  0  0  0  0  0  0  0  0  0
   23.6220  -20.6462  -12.9097 C   0  0  0  0  0  0  0  0  0  0  0  0
   23.4979  -21.8870  -12.9450 O   0  0  0  0  0  0  0  0  0  0  0  0
   21.6443  -17.3541  -14.9353 C   0  0  0  0  0  0  0  0  0  0  0  0
   21.4000  -16.3664  -15.8807 C   0  0  0  0  0  0  0  0  0  0  0  0
   24.0703  -20.0065  -11.7394 N   0  0  0  0  0  0  0  0  0  0  0  0
   24.1515  -20.6633  -10.4584 C   0  0  1  0  0  0  0  0  0  0  0  0
   25.3902  -20.1458   -9.7442 C   0  0  0  0  0  0  0  0  0  0  0  0
   25.5095  -20.8371   -8.0887 S   0  0  0  0  0  0  0  0  0  0  0  0
   22.9600  -20.4060   -9.6161 C   0  0  0  0  0  0  0  0  0  0  0  0
   22.4410  -19.2609   -9.5889 O   0  0  0  0  0  0  0  0  0  0  0  0
   20.0367  -22.7704   -9.5762 C   0  0  0  0  0  0  0  0  0  0  0  0
   20.0144  -21.4050   -8.9653 C   0  0  2  0  0  0  0  0  0  0  0  0
   20.0203  -20.3102  -10.0088 C   0  0  0  0  0  0  0  0  0  0  0  0
   21.2050  -21.2655   -8.0127 C   0  0  2  0  0  0  0  0  0  0  0  0
   22.3872  -21.4274   -8.8344 N   0  0  0  0  0  0  0  0  0  0  0  0
   21.1784  -22.3397   -7.0090 C   0  0  0  0  0  0  0  0  0  0  0  0
   22.0345  -23.4112   -7.1199 O   0  0  0  0  0  0  0  0  0  0  0  0
   20.3795  -22.2854   -6.0512 O   0  0  0  0  0  0  0  0  0  0  0  0
  2  3  2  0
  2  1  1  0
  4  3  1  0
  5  4  2  0
  6  5  1  0
  7  6  1  0
  7  9  1  0
  7  8  1  6
  9 13  1  0
  9 10  2  0
 11  5  1  0
 11 12  2  0
 12  2  1  0
 13 14  1  0
 14 15  1  1
 15 16  1  0
 17 14  1  0
 17 18  2  0
 20 19  1  6
 20 22  1  0
 20 21  1  0
 22 23  1  6
 23 17  1  0
 24 22  1  0
 25 24  1  0
 26 24  2  0
M  END
$$$$
