YCV.pdb
     RDKit          3D

 26 26  0  0  1  0  0  0  0  0999 V2000
   28.5073  -18.5668   -3.0636 O   0  0  0  0  0  0  0  0  0  0  0  0
   28.2598  -19.1336   -4.3038 C   0  0  0  0  0  0  0  0  0  0  0  0
   27.9634  -18.3039   -5.3425 C   0  0  0  0  0  0  0  0  0  0  0  0
   27.7145  -18.8566   -6.5846 C   0  0  0  0  0  0  0  0  0  0  0  0
   27.7657  -20.2213   -6.7664 C   0  0  0  0  0  0  0  0  0  0  0  0
   27.4918  -20.7738   -8.1164 C   0  0  0  0  0  0  0  0  0  0  0  0
   26.0313  -20.5444   -8.4325 C   0  0  2  0  0  0  0  0  0  0  0  0
   25.1792  -21.1661   -7.4455 N   0  0  0  0  0  0  0  0  0  0  0  0
   25.6727  -21.0115   -9.7859 C   0  0  0  0  0  0  0  0  0  0  0  0
   25.7793  -22.2194  -10.0787 O   0  0  0  0  0  0  0  0  0  0  0  0
   28.0655  -21.0578   -5.7143 C   0  0  0  0  0  0  0  0  0  0  0  0
   28.3140  -20.4920   -4.4704 C   0  0  0  0  0  0  0  0  0  0  0  0
   25.2114  -20.0840  -10.7381 N   0  0  0  0  0  0  0  0  0  0  0  0
   24.9646  -20.4209  -12.1181 C   0  0  1  0  0  0  0  0  0  0  0  0
   23.5119  -20.8525  -12.2425 C   0  0  0  0  0  0  0  0  0  0  0  0
   22.5028  -20.0751  -10.9737 S   0  0  0  0  0  0  0  0  0  0  0  0
   25.2141  -19.2804  -13.0305 C   0  0  0  0  0  0  0  0  0  0  0  0
   24.8094  -18.1290  -12.7276 O   0  0  0  0  0  0  0  0  0  0  0  0
   28.5813  -18.7960  -14.2898 C   0  0  0  0  0  0  0  0  0  0  0  0
   27.7479  -18.6816  -15.5269 C   0  0  2  0  0  0  0  0  0  0  0  0
   28.2794  -17.6354  -16.4811 C   0  0  0  0  0  0  0  0  0  0  0  0
   26.3011  -18.3793  -15.1271 C   0  0  2  0  0  0  0  0  0  0  0  0
   25.9031  -19.4578  -14.2455 N   0  0  0  0  0  0  0  0  0  0  0  0
   25.4339  -18.3972  -16.3144 C   0  0  0  0  0  0  0  0  0  0  0  0
   25.0062  -17.2163  -16.8764 O   0  0  0  0  0  0  0  0  0  0  0  0
   25.0810  -19.4833  -16.8188 O   0  0  0  0  0  0  0  0  0  0  0  0
  2  3  2  0
  2  1  1  0
  4  3  1  0
  5  4  2  0
  6  5  1  0
  7  6  1  0
  7  9  1  0
  7  8  1  1
  9 13  1  0
  9 10  2  0
 11  5  1  0
 11 12  2  0
 12  2  1  0
 13 14  1  0
 14 15  1  1
 15 16  1  0
 17 14  1  0
 17 18  2  0
 20 19  1  1
 20 22  1  0
 20 21  1  0
 22 23  1  1
 23 17  1  0
 24 22  1  0
 25 24  1  0
 26 24  2  0
M  END
$$$$
