YCV.pdb
     RDKit          3D

 26 26  0  0  1  0  0  0  0  0999 V2000
   19.9733  -16.6727  -21.8336 O   0  0  0  0  0  0  0  0  0  0  0  0
   19.9530  -15.6853  -20.8613 C   0  0  0  0  0  0  0  0  0  0  0  0
   20.1332  -16.0568  -19.5634 C   0  0  0  0  0  0  0  0  0  0  0  0
   20.1151  -15.0817  -18.5841 C   0  0  0  0  0  0  0  0  0  0  0  0
   19.9183  -13.7593  -18.9168 C   0  0  0  0  0  0  0  0  0  0  0  0
   19.9060  -12.7438  -17.8345 C   0  0  0  0  0  0  0  0  0  0  0  0
   21.2482  -12.0480  -17.8253 C   0  0  2  0  0  0  0  0  0  0  0  0
   22.3070  -12.9601  -17.4597 N   0  0  0  0  0  0  0  0  0  0  0  0
   21.2595  -10.8681  -16.9388 C   0  0  0  0  0  0  0  0  0  0  0  0
   21.2896  -11.0171  -15.7006 O   0  0  0  0  0  0  0  0  0  0  0  0
   19.7364  -13.3865  -20.2300 C   0  0  0  0  0  0  0  0  0  0  0  0
   19.7564  -14.3743  -21.2061 C   0  0  0  0  0  0  0  0  0  0  0  0
   21.2362   -9.5791  -17.5024 N   0  0  0  0  0  0  0  0  0  0  0  0
   21.2570   -8.3700  -16.7172 C   0  0  1  0  0  0  0  0  0  0  0  0
   22.5241   -7.6057  -17.0672 C   0  0  0  0  0  0  0  0  0  0  0  0
   23.9768   -8.4466  -16.4229 S   0  0  0  0  0  0  0  0  0  0  0  0
   20.0802   -7.5080  -16.9775 C   0  0  0  0  0  0  0  0  0  0  0  0
   19.7534   -7.2250  -18.1583 O   0  0  0  0  0  0  0  0  0  0  0  0
   16.6793   -8.0295  -16.2591 C   0  0  0  0  0  0  0  0  0  0  0  0
   16.9841   -6.7999  -15.4634 C   0  0  2  0  0  0  0  0  0  0  0  0
   15.7939   -5.8719  -15.3645 C   0  0  0  0  0  0  0  0  0  0  0  0
   18.1880   -6.0883  -16.0868 C   0  0  2  0  0  0  0  0  0  0  0  0
   19.3086   -6.9912  -15.9193 N   0  0  0  0  0  0  0  0  0  0  0  0
   18.4731   -4.8435  -15.3580 C   0  0  0  0  0  0  0  0  0  0  0  0
   19.2215   -4.8737  -14.2038 O   0  0  0  0  0  0  0  0  0  0  0  0
   18.0380   -3.7529  -15.7822 O   0  0  0  0  0  0  0  0  0  0  0  0
  2  3  2  0
  2  1  1  0
  4  3  1  0
  5  4  2  0
  6  5  1  0
  7  6  1  0
  7  9  1  0
  7  8  1  1
  9 13  1  0
  9 10  2  0
 11  5  1  0
 11 12  2  0
 12  2  1  0
 13 14  1  0
 14 15  1  6
 15 16  1  0
 17 14  1  0
 17 18  2  0
 20 19  1  6
 20 22  1  0
 20 21  1  0
 22 23  1  1
 23 17  1  0
 24 22  1  0
 25 24  1  0
 26 24  2  0
M  END
$$$$
