YCV.pdb
     RDKit          3D

 26 26  0  0  1  0  0  0  0  0999 V2000
   26.3740  -26.7346  -16.2474 O   0  0  0  0  0  0  0  0  0  0  0  0
   26.0735  -25.4103  -15.9706 C   0  0  0  0  0  0  0  0  0  0  0  0
   26.1969  -24.4991  -16.9754 C   0  0  0  0  0  0  0  0  0  0  0  0
   25.9003  -23.1751  -16.7124 C   0  0  0  0  0  0  0  0  0  0  0  0
   25.4877  -22.7865  -15.4567 C   0  0  0  0  0  0  0  0  0  0  0  0
   25.1791  -21.3548  -15.2166 C   0  0  0  0  0  0  0  0  0  0  0  0
   26.3876  -20.5385  -15.6154 C   0  0  2  0  0  0  0  0  0  0  0  0
   27.5029  -20.7908  -14.7328 N   0  0  0  0  0  0  0  0  0  0  0  0
   26.0927  -19.0932  -15.6681 C   0  0  0  0  0  0  0  0  0  0  0  0
   26.0305  -18.4294  -14.6137 O   0  0  0  0  0  0  0  0  0  0  0  0
   25.3638  -23.7099  -14.4425 C   0  0  0  0  0  0  0  0  0  0  0  0
   25.6644  -25.0377  -14.7176 C   0  0  0  0  0  0  0  0  0  0  0  0
   25.8834  -18.4749  -16.9145 N   0  0  0  0  0  0  0  0  0  0  0  0
   25.4852  -17.0968  -17.0588 C   0  0  1  0  0  0  0  0  0  0  0  0
   26.4058  -16.4475  -18.0802 C   0  0  0  0  0  0  0  0  0  0  0  0
   28.1293  -16.7786  -17.6895 S   0  0  0  0  0  0  0  0  0  0  0  0
   24.0810  -16.9598  -17.5117 C   0  0  0  0  0  0  0  0  0  0  0  0
   23.6595  -17.6448  -18.4783 O   0  0  0  0  0  0  0  0  0  0  0  0
   21.2318  -17.5227  -15.4607 C   0  0  0  0  0  0  0  0  0  0  0  0
   21.0133  -16.1213  -15.9366 C   0  0  2  0  0  0  0  0  0  0  0  0
   19.5473  -15.8041  -16.1306 C   0  0  0  0  0  0  0  0  0  0  0  0
   21.8003  -15.9065  -17.2323 C   0  0  2  0  0  0  0  0  0  0  0  0
   23.1953  -16.0684  -16.8766 N   0  0  0  0  0  0  0  0  0  0  0  0
   21.5964  -14.5368  -17.7269 C   0  0  0  0  0  0  0  0  0  0  0  0
   22.2812  -13.4872  -17.1589 O   0  0  0  0  0  0  0  0  0  0  0  0
   20.8012  -14.3189  -18.6644 O   0  0  0  0  0  0  0  0  0  0  0  0
  2  3  2  0
  2  1  1  0
  4  3  1  0
  5  4  2  0
  6  5  1  0
  7  6  1  0
  7  9  1  0
  7  8  1  1
  9 13  1  0
  9 10  2  0
 11  5  1  0
 11 12  2  0
 12  2  1  0
 13 14  1  0
 14 15  1  6
 15 16  1  0
 17 14  1  0
 17 18  2  0
 20 19  1  6
 20 22  1  0
 20 21  1  0
 22 23  1  1
 23 17  1  0
 24 22  1  0
 25 24  1  0
 26 24  2  0
M  END
$$$$
