TCM.pdb
     RDKit          3D

 22 21  0  0  1  0  0  0  0  0999 V2000
   24.7725  -21.6186  -17.9836 C   0  0  0  0  0  0  0  0  0  0  0  0
   26.1224  -21.0361  -17.6586 C   0  0  1  0  0  0  0  0  0  0  0  0
   27.0375  -21.4552  -18.6341 O   0  0  0  0  0  0  0  0  0  0  0  0
   26.0338  -19.5140  -17.6614 C   0  0  2  0  0  0  0  0  0  0  0  0
   27.3630  -18.9518  -17.4986 N   0  0  0  0  0  0  0  0  0  0  0  0
   25.0477  -19.0319  -16.6825 C   0  0  0  0  0  0  0  0  0  0  0  0
   25.4139  -18.9193  -15.4506 O   0  0  0  0  0  0  0  0  0  0  0  0
   23.7069  -18.6661  -16.9279 N   0  0  0  0  0  0  0  0  0  0  0  0
   22.7923  -18.3111  -15.8508 C   0  0  1  0  0  0  0  0  0  0  0  0
   22.0452  -17.0119  -16.2079 C   0  0  0  0  0  0  0  0  0  0  0  0
   20.6900  -16.7361  -15.0370 S   0  0  0  0  0  0  0  0  0  0  0  0
   21.8827  -19.3798  -15.4493 C   0  0  0  0  0  0  0  0  0  0  0  0
   21.3212  -20.1058  -16.3392 O   0  0  0  0  0  0  0  0  0  0  0  0
   19.2475  -24.4725   -9.9101 C   0  0  0  0  0  0  0  0  0  0  0  0
   20.1715  -23.0146  -10.3213 S   0  0  0  0  0  0  0  0  0  0  0  0
   19.9363  -22.3980  -11.9946 C   0  0  0  0  0  0  0  0  0  0  0  0
   20.8049  -21.2356  -12.3607 C   0  0  0  0  0  0  0  0  0  0  0  0
   20.6659  -20.8496  -13.7796 C   0  0  2  0  0  0  0  0  0  0  0  0
   21.5495  -19.7060  -14.1104 N   0  0  0  0  0  0  0  0  0  0  0  0
   19.2705  -20.4619  -14.0728 C   0  0  0  0  0  0  0  0  0  0  0  0
   18.4188  -21.4405  -14.6580 O   0  0  0  0  0  0  0  0  0  0  0  0
   18.7657  -19.3637  -13.8577 O   0  0  0  0  0  0  0  0  0  0  0  0
  2  4  1  0
  2  1  1  6
  3  2  1  0
  4  5  1  1
  6  4  1  0
  7  6  2  0
  8  6  1  0
  9  8  1  0
  9 12  1  0
  9 10  1  6
 11 10  1  0
 12 19  1  0
 13 12  2  0
 15 14  1  0
 16 17  1  0
 16 15  1  0
 18 17  1  1
 19 18  1  0
 20 18  1  0
 20 21  1  0
 22 20  2  0
M  END
$$$$
