TCM.pdb
     RDKit          3D

 22 21  0  0  1  0  0  0  0  0999 V2000
   13.0527  -10.3469  -12.2214 C   0  0  0  0  0  0  0  0  0  0  0  0
   13.4760  -10.5338  -10.7885 C   0  0  1  0  0  0  0  0  0  0  0  0
   13.1811  -11.8485  -10.4025 O   0  0  0  0  0  0  0  0  0  0  0  0
   14.9759  -10.2891  -10.6650 C   0  0  2  0  0  0  0  0  0  0  0  0
   15.4956  -11.0334   -9.5313 N   0  0  0  0  0  0  0  0  0  0  0  0
   15.2848   -8.8515  -10.6393 C   0  0  0  0  0  0  0  0  0  0  0  0
   15.1445   -8.1764  -11.7297 O   0  0  0  0  0  0  0  0  0  0  0  0
   15.7314   -8.0919   -9.5368 N   0  0  0  0  0  0  0  0  0  0  0  0
   16.0244   -6.6689   -9.6453 C   0  0  1  0  0  0  0  0  0  0  0  0
   15.4893   -5.9300   -8.4040 C   0  0  0  0  0  0  0  0  0  0  0  0
   13.7387   -6.3265   -8.1551 S   0  0  0  0  0  0  0  0  0  0  0  0
   17.4245   -6.3559   -9.9147 C   0  0  0  0  0  0  0  0  0  0  0  0
   18.3329   -6.7570   -9.1096 O   0  0  0  0  0  0  0  0  0  0  0  0
   22.9910   -9.1933  -13.6729 C   0  0  0  0  0  0  0  0  0  0  0  0
   21.3264   -8.9575  -13.1054 S   0  0  0  0  0  0  0  0  0  0  0  0
   20.9248   -7.2902  -12.5629 C   0  0  0  0  0  0  0  0  0  0  0  0
   19.5677   -7.1419  -11.9497 C   0  0  0  0  0  0  0  0  0  0  0  0
   19.2849   -5.7546  -11.5290 C   0  0  2  0  0  0  0  0  0  0  0  0
   17.8946   -5.6207  -11.0321 N   0  0  0  0  0  0  0  0  0  0  0  0
   19.4672   -4.8258  -12.6636 C   0  0  0  0  0  0  0  0  0  0  0  0
   20.7140   -4.1483  -12.7731 O   0  0  0  0  0  0  0  0  0  0  0  0
   18.6378   -4.5778  -13.5342 O   0  0  0  0  0  0  0  0  0  0  0  0
  2  4  1  0
  2  1  1  6
  3  2  1  0
  4  5  1  1
  6  4  1  0
  7  6  2  0
  8  6  1  0
  9  8  1  0
  9 12  1  0
  9 10  1  1
 11 10  1  0
 12 19  1  0
 13 12  2  0
 15 14  1  0
 16 17  1  0
 16 15  1  0
 18 17  1  6
 19 18  1  0
 20 18  1  0
 20 21  1  0
 22 20  2  0
M  END
$$$$
