TCM.pdb
     RDKit          3D

 22 21  0  0  1  0  0  0  0  0999 V2000
   19.8435  -19.7920  -13.4702 C   0  0  0  0  0  0  0  0  0  0  0  0
   20.8383  -19.9876  -14.5834 C   0  0  1  0  0  0  0  0  0  0  0  0
   20.3158  -19.4228  -15.7550 O   0  0  0  0  0  0  0  0  0  0  0  0
   22.1481  -19.2956  -14.2227 C   0  0  2  0  0  0  0  0  0  0  0  0
   22.9408  -19.1038  -15.4244 N   0  0  0  0  0  0  0  0  0  0  0  0
   22.8490  -20.0037  -13.1409 C   0  0  0  0  0  0  0  0  0  0  0  0
   22.2013  -20.2534  -12.0535 O   0  0  0  0  0  0  0  0  0  0  0  0
   24.1851  -20.4585  -13.1411 N   0  0  0  0  0  0  0  0  0  0  0  0
   24.7440  -21.2179  -12.0304 C   0  0  1  0  0  0  0  0  0  0  0  0
   25.2712  -22.5734  -12.5383 C   0  0  0  0  0  0  0  0  0  0  0  0
   26.2986  -22.3253  -14.0103 S   0  0  0  0  0  0  0  0  0  0  0  0
   25.7392  -20.4975  -11.2420 C   0  0  0  0  0  0  0  0  0  0  0  0
   26.5168  -19.6580  -11.8118 O   0  0  0  0  0  0  0  0  0  0  0  0
   29.4459  -19.9873   -4.2616 C   0  0  0  0  0  0  0  0  0  0  0  0
   27.9683  -19.5930   -5.1614 S   0  0  0  0  0  0  0  0  0  0  0  0
   28.1324  -19.5926   -6.9527 C   0  0  0  0  0  0  0  0  0  0  0  0
   26.9093  -20.0351   -7.6928 C   0  0  0  0  0  0  0  0  0  0  0  0
   27.1149  -20.0731   -9.1549 C   0  0  2  0  0  0  0  0  0  0  0  0
   25.9334  -20.6436   -9.8452 N   0  0  0  0  0  0  0  0  0  0  0  0
   28.2941  -20.8991   -9.4871 C   0  0  0  0  0  0  0  0  0  0  0  0
   29.5382  -20.2342   -9.6764 O   0  0  0  0  0  0  0  0  0  0  0  0
   28.3072  -22.1198   -9.6172 O   0  0  0  0  0  0  0  0  0  0  0  0
  2  4  1  0
  2  1  1  1
  3  2  1  0
  4  5  1  6
  6  4  1  0
  7  6  2  0
  8  6  1  0
  9  8  1  0
  9 12  1  0
  9 10  1  6
 11 10  1  0
 12 19  1  0
 13 12  2  0
 15 14  1  0
 16 17  1  0
 16 15  1  0
 18 17  1  1
 19 18  1  0
 20 18  1  0
 20 21  1  0
 22 20  2  0
M  END
$$$$
