TCM.pdb
     RDKit          3D

 22 21  0  0  1  0  0  0  0  0999 V2000
   28.7391  -22.0046  -16.3581 C   0  0  0  0  0  0  0  0  0  0  0  0
   28.0643  -21.5284  -15.0991 C   0  0  1  0  0  0  0  0  0  0  0  0
   28.9912  -20.7973  -14.3435 O   0  0  0  0  0  0  0  0  0  0  0  0
   26.8828  -20.6354  -15.4616 C   0  0  2  0  0  0  0  0  0  0  0  0
   27.3313  -19.5759  -16.3480 N   0  0  0  0  0  0  0  0  0  0  0  0
   26.1786  -20.1629  -14.2600 C   0  0  0  0  0  0  0  0  0  0  0  0
   26.3316  -18.9318  -13.9062 O   0  0  0  0  0  0  0  0  0  0  0  0
   25.3297  -20.9108  -13.4162 N   0  0  0  0  0  0  0  0  0  0  0  0
   24.6768  -20.3202  -12.2555 C   0  0  1  0  0  0  0  0  0  0  0  0
   23.1480  -20.4507  -12.3943 C   0  0  0  0  0  0  0  0  0  0  0  0
   22.3534  -20.1443  -10.7948 S   0  0  0  0  0  0  0  0  0  0  0  0
   25.1597  -20.8148  -10.9698 C   0  0  0  0  0  0  0  0  0  0  0  0
   25.2127  -22.0731  -10.7509 O   0  0  0  0  0  0  0  0  0  0  0  0
   29.5582  -19.0719   -5.3265 C   0  0  0  0  0  0  0  0  0  0  0  0
   27.7907  -18.9210   -5.2857 S   0  0  0  0  0  0  0  0  0  0  0  0
   26.8936  -20.0672   -6.3424 C   0  0  0  0  0  0  0  0  0  0  0  0
   26.6292  -19.5650   -7.7272 C   0  0  0  0  0  0  0  0  0  0  0  0
   25.9575  -20.5704   -8.5755 C   0  0  2  0  0  0  0  0  0  0  0  0
   25.5968  -19.9995   -9.8953 N   0  0  0  0  0  0  0  0  0  0  0  0
   24.7232  -21.0528   -7.9219 C   0  0  0  0  0  0  0  0  0  0  0  0
   24.8505  -22.0595   -6.9240 O   0  0  0  0  0  0  0  0  0  0  0  0
   23.5824  -20.6650   -8.1575 O   0  0  0  0  0  0  0  0  0  0  0  0
  2  4  1  0
  2  1  1  6
  3  2  1  0
  4  5  1  1
  6  4  1  0
  7  6  2  0
  8  6  1  0
  9  8  1  0
  9 12  1  0
  9 10  1  6
 11 10  1  0
 12 19  1  0
 13 12  2  0
 15 14  1  0
 16 17  1  0
 16 15  1  0
 18 17  1  1
 19 18  1  0
 20 18  1  0
 20 21  1  0
 22 20  2  0
M  END
$$$$
