TCM.pdb
     RDKit          3D

 22 21  0  0  1  0  0  0  0  0999 V2000
   22.2010  -11.5270  -17.1840 C   0  0  0  0  0  0  0  0  0  0  0  0
   23.3250  -11.5098  -16.1823 C   0  0  1  0  0  0  0  0  0  0  0  0
   23.9799  -12.7483  -16.2230 O   0  0  0  0  0  0  0  0  0  0  0  0
   24.3077  -10.4001  -16.5392 C   0  0  2  0  0  0  0  0  0  0  0  0
   25.5334  -10.5769  -15.7804 N   0  0  0  0  0  0  0  0  0  0  0  0
   23.6925   -9.0719  -16.3961 C   0  0  0  0  0  0  0  0  0  0  0  0
   23.5820   -8.5737  -15.2112 O   0  0  0  0  0  0  0  0  0  0  0  0
   23.1899   -8.2465  -17.4247 N   0  0  0  0  0  0  0  0  0  0  0  0
   22.4572   -7.0191  -17.1434 C   0  0  1  0  0  0  0  0  0  0  0  0
   22.4356   -6.1252  -18.3979 C   0  0  0  0  0  0  0  0  0  0  0  0
   21.5515   -4.5836  -18.0437 S   0  0  0  0  0  0  0  0  0  0  0  0
   21.1235   -7.2222  -16.5858 C   0  0  0  0  0  0  0  0  0  0  0  0
   20.4718   -6.2279  -16.1157 O   0  0  0  0  0  0  0  0  0  0  0  0
   14.5750  -11.7619  -15.9177 C   0  0  0  0  0  0  0  0  0  0  0  0
   16.2852  -11.6060  -16.3642 S   0  0  0  0  0  0  0  0  0  0  0  0
   17.0486  -10.0291  -15.9566 C   0  0  0  0  0  0  0  0  0  0  0  0
   18.4600   -9.8767  -16.4303 C   0  0  0  0  0  0  0  0  0  0  0  0
   19.0473   -8.5756  -16.0508 C   0  0  2  0  0  0  0  0  0  0  0  0
   20.4513   -8.4685  -16.5144 N   0  0  0  0  0  0  0  0  0  0  0  0
   19.0261   -8.4105  -14.5826 C   0  0  0  0  0  0  0  0  0  0  0  0
   20.2659   -8.4879  -13.8880 O   0  0  0  0  0  0  0  0  0  0  0  0
   18.0306   -8.2095  -13.8928 O   0  0  0  0  0  0  0  0  0  0  0  0
  2  4  1  0
  2  1  1  6
  3  2  1  0
  4  5  1  1
  6  4  1  0
  7  6  2  0
  8  6  1  0
  9  8  1  0
  9 12  1  0
  9 10  1  6
 11 10  1  0
 12 19  1  0
 13 12  2  0
 15 14  1  0
 16 17  1  0
 16 15  1  0
 18 17  1  1
 19 18  1  0
 20 18  1  0
 20 21  1  0
 22 20  2  0
M  END
$$$$
