TCM.pdb
     RDKit          3D

 22 21  0  0  1  0  0  0  0  0999 V2000
   34.8721  -34.2897  -13.6995 C   0  0  0  0  0  0  0  0  0  0  0  0
   34.0451  -34.6991  -14.8893 C   0  0  1  0  0  0  0  0  0  0  0  0
   32.8621  -35.2934  -14.4291 O   0  0  0  0  0  0  0  0  0  0  0  0
   33.7078  -33.4675  -15.7225 C   0  0  2  0  0  0  0  0  0  0  0  0
   32.8231  -33.8469  -16.8101 N   0  0  0  0  0  0  0  0  0  0  0  0
   34.9236  -32.7588  -16.1494 C   0  0  0  0  0  0  0  0  0  0  0  0
   35.5296  -33.1696  -17.2116 O   0  0  0  0  0  0  0  0  0  0  0  0
   35.5324  -31.6504  -15.5227 N   0  0  0  0  0  0  0  0  0  0  0  0
   36.8048  -31.1064  -15.9784 C   0  0  1  0  0  0  0  0  0  0  0  0
   36.7708  -29.5680  -15.9044 C   0  0  0  0  0  0  0  0  0  0  0  0
   35.3293  -28.9373  -16.8034 S   0  0  0  0  0  0  0  0  0  0  0  0
   37.9777  -31.6665  -15.3139 C   0  0  0  0  0  0  0  0  0  0  0  0
   37.9377  -31.9249  -14.0626 O   0  0  0  0  0  0  0  0  0  0  0  0
   41.6625  -37.3325  -12.6466 C   0  0  0  0  0  0  0  0  0  0  0  0
   40.3862  -36.3754  -13.4234 S   0  0  0  0  0  0  0  0  0  0  0  0
   40.9073  -34.7856  -14.0839 C   0  0  0  0  0  0  0  0  0  0  0  0
   39.8118  -33.9768  -14.7046 C   0  0  0  0  0  0  0  0  0  0  0  0
   40.2956  -32.6921  -15.2497 C   0  0  2  0  0  0  0  0  0  0  0  0
   39.2088  -31.9666  -15.9499 N   0  0  0  0  0  0  0  0  0  0  0  0
   41.3967  -32.9220  -16.2078 C   0  0  0  0  0  0  0  0  0  0  0  0
   42.6191  -33.4458  -15.7008 O   0  0  0  0  0  0  0  0  0  0  0  0
   41.3607  -32.7035  -17.4153 O   0  0  0  0  0  0  0  0  0  0  0  0
  2  4  1  0
  2  1  1  1
  3  2  1  0
  4  5  1  6
  6  4  1  0
  7  6  2  0
  8  6  1  0
  9  8  1  0
  9 12  1  0
  9 10  1  1
 11 10  1  0
 12 19  1  0
 13 12  2  0
 15 14  1  0
 16 17  1  0
 16 15  1  0
 18 17  1  6
 19 18  1  0
 20 18  1  0
 20 21  1  0
 22 20  2  0
M  END
$$$$
