TCM.pdb
     RDKit          3D

 22 21  0  0  1  0  0  0  0  0999 V2000
   19.7229  -13.8308  -18.2897 C   0  0  0  0  0  0  0  0  0  0  0  0
   18.6297  -13.9638  -17.2629 C   0  0  1  0  0  0  0  0  0  0  0  0
   18.4748  -15.3206  -16.9471 O   0  0  0  0  0  0  0  0  0  0  0  0
   19.0133  -13.1876  -16.0078 C   0  0  2  0  0  0  0  0  0  0  0  0
   18.1818  -13.6204  -14.8985 N   0  0  0  0  0  0  0  0  0  0  0  0
   18.9965  -11.7368  -16.2480 C   0  0  0  0  0  0  0  0  0  0  0  0
   19.7792  -11.2581  -17.1550 O   0  0  0  0  0  0  0  0  0  0  0  0
   18.2076  -10.7696  -15.5891 N   0  0  0  0  0  0  0  0  0  0  0  0
   18.2597   -9.3572  -15.9428 C   0  0  1  0  0  0  0  0  0  0  0  0
   16.8981   -8.6967  -15.6541 C   0  0  0  0  0  0  0  0  0  0  0  0
   17.0423   -6.8958  -15.7940 S   0  0  0  0  0  0  0  0  0  0  0  0
   19.3694   -8.6216  -15.3442 C   0  0  0  0  0  0  0  0  0  0  0  0
   19.6026   -8.7291  -14.0919 O   0  0  0  0  0  0  0  0  0  0  0  0
   25.7420   -7.9515  -17.1048 C   0  0  0  0  0  0  0  0  0  0  0  0
   25.2430   -6.3350  -16.5698 S   0  0  0  0  0  0  0  0  0  0  0  0
   23.7053   -6.2706  -15.6388 C   0  0  0  0  0  0  0  0  0  0  0  0
   22.5686   -7.0235  -16.2559 C   0  0  0  0  0  0  0  0  0  0  0  0
   21.3842   -7.0828  -15.3754 C   0  0  2  0  0  0  0  0  0  0  0  0
   20.2528   -7.7648  -16.0481 N   0  0  0  0  0  0  0  0  0  0  0  0
   20.9526   -5.7200  -15.0015 C   0  0  0  0  0  0  0  0  0  0  0  0
   19.9646   -5.0914  -15.8104 O   0  0  0  0  0  0  0  0  0  0  0  0
   21.3675   -5.0672  -14.0481 O   0  0  0  0  0  0  0  0  0  0  0  0
  2  4  1  0
  2  1  1  6
  3  2  1  0
  4  5  1  1
  6  4  1  0
  7  6  2  0
  8  6  1  0
  9  8  1  0
  9 12  1  0
  9 10  1  1
 11 10  1  0
 12 19  1  0
 13 12  2  0
 15 14  1  0
 16 17  1  0
 16 15  1  0
 18 17  1  6
 19 18  1  0
 20 18  1  0
 20 21  1  0
 22 20  2  0
M  END
$$$$
