TCM.pdb
     RDKit          3D

 22 21  0  0  1  0  0  0  0  0999 V2000
   24.0193  -14.5840  -17.6978 C   0  0  0  0  0  0  0  0  0  0  0  0
   24.9598  -14.9385  -16.5767 C   0  0  1  0  0  0  0  0  0  0  0  0
   24.6226  -16.2108  -16.0950 O   0  0  0  0  0  0  0  0  0  0  0  0
   26.3920  -14.9530  -17.0994 C   0  0  2  0  0  0  0  0  0  0  0  0
   27.2668  -15.5358  -16.0972 N   0  0  0  0  0  0  0  0  0  0  0  0
   26.8068  -13.6212  -17.5653 C   0  0  0  0  0  0  0  0  0  0  0  0
   27.2069  -12.7638  -16.6882 O   0  0  0  0  0  0  0  0  0  0  0  0
   26.8219  -13.1459  -18.8942 N   0  0  0  0  0  0  0  0  0  0  0  0
   27.2185  -11.7835  -19.2241 C   0  0  1  0  0  0  0  0  0  0  0  0
   27.8025  -11.7408  -20.6491 C   0  0  0  0  0  0  0  0  0  0  0  0
   28.9351  -13.1338  -20.8952 S   0  0  0  0  0  0  0  0  0  0  0  0
   26.1757  -10.7818  -19.0234 C   0  0  0  0  0  0  0  0  0  0  0  0
   24.9472  -11.1351  -19.0122 O   0  0  0  0  0  0  0  0  0  0  0  0
   21.6221   -7.5482  -14.4275 C   0  0  0  0  0  0  0  0  0  0  0  0
   23.0433   -8.4762  -14.9447 S   0  0  0  0  0  0  0  0  0  0  0  0
   23.7475   -7.9917  -16.5273 C   0  0  0  0  0  0  0  0  0  0  0  0
   24.8162   -8.9041  -17.0419 C   0  0  0  0  0  0  0  0  0  0  0  0
   25.3326   -8.4843  -18.3606 C   0  0  2  0  0  0  0  0  0  0  0  0
   26.4037   -9.3960  -18.8289 N   0  0  0  0  0  0  0  0  0  0  0  0
   25.8841   -7.1156  -18.2849 C   0  0  0  0  0  0  0  0  0  0  0  0
   24.9809   -6.0266  -18.4398 O   0  0  0  0  0  0  0  0  0  0  0  0
   27.0611   -6.8206  -18.0982 O   0  0  0  0  0  0  0  0  0  0  0  0
  2  4  1  0
  2  1  1  6
  3  2  1  0
  4  5  1  1
  6  4  1  0
  7  6  2  0
  8  6  1  0
  9  8  1  0
  9 12  1  0
  9 10  1  6
 11 10  1  0
 12 19  1  0
 13 12  2  0
 15 14  1  0
 16 17  1  0
 16 15  1  0
 18 17  1  1
 19 18  1  0
 20 18  1  0
 20 21  1  0
 22 20  2  0
M  END
$$$$
