TCM.pdb
     RDKit          3D

 22 21  0  0  1  0  0  0  0  0999 V2000
   19.6536  -24.8034  -15.3798 C   0  0  0  0  0  0  0  0  0  0  0  0
   19.7564  -24.3060  -13.9624 C   0  0  1  0  0  0  0  0  0  0  0  0
   21.0858  -24.4363  -13.5376 O   0  0  0  0  0  0  0  0  0  0  0  0
   19.3436  -22.8393  -13.9066 C   0  0  2  0  0  0  0  0  0  0  0  0
   17.9645  -22.7081  -14.3427 N   0  0  0  0  0  0  0  0  0  0  0  0
   20.2938  -21.9862  -14.6362 C   0  0  0  0  0  0  0  0  0  0  0  0
   20.1077  -21.8057  -15.8999 O   0  0  0  0  0  0  0  0  0  0  0  0
   21.4215  -21.3189  -14.1119 N   0  0  0  0  0  0  0  0  0  0  0  0
   22.1895  -20.3626  -14.8982 C   0  0  1  0  0  0  0  0  0  0  0  0
   21.2780  -19.2043  -15.3463 C   0  0  0  0  0  0  0  0  0  0  0  0
   20.5907  -18.3618  -13.8966 S   0  0  0  0  0  0  0  0  0  0  0  0
   23.4106  -19.8882  -14.2540 C   0  0  0  0  0  0  0  0  0  0  0  0
   23.5076  -19.9094  -12.9796 O   0  0  0  0  0  0  0  0  0  0  0  0
   27.8559  -20.8213  -10.5872 C   0  0  0  0  0  0  0  0  0  0  0  0
   27.6308  -21.9297  -11.9543 S   0  0  0  0  0  0  0  0  0  0  0  0
   27.6072  -21.1572  -13.5786 C   0  0  0  0  0  0  0  0  0  0  0  0
   26.2416  -20.9652  -14.1599 C   0  0  0  0  0  0  0  0  0  0  0  0
   25.9187  -19.5422  -14.3891 C   0  0  2  0  0  0  0  0  0  0  0  0
   24.5490  -19.3872  -14.9347 N   0  0  0  0  0  0  0  0  0  0  0  0
   26.8732  -18.9460  -15.3466 C   0  0  0  0  0  0  0  0  0  0  0  0
   27.9763  -18.2184  -14.8181 O   0  0  0  0  0  0  0  0  0  0  0  0
   26.8084  -19.0179  -16.5705 O   0  0  0  0  0  0  0  0  0  0  0  0
  2  4  1  0
  2  1  1  6
  3  2  1  0
  4  5  1  6
  6  4  1  0
  7  6  2  0
  8  6  1  0
  9  8  1  0
  9 12  1  0
  9 10  1  1
 11 10  1  0
 12 19  1  0
 13 12  2  0
 15 14  1  0
 16 17  1  0
 16 15  1  0
 18 17  1  6
 19 18  1  0
 20 18  1  0
 20 21  1  0
 22 20  2  0
M  END
$$$$
