NQS.pdb
     RDKit          3D

 24 23  0  0  1  0  0  0  0  0999 V2000
    8.4287  -15.9846   16.3580 N   0  0  0  0  0  0  0  0  0  0  0  0
    9.4453  -16.3607   15.4427 C   0  0  0  0  0  0  0  0  0  0  0  0
    9.1252  -16.7223   14.2998 O   0  0  0  0  0  0  0  0  0  0  0  0
   10.8572  -16.3043   15.8973 C   0  0  0  0  0  0  0  0  0  0  0  0
   10.8386  -15.9395   17.3673 C   0  0  2  0  0  0  0  0  0  0  0  0
   10.3529  -14.5729   17.4351 N   0  0  0  0  0  0  0  0  0  0  0  0
   12.1938  -16.0251   17.9776 C   0  0  0  0  0  0  0  0  0  0  0  0
   12.8660  -17.0983   17.9245 O   0  0  0  0  0  0  0  0  0  0  0  0
   17.4289  -14.0750   18.6981 N   0  0  0  0  0  0  0  0  0  0  0  0
   16.7122  -13.8085   17.5199 C   0  0  0  0  0  0  0  0  0  0  0  0
   17.2626  -13.8515   16.3979 O   0  0  0  0  0  0  0  0  0  0  0  0
   15.2399  -13.4596   17.5907 C   0  0  0  0  0  0  0  0  0  0  0  0
   14.7448  -13.6197   18.9826 C   0  0  0  0  0  0  0  0  0  0  0  0
   14.0610  -14.9381   19.1948 C   0  0  2  0  0  0  0  0  0  0  0  0
   12.7049  -14.8845   18.6126 N   0  0  0  0  0  0  0  0  0  0  0  0
   13.9540  -15.3054   20.6087 C   0  0  0  0  0  0  0  0  0  0  0  0
   13.1966  -14.6769   21.3804 O   0  0  0  0  0  0  0  0  0  0  0  0
   14.4053  -18.6532   23.9212 O   0  0  0  0  0  0  0  0  0  0  0  0
   14.4490  -18.2453   22.5995 C   0  0  0  0  0  0  0  0  0  0  0  0
   14.5936  -16.7273   22.5130 C   0  0  2  0  0  0  0  0  0  0  0  0
   14.7323  -16.4038   21.1117 N   0  0  0  0  0  0  0  0  0  0  0  0
   15.8250  -16.3730   23.2678 C   0  0  0  0  0  0  0  0  0  0  0  0
   16.8684  -16.0368   22.6730 O   0  0  0  0  0  0  0  0  0  0  0  0
   15.7746  -16.4288   24.6532 O   0  0  0  0  0  0  0  0  0  0  0  0
  1  2  1  0
  2  4  1  0
  3  2  2  0
  4  5  1  0
  5  7  1  0
  5  6  1  6
  7  8  2  0
  9 10  1  0
 10 11  2  0
 10 12  1  0
 12 13  1  0
 14 13  1  1
 14 16  1  0
 15 14  1  0
 15  7  1  0
 16 17  2  0
 18 19  1  0
 20 19  1  6
 20 22  1  0
 21 20  1  0
 21 16  1  0
 22 23  2  0
 22 24  1  0
M  END
$$$$
