NQS.pdb
     RDKit          3D

 24 23  0  0  1  0  0  0  0  0999 V2000
    9.8462  -19.0063   14.7966 N   0  0  0  0  0  0  0  0  0  0  0  0
    9.9592  -18.4775   16.1082 C   0  0  0  0  0  0  0  0  0  0  0  0
    8.9906  -17.8820   16.6047 O   0  0  0  0  0  0  0  0  0  0  0  0
   11.2413  -18.6620   16.8331 C   0  0  0  0  0  0  0  0  0  0  0  0
   12.1772  -19.4052   15.9024 C   0  0  2  0  0  0  0  0  0  0  0  0
   11.6503  -20.7540   15.7970 N   0  0  0  0  0  0  0  0  0  0  0  0
   13.5684  -19.4460   16.4309 C   0  0  0  0  0  0  0  0  0  0  0  0
   13.9739  -20.4264   17.1243 O   0  0  0  0  0  0  0  0  0  0  0  0
   19.0869  -17.4679   13.4902 N   0  0  0  0  0  0  0  0  0  0  0  0
   17.6835  -17.4128   13.4731 C   0  0  0  0  0  0  0  0  0  0  0  0
   17.0703  -16.6457   12.6989 O   0  0  0  0  0  0  0  0  0  0  0  0
   16.8788  -18.2944   14.4056 C   0  0  0  0  0  0  0  0  0  0  0  0
   16.6844  -17.6115   15.7109 C   0  0  0  0  0  0  0  0  0  0  0  0
   15.8063  -18.3981   16.6390 C   0  0  2  0  0  0  0  0  0  0  0  0
   14.4170  -18.3687   16.1393 N   0  0  0  0  0  0  0  0  0  0  0  0
   15.8254  -17.8891   18.0123 C   0  0  0  0  0  0  0  0  0  0  0  0
   15.1585  -16.8809   18.3333 O   0  0  0  0  0  0  0  0  0  0  0  0
   17.1915  -20.3095   20.8745 O   0  0  0  0  0  0  0  0  0  0  0  0
   16.3591  -19.2736   21.2611 C   0  0  0  0  0  0  0  0  0  0  0  0
   16.5595  -18.0604   20.3552 C   0  0  2  0  0  0  0  0  0  0  0  0
   16.6230  -18.5607   19.0012 N   0  0  0  0  0  0  0  0  0  0  0  0
   17.8493  -17.4378   20.7561 C   0  0  0  0  0  0  0  0  0  0  0  0
   18.8140  -17.3945   19.9669 O   0  0  0  0  0  0  0  0  0  0  0  0
   17.9433  -16.9078   22.0348 O   0  0  0  0  0  0  0  0  0  0  0  0
  1  2  1  0
  2  4  1  0
  3  2  2  0
  4  5  1  0
  5  7  1  0
  5  6  1  1
  7  8  2  0
  9 10  1  0
 10 11  2  0
 10 12  1  0
 12 13  1  0
 14 13  1  6
 14 16  1  0
 15 14  1  0
 15  7  1  0
 16 17  2  0
 18 19  1  0
 20 19  1  1
 20 22  1  0
 21 20  1  0
 21 16  1  0
 22 23  2  0
 22 24  1  0
M  END
$$$$
