NQS.pdb
     RDKit          3D

 24 23  0  0  1  0  0  0  0  0999 V2000
    7.4919  -14.2313   14.0299 N   0  0  0  0  0  0  0  0  0  0  0  0
    7.2551  -15.6277   14.1120 C   0  0  0  0  0  0  0  0  0  0  0  0
    6.3797  -16.1350   13.3939 O   0  0  0  0  0  0  0  0  0  0  0  0
    8.0718  -16.4251   15.0609 C   0  0  0  0  0  0  0  0  0  0  0  0
    8.8998  -15.4470   15.8685 C   0  0  2  0  0  0  0  0  0  0  0  0
    9.9215  -14.9463   14.9666 N   0  0  0  0  0  0  0  0  0  0  0  0
    9.5390  -16.0993   17.0441 C   0  0  0  0  0  0  0  0  0  0  0  0
    8.8382  -16.6552   17.9422 O   0  0  0  0  0  0  0  0  0  0  0  0
   15.4339  -16.7723   16.4545 N   0  0  0  0  0  0  0  0  0  0  0  0
   14.4794  -17.7685   16.1907 C   0  0  0  0  0  0  0  0  0  0  0  0
   14.4824  -18.4061   15.1149 O   0  0  0  0  0  0  0  0  0  0  0  0
   13.4160  -18.0910   17.2200 C   0  0  0  0  0  0  0  0  0  0  0  0
   13.0670  -16.8700   17.9917 C   0  0  0  0  0  0  0  0  0  0  0  0
   11.5943  -16.7682   18.2597 C   0  0  2  0  0  0  0  0  0  0  0  0
   10.9382  -16.0809   17.1293 N   0  0  0  0  0  0  0  0  0  0  0  0
   11.2871  -16.0444   19.4954 C   0  0  0  0  0  0  0  0  0  0  0  0
   11.3835  -14.7987   19.5514 O   0  0  0  0  0  0  0  0  0  0  0  0
    8.7370  -15.3064   23.1772 O   0  0  0  0  0  0  0  0  0  0  0  0
    9.0832  -15.9916   22.0257 C   0  0  0  0  0  0  0  0  0  0  0  0
   10.6011  -16.0241   21.8590 C   0  0  2  0  0  0  0  0  0  0  0  0
   10.8694  -16.7800   20.6572 N   0  0  0  0  0  0  0  0  0  0  0  0
   11.1466  -16.7148   23.0578 C   0  0  0  0  0  0  0  0  0  0  0  0
   11.1243  -16.1690   24.1790 O   0  0  0  0  0  0  0  0  0  0  0  0
   11.6800  -17.9842   22.8877 O   0  0  0  0  0  0  0  0  0  0  0  0
  1  2  1  0
  2  4  1  0
  3  2  2  0
  4  5  1  0
  5  7  1  0
  5  6  1  6
  7  8  2  0
  9 10  1  0
 10 11  2  0
 10 12  1  0
 12 13  1  0
 14 13  1  6
 14 16  1  0
 15 14  1  0
 15  7  1  0
 16 17  2  0
 18 19  1  0
 20 19  1  1
 20 22  1  0
 21 20  1  0
 21 16  1  0
 22 23  2  0
 22 24  1  0
M  END
$$$$
