NQS.pdb
     RDKit          3D

 24 23  0  0  1  0  0  0  0  0999 V2000
   16.0614  -17.0604   15.8991 N   0  0  0  0  0  0  0  0  0  0  0  0
   14.7497  -17.0824   15.3589 C   0  0  0  0  0  0  0  0  0  0  0  0
   14.6044  -17.1094   14.1270 O   0  0  0  0  0  0  0  0  0  0  0  0
   13.6013  -17.0722   16.2993 C   0  0  0  0  0  0  0  0  0  0  0  0
   13.4384  -18.4851   16.8202 C   0  0  2  0  0  0  0  0  0  0  0  0
   12.7635  -19.2248   15.7687 N   0  0  0  0  0  0  0  0  0  0  0  0
   12.6272  -18.5265   18.0678 C   0  0  0  0  0  0  0  0  0  0  0  0
   11.4291  -18.1132   18.0805 O   0  0  0  0  0  0  0  0  0  0  0  0
   13.6830  -22.7343   22.4031 N   0  0  0  0  0  0  0  0  0  0  0  0
   12.8468  -22.8966   21.2863 C   0  0  0  0  0  0  0  0  0  0  0  0
   12.4710  -24.0291   20.9121 O   0  0  0  0  0  0  0  0  0  0  0  0
   12.3802  -21.6850   20.5062 C   0  0  0  0  0  0  0  0  0  0  0  0
   12.8445  -20.4405   21.1722 C   0  0  0  0  0  0  0  0  0  0  0  0
   12.4033  -19.2062   20.4422 C   0  0  2  0  0  0  0  0  0  0  0  0
   13.2268  -19.0358   19.2283 N   0  0  0  0  0  0  0  0  0  0  0  0
   12.5057  -17.9932   21.2567 C   0  0  0  0  0  0  0  0  0  0  0  0
   13.5752  -17.3475   21.3163 O   0  0  0  0  0  0  0  0  0  0  0  0
    9.1458  -16.6051   23.0596 O   0  0  0  0  0  0  0  0  0  0  0  0
   10.1367  -15.6688   22.8209 C   0  0  0  0  0  0  0  0  0  0  0  0
   11.5081  -16.3398   22.7828 C   0  0  2  0  0  0  0  0  0  0  0  0
   11.3588  -17.5426   21.9961 N   0  0  0  0  0  0  0  0  0  0  0  0
   11.8639  -16.6625   24.1903 C   0  0  0  0  0  0  0  0  0  0  0  0
   11.8830  -17.8425   24.5934 O   0  0  0  0  0  0  0  0  0  0  0  0
   12.1731  -15.6089   25.0384 O   0  0  0  0  0  0  0  0  0  0  0  0
  1  2  1  0
  2  4  1  0
  3  2  2  0
  4  5  1  0
  5  7  1  0
  5  6  1  6
  7  8  2  0
  9 10  1  0
 10 11  2  0
 10 12  1  0
 12 13  1  0
 14 13  1  1
 14 16  1  0
 15 14  1  0
 15  7  1  0
 16 17  2  0
 18 19  1  0
 20 19  1  1
 20 22  1  0
 21 20  1  0
 21 16  1  0
 22 23  2  0
 22 24  1  0
M  END
$$$$
