NQS.pdb
     RDKit          3D

 24 23  0  0  1  0  0  0  0  0999 V2000
    7.3511  -15.5226   15.1106 N   0  0  0  0  0  0  0  0  0  0  0  0
    8.3380  -14.7305   15.7521 C   0  0  0  0  0  0  0  0  0  0  0  0
    8.5120  -13.5610   15.3759 O   0  0  0  0  0  0  0  0  0  0  0  0
    9.1240  -15.3414   16.8531 C   0  0  0  0  0  0  0  0  0  0  0  0
   10.5849  -15.2471   16.4641 C   0  0  2  0  0  0  0  0  0  0  0  0
   10.7649  -16.1674   15.3556 N   0  0  0  0  0  0  0  0  0  0  0  0
   11.4841  -15.6276   17.5879 C   0  0  0  0  0  0  0  0  0  0  0  0
   11.7356  -16.8444   17.8383 O   0  0  0  0  0  0  0  0  0  0  0  0
   17.3148  -13.2684   20.1418 N   0  0  0  0  0  0  0  0  0  0  0  0
   16.3852  -14.3179   20.0570 C   0  0  0  0  0  0  0  0  0  0  0  0
   16.6715  -15.3992   19.4979 O   0  0  0  0  0  0  0  0  0  0  0  0
   15.0010  -14.1543   20.6500 C   0  0  0  0  0  0  0  0  0  0  0  0
   14.0165  -13.8681   19.5744 C   0  0  0  0  0  0  0  0  0  0  0  0
   12.9900  -14.9540   19.4394 C   0  0  2  0  0  0  0  0  0  0  0  0
   12.0445  -14.6013   18.3613 N   0  0  0  0  0  0  0  0  0  0  0  0
   12.2352  -15.1835   20.6735 C   0  0  0  0  0  0  0  0  0  0  0  0
   11.3914  -14.3521   21.0748 O   0  0  0  0  0  0  0  0  0  0  0  0
   10.1774  -18.0606   23.6648 O   0  0  0  0  0  0  0  0  0  0  0  0
   10.9029  -17.8164   22.5119 C   0  0  0  0  0  0  0  0  0  0  0  0
   11.7334  -16.5435   22.6625 C   0  0  2  0  0  0  0  0  0  0  0  0
   12.4708  -16.3821   21.4305 N   0  0  0  0  0  0  0  0  0  0  0  0
   12.6525  -16.7677   23.8101 C   0  0  0  0  0  0  0  0  0  0  0  0
   13.8700  -16.9677   23.6281 O   0  0  0  0  0  0  0  0  0  0  0  0
   12.1113  -16.7471   25.0874 O   0  0  0  0  0  0  0  0  0  0  0  0
  1  2  1  0
  2  4  1  0
  3  2  2  0
  4  5  1  0
  5  7  1  0
  5  6  1  6
  7  8  2  0
  9 10  1  0
 10 11  2  0
 10 12  1  0
 12 13  1  0
 14 13  1  1
 14 16  1  0
 15 14  1  0
 15  7  1  0
 16 17  2  0
 18 19  1  0
 20 19  1  6
 20 22  1  0
 21 20  1  0
 21 16  1  0
 22 23  2  0
 22 24  1  0
M  END
$$$$
