NQS.pdb
     RDKit          3D

 24 23  0  0  1  0  0  0  0  0999 V2000
    7.3927  -12.7399   17.4898 N   0  0  0  0  0  0  0  0  0  0  0  0
    8.2804  -13.3999   18.3781 C   0  0  0  0  0  0  0  0  0  0  0  0
    9.3792  -13.7902   17.9544 O   0  0  0  0  0  0  0  0  0  0  0  0
    7.8511  -13.5951   19.7856 C   0  0  0  0  0  0  0  0  0  0  0  0
    8.0228  -15.0659   20.1046 C   0  0  2  0  0  0  0  0  0  0  0  0
    7.0277  -15.7667   19.3128 N   0  0  0  0  0  0  0  0  0  0  0  0
    7.8090  -15.3487   21.5505 C   0  0  0  0  0  0  0  0  0  0  0  0
    6.6452  -15.3354   22.0522 O   0  0  0  0  0  0  0  0  0  0  0  0
   11.4440  -19.0275   24.9088 N   0  0  0  0  0  0  0  0  0  0  0  0
   10.5800  -18.5401   25.9032 C   0  0  0  0  0  0  0  0  0  0  0  0
   10.6256  -18.9722   27.0758 O   0  0  0  0  0  0  0  0  0  0  0  0
    9.5647  -17.4677   25.5663 C   0  0  0  0  0  0  0  0  0  0  0  0
    9.6999  -17.0678   24.1416 C   0  0  0  0  0  0  0  0  0  0  0  0
    8.7357  -15.9829   23.7615 C   0  0  2  0  0  0  0  0  0  0  0  0
    8.9321  -15.6303   22.3409 N   0  0  0  0  0  0  0  0  0  0  0  0
    8.8870  -14.7735   24.5738 C   0  0  0  0  0  0  0  0  0  0  0  0
    9.9785  -14.1649   24.6231 O   0  0  0  0  0  0  0  0  0  0  0  0
    5.6194  -13.3440   26.5010 O   0  0  0  0  0  0  0  0  0  0  0  0
    6.6269  -12.4203   26.2840 C   0  0  0  0  0  0  0  0  0  0  0  0
    7.9772  -13.1223   26.1559 C   0  0  2  0  0  0  0  0  0  0  0  0
    7.7628  -14.2832   25.3228 N   0  0  0  0  0  0  0  0  0  0  0  0
    8.3835  -13.5186   27.5306 C   0  0  0  0  0  0  0  0  0  0  0  0
    8.4986  -14.7200   27.8449 O   0  0  0  0  0  0  0  0  0  0  0  0
    8.6298  -12.5091   28.4500 O   0  0  0  0  0  0  0  0  0  0  0  0
  1  2  1  0
  2  4  1  0
  3  2  2  0
  4  5  1  0
  5  7  1  0
  5  6  1  6
  7  8  2  0
  9 10  1  0
 10 11  2  0
 10 12  1  0
 12 13  1  0
 14 13  1  1
 14 16  1  0
 15 14  1  0
 15  7  1  0
 16 17  2  0
 18 19  1  0
 20 19  1  1
 20 22  1  0
 21 20  1  0
 21 16  1  0
 22 23  2  0
 22 24  1  0
M  END
$$$$
