NQS.pdb
     RDKit          3D

 24 23  0  0  1  0  0  0  0  0999 V2000
    7.6018  -12.7750   16.8362 N   0  0  0  0  0  0  0  0  0  0  0  0
    7.1253  -13.1860   18.1077 C   0  0  0  0  0  0  0  0  0  0  0  0
    6.0386  -12.7478   18.5158 O   0  0  0  0  0  0  0  0  0  0  0  0
    7.9547  -14.1293   18.8986 C   0  0  0  0  0  0  0  0  0  0  0  0
    9.2371  -14.3532   18.1243 C   0  0  2  0  0  0  0  0  0  0  0  0
    8.8613  -15.0891   16.9304 N   0  0  0  0  0  0  0  0  0  0  0  0
   10.2299  -15.1369   18.9095 C   0  0  0  0  0  0  0  0  0  0  0  0
   10.1241  -16.3948   19.0238 O   0  0  0  0  0  0  0  0  0  0  0  0
   16.1460  -13.3894   19.8300 N   0  0  0  0  0  0  0  0  0  0  0  0
   15.9217  -14.5446   19.0633 C   0  0  0  0  0  0  0  0  0  0  0  0
   16.8130  -15.0223   18.3276 O   0  0  0  0  0  0  0  0  0  0  0  0
   14.5773  -15.2404   19.1162 C   0  0  0  0  0  0  0  0  0  0  0  0
   13.6593  -14.5066   20.0256 C   0  0  0  0  0  0  0  0  0  0  0  0
   12.3466  -15.2122   20.1991 C   0  0  2  0  0  0  0  0  0  0  0  0
   11.2851  -14.4434   19.5188 N   0  0  0  0  0  0  0  0  0  0  0  0
   11.9747  -15.3896   21.6047 C   0  0  0  0  0  0  0  0  0  0  0  0
   11.5366  -14.4320   22.2793 O   0  0  0  0  0  0  0  0  0  0  0  0
   10.0281  -17.8672   24.9152 O   0  0  0  0  0  0  0  0  0  0  0  0
   10.4452  -17.6464   23.6142 C   0  0  0  0  0  0  0  0  0  0  0  0
   11.7246  -16.8123   23.5974 C   0  0  2  0  0  0  0  0  0  0  0  0
   12.1169  -16.6840   22.2127 N   0  0  0  0  0  0  0  0  0  0  0  0
   12.7400  -17.5742   24.3722 C   0  0  0  0  0  0  0  0  0  0  0  0
   13.6759  -18.1650   23.7973 O   0  0  0  0  0  0  0  0  0  0  0  0
   12.6117  -17.6057   25.7533 O   0  0  0  0  0  0  0  0  0  0  0  0
  1  2  1  0
  2  4  1  0
  3  2  2  0
  4  5  1  0
  5  7  1  0
  5  6  1  6
  7  8  2  0
  9 10  1  0
 10 11  2  0
 10 12  1  0
 12 13  1  0
 14 13  1  1
 14 16  1  0
 15 14  1  0
 15  7  1  0
 16 17  2  0
 18 19  1  0
 20 19  1  6
 20 22  1  0
 21 20  1  0
 21 16  1  0
 22 23  2  0
 22 24  1  0
M  END
$$$$
