NQS.pdb
     RDKit          3D

 24 23  0  0  1  0  0  0  0  0999 V2000
   13.6921  -18.1004   17.9448 N   0  0  0  0  0  0  0  0  0  0  0  0
   12.7894  -17.0901   17.5238 C   0  0  0  0  0  0  0  0  0  0  0  0
   13.1154  -16.3395   16.5913 O   0  0  0  0  0  0  0  0  0  0  0  0
   11.4853  -16.9758   18.2237 C   0  0  0  0  0  0  0  0  0  0  0  0
   11.4185  -18.1056   19.2303 C   0  0  2  0  0  0  0  0  0  0  0  0
   10.9036  -19.2556   18.5088 N   0  0  0  0  0  0  0  0  0  0  0  0
   10.5186  -17.7802   20.3708 C   0  0  0  0  0  0  0  0  0  0  0  0
   10.1193  -16.5936   20.5681 O   0  0  0  0  0  0  0  0  0  0  0  0
    5.9115  -18.9387   22.8132 N   0  0  0  0  0  0  0  0  0  0  0  0
    6.2493  -19.7940   21.7515 C   0  0  0  0  0  0  0  0  0  0  0  0
    5.4189  -20.0939   20.8660 O   0  0  0  0  0  0  0  0  0  0  0  0
    7.6452  -20.3751   21.6610 C   0  0  0  0  0  0  0  0  0  0  0  0
    8.5030  -19.8097   22.7346 C   0  0  0  0  0  0  0  0  0  0  0  0
    9.1757  -18.5364   22.3136 C   0  0  2  0  0  0  0  0  0  0  0  0
   10.1256  -18.8242   21.2200 N   0  0  0  0  0  0  0  0  0  0  0  0
    9.8982  -17.8831   23.4074 C   0  0  0  0  0  0  0  0  0  0  0  0
   11.1184  -18.0913   23.5864 O   0  0  0  0  0  0  0  0  0  0  0  0
    7.8268  -15.3768   25.8438 O   0  0  0  0  0  0  0  0  0  0  0  0
    9.1749  -15.0887   25.7217 C   0  0  0  0  0  0  0  0  0  0  0  0
    9.9550  -16.3400   25.3239 C   0  0  2  0  0  0  0  0  0  0  0  0
    9.1911  -16.9912   24.2847 N   0  0  0  0  0  0  0  0  0  0  0  0
   10.0401  -17.1932   26.5391 C   0  0  0  0  0  0  0  0  0  0  0  0
    9.4036  -18.2627   26.6186 O   0  0  0  0  0  0  0  0  0  0  0  0
   10.8496  -16.7604   27.5795 O   0  0  0  0  0  0  0  0  0  0  0  0
  1  2  1  0
  2  4  1  0
  3  2  2  0
  4  5  1  0
  5  7  1  0
  5  6  1  6
  7  8  2  0
  9 10  1  0
 10 11  2  0
 10 12  1  0
 12 13  1  0
 14 13  1  1
 14 16  1  0
 15 14  1  0
 15  7  1  0
 16 17  2  0
 18 19  1  0
 20 19  1  1
 20 22  1  0
 21 20  1  0
 21 16  1  0
 22 23  2  0
 22 24  1  0
M  END
$$$$
