NQS.pdb
     RDKit          3D

 24 23  0  0  1  0  0  0  0  0999 V2000
   12.0770  -17.3675   19.0248 N   0  0  0  0  0  0  0  0  0  0  0  0
   10.6741  -17.5220   19.1686 C   0  0  0  0  0  0  0  0  0  0  0  0
    9.9915  -17.7978   18.1699 O   0  0  0  0  0  0  0  0  0  0  0  0
   10.0816  -17.3454   20.5181 C   0  0  0  0  0  0  0  0  0  0  0  0
   11.2125  -16.9828   21.4581 C   0  0  2  0  0  0  0  0  0  0  0  0
   12.2349  -17.9955   21.2649 N   0  0  0  0  0  0  0  0  0  0  0  0
   10.7714  -16.9748   22.8800 C   0  0  0  0  0  0  0  0  0  0  0  0
    9.5933  -16.6295   23.1951 O   0  0  0  0  0  0  0  0  0  0  0  0
   13.7119  -20.5045   26.9401 N   0  0  0  0  0  0  0  0  0  0  0  0
   12.4982  -20.9311   26.3762 C   0  0  0  0  0  0  0  0  0  0  0  0
   12.1592  -22.1347   26.3917 O   0  0  0  0  0  0  0  0  0  0  0  0
   11.5672  -19.9254   25.7310 C   0  0  0  0  0  0  0  0  0  0  0  0
   12.0796  -18.5470   25.9442 C   0  0  0  0  0  0  0  0  0  0  0  0
   11.2371  -17.5142   25.2552 C   0  0  2  0  0  0  0  0  0  0  0  0
   11.6966  -17.3602   23.8602 N   0  0  0  0  0  0  0  0  0  0  0  0
   11.2824  -16.2072   25.9147 C   0  0  0  0  0  0  0  0  0  0  0  0
   12.2818  -15.4640   25.8004 O   0  0  0  0  0  0  0  0  0  0  0  0
    7.9351  -14.4535   27.0449 O   0  0  0  0  0  0  0  0  0  0  0  0
    9.0829  -13.6805   27.0616 C   0  0  0  0  0  0  0  0  0  0  0  0
   10.2965  -14.5333   27.4258 C   0  0  2  0  0  0  0  0  0  0  0  0
   10.1604  -15.7769   26.7029 N   0  0  0  0  0  0  0  0  0  0  0  0
   10.2332  -14.7591   28.8945 C   0  0  0  0  0  0  0  0  0  0  0  0
   10.0746  -15.9045   29.3618 O   0  0  0  0  0  0  0  0  0  0  0  0
   10.3562  -13.6551   29.7258 O   0  0  0  0  0  0  0  0  0  0  0  0
  1  2  1  0
  2  4  1  0
  3  2  2  0
  4  5  1  0
  5  7  1  0
  5  6  1  1
  7  8  2  0
  9 10  1  0
 10 11  2  0
 10 12  1  0
 12 13  1  0
 14 13  1  1
 14 16  1  0
 15 14  1  0
 15  7  1  0
 16 17  2  0
 18 19  1  0
 20 19  1  6
 20 22  1  0
 21 20  1  0
 21 16  1  0
 22 23  2  0
 22 24  1  0
M  END
$$$$
