NQS.pdb
     RDKit          3D

 24 23  0  0  1  0  0  0  0  0999 V2000
   12.0730  -12.2020   11.1375 N   0  0  0  0  0  0  0  0  0  0  0  0
   11.9010  -13.6027   10.9918 C   0  0  0  0  0  0  0  0  0  0  0  0
   12.1362  -14.1289    9.8931 O   0  0  0  0  0  0  0  0  0  0  0  0
   11.4440  -14.3816   12.1699 C   0  0  0  0  0  0  0  0  0  0  0  0
   11.4013  -15.8373   11.7532 C   0  0  2  0  0  0  0  0  0  0  0  0
   10.1984  -15.9907   10.9547 N   0  0  0  0  0  0  0  0  0  0  0  0
   11.3476  -16.7496   12.9284 C   0  0  0  0  0  0  0  0  0  0  0  0
   10.2615  -16.9474   13.5511 O   0  0  0  0  0  0  0  0  0  0  0  0
    9.4578  -20.7151   13.4815 N   0  0  0  0  0  0  0  0  0  0  0  0
   10.7824  -20.8806   13.9185 C   0  0  0  0  0  0  0  0  0  0  0  0
   11.0477  -21.4793   14.9838 O   0  0  0  0  0  0  0  0  0  0  0  0
   11.9271  -20.3284   13.0944 C   0  0  0  0  0  0  0  0  0  0  0  0
   12.9315  -19.6876   13.9825 C   0  0  0  0  0  0  0  0  0  0  0  0
   12.4905  -18.3339   14.4560 C   0  0  2  0  0  0  0  0  0  0  0  0
   12.5331  -17.3835   13.3265 N   0  0  0  0  0  0  0  0  0  0  0  0
   13.3193  -17.8113   15.5447 C   0  0  0  0  0  0  0  0  0  0  0  0
   14.2410  -16.9972   15.3169 O   0  0  0  0  0  0  0  0  0  0  0  0
   11.8975  -16.9766   19.1109 O   0  0  0  0  0  0  0  0  0  0  0  0
   13.0474  -17.7387   19.2221 C   0  0  0  0  0  0  0  0  0  0  0  0
   13.8705  -17.6549   17.9383 C   0  0  2  0  0  0  0  0  0  0  0  0
   13.0662  -18.2430   16.8919 N   0  0  0  0  0  0  0  0  0  0  0  0
   15.1065  -18.4483   18.1721 C   0  0  0  0  0  0  0  0  0  0  0  0
   15.3070  -19.5188   17.5645 O   0  0  0  0  0  0  0  0  0  0  0  0
   16.0274  -17.9587   19.0871 O   0  0  0  0  0  0  0  0  0  0  0  0
  1  2  1  0
  2  4  1  0
  3  2  2  0
  4  5  1  0
  5  7  1  0
  5  6  1  6
  7  8  2  0
  9 10  1  0
 10 11  2  0
 10 12  1  0
 12 13  1  0
 14 13  1  6
 14 16  1  0
 15 14  1  0
 15  7  1  0
 16 17  2  0
 18 19  1  0
 20 19  1  1
 20 22  1  0
 21 20  1  0
 21 16  1  0
 22 23  2  0
 22 24  1  0
M  END
$$$$
