EER.pdb
     RDKit          3D

 30 29  0  0  1  0  0  0  0  0999 V2000
   11.9548  -21.1947   18.8197 N   0  0  0  0  0  0  0  0  0  0  0  0
   12.7452  -20.3570   19.6920 C   0  0  1  0  0  0  0  0  0  0  0  0
   13.0596  -19.0355   18.9454 C   0  0  0  0  0  0  0  0  0  0  0  0
   14.2902  -19.2453   18.0847 C   0  0  0  0  0  0  0  0  0  0  0  0
   14.7072  -17.9438   17.5183 C   0  0  0  0  0  0  0  0  0  0  0  0
   14.5369  -17.7247   16.2737 O   0  0  0  0  0  0  0  0  0  0  0  0
   12.1435  -20.0738   20.9960 C   0  0  0  0  0  0  0  0  0  0  0  0
   10.9215  -19.7580   21.0469 O   0  0  0  0  0  0  0  0  0  0  0  0
   15.2828  -16.9105   18.2397 O   0  0  0  0  0  0  0  0  0  0  0  0
   12.7721  -20.1108   22.2586 N   0  0  0  0  0  0  0  0  0  0  0  0
   12.1864  -19.7999   23.5151 C   0  0  1  0  0  0  0  0  0  0  0  0
   12.9330  -20.1378   24.7422 C   0  0  0  0  0  0  0  0  0  0  0  0
   12.0455  -19.8700   25.9565 C   0  0  0  0  0  0  0  0  0  0  0  0
   12.6807  -20.2843   27.2159 C   0  0  0  0  0  0  0  0  0  0  0  0
   12.0051  -20.8123   28.1218 O   0  0  0  0  0  0  0  0  0  0  0  0
   11.8109  -18.3714   23.5382 C   0  0  0  0  0  0  0  0  0  0  0  0
   12.7291  -17.4995   23.3331 O   0  0  0  0  0  0  0  0  0  0  0  0
   14.0363  -20.1002   27.4271 O   0  0  0  0  0  0  0  0  0  0  0  0
    7.2300  -13.4684   18.4353 N   0  0  0  0  0  0  0  0  0  0  0  0
    7.4794  -12.6586   19.5685 C   0  0  0  0  0  0  0  0  0  0  0  0
    7.2620  -11.3937   19.5600 N   0  0  0  0  0  0  0  0  0  0  0  0
    7.9899  -13.2215   20.7836 N   0  0  0  0  0  0  0  0  0  0  0  0
    8.4172  -14.6104   20.8611 C   0  0  0  0  0  0  0  0  0  0  0  0
    8.8070  -14.8860   22.2890 C   0  0  0  0  0  0  0  0  0  0  0  0
    9.2882  -16.2708   22.5265 C   0  0  0  0  0  0  0  0  0  0  0  0
   10.1988  -16.4238   23.7347 C   0  0  2  0  0  0  0  0  0  0  0  0
   10.5112  -17.8671   23.7695 N   0  0  0  0  0  0  0  0  0  0  0  0
    9.4298  -16.1088   24.9477 C   0  0  0  0  0  0  0  0  0  0  0  0
    8.9514  -17.0538   25.6363 O   0  0  0  0  0  0  0  0  0  0  0  0
    9.1785  -14.8342   25.4097 O   0  0  0  0  0  0  0  0  0  0  0  0
  2  1  1  6
  2  3  1  0
  4  3  1  0
  4  5  1  0
  5  6  2  0
  7  2  1  0
  8  7  2  0
  9  5  1  0
 10  7  1  0
 11 10  1  0
 12 13  1  0
 11 12  1  1
 13 14  1  0
 14 18  1  0
 14 15  2  0
 16 11  1  0
 16 17  2  0
 20 19  1  0
 21 20  2  0
 22 20  1  0
 23 22  1  0
 24 23  1  0
 25 24  1  0
 26 25  1  6
 26 27  1  0
 27 16  1  0
 28 26  1  0
 29 28  2  0
 30 28  1  0
M  END
$$$$
