EER.pdb
     RDKit          3D

 30 29  0  0  1  0  0  0  0  0999 V2000
   15.1680  -14.6403   18.9584 N   0  0  0  0  0  0  0  0  0  0  0  0
   13.8767  -14.8695   18.3523 C   0  0  1  0  0  0  0  0  0  0  0  0
   14.1001  -15.4811   16.9457 C   0  0  0  0  0  0  0  0  0  0  0  0
   12.7502  -15.8180   16.3429 C   0  0  0  0  0  0  0  0  0  0  0  0
   12.9574  -16.4110   15.0034 C   0  0  0  0  0  0  0  0  0  0  0  0
   14.1469  -16.5817   14.5769 O   0  0  0  0  0  0  0  0  0  0  0  0
   12.9631  -15.7065   19.1317 C   0  0  0  0  0  0  0  0  0  0  0  0
   11.7598  -15.8036   18.7603 O   0  0  0  0  0  0  0  0  0  0  0  0
   11.9455  -16.8098   14.1453 O   0  0  0  0  0  0  0  0  0  0  0  0
   13.2603  -16.4543   20.2907 N   0  0  0  0  0  0  0  0  0  0  0  0
   12.3426  -17.1699   21.1056 C   0  0  1  0  0  0  0  0  0  0  0  0
   12.8385  -18.3284   21.8734 C   0  0  0  0  0  0  0  0  0  0  0  0
   13.9698  -17.8710   22.7926 C   0  0  0  0  0  0  0  0  0  0  0  0
   14.5989  -18.9921   23.5058 C   0  0  0  0  0  0  0  0  0  0  0  0
   15.4087  -19.7395   22.9214 O   0  0  0  0  0  0  0  0  0  0  0  0
   11.6582  -16.2269   22.0136 C   0  0  0  0  0  0  0  0  0  0  0  0
   12.3492  -15.2843   22.5422 O   0  0  0  0  0  0  0  0  0  0  0  0
   14.3104  -19.2451   24.8358 O   0  0  0  0  0  0  0  0  0  0  0  0
    7.8543  -15.1925   17.7398 N   0  0  0  0  0  0  0  0  0  0  0  0
    7.9418  -13.7910   17.9137 C   0  0  0  0  0  0  0  0  0  0  0  0
    8.2728  -13.0071   16.9528 N   0  0  0  0  0  0  0  0  0  0  0  0
    7.6625  -13.1827   19.1810 N   0  0  0  0  0  0  0  0  0  0  0  0
    7.3171  -13.9779   20.3498 C   0  0  0  0  0  0  0  0  0  0  0  0
    8.5648  -14.1321   21.1782 C   0  0  0  0  0  0  0  0  0  0  0  0
    8.3638  -14.8971   22.4351 C   0  0  0  0  0  0  0  0  0  0  0  0
    9.6448  -15.2254   23.1857 C   0  0  2  0  0  0  0  0  0  0  0  0
   10.2888  -16.2674   22.3603 N   0  0  0  0  0  0  0  0  0  0  0  0
    9.2921  -15.8383   24.4749 C   0  0  0  0  0  0  0  0  0  0  0  0
    9.4414  -17.0836   24.6261 O   0  0  0  0  0  0  0  0  0  0  0  0
    8.7975  -15.1503   25.5627 O   0  0  0  0  0  0  0  0  0  0  0  0
  2  1  1  1
  2  3  1  0
  4  3  1  0
  4  5  1  0
  5  6  2  0
  7  2  1  0
  8  7  2  0
  9  5  1  0
 10  7  1  0
 11 10  1  0
 12 13  1  0
 11 12  1  1
 13 14  1  0
 14 18  1  0
 14 15  2  0
 16 11  1  0
 16 17  2  0
 20 19  1  0
 21 20  2  0
 22 20  1  0
 23 22  1  0
 24 23  1  0
 25 24  1  0
 26 25  1  6
 26 27  1  0
 27 16  1  0
 28 26  1  0
 29 28  2  0
 30 28  1  0
M  END
$$$$
