EER.pdb
     RDKit          3D

 30 29  0  0  1  0  0  0  0  0999 V2000
    5.4838  -20.5103   19.6237 N   0  0  0  0  0  0  0  0  0  0  0  0
    5.0405  -19.1353   19.6414 C   0  0  1  0  0  0  0  0  0  0  0  0
    3.6185  -19.0896   20.2566 C   0  0  0  0  0  0  0  0  0  0  0  0
    3.6302  -19.8580   21.5637 C   0  0  0  0  0  0  0  0  0  0  0  0
    2.2630  -19.8640   22.1289 C   0  0  0  0  0  0  0  0  0  0  0  0
    1.3220  -19.2932   21.4849 O   0  0  0  0  0  0  0  0  0  0  0  0
    5.9275  -18.2044   20.3408 C   0  0  0  0  0  0  0  0  0  0  0  0
    6.7271  -18.6593   21.2064 O   0  0  0  0  0  0  0  0  0  0  0  0
    1.9018  -20.4519   23.3304 O   0  0  0  0  0  0  0  0  0  0  0  0
    6.0150  -16.8068   20.1679 N   0  0  0  0  0  0  0  0  0  0  0  0
    7.0086  -15.9401   20.6969 C   0  0  1  0  0  0  0  0  0  0  0  0
    7.0018  -14.5246   20.2800 C   0  0  0  0  0  0  0  0  0  0  0  0
    8.2643  -13.8431   20.8050 C   0  0  0  0  0  0  0  0  0  0  0  0
    8.4962  -12.5345   20.1767 C   0  0  0  0  0  0  0  0  0  0  0  0
    9.5046  -12.3424   19.4680 O   0  0  0  0  0  0  0  0  0  0  0  0
    6.9948  -16.0247   22.1717 C   0  0  0  0  0  0  0  0  0  0  0  0
    5.8623  -15.9726   22.7716 O   0  0  0  0  0  0  0  0  0  0  0  0
    7.6069  -11.4887   20.3543 O   0  0  0  0  0  0  0  0  0  0  0  0
    6.6704  -21.5743   29.0312 N   0  0  0  0  0  0  0  0  0  0  0  0
    6.8022  -21.3105   27.6474 C   0  0  0  0  0  0  0  0  0  0  0  0
    5.9059  -21.6660   26.8002 N   0  0  0  0  0  0  0  0  0  0  0  0
    7.9519  -20.6298   27.1290 N   0  0  0  0  0  0  0  0  0  0  0  0
    8.0105  -20.1723   25.7488 C   0  0  0  0  0  0  0  0  0  0  0  0
    8.0116  -18.6670   25.7697 C   0  0  0  0  0  0  0  0  0  0  0  0
    8.1042  -18.0449   24.4243 C   0  0  0  0  0  0  0  0  0  0  0  0
    8.0428  -16.5256   24.4259 C   0  0  2  0  0  0  0  0  0  0  0  0
    8.1335  -16.1601   22.9976 N   0  0  0  0  0  0  0  0  0  0  0  0
    9.2461  -16.0058   25.0922 C   0  0  0  0  0  0  0  0  0  0  0  0
   10.2510  -15.6938   24.3931 O   0  0  0  0  0  0  0  0  0  0  0  0
    9.3746  -15.8258   26.4532 O   0  0  0  0  0  0  0  0  0  0  0  0
  2  1  1  1
  2  3  1  0
  4  3  1  0
  4  5  1  0
  5  6  2  0
  7  2  1  0
  8  7  2  0
  9  5  1  0
 10  7  1  0
 11 10  1  0
 12 13  1  0
 11 12  1  1
 13 14  1  0
 14 18  1  0
 14 15  2  0
 16 11  1  0
 16 17  2  0
 20 19  1  0
 21 20  2  0
 22 20  1  0
 23 22  1  0
 24 23  1  0
 25 24  1  0
 26 25  1  6
 26 27  1  0
 27 16  1  0
 28 26  1  0
 29 28  2  0
 30 28  1  0
M  END
$$$$
