EER.pdb
     RDKit          3D

 30 29  0  0  1  0  0  0  0  0999 V2000
   11.6578  -17.4462   16.5154 N   0  0  0  0  0  0  0  0  0  0  0  0
   10.5048  -17.6840   17.3527 C   0  0  1  0  0  0  0  0  0  0  0  0
    9.6131  -18.7482   16.6636 C   0  0  0  0  0  0  0  0  0  0  0  0
    9.2927  -18.2768   15.2585 C   0  0  0  0  0  0  0  0  0  0  0  0
    8.4629  -19.3008   14.5864 C   0  0  0  0  0  0  0  0  0  0  0  0
    7.3452  -19.6318   15.1033 O   0  0  0  0  0  0  0  0  0  0  0  0
   10.8063  -18.0860   18.7275 C   0  0  0  0  0  0  0  0  0  0  0  0
    9.8531  -18.4132   19.4890 O   0  0  0  0  0  0  0  0  0  0  0  0
    8.8005  -19.9516   13.4108 O   0  0  0  0  0  0  0  0  0  0  0  0
   12.0741  -18.1633   19.3417 N   0  0  0  0  0  0  0  0  0  0  0  0
   12.3682  -18.6709   20.6356 C   0  0  1  0  0  0  0  0  0  0  0  0
   13.3175  -19.7947   20.7515 C   0  0  0  0  0  0  0  0  0  0  0  0
   14.5058  -19.5422   19.8250 C   0  0  0  0  0  0  0  0  0  0  0  0
   15.5588  -20.5568   19.9767 C   0  0  0  0  0  0  0  0  0  0  0  0
   16.7402  -20.2164   20.1871 O   0  0  0  0  0  0  0  0  0  0  0  0
   12.8021  -17.5607   21.5083 C   0  0  0  0  0  0  0  0  0  0  0  0
   13.6508  -16.7192   21.0425 O   0  0  0  0  0  0  0  0  0  0  0  0
   15.2678  -21.9074   19.8904 O   0  0  0  0  0  0  0  0  0  0  0  0
    9.6800  -16.5387   29.3344 N   0  0  0  0  0  0  0  0  0  0  0  0
   11.0712  -16.2906   29.2640 C   0  0  0  0  0  0  0  0  0  0  0  0
   11.8062  -16.2426   30.3152 N   0  0  0  0  0  0  0  0  0  0  0  0
   11.7237  -16.0802   28.0054 N   0  0  0  0  0  0  0  0  0  0  0  0
   11.1998  -15.1456   27.0208 C   0  0  0  0  0  0  0  0  0  0  0  0
   12.1473  -15.1410   25.8508 C   0  0  0  0  0  0  0  0  0  0  0  0
   11.8752  -16.2037   24.8497 C   0  0  0  0  0  0  0  0  0  0  0  0
   12.7548  -16.1438   23.6109 C   0  0  2  0  0  0  0  0  0  0  0  0
   12.3614  -17.3356   22.8320 N   0  0  0  0  0  0  0  0  0  0  0  0
   14.1560  -16.3249   24.0182 C   0  0  0  0  0  0  0  0  0  0  0  0
   14.5845  -17.4908   24.2486 O   0  0  0  0  0  0  0  0  0  0  0  0
   15.0669  -15.3019   24.1754 O   0  0  0  0  0  0  0  0  0  0  0  0
  2  1  1  6
  2  3  1  0
  4  3  1  0
  4  5  1  0
  5  6  2  0
  7  2  1  0
  8  7  2  0
  9  5  1  0
 10  7  1  0
 11 10  1  0
 12 13  1  0
 11 12  1  6
 13 14  1  0
 14 18  1  0
 14 15  2  0
 16 11  1  0
 16 17  2  0
 20 19  1  0
 21 20  2  0
 22 20  1  0
 23 22  1  0
 24 23  1  0
 25 24  1  0
 26 25  1  1
 26 27  1  0
 27 16  1  0
 28 26  1  0
 29 28  2  0
 30 28  1  0
M  END
$$$$
