EER.pdb
     RDKit          3D

 30 29  0  0  1  0  0  0  0  0999 V2000
   12.7246  -18.9471   18.5154 N   0  0  0  0  0  0  0  0  0  0  0  0
   11.8816  -17.7788   18.6235 C   0  0  1  0  0  0  0  0  0  0  0  0
   11.2669  -17.4907   17.2300 C   0  0  0  0  0  0  0  0  0  0  0  0
   11.3439  -18.7540   16.3949 C   0  0  0  0  0  0  0  0  0  0  0  0
   10.7198  -18.4977   15.0783 C   0  0  0  0  0  0  0  0  0  0  0  0
   11.4292  -18.6019   14.0238 O   0  0  0  0  0  0  0  0  0  0  0  0
   10.8283  -17.8629   19.6365 C   0  0  0  0  0  0  0  0  0  0  0  0
    9.8959  -17.0111   19.6174 O   0  0  0  0  0  0  0  0  0  0  0  0
    9.3946  -18.1445   14.8818 O   0  0  0  0  0  0  0  0  0  0  0  0
   10.7082  -18.8110   20.6745 N   0  0  0  0  0  0  0  0  0  0  0  0
    9.6557  -18.9117   21.6233 C   0  0  1  0  0  0  0  0  0  0  0  0
    9.4425  -20.2039   22.3032 C   0  0  0  0  0  0  0  0  0  0  0  0
    8.8298  -21.1937   21.3137 C   0  0  0  0  0  0  0  0  0  0  0  0
    8.5419  -22.4963   21.9314 C   0  0  0  0  0  0  0  0  0  0  0  0
    7.4486  -22.7014   22.4958 O   0  0  0  0  0  0  0  0  0  0  0  0
    9.8003  -17.8384   22.6281 C   0  0  0  0  0  0  0  0  0  0  0  0
   10.9748  -17.5789   23.0737 O   0  0  0  0  0  0  0  0  0  0  0  0
    9.4711  -23.5220   21.9026 O   0  0  0  0  0  0  0  0  0  0  0  0
    4.8416  -12.5047   26.5687 N   0  0  0  0  0  0  0  0  0  0  0  0
    6.0145  -11.7242   26.6988 C   0  0  0  0  0  0  0  0  0  0  0  0
    6.1042  -10.7708   27.5533 N   0  0  0  0  0  0  0  0  0  0  0  0
    7.1615  -11.9673   25.8745 N   0  0  0  0  0  0  0  0  0  0  0  0
    7.1216  -12.9153   24.7712 C   0  0  0  0  0  0  0  0  0  0  0  0
    7.5333  -14.2585   25.3124 C   0  0  0  0  0  0  0  0  0  0  0  0
    7.5965  -15.3293   24.2852 C   0  0  0  0  0  0  0  0  0  0  0  0
    8.9727  -15.9502   24.1048 C   0  0  2  0  0  0  0  0  0  0  0  0
    8.7463  -17.0573   23.1535 N   0  0  0  0  0  0  0  0  0  0  0  0
    9.3932  -16.5445   25.3823 C   0  0  0  0  0  0  0  0  0  0  0  0
   10.1221  -15.8713   26.1644 O   0  0  0  0  0  0  0  0  0  0  0  0
    9.0509  -17.8096   25.8106 O   0  0  0  0  0  0  0  0  0  0  0  0
  2  1  1  6
  2  3  1  0
  4  3  1  0
  4  5  1  0
  5  6  2  0
  7  2  1  0
  8  7  2  0
  9  5  1  0
 10  7  1  0
 11 10  1  0
 12 13  1  0
 11 12  1  1
 13 14  1  0
 14 18  1  0
 14 15  2  0
 16 11  1  0
 16 17  2  0
 20 19  1  0
 21 20  2  0
 22 20  1  0
 23 22  1  0
 24 23  1  0
 25 24  1  0
 26 25  1  1
 26 27  1  0
 27 16  1  0
 28 26  1  0
 29 28  2  0
 30 28  1  0
M  END
$$$$
