EER.pdb
     RDKit          3D

 30 29  0  0  1  0  0  0  0  0999 V2000
   12.2188  -17.8952   17.2624 N   0  0  0  0  0  0  0  0  0  0  0  0
   12.5311  -17.4277   18.5932 C   0  0  1  0  0  0  0  0  0  0  0  0
   12.8976  -15.9240   18.5081 C   0  0  0  0  0  0  0  0  0  0  0  0
   14.3518  -15.8014   18.0964 C   0  0  0  0  0  0  0  0  0  0  0  0
   14.6994  -14.3678   17.9837 C   0  0  0  0  0  0  0  0  0  0  0  0
   14.7601  -13.8324   16.8279 O   0  0  0  0  0  0  0  0  0  0  0  0
   11.4802  -17.6395   19.5899 C   0  0  0  0  0  0  0  0  0  0  0  0
   10.3576  -17.0868   19.4177 O   0  0  0  0  0  0  0  0  0  0  0  0
   14.9725  -13.5294   19.0523 O   0  0  0  0  0  0  0  0  0  0  0  0
   11.5556  -18.4143   20.7666 N   0  0  0  0  0  0  0  0  0  0  0  0
   10.5321  -18.6027   21.7337 C   0  0  1  0  0  0  0  0  0  0  0  0
   10.5758  -19.8120   22.5780 C   0  0  0  0  0  0  0  0  0  0  0  0
   10.4877  -21.0483   21.6847 C   0  0  0  0  0  0  0  0  0  0  0  0
   10.5388  -22.2996   22.4547 C   0  0  0  0  0  0  0  0  0  0  0  0
   11.4814  -23.1013   22.2977 O   0  0  0  0  0  0  0  0  0  0  0  0
   10.4418  -17.4014   22.5888 C   0  0  0  0  0  0  0  0  0  0  0  0
   11.5328  -16.8438   22.9685 O   0  0  0  0  0  0  0  0  0  0  0  0
    9.5484  -22.6178   23.3679 O   0  0  0  0  0  0  0  0  0  0  0  0
    9.3852  -13.9839   18.8414 N   0  0  0  0  0  0  0  0  0  0  0  0
    8.9317  -12.8436   19.5457 C   0  0  0  0  0  0  0  0  0  0  0  0
    9.0286  -11.6608   19.0567 N   0  0  0  0  0  0  0  0  0  0  0  0
    8.3404  -12.9623   20.8458 N   0  0  0  0  0  0  0  0  0  0  0  0
    8.4393  -14.1904   21.6201 C   0  0  0  0  0  0  0  0  0  0  0  0
    7.7467  -13.9540   22.9358 C   0  0  0  0  0  0  0  0  0  0  0  0
    7.8341  -15.0986   23.8780 C   0  0  0  0  0  0  0  0  0  0  0  0
    9.2253  -15.6960   24.0179 C   0  0  2  0  0  0  0  0  0  0  0  0
    9.2442  -16.7989   23.0355 N   0  0  0  0  0  0  0  0  0  0  0  0
    9.3496  -16.2937   25.3556 C   0  0  0  0  0  0  0  0  0  0  0  0
    9.1093  -17.5250   25.5047 O   0  0  0  0  0  0  0  0  0  0  0  0
    9.7152  -15.6051   26.4929 O   0  0  0  0  0  0  0  0  0  0  0  0
  2  1  1  6
  2  3  1  0
  4  3  1  0
  4  5  1  0
  5  6  2  0
  7  2  1  0
  8  7  2  0
  9  5  1  0
 10  7  1  0
 11 10  1  0
 12 13  1  0
 11 12  1  1
 13 14  1  0
 14 18  1  0
 14 15  2  0
 16 11  1  0
 16 17  2  0
 20 19  1  0
 21 20  2  0
 22 20  1  0
 23 22  1  0
 24 23  1  0
 25 24  1  0
 26 25  1  1
 26 27  1  0
 27 16  1  0
 28 26  1  0
 29 28  2  0
 30 28  1  0
M  END
$$$$
