PCF.pdb
     RDKit          3D

 25 26  0  0  1  0  0  0  0  0999 V2000
    9.0081  -14.7680   18.9457 N   0  0  0  0  0  0  0  0  0  0  0  0
    7.8971  -14.7160   18.0516 C   0  0  0  0  0  0  0  0  0  0  0  0
    7.0594  -13.5386   18.4898 C   0  0  0  0  0  0  0  0  0  0  0  0
    7.9565  -12.7449   19.4312 C   0  0  0  0  0  0  0  0  0  0  0  0
    8.8393  -13.8133   19.9926 C   0  0  1  0  0  0  0  0  0  0  0  0
    8.1367  -14.4356   21.1616 C   0  0  0  0  0  0  0  0  0  0  0  0
    7.5420  -13.7288   22.0167 O   0  0  0  0  0  0  0  0  0  0  0  0
    8.1004  -15.8435   21.3718 N   0  0  0  0  0  0  0  0  0  0  0  0
    7.4167  -16.3942   22.5527 C   0  0  1  0  0  0  0  0  0  0  0  0
    7.2546  -17.8817   22.2827 C   0  0  0  0  0  0  0  0  0  0  0  0
    6.3185  -18.6498   23.6219 S   0  0  0  0  0  0  0  0  0  0  0  0
    8.3142  -16.1874   23.7168 C   0  0  0  0  0  0  0  0  0  0  0  0
    9.5624  -16.1109   23.6195 O   0  0  0  0  0  0  0  0  0  0  0  0
    7.7478  -16.0687   25.0079 N   0  0  0  0  0  0  0  0  0  0  0  0
    8.6030  -15.8767   26.1770 C   0  0  1  0  0  0  0  0  0  0  0  0
    7.8402  -15.1928   27.2868 C   0  0  0  0  0  0  0  0  0  0  0  0
    7.3654  -13.8488   26.9695 C   0  0  0  0  0  0  0  0  0  0  0  0
    8.3017  -12.8273   26.8266 C   0  0  0  0  0  0  0  0  0  0  0  0
    7.8357  -11.5714   26.5174 C   0  0  0  0  0  0  0  0  0  0  0  0
    6.4866  -11.3091   26.3496 C   0  0  0  0  0  0  0  0  0  0  0  0
    5.5643  -12.3276   26.4929 C   0  0  0  0  0  0  0  0  0  0  0  0
    6.0128  -13.5941   26.8028 C   0  0  0  0  0  0  0  0  0  0  0  0
    9.0986  -17.2112   26.5858 C   0  0  0  0  0  0  0  0  0  0  0  0
    9.9478  -17.3480   27.5299 O   0  0  0  0  0  0  0  0  0  0  0  0
    8.6370  -18.3468   25.9374 O   0  0  0  0  0  0  0  0  0  0  0  0
  1  2  1  0
  2  3  1  0
  4  3  1  0
  5  1  1  0
  5  4  1  0
  5  6  1  1
  7  6  2  0
  8  6  1  0
  9  8  1  0
  9 10  1  6
 11 10  1  0
 12  9  1  0
 12 13  2  0
 14 12  1  0
 15 14  1  0
 15 16  1  1
 16 17  1  0
 17 22  1  0
 17 18  2  0
 18 19  1  0
 19 20  2  0
 21 20  1  0
 22 21  2  0
 23 15  1  0
 24 23  2  0
 25 23  1  0
M  END
$$$$
