PCF.pdb
     RDKit          3D

 25 26  0  0  1  0  0  0  0  0999 V2000
    7.9184  -15.2083   18.9131 N   0  0  0  0  0  0  0  0  0  0  0  0
    7.0539  -14.2387   18.3224 C   0  0  0  0  0  0  0  0  0  0  0  0
    7.5787  -12.8897   18.7525 C   0  0  0  0  0  0  0  0  0  0  0  0
    8.9727  -13.1656   19.3017 C   0  0  0  0  0  0  0  0  0  0  0  0
    8.8383  -14.5700   19.7977 C   0  0  1  0  0  0  0  0  0  0  0  0
    8.2821  -14.5243   21.1891 C   0  0  0  0  0  0  0  0  0  0  0  0
    8.8267  -13.8300   22.0866 O   0  0  0  0  0  0  0  0  0  0  0  0
    7.1210  -15.2535   21.5734 N   0  0  0  0  0  0  0  0  0  0  0  0
    7.2507  -16.4560   22.4117 C   0  0  1  0  0  0  0  0  0  0  0  0
    7.9051  -17.5080   21.5302 C   0  0  0  0  0  0  0  0  0  0  0  0
    8.2073  -19.0086   22.4876 S   0  0  0  0  0  0  0  0  0  0  0  0
    8.1519  -16.1107   23.5395 C   0  0  0  0  0  0  0  0  0  0  0  0
    9.3134  -15.6643   23.3816 O   0  0  0  0  0  0  0  0  0  0  0  0
    7.6916  -16.2889   24.8655 N   0  0  0  0  0  0  0  0  0  0  0  0
    8.5335  -15.9117   25.9986 C   0  0  1  0  0  0  0  0  0  0  0  0
    7.7287  -15.1578   27.0307 C   0  0  0  0  0  0  0  0  0  0  0  0
    7.2804  -13.8322   26.6132 C   0  0  0  0  0  0  0  0  0  0  0  0
    8.2296  -12.8235   26.4645 C   0  0  0  0  0  0  0  0  0  0  0  0
    7.7891  -11.5854   26.0605 C   0  0  0  0  0  0  0  0  0  0  0  0
    6.4528  -11.3285   25.8049 C   0  0  0  0  0  0  0  0  0  0  0  0
    5.5176  -12.3343   25.9545 C   0  0  0  0  0  0  0  0  0  0  0  0
    5.9405  -13.5829   26.3589 C   0  0  0  0  0  0  0  0  0  0  0  0
    9.1150  -17.1570   26.5507 C   0  0  0  0  0  0  0  0  0  0  0  0
    8.7222  -18.3079   26.1603 O   0  0  0  0  0  0  0  0  0  0  0  0
   10.1106  -17.0859   27.5133 O   0  0  0  0  0  0  0  0  0  0  0  0
  1  2  1  0
  2  3  1  0
  4  3  1  0
  5  1  1  0
  5  4  1  0
  5  6  1  1
  7  6  2  0
  8  6  1  0
  9  8  1  0
  9 10  1  6
 11 10  1  0
 12  9  1  0
 12 13  2  0
 14 12  1  0
 15 14  1  0
 15 16  1  1
 16 17  1  0
 17 22  1  0
 17 18  2  0
 18 19  1  0
 19 20  2  0
 21 20  1  0
 22 21  2  0
 23 15  1  0
 24 23  2  0
 25 23  1  0
M  END
$$$$
