PCF.pdb
     RDKit          3D

 25 26  0  0  1  0  0  0  0  0999 V2000
    8.6790  -15.2048   18.4934 N   0  0  0  0  0  0  0  0  0  0  0  0
    7.5550  -14.8581   17.6853 C   0  0  0  0  0  0  0  0  0  0  0  0
    7.1684  -13.4536   18.0829 C   0  0  0  0  0  0  0  0  0  0  0  0
    8.3550  -12.9289   18.8814 C   0  0  0  0  0  0  0  0  0  0  0  0
    8.9171  -14.1863   19.4640 C   0  0  1  0  0  0  0  0  0  0  0  0
    8.1766  -14.4871   20.7323 C   0  0  0  0  0  0  0  0  0  0  0  0
    8.1746  -13.6755   21.6944 O   0  0  0  0  0  0  0  0  0  0  0  0
    7.4415  -15.6918   20.9220 N   0  0  0  0  0  0  0  0  0  0  0  0
    6.8450  -15.9915   22.2334 C   0  0  1  0  0  0  0  0  0  0  0  0
    6.1452  -17.3320   22.0746 C   0  0  0  0  0  0  0  0  0  0  0  0
    7.3705  -18.6491   21.9211 S   0  0  0  0  0  0  0  0  0  0  0  0
    7.9599  -16.1161   23.2055 C   0  0  0  0  0  0  0  0  0  0  0  0
    9.1522  -16.3064   22.8659 O   0  0  0  0  0  0  0  0  0  0  0  0
    7.6790  -16.0173   24.5887 N   0  0  0  0  0  0  0  0  0  0  0  0
    8.7657  -15.9911   25.5651 C   0  0  1  0  0  0  0  0  0  0  0  0
    9.2201  -14.5728   25.8163 C   0  0  0  0  0  0  0  0  0  0  0  0
    8.1493  -13.6294   26.1260 C   0  0  0  0  0  0  0  0  0  0  0  0
    7.4666  -13.0263   25.0721 C   0  0  0  0  0  0  0  0  0  0  0  0
    6.4548  -12.1492   25.3842 C   0  0  0  0  0  0  0  0  0  0  0  0
    6.1101  -11.8613   26.6939 C   0  0  0  0  0  0  0  0  0  0  0  0
    6.7919  -12.4637   27.7335 C   0  0  0  0  0  0  0  0  0  0  0  0
    7.8098  -13.3464   27.4401 C   0  0  0  0  0  0  0  0  0  0  0  0
    8.2664  -16.6399   26.7993 C   0  0  0  0  0  0  0  0  0  0  0  0
    7.0454  -16.9946   26.9205 O   0  0  0  0  0  0  0  0  0  0  0  0
    9.1344  -16.8749   27.8549 O   0  0  0  0  0  0  0  0  0  0  0  0
  1  2  1  0
  2  3  1  0
  4  3  1  0
  5  1  1  0
  5  4  1  0
  5  6  1  1
  7  6  2  0
  8  6  1  0
  9  8  1  0
  9 10  1  6
 11 10  1  0
 12  9  1  0
 12 13  2  0
 14 12  1  0
 15 14  1  0
 15 16  1  1
 16 17  1  0
 17 22  1  0
 17 18  2  0
 18 19  1  0
 19 20  2  0
 21 20  1  0
 22 21  2  0
 23 15  1  0
 24 23  2  0
 25 23  1  0
M  END
$$$$
