PCF.pdb
     RDKit          3D

 25 26  0  0  1  0  0  0  0  0999 V2000
    9.2180  -14.5359   18.7662 N   0  0  0  0  0  0  0  0  0  0  0  0
    8.0962  -14.4729   17.8863 C   0  0  0  0  0  0  0  0  0  0  0  0
    7.1640  -13.4365   18.4670 C   0  0  0  0  0  0  0  0  0  0  0  0
    7.9993  -12.6882   19.4982 C   0  0  0  0  0  0  0  0  0  0  0  0
    8.9787  -13.7355   19.9229 C   0  0  1  0  0  0  0  0  0  0  0  0
    8.3470  -14.5559   21.0069 C   0  0  0  0  0  0  0  0  0  0  0  0
    7.3894  -14.1077   21.6899 O   0  0  0  0  0  0  0  0  0  0  0  0
    8.7860  -15.8727   21.3245 N   0  0  0  0  0  0  0  0  0  0  0  0
    8.2167  -16.5793   22.4831 C   0  0  1  0  0  0  0  0  0  0  0  0
    8.4884  -18.0560   22.2434 C   0  0  0  0  0  0  0  0  0  0  0  0
    7.4422  -18.6623   20.9027 S   0  0  0  0  0  0  0  0  0  0  0  0
    8.9555  -16.1188   23.6855 C   0  0  0  0  0  0  0  0  0  0  0  0
   10.1496  -15.7362   23.6559 O   0  0  0  0  0  0  0  0  0  0  0  0
    8.2923  -16.1051   24.9352 N   0  0  0  0  0  0  0  0  0  0  0  0
    9.0223  -15.7757   26.1574 C   0  0  1  0  0  0  0  0  0  0  0  0
    8.0990  -15.1489   27.1752 C   0  0  0  0  0  0  0  0  0  0  0  0
    7.5499  -13.8515   26.7910 C   0  0  0  0  0  0  0  0  0  0  0  0
    6.1874  -13.7592   26.5158 C   0  0  0  0  0  0  0  0  0  0  0  0
    5.6878  -12.5270   26.1661 C   0  0  0  0  0  0  0  0  0  0  0  0
    6.4933  -11.4038   26.0844 C   0  0  0  0  0  0  0  0  0  0  0  0
    7.8435  -11.5036   26.3590 C   0  0  0  0  0  0  0  0  0  0  0  0
    8.3630  -12.7313   26.7115 C   0  0  0  0  0  0  0  0  0  0  0  0
    9.6315  -17.0289   26.6593 C   0  0  0  0  0  0  0  0  0  0  0  0
    9.2123  -18.1741   26.2799 O   0  0  0  0  0  0  0  0  0  0  0  0
   10.6830  -16.9717   27.5616 O   0  0  0  0  0  0  0  0  0  0  0  0
  1  2  1  0
  2  3  1  0
  4  3  1  0
  5  1  1  0
  5  4  1  0
  5  6  1  1
  7  6  2  0
  8  6  1  0
  9  8  1  0
  9 10  1  6
 11 10  1  0
 12  9  1  0
 12 13  2  0
 14 12  1  0
 15 14  1  0
 15 16  1  1
 16 17  1  0
 17 22  1  0
 17 18  2  0
 18 19  1  0
 19 20  2  0
 21 20  1  0
 22 21  2  0
 23 15  1  0
 24 23  2  0
 25 23  1  0
M  END
$$$$
