PCF.pdb
     RDKit          3D

 25 26  0  0  1  0  0  0  0  0999 V2000
    8.8968  -14.3046   18.4245 N   0  0  0  0  0  0  0  0  0  0  0  0
    7.6728  -14.1644   17.7044 C   0  0  0  0  0  0  0  0  0  0  0  0
    6.7958  -13.2606   18.5376 C   0  0  0  0  0  0  0  0  0  0  0  0
    7.7351  -12.6318   19.5590 C   0  0  0  0  0  0  0  0  0  0  0  0
    8.7847  -13.6868   19.7058 C   0  0  1  0  0  0  0  0  0  0  0  0
    8.3132  -14.6782   20.7266 C   0  0  0  0  0  0  0  0  0  0  0  0
    7.0934  -14.9676   20.8397 O   0  0  0  0  0  0  0  0  0  0  0  0
    9.2041  -15.3426   21.6169 N   0  0  0  0  0  0  0  0  0  0  0  0
    8.6863  -16.3352   22.5718 C   0  0  1  0  0  0  0  0  0  0  0  0
    9.3333  -17.6568   22.1887 C   0  0  0  0  0  0  0  0  0  0  0  0
   11.1270  -17.4639   22.1183 S   0  0  0  0  0  0  0  0  0  0  0  0
    9.1410  -15.9238   23.9237 C   0  0  0  0  0  0  0  0  0  0  0  0
   10.0919  -15.1296   24.1187 O   0  0  0  0  0  0  0  0  0  0  0  0
    8.4778  -16.4455   25.0594 N   0  0  0  0  0  0  0  0  0  0  0  0
    8.9475  -16.1225   26.4047 C   0  0  1  0  0  0  0  0  0  0  0  0
    7.8300  -15.5292   27.2296 C   0  0  0  0  0  0  0  0  0  0  0  0
    7.5027  -14.1414   26.9145 C   0  0  0  0  0  0  0  0  0  0  0  0
    8.4649  -13.1607   27.1445 C   0  0  0  0  0  0  0  0  0  0  0  0
    8.1413  -11.8616   26.8316 C   0  0  0  0  0  0  0  0  0  0  0  0
    6.9077  -11.5182   26.3051 C   0  0  0  0  0  0  0  0  0  0  0  0
    5.9588  -12.4967   26.0798 C   0  0  0  0  0  0  0  0  0  0  0  0
    6.2651  -13.8055   26.3874 C   0  0  0  0  0  0  0  0  0  0  0  0
    9.4732  -17.3721   27.0010 C   0  0  0  0  0  0  0  0  0  0  0  0
    9.2364  -18.5130   26.4779 O   0  0  0  0  0  0  0  0  0  0  0  0
   10.2430  -17.3163   28.1531 O   0  0  0  0  0  0  0  0  0  0  0  0
  1  2  1  0
  2  3  1  0
  4  3  1  0
  5  1  1  0
  5  4  1  0
  5  6  1  1
  7  6  2  0
  8  6  1  0
  9  8  1  0
  9 10  1  6
 11 10  1  0
 12  9  1  0
 12 13  2  0
 14 12  1  0
 15 14  1  0
 15 16  1  1
 16 17  1  0
 17 22  1  0
 17 18  2  0
 18 19  1  0
 19 20  2  0
 21 20  1  0
 22 21  2  0
 23 15  1  0
 24 23  2  0
 25 23  1  0
M  END
$$$$
