PCF.pdb
     RDKit          3D

 25 26  0  0  1  0  0  0  0  0999 V2000
    9.0068  -14.6540   18.8524 N   0  0  0  0  0  0  0  0  0  0  0  0
    7.8865  -14.5497   17.9745 C   0  0  0  0  0  0  0  0  0  0  0  0
    7.0579  -13.3953   18.4855 C   0  0  0  0  0  0  0  0  0  0  0  0
    7.9679  -12.6571   19.4591 C   0  0  0  0  0  0  0  0  0  0  0  0
    8.8527  -13.7574   19.9517 C   0  0  1  0  0  0  0  0  0  0  0  0
    8.1603  -14.4405   21.0924 C   0  0  0  0  0  0  0  0  0  0  0  0
    7.5413  -13.7816   21.9682 O   0  0  0  0  0  0  0  0  0  0  0  0
    8.1612  -15.8555   21.2514 N   0  0  0  0  0  0  0  0  0  0  0  0
    7.4573  -16.4691   22.3887 C   0  0  1  0  0  0  0  0  0  0  0  0
    7.3255  -17.9451   22.0482 C   0  0  0  0  0  0  0  0  0  0  0  0
    6.3567  -18.7839   23.3200 S   0  0  0  0  0  0  0  0  0  0  0  0
    8.3224  -16.3020   23.5834 C   0  0  0  0  0  0  0  0  0  0  0  0
    9.5755  -16.3249   23.5353 O   0  0  0  0  0  0  0  0  0  0  0  0
    7.7173  -16.1060   24.8472 N   0  0  0  0  0  0  0  0  0  0  0  0
    8.5390  -15.9372   26.0435 C   0  0  1  0  0  0  0  0  0  0  0  0
    7.7850  -15.1674   27.1018 C   0  0  0  0  0  0  0  0  0  0  0  0
    7.4062  -13.8092   26.7220 C   0  0  0  0  0  0  0  0  0  0  0  0
    8.4112  -12.9089   26.3757 C   0  0  0  0  0  0  0  0  0  0  0  0
    8.0335  -11.6383   26.0109 C   0  0  0  0  0  0  0  0  0  0  0  0
    6.7059  -11.2463   25.9819 C   0  0  0  0  0  0  0  0  0  0  0  0
    5.7151  -12.1452   26.3266 C   0  0  0  0  0  0  0  0  0  0  0  0
    6.0745  -13.4243   26.6952 C   0  0  0  0  0  0  0  0  0  0  0  0
    8.9231  -17.2895   26.5099 C   0  0  0  0  0  0  0  0  0  0  0  0
    8.4024  -18.3422   26.0079 O   0  0  0  0  0  0  0  0  0  0  0  0
    9.8698  -17.4301   27.5135 O   0  0  0  0  0  0  0  0  0  0  0  0
  1  2  1  0
  2  3  1  0
  4  3  1  0
  5  1  1  0
  5  4  1  0
  5  6  1  1
  7  6  2  0
  8  6  1  0
  9  8  1  0
  9 10  1  6
 11 10  1  0
 12  9  1  0
 12 13  2  0
 14 12  1  0
 15 14  1  0
 15 16  1  1
 16 17  1  0
 17 22  1  0
 17 18  2  0
 18 19  1  0
 19 20  2  0
 21 20  1  0
 22 21  2  0
 23 15  1  0
 24 23  2  0
 25 23  1  0
M  END
$$$$
