PCF.pdb
     RDKit          3D

 25 26  0  0  1  0  0  0  0  0999 V2000
    9.0474  -14.5538   18.8937 N   0  0  0  0  0  0  0  0  0  0  0  0
    7.9337  -14.4407   18.0086 C   0  0  0  0  0  0  0  0  0  0  0  0
    7.0940  -13.3005   18.5330 C   0  0  0  0  0  0  0  0  0  0  0  0
    7.9914  -12.5742   19.5271 C   0  0  0  0  0  0  0  0  0  0  0  0
    8.8789  -13.6778   20.0074 C   0  0  1  0  0  0  0  0  0  0  0  0
    8.1813  -14.3851   21.1301 C   0  0  0  0  0  0  0  0  0  0  0  0
    7.4917  -13.7519   21.9714 O   0  0  0  0  0  0  0  0  0  0  0  0
    8.2560  -15.7957   21.3097 N   0  0  0  0  0  0  0  0  0  0  0  0
    7.5576  -16.4323   22.4378 C   0  0  1  0  0  0  0  0  0  0  0  0
    7.4810  -17.9121   22.0971 C   0  0  0  0  0  0  0  0  0  0  0  0
    5.9799  -18.2468   21.1513 S   0  0  0  0  0  0  0  0  0  0  0  0
    8.3999  -16.2350   23.6441 C   0  0  0  0  0  0  0  0  0  0  0  0
    9.6356  -16.0258   23.5950 O   0  0  0  0  0  0  0  0  0  0  0  0
    7.7923  -16.2827   24.9210 N   0  0  0  0  0  0  0  0  0  0  0  0
    8.5858  -16.0600   26.1275 C   0  0  1  0  0  0  0  0  0  0  0  0
    7.7866  -15.2943   27.1553 C   0  0  0  0  0  0  0  0  0  0  0  0
    7.3992  -13.9450   26.7529 C   0  0  0  0  0  0  0  0  0  0  0  0
    6.0587  -13.6924   26.4706 C   0  0  0  0  0  0  0  0  0  0  0  0
    5.7125  -12.4134   26.1038 C   0  0  0  0  0  0  0  0  0  0  0  0
    6.6480  -11.3968   26.0120 C   0  0  0  0  0  0  0  0  0  0  0  0
    7.9755  -11.6554   26.2937 C   0  0  0  0  0  0  0  0  0  0  0  0
    8.3419  -12.9322   26.6634 C   0  0  0  0  0  0  0  0  0  0  0  0
    9.0074  -17.3878   26.6302 C   0  0  0  0  0  0  0  0  0  0  0  0
    8.4766  -18.4656   26.1966 O   0  0  0  0  0  0  0  0  0  0  0  0
   10.0013  -17.4772   27.5932 O   0  0  0  0  0  0  0  0  0  0  0  0
  1  2  1  0
  2  3  1  0
  4  3  1  0
  5  1  1  0
  5  4  1  0
  5  6  1  1
  7  6  2  0
  8  6  1  0
  9  8  1  0
  9 10  1  6
 11 10  1  0
 12  9  1  0
 12 13  2  0
 14 12  1  0
 15 14  1  0
 15 16  1  1
 16 17  1  0
 17 22  1  0
 17 18  2  0
 18 19  1  0
 19 20  2  0
 21 20  1  0
 22 21  2  0
 23 15  1  0
 24 23  2  0
 25 23  1  0
M  END
$$$$
