PCF.pdb
     RDKit          3D

 25 26  0  0  1  0  0  0  0  0999 V2000
    9.0550  -14.3365   18.5006 N   0  0  0  0  0  0  0  0  0  0  0  0
    7.8961  -14.0710   17.7112 C   0  0  0  0  0  0  0  0  0  0  0  0
    7.0552  -13.1047   18.5107 C   0  0  0  0  0  0  0  0  0  0  0  0
    7.9825  -12.5835   19.6013 C   0  0  0  0  0  0  0  0  0  0  0  0
    8.9202  -13.7336   19.7868 C   0  0  1  0  0  0  0  0  0  0  0  0
    8.2973  -14.6949   20.7539 C   0  0  0  0  0  0  0  0  0  0  0  0
    7.0527  -14.7175   20.9406 O   0  0  0  0  0  0  0  0  0  0  0  0
    9.0652  -15.6266   21.5087 N   0  0  0  0  0  0  0  0  0  0  0  0
    8.3962  -16.5479   22.4410 C   0  0  1  0  0  0  0  0  0  0  0  0
    8.8526  -17.9432   22.0450 C   0  0  0  0  0  0  0  0  0  0  0  0
   10.6560  -18.0041   21.9830 S   0  0  0  0  0  0  0  0  0  0  0  0
    8.8850  -16.2251   23.8049 C   0  0  0  0  0  0  0  0  0  0  0  0
    9.9357  -15.5762   24.0247 O   0  0  0  0  0  0  0  0  0  0  0  0
    8.1387  -16.6648   24.9236 N   0  0  0  0  0  0  0  0  0  0  0  0
    8.6031  -16.3842   26.2803 C   0  0  1  0  0  0  0  0  0  0  0  0
    7.5155  -15.7143   27.0863 C   0  0  0  0  0  0  0  0  0  0  0  0
    7.2777  -14.3126   26.7532 C   0  0  0  0  0  0  0  0  0  0  0  0
    6.2084  -13.9980   25.9176 C   0  0  0  0  0  0  0  0  0  0  0  0
    5.9948  -12.6718   25.6244 C   0  0  0  0  0  0  0  0  0  0  0  0
    6.8024  -11.6679   26.1314 C   0  0  0  0  0  0  0  0  0  0  0  0
    7.8607  -11.9882   26.9596 C   0  0  0  0  0  0  0  0  0  0  0  0
    8.0908  -13.3130   27.2651 C   0  0  0  0  0  0  0  0  0  0  0  0
    9.0228  -17.6724   26.8787 C   0  0  0  0  0  0  0  0  0  0  0  0
    8.7006  -18.7903   26.3516 O   0  0  0  0  0  0  0  0  0  0  0  0
    9.7846  -17.6792   28.0375 O   0  0  0  0  0  0  0  0  0  0  0  0
  1  2  1  0
  2  3  1  0
  4  3  1  0
  5  1  1  0
  5  4  1  0
  5  6  1  1
  7  6  2  0
  8  6  1  0
  9  8  1  0
  9 10  1  6
 11 10  1  0
 12  9  1  0
 12 13  2  0
 14 12  1  0
 15 14  1  0
 15 16  1  1
 16 17  1  0
 17 22  1  0
 17 18  2  0
 18 19  1  0
 19 20  2  0
 21 20  1  0
 22 21  2  0
 23 15  1  0
 24 23  2  0
 25 23  1  0
M  END
$$$$
