PCF.pdb
     RDKit          3D

 25 26  0  0  1  0  0  0  0  0999 V2000
    8.8261  -15.0947   18.6522 N   0  0  0  0  0  0  0  0  0  0  0  0
    7.6515  -14.8914   17.8677 C   0  0  0  0  0  0  0  0  0  0  0  0
    7.0888  -13.5557   18.2914 C   0  0  0  0  0  0  0  0  0  0  0  0
    8.2094  -12.8870   19.0776 C   0  0  0  0  0  0  0  0  0  0  0  0
    8.9442  -14.0651   19.6330 C   0  0  1  0  0  0  0  0  0  0  0  0
    8.2735  -14.4768   20.9090 C   0  0  0  0  0  0  0  0  0  0  0  0
    8.1208  -13.6634   21.8573 O   0  0  0  0  0  0  0  0  0  0  0  0
    7.7761  -15.7939   21.1216 N   0  0  0  0  0  0  0  0  0  0  0  0
    7.2604  -16.1816   22.4443 C   0  0  1  0  0  0  0  0  0  0  0  0
    6.7289  -17.5971   22.2842 C   0  0  0  0  0  0  0  0  0  0  0  0
    6.1058  -18.2010   23.8675 S   0  0  0  0  0  0  0  0  0  0  0  0
    8.4103  -16.1773   23.3831 C   0  0  0  0  0  0  0  0  0  0  0  0
    9.5818  -16.4640   23.0389 O   0  0  0  0  0  0  0  0  0  0  0  0
    8.1892  -15.8345   24.7379 N   0  0  0  0  0  0  0  0  0  0  0  0
    9.2966  -15.8308   25.6911 C   0  0  1  0  0  0  0  0  0  0  0  0
    9.6131  -14.4214   26.1323 C   0  0  0  0  0  0  0  0  0  0  0  0
    8.4487  -13.6020   26.4563 C   0  0  0  0  0  0  0  0  0  0  0  0
    8.2345  -13.2435   27.7853 C   0  0  0  0  0  0  0  0  0  0  0  0
    7.1387  -12.4631   28.0685 C   0  0  0  0  0  0  0  0  0  0  0  0
    6.2655  -12.0371   27.0820 C   0  0  0  0  0  0  0  0  0  0  0  0
    6.4848  -12.3968   25.7663 C   0  0  0  0  0  0  0  0  0  0  0  0
    7.5789  -13.1793   25.4628 C   0  0  0  0  0  0  0  0  0  0  0  0
    8.9025  -16.6926   26.8293 C   0  0  0  0  0  0  0  0  0  0  0  0
    9.6794  -16.8800   27.8256 O   0  0  0  0  0  0  0  0  0  0  0  0
    7.6634  -17.3154   26.8266 O   0  0  0  0  0  0  0  0  0  0  0  0
  1  2  1  0
  2  3  1  0
  4  3  1  0
  5  1  1  0
  5  4  1  0
  5  6  1  1
  7  6  2  0
  8  6  1  0
  9  8  1  0
  9 10  1  6
 11 10  1  0
 12  9  1  0
 12 13  2  0
 14 12  1  0
 15 14  1  0
 15 16  1  1
 16 17  1  0
 17 22  1  0
 17 18  2  0
 18 19  1  0
 19 20  2  0
 21 20  1  0
 22 21  2  0
 23 15  1  0
 24 23  2  0
 25 23  1  0
M  END
$$$$
