PCF.pdb
     RDKit          3D

 25 26  0  0  1  0  0  0  0  0999 V2000
    8.6353  -15.1440   18.4115 N   0  0  0  0  0  0  0  0  0  0  0  0
    7.4346  -14.7920   17.7252 C   0  0  0  0  0  0  0  0  0  0  0  0
    7.0196  -13.4452   18.2676 C   0  0  0  0  0  0  0  0  0  0  0  0
    8.2430  -12.9259   19.0123 C   0  0  0  0  0  0  0  0  0  0  0  0
    8.9063  -14.1953   19.4422 C   0  0  1  0  0  0  0  0  0  0  0  0
    8.2862  -14.6336   20.7348 C   0  0  0  0  0  0  0  0  0  0  0  0
    8.2626  -13.8734   21.7377 O   0  0  0  0  0  0  0  0  0  0  0  0
    7.6950  -15.9181   20.9032 N   0  0  0  0  0  0  0  0  0  0  0  0
    7.0967  -16.2896   22.1953 C   0  0  1  0  0  0  0  0  0  0  0  0
    6.5047  -17.6758   21.9956 C   0  0  0  0  0  0  0  0  0  0  0  0
    5.9380  -18.3344   23.5782 S   0  0  0  0  0  0  0  0  0  0  0  0
    8.1980  -16.3493   23.1888 C   0  0  0  0  0  0  0  0  0  0  0  0
    9.3424  -16.7887   22.9234 O   0  0  0  0  0  0  0  0  0  0  0  0
    7.9598  -15.8912   24.5061 N   0  0  0  0  0  0  0  0  0  0  0  0
    9.0528  -15.8159   25.4730 C   0  0  1  0  0  0  0  0  0  0  0  0
    9.4065  -14.3767   25.7640 C   0  0  0  0  0  0  0  0  0  0  0  0
    8.2860  -13.5411   26.1868 C   0  0  0  0  0  0  0  0  0  0  0  0
    8.1594  -13.2299   27.5388 C   0  0  0  0  0  0  0  0  0  0  0  0
    7.1039  -12.4334   27.9154 C   0  0  0  0  0  0  0  0  0  0  0  0
    6.1872  -11.9468   26.9989 C   0  0  0  0  0  0  0  0  0  0  0  0
    6.3198  -12.2599   25.6599 C   0  0  0  0  0  0  0  0  0  0  0  0
    7.3723  -13.0575   25.2631 C   0  0  0  0  0  0  0  0  0  0  0  0
    8.6154  -16.5363   26.6909 C   0  0  0  0  0  0  0  0  0  0  0  0
    9.3773  -16.6498   27.7097 O   0  0  0  0  0  0  0  0  0  0  0  0
    7.3513  -17.1043   26.7400 O   0  0  0  0  0  0  0  0  0  0  0  0
  1  2  1  0
  2  3  1  0
  4  3  1  0
  5  1  1  0
  5  4  1  0
  5  6  1  1
  7  6  2  0
  8  6  1  0
  9  8  1  0
  9 10  1  6
 11 10  1  0
 12  9  1  0
 12 13  2  0
 14 12  1  0
 15 14  1  0
 15 16  1  1
 16 17  1  0
 17 22  1  0
 17 18  2  0
 18 19  1  0
 19 20  2  0
 21 20  1  0
 22 21  2  0
 23 15  1  0
 24 23  2  0
 25 23  1  0
M  END
$$$$
