MCA.pdb
     RDKit          3D

 20 19  0  0  1  0  0  0  0  0999 V2000
    7.4270  -11.7491   20.9743 C   0  0  0  0  0  0  0  0  0  0  0  0
    8.2571  -12.1714   19.4166 S   0  0  0  0  0  0  0  0  0  0  0  0
    8.3637  -13.9693   19.2880 C   0  0  0  0  0  0  0  0  0  0  0  0
    8.3963  -14.5487   20.6816 C   0  0  0  0  0  0  0  0  0  0  0  0
    8.5797  -16.0422   20.6917 C   0  0  2  0  0  0  0  0  0  0  0  0
    7.5730  -16.7523   19.9500 N   0  0  0  0  0  0  0  0  0  0  0  0
    8.6440  -16.4767   22.1092 C   0  0  0  0  0  0  0  0  0  0  0  0
    7.5984  -16.6767   22.7785 O   0  0  0  0  0  0  0  0  0  0  0  0
    9.9077  -16.6829   22.7620 N   0  0  0  0  0  0  0  0  0  0  0  0
    9.9394  -17.1259   24.1495 C   0  0  1  0  0  0  0  0  0  0  0  0
   11.0516  -18.1567   24.2867 C   0  0  0  0  0  0  0  0  0  0  0  0
   10.3073  -19.7910   24.4020 S   0  0  0  0  0  0  0  0  0  0  0  0
   10.2355  -15.9337   24.9849 C   0  0  0  0  0  0  0  0  0  0  0  0
   11.2775  -15.2316   24.7705 O   0  0  0  0  0  0  0  0  0  0  0  0
    8.5155  -13.5917   27.1340 C   0  0  0  0  0  0  0  0  0  0  0  0
    9.7647  -14.4078   26.8777 C   0  0  2  0  0  0  0  0  0  0  0  0
    9.3952  -15.5254   26.0376 N   0  0  0  0  0  0  0  0  0  0  0  0
   10.3257  -14.9329   28.1410 C   0  0  0  0  0  0  0  0  0  0  0  0
   10.8893  -14.0393   29.0387 O   0  0  0  0  0  0  0  0  0  0  0  0
   10.3023  -16.1531   28.4132 O   0  0  0  0  0  0  0  0  0  0  0  0
  2  1  1  0
  3  2  1  0
  4  3  1  0
  4  5  1  0
  5  6  1  1
  7  5  1  0
  7  9  1  0
  8  7  2  0
 10  9  1  0
 10 13  1  0
 10 11  1  6
 12 11  1  0
 13 17  1  0
 13 14  2  0
 16 15  1  1
 16 18  1  0
 17 16  1  0
 18 19  1  0
 20 18  2  0
M  END
$$$$
