MCA.pdb
     RDKit          3D

 20 19  0  0  1  0  0  0  0  0999 V2000
    5.7197  -12.1512   26.4804 C   0  0  0  0  0  0  0  0  0  0  0  0
    6.6662  -11.1258   25.3200 S   0  0  0  0  0  0  0  0  0  0  0  0
    6.9461  -12.0728   23.8083 C   0  0  0  0  0  0  0  0  0  0  0  0
    7.4684  -13.4376   24.1871 C   0  0  0  0  0  0  0  0  0  0  0  0
    7.7529  -14.3087   22.9936 C   0  0  2  0  0  0  0  0  0  0  0  0
    6.5875  -14.6071   22.2059 N   0  0  0  0  0  0  0  0  0  0  0  0
    8.4282  -15.5356   23.4845 C   0  0  0  0  0  0  0  0  0  0  0  0
    7.7720  -16.4909   23.9724 O   0  0  0  0  0  0  0  0  0  0  0  0
    9.8576  -15.6694   23.4167 N   0  0  0  0  0  0  0  0  0  0  0  0
   10.5210  -16.7196   24.1780 C   0  0  1  0  0  0  0  0  0  0  0  0
   11.7152  -17.2031   23.3666 C   0  0  0  0  0  0  0  0  0  0  0  0
   12.5935  -18.4472   24.3252 S   0  0  0  0  0  0  0  0  0  0  0  0
   10.9768  -16.1149   25.4560 C   0  0  0  0  0  0  0  0  0  0  0  0
   11.8255  -15.1639   25.4595 O   0  0  0  0  0  0  0  0  0  0  0  0
   10.1109  -14.9336   28.4206 C   0  0  0  0  0  0  0  0  0  0  0  0
   11.0540  -16.0113   27.9290 C   0  0  2  0  0  0  0  0  0  0  0  0
   10.5032  -16.5535   26.7067 N   0  0  0  0  0  0  0  0  0  0  0  0
   11.1742  -17.1044   28.9175 C   0  0  0  0  0  0  0  0  0  0  0  0
   10.5008  -18.2924   28.6782 O   0  0  0  0  0  0  0  0  0  0  0  0
   11.8634  -16.9804   29.9535 O   0  0  0  0  0  0  0  0  0  0  0  0
  2  1  1  0
  3  2  1  0
  4  3  1  0
  4  5  1  0
  5  6  1  1
  7  5  1  0
  7  9  1  0
  8  7  2  0
 10  9  1  0
 10 13  1  0
 10 11  1  6
 12 11  1  0
 13 17  1  0
 13 14  2  0
 16 15  1  1
 16 18  1  0
 17 16  1  0
 18 19  1  0
 20 18  2  0
M  END
$$$$
