MCA.pdb
     RDKit          3D

 20 19  0  0  1  0  0  0  0  0999 V2000
    8.8174  -12.0053   21.0685 C   0  0  0  0  0  0  0  0  0  0  0  0
    7.8995  -13.0068   19.8650 S   0  0  0  0  0  0  0  0  0  0  0  0
    6.7368  -14.0609   20.7580 C   0  0  0  0  0  0  0  0  0  0  0  0
    6.6767  -15.4016   20.0669 C   0  0  0  0  0  0  0  0  0  0  0  0
    7.8762  -16.2637   20.3538 C   0  0  2  0  0  0  0  0  0  0  0  0
    7.9176  -17.4723   19.5760 N   0  0  0  0  0  0  0  0  0  0  0  0
    7.8958  -16.5338   21.8129 C   0  0  0  0  0  0  0  0  0  0  0  0
    6.8692  -16.9393   22.4154 O   0  0  0  0  0  0  0  0  0  0  0  0
    9.0930  -16.3395   22.5840 N   0  0  0  0  0  0  0  0  0  0  0  0
    9.1235  -16.7435   23.9835 C   0  0  1  0  0  0  0  0  0  0  0  0
   10.2551  -17.7474   24.1567 C   0  0  0  0  0  0  0  0  0  0  0  0
   10.4869  -18.0520   25.9149 S   0  0  0  0  0  0  0  0  0  0  0  0
    9.3895  -15.5230   24.7876 C   0  0  0  0  0  0  0  0  0  0  0  0
   10.3122  -14.7106   24.4510 O   0  0  0  0  0  0  0  0  0  0  0  0
    7.7202  -13.3324   27.0994 C   0  0  0  0  0  0  0  0  0  0  0  0
    9.0016  -14.0569   26.7453 C   0  0  2  0  0  0  0  0  0  0  0  0
    8.6492  -15.2066   25.9420 N   0  0  0  0  0  0  0  0  0  0  0  0
    9.7002  -14.5272   27.9607 C   0  0  0  0  0  0  0  0  0  0  0  0
   10.2871  -13.5875   28.7942 O   0  0  0  0  0  0  0  0  0  0  0  0
    9.7715  -15.7418   28.2490 O   0  0  0  0  0  0  0  0  0  0  0  0
  2  1  1  0
  3  2  1  0
  4  3  1  0
  4  5  1  0
  5  6  1  6
  7  5  1  0
  7  9  1  0
  8  7  2  0
 10  9  1  0
 10 13  1  0
 10 11  1  6
 12 11  1  0
 13 17  1  0
 13 14  2  0
 16 15  1  1
 16 18  1  0
 17 16  1  0
 18 19  1  0
 20 18  2  0
M  END
$$$$
