MCA.pdb
     RDKit          3D

 20 19  0  0  1  0  0  0  0  0999 V2000
    6.4913  -11.0337   25.1845 C   0  0  0  0  0  0  0  0  0  0  0  0
    6.1197  -12.2870   26.4435 S   0  0  0  0  0  0  0  0  0  0  0  0
    6.1765  -13.9175   25.6698 C   0  0  0  0  0  0  0  0  0  0  0  0
    6.7975  -13.7774   24.3010 C   0  0  0  0  0  0  0  0  0  0  0  0
    7.5798  -14.9934   23.8845 C   0  0  2  0  0  0  0  0  0  0  0  0
    6.8900  -16.2325   24.1215 N   0  0  0  0  0  0  0  0  0  0  0  0
    8.8924  -14.9405   24.5748 C   0  0  0  0  0  0  0  0  0  0  0  0
    9.6658  -13.9593   24.4319 O   0  0  0  0  0  0  0  0  0  0  0  0
    9.3207  -16.0128   25.4306 N   0  0  0  0  0  0  0  0  0  0  0  0
   10.4002  -15.7888   26.3830 C   0  0  1  0  0  0  0  0  0  0  0  0
    9.9370  -14.7315   27.3759 C   0  0  0  0  0  0  0  0  0  0  0  0
   11.2354  -14.4838   28.5969 S   0  0  0  0  0  0  0  0  0  0  0  0
   10.6463  -17.0776   27.0797 C   0  0  0  0  0  0  0  0  0  0  0  0
    9.7322  -17.6230   27.7808 O   0  0  0  0  0  0  0  0  0  0  0  0
   13.2922  -19.6793   26.9624 C   0  0  0  0  0  0  0  0  0  0  0  0
   12.0159  -19.0918   27.5265 C   0  0  2  0  0  0  0  0  0  0  0  0
   11.8799  -17.7508   27.0025 N   0  0  0  0  0  0  0  0  0  0  0  0
   12.0712  -19.0178   29.0023 C   0  0  0  0  0  0  0  0  0  0  0  0
   12.0551  -20.1997   29.7269 O   0  0  0  0  0  0  0  0  0  0  0  0
   12.1315  -17.9230   29.6034 O   0  0  0  0  0  0  0  0  0  0  0  0
  2  1  1  0
  3  2  1  0
  4  3  1  0
  4  5  1  0
  5  6  1  1
  7  5  1  0
  7  9  1  0
  8  7  2  0
 10  9  1  0
 10 13  1  0
 10 11  1  1
 12 11  1  0
 13 17  1  0
 13 14  2  0
 16 15  1  6
 16 18  1  0
 17 16  1  0
 18 19  1  0
 20 18  2  0
M  END
$$$$
