MCA.pdb
     RDKit          3D

 20 19  0  0  1  0  0  0  0  0999 V2000
    7.6470  -11.3729   20.2780 C   0  0  0  0  0  0  0  0  0  0  0  0
    8.0244  -13.0847   20.7483 S   0  0  0  0  0  0  0  0  0  0  0  0
    6.5232  -14.0740   20.5806 C   0  0  0  0  0  0  0  0  0  0  0  0
    6.7830  -15.4423   21.1630 C   0  0  0  0  0  0  0  0  0  0  0  0
    7.7679  -16.2453   20.3572 C   0  0  2  0  0  0  0  0  0  0  0  0
    7.1577  -17.0414   19.3269 N   0  0  0  0  0  0  0  0  0  0  0  0
    8.5602  -17.0663   21.3061 C   0  0  0  0  0  0  0  0  0  0  0  0
    8.2014  -18.2301   21.6195 O   0  0  0  0  0  0  0  0  0  0  0  0
    9.7660  -16.5544   21.8975 N   0  0  0  0  0  0  0  0  0  0  0  0
   10.4943  -17.3629   22.8663 C   0  0  1  0  0  0  0  0  0  0  0  0
   11.9687  -16.9954   22.7688 C   0  0  0  0  0  0  0  0  0  0  0  0
   12.8699  -17.9004   24.0364 S   0  0  0  0  0  0  0  0  0  0  0  0
    9.9653  -17.0198   24.2114 C   0  0  0  0  0  0  0  0  0  0  0  0
   10.0984  -15.8427   24.6819 O   0  0  0  0  0  0  0  0  0  0  0  0
    7.4162  -17.8562   26.4871 C   0  0  0  0  0  0  0  0  0  0  0  0
    8.9065  -17.6167   26.3689 C   0  0  2  0  0  0  0  0  0  0  0  0
    9.3016  -17.9605   25.0210 N   0  0  0  0  0  0  0  0  0  0  0  0
    9.6590  -18.4704   27.3130 C   0  0  0  0  0  0  0  0  0  0  0  0
   10.5598  -19.3916   26.8012 O   0  0  0  0  0  0  0  0  0  0  0  0
    9.5013  -18.3793   28.5501 O   0  0  0  0  0  0  0  0  0  0  0  0
  2  1  1  0
  3  2  1  0
  4  3  1  0
  4  5  1  0
  5  6  1  6
  7  5  1  0
  7  9  1  0
  8  7  2  0
 10  9  1  0
 10 13  1  0
 10 11  1  1
 12 11  1  0
 13 17  1  0
 13 14  2  0
 16 15  1  6
 16 18  1  0
 17 16  1  0
 18 19  1  0
 20 18  2  0
M  END
$$$$
