MCA.pdb
     RDKit          3D

 20 19  0  0  1  0  0  0  0  0999 V2000
    7.6156  -11.3642   26.0019 C   0  0  0  0  0  0  0  0  0  0  0  0
    5.9657  -12.1035   26.1605 S   0  0  0  0  0  0  0  0  0  0  0  0
    5.8511  -13.5076   25.0311 C   0  0  0  0  0  0  0  0  0  0  0  0
    6.9389  -14.4942   25.3804 C   0  0  0  0  0  0  0  0  0  0  0  0
    6.9542  -15.6956   24.4746 C   0  0  2  0  0  0  0  0  0  0  0  0
    5.7219  -16.4366   24.4778 N   0  0  0  0  0  0  0  0  0  0  0  0
    8.1151  -16.5349   24.8620 C   0  0  0  0  0  0  0  0  0  0  0  0
    8.0019  -17.4513   25.7157 O   0  0  0  0  0  0  0  0  0  0  0  0
    9.4083  -16.3250   24.2710 N   0  0  0  0  0  0  0  0  0  0  0  0
   10.5219  -17.1859   24.6470 C   0  0  1  0  0  0  0  0  0  0  0  0
   11.5568  -17.1269   23.5318 C   0  0  0  0  0  0  0  0  0  0  0  0
   11.4869  -15.4978   22.7707 S   0  0  0  0  0  0  0  0  0  0  0  0
   11.0908  -16.6433   25.9075 C   0  0  0  0  0  0  0  0  0  0  0  0
   11.6322  -15.4897   25.9333 O   0  0  0  0  0  0  0  0  0  0  0  0
   10.5961  -16.3614   29.2372 C   0  0  0  0  0  0  0  0  0  0  0  0
   11.6925  -16.8270   28.3027 C   0  0  2  0  0  0  0  0  0  0  0  0
   11.0616  -17.3628   27.1169 N   0  0  0  0  0  0  0  0  0  0  0  0
   12.5061  -17.8927   28.9262 C   0  0  0  0  0  0  0  0  0  0  0  0
   13.2855  -17.5739   30.0276 O   0  0  0  0  0  0  0  0  0  0  0  0
   12.5053  -19.0628   28.4853 O   0  0  0  0  0  0  0  0  0  0  0  0
  2  1  1  0
  3  2  1  0
  4  3  1  0
  4  5  1  0
  5  6  1  1
  7  5  1  0
  7  9  1  0
  8  7  2  0
 10  9  1  0
 10 13  1  0
 10 11  1  6
 12 11  1  0
 13 17  1  0
 13 14  2  0
 16 15  1  1
 16 18  1  0
 17 16  1  0
 18 19  1  0
 20 18  2  0
M  END
$$$$
