NMM.pdb
     RDKit          3D

 25 24  0  0  1  0  0  0  0  0999 V2000
    6.1474  -18.0331   18.6724 N   0  0  0  0  0  0  0  0  0  0  0  0
    7.4341  -17.5265   18.9652 C   0  0  0  0  0  0  0  0  0  0  0  0
    7.6622  -16.2990   18.8550 O   0  0  0  0  0  0  0  0  0  0  0  0
    8.4982  -18.4428   19.3976 C   0  0  0  0  0  0  0  0  0  0  0  0
    8.5800  -18.4413   20.9074 C   0  0  2  0  0  0  0  0  0  0  0  0
    7.2846  -18.7320   21.4464 N   0  0  0  0  0  0  0  0  0  0  0  0
    9.0948  -17.1272   21.4093 C   0  0  0  0  0  0  0  0  0  0  0  0
   10.2093  -16.7205   20.9592 O   0  0  0  0  0  0  0  0  0  0  0  0
    6.0751  -13.7348   26.2437 C   0  0  0  0  0  0  0  0  0  0  0  0
    6.5019  -12.4969   24.9900 S   0  0  0  0  0  0  0  0  0  0  0  0
    7.8922  -13.0645   24.0144 C   0  0  0  0  0  0  0  0  0  0  0  0
    7.7108  -14.3905   23.4023 C   0  0  0  0  0  0  0  0  0  0  0  0
    8.8975  -15.0639   22.8048 C   0  0  2  0  0  0  0  0  0  0  0  0
    8.3463  -16.3856   22.3512 N   0  0  0  0  0  0  0  0  0  0  0  0
    9.9605  -15.3198   23.7750 C   0  0  0  0  0  0  0  0  0  0  0  0
   10.7892  -14.3913   24.1152 O   0  0  0  0  0  0  0  0  0  0  0  0
   11.5200  -14.1008   30.0352 C   0  0  0  0  0  0  0  0  0  0  0  0
   10.4208  -14.0591   28.5897 S   0  0  0  0  0  0  0  0  0  0  0  0
   10.1696  -15.7966   28.0205 C   0  0  0  0  0  0  0  0  0  0  0  0
    9.6852  -15.7705   26.6032 C   0  0  0  0  0  0  0  0  0  0  0  0
   10.6265  -16.6463   25.7443 C   0  0  2  0  0  0  0  0  0  0  0  0
   10.0855  -16.6030   24.3703 N   0  0  0  0  0  0  0  0  0  0  0  0
   10.6563  -18.0317   26.2038 C   0  0  0  0  0  0  0  0  0  0  0  0
   11.3307  -18.3638   27.3814 O   0  0  0  0  0  0  0  0  0  0  0  0
   10.0827  -18.9584   25.5552 O   0  0  0  0  0  0  0  0  0  0  0  0
  1  2  1  0
  2  4  1  0
  2  3  2  0
  4  5  1  0
  5  7  1  0
  5  6  1  1
  7  8  2  0
 10  9  1  0
 10 11  1  0
 12 11  1  0
 13 12  1  1
 14 13  1  0
 14  7  1  0
 15 16  2  0
 15 13  1  0
 17 18  1  0
 19 18  1  0
 19 20  1  0
 21 20  1  1
 21 22  1  0
 21 23  1  0
 22 15  1  0
 23 24  1  0
 25 23  2  0
M  END
$$$$
