NMM.pdb
     RDKit          3D

 25 24  0  0  1  0  0  0  0  0999 V2000
    9.3440  -17.9823   17.9670 N   0  0  0  0  0  0  0  0  0  0  0  0
    9.1828  -16.5781   17.9499 C   0  0  0  0  0  0  0  0  0  0  0  0
    9.1559  -15.9656   16.8567 O   0  0  0  0  0  0  0  0  0  0  0  0
    9.0473  -15.8436   19.2152 C   0  0  0  0  0  0  0  0  0  0  0  0
    9.2210  -16.8006   20.3729 C   0  0  2  0  0  0  0  0  0  0  0  0
    8.1501  -17.7523   20.3578 N   0  0  0  0  0  0  0  0  0  0  0  0
    9.2690  -16.0574   21.6726 C   0  0  0  0  0  0  0  0  0  0  0  0
   10.2037  -15.2147   21.8351 O   0  0  0  0  0  0  0  0  0  0  0  0
    6.3513  -12.1296   24.7952 C   0  0  0  0  0  0  0  0  0  0  0  0
    7.1935  -13.1387   26.0438 S   0  0  0  0  0  0  0  0  0  0  0  0
    6.8216  -14.8714   25.7865 C   0  0  0  0  0  0  0  0  0  0  0  0
    7.0621  -15.3531   24.4169 C   0  0  0  0  0  0  0  0  0  0  0  0
    8.4645  -15.6328   23.9998 C   0  0  2  0  0  0  0  0  0  0  0  0
    8.2956  -16.3046   22.6669 N   0  0  0  0  0  0  0  0  0  0  0  0
    9.1550  -16.5593   24.8952 C   0  0  0  0  0  0  0  0  0  0  0  0
    8.4961  -17.3868   25.6342 O   0  0  0  0  0  0  0  0  0  0  0  0
   10.7946  -12.7300   28.3137 C   0  0  0  0  0  0  0  0  0  0  0  0
   10.7528  -14.1311   29.4690 S   0  0  0  0  0  0  0  0  0  0  0  0
   11.1871  -15.6557   28.5241 C   0  0  0  0  0  0  0  0  0  0  0  0
   10.6897  -15.5058   27.1190 C   0  0  0  0  0  0  0  0  0  0  0  0
   11.1827  -16.7143   26.2899 C   0  0  2  0  0  0  0  0  0  0  0  0
   10.5738  -16.5684   24.9520 N   0  0  0  0  0  0  0  0  0  0  0  0
   10.7622  -17.9855   26.8716 C   0  0  0  0  0  0  0  0  0  0  0  0
    9.5819  -18.5960   26.4400 O   0  0  0  0  0  0  0  0  0  0  0  0
   11.4441  -18.5606   27.7731 O   0  0  0  0  0  0  0  0  0  0  0  0
  1  2  1  0
  2  4  1  0
  2  3  2  0
  4  5  1  0
  5  7  1  0
  5  6  1  1
  7  8  2  0
 10  9  1  0
 10 11  1  0
 12 11  1  0
 13 12  1  1
 14 13  1  0
 14  7  1  0
 15 16  2  0
 15 13  1  0
 17 18  1  0
 19 18  1  0
 19 20  1  0
 21 20  1  1
 21 22  1  0
 21 23  1  0
 22 15  1  0
 23 24  1  0
 25 23  2  0
M  END
$$$$
