NMM.pdb
     RDKit          3D

 25 24  0  0  1  0  0  0  0  0999 V2000
   15.3762  -13.9795   18.8921 N   0  0  0  0  0  0  0  0  0  0  0  0
   14.2579  -14.8251   18.7118 C   0  0  0  0  0  0  0  0  0  0  0  0
   14.3770  -15.8876   18.0576 O   0  0  0  0  0  0  0  0  0  0  0  0
   12.9607  -14.4533   19.2931 C   0  0  0  0  0  0  0  0  0  0  0  0
   12.5341  -15.5098   20.2872 C   0  0  2  0  0  0  0  0  0  0  0  0
   12.1117  -16.6790   19.5749 N   0  0  0  0  0  0  0  0  0  0  0  0
   11.4454  -14.9924   21.1764 C   0  0  0  0  0  0  0  0  0  0  0  0
   11.7119  -13.9957   21.9151 O   0  0  0  0  0  0  0  0  0  0  0  0
    8.2496  -12.1548   19.1643 C   0  0  0  0  0  0  0  0  0  0  0  0
    7.1529  -13.0655   20.2844 S   0  0  0  0  0  0  0  0  0  0  0  0
    7.4676  -14.8238   20.1576 C   0  0  0  0  0  0  0  0  0  0  0  0
    7.8490  -15.4710   21.4231 C   0  0  0  0  0  0  0  0  0  0  0  0
    9.1169  -15.0490   22.0812 C   0  0  2  0  0  0  0  0  0  0  0  0
   10.1744  -15.6106   21.1741 N   0  0  0  0  0  0  0  0  0  0  0  0
    9.2956  -15.6331   23.4092 C   0  0  0  0  0  0  0  0  0  0  0  0
   10.0582  -16.6584   23.5886 O   0  0  0  0  0  0  0  0  0  0  0  0
    6.0182  -12.2598   26.5857 C   0  0  0  0  0  0  0  0  0  0  0  0
    7.5456  -12.2353   27.5685 S   0  0  0  0  0  0  0  0  0  0  0  0
    8.7435  -13.3972   26.7804 C   0  0  0  0  0  0  0  0  0  0  0  0
    8.2032  -14.7899   26.8920 C   0  0  0  0  0  0  0  0  0  0  0  0
    8.9125  -15.6793   25.8448 C   0  0  2  0  0  0  0  0  0  0  0  0
    8.6357  -15.0643   24.5305 N   0  0  0  0  0  0  0  0  0  0  0  0
    8.4011  -17.0466   25.8511 C   0  0  0  0  0  0  0  0  0  0  0  0
    7.5934  -17.4963   24.8036 O   0  0  0  0  0  0  0  0  0  0  0  0
    8.6689  -17.8509   26.7944 O   0  0  0  0  0  0  0  0  0  0  0  0
  1  2  1  0
  2  4  1  0
  2  3  2  0
  4  5  1  0
  5  7  1  0
  5  6  1  6
  7  8  2  0
 10  9  1  0
 10 11  1  0
 12 11  1  0
 13 12  1  6
 14 13  1  0
 14  7  1  0
 15 16  2  0
 15 13  1  0
 17 18  1  0
 19 18  1  0
 19 20  1  0
 21 20  1  1
 21 22  1  0
 21 23  1  0
 22 15  1  0
 23 24  1  0
 25 23  2  0
M  END
$$$$
