NMM.pdb
     RDKit          3D

 25 24  0  0  1  0  0  0  0  0999 V2000
    7.3549  -13.4742   17.1501 N   0  0  0  0  0  0  0  0  0  0  0  0
    8.3994  -14.2149   17.7488 C   0  0  0  0  0  0  0  0  0  0  0  0
    8.9319  -15.1618   17.1237 O   0  0  0  0  0  0  0  0  0  0  0  0
    8.8554  -13.8702   19.1024 C   0  0  0  0  0  0  0  0  0  0  0  0
    8.6618  -15.0594   20.0160 C   0  0  2  0  0  0  0  0  0  0  0  0
    7.3094  -15.5195   19.9047 N   0  0  0  0  0  0  0  0  0  0  0  0
    8.9993  -14.7016   21.4309 C   0  0  0  0  0  0  0  0  0  0  0  0
   10.2071  -14.4154   21.6940 O   0  0  0  0  0  0  0  0  0  0  0  0
    6.5161  -11.4869   28.0301 C   0  0  0  0  0  0  0  0  0  0  0  0
    6.2476  -11.9472   26.2974 S   0  0  0  0  0  0  0  0  0  0  0  0
    7.4192  -13.2101   25.8084 C   0  0  0  0  0  0  0  0  0  0  0  0
    7.3628  -13.5805   24.3852 C   0  0  0  0  0  0  0  0  0  0  0  0
    8.4064  -14.4986   23.8497 C   0  0  2  0  0  0  0  0  0  0  0  0
    7.9893  -14.6906   22.4195 N   0  0  0  0  0  0  0  0  0  0  0  0
    8.4111  -15.8055   24.5046 C   0  0  0  0  0  0  0  0  0  0  0  0
    7.8242  -16.8215   23.9676 O   0  0  0  0  0  0  0  0  0  0  0  0
   12.0798  -18.6346   22.1963 C   0  0  0  0  0  0  0  0  0  0  0  0
   12.9415  -18.7417   23.7917 S   0  0  0  0  0  0  0  0  0  0  0  0
   11.6775  -18.5908   25.1280 C   0  0  0  0  0  0  0  0  0  0  0  0
   10.8599  -17.3610   24.8766 C   0  0  0  0  0  0  0  0  0  0  0  0
    9.7597  -17.2706   25.9592 C   0  0  2  0  0  0  0  0  0  0  0  0
    9.0803  -15.9764   25.7453 N   0  0  0  0  0  0  0  0  0  0  0  0
   10.3154  -17.3026   27.3088 C   0  0  0  0  0  0  0  0  0  0  0  0
   10.5698  -18.5269   27.9318 O   0  0  0  0  0  0  0  0  0  0  0  0
   10.5755  -16.2365   27.9447 O   0  0  0  0  0  0  0  0  0  0  0  0
  1  2  1  0
  2  4  1  0
  2  3  2  0
  4  5  1  0
  5  7  1  0
  5  6  1  1
  7  8  2  0
 10  9  1  0
 10 11  1  0
 12 11  1  0
 13 12  1  1
 14 13  1  0
 14  7  1  0
 15 16  2  0
 15 13  1  0
 17 18  1  0
 19 18  1  0
 19 20  1  0
 21 20  1  6
 21 22  1  0
 21 23  1  0
 22 15  1  0
 23 24  1  0
 25 23  2  0
M  END
$$$$
