NMM.pdb
     RDKit          3D

 25 24  0  0  1  0  0  0  0  0999 V2000
    6.5867  -18.4072   17.4854 N   0  0  0  0  0  0  0  0  0  0  0  0
    7.6893  -18.4495   18.3687 C   0  0  0  0  0  0  0  0  0  0  0  0
    8.3297  -19.5165   18.5181 O   0  0  0  0  0  0  0  0  0  0  0  0
    8.0791  -17.2408   19.1077 C   0  0  0  0  0  0  0  0  0  0  0  0
    8.3099  -17.5923   20.5601 C   0  0  2  0  0  0  0  0  0  0  0  0
    7.0626  -17.9743   21.1529 N   0  0  0  0  0  0  0  0  0  0  0  0
    8.9295  -16.4418   21.2923 C   0  0  0  0  0  0  0  0  0  0  0  0
   10.0575  -16.0247   20.8873 O   0  0  0  0  0  0  0  0  0  0  0  0
    5.3224  -13.1437   25.6419 C   0  0  0  0  0  0  0  0  0  0  0  0
    7.0141  -12.6920   26.1115 S   0  0  0  0  0  0  0  0  0  0  0  0
    8.1224  -12.9370   24.7265 C   0  0  0  0  0  0  0  0  0  0  0  0
    7.8323  -14.1283   23.9125 C   0  0  0  0  0  0  0  0  0  0  0  0
    8.9334  -14.7175   23.1007 C   0  0  2  0  0  0  0  0  0  0  0  0
    8.2608  -15.8588   22.3924 N   0  0  0  0  0  0  0  0  0  0  0  0
   10.0191  -15.2604   23.9153 C   0  0  0  0  0  0  0  0  0  0  0  0
   11.1240  -14.6121   24.0696 O   0  0  0  0  0  0  0  0  0  0  0  0
   10.8523  -13.1701   28.5505 C   0  0  0  0  0  0  0  0  0  0  0  0
   10.8049  -14.8163   29.3167 S   0  0  0  0  0  0  0  0  0  0  0  0
   11.2204  -16.0574   28.0155 C   0  0  0  0  0  0  0  0  0  0  0  0
   10.4152  -15.7531   26.7895 C   0  0  0  0  0  0  0  0  0  0  0  0
   10.7671  -16.7906   25.6984 C   0  0  2  0  0  0  0  0  0  0  0  0
    9.8628  -16.5140   24.5636 N   0  0  0  0  0  0  0  0  0  0  0  0
   10.5554  -18.1604   26.1568 C   0  0  0  0  0  0  0  0  0  0  0  0
   11.5688  -18.8325   26.8448 O   0  0  0  0  0  0  0  0  0  0  0  0
    9.4640  -18.7703   25.9436 O   0  0  0  0  0  0  0  0  0  0  0  0
  1  2  1  0
  2  4  1  0
  2  3  2  0
  4  5  1  0
  5  7  1  0
  5  6  1  1
  7  8  2  0
 10  9  1  0
 10 11  1  0
 12 11  1  0
 13 12  1  1
 14 13  1  0
 14  7  1  0
 15 16  2  0
 15 13  1  0
 17 18  1  0
 19 18  1  0
 19 20  1  0
 21 20  1  1
 21 22  1  0
 21 23  1  0
 22 15  1  0
 23 24  1  0
 25 23  2  0
M  END
$$$$
