NMM.pdb
     RDKit          3D

 25 24  0  0  1  0  0  0  0  0999 V2000
   10.8833  -20.0555   18.4106 N   0  0  0  0  0  0  0  0  0  0  0  0
    9.6438  -19.4824   18.0460 C   0  0  0  0  0  0  0  0  0  0  0  0
    8.9456  -20.0189   17.1540 O   0  0  0  0  0  0  0  0  0  0  0  0
    9.1801  -18.2594   18.7155 C   0  0  0  0  0  0  0  0  0  0  0  0
    9.5838  -18.3000   20.1721 C   0  0  2  0  0  0  0  0  0  0  0  0
    8.6242  -19.0742   20.9020 N   0  0  0  0  0  0  0  0  0  0  0  0
    9.7004  -16.9143   20.7289 C   0  0  0  0  0  0  0  0  0  0  0  0
   10.7720  -16.2750   20.4981 O   0  0  0  0  0  0  0  0  0  0  0  0
    7.9788  -11.5782   19.9322 C   0  0  0  0  0  0  0  0  0  0  0  0
    7.8554  -13.2363   19.2097 S   0  0  0  0  0  0  0  0  0  0  0  0
    6.8525  -14.2890   20.2550 C   0  0  0  0  0  0  0  0  0  0  0  0
    7.3374  -14.4200   21.6384 C   0  0  0  0  0  0  0  0  0  0  0  0
    8.7267  -14.9098   21.8591 C   0  0  2  0  0  0  0  0  0  0  0  0
    8.6398  -16.3612   21.4817 N   0  0  0  0  0  0  0  0  0  0  0  0
    9.1496  -14.8245   23.2558 C   0  0  0  0  0  0  0  0  0  0  0  0
    9.3936  -13.6848   23.8093 O   0  0  0  0  0  0  0  0  0  0  0  0
    6.5817  -11.6077   27.6264 C   0  0  0  0  0  0  0  0  0  0  0  0
    6.3419  -13.2322   26.8501 S   0  0  0  0  0  0  0  0  0  0  0  0
    8.0076  -13.9189   26.4503 C   0  0  0  0  0  0  0  0  0  0  0  0
    7.8306  -15.2623   25.8115 C   0  0  0  0  0  0  0  0  0  0  0  0
    9.2273  -15.8472   25.4984 C   0  0  2  0  0  0  0  0  0  0  0  0
    9.2846  -16.0066   24.0309 N   0  0  0  0  0  0  0  0  0  0  0  0
    9.4305  -17.1476   26.1299 C   0  0  0  0  0  0  0  0  0  0  0  0
    9.7848  -17.2224   27.4792 O   0  0  0  0  0  0  0  0  0  0  0  0
    9.2965  -18.2287   25.4805 O   0  0  0  0  0  0  0  0  0  0  0  0
  1  2  1  0
  2  4  1  0
  2  3  2  0
  4  5  1  0
  5  7  1  0
  5  6  1  1
  7  8  2  0
 10  9  1  0
 10 11  1  0
 12 11  1  0
 13 12  1  1
 14 13  1  0
 14  7  1  0
 15 16  2  0
 15 13  1  0
 17 18  1  0
 19 18  1  0
 19 20  1  0
 21 20  1  6
 21 22  1  0
 21 23  1  0
 22 15  1  0
 23 24  1  0
 25 23  2  0
M  END
$$$$
