HHA.pdb
     RDKit          3D

 26 27  0  0  1  0  0  0  0  0999 V2000
    9.0204  -15.6540   20.1734 N   0  0  0  0  0  0  0  0  0  0  0  0
    8.1356  -14.6352   20.6983 C   0  0  1  0  0  0  0  0  0  0  0  0
    7.0079  -14.4631   19.7204 C   0  0  0  0  0  0  0  0  0  0  0  0
    7.6150  -14.2271   18.3811 C   0  0  0  0  0  0  0  0  0  0  0  0
    8.4270  -13.1555   18.0093 C   0  0  0  0  0  0  0  0  0  0  0  0
    8.7561  -13.3326   16.7104 N   0  0  0  0  0  0  0  0  0  0  0  0
    8.1962  -14.4508   16.2542 C   0  0  0  0  0  0  0  0  0  0  0  0
    7.5135  -14.9784   17.2680 N   0  0  0  0  0  0  0  0  0  0  0  0
    7.6551  -14.9956   22.0593 C   0  0  0  0  0  0  0  0  0  0  0  0
    6.7317  -14.3375   22.5756 O   0  0  0  0  0  0  0  0  0  0  0  0
    8.2081  -16.0688   22.8052 N   0  0  0  0  0  0  0  0  0  0  0  0
    7.7887  -16.4649   24.1325 C   0  0  1  0  0  0  0  0  0  0  0  0
    7.9956  -17.8702   24.4772 C   0  0  0  0  0  0  0  0  0  0  0  0
    7.6934  -18.2616   25.8713 C   0  0  0  0  0  0  0  0  0  0  0  0
    7.1896  -17.5673   26.9221 C   0  0  0  0  0  0  0  0  0  0  0  0
    7.1239  -18.3918   27.9744 N   0  0  0  0  0  0  0  0  0  0  0  0
    7.5785  -19.6043   27.6138 C   0  0  0  0  0  0  0  0  0  0  0  0
    7.9242  -19.5299   26.3416 N   0  0  0  0  0  0  0  0  0  0  0  0
    8.3474  -15.4875   25.0865 C   0  0  0  0  0  0  0  0  0  0  0  0
    9.5905  -15.3608   25.1339 O   0  0  0  0  0  0  0  0  0  0  0  0
    7.2134  -12.6692   27.3204 C   0  0  0  0  0  0  0  0  0  0  0  0
    8.1160  -13.7917   26.9280 C   0  0  2  0  0  0  0  0  0  0  0  0
    7.5740  -14.6827   25.9526 N   0  0  0  0  0  0  0  0  0  0  0  0
    8.5201  -14.5071   28.1837 C   0  0  0  0  0  0  0  0  0  0  0  0
    9.2446  -13.8166   29.1294 O   0  0  0  0  0  0  0  0  0  0  0  0
    8.1925  -15.7085   28.3445 O   0  0  0  0  0  0  0  0  0  0  0  0
  2  1  1  6
  2  3  1  0
  4  8  1  0
  4  3  1  0
  5  4  2  0
  6  5  1  0
  6  7  1  0
  7  8  2  0
  9  2  1  0
  9 10  2  0
 11  9  1  0
 12 11  1  0
 13 14  1  0
 12 13  1  1
 14 18  1  0
 15 14  2  0
 15 16  1  0
 16 17  1  0
 18 17  2  0
 19 12  1  0
 20 19  2  0
 22 23  1  0
 22 21  1  1
 23 19  1  0
 24 22  1  0
 25 24  1  0
 26 24  2  0
M  END
$$$$
