HHA.pdb
     RDKit          3D

 26 27  0  0  1  0  0  0  0  0999 V2000
   11.7540  -17.1908   17.1801 N   0  0  0  0  0  0  0  0  0  0  0  0
   11.0412  -17.9404   18.1933 C   0  0  1  0  0  0  0  0  0  0  0  0
   11.3232  -19.3983   17.9644 C   0  0  0  0  0  0  0  0  0  0  0  0
   10.2807  -19.9103   17.0322 C   0  0  0  0  0  0  0  0  0  0  0  0
    9.2169  -19.1881   16.4912 C   0  0  0  0  0  0  0  0  0  0  0  0
    8.5182  -20.0333   15.7011 N   0  0  0  0  0  0  0  0  0  0  0  0
    9.0857  -21.2373   15.7198 C   0  0  0  0  0  0  0  0  0  0  0  0
   10.1435  -21.1495   16.5233 N   0  0  0  0  0  0  0  0  0  0  0  0
   11.4305  -17.4957   19.5586 C   0  0  0  0  0  0  0  0  0  0  0  0
   12.0541  -18.2777   20.3014 O   0  0  0  0  0  0  0  0  0  0  0  0
   11.1196  -16.2046   20.0589 N   0  0  0  0  0  0  0  0  0  0  0  0
   10.2458  -15.9332   21.1803 C   0  0  1  0  0  0  0  0  0  0  0  0
    8.8273  -15.7768   20.8643 C   0  0  0  0  0  0  0  0  0  0  0  0
    8.4677  -14.6539   19.9711 C   0  0  0  0  0  0  0  0  0  0  0  0
    9.2128  -13.6847   19.3833 C   0  0  0  0  0  0  0  0  0  0  0  0
    8.3923  -12.8982   18.6763 N   0  0  0  0  0  0  0  0  0  0  0  0
    7.1322  -13.3489   18.8025 C   0  0  0  0  0  0  0  0  0  0  0  0
    7.1733  -14.4114   19.5854 N   0  0  0  0  0  0  0  0  0  0  0  0
   10.5573  -16.9162   22.2359 C   0  0  0  0  0  0  0  0  0  0  0  0
    9.9282  -17.9969   22.2331 O   0  0  0  0  0  0  0  0  0  0  0  0
   13.1698  -17.5728   24.8662 C   0  0  0  0  0  0  0  0  0  0  0  0
   11.7921  -17.6554   24.2972 C   0  0  2  0  0  0  0  0  0  0  0  0
   11.5190  -16.7214   23.2522 N   0  0  0  0  0  0  0  0  0  0  0  0
   10.8239  -17.5272   25.4365 C   0  0  0  0  0  0  0  0  0  0  0  0
   10.8827  -18.4509   26.4560 O   0  0  0  0  0  0  0  0  0  0  0  0
    9.9887  -16.5898   25.4366 O   0  0  0  0  0  0  0  0  0  0  0  0
  2  1  1  6
  2  3  1  0
  4  8  1  0
  4  3  1  0
  5  4  2  0
  6  5  1  0
  6  7  1  0
  7  8  2  0
  9  2  1  0
  9 10  2  0
 11  9  1  0
 12 11  1  0
 13 14  1  0
 12 13  1  6
 14 18  1  0
 15 14  2  0
 15 16  1  0
 16 17  1  0
 18 17  2  0
 19 12  1  0
 20 19  2  0
 22 23  1  0
 22 21  1  1
 23 19  1  0
 24 22  1  0
 25 24  1  0
 26 24  2  0
M  END
$$$$
