HHA.pdb
     RDKit          3D

 26 27  0  0  1  0  0  0  0  0999 V2000
    9.8330  -14.4467   11.2792 N   0  0  0  0  0  0  0  0  0  0  0  0
   11.0677  -14.8438   11.9229 C   0  0  1  0  0  0  0  0  0  0  0  0
   11.7726  -13.5936   12.3671 C   0  0  0  0  0  0  0  0  0  0  0  0
   12.2636  -12.9028   11.1425 C   0  0  0  0  0  0  0  0  0  0  0  0
   13.5070  -13.0680   10.5323 C   0  0  0  0  0  0  0  0  0  0  0  0
   13.5365  -12.2540    9.4537 N   0  0  0  0  0  0  0  0  0  0  0  0
   12.3847  -11.5934    9.3586 C   0  0  0  0  0  0  0  0  0  0  0  0
   11.6291  -11.9925   10.3794 N   0  0  0  0  0  0  0  0  0  0  0  0
   10.8048  -15.7773   13.0511 C   0  0  0  0  0  0  0  0  0  0  0  0
    9.8032  -15.5998   13.7704 O   0  0  0  0  0  0  0  0  0  0  0  0
   11.6545  -16.8743   13.3484 N   0  0  0  0  0  0  0  0  0  0  0  0
   11.3790  -17.8995   14.3321 C   0  0  1  0  0  0  0  0  0  0  0  0
   11.2859  -19.2668   13.8239 C   0  0  0  0  0  0  0  0  0  0  0  0
   11.0248  -20.3277   14.8211 C   0  0  0  0  0  0  0  0  0  0  0  0
   11.8548  -21.1162   15.5487 C   0  0  0  0  0  0  0  0  0  0  0  0
   11.1044  -21.9295   16.3017 N   0  0  0  0  0  0  0  0  0  0  0  0
    9.8056  -21.6743   16.0672 C   0  0  0  0  0  0  0  0  0  0  0  0
    9.7530  -20.7054   15.1716 N   0  0  0  0  0  0  0  0  0  0  0  0
   12.3144  -17.7015   15.4561 C   0  0  0  0  0  0  0  0  0  0  0  0
   13.4508  -17.2474   15.1986 O   0  0  0  0  0  0  0  0  0  0  0  0
   12.1977  -17.6831   19.2411 C   0  0  0  0  0  0  0  0  0  0  0  0
   12.8695  -17.6799   17.9079 C   0  0  2  0  0  0  0  0  0  0  0  0
   12.0154  -17.9897   16.8064 N   0  0  0  0  0  0  0  0  0  0  0  0
   14.0439  -18.6105   17.9912 C   0  0  0  0  0  0  0  0  0  0  0  0
   15.0455  -18.3256   18.8920 O   0  0  0  0  0  0  0  0  0  0  0  0
   14.0883  -19.6194   17.2452 O   0  0  0  0  0  0  0  0  0  0  0  0
  2  1  1  1
  2  3  1  0
  4  8  1  0
  4  3  1  0
  5  4  2  0
  6  5  1  0
  6  7  1  0
  7  8  2  0
  9  2  1  0
  9 10  2  0
 11  9  1  0
 12 11  1  0
 13 14  1  0
 12 13  1  6
 14 18  1  0
 15 14  2  0
 15 16  1  0
 16 17  1  0
 18 17  2  0
 19 12  1  0
 20 19  2  0
 22 23  1  0
 22 21  1  1
 23 19  1  0
 24 22  1  0
 25 24  1  0
 26 24  2  0
M  END
$$$$
