HHA.pdb
     RDKit          3D

 26 27  0  0  1  0  0  0  0  0999 V2000
    6.8813  -19.7769   18.5161 N   0  0  0  0  0  0  0  0  0  0  0  0
    7.2760  -18.5039   19.0818 C   0  0  1  0  0  0  0  0  0  0  0  0
    6.6551  -17.4213   18.2451 C   0  0  0  0  0  0  0  0  0  0  0  0
    7.3746  -17.4014   16.9413 C   0  0  0  0  0  0  0  0  0  0  0  0
    8.7470  -17.2438   16.7472 C   0  0  0  0  0  0  0  0  0  0  0  0
    8.9717  -17.2858   15.4150 N   0  0  0  0  0  0  0  0  0  0  0  0
    7.8197  -17.4601   14.7711 C   0  0  0  0  0  0  0  0  0  0  0  0
    6.8684  -17.5279   15.6998 N   0  0  0  0  0  0  0  0  0  0  0  0
    6.8808  -18.4105   20.5130 C   0  0  0  0  0  0  0  0  0  0  0  0
    5.6928  -18.1744   20.8048 O   0  0  0  0  0  0  0  0  0  0  0  0
    7.8078  -18.5805   21.5740 N   0  0  0  0  0  0  0  0  0  0  0  0
    7.4775  -18.5499   22.9827 C   0  0  1  0  0  0  0  0  0  0  0  0
    7.6670  -19.8020   23.7126 C   0  0  0  0  0  0  0  0  0  0  0  0
    7.5570  -19.7328   25.1861 C   0  0  0  0  0  0  0  0  0  0  0  0
    8.4928  -19.6905   26.1671 C   0  0  0  0  0  0  0  0  0  0  0  0
    7.8604  -19.6468   27.3460 N   0  0  0  0  0  0  0  0  0  0  0  0
    6.5329  -19.6607   27.1351 C   0  0  0  0  0  0  0  0  0  0  0  0
    6.3449  -19.7127   25.8291 N   0  0  0  0  0  0  0  0  0  0  0  0
    8.1355  -17.3664   23.5691 C   0  0  0  0  0  0  0  0  0  0  0  0
    9.3465  -17.1847   23.3159 O   0  0  0  0  0  0  0  0  0  0  0  0
    7.2425  -14.2320   25.4936 C   0  0  0  0  0  0  0  0  0  0  0  0
    8.1485  -15.3295   25.0425 C   0  0  2  0  0  0  0  0  0  0  0  0
    7.4913  -16.4216   24.3987 N   0  0  0  0  0  0  0  0  0  0  0  0
    8.9480  -15.7736   26.2323 C   0  0  0  0  0  0  0  0  0  0  0  0
    8.8974  -17.0995   26.6003 O   0  0  0  0  0  0  0  0  0  0  0  0
    9.6396  -14.9354   26.8612 O   0  0  0  0  0  0  0  0  0  0  0  0
  2  1  1  6
  2  3  1  0
  4  8  1  0
  4  3  1  0
  5  4  2  0
  6  5  1  0
  6  7  1  0
  7  8  2  0
  9  2  1  0
  9 10  2  0
 11  9  1  0
 12 11  1  0
 13 14  1  0
 12 13  1  1
 14 18  1  0
 15 14  2  0
 15 16  1  0
 16 17  1  0
 18 17  2  0
 19 12  1  0
 20 19  2  0
 22 23  1  0
 22 21  1  1
 23 19  1  0
 24 22  1  0
 25 24  1  0
 26 24  2  0
M  END
$$$$
