HHA.pdb
     RDKit          3D

 26 27  0  0  1  0  0  0  0  0999 V2000
    8.3294  -17.3672   15.8291 N   0  0  0  0  0  0  0  0  0  0  0  0
    9.1338  -17.0038   16.9769 C   0  0  1  0  0  0  0  0  0  0  0  0
    8.1967  -16.6691   18.1026 C   0  0  0  0  0  0  0  0  0  0  0  0
    8.0254  -15.1897   18.1115 C   0  0  0  0  0  0  0  0  0  0  0  0
    8.5880  -14.2785   17.2176 C   0  0  0  0  0  0  0  0  0  0  0  0
    8.1758  -13.0457   17.5879 N   0  0  0  0  0  0  0  0  0  0  0  0
    7.3906  -13.1382   18.6589 C   0  0  0  0  0  0  0  0  0  0  0  0
    7.3086  -14.4316   18.9631 N   0  0  0  0  0  0  0  0  0  0  0  0
   10.0794  -18.0958   17.3328 C   0  0  0  0  0  0  0  0  0  0  0  0
    9.6873  -19.2780   17.3020 O   0  0  0  0  0  0  0  0  0  0  0  0
   11.4248  -17.8482   17.7106 N   0  0  0  0  0  0  0  0  0  0  0  0
   12.4001  -18.8665   18.0364 C   0  0  1  0  0  0  0  0  0  0  0  0
   13.6466  -18.8272   17.2741 C   0  0  0  0  0  0  0  0  0  0  0  0
   13.5692  -19.2421   15.8563 C   0  0  0  0  0  0  0  0  0  0  0  0
   13.5653  -18.5330   14.7000 C   0  0  0  0  0  0  0  0  0  0  0  0
   13.4639  -19.3955   13.6815 N   0  0  0  0  0  0  0  0  0  0  0  0
   13.4026  -20.6471   14.1679 C   0  0  0  0  0  0  0  0  0  0  0  0
   13.4660  -20.5588   15.4839 N   0  0  0  0  0  0  0  0  0  0  0  0
   12.5529  -18.8839   19.5040 C   0  0  0  0  0  0  0  0  0  0  0  0
   12.7266  -17.7914   20.0872 O   0  0  0  0  0  0  0  0  0  0  0  0
   12.0666  -21.3464   22.3420 C   0  0  0  0  0  0  0  0  0  0  0  0
   12.5020  -20.0579   21.7265 C   0  0  2  0  0  0  0  0  0  0  0  0
   12.5166  -20.0514   20.2986 N   0  0  0  0  0  0  0  0  0  0  0  0
   13.8415  -19.7096   22.3065 C   0  0  0  0  0  0  0  0  0  0  0  0
   13.9355  -19.5006   23.6642 O   0  0  0  0  0  0  0  0  0  0  0  0
   14.8388  -19.6169   21.5493 O   0  0  0  0  0  0  0  0  0  0  0  0
  2  1  1  6
  2  3  1  0
  4  8  1  0
  4  3  1  0
  5  4  2  0
  6  5  1  0
  6  7  1  0
  7  8  2  0
  9  2  1  0
  9 10  2  0
 11  9  1  0
 12 11  1  0
 13 14  1  0
 12 13  1  6
 14 18  1  0
 15 14  2  0
 15 16  1  0
 16 17  1  0
 18 17  2  0
 19 12  1  0
 20 19  2  0
 22 23  1  0
 22 21  1  6
 23 19  1  0
 24 22  1  0
 25 24  1  0
 26 24  2  0
M  END
$$$$
