HHA.pdb
     RDKit          3D

 26 27  0  0  1  0  0  0  0  0999 V2000
    7.6090  -17.3004   19.4927 N   0  0  0  0  0  0  0  0  0  0  0  0
    8.6111  -16.7478   20.3797 C   0  0  1  0  0  0  0  0  0  0  0  0
    7.9110  -15.8332   21.3446 C   0  0  0  0  0  0  0  0  0  0  0  0
    7.9835  -14.4562   20.7821 C   0  0  0  0  0  0  0  0  0  0  0  0
    8.5676  -14.0777   19.5731 C   0  0  0  0  0  0  0  0  0  0  0  0
    8.4105  -12.7407   19.4523 N   0  0  0  0  0  0  0  0  0  0  0  0
    7.7634  -12.2673   20.5149 C   0  0  0  0  0  0  0  0  0  0  0  0
    7.5129  -13.3083   21.3059 N   0  0  0  0  0  0  0  0  0  0  0  0
    9.3668  -17.8277   21.0696 C   0  0  0  0  0  0  0  0  0  0  0  0
    8.7439  -18.7715   21.5925 O   0  0  0  0  0  0  0  0  0  0  0  0
   10.7831  -17.8309   21.1599 N   0  0  0  0  0  0  0  0  0  0  0  0
   11.5772  -18.8760   21.7698 C   0  0  1  0  0  0  0  0  0  0  0  0
   12.8441  -19.1858   21.1099 C   0  0  0  0  0  0  0  0  0  0  0  0
   12.7593  -19.7534   19.7466 C   0  0  0  0  0  0  0  0  0  0  0  0
   12.4199  -20.9863   19.2942 C   0  0  0  0  0  0  0  0  0  0  0  0
   12.5179  -20.9829   17.9593 N   0  0  0  0  0  0  0  0  0  0  0  0
   12.9153  -19.7660   17.5493 C   0  0  0  0  0  0  0  0  0  0  0  0
   13.0626  -19.0187   18.6280 N   0  0  0  0  0  0  0  0  0  0  0  0
   11.6673  -18.5822   23.2130 C   0  0  0  0  0  0  0  0  0  0  0  0
   12.1640  -17.4875   23.5575 O   0  0  0  0  0  0  0  0  0  0  0  0
   10.2654  -19.8864   26.4575 C   0  0  0  0  0  0  0  0  0  0  0  0
   11.2619  -19.1446   25.6296 C   0  0  2  0  0  0  0  0  0  0  0  0
   11.2306  -19.4535   24.2358 N   0  0  0  0  0  0  0  0  0  0  0  0
   12.6161  -19.3831   26.2306 C   0  0  0  0  0  0  0  0  0  0  0  0
   12.8356  -18.9913   27.5323 O   0  0  0  0  0  0  0  0  0  0  0  0
   13.5119  -19.9293   25.5410 O   0  0  0  0  0  0  0  0  0  0  0  0
  2  1  1  6
  2  3  1  0
  4  8  1  0
  4  3  1  0
  5  4  2  0
  6  5  1  0
  6  7  1  0
  7  8  2  0
  9  2  1  0
  9 10  2  0
 11  9  1  0
 12 11  1  0
 13 14  1  0
 12 13  1  6
 14 18  1  0
 15 14  2  0
 15 16  1  0
 16 17  1  0
 18 17  2  0
 19 12  1  0
 20 19  2  0
 22 23  1  0
 22 21  1  1
 23 19  1  0
 24 22  1  0
 25 24  1  0
 26 24  2  0
M  END
$$$$
