LWP.pdb
     RDKit          3D

 30 32  0  0  1  0  0  0  0  0999 V2000
    8.0071  -13.1279   17.9427 C   0  0  0  0  0  0  0  0  0  0  0  0
    8.5677  -14.3531   18.6330 C   0  0  1  0  0  0  0  0  0  0  0  0
    9.5846  -15.0326   17.7646 C   0  0  0  0  0  0  0  0  0  0  0  0
    9.1023  -13.9363   19.9749 C   0  0  0  0  0  0  0  0  0  0  0  0
    9.5494  -15.1144   20.8043 C   0  0  2  0  0  0  0  0  0  0  0  0
    8.7850  -16.3070   20.5652 N   0  0  0  0  0  0  0  0  0  0  0  0
    9.6256  -14.8222   22.2344 C   0  0  0  0  0  0  0  0  0  0  0  0
   10.2329  -13.7735   22.6276 O   0  0  0  0  0  0  0  0  0  0  0  0
    9.0495  -15.6627   23.1835 N   0  0  0  0  0  0  0  0  0  0  0  0
    8.9204  -15.3092   24.6285 C   0  0  1  0  0  0  0  0  0  0  0  0
    7.5556  -15.8858   24.9674 C   0  0  0  0  0  0  0  0  0  0  0  0
    6.5745  -14.9664   25.5160 C   0  0  0  0  0  0  0  0  0  0  0  0
    5.2701  -15.2889   25.8487 C   0  0  0  0  0  0  0  0  0  0  0  0
    4.6405  -14.1709   26.3038 N   0  0  0  0  0  0  0  0  0  0  0  0
    5.5183  -13.1586   26.2638 C   0  0  0  0  0  0  0  0  0  0  0  0
    5.3951  -11.8305   26.6090 C   0  0  0  0  0  0  0  0  0  0  0  0
    6.4615  -10.9700   26.4749 C   0  0  0  0  0  0  0  0  0  0  0  0
    7.6690  -11.4161   25.9950 C   0  0  0  0  0  0  0  0  0  0  0  0
    7.7864  -12.7512   25.6499 C   0  0  0  0  0  0  0  0  0  0  0  0
    6.7048  -13.6221   25.7863 C   0  0  0  0  0  0  0  0  0  0  0  0
   10.0209  -15.9067   25.3837 C   0  0  0  0  0  0  0  0  0  0  0  0
   10.8758  -16.5719   24.6842 O   0  0  0  0  0  0  0  0  0  0  0  0
   10.2769  -15.8528   26.7514 N   0  0  0  0  0  0  0  0  0  0  0  0
    9.5058  -15.2031   27.7951 C   0  0  0  0  0  0  0  0  0  0  0  0
   10.5143  -14.7631   28.8308 C   0  0  0  0  0  0  0  0  0  0  0  0
   11.8342  -15.2046   28.2656 C   0  0  0  0  0  0  0  0  0  0  0  0
   11.4438  -16.4228   27.4550 C   0  0  1  0  0  0  0  0  0  0  0  0
   11.0698  -17.4850   28.3964 C   0  0  0  0  0  0  0  0  0  0  0  0
   11.9832  -17.9596   29.1175 O   0  0  0  0  0  0  0  0  0  0  0  0
    9.7935  -18.0018   28.5500 O   0  0  0  0  0  0  0  0  0  0  0  0
  2  3  1  6
  2  1  1  0
  4  2  1  0
  5  4  1  0
  5  6  1  1
  7  8  2  0
  7  5  1  0
  9  7  1  0
 10  9  1  0
 10 11  1  1
 11 12  1  0
 12 13  2  0
 12 20  1  0
 13 14  1  0
 14 15  1  0
 15 16  2  0
 16 17  1  0
 18 17  2  0
 19 18  1  0
 20 19  2  0
 20 15  1  0
 21 10  1  0
 22 21  2  0
 23 27  1  0
 23 21  1  0
 24 23  1  0
 25 26  1  0
 25 24  1  0
 26 27  1  0
 27 28  1  1
 28 29  2  0
 28 30  1  0
M  END
$$$$
