LWP.pdb
     RDKit          3D

 30 32  0  0  1  0  0  0  0  0999 V2000
    7.8663  -13.0461   18.4170 C   0  0  0  0  0  0  0  0  0  0  0  0
    8.3287  -14.3351   19.0625 C   0  0  1  0  0  0  0  0  0  0  0  0
    9.2316  -15.0971   18.1384 C   0  0  0  0  0  0  0  0  0  0  0  0
    8.9616  -14.0009   20.3846 C   0  0  0  0  0  0  0  0  0  0  0  0
    9.2862  -15.2333   21.1919 C   0  0  2  0  0  0  0  0  0  0  0  0
    8.3513  -16.3070   21.0002 N   0  0  0  0  0  0  0  0  0  0  0  0
    9.4822  -14.9606   22.6144 C   0  0  0  0  0  0  0  0  0  0  0  0
   10.2430  -14.0021   22.9692 O   0  0  0  0  0  0  0  0  0  0  0  0
    8.8568  -15.7233   23.5974 N   0  0  0  0  0  0  0  0  0  0  0  0
    8.9448  -15.4205   25.0569 C   0  0  1  0  0  0  0  0  0  0  0  0
    7.6090  -15.9405   25.5619 C   0  0  0  0  0  0  0  0  0  0  0  0
    6.5667  -14.9551   25.7891 C   0  0  0  0  0  0  0  0  0  0  0  0
    5.2118  -15.2253   25.8764 C   0  0  0  0  0  0  0  0  0  0  0  0
    4.5391  -14.0566   26.0640 N   0  0  0  0  0  0  0  0  0  0  0  0
    5.4391  -13.0638   26.0962 C   0  0  0  0  0  0  0  0  0  0  0  0
    5.2912  -11.7037   26.2593 C   0  0  0  0  0  0  0  0  0  0  0  0
    6.3900  -10.8742   26.2561 C   0  0  0  0  0  0  0  0  0  0  0  0
    7.6552  -11.3836   26.0905 C   0  0  0  0  0  0  0  0  0  0  0  0
    7.7972  -12.7505   25.9271 C   0  0  0  0  0  0  0  0  0  0  0  0
    6.6826  -13.5900   25.9305 C   0  0  0  0  0  0  0  0  0  0  0  0
   10.1030  -16.1017   25.6341 C   0  0  0  0  0  0  0  0  0  0  0  0
   10.8768  -16.6919   24.7882 O   0  0  0  0  0  0  0  0  0  0  0  0
   10.4891  -16.1972   26.9685 N   0  0  0  0  0  0  0  0  0  0  0  0
    9.8159  -15.6854   28.1479 C   0  0  0  0  0  0  0  0  0  0  0  0
   10.9153  -15.3444   29.1270 C   0  0  0  0  0  0  0  0  0  0  0  0
   12.1788  -15.6918   28.3926 C   0  0  0  0  0  0  0  0  0  0  0  0
   11.7239  -16.8187   27.4887 C   0  0  1  0  0  0  0  0  0  0  0  0
   11.4528  -17.9878   28.3337 C   0  0  0  0  0  0  0  0  0  0  0  0
   10.2478  -18.2721   28.5494 O   0  0  0  0  0  0  0  0  0  0  0  0
   12.4189  -18.7976   28.9088 O   0  0  0  0  0  0  0  0  0  0  0  0
  2  3  1  6
  2  1  1  0
  4  2  1  0
  5  4  1  0
  5  6  1  1
  7  8  2  0
  7  5  1  0
  9  7  1  0
 10  9  1  0
 10 11  1  1
 11 12  1  0
 12 13  2  0
 12 20  1  0
 13 14  1  0
 14 15  1  0
 15 16  2  0
 16 17  1  0
 18 17  2  0
 19 18  1  0
 20 19  2  0
 20 15  1  0
 21 10  1  0
 22 21  2  0
 23 27  1  0
 23 21  1  0
 24 23  1  0
 25 26  1  0
 25 24  1  0
 26 27  1  0
 27 28  1  1
 28 29  2  0
 28 30  1  0
M  END
$$$$
