LWP.pdb
     RDKit          3D

 30 32  0  0  1  0  0  0  0  0999 V2000
   14.5301  -18.1654   19.7651 C   0  0  0  0  0  0  0  0  0  0  0  0
   13.0164  -18.1502   19.7442 C   0  0  1  0  0  0  0  0  0  0  0  0
   12.4657  -19.4472   20.2585 C   0  0  0  0  0  0  0  0  0  0  0  0
   12.5453  -16.9474   20.5133 C   0  0  0  0  0  0  0  0  0  0  0  0
   11.0417  -16.8905   20.6226 C   0  0  2  0  0  0  0  0  0  0  0  0
   10.3885  -16.5688   19.3842 N   0  0  0  0  0  0  0  0  0  0  0  0
   10.5704  -16.0236   21.7009 C   0  0  0  0  0  0  0  0  0  0  0  0
   10.8388  -14.7786   21.6659 O   0  0  0  0  0  0  0  0  0  0  0  0
    9.8322  -16.5237   22.7705 N   0  0  0  0  0  0  0  0  0  0  0  0
    9.3900  -15.6911   23.9285 C   0  0  1  0  0  0  0  0  0  0  0  0
    7.9539  -16.1537   24.1117 C   0  0  0  0  0  0  0  0  0  0  0  0
    7.0906  -15.3061   24.9150 C   0  0  0  0  0  0  0  0  0  0  0  0
    5.9926  -15.7361   25.6400 C   0  0  0  0  0  0  0  0  0  0  0  0
    5.4118  -14.6618   26.2419 N   0  0  0  0  0  0  0  0  0  0  0  0
    6.1192  -13.5722   25.9113 C   0  0  0  0  0  0  0  0  0  0  0  0
    5.9612  -12.2456   26.2482 C   0  0  0  0  0  0  0  0  0  0  0  0
    6.8351  -11.2935   25.7735 C   0  0  0  0  0  0  0  0  0  0  0  0
    7.8814  -11.6448   24.9554 C   0  0  0  0  0  0  0  0  0  0  0  0
    8.0346  -12.9789   24.6205 C   0  0  0  0  0  0  0  0  0  0  0  0
    7.1481  -13.9428   25.1024 C   0  0  0  0  0  0  0  0  0  0  0  0
   10.2493  -15.9533   25.0824 C   0  0  0  0  0  0  0  0  0  0  0  0
   11.3277  -16.6139   24.8311 O   0  0  0  0  0  0  0  0  0  0  0  0
   10.0677  -15.5844   26.4128 N   0  0  0  0  0  0  0  0  0  0  0  0
    8.9392  -14.9044   27.0211 C   0  0  0  0  0  0  0  0  0  0  0  0
    9.5199  -14.0839   28.1495 C   0  0  0  0  0  0  0  0  0  0  0  0
   10.9942  -14.3641   28.0834 C   0  0  0  0  0  0  0  0  0  0  0  0
   11.0278  -15.7694   27.5198 C   0  0  1  0  0  0  0  0  0  0  0  0
   10.5239  -16.6787   28.5560 C   0  0  0  0  0  0  0  0  0  0  0  0
   11.2378  -16.8345   29.5784 O   0  0  0  0  0  0  0  0  0  0  0  0
    9.3275  -17.3747   28.4933 O   0  0  0  0  0  0  0  0  0  0  0  0
  2  3  1  1
  2  1  1  0
  4  2  1  0
  5  4  1  0
  5  6  1  6
  7  8  2  0
  7  5  1  0
  9  7  1  0
 10  9  1  0
 10 11  1  1
 11 12  1  0
 12 13  2  0
 12 20  1  0
 13 14  1  0
 14 15  1  0
 15 16  2  0
 16 17  1  0
 18 17  2  0
 19 18  1  0
 20 19  2  0
 20 15  1  0
 21 10  1  0
 22 21  2  0
 23 27  1  0
 23 21  1  0
 24 23  1  0
 25 26  1  0
 25 24  1  0
 26 27  1  0
 27 28  1  1
 28 29  2  0
 28 30  1  0
M  END
$$$$
