LWP.pdb
     RDKit          3D

 30 32  0  0  1  0  0  0  0  0999 V2000
    8.1935  -12.7488   18.9711 C   0  0  0  0  0  0  0  0  0  0  0  0
    8.3863  -14.1060   19.6136 C   0  0  1  0  0  0  0  0  0  0  0  0
    8.3301  -15.1939   18.5826 C   0  0  0  0  0  0  0  0  0  0  0  0
    9.6708  -14.0808   20.3947 C   0  0  0  0  0  0  0  0  0  0  0  0
    9.8173  -15.2827   21.2946 C   0  0  2  0  0  0  0  0  0  0  0  0
    8.8487  -16.3121   21.0387 N   0  0  0  0  0  0  0  0  0  0  0  0
    9.8536  -14.9429   22.7157 C   0  0  0  0  0  0  0  0  0  0  0  0
   10.5925  -13.9832   23.1113 O   0  0  0  0  0  0  0  0  0  0  0  0
    9.0989  -15.6426   23.6537 N   0  0  0  0  0  0  0  0  0  0  0  0
    9.1439  -15.3666   25.1205 C   0  0  1  0  0  0  0  0  0  0  0  0
    7.7773  -15.8572   25.5697 C   0  0  0  0  0  0  0  0  0  0  0  0
    6.7438  -14.8511   25.7387 C   0  0  0  0  0  0  0  0  0  0  0  0
    5.3825  -15.0700   25.6152 C   0  0  0  0  0  0  0  0  0  0  0  0
    4.7258  -13.8938   25.8121 N   0  0  0  0  0  0  0  0  0  0  0  0
    5.6421  -12.9461   26.0553 C   0  0  0  0  0  0  0  0  0  0  0  0
    5.5141  -11.5995   26.3168 C   0  0  0  0  0  0  0  0  0  0  0  0
    6.6271  -10.8198   26.5378 C   0  0  0  0  0  0  0  0  0  0  0  0
    7.8869  -11.3666   26.5025 C   0  0  0  0  0  0  0  0  0  0  0  0
    8.0090  -12.7198   26.2392 C   0  0  0  0  0  0  0  0  0  0  0  0
    6.8800  -13.5087   26.0154 C   0  0  0  0  0  0  0  0  0  0  0  0
   10.2619  -16.0895   25.7254 C   0  0  0  0  0  0  0  0  0  0  0  0
   11.0347  -16.7070   24.8983 O   0  0  0  0  0  0  0  0  0  0  0  0
   10.6110  -16.1993   27.0690 N   0  0  0  0  0  0  0  0  0  0  0  0
    9.9522  -15.6269   28.2285 C   0  0  0  0  0  0  0  0  0  0  0  0
   11.0525  -15.3578   29.2288 C   0  0  0  0  0  0  0  0  0  0  0  0
   12.3023  -15.8053   28.5259 C   0  0  0  0  0  0  0  0  0  0  0  0
   11.7848  -16.9049   27.6220 C   0  0  1  0  0  0  0  0  0  0  0  0
   11.4097  -18.0419   28.4711 C   0  0  0  0  0  0  0  0  0  0  0  0
   12.3426  -18.6757   29.0254 O   0  0  0  0  0  0  0  0  0  0  0  0
   10.1124  -18.4676   28.7068 O   0  0  0  0  0  0  0  0  0  0  0  0
  2  3  1  6
  2  1  1  0
  4  2  1  0
  5  4  1  0
  5  6  1  1
  7  8  2  0
  7  5  1  0
  9  7  1  0
 10  9  1  0
 10 11  1  1
 11 12  1  0
 12 13  2  0
 12 20  1  0
 13 14  1  0
 14 15  1  0
 15 16  2  0
 16 17  1  0
 18 17  2  0
 19 18  1  0
 20 19  2  0
 20 15  1  0
 21 10  1  0
 22 21  2  0
 23 27  1  0
 23 21  1  0
 24 23  1  0
 25 26  1  0
 25 24  1  0
 26 27  1  0
 27 28  1  1
 28 29  2  0
 28 30  1  0
M  END
$$$$
