LWP.pdb
     RDKit          3D

 30 32  0  0  1  0  0  0  0  0999 V2000
    7.7502  -13.0453   18.3872 C   0  0  0  0  0  0  0  0  0  0  0  0
    8.3970  -14.2597   19.0189 C   0  0  1  0  0  0  0  0  0  0  0  0
    9.6484  -14.6373   18.2834 C   0  0  0  0  0  0  0  0  0  0  0  0
    8.6181  -13.9719   20.4779 C   0  0  0  0  0  0  0  0  0  0  0  0
    9.2286  -15.1433   21.2065 C   0  0  2  0  0  0  0  0  0  0  0  0
    8.4929  -16.3664   21.0437 N   0  0  0  0  0  0  0  0  0  0  0  0
    9.4894  -14.8762   22.6196 C   0  0  0  0  0  0  0  0  0  0  0  0
   10.1970  -13.8682   22.9461 O   0  0  0  0  0  0  0  0  0  0  0  0
    8.9828  -15.6971   23.6239 N   0  0  0  0  0  0  0  0  0  0  0  0
    9.0806  -15.3767   25.0791 C   0  0  1  0  0  0  0  0  0  0  0  0
    7.7399  -15.8721   25.5958 C   0  0  0  0  0  0  0  0  0  0  0  0
    6.6826  -14.8849   25.7241 C   0  0  0  0  0  0  0  0  0  0  0  0
    5.3251  -15.1523   25.6805 C   0  0  0  0  0  0  0  0  0  0  0  0
    4.6398  -13.9825   25.8053 N   0  0  0  0  0  0  0  0  0  0  0  0
    5.5346  -12.9917   25.9256 C   0  0  0  0  0  0  0  0  0  0  0  0
    5.3745  -11.6316   26.0766 C   0  0  0  0  0  0  0  0  0  0  0  0
    6.4702  -10.8045   26.1804 C   0  0  0  0  0  0  0  0  0  0  0  0
    7.7443  -11.3163   26.1358 C   0  0  0  0  0  0  0  0  0  0  0  0
    7.8986  -12.6832   25.9839 C   0  0  0  0  0  0  0  0  0  0  0  0
    6.7872  -13.5203   25.8788 C   0  0  0  0  0  0  0  0  0  0  0  0
   10.2318  -16.0658   25.6606 C   0  0  0  0  0  0  0  0  0  0  0  0
   10.9747  -16.7064   24.8238 O   0  0  0  0  0  0  0  0  0  0  0  0
   10.6402  -16.1221   26.9907 N   0  0  0  0  0  0  0  0  0  0  0  0
   10.0289  -15.5089   28.1554 C   0  0  0  0  0  0  0  0  0  0  0  0
   11.1701  -15.1959   29.0953 C   0  0  0  0  0  0  0  0  0  0  0  0
   12.3909  -15.6636   28.3556 C   0  0  0  0  0  0  0  0  0  0  0  0
   11.8419  -16.7997   27.5181 C   0  0  1  0  0  0  0  0  0  0  0  0
   11.5122  -17.9052   28.4256 C   0  0  0  0  0  0  0  0  0  0  0  0
   12.4732  -18.5384   28.9305 O   0  0  0  0  0  0  0  0  0  0  0  0
   10.2292  -18.3019   28.7663 O   0  0  0  0  0  0  0  0  0  0  0  0
  2  3  1  6
  2  1  1  0
  4  2  1  0
  5  4  1  0
  5  6  1  1
  7  8  2  0
  7  5  1  0
  9  7  1  0
 10  9  1  0
 10 11  1  1
 11 12  1  0
 12 13  2  0
 12 20  1  0
 13 14  1  0
 14 15  1  0
 15 16  2  0
 16 17  1  0
 18 17  2  0
 19 18  1  0
 20 19  2  0
 20 15  1  0
 21 10  1  0
 22 21  2  0
 23 27  1  0
 23 21  1  0
 24 23  1  0
 25 26  1  0
 25 24  1  0
 26 27  1  0
 27 28  1  1
 28 29  2  0
 28 30  1  0
M  END
$$$$
