LWP.pdb
     RDKit          3D

 30 32  0  0  1  0  0  0  0  0999 V2000
    8.0298  -13.3855   17.7102 C   0  0  0  0  0  0  0  0  0  0  0  0
    8.5355  -14.6652   18.3416 C   0  0  1  0  0  0  0  0  0  0  0  0
    8.7822  -15.7115   17.2955 C   0  0  0  0  0  0  0  0  0  0  0  0
    9.7497  -14.3378   19.1656 C   0  0  0  0  0  0  0  0  0  0  0  0
   10.1139  -15.4513   20.1160 C   0  0  2  0  0  0  0  0  0  0  0  0
    9.3121  -16.6316   19.9506 N   0  0  0  0  0  0  0  0  0  0  0  0
   10.1431  -15.0331   21.5162 C   0  0  0  0  0  0  0  0  0  0  0  0
   10.8583  -14.0351   21.8569 O   0  0  0  0  0  0  0  0  0  0  0  0
    9.4069  -15.6987   22.4930 N   0  0  0  0  0  0  0  0  0  0  0  0
    9.1561  -15.1455   23.8571 C   0  0  1  0  0  0  0  0  0  0  0  0
    7.6403  -15.2136   23.9447 C   0  0  0  0  0  0  0  0  0  0  0  0
    7.0355  -14.7613   25.1851 C   0  0  0  0  0  0  0  0  0  0  0  0
    6.4333  -15.5761   26.1284 C   0  0  0  0  0  0  0  0  0  0  0  0
    5.9551  -14.8016   27.1409 N   0  0  0  0  0  0  0  0  0  0  0  0
    6.2433  -13.5244   26.8539 C   0  0  0  0  0  0  0  0  0  0  0  0
    5.9861  -12.3558   27.5371 C   0  0  0  0  0  0  0  0  0  0  0  0
    6.3904  -11.1426   27.0269 C   0  0  0  0  0  0  0  0  0  0  0  0
    7.0578  -11.0711   25.8282 C   0  0  0  0  0  0  0  0  0  0  0  0
    7.3130  -12.2483   25.1467 C   0  0  0  0  0  0  0  0  0  0  0  0
    6.9026  -13.4771   25.6650 C   0  0  0  0  0  0  0  0  0  0  0  0
    9.8452  -15.9616   24.8558 C   0  0  0  0  0  0  0  0  0  0  0  0
   10.3839  -17.0450   24.4099 O   0  0  0  0  0  0  0  0  0  0  0  0
   10.0052  -15.7292   26.2194 N   0  0  0  0  0  0  0  0  0  0  0  0
    9.3530  -14.7377   27.0546 C   0  0  0  0  0  0  0  0  0  0  0  0
   10.3619  -14.3778   28.1205 C   0  0  0  0  0  0  0  0  0  0  0  0
   11.5613  -15.2183   27.7865 C   0  0  0  0  0  0  0  0  0  0  0  0
   10.9307  -16.4301   27.1325 C   0  0  1  0  0  0  0  0  0  0  0  0
   10.2274  -17.1858   28.1759 C   0  0  0  0  0  0  0  0  0  0  0  0
    8.9719  -17.2036   28.1230 O   0  0  0  0  0  0  0  0  0  0  0  0
   10.8386  -17.8773   29.2092 O   0  0  0  0  0  0  0  0  0  0  0  0
  2  3  1  6
  2  1  1  0
  4  2  1  0
  5  4  1  0
  5  6  1  1
  7  8  2  0
  7  5  1  0
  9  7  1  0
 10  9  1  0
 10 11  1  1
 11 12  1  0
 12 13  2  0
 12 20  1  0
 13 14  1  0
 14 15  1  0
 15 16  2  0
 16 17  1  0
 18 17  2  0
 19 18  1  0
 20 19  2  0
 20 15  1  0
 21 10  1  0
 22 21  2  0
 23 27  1  0
 23 21  1  0
 24 23  1  0
 25 26  1  0
 25 24  1  0
 26 27  1  0
 27 28  1  1
 28 29  2  0
 28 30  1  0
M  END
$$$$
