NKS.pdb
     RDKit          3D

 24 23  0  0  1  0  0  0  0  0999 V2000
   18.7923  -13.3970  -14.5249 N   0  0  0  0  0  0  0  0  0  0  0  0
   18.5296  -12.6296  -15.6925 C   0  0  0  0  0  0  0  0  0  0  0  0
   19.2690  -12.6373  -16.6998 O   0  0  0  0  0  0  0  0  0  0  0  0
   17.3241  -11.7759  -15.7287 C   0  0  0  0  0  0  0  0  0  0  0  0
   16.5271  -11.8652  -14.4433 C   0  0  2  0  0  0  0  0  0  0  0  0
   15.7973  -13.1109  -14.3865 N   0  0  0  0  0  0  0  0  0  0  0  0
   15.5689  -10.7531  -14.3066 C   0  0  0  0  0  0  0  0  0  0  0  0
   14.7560  -10.4694  -15.2345 O   0  0  0  0  0  0  0  0  0  0  0  0
   15.5140   -9.9551  -13.1369 N   0  0  0  0  0  0  0  0  0  0  0  0
   14.4618   -8.9181  -12.9458 C   0  0  1  0  0  0  0  0  0  0  0  0
   13.7677   -9.2566  -11.6193 C   0  0  0  0  0  0  0  0  0  0  0  0
   12.6322   -8.3590  -11.3071 C   0  0  0  0  0  0  0  0  0  0  0  0
   12.0025   -8.6423   -9.9373 C   0  0  0  0  0  0  0  0  0  0  0  0
   10.9024   -7.6397   -9.7048 C   0  0  0  0  0  0  0  0  0  0  0  0
   10.4368   -7.7907   -8.3198 N   0  0  0  0  0  0  0  0  0  0  0  0
   15.1516   -7.6315  -12.7893 C   0  0  0  0  0  0  0  0  0  0  0  0
   16.1345   -7.5694  -11.9773 O   0  0  0  0  0  0  0  0  0  0  0  0
   16.9833   -5.7619  -15.1539 O   0  0  0  0  0  0  0  0  0  0  0  0
   16.0676   -4.8379  -14.7029 C   0  0  0  0  0  0  0  0  0  0  0  0
   15.6570   -5.2643  -13.2864 C   0  0  2  0  0  0  0  0  0  0  0  0
   14.8282   -6.4426  -13.4671 N   0  0  0  0  0  0  0  0  0  0  0  0
   14.8826   -4.2193  -12.6152 C   0  0  0  0  0  0  0  0  0  0  0  0
   15.4924   -3.1431  -11.9969 O   0  0  0  0  0  0  0  0  0  0  0  0
   13.6261   -4.2705  -12.5805 O   0  0  0  0  0  0  0  0  0  0  0  0
  2  1  1  0
  2  3  2  0
  4  5  1  0
  4  2  1  0
  5  6  1  6
  7  5  1  0
  8  7  2  0
  9  7  1  0
 10  9  1  0
 10 11  1  1
 11 12  1  0
 12 13  1  0
 13 14  1  0
 14 15  1  0
 16 21  1  0
 16 10  1  0
 17 16  2  0
 18 19  1  0
 20 19  1  6
 20 21  1  0
 22 20  1  0
 23 22  1  0
 24 22  2  0
M  END
$$$$
