NKS.pdb
     RDKit          3D

 24 23  0  0  1  0  0  0  0  0999 V2000
   21.9468  -14.2156  -17.7321 N   0  0  0  0  0  0  0  0  0  0  0  0
   21.1770  -13.6243  -18.7709 C   0  0  0  0  0  0  0  0  0  0  0  0
   20.9948  -14.1644  -19.8828 O   0  0  0  0  0  0  0  0  0  0  0  0
   20.5560  -12.3044  -18.5355 C   0  0  0  0  0  0  0  0  0  0  0  0
   20.8729  -11.7665  -17.1551 C   0  0  2  0  0  0  0  0  0  0  0  0
   20.3603  -12.6541  -16.1367 N   0  0  0  0  0  0  0  0  0  0  0  0
   20.3025  -10.4243  -16.9385 C   0  0  0  0  0  0  0  0  0  0  0  0
   20.6026   -9.4540  -17.6940 O   0  0  0  0  0  0  0  0  0  0  0  0
   19.3974  -10.1601  -15.8808 N   0  0  0  0  0  0  0  0  0  0  0  0
   18.7800   -8.8170  -15.6964 C   0  0  1  0  0  0  0  0  0  0  0  0
   17.4126   -9.0638  -15.0445 C   0  0  0  0  0  0  0  0  0  0  0  0
   16.6259   -7.8250  -14.8472 C   0  0  0  0  0  0  0  0  0  0  0  0
   15.2058   -8.0916  -14.3323 C   0  0  0  0  0  0  0  0  0  0  0  0
   14.4899   -6.7717  -14.2110 C   0  0  0  0  0  0  0  0  0  0  0  0
   13.0632   -7.0479  -13.9963 N   0  0  0  0  0  0  0  0  0  0  0  0
   19.6209   -8.0865  -14.7400 C   0  0  0  0  0  0  0  0  0  0  0  0
   20.1060   -8.7297  -13.7498 O   0  0  0  0  0  0  0  0  0  0  0  0
   22.7613   -6.4099  -15.4364 O   0  0  0  0  0  0  0  0  0  0  0  0
   22.2529   -6.9550  -14.2788 C   0  0  0  0  0  0  0  0  0  0  0  0
   20.9724   -6.1789  -13.9395 C   0  0  2  0  0  0  0  0  0  0  0  0
   19.9523   -6.7220  -14.8182 N   0  0  0  0  0  0  0  0  0  0  0  0
   21.1292   -4.7468  -14.1977 C   0  0  0  0  0  0  0  0  0  0  0  0
   21.9060   -3.9401  -13.3864 O   0  0  0  0  0  0  0  0  0  0  0  0
   20.5552   -4.2020  -15.1756 O   0  0  0  0  0  0  0  0  0  0  0  0
  2  1  1  0
  2  3  2  0
  4  5  1  0
  4  2  1  0
  5  6  1  1
  7  5  1  0
  8  7  2  0
  9  7  1  0
 10  9  1  0
 10 11  1  1
 11 12  1  0
 12 13  1  0
 13 14  1  0
 14 15  1  0
 16 21  1  0
 16 10  1  0
 17 16  2  0
 18 19  1  0
 20 19  1  6
 20 21  1  0
 22 20  1  0
 23 22  1  0
 24 22  2  0
M  END
$$$$
