NKS.pdb
     RDKit          3D

 24 23  0  0  1  0  0  0  0  0999 V2000
   17.8532  -11.2703  -20.5550 N   0  0  0  0  0  0  0  0  0  0  0  0
   17.5884  -10.0360  -19.9010 C   0  0  0  0  0  0  0  0  0  0  0  0
   16.8038   -9.1745  -20.3522 O   0  0  0  0  0  0  0  0  0  0  0  0
   18.2696   -9.7459  -18.6223 C   0  0  0  0  0  0  0  0  0  0  0  0
   19.1271  -10.9064  -18.1603 C   0  0  2  0  0  0  0  0  0  0  0  0
   18.3131  -11.9116  -17.5166 N   0  0  0  0  0  0  0  0  0  0  0  0
   20.1777  -10.4791  -17.2183 C   0  0  0  0  0  0  0  0  0  0  0  0
   19.8994  -10.1612  -16.0251 O   0  0  0  0  0  0  0  0  0  0  0  0
   21.5395  -10.4050  -17.6029 N   0  0  0  0  0  0  0  0  0  0  0  0
   22.6116  -10.0684  -16.6250 C   0  0  1  0  0  0  0  0  0  0  0  0
   23.9148  -10.6240  -17.2154 C   0  0  0  0  0  0  0  0  0  0  0  0
   25.0935  -10.3978  -16.3481 C   0  0  0  0  0  0  0  0  0  0  0  0
   26.3950  -10.9423  -16.9504 C   0  0  0  0  0  0  0  0  0  0  0  0
   27.4978  -10.7590  -15.9407 C   0  0  0  0  0  0  0  0  0  0  0  0
   28.7151  -11.3781  -16.4816 N   0  0  0  0  0  0  0  0  0  0  0  0
   22.7113   -8.6041  -16.5856 C   0  0  0  0  0  0  0  0  0  0  0  0
   22.8385   -7.9787  -17.6911 O   0  0  0  0  0  0  0  0  0  0  0  0
   21.0459   -4.7402  -16.2375 O   0  0  0  0  0  0  0  0  0  0  0  0
   21.2360   -6.1039  -16.2318 C   0  0  0  0  0  0  0  0  0  0  0  0
   22.5812   -6.3686  -15.5408 C   0  0  2  0  0  0  0  0  0  0  0  0
   22.6730   -7.8128  -15.4237 N   0  0  0  0  0  0  0  0  0  0  0  0
   22.6271   -5.7655  -14.2079 C   0  0  0  0  0  0  0  0  0  0  0  0
   22.9765   -4.4410  -14.0184 O   0  0  0  0  0  0  0  0  0  0  0  0
   22.3475   -6.4420  -13.1848 O   0  0  0  0  0  0  0  0  0  0  0  0
  2  1  1  0
  2  3  2  0
  4  5  1  0
  4  2  1  0
  5  6  1  1
  7  5  1  0
  8  7  2  0
  9  7  1  0
 10  9  1  0
 10 11  1  6
 11 12  1  0
 12 13  1  0
 13 14  1  0
 14 15  1  0
 16 21  1  0
 16 10  1  0
 17 16  2  0
 18 19  1  0
 20 19  1  1
 20 21  1  0
 22 20  1  0
 23 22  1  0
 24 22  2  0
M  END
$$$$
