NKS.pdb
     RDKit          3D

 24 23  0  0  1  0  0  0  0  0999 V2000
   19.3075   -9.9131  -13.7631 N   0  0  0  0  0  0  0  0  0  0  0  0
   19.0273   -9.3173  -12.5030 C   0  0  0  0  0  0  0  0  0  0  0  0
   19.6952   -9.5459  -11.4719 O   0  0  0  0  0  0  0  0  0  0  0  0
   17.8914   -8.3786  -12.3947 C   0  0  0  0  0  0  0  0  0  0  0  0
   17.5115   -8.1119  -10.9525 C   0  0  2  0  0  0  0  0  0  0  0  0
   17.0790   -9.3314  -10.3098 N   0  0  0  0  0  0  0  0  0  0  0  0
   16.4330   -7.1131  -10.8387 C   0  0  0  0  0  0  0  0  0  0  0  0
   15.9528   -6.5462  -11.8636 O   0  0  0  0  0  0  0  0  0  0  0  0
   15.8873   -6.7439   -9.5842 N   0  0  0  0  0  0  0  0  0  0  0  0
   14.7155   -5.8303   -9.4790 C   0  0  1  0  0  0  0  0  0  0  0  0
   13.9146   -6.3054   -8.2589 C   0  0  0  0  0  0  0  0  0  0  0  0
   12.8753   -7.3054   -8.5941 C   0  0  0  0  0  0  0  0  0  0  0  0
   12.0356   -7.7276   -7.3818 C   0  0  0  0  0  0  0  0  0  0  0  0
   10.9317   -8.6332   -7.8619 C   0  0  0  0  0  0  0  0  0  0  0  0
   10.1890   -9.1054   -6.6858 N   0  0  0  0  0  0  0  0  0  0  0  0
   15.2414   -4.4901   -9.1911 C   0  0  0  0  0  0  0  0  0  0  0  0
   16.2181   -4.3882   -8.3755 O   0  0  0  0  0  0  0  0  0  0  0  0
   16.1524   -1.8303  -11.7147 O   0  0  0  0  0  0  0  0  0  0  0  0
   15.3444   -1.2294  -10.7758 C   0  0  0  0  0  0  0  0  0  0  0  0
   15.4708   -2.0471   -9.4825 C   0  0  2  0  0  0  0  0  0  0  0  0
   14.7650   -3.2884   -9.7447 N   0  0  0  0  0  0  0  0  0  0  0  0
   14.8480   -1.3595   -8.3504 C   0  0  0  0  0  0  0  0  0  0  0  0
   15.4850   -0.3297   -7.6825 O   0  0  0  0  0  0  0  0  0  0  0  0
   13.7028   -1.6891   -7.9474 O   0  0  0  0  0  0  0  0  0  0  0  0
  2  1  1  0
  2  3  2  0
  4  5  1  0
  4  2  1  0
  5  6  1  6
  7  5  1  0
  8  7  2  0
  9  7  1  0
 10  9  1  0
 10 11  1  1
 11 12  1  0
 12 13  1  0
 13 14  1  0
 14 15  1  0
 16 21  1  0
 16 10  1  0
 17 16  2  0
 18 19  1  0
 20 19  1  6
 20 21  1  0
 22 20  1  0
 23 22  1  0
 24 22  2  0
M  END
$$$$
