KCG.pdb
     RDKit          3D

 20 19  0  0  1  0  0  0  0  0999 V2000
    7.7512  -13.6551   20.8651 N   0  0  0  0  0  0  0  0  0  0  0  0
    6.9053  -14.1542   21.9500 C   0  0  1  0  0  0  0  0  0  0  0  0
    6.5330  -15.5706   21.5870 C   0  0  0  0  0  0  0  0  0  0  0  0
    7.7864  -16.3139   21.1778 C   0  0  0  0  0  0  0  0  0  0  0  0
    7.5090  -17.7389   20.7705 C   0  0  0  0  0  0  0  0  0  0  0  0
    8.7842  -18.4080   20.3268 C   0  0  0  0  0  0  0  0  0  0  0  0
    8.4864  -19.7799   20.0034 N   0  0  0  0  0  0  0  0  0  0  0  0
    7.6691  -14.0840   23.2137 C   0  0  0  0  0  0  0  0  0  0  0  0
    8.9205  -14.2271   23.2259 O   0  0  0  0  0  0  0  0  0  0  0  0
    7.0298  -13.8554   24.4468 N   0  0  0  0  0  0  0  0  0  0  0  0
    7.7558  -13.7722   25.6760 C   0  0  1  0  0  0  0  0  0  0  0  0
    6.9891  -13.0569   26.7682 C   0  0  0  0  0  0  0  0  0  0  0  0
    6.4657  -11.4073   26.2249 S   0  0  0  0  0  0  0  0  0  0  0  0
    8.2711  -15.0738   26.1414 C   0  0  0  0  0  0  0  0  0  0  0  0
    7.4651  -15.9398   26.5425 O   0  0  0  0  0  0  0  0  0  0  0  0
    9.6463  -15.3414   26.1361 N   0  0  0  0  0  0  0  0  0  0  0  0
   10.0803  -16.6534   26.5535 C   0  0  0  0  0  0  0  0  0  0  0  0
   11.5596  -16.7627   26.5984 C   0  0  0  0  0  0  0  0  0  0  0  0
   12.2422  -17.5744   27.4769 O   0  0  0  0  0  0  0  0  0  0  0  0
   12.2143  -16.0680   25.7810 O   0  0  0  0  0  0  0  0  0  0  0  0
  2  8  1  0
  2  1  1  6
  3  2  1  0
  4  3  1  0
  5  4  1  0
  6  5  1  0
  7  6  1  0
  8  9  2  0
 10  8  1  0
 11 10  1  0
 11 12  1  1
 13 12  1  0
 14 11  1  0
 15 14  2  0
 16 14  1  0
 17 16  1  0
 18 17  1  0
 19 18  1  0
 20 18  2  0
M  END
$$$$
