KCG.pdb
     RDKit          3D

 20 19  0  0  1  0  0  0  0  0999 V2000
    7.1080  -15.9081   20.1415 N   0  0  0  0  0  0  0  0  0  0  0  0
    8.4510  -15.3469   19.9895 C   0  0  1  0  0  0  0  0  0  0  0  0
    8.3241  -14.1811   19.0402 C   0  0  0  0  0  0  0  0  0  0  0  0
    7.9554  -14.7071   17.6697 C   0  0  0  0  0  0  0  0  0  0  0  0
    7.9468  -13.6276   16.6170 C   0  0  0  0  0  0  0  0  0  0  0  0
    7.5839  -14.2140   15.2772 C   0  0  0  0  0  0  0  0  0  0  0  0
    7.4981  -13.1396   14.3214 N   0  0  0  0  0  0  0  0  0  0  0  0
    8.9420  -14.9322   21.3208 C   0  0  0  0  0  0  0  0  0  0  0  0
   10.0861  -14.4249   21.4628 O   0  0  0  0  0  0  0  0  0  0  0  0
    8.1528  -15.0878   22.4761 N   0  0  0  0  0  0  0  0  0  0  0  0
    8.6897  -14.9250   23.7914 C   0  0  1  0  0  0  0  0  0  0  0  0
    7.6406  -14.5471   24.8155 C   0  0  0  0  0  0  0  0  0  0  0  0
    6.7811  -13.0231   24.3373 S   0  0  0  0  0  0  0  0  0  0  0  0
    9.4947  -16.0761   24.2424 C   0  0  0  0  0  0  0  0  0  0  0  0
    8.9143  -17.1238   24.5968 O   0  0  0  0  0  0  0  0  0  0  0  0
   10.8934  -16.0012   24.2749 N   0  0  0  0  0  0  0  0  0  0  0  0
   11.6234  -17.1804   24.6756 C   0  0  0  0  0  0  0  0  0  0  0  0
   13.0887  -16.9473   24.6990 C   0  0  0  0  0  0  0  0  0  0  0  0
   14.0111  -17.9011   25.0684 O   0  0  0  0  0  0  0  0  0  0  0  0
   13.4970  -15.8083   24.3594 O   0  0  0  0  0  0  0  0  0  0  0  0
  2  8  1  0
  2  1  1  1
  3  2  1  0
  4  3  1  0
  5  4  1  0
  6  5  1  0
  7  6  1  0
  8  9  2  0
 10  8  1  0
 11 10  1  0
 11 12  1  1
 13 12  1  0
 14 11  1  0
 15 14  2  0
 16 14  1  0
 17 16  1  0
 18 17  1  0
 19 18  1  0
 20 18  2  0
M  END
$$$$
