KCG.pdb
     RDKit          3D

 20 19  0  0  1  0  0  0  0  0999 V2000
    5.5293  -18.5520   24.2045 N   0  0  0  0  0  0  0  0  0  0  0  0
    6.2066  -18.3241   22.9274 C   0  0  1  0  0  0  0  0  0  0  0  0
    5.1232  -18.1606   21.8901 C   0  0  0  0  0  0  0  0  0  0  0  0
    4.6947  -19.5318   21.4134 C   0  0  0  0  0  0  0  0  0  0  0  0
    3.6655  -20.1643   22.3159 C   0  0  0  0  0  0  0  0  0  0  0  0
    3.2297  -21.4924   21.7529 C   0  0  0  0  0  0  0  0  0  0  0  0
    2.2588  -22.0669   22.6488 N   0  0  0  0  0  0  0  0  0  0  0  0
    7.0494  -17.1157   23.0499 C   0  0  0  0  0  0  0  0  0  0  0  0
    7.6692  -16.6518   22.0563 O   0  0  0  0  0  0  0  0  0  0  0  0
    7.1909  -16.4400   24.2767 N   0  0  0  0  0  0  0  0  0  0  0  0
    8.1555  -15.4015   24.4661 C   0  0  1  0  0  0  0  0  0  0  0  0
    7.7102  -14.3563   25.4668 C   0  0  0  0  0  0  0  0  0  0  0  0
    5.9206  -14.0778   25.3666 S   0  0  0  0  0  0  0  0  0  0  0  0
    9.5064  -15.9063   24.7773 C   0  0  0  0  0  0  0  0  0  0  0  0
    9.7050  -16.4828   25.8675 O   0  0  0  0  0  0  0  0  0  0  0  0
   10.5577  -15.7440   23.8655 N   0  0  0  0  0  0  0  0  0  0  0  0
   11.8722  -16.1869   24.2651 C   0  0  0  0  0  0  0  0  0  0  0  0
   12.9018  -15.8666   23.2455 C   0  0  0  0  0  0  0  0  0  0  0  0
   14.2533  -16.0503   23.4365 O   0  0  0  0  0  0  0  0  0  0  0  0
   12.5021  -15.4013   22.1486 O   0  0  0  0  0  0  0  0  0  0  0  0
  2  8  1  0
  2  1  1  1
  3  2  1  0
  4  3  1  0
  5  4  1  0
  6  5  1  0
  7  6  1  0
  8  9  2  0
 10  8  1  0
 11 10  1  0
 11 12  1  1
 13 12  1  0
 14 11  1  0
 15 14  2  0
 16 14  1  0
 17 16  1  0
 18 17  1  0
 19 18  1  0
 20 18  2  0
M  END
$$$$
