KCG.pdb
     RDKit          3D

 20 19  0  0  1  0  0  0  0  0999 V2000
    6.2589  -15.9409   21.4546 N   0  0  0  0  0  0  0  0  0  0  0  0
    7.2770  -14.9670   21.0585 C   0  0  1  0  0  0  0  0  0  0  0  0
    6.5553  -13.8694   20.3164 C   0  0  0  0  0  0  0  0  0  0  0  0
    7.5315  -13.1920   19.3789 C   0  0  0  0  0  0  0  0  0  0  0  0
    7.4462  -13.7226   17.9700 C   0  0  0  0  0  0  0  0  0  0  0  0
    8.5712  -13.1640   17.1375 C   0  0  0  0  0  0  0  0  0  0  0  0
    8.4776  -13.7266   15.8147 N   0  0  0  0  0  0  0  0  0  0  0  0
    7.9512  -14.4683   22.2760 C   0  0  0  0  0  0  0  0  0  0  0  0
    8.9531  -13.7088   22.1995 O   0  0  0  0  0  0  0  0  0  0  0  0
    7.5010  -14.8216   23.5621 N   0  0  0  0  0  0  0  0  0  0  0  0
    8.2509  -14.5166   24.7408 C   0  0  1  0  0  0  0  0  0  0  0  0
    7.5584  -13.5137   25.6391 C   0  0  0  0  0  0  0  0  0  0  0  0
    5.8986  -14.0847   26.0966 S   0  0  0  0  0  0  0  0  0  0  0  0
    8.6734  -15.7136   25.4926 C   0  0  0  0  0  0  0  0  0  0  0  0
    7.8122  -16.3932   26.0898 O   0  0  0  0  0  0  0  0  0  0  0  0
   10.0226  -16.0886   25.5400 N   0  0  0  0  0  0  0  0  0  0  0  0
   10.3672  -17.2764   26.2844 C   0  0  0  0  0  0  0  0  0  0  0  0
   11.8186  -17.5772   26.2125 C   0  0  0  0  0  0  0  0  0  0  0  0
   12.4257  -18.5977   26.9103 O   0  0  0  0  0  0  0  0  0  0  0  0
   12.5222  -16.8499   25.4673 O   0  0  0  0  0  0  0  0  0  0  0  0
  2  8  1  0
  2  1  1  1
  3  2  1  0
  4  3  1  0
  5  4  1  0
  6  5  1  0
  7  6  1  0
  8  9  2  0
 10  8  1  0
 11 10  1  0
 11 12  1  1
 13 12  1  0
 14 11  1  0
 15 14  2  0
 16 14  1  0
 17 16  1  0
 18 17  1  0
 19 18  1  0
 20 18  2  0
M  END
$$$$
