KCG.pdb
     RDKit          3D

 20 19  0  0  1  0  0  0  0  0999 V2000
    5.8872  -20.5991   22.9827 N   0  0  0  0  0  0  0  0  0  0  0  0
    6.4840  -19.9667   24.1598 C   0  0  1  0  0  0  0  0  0  0  0  0
    7.5026  -20.9401   24.6997 C   0  0  0  0  0  0  0  0  0  0  0  0
    6.8827  -21.7063   25.8485 C   0  0  0  0  0  0  0  0  0  0  0  0
    7.8162  -22.7389   26.4279 C   0  0  0  0  0  0  0  0  0  0  0  0
    7.1292  -23.4936   27.5366 C   0  0  0  0  0  0  0  0  0  0  0  0
    8.0231  -24.5212   28.0059 N   0  0  0  0  0  0  0  0  0  0  0  0
    7.0985  -18.6872   23.7468 C   0  0  0  0  0  0  0  0  0  0  0  0
    7.6619  -18.5681   22.6265 O   0  0  0  0  0  0  0  0  0  0  0  0
    7.0775  -17.5574   24.5863 N   0  0  0  0  0  0  0  0  0  0  0  0
    7.7908  -16.3597   24.2676 C   0  0  1  0  0  0  0  0  0  0  0  0
    7.0635  -15.1050   24.7025 C   0  0  0  0  0  0  0  0  0  0  0  0
    8.0016  -13.6186   24.2542 S   0  0  0  0  0  0  0  0  0  0  0  0
    9.1877  -16.3660   24.7417 C   0  0  0  0  0  0  0  0  0  0  0  0
    9.4144  -16.4293   25.9684 O   0  0  0  0  0  0  0  0  0  0  0  0
   10.2515  -16.3019   23.8321 N   0  0  0  0  0  0  0  0  0  0  0  0
   11.5852  -16.1486   24.3629 C   0  0  0  0  0  0  0  0  0  0  0  0
   12.6092  -16.0973   23.2901 C   0  0  0  0  0  0  0  0  0  0  0  0
   13.9401  -15.8217   23.5130 O   0  0  0  0  0  0  0  0  0  0  0  0
   12.2247  -16.3204   22.1146 O   0  0  0  0  0  0  0  0  0  0  0  0
  2  8  1  0
  2  1  1  6
  3  2  1  0
  4  3  1  0
  5  4  1  0
  6  5  1  0
  7  6  1  0
  8  9  2  0
 10  8  1  0
 11 10  1  0
 11 12  1  1
 13 12  1  0
 14 11  1  0
 15 14  2  0
 16 14  1  0
 17 16  1  0
 18 17  1  0
 19 18  1  0
 20 18  2  0
M  END
$$$$
