KCG.pdb
     RDKit          3D

 20 19  0  0  1  0  0  0  0  0999 V2000
    7.8756  -15.8474   22.0750 N   0  0  0  0  0  0  0  0  0  0  0  0
    7.3828  -16.1525   23.4188 C   0  0  1  0  0  0  0  0  0  0  0  0
    7.9152  -17.5195   23.7711 C   0  0  0  0  0  0  0  0  0  0  0  0
    6.7542  -18.4867   23.8576 C   0  0  0  0  0  0  0  0  0  0  0  0
    7.1901  -19.8864   24.2105 C   0  0  0  0  0  0  0  0  0  0  0  0
    6.0140  -20.8263   24.1470 C   0  0  0  0  0  0  0  0  0  0  0  0
    6.4864  -22.1607   24.4146 N   0  0  0  0  0  0  0  0  0  0  0  0
    7.8670  -15.1084   24.3467 C   0  0  0  0  0  0  0  0  0  0  0  0
    9.0591  -14.7037   24.3051 O   0  0  0  0  0  0  0  0  0  0  0  0
    7.0178  -14.5289   25.3083 N   0  0  0  0  0  0  0  0  0  0  0  0
    7.4743  -13.5274   26.2212 C   0  0  1  0  0  0  0  0  0  0  0  0
    6.3946  -12.5354   26.5986 C   0  0  0  0  0  0  0  0  0  0  0  0
    5.5933  -11.8501   25.1226 S   0  0  0  0  0  0  0  0  0  0  0  0
    8.1391  -14.0825   27.4154 C   0  0  0  0  0  0  0  0  0  0  0  0
    7.5253  -14.9053   28.1272 O   0  0  0  0  0  0  0  0  0  0  0  0
    9.4428  -13.6954   27.7524 N   0  0  0  0  0  0  0  0  0  0  0  0
    9.9891  -14.1773   28.9988 C   0  0  0  0  0  0  0  0  0  0  0  0
   10.6234  -15.5107   28.8504 C   0  0  0  0  0  0  0  0  0  0  0  0
   11.2160  -16.1975   29.8867 O   0  0  0  0  0  0  0  0  0  0  0  0
   10.6113  -16.0310   27.7065 O   0  0  0  0  0  0  0  0  0  0  0  0
  2  8  1  0
  2  1  1  6
  3  2  1  0
  4  3  1  0
  5  4  1  0
  6  5  1  0
  7  6  1  0
  8  9  2  0
 10  8  1  0
 11 10  1  0
 11 12  1  1
 13 12  1  0
 14 11  1  0
 15 14  2  0
 16 14  1  0
 17 16  1  0
 18 17  1  0
 19 18  1  0
 20 18  2  0
M  END
$$$$
