KCG.pdb
     RDKit          3D

 20 19  0  0  1  0  0  0  0  0999 V2000
    4.7300  -18.2951   23.0703 N   0  0  0  0  0  0  0  0  0  0  0  0
    5.9116  -18.3572   23.9314 C   0  0  1  0  0  0  0  0  0  0  0  0
    6.7607  -19.4918   23.4138 C   0  0  0  0  0  0  0  0  0  0  0  0
    5.9726  -20.7793   23.5240 C   0  0  0  0  0  0  0  0  0  0  0  0
    6.7395  -21.9742   23.0163 C   0  0  0  0  0  0  0  0  0  0  0  0
    5.8745  -23.2068   23.0735 C   0  0  0  0  0  0  0  0  0  0  0  0
    6.6780  -24.3412   22.6957 N   0  0  0  0  0  0  0  0  0  0  0  0
    6.6135  -17.0579   23.8630 C   0  0  0  0  0  0  0  0  0  0  0  0
    6.8783  -16.5196   22.7554 O   0  0  0  0  0  0  0  0  0  0  0  0
    7.0113  -16.3755   25.0282 N   0  0  0  0  0  0  0  0  0  0  0  0
    7.7742  -15.1671   24.9787 C   0  0  1  0  0  0  0  0  0  0  0  0
    7.2736  -14.1121   25.9423 C   0  0  0  0  0  0  0  0  0  0  0  0
    5.5151  -13.7608   25.6692 S   0  0  0  0  0  0  0  0  0  0  0  0
    9.2262  -15.3845   25.1227 C   0  0  0  0  0  0  0  0  0  0  0  0
    9.7290  -15.4031   26.2660 O   0  0  0  0  0  0  0  0  0  0  0  0
   10.0367  -15.5685   23.9947 N   0  0  0  0  0  0  0  0  0  0  0  0
   11.4585  -15.7097   24.2009 C   0  0  0  0  0  0  0  0  0  0  0  0
   12.1922  -15.8827   22.9226 C   0  0  0  0  0  0  0  0  0  0  0  0
   13.5646  -15.9515   22.8295 O   0  0  0  0  0  0  0  0  0  0  0  0
   11.5080  -15.9701   21.8721 O   0  0  0  0  0  0  0  0  0  0  0  0
  2  8  1  0
  2  1  1  6
  3  2  1  0
  4  3  1  0
  5  4  1  0
  6  5  1  0
  7  6  1  0
  8  9  2  0
 10  8  1  0
 11 10  1  0
 11 12  1  1
 13 12  1  0
 14 11  1  0
 15 14  2  0
 16 14  1  0
 17 16  1  0
 18 17  1  0
 19 18  1  0
 20 18  2  0
M  END
$$$$
