KCG.pdb
     RDKit          3D

 20 19  0  0  1  0  0  0  0  0999 V2000
    8.3530  -13.2011   18.2239 N   0  0  0  0  0  0  0  0  0  0  0  0
    7.6325  -14.0998   19.1267 C   0  0  1  0  0  0  0  0  0  0  0  0
    7.4855  -15.4128   18.3981 C   0  0  0  0  0  0  0  0  0  0  0  0
    8.7111  -15.6319   17.5375 C   0  0  0  0  0  0  0  0  0  0  0  0
    8.5968  -16.8574   16.6663 C   0  0  0  0  0  0  0  0  0  0  0  0
    9.8815  -17.0765   15.9100 C   0  0  0  0  0  0  0  0  0  0  0  0
    9.9102  -16.1663   14.7937 N   0  0  0  0  0  0  0  0  0  0  0  0
    8.4120  -14.2380   20.3752 C   0  0  0  0  0  0  0  0  0  0  0  0
    9.6620  -14.0831   20.3817 O   0  0  0  0  0  0  0  0  0  0  0  0
    7.7897  -14.5469   21.5995 N   0  0  0  0  0  0  0  0  0  0  0  0
    8.5233  -14.6396   22.8234 C   0  0  1  0  0  0  0  0  0  0  0  0
    7.6354  -14.5999   24.0492 C   0  0  0  0  0  0  0  0  0  0  0  0
    6.8335  -12.9821   24.2218 S   0  0  0  0  0  0  0  0  0  0  0  0
    9.4508  -15.7860   22.8653 C   0  0  0  0  0  0  0  0  0  0  0  0
    9.0644  -16.8978   22.4470 O   0  0  0  0  0  0  0  0  0  0  0  0
   10.7504  -15.6360   23.3669 N   0  0  0  0  0  0  0  0  0  0  0  0
   11.5742  -16.8169   23.4710 C   0  0  0  0  0  0  0  0  0  0  0  0
   12.8180  -16.7006   22.6700 C   0  0  0  0  0  0  0  0  0  0  0  0
   14.0447  -17.1685   23.0862 O   0  0  0  0  0  0  0  0  0  0  0  0
   12.7316  -16.1402   21.5484 O   0  0  0  0  0  0  0  0  0  0  0  0
  2  8  1  0
  2  1  1  6
  3  2  1  0
  4  3  1  0
  5  4  1  0
  6  5  1  0
  7  6  1  0
  8  9  2  0
 10  8  1  0
 11 10  1  0
 11 12  1  1
 13 12  1  0
 14 11  1  0
 15 14  2  0
 16 14  1  0
 17 16  1  0
 18 17  1  0
 19 18  1  0
 20 18  2  0
M  END
$$$$
