KCG.pdb
     RDKit          3D

 20 19  0  0  1  0  0  0  0  0999 V2000
    6.9416  -17.6278   21.2350 N   0  0  0  0  0  0  0  0  0  0  0  0
    8.2280  -17.2645   20.6392 C   0  0  1  0  0  0  0  0  0  0  0  0
    7.9276  -16.7385   19.2573 C   0  0  0  0  0  0  0  0  0  0  0  0
    7.3792  -17.8696   18.4143 C   0  0  0  0  0  0  0  0  0  0  0  0
    8.1456  -18.0601   17.1297 C   0  0  0  0  0  0  0  0  0  0  0  0
    7.5550  -19.1985   16.3386 C   0  0  0  0  0  0  0  0  0  0  0  0
    8.3742  -19.4123   15.1731 N   0  0  0  0  0  0  0  0  0  0  0  0
    8.8738  -16.2474   21.4958 C   0  0  0  0  0  0  0  0  0  0  0  0
   10.0027  -15.7720   21.2023 O   0  0  0  0  0  0  0  0  0  0  0  0
    8.2542  -15.7731   22.6675 N   0  0  0  0  0  0  0  0  0  0  0  0
    8.9965  -15.1633   23.7267 C   0  0  1  0  0  0  0  0  0  0  0  0
    8.1202  -14.4102   24.7052 C   0  0  0  0  0  0  0  0  0  0  0  0
    6.8709  -13.4232   23.8362 S   0  0  0  0  0  0  0  0  0  0  0  0
    9.9020  -16.0981   24.4214 C   0  0  0  0  0  0  0  0  0  0  0  0
    9.4516  -16.8105   25.3433 O   0  0  0  0  0  0  0  0  0  0  0  0
   11.2515  -16.1902   24.0562 N   0  0  0  0  0  0  0  0  0  0  0  0
   12.1833  -16.6942   25.0370 C   0  0  0  0  0  0  0  0  0  0  0  0
   12.2176  -18.1776   25.0619 C   0  0  0  0  0  0  0  0  0  0  0  0
   13.2094  -18.9316   24.4748 O   0  0  0  0  0  0  0  0  0  0  0  0
   11.2804  -18.7663   25.6573 O   0  0  0  0  0  0  0  0  0  0  0  0
  2  8  1  0
  2  1  1  1
  3  2  1  0
  4  3  1  0
  5  4  1  0
  6  5  1  0
  7  6  1  0
  8  9  2  0
 10  8  1  0
 11 10  1  0
 11 12  1  1
 13 12  1  0
 14 11  1  0
 15 14  2  0
 16 14  1  0
 17 16  1  0
 18 17  1  0
 19 18  1  0
 20 18  2  0
M  END
$$$$
