REH.pdb
     RDKit          3D

 31 31  0  0  1  0  0  0  0  0999 V2000
   30.1966  -24.7845  -18.7263 N   0  0  0  0  0  0  0  0  0  0  0  0
   30.5256  -25.3443  -17.4473 C   0  0  0  0  0  0  0  0  0  0  0  0
   31.7404  -25.2762  -17.0322 N   0  0  0  0  0  0  0  0  0  0  0  0
   29.5663  -25.9690  -16.6235 N   0  0  0  0  0  0  0  0  0  0  0  0
   28.1909  -26.0523  -16.9960 C   0  0  0  0  0  0  0  0  0  0  0  0
   27.5530  -24.7412  -17.3467 C   0  0  0  0  0  0  0  0  0  0  0  0
   26.3113  -24.4343  -16.5670 C   0  0  0  0  0  0  0  0  0  0  0  0
   26.2497  -22.9471  -16.2949 C   0  0  2  0  0  0  0  0  0  0  0  0
   27.5603  -22.5728  -15.7391 N   0  0  0  0  0  0  0  0  0  0  0  0
   25.2549  -22.6036  -15.2480 C   0  0  0  0  0  0  0  0  0  0  0  0
   24.0331  -22.9192  -15.3137 O   0  0  0  0  0  0  0  0  0  0  0  0
   32.0011  -25.5957  -16.0783 N   0  0  0  0  0  0  0  0  0  0  0  0
   25.6743  -21.8740  -14.0855 C   0  0  1  0  0  0  0  0  0  0  0  0
   24.8195  -21.5656  -12.9924 C   0  0  0  0  0  0  0  0  0  0  0  0
   25.4253  -21.0687  -11.7375 C   0  0  0  0  0  0  0  0  0  0  0  0
   24.5770  -20.8649  -10.5525 C   0  0  0  0  0  0  0  0  0  0  0  0
   25.1995  -20.4784   -9.3035 O   0  0  0  0  0  0  0  0  0  0  0  0
   26.3896  -20.1228   -9.2307 C   0  0  0  0  0  0  0  0  0  0  0  0
   23.7742  -20.6265  -13.4556 O   0  0  0  0  0  0  0  0  0  0  0  0
   24.0469  -19.5541  -14.0514 O   0  0  0  0  0  0  0  0  0  0  0  0
   24.4607  -20.4976   -8.1324 N   0  0  0  0  0  0  0  0  0  0  0  0
   22.4001  -20.9233  -13.2317 C   0  0  1  0  0  0  0  0  0  0  0  0
   21.3456  -20.2379  -13.9957 C   0  0  0  0  0  0  0  0  0  0  0  0
   21.3011  -20.9003  -15.3642 C   0  0  0  0  0  0  0  0  0  0  0  0
   20.9008  -19.8954  -16.3600 C   0  0  0  0  0  0  0  0  0  0  0  0
   20.6293  -18.5581  -16.0699 N   0  0  0  0  0  0  0  0  0  0  0  0
   20.2932  -17.9144  -17.1936 C   0  0  0  0  0  0  0  0  0  0  0  0
   20.3433  -18.8052  -18.1901 N   0  0  0  0  0  0  0  0  0  0  0  0
   20.7127  -20.0021  -17.6710 C   0  0  0  0  0  0  0  0  0  0  0  0
   20.0639  -20.5045  -13.3164 O   0  0  0  0  0  0  0  0  0  0  0  0
   19.0556  -19.5379  -13.3874 O   0  0  0  0  0  0  0  0  0  0  0  0
  1  2  1  0
  2  3  2  0
  4  5  1  0
  4  2  1  0
  6  5  1  0
  7  6  1  0
  8  7  1  0
  8  9  1  1
 10  8  1  0
 10 11  2  0
 12 10  1  0
 13 12  1  0
 13 14  1  1
 14 15  1  0
 15 16  1  0
 16 20  1  0
 16 17  2  0
 18 13  1  0
 19 18  2  0
 21 18  1  0
 22 29  1  0
 22 21  1  0
 22 23  1  1
 24 23  1  0
 25 24  2  0
 26 27  1  0
 26 25  1  0
 27 28  2  0
 28 24  1  0
 29 30  1  0
 31 29  2  0
M  END
$$$$
