REH.pdb
     RDKit          3D

 31 31  0  0  1  0  0  0  0  0999 V2000
   29.2323  -22.3474  -16.5602 N   0  0  0  0  0  0  0  0  0  0  0  0
   29.2078  -21.7445  -17.8614 C   0  0  0  0  0  0  0  0  0  0  0  0
   29.1218  -22.5019  -18.8965 N   0  0  0  0  0  0  0  0  0  0  0  0
   29.2748  -20.3486  -18.0519 N   0  0  0  0  0  0  0  0  0  0  0  0
   28.1996  -19.4844  -17.6853 C   0  0  0  0  0  0  0  0  0  0  0  0
   26.8339  -20.0921  -17.8062 C   0  0  0  0  0  0  0  0  0  0  0  0
   25.8152  -19.5023  -16.8797 C   0  0  0  0  0  0  0  0  0  0  0  0
   26.0061  -20.0835  -15.4957 C   0  0  2  0  0  0  0  0  0  0  0  0
   26.9141  -21.2317  -15.6500 N   0  0  0  0  0  0  0  0  0  0  0  0
   24.7479  -20.6369  -14.9353 C   0  0  0  0  0  0  0  0  0  0  0  0
   24.0922  -21.5712  -15.4774 O   0  0  0  0  0  0  0  0  0  0  0  0
   29.2606  -22.1218  -19.8538 N   0  0  0  0  0  0  0  0  0  0  0  0
   24.2228  -20.1019  -13.7114 C   0  0  1  0  0  0  0  0  0  0  0  0
   23.1493  -20.6876  -12.9866 C   0  0  0  0  0  0  0  0  0  0  0  0
   23.2604  -20.7897  -11.5149 C   0  0  0  0  0  0  0  0  0  0  0  0
   24.5615  -21.1064  -10.9050 C   0  0  0  0  0  0  0  0  0  0  0  0
   24.6646  -21.1577   -9.4616 O   0  0  0  0  0  0  0  0  0  0  0  0
   23.6979  -20.9274   -8.7130 C   0  0  0  0  0  0  0  0  0  0  0  0
   21.8942  -19.9948  -13.3521 O   0  0  0  0  0  0  0  0  0  0  0  0
   21.8188  -18.7444  -13.4536 O   0  0  0  0  0  0  0  0  0  0  0  0
   25.8762  -21.4733   -8.8697 N   0  0  0  0  0  0  0  0  0  0  0  0
   20.7124  -20.7474  -13.6038 C   0  0  1  0  0  0  0  0  0  0  0  0
   19.4367  -20.0743  -13.8952 C   0  0  0  0  0  0  0  0  0  0  0  0
   18.7399  -20.9072  -14.9602 C   0  0  0  0  0  0  0  0  0  0  0  0
   19.3186  -20.5746  -16.2703 C   0  0  0  0  0  0  0  0  0  0  0  0
   19.7037  -19.2924  -16.6628 N   0  0  0  0  0  0  0  0  0  0  0  0
   20.1892  -19.3315  -17.9088 C   0  0  0  0  0  0  0  0  0  0  0  0
   20.1235  -20.6027  -18.3197 N   0  0  0  0  0  0  0  0  0  0  0  0
   19.5937  -21.3457  -17.3167 C   0  0  0  0  0  0  0  0  0  0  0  0
   18.6202  -20.1250  -12.6679 O   0  0  0  0  0  0  0  0  0  0  0  0
   17.3508  -19.5380  -12.6845 O   0  0  0  0  0  0  0  0  0  0  0  0
  1  2  1  0
  2  3  2  0
  4  5  1  0
  4  2  1  0
  6  5  1  0
  7  6  1  0
  8  7  1  0
  8  9  1  6
 10  8  1  0
 10 11  2  0
 12 10  1  0
 13 12  1  0
 13 14  1  6
 14 15  1  0
 15 16  1  0
 16 20  1  0
 16 17  2  0
 18 13  1  0
 19 18  2  0
 21 18  1  0
 22 29  1  0
 22 21  1  0
 22 23  1  6
 24 23  1  0
 25 24  2  0
 26 27  1  0
 26 25  1  0
 27 28  2  0
 28 24  1  0
 29 30  1  0
 31 29  2  0
M  END
$$$$
