REH.pdb
     RDKit          3D

 31 31  0  0  1  0  0  0  0  0999 V2000
   50.1197  -13.5630   -6.5426 N   0  0  0  0  0  0  0  0  0  0  0  0
   49.9749  -12.1482   -6.7288 C   0  0  0  0  0  0  0  0  0  0  0  0
   51.0276  -11.4103   -6.7331 N   0  0  0  0  0  0  0  0  0  0  0  0
   48.7193  -11.5314   -6.9078 N   0  0  0  0  0  0  0  0  0  0  0  0
   47.5179  -12.2903   -7.0423 C   0  0  0  0  0  0  0  0  0  0  0  0
   46.2858  -11.4774   -7.3068 C   0  0  0  0  0  0  0  0  0  0  0  0
   45.1279  -11.8096   -6.4162 C   0  0  0  0  0  0  0  0  0  0  0  0
   43.8398  -11.6442   -7.1926 C   0  0  2  0  0  0  0  0  0  0  0  0
   44.1382  -12.0376   -8.5793 N   0  0  0  0  0  0  0  0  0  0  0  0
   43.3977  -10.2288   -7.2614 C   0  0  0  0  0  0  0  0  0  0  0  0
   43.0908   -9.5418   -6.2462 O   0  0  0  0  0  0  0  0  0  0  0  0
   50.9613  -10.3800   -6.8515 N   0  0  0  0  0  0  0  0  0  0  0  0
   43.3046   -9.5777   -8.5370 C   0  0  1  0  0  0  0  0  0  0  0  0
   42.8705   -8.2355   -8.7118 C   0  0  0  0  0  0  0  0  0  0  0  0
   43.6330   -7.3576   -9.6264 C   0  0  0  0  0  0  0  0  0  0  0  0
   43.2313   -5.9511   -9.7860 C   0  0  0  0  0  0  0  0  0  0  0  0
   43.9780   -5.1083  -10.6967 O   0  0  0  0  0  0  0  0  0  0  0  0
   44.9032   -5.5438  -11.4053 C   0  0  0  0  0  0  0  0  0  0  0  0
   41.4410   -8.2433   -9.0933 O   0  0  0  0  0  0  0  0  0  0  0  0
   40.9882   -8.9897   -9.9974 O   0  0  0  0  0  0  0  0  0  0  0  0
   43.6673   -3.7627  -10.7992 N   0  0  0  0  0  0  0  0  0  0  0  0
   40.5215   -7.3837   -8.4285 C   0  0  2  0  0  0  0  0  0  0  0  0
   39.1374   -7.2434   -8.9079 C   0  0  0  0  0  0  0  0  0  0  0  0
   38.2391   -7.3897   -7.6893 C   0  0  0  0  0  0  0  0  0  0  0  0
   38.1067   -8.8192   -7.3717 C   0  0  0  0  0  0  0  0  0  0  0  0
   38.6609   -9.8525   -8.1278 N   0  0  0  0  0  0  0  0  0  0  0  0
   38.3556  -11.0298   -7.5705 C   0  0  0  0  0  0  0  0  0  0  0  0
   37.6227  -10.7741   -6.4812 N   0  0  0  0  0  0  0  0  0  0  0  0
   37.4793   -9.4301   -6.3725 C   0  0  0  0  0  0  0  0  0  0  0  0
   38.9863   -5.8706   -9.4255 O   0  0  0  0  0  0  0  0  0  0  0  0
   37.7762   -5.5126  -10.0285 O   0  0  0  0  0  0  0  0  0  0  0  0
  1  2  1  0
  2  3  2  0
  4  5  1  0
  4  2  1  0
  6  5  1  0
  7  6  1  0
  8  7  1  0
  8  9  1  6
 10  8  1  0
 10 11  2  0
 12 10  1  0
 13 12  1  0
 13 14  1  1
 14 15  1  0
 15 16  1  0
 16 20  1  0
 16 17  2  0
 18 13  1  0
 19 18  2  0
 21 18  1  0
 22 29  1  0
 22 21  1  0
 22 23  1  1
 24 23  1  0
 25 24  2  0
 26 27  1  0
 26 25  1  0
 27 28  2  0
 28 24  1  0
 29 30  1  0
 31 29  2  0
M  END
$$$$
