REH.pdb
     RDKit          3D

 31 31  0  0  1  0  0  0  0  0999 V2000
   30.9369  -19.7737  -19.0274 N   0  0  0  0  0  0  0  0  0  0  0  0
   30.4039  -18.4592  -18.8146 C   0  0  0  0  0  0  0  0  0  0  0  0
   31.1227  -17.4390  -19.1233 N   0  0  0  0  0  0  0  0  0  0  0  0
   29.1181  -18.2398  -18.2782 N   0  0  0  0  0  0  0  0  0  0  0  0
   28.2975  -19.3145  -17.8213 C   0  0  0  0  0  0  0  0  0  0  0  0
   27.7050  -20.1607  -18.9086 C   0  0  0  0  0  0  0  0  0  0  0  0
   26.2282  -20.3775  -18.7821 C   0  0  0  0  0  0  0  0  0  0  0  0
   25.6449  -19.3135  -17.8781 C   0  0  2  0  0  0  0  0  0  0  0  0
   26.7862  -18.6611  -17.2159 N   0  0  0  0  0  0  0  0  0  0  0  0
   24.8198  -19.8882  -16.7861 C   0  0  0  0  0  0  0  0  0  0  0  0
   23.6553  -20.3480  -16.9571 O   0  0  0  0  0  0  0  0  0  0  0  0
   30.7764  -16.4712  -18.9696 N   0  0  0  0  0  0  0  0  0  0  0  0
   25.3471  -19.9385  -15.4522 C   0  0  2  0  0  0  0  0  0  0  0  0
   24.6109  -20.3963  -14.3257 C   0  0  0  0  0  0  0  0  0  0  0  0
   25.3410  -20.6855  -13.0720 C   0  0  0  0  0  0  0  0  0  0  0  0
   24.6033  -21.1839  -11.9004 C   0  0  0  0  0  0  0  0  0  0  0  0
   25.3417  -21.5366  -10.7057 O   0  0  0  0  0  0  0  0  0  0  0  0
   25.4491  -22.7104  -10.3074 C   0  0  0  0  0  0  0  0  0  0  0  0
   23.5070  -19.4475  -14.0607 O   0  0  0  0  0  0  0  0  0  0  0  0
   23.6735  -18.2018  -14.0618 O   0  0  0  0  0  0  0  0  0  0  0  0
   25.9603  -20.5454   -9.9623 N   0  0  0  0  0  0  0  0  0  0  0  0
   22.1973  -19.9356  -13.7915 C   0  0  1  0  0  0  0  0  0  0  0  0
   21.0724  -19.0082  -13.5918 C   0  0  0  0  0  0  0  0  0  0  0  0
   20.8337  -18.3214  -14.9278 C   0  0  0  0  0  0  0  0  0  0  0  0
   19.7312  -17.3612  -14.7725 C   0  0  0  0  0  0  0  0  0  0  0  0
   19.1390  -17.0263  -13.5546 N   0  0  0  0  0  0  0  0  0  0  0  0
   18.1687  -16.1283  -13.7593 C   0  0  0  0  0  0  0  0  0  0  0  0
   18.1273  -15.8828  -15.0734 N   0  0  0  0  0  0  0  0  0  0  0  0
   19.0797  -16.6369  -15.6760 C   0  0  0  0  0  0  0  0  0  0  0  0
   19.8820  -19.8195  -13.2753 O   0  0  0  0  0  0  0  0  0  0  0  0
   18.9062  -19.2754  -12.4339 O   0  0  0  0  0  0  0  0  0  0  0  0
  1  2  1  0
  2  3  2  0
  4  5  1  0
  4  2  1  0
  6  5  1  0
  7  6  1  0
  8  7  1  0
  8  9  1  1
 10  8  1  0
 10 11  2  0
 12 10  1  0
 13 12  1  0
 13 14  1  6
 14 15  1  0
 15 16  1  0
 16 20  1  0
 16 17  2  0
 18 13  1  0
 19 18  2  0
 21 18  1  0
 22 29  1  0
 22 21  1  0
 22 23  1  1
 24 23  1  0
 25 24  2  0
 26 27  1  0
 26 25  1  0
 27 28  2  0
 28 24  1  0
 29 30  1  0
 31 29  2  0
M  END
$$$$
