REH.pdb
     RDKit          3D

 31 31  0  0  1  0  0  0  0  0999 V2000
   20.1580  -10.8656  -21.5764 N   0  0  0  0  0  0  0  0  0  0  0  0
   21.2272  -11.7307  -21.9835 C   0  0  0  0  0  0  0  0  0  0  0  0
   22.0599  -11.3155  -22.8706 N   0  0  0  0  0  0  0  0  0  0  0  0
   21.4024  -13.0236  -21.4480 N   0  0  0  0  0  0  0  0  0  0  0  0
   20.5154  -13.5609  -20.4673 C   0  0  0  0  0  0  0  0  0  0  0  0
   20.8573  -14.9441  -19.9993 C   0  0  0  0  0  0  0  0  0  0  0  0
   21.3458  -15.8558  -21.0830 C   0  0  0  0  0  0  0  0  0  0  0  0
   21.6273  -17.2212  -20.4949 C   0  0  2  0  0  0  0  0  0  0  0  0
   22.0662  -18.0717  -21.6133 N   0  0  0  0  0  0  0  0  0  0  0  0
   20.4056  -17.8670  -19.9527 C   0  0  0  0  0  0  0  0  0  0  0  0
   19.2870  -17.8523  -20.5404 O   0  0  0  0  0  0  0  0  0  0  0  0
   22.8463  -11.9143  -23.1916 N   0  0  0  0  0  0  0  0  0  0  0  0
   20.4675  -18.5539  -18.6940 C   0  0  1  0  0  0  0  0  0  0  0  0
   19.3468  -19.1656  -18.0691 C   0  0  0  0  0  0  0  0  0  0  0  0
   19.4885  -20.5448  -17.5532 C   0  0  0  0  0  0  0  0  0  0  0  0
   18.3112  -21.2426  -17.0126 C   0  0  0  0  0  0  0  0  0  0  0  0
   18.4651  -22.5938  -16.5150 O   0  0  0  0  0  0  0  0  0  0  0  0
   18.7257  -23.5557  -17.2597 C   0  0  0  0  0  0  0  0  0  0  0  0
   18.8535  -18.2731  -16.9971 O   0  0  0  0  0  0  0  0  0  0  0  0
   19.5960  -17.8530  -16.0742 O   0  0  0  0  0  0  0  0  0  0  0  0
   18.3210  -22.8483  -15.1614 N   0  0  0  0  0  0  0  0  0  0  0  0
   17.4917  -17.8586  -16.9856 C   0  0  2  0  0  0  0  0  0  0  0  0
   16.9758  -16.9910  -15.9148 C   0  0  0  0  0  0  0  0  0  0  0  0
   16.0174  -16.0111  -16.5741 C   0  0  0  0  0  0  0  0  0  0  0  0
   16.7962  -14.8981  -17.1365 C   0  0  0  0  0  0  0  0  0  0  0  0
   18.1766  -14.7493  -16.9995 N   0  0  0  0  0  0  0  0  0  0  0  0
   18.5721  -13.6349  -17.6252 C   0  0  0  0  0  0  0  0  0  0  0  0
   17.4818  -13.0709  -18.1564 N   0  0  0  0  0  0  0  0  0  0  0  0
   16.4121  -13.8469  -17.8525 C   0  0  0  0  0  0  0  0  0  0  0  0
   16.1988  -17.8413  -14.9934 O   0  0  0  0  0  0  0  0  0  0  0  0
   15.5709  -17.2402  -13.8977 O   0  0  0  0  0  0  0  0  0  0  0  0
  1  2  1  0
  2  3  2  0
  4  5  1  0
  4  2  1  0
  6  5  1  0
  7  6  1  0
  8  7  1  0
  8  9  1  6
 10  8  1  0
 10 11  2  0
 12 10  1  0
 13 12  1  0
 13 14  1  6
 14 15  1  0
 15 16  1  0
 16 20  1  0
 16 17  2  0
 18 13  1  0
 19 18  2  0
 21 18  1  0
 22 29  1  0
 22 21  1  0
 22 23  1  6
 24 23  1  0
 25 24  2  0
 26 27  1  0
 26 25  1  0
 27 28  2  0
 28 24  1  0
 29 30  1  0
 31 29  2  0
M  END
$$$$
