REH.pdb
     RDKit          3D

 31 31  0  0  1  0  0  0  0  0999 V2000
   28.1381  -22.2326  -16.0691 N   0  0  0  0  0  0  0  0  0  0  0  0
   26.8245  -22.0966  -16.6287 C   0  0  0  0  0  0  0  0  0  0  0  0
   25.8225  -22.5879  -15.9905 N   0  0  0  0  0  0  0  0  0  0  0  0
   26.5868  -21.4435  -17.8559 N   0  0  0  0  0  0  0  0  0  0  0  0
   27.6457  -20.8754  -18.6261 C   0  0  0  0  0  0  0  0  0  0  0  0
   27.5610  -19.3900  -18.8141 C   0  0  0  0  0  0  0  0  0  0  0  0
   26.4929  -18.9517  -19.7686 C   0  0  0  0  0  0  0  0  0  0  0  0
   25.5279  -18.0353  -19.0486 C   0  0  2  0  0  0  0  0  0  0  0  0
   26.3050  -17.3584  -17.9976 N   0  0  0  0  0  0  0  0  0  0  0  0
   24.4582  -18.7826  -18.3409 C   0  0  0  0  0  0  0  0  0  0  0  0
   23.5954  -19.4942  -18.9292 O   0  0  0  0  0  0  0  0  0  0  0  0
   24.8553  -22.5039  -16.3616 N   0  0  0  0  0  0  0  0  0  0  0  0
   24.3742  -18.7129  -16.9098 C   0  0  1  0  0  0  0  0  0  0  0  0
   23.3010  -19.2551  -16.1516 C   0  0  0  0  0  0  0  0  0  0  0  0
   23.5623  -19.6838  -14.7600 C   0  0  0  0  0  0  0  0  0  0  0  0
   22.4998  -20.3560  -13.9955 C   0  0  0  0  0  0  0  0  0  0  0  0
   22.7807  -20.7983  -12.6456 O   0  0  0  0  0  0  0  0  0  0  0  0
   23.8337  -20.5056  -12.0510 C   0  0  0  0  0  0  0  0  0  0  0  0
   22.1676  -18.3046  -16.1835 O   0  0  0  0  0  0  0  0  0  0  0  0
   22.3301  -17.0594  -16.1340 O   0  0  0  0  0  0  0  0  0  0  0  0
   21.8560  -21.5779  -11.9712 N   0  0  0  0  0  0  0  0  0  0  0  0
   20.8326  -18.7905  -16.2731 C   0  0  2  0  0  0  0  0  0  0  0  0
   19.6905  -17.8626  -16.2799 C   0  0  0  0  0  0  0  0  0  0  0  0
   19.4258  -17.5109  -17.7358 C   0  0  0  0  0  0  0  0  0  0  0  0
   18.2610  -16.6160  -17.7989 C   0  0  0  0  0  0  0  0  0  0  0  0
   18.3183  -15.2304  -17.6465 N   0  0  0  0  0  0  0  0  0  0  0  0
   17.0885  -14.7155  -17.7570 C   0  0  0  0  0  0  0  0  0  0  0  0
   16.2506  -15.7350  -17.9754 N   0  0  0  0  0  0  0  0  0  0  0  0
   16.9745  -16.8814  -17.9984 C   0  0  0  0  0  0  0  0  0  0  0  0
   18.5202  -18.5992  -15.7670 O   0  0  0  0  0  0  0  0  0  0  0  0
   18.4391  -19.9751  -16.0048 O   0  0  0  0  0  0  0  0  0  0  0  0
  1  2  1  0
  2  3  2  0
  4  5  1  0
  4  2  1  0
  6  5  1  0
  7  6  1  0
  8  7  1  0
  8  9  1  1
 10  8  1  0
 10 11  2  0
 12 10  1  0
 13 12  1  0
 13 14  1  6
 14 15  1  0
 15 16  1  0
 16 20  1  0
 16 17  2  0
 18 13  1  0
 19 18  2  0
 21 18  1  0
 22 29  1  0
 22 21  1  0
 22 23  1  6
 24 23  1  0
 25 24  2  0
 26 27  1  0
 26 25  1  0
 27 28  2  0
 28 24  1  0
 29 30  1  0
 31 29  2  0
M  END
$$$$
