REH.pdb
     RDKit          3D

 31 31  0  0  1  0  0  0  0  0999 V2000
   18.2581  -10.9920  -15.5732 N   0  0  0  0  0  0  0  0  0  0  0  0
   17.7760  -12.3350  -15.7186 C   0  0  0  0  0  0  0  0  0  0  0  0
   16.5191  -12.5637  -15.5754 N   0  0  0  0  0  0  0  0  0  0  0  0
   18.6287  -13.4191  -16.0132 N   0  0  0  0  0  0  0  0  0  0  0  0
   20.0499  -13.2874  -15.9981 C   0  0  0  0  0  0  0  0  0  0  0  0
   20.7815  -14.2566  -16.8780 C   0  0  0  0  0  0  0  0  0  0  0  0
   22.2710  -14.0980  -16.8608 C   0  0  0  0  0  0  0  0  0  0  0  0
   22.8862  -15.0707  -17.8431 C   0  0  2  0  0  0  0  0  0  0  0  0
   22.1001  -14.9607  -19.0827 N   0  0  0  0  0  0  0  0  0  0  0  0
   22.7501  -16.4819  -17.4033 C   0  0  0  0  0  0  0  0  0  0  0  0
   21.6583  -17.1179  -17.4211 O   0  0  0  0  0  0  0  0  0  0  0  0
   16.1291  -13.5190  -15.6994 N   0  0  0  0  0  0  0  0  0  0  0  0
   23.9045  -17.1892  -16.9271 C   0  0  1  0  0  0  0  0  0  0  0  0
   23.8972  -18.5627  -16.5608 C   0  0  0  0  0  0  0  0  0  0  0  0
   25.1828  -19.2939  -16.5271 C   0  0  0  0  0  0  0  0  0  0  0  0
   25.1972  -20.7216  -16.1714 C   0  0  0  0  0  0  0  0  0  0  0  0
   26.4684  -21.4098  -16.0873 O   0  0  0  0  0  0  0  0  0  0  0  0
   27.3072  -21.3809  -17.0058 C   0  0  0  0  0  0  0  0  0  0  0  0
   23.1999  -18.7058  -15.2637 O   0  0  0  0  0  0  0  0  0  0  0  0
   23.5934  -18.1285  -14.2191 O   0  0  0  0  0  0  0  0  0  0  0  0
   26.7841  -22.1342  -14.9499 N   0  0  0  0  0  0  0  0  0  0  0  0
   22.0374  -19.5215  -15.1661 C   0  0  2  0  0  0  0  0  0  0  0  0
   21.3350  -19.6841  -13.8833 C   0  0  0  0  0  0  0  0  0  0  0  0
   19.9336  -20.1737  -14.2148 C   0  0  0  0  0  0  0  0  0  0  0  0
   19.1992  -20.3827  -12.9584 C   0  0  0  0  0  0  0  0  0  0  0  0
   19.6891  -20.0612  -11.6923 N   0  0  0  0  0  0  0  0  0  0  0  0
   18.7778  -20.3765  -10.7651 C   0  0  0  0  0  0  0  0  0  0  0  0
   17.7218  -20.8895  -11.4062 N   0  0  0  0  0  0  0  0  0  0  0  0
   17.9906  -20.8876  -12.7353 C   0  0  0  0  0  0  0  0  0  0  0  0
   22.0264  -20.7495  -13.1333 O   0  0  0  0  0  0  0  0  0  0  0  0
   22.1663  -20.6099  -11.7488 O   0  0  0  0  0  0  0  0  0  0  0  0
  1  2  1  0
  2  3  2  0
  4  5  1  0
  4  2  1  0
  6  5  1  0
  7  6  1  0
  8  7  1  0
  8  9  1  6
 10  8  1  0
 10 11  2  0
 12 10  1  0
 13 12  1  0
 13 14  1  1
 14 15  1  0
 15 16  1  0
 16 20  1  0
 16 17  2  0
 18 13  1  0
 19 18  2  0
 21 18  1  0
 22 29  1  0
 22 21  1  0
 22 23  1  6
 24 23  1  0
 25 24  2  0
 26 27  1  0
 26 25  1  0
 27 28  2  0
 28 24  1  0
 29 30  1  0
 31 29  2  0
M  END
$$$$
