MQC.pdb
     RDKit          3D

 24 23  0  0  1  0  0  0  0  0999 V2000
   27.4922  -19.5679   -5.4845 C   0  0  0  0  0  0  0  0  0  0  0  0
   26.8160  -18.9326   -7.0599 S   0  0  0  0  0  0  0  0  0  0  0  0
   26.5560  -20.3787   -8.1310 C   0  0  0  0  0  0  0  0  0  0  0  0
   26.1563  -19.9026   -9.5323 C   0  0  0  0  0  0  0  0  0  0  0  0
   25.9499  -21.1776  -10.3439 C   0  0  2  0  0  0  0  0  0  0  0  0
   27.2164  -21.8475  -10.5749 N   0  0  0  0  0  0  0  0  0  0  0  0
   25.3601  -20.8027  -11.6577 C   0  0  0  0  0  0  0  0  0  0  0  0
   26.0816  -20.8154  -12.7104 O   0  0  0  0  0  0  0  0  0  0  0  0
   19.3728  -19.5216  -12.6845 N   0  0  0  0  0  0  0  0  0  0  0  0
   19.8526  -19.3876  -14.0043 C   0  0  0  0  0  0  0  0  0  0  0  0
   19.1244  -19.1300  -14.9720 O   0  0  0  0  0  0  0  0  0  0  0  0
   21.3242  -19.5689  -14.2339 C   0  0  0  0  0  0  0  0  0  0  0  0
   22.0079  -19.9111  -12.9543 C   0  0  0  0  0  0  0  0  0  0  0  0
   23.4654  -20.1521  -13.1604 C   0  0  2  0  0  0  0  0  0  0  0  0
   24.0129  -20.4223  -11.8213 N   0  0  0  0  0  0  0  0  0  0  0  0
   24.2189  -19.1036  -13.8386 C   0  0  0  0  0  0  0  0  0  0  0  0
   24.3473  -17.9665  -13.3355 O   0  0  0  0  0  0  0  0  0  0  0  0
   24.8565  -19.2947  -15.1084 N   0  0  0  0  0  0  0  0  0  0  0  0
   25.5742  -18.2108  -15.7466 C   0  0  1  0  0  0  0  0  0  0  0  0
   27.0509  -18.2420  -15.4294 C   0  0  0  0  0  0  0  0  0  0  0  0
   28.0084  -17.0811  -16.4041 S   0  0  0  0  0  0  0  0  0  0  0  0
   25.4445  -18.2873  -17.2143 C   0  0  0  0  0  0  0  0  0  0  0  0
   25.6015  -19.4704  -17.8982 O   0  0  0  0  0  0  0  0  0  0  0  0
   25.1854  -17.2502  -17.8532 O   0  0  0  0  0  0  0  0  0  0  0  0
  1  2  1  0
  3  2  1  0
  4  3  1  0
  5  6  1  6
  5  7  1  0
  5  4  1  0
  7  8  2  0
  7 15  1  0
 10  9  1  0
 11 10  2  0
 12 10  1  0
 13 12  1  0
 14 13  1  1
 15 14  1  0
 16 14  1  0
 17 16  2  0
 18 16  1  0
 19 22  1  0
 19 18  1  0
 20 21  1  0
 19 20  1  6
 22 23  1  0
 24 22  2  0
M  END
$$$$
