MQC.pdb
     RDKit          3D

 24 23  0  0  1  0  0  0  0  0999 V2000
   28.8094  -18.1721   -5.5528 C   0  0  0  0  0  0  0  0  0  0  0  0
   28.4149  -19.7923   -4.8031 S   0  0  0  0  0  0  0  0  0  0  0  0
   28.1123  -20.9393   -6.1811 C   0  0  0  0  0  0  0  0  0  0  0  0
   27.4090  -20.1878   -7.3172 C   0  0  0  0  0  0  0  0  0  0  0  0
   27.2490  -21.2128   -8.4355 C   0  0  2  0  0  0  0  0  0  0  0  0
   28.5461  -21.6512   -8.9168 N   0  0  0  0  0  0  0  0  0  0  0  0
   26.5154  -20.5668   -9.5576 C   0  0  0  0  0  0  0  0  0  0  0  0
   27.0867  -19.6705  -10.2641 O   0  0  0  0  0  0  0  0  0  0  0  0
   27.2908  -20.3860  -13.6966 N   0  0  0  0  0  0  0  0  0  0  0  0
   26.0743  -20.7714  -14.2980 C   0  0  0  0  0  0  0  0  0  0  0  0
   25.7168  -20.3891  -15.4200 O   0  0  0  0  0  0  0  0  0  0  0  0
   25.1758  -21.6932  -13.5272 C   0  0  0  0  0  0  0  0  0  0  0  0
   25.5587  -21.7020  -12.0866 C   0  0  0  0  0  0  0  0  0  0  0  0
   24.7191  -20.7598  -11.2917 C   0  0  2  0  0  0  0  0  0  0  0  0
   25.1879  -20.8905   -9.9028 N   0  0  0  0  0  0  0  0  0  0  0  0
   23.2730  -20.9280  -11.3803 C   0  0  0  0  0  0  0  0  0  0  0  0
   22.7062  -21.9374  -10.9086 O   0  0  0  0  0  0  0  0  0  0  0  0
   22.4101  -19.9670  -12.0026 N   0  0  0  0  0  0  0  0  0  0  0  0
   20.9774  -20.1744  -12.0408 C   0  0  1  0  0  0  0  0  0  0  0  0
   20.2315  -18.9204  -12.4322 C   0  0  0  0  0  0  0  0  0  0  0  0
   20.2306  -17.6682  -11.1490 S   0  0  0  0  0  0  0  0  0  0  0  0
   20.6232  -21.2145  -13.0256 C   0  0  0  0  0  0  0  0  0  0  0  0
   19.4717  -21.9589  -12.9157 O   0  0  0  0  0  0  0  0  0  0  0  0
   21.3892  -21.4249  -13.9847 O   0  0  0  0  0  0  0  0  0  0  0  0
  1  2  1  0
  3  2  1  0
  4  3  1  0
  5  6  1  6
  5  7  1  0
  5  4  1  0
  7  8  2  0
  7 15  1  0
 10  9  1  0
 11 10  2  0
 12 10  1  0
 13 12  1  0
 14 13  1  6
 15 14  1  0
 16 14  1  0
 17 16  2  0
 18 16  1  0
 19 22  1  0
 19 18  1  0
 20 21  1  0
 19 20  1  6
 22 23  1  0
 24 22  2  0
M  END
$$$$
