MQC.pdb
     RDKit          3D

 24 23  0  0  1  0  0  0  0  0999 V2000
   29.5777  -20.4565   -7.9988 C   0  0  0  0  0  0  0  0  0  0  0  0
   28.3311  -19.9905   -6.7452 S   0  0  0  0  0  0  0  0  0  0  0  0
   26.7076  -20.1416   -7.5500 C   0  0  0  0  0  0  0  0  0  0  0  0
   26.8965  -20.1337   -9.0712 C   0  0  0  0  0  0  0  0  0  0  0  0
   25.4939  -20.2935   -9.6490 C   0  0  2  0  0  0  0  0  0  0  0  0
   24.9334  -21.5811   -9.2826 N   0  0  0  0  0  0  0  0  0  0  0  0
   25.5899  -20.2179  -11.1321 C   0  0  0  0  0  0  0  0  0  0  0  0
   25.9450  -19.1294  -11.6960 O   0  0  0  0  0  0  0  0  0  0  0  0
   27.9470  -23.5253  -15.3291 N   0  0  0  0  0  0  0  0  0  0  0  0
   27.9481  -22.1737  -15.7329 C   0  0  0  0  0  0  0  0  0  0  0  0
   28.7092  -21.7208  -16.5982 O   0  0  0  0  0  0  0  0  0  0  0  0
   26.9709  -21.2468  -15.0716 C   0  0  0  0  0  0  0  0  0  0  0  0
   26.1455  -21.9905  -14.0779 C   0  0  0  0  0  0  0  0  0  0  0  0
   25.1368  -21.1024  -13.4307 C   0  0  2  0  0  0  0  0  0  0  0  0
   25.3054  -21.3049  -11.9828 N   0  0  0  0  0  0  0  0  0  0  0  0
   23.7459  -21.2805  -13.8317 C   0  0  0  0  0  0  0  0  0  0  0  0
   22.8833  -21.6857  -13.0229 O   0  0  0  0  0  0  0  0  0  0  0  0
   23.2729  -21.0092  -15.1577 N   0  0  0  0  0  0  0  0  0  0  0  0
   21.8874  -20.6594  -15.3919 C   0  0  1  0  0  0  0  0  0  0  0  0
   21.4963  -19.3820  -14.6865 C   0  0  0  0  0  0  0  0  0  0  0  0
   19.7282  -19.0844  -14.6909 S   0  0  0  0  0  0  0  0  0  0  0  0
   21.6332  -20.4551  -16.8309 C   0  0  0  0  0  0  0  0  0  0  0  0
   20.4421  -20.8145  -17.4177 O   0  0  0  0  0  0  0  0  0  0  0  0
   22.5229  -19.9422  -17.5352 O   0  0  0  0  0  0  0  0  0  0  0  0
  1  2  1  0
  3  2  1  0
  4  3  1  0
  5  6  1  6
  5  7  1  0
  5  4  1  0
  7  8  2  0
  7 15  1  0
 10  9  1  0
 11 10  2  0
 12 10  1  0
 13 12  1  0
 14 13  1  6
 15 14  1  0
 16 14  1  0
 17 16  2  0
 18 16  1  0
 19 22  1  0
 19 18  1  0
 20 21  1  0
 19 20  1  1
 22 23  1  0
 24 22  2  0
M  END
$$$$
