MQC.pdb
     RDKit          3D

 24 23  0  0  1  0  0  0  0  0999 V2000
   18.9314  -25.4366   -4.9071 C   0  0  0  0  0  0  0  0  0  0  0  0
   17.6243  -26.6146   -5.4034 S   0  0  0  0  0  0  0  0  0  0  0  0
   17.6857  -26.7204   -7.2175 C   0  0  0  0  0  0  0  0  0  0  0  0
   17.8612  -25.3128   -7.7988 C   0  0  0  0  0  0  0  0  0  0  0  0
   17.9626  -25.5131   -9.3075 C   0  0  2  0  0  0  0  0  0  0  0  0
   19.2214  -26.1457   -9.6560 N   0  0  0  0  0  0  0  0  0  0  0  0
   17.9018  -24.1769   -9.9597 C   0  0  0  0  0  0  0  0  0  0  0  0
   16.9006  -23.4112   -9.7585 O   0  0  0  0  0  0  0  0  0  0  0  0
   22.1499  -20.3532  -12.6348 N   0  0  0  0  0  0  0  0  0  0  0  0
   21.8286  -21.4807  -13.4194 C   0  0  0  0  0  0  0  0  0  0  0  0
   22.3839  -21.7446  -14.4941 O   0  0  0  0  0  0  0  0  0  0  0  0
   20.7562  -22.4002  -12.9139 C   0  0  0  0  0  0  0  0  0  0  0  0
   20.1973  -21.8856  -11.6315 C   0  0  0  0  0  0  0  0  0  0  0  0
   18.7955  -22.3497  -11.4204 C   0  0  2  0  0  0  0  0  0  0  0  0
   18.9101  -23.6852  -10.8128 N   0  0  0  0  0  0  0  0  0  0  0  0
   17.9243  -22.3732  -12.5900 C   0  0  0  0  0  0  0  0  0  0  0  0
   17.9137  -23.3478  -13.3726 O   0  0  0  0  0  0  0  0  0  0  0  0
   17.0322  -21.3014  -12.9230 N   0  0  0  0  0  0  0  0  0  0  0  0
   16.1630  -21.3940  -14.0774 C   0  0  1  0  0  0  0  0  0  0  0  0
   14.7601  -20.9237  -13.7722 C   0  0  0  0  0  0  0  0  0  0  0  0
   13.9967  -21.8103  -12.4136 S   0  0  0  0  0  0  0  0  0  0  0  0
   16.6687  -20.5593  -15.1841 C   0  0  0  0  0  0  0  0  0  0  0  0
   16.0684  -20.5500  -16.4217 O   0  0  0  0  0  0  0  0  0  0  0  0
   17.6685  -19.8421  -14.9923 O   0  0  0  0  0  0  0  0  0  0  0  0
  1  2  1  0
  3  2  1  0
  4  3  1  0
  5  6  1  1
  5  7  1  0
  5  4  1  0
  7  8  2  0
  7 15  1  0
 10  9  1  0
 11 10  2  0
 12 10  1  0
 13 12  1  0
 14 13  1  6
 15 14  1  0
 16 14  1  0
 17 16  2  0
 18 16  1  0
 19 22  1  0
 19 18  1  0
 20 21  1  0
 19 20  1  1
 22 23  1  0
 24 22  2  0
M  END
$$$$
