YWH.pdb
     RDKit          3D

 37 40  0  0  1  0  0  0  0  0999 V2000
   20.8534  -15.8954  -22.6802 O   0  0  0  0  0  0  0  0  0  0  0  0
   20.7454  -14.8865  -21.7150 C   0  0  0  0  0  0  0  0  0  0  0  0
   21.5869  -13.8033  -21.8412 C   0  0  0  0  0  0  0  0  0  0  0  0
   21.5068  -12.7929  -20.9088 C   0  0  0  0  0  0  0  0  0  0  0  0
   20.5917  -12.8875  -19.8759 C   0  0  0  0  0  0  0  0  0  0  0  0
   20.5470  -11.7605  -18.8901 C   0  0  0  0  0  0  0  0  0  0  0  0
   21.6959  -11.8463  -17.9183 C   0  0  2  0  0  0  0  0  0  0  0  0
   21.5793  -13.0932  -17.1933 N   0  0  0  0  0  0  0  0  0  0  0  0
   21.7868  -10.7089  -16.9990 C   0  0  0  0  0  0  0  0  0  0  0  0
   20.9277  -10.5896  -16.0845 O   0  0  0  0  0  0  0  0  0  0  0  0
   19.7459  -13.9754  -19.7485 C   0  0  0  0  0  0  0  0  0  0  0  0
   19.8342  -14.9780  -20.6844 C   0  0  0  0  0  0  0  0  0  0  0  0
   22.7894   -9.7105  -17.0606 N   0  0  0  0  0  0  0  0  0  0  0  0
   22.8318   -8.5995  -16.1704 C   0  0  1  0  0  0  0  0  0  0  0  0
   24.1847   -8.1506  -15.7671 C   0  0  0  0  0  0  0  0  0  0  0  0
   25.1287   -9.1798  -15.3349 C   0  0  0  0  0  0  0  0  0  0  0  0
   25.1133  -10.1391  -14.3557 C   0  0  0  0  0  0  0  0  0  0  0  0
   26.2719  -10.8661  -14.3829 N   0  0  0  0  0  0  0  0  0  0  0  0
   27.0246  -10.3701  -15.3787 C   0  0  0  0  0  0  0  0  0  0  0  0
   28.2931  -10.7456  -15.8333 C   0  0  0  0  0  0  0  0  0  0  0  0
   28.8862  -10.1008  -16.8749 C   0  0  0  0  0  0  0  0  0  0  0  0
   28.2360   -9.0644  -17.4944 C   0  0  0  0  0  0  0  0  0  0  0  0
   26.9838   -8.7033  -17.0359 C   0  0  0  0  0  0  0  0  0  0  0  0
   26.3600   -9.3414  -15.9812 C   0  0  0  0  0  0  0  0  0  0  0  0
   22.0685   -7.4149  -16.6919 C   0  0  0  0  0  0  0  0  0  0  0  0
   22.4043   -6.9133  -17.8175 O   0  0  0  0  0  0  0  0  0  0  0  0
   20.9997   -6.8195  -16.0127 N   0  0  0  0  0  0  0  0  0  0  0  0
   20.2824   -5.6394  -16.5051 C   0  0  1  0  0  0  0  0  0  0  0  0
   19.2178   -6.1573  -17.4296 C   0  0  0  0  0  0  0  0  0  0  0  0
   18.3198   -5.1388  -17.9724 C   0  0  0  0  0  0  0  0  0  0  0  0
   17.0893   -4.7948  -17.4617 C   0  0  0  0  0  0  0  0  0  0  0  0
   16.5844   -3.8250  -18.2456 N   0  0  0  0  0  0  0  0  0  0  0  0
   17.4568   -3.5477  -19.2325 C   0  0  0  0  0  0  0  0  0  0  0  0
   18.5217   -4.3691  -19.0469 N   0  0  0  0  0  0  0  0  0  0  0  0
   19.6550   -4.9030  -15.3768 C   0  0  0  0  0  0  0  0  0  0  0  0
   19.3651   -3.5636  -15.5459 O   0  0  0  0  0  0  0  0  0  0  0  0
   19.3901   -5.4731  -14.2909 O   0  0  0  0  0  0  0  0  0  0  0  0
  2  1  1  0
  3  2  2  0
  4  3  1  0
  5 11  1  0
  5  4  2  0
  6  5  1  0
  7  8  1  1
  7  9  1  0
  7  6  1  0
  9 10  2  0
 11 12  2  0
 12  2  1  0
 13 14  1  0
 13  9  1  0
 14 25  1  0
 14 15  1  6
 16 15  1  0
 17 16  2  0
 18 17  1  0
 19 18  1  0
 19 24  2  0
 20 19  1  0
 21 20  2  0
 21 22  1  0
 22 23  2  0
 23 24  1  0
 24 16  1  0
 25 27  1  0
 25 26  2  0
 27 28  1  0
 28 29  1  6
 29 30  1  0
 30 31  2  0
 31 32  1  0
 33 32  1  0
 34 30  1  0
 34 33  2  0
 35 28  1  0
 35 36  1  0
 37 35  2  0
M  END
$$$$
