YWH.pdb
     RDKit          3D

 37 40  0  0  1  0  0  0  0  0999 V2000
   25.8419  -39.4427  -16.0019 O   0  0  0  0  0  0  0  0  0  0  0  0
   26.1574  -38.5548  -14.9660 C   0  0  0  0  0  0  0  0  0  0  0  0
   25.2805  -38.4889  -13.9058 C   0  0  0  0  0  0  0  0  0  0  0  0
   25.5609  -37.6258  -12.8698 C   0  0  0  0  0  0  0  0  0  0  0  0
   26.7061  -36.8515  -12.9166 C   0  0  0  0  0  0  0  0  0  0  0  0
   26.9621  -35.9302  -11.7635 C   0  0  0  0  0  0  0  0  0  0  0  0
   26.1340  -34.6762  -11.8793 C   0  0  2  0  0  0  0  0  0  0  0  0
   26.6400  -33.9046  -12.9940 N   0  0  0  0  0  0  0  0  0  0  0  0
   26.0953  -33.8710  -10.6556 C   0  0  0  0  0  0  0  0  0  0  0  0
   26.9316  -32.9395  -10.5080 O   0  0  0  0  0  0  0  0  0  0  0  0
   27.5875  -36.9172  -13.9814 C   0  0  0  0  0  0  0  0  0  0  0  0
   27.2982  -37.7818  -15.0099 C   0  0  0  0  0  0  0  0  0  0  0  0
   25.1686  -34.0634   -9.6020 N   0  0  0  0  0  0  0  0  0  0  0  0
   25.1592  -33.2641   -8.4232 C   0  0  1  0  0  0  0  0  0  0  0  0
   23.8709  -32.6066   -8.1031 C   0  0  0  0  0  0  0  0  0  0  0  0
   23.4151  -31.5537   -9.0091 C   0  0  0  0  0  0  0  0  0  0  0  0
   23.8462  -31.0862  -10.2236 C   0  0  0  0  0  0  0  0  0  0  0  0
   23.0412  -30.0677  -10.6549 N   0  0  0  0  0  0  0  0  0  0  0  0
   22.0980  -29.8866   -9.7158 C   0  0  0  0  0  0  0  0  0  0  0  0
   21.0340  -28.9803   -9.6586 C   0  0  0  0  0  0  0  0  0  0  0  0
   20.1804  -28.9638   -8.5986 C   0  0  0  0  0  0  0  0  0  0  0  0
   20.3596  -29.8473   -7.5653 C   0  0  0  0  0  0  0  0  0  0  0  0
   21.4141  -30.7373   -7.6339 C   0  0  0  0  0  0  0  0  0  0  0  0
   22.2942  -30.7746   -8.6980 C   0  0  0  0  0  0  0  0  0  0  0  0
   25.6266  -34.0200   -7.2117 C   0  0  0  0  0  0  0  0  0  0  0  0
   25.1832  -35.2015   -7.0144 O   0  0  0  0  0  0  0  0  0  0  0  0
   26.5282  -33.5039   -6.2743 N   0  0  0  0  0  0  0  0  0  0  0  0
   27.0174  -34.2605   -5.1176 C   0  0  1  0  0  0  0  0  0  0  0  0
   28.2036  -33.5002   -4.5968 C   0  0  0  0  0  0  0  0  0  0  0  0
   29.4343  -33.6680   -5.3686 C   0  0  0  0  0  0  0  0  0  0  0  0
   29.6442  -34.6017   -6.3573 C   0  0  0  0  0  0  0  0  0  0  0  0
   30.8978  -34.4296   -6.8145 N   0  0  0  0  0  0  0  0  0  0  0  0
   31.4832  -33.4186   -6.1459 C   0  0  0  0  0  0  0  0  0  0  0  0
   30.5639  -32.9614   -5.2576 N   0  0  0  0  0  0  0  0  0  0  0  0
   25.9695  -34.3405   -4.0666 C   0  0  0  0  0  0  0  0  0  0  0  0
   26.2304  -35.0849   -2.9332 O   0  0  0  0  0  0  0  0  0  0  0  0
   24.8695  -33.7505   -4.1940 O   0  0  0  0  0  0  0  0  0  0  0  0
  2  1  1  0
  3  2  2  0
  4  3  1  0
  5 11  1  0
  5  4  2  0
  6  5  1  0
  7  8  1  6
  7  9  1  0
  7  6  1  0
  9 10  2  0
 11 12  2  0
 12  2  1  0
 13 14  1  0
 13  9  1  0
 14 25  1  0
 14 15  1  1
 16 15  1  0
 17 16  2  0
 18 17  1  0
 19 18  1  0
 19 24  2  0
 20 19  1  0
 21 20  2  0
 21 22  1  0
 22 23  2  0
 23 24  1  0
 24 16  1  0
 25 27  1  0
 25 26  2  0
 27 28  1  0
 28 29  1  1
 29 30  1  0
 30 31  2  0
 31 32  1  0
 33 32  1  0
 34 30  1  0
 34 33  2  0
 35 28  1  0
 35 36  1  0
 37 35  2  0
M  END
$$$$
