YWH.pdb
     RDKit          3D

 37 40  0  0  1  0  0  0  0  0999 V2000
   28.6322  -20.3835   -4.6729 O   0  0  0  0  0  0  0  0  0  0  0  0
   27.7976  -20.2888   -5.7935 C   0  0  0  0  0  0  0  0  0  0  0  0
   27.9384  -19.1736   -6.5895 C   0  0  0  0  0  0  0  0  0  0  0  0
   27.1332  -19.0490   -7.6999 C   0  0  0  0  0  0  0  0  0  0  0  0
   26.2094  -20.0374   -7.9882 C   0  0  0  0  0  0  0  0  0  0  0  0
   25.3596  -19.8512   -9.2077 C   0  0  0  0  0  0  0  0  0  0  0  0
   25.8719  -20.6826  -10.3557 C   0  0  2  0  0  0  0  0  0  0  0  0
   27.3079  -20.5178  -10.4245 N   0  0  0  0  0  0  0  0  0  0  0  0
   25.2439  -20.3743  -11.6433 C   0  0  0  0  0  0  0  0  0  0  0  0
   25.5747  -19.3201  -12.2498 O   0  0  0  0  0  0  0  0  0  0  0  0
   26.0674  -21.1581   -7.1889 C   0  0  0  0  0  0  0  0  0  0  0  0
   26.8760  -21.2725   -6.0834 C   0  0  0  0  0  0  0  0  0  0  0  0
   24.2716  -21.1891  -12.2729 N   0  0  0  0  0  0  0  0  0  0  0  0
   23.7013  -20.8757  -13.5399 C   0  0  1  0  0  0  0  0  0  0  0  0
   24.6529  -20.8044  -14.6729 C   0  0  0  0  0  0  0  0  0  0  0  0
   25.7272  -19.8172  -14.5817 C   0  0  0  0  0  0  0  0  0  0  0  0
   25.8430  -18.4967  -14.9316 C   0  0  0  0  0  0  0  0  0  0  0  0
   27.0883  -18.0274  -14.6147 N   0  0  0  0  0  0  0  0  0  0  0  0
   27.7652  -19.0483  -14.0633 C   0  0  0  0  0  0  0  0  0  0  0  0
   29.0713  -19.1101  -13.5662 C   0  0  0  0  0  0  0  0  0  0  0  0
   29.5700  -20.2624  -13.0409 C   0  0  0  0  0  0  0  0  0  0  0  0
   28.7853  -21.3861  -12.9946 C   0  0  0  0  0  0  0  0  0  0  0  0
   27.4973  -21.3119  -13.4888 C   0  0  0  0  0  0  0  0  0  0  0  0
   26.9674  -20.1551  -14.0267 C   0  0  0  0  0  0  0  0  0  0  0  0
   22.5804  -21.8046  -13.9120 C   0  0  0  0  0  0  0  0  0  0  0  0
   22.3666  -22.8333  -13.1856 O   0  0  0  0  0  0  0  0  0  0  0  0
   21.7460  -21.6108  -15.0184 N   0  0  0  0  0  0  0  0  0  0  0  0
   20.2892  -21.7707  -14.9735 C   0  0  1  0  0  0  0  0  0  0  0  0
   19.7883  -20.7350  -14.0078 C   0  0  0  0  0  0  0  0  0  0  0  0
   19.4709  -21.2364  -12.6714 C   0  0  0  0  0  0  0  0  0  0  0  0
   19.5915  -22.5409  -12.2507 C   0  0  0  0  0  0  0  0  0  0  0  0
   19.1992  -22.5876  -10.9646 N   0  0  0  0  0  0  0  0  0  0  0  0
   18.8358  -21.3555  -10.5626 C   0  0  0  0  0  0  0  0  0  0  0  0
   19.0104  -20.5352  -11.6303 N   0  0  0  0  0  0  0  0  0  0  0  0
   19.6979  -21.5349  -16.3166 C   0  0  0  0  0  0  0  0  0  0  0  0
   18.6074  -22.2917  -16.6971 O   0  0  0  0  0  0  0  0  0  0  0  0
   20.1689  -20.6718  -17.0960 O   0  0  0  0  0  0  0  0  0  0  0  0
  2  1  1  0
  3  2  2  0
  4  3  1  0
  5 11  1  0
  5  4  2  0
  6  5  1  0
  7  8  1  6
  7  9  1  0
  7  6  1  0
  9 10  2  0
 11 12  2  0
 12  2  1  0
 13 14  1  0
 13  9  1  0
 14 25  1  0
 14 15  1  6
 16 15  1  0
 17 16  2  0
 18 17  1  0
 19 18  1  0
 19 24  2  0
 20 19  1  0
 21 20  2  0
 21 22  1  0
 22 23  2  0
 23 24  1  0
 24 16  1  0
 25 27  1  0
 25 26  2  0
 27 28  1  0
 28 29  1  1
 29 30  1  0
 30 31  2  0
 31 32  1  0
 33 32  1  0
 34 30  1  0
 34 33  2  0
 35 28  1  0
 35 36  1  0
 37 35  2  0
M  END
$$$$
