YWH.pdb
     RDKit          3D

 37 40  0  0  1  0  0  0  0  0999 V2000
   29.6302  -19.9499   -5.0637 O   0  0  0  0  0  0  0  0  0  0  0  0
   28.8083  -20.1624   -6.1775 C   0  0  0  0  0  0  0  0  0  0  0  0
   27.8928  -19.1787   -6.4798 C   0  0  0  0  0  0  0  0  0  0  0  0
   27.0688  -19.3558   -7.5690 C   0  0  0  0  0  0  0  0  0  0  0  0
   27.1778  -20.5071   -8.3281 C   0  0  0  0  0  0  0  0  0  0  0  0
   26.2571  -20.6481   -9.5013 C   0  0  0  0  0  0  0  0  0  0  0  0
   27.0005  -21.1435  -10.7152 C   0  0  2  0  0  0  0  0  0  0  0  0
   28.3347  -20.5841  -10.6847 N   0  0  0  0  0  0  0  0  0  0  0  0
   26.3338  -20.8469  -11.9860 C   0  0  0  0  0  0  0  0  0  0  0  0
   26.5849  -19.7589  -12.5707 O   0  0  0  0  0  0  0  0  0  0  0  0
   28.0973  -21.4958   -8.0249 C   0  0  0  0  0  0  0  0  0  0  0  0
   28.9147  -21.3089   -6.9359 C   0  0  0  0  0  0  0  0  0  0  0  0
   25.4078  -21.7092  -12.6222 N   0  0  0  0  0  0  0  0  0  0  0  0
   24.6034  -21.3035  -13.7253 C   0  0  1  0  0  0  0  0  0  0  0  0
   24.9040  -21.9637  -15.0169 C   0  0  0  0  0  0  0  0  0  0  0  0
   24.1381  -21.5287  -16.1836 C   0  0  0  0  0  0  0  0  0  0  0  0
   23.1657  -22.1074  -16.9576 C   0  0  0  0  0  0  0  0  0  0  0  0
   22.7674  -21.2472  -17.9439 N   0  0  0  0  0  0  0  0  0  0  0  0
   23.4855  -20.1213  -17.7982 C   0  0  0  0  0  0  0  0  0  0  0  0
   23.4735  -18.9333  -18.5365 C   0  0  0  0  0  0  0  0  0  0  0  0
   24.2956  -17.8973  -18.2152 C   0  0  0  0  0  0  0  0  0  0  0  0
   25.1532  -18.0122  -17.1513 C   0  0  0  0  0  0  0  0  0  0  0  0
   25.1553  -19.1907  -16.4302 C   0  0  0  0  0  0  0  0  0  0  0  0
   24.3312  -20.2566  -16.7354 C   0  0  0  0  0  0  0  0  0  0  0  0
   23.1333  -21.4406  -13.4466 C   0  0  0  0  0  0  0  0  0  0  0  0
   22.7080  -22.5136  -12.8995 O   0  0  0  0  0  0  0  0  0  0  0  0
   22.1894  -20.4541  -13.7531 N   0  0  0  0  0  0  0  0  0  0  0  0
   20.7481  -20.6158  -13.5376 C   0  0  1  0  0  0  0  0  0  0  0  0
   20.3538  -19.5492  -12.5561 C   0  0  0  0  0  0  0  0  0  0  0  0
   20.6167  -19.8702  -11.1539 C   0  0  0  0  0  0  0  0  0  0  0  0
   21.1328  -21.0551  -10.6816 C   0  0  0  0  0  0  0  0  0  0  0  0
   21.2183  -20.9524   -9.3429 N   0  0  0  0  0  0  0  0  0  0  0  0
   20.7730  -19.7419   -8.9576 C   0  0  0  0  0  0  0  0  0  0  0  0
   20.4060  -19.0886  -10.0897 N   0  0  0  0  0  0  0  0  0  0  0  0
   20.0066  -20.4267  -14.8117 C   0  0  0  0  0  0  0  0  0  0  0  0
   18.6804  -20.8076  -14.8635 O   0  0  0  0  0  0  0  0  0  0  0  0
   20.5609  -19.9340  -15.8238 O   0  0  0  0  0  0  0  0  0  0  0  0
  2  1  1  0
  3  2  2  0
  4  3  1  0
  5 11  1  0
  5  4  2  0
  6  5  1  0
  7  8  1  6
  7  9  1  0
  7  6  1  0
  9 10  2  0
 11 12  2  0
 12  2  1  0
 13 14  1  0
 13  9  1  0
 14 25  1  0
 14 15  1  6
 16 15  1  0
 17 16  2  0
 18 17  1  0
 19 18  1  0
 19 24  2  0
 20 19  1  0
 21 20  2  0
 21 22  1  0
 22 23  2  0
 23 24  1  0
 24 16  1  0
 25 27  1  0
 25 26  2  0
 27 28  1  0
 28 29  1  1
 29 30  1  0
 30 31  2  0
 31 32  1  0
 33 32  1  0
 34 30  1  0
 34 33  2  0
 35 28  1  0
 35 36  1  0
 37 35  2  0
M  END
$$$$
