YWH.pdb
     RDKit          3D

 37 40  0  0  1  0  0  0  0  0999 V2000
   29.0723  -14.9555  -17.6017 O   0  0  0  0  0  0  0  0  0  0  0  0
   28.3658  -15.8792  -16.8214 C   0  0  0  0  0  0  0  0  0  0  0  0
   27.8125  -16.9592  -17.4730 C   0  0  0  0  0  0  0  0  0  0  0  0
   27.1110  -17.8869  -16.7353 C   0  0  0  0  0  0  0  0  0  0  0  0
   26.9788  -17.7149  -15.3692 C   0  0  0  0  0  0  0  0  0  0  0  0
   26.2060  -18.7537  -14.6159 C   0  0  0  0  0  0  0  0  0  0  0  0
   27.1296  -19.6591  -13.8419 C   0  0  2  0  0  0  0  0  0  0  0  0
   27.8824  -20.4508  -14.7908 N   0  0  0  0  0  0  0  0  0  0  0  0
   26.4483  -20.5138  -12.8658 C   0  0  0  0  0  0  0  0  0  0  0  0
   26.0005  -21.6319  -13.2372 O   0  0  0  0  0  0  0  0  0  0  0  0
   27.5345  -16.6300  -14.7139 C   0  0  0  0  0  0  0  0  0  0  0  0
   28.2324  -15.7103  -15.4595 C   0  0  0  0  0  0  0  0  0  0  0  0
   26.2504  -20.1719  -11.5058 N   0  0  0  0  0  0  0  0  0  0  0  0
   25.4052  -20.9174  -10.6349 C   0  0  1  0  0  0  0  0  0  0  0  0
   25.6867  -20.7733   -9.1877 C   0  0  0  0  0  0  0  0  0  0  0  0
   27.0841  -20.8591   -8.7672 C   0  0  0  0  0  0  0  0  0  0  0  0
   28.2225  -21.3706   -9.3348 C   0  0  0  0  0  0  0  0  0  0  0  0
   29.2947  -21.1796   -8.5069 N   0  0  0  0  0  0  0  0  0  0  0  0
   28.8396  -20.5467   -7.4129 C   0  0  0  0  0  0  0  0  0  0  0  0
   29.5135  -20.1165   -6.2650 C   0  0  0  0  0  0  0  0  0  0  0  0
   28.8527  -19.4842   -5.2571 C   0  0  0  0  0  0  0  0  0  0  0  0
   27.5036  -19.2614   -5.3608 C   0  0  0  0  0  0  0  0  0  0  0  0
   26.8498  -19.6911   -6.4995 C   0  0  0  0  0  0  0  0  0  0  0  0
   27.4969  -20.3348   -7.5364 C   0  0  0  0  0  0  0  0  0  0  0  0
   23.9475  -20.6393  -10.8705 C   0  0  0  0  0  0  0  0  0  0  0  0
   23.4841  -19.4877  -10.5697 O   0  0  0  0  0  0  0  0  0  0  0  0
   23.0549  -21.5749  -11.4054 N   0  0  0  0  0  0  0  0  0  0  0  0
   21.6148  -21.3360  -11.5419 C   0  0  1  0  0  0  0  0  0  0  0  0
   21.2327  -21.8684  -12.8935 C   0  0  0  0  0  0  0  0  0  0  0  0
   21.4692  -20.9532  -14.0092 C   0  0  0  0  0  0  0  0  0  0  0  0
   21.9186  -19.6568  -13.9064 C   0  0  0  0  0  0  0  0  0  0  0  0
   22.0009  -19.1586  -15.1534 N   0  0  0  0  0  0  0  0  0  0  0  0
   21.6181  -20.0990  -16.0371 C   0  0  0  0  0  0  0  0  0  0  0  0
   21.2935  -21.1997  -15.3115 N   0  0  0  0  0  0  0  0  0  0  0  0
   20.8640  -22.0615  -10.4841 C   0  0  0  0  0  0  0  0  0  0  0  0
   19.5153  -21.8029  -10.3399 O   0  0  0  0  0  0  0  0  0  0  0  0
   21.4304  -22.8917   -9.7329 O   0  0  0  0  0  0  0  0  0  0  0  0
  2  1  1  0
  3  2  2  0
  4  3  1  0
  5 11  1  0
  5  4  2  0
  6  5  1  0
  7  8  1  6
  7  9  1  0
  7  6  1  0
  9 10  2  0
 11 12  2  0
 12  2  1  0
 13 14  1  0
 13  9  1  0
 14 25  1  0
 14 15  1  1
 16 15  1  0
 17 16  2  0
 18 17  1  0
 19 18  1  0
 19 24  2  0
 20 19  1  0
 21 20  2  0
 21 22  1  0
 22 23  2  0
 23 24  1  0
 24 16  1  0
 25 27  1  0
 25 26  2  0
 27 28  1  0
 28 29  1  6
 29 30  1  0
 30 31  2  0
 31 32  1  0
 33 32  1  0
 34 30  1  0
 34 33  2  0
 35 28  1  0
 35 36  1  0
 37 35  2  0
M  END
$$$$
