YWH.pdb
     RDKit          3D

 37 40  0  0  1  0  0  0  0  0999 V2000
   29.9142  -16.3814  -18.5338 O   0  0  0  0  0  0  0  0  0  0  0  0
   29.0614  -17.1820  -17.7636 C   0  0  0  0  0  0  0  0  0  0  0  0
   28.9600  -16.8835  -16.4228 C   0  0  0  0  0  0  0  0  0  0  0  0
   28.1299  -17.6511  -15.6365 C   0  0  0  0  0  0  0  0  0  0  0  0
   27.4231  -18.6952  -16.2054 C   0  0  0  0  0  0  0  0  0  0  0  0
   26.5351  -19.4974  -15.3043 C   0  0  0  0  0  0  0  0  0  0  0  0
   27.3475  -20.3623  -14.3750 C   0  0  2  0  0  0  0  0  0  0  0  0
   27.9868  -21.3932  -15.1641 N   0  0  0  0  0  0  0  0  0  0  0  0
   26.5759  -20.9443  -13.2736 C   0  0  0  0  0  0  0  0  0  0  0  0
   25.9873  -22.0446  -13.4518 O   0  0  0  0  0  0  0  0  0  0  0  0
   27.5245  -18.9957  -17.5525 C   0  0  0  0  0  0  0  0  0  0  0  0
   28.3556  -18.2233  -18.3280 C   0  0  0  0  0  0  0  0  0  0  0  0
   26.4381  -20.3519  -11.9946 N   0  0  0  0  0  0  0  0  0  0  0  0
   25.5490  -20.8525  -11.0009 C   0  0  1  0  0  0  0  0  0  0  0  0
   25.9498  -20.6044   -9.5965 C   0  0  0  0  0  0  0  0  0  0  0  0
   27.3495  -20.8438   -9.2492 C   0  0  0  0  0  0  0  0  0  0  0  0
   28.3886  -21.4929   -9.8644 C   0  0  0  0  0  0  0  0  0  0  0  0
   29.5199  -21.4129   -9.0994 N   0  0  0  0  0  0  0  0  0  0  0  0
   29.2016  -20.7132   -7.9978 C   0  0  0  0  0  0  0  0  0  0  0  0
   29.9830  -20.3442   -6.8977 C   0  0  0  0  0  0  0  0  0  0  0  0
   29.4558  -19.6228   -5.8710 C   0  0  0  0  0  0  0  0  0  0  0  0
   28.1374  -19.2475   -5.9080 C   0  0  0  0  0  0  0  0  0  0  0  0
   27.3765  -19.6182   -7.0000 C   0  0  0  0  0  0  0  0  0  0  0  0
   27.8872  -20.3498   -8.0546 C   0  0  0  0  0  0  0  0  0  0  0  0
   24.1403  -20.3657  -11.1913 C   0  0  0  0  0  0  0  0  0  0  0  0
   23.9112  -19.1100  -11.1435 O   0  0  0  0  0  0  0  0  0  0  0  0
   23.0502  -21.2126  -11.4203 N   0  0  0  0  0  0  0  0  0  0  0  0
   21.7566  -20.7493  -11.9319 C   0  0  1  0  0  0  0  0  0  0  0  0
   22.0057  -20.3020  -13.3441 C   0  0  0  0  0  0  0  0  0  0  0  0
   20.8234  -19.8250  -14.0603 C   0  0  0  0  0  0  0  0  0  0  0  0
   20.2246  -18.5968  -13.8986 C   0  0  0  0  0  0  0  0  0  0  0  0
   19.1708  -18.5492  -14.7338 N   0  0  0  0  0  0  0  0  0  0  0  0
   19.0872  -19.7069  -15.4153 C   0  0  0  0  0  0  0  0  0  0  0  0
   20.1160  -20.4817  -14.9856 N   0  0  0  0  0  0  0  0  0  0  0  0
   20.7657  -21.8570  -11.9218 C   0  0  0  0  0  0  0  0  0  0  0  0
   19.4350  -21.5472  -11.7217 O   0  0  0  0  0  0  0  0  0  0  0  0
   21.1168  -23.0498  -12.0898 O   0  0  0  0  0  0  0  0  0  0  0  0
  2  1  1  0
  3  2  2  0
  4  3  1  0
  5 11  1  0
  5  4  2  0
  6  5  1  0
  7  8  1  6
  7  9  1  0
  7  6  1  0
  9 10  2  0
 11 12  2  0
 12  2  1  0
 13 14  1  0
 13  9  1  0
 14 25  1  0
 14 15  1  1
 16 15  1  0
 17 16  2  0
 18 17  1  0
 19 18  1  0
 19 24  2  0
 20 19  1  0
 21 20  2  0
 21 22  1  0
 22 23  2  0
 23 24  1  0
 24 16  1  0
 25 27  1  0
 25 26  2  0
 27 28  1  0
 28 29  1  6
 29 30  1  0
 30 31  2  0
 31 32  1  0
 33 32  1  0
 34 30  1  0
 34 33  2  0
 35 28  1  0
 35 36  1  0
 37 35  2  0
M  END
$$$$
