YWH.pdb
     RDKit          3D

 37 40  0  0  1  0  0  0  0  0999 V2000
   30.1212  -16.7626  -18.1783 O   0  0  0  0  0  0  0  0  0  0  0  0
   29.3357  -17.4123  -17.2180 C   0  0  0  0  0  0  0  0  0  0  0  0
   29.7192  -17.2843  -15.9012 C   0  0  0  0  0  0  0  0  0  0  0  0
   28.9686  -17.9106  -14.9311 C   0  0  0  0  0  0  0  0  0  0  0  0
   27.8566  -18.6474  -15.2973 C   0  0  0  0  0  0  0  0  0  0  0  0
   27.0766  -19.3074  -14.2019 C   0  0  0  0  0  0  0  0  0  0  0  0
   27.7954  -20.5277  -13.6860 C   0  0  2  0  0  0  0  0  0  0  0  0
   28.0577  -21.4029  -14.8082 N   0  0  0  0  0  0  0  0  0  0  0  0
   27.0805  -21.2362  -12.6211 C   0  0  0  0  0  0  0  0  0  0  0  0
   26.1726  -22.0538  -12.9310 O   0  0  0  0  0  0  0  0  0  0  0  0
   27.4708  -18.7764  -16.6200 C   0  0  0  0  0  0  0  0  0  0  0  0
   28.2268  -18.1474  -17.5800 C   0  0  0  0  0  0  0  0  0  0  0  0
   27.3377  -21.0691  -11.2384 N   0  0  0  0  0  0  0  0  0  0  0  0
   26.4049  -21.4373  -10.2271 C   0  0  1  0  0  0  0  0  0  0  0  0
   26.9712  -21.6374   -8.8729 C   0  0  0  0  0  0  0  0  0  0  0  0
   27.0715  -20.4614   -8.0104 C   0  0  0  0  0  0  0  0  0  0  0  0
   26.5226  -19.2055   -8.0405 C   0  0  0  0  0  0  0  0  0  0  0  0
   26.9451  -18.4751   -6.9636 N   0  0  0  0  0  0  0  0  0  0  0  0
   27.7625  -19.2654   -6.2481 C   0  0  0  0  0  0  0  0  0  0  0  0
   28.4606  -19.0150   -5.0621 C   0  0  0  0  0  0  0  0  0  0  0  0
   29.2470  -19.9696   -4.4941 C   0  0  0  0  0  0  0  0  0  0  0  0
   29.3622  -21.2002   -5.0882 C   0  0  0  0  0  0  0  0  0  0  0  0
   28.6676  -21.4348   -6.2592 C   0  0  0  0  0  0  0  0  0  0  0  0
   27.8630  -20.4834   -6.8558 C   0  0  0  0  0  0  0  0  0  0  0  0
   25.2535  -20.4770  -10.1290 C   0  0  0  0  0  0  0  0  0  0  0  0
   25.4733  -19.2319  -10.3110 O   0  0  0  0  0  0  0  0  0  0  0  0
   23.9393  -20.8662   -9.8470 N   0  0  0  0  0  0  0  0  0  0  0  0
   22.7856  -20.4790  -10.6648 C   0  0  1  0  0  0  0  0  0  0  0  0
   23.0027  -21.1077  -12.0116 C   0  0  0  0  0  0  0  0  0  0  0  0
   21.9771  -20.8048  -13.0090 C   0  0  0  0  0  0  0  0  0  0  0  0
   20.8848  -19.9897  -12.8195 C   0  0  0  0  0  0  0  0  0  0  0  0
   20.1888  -19.9745  -13.9707 N   0  0  0  0  0  0  0  0  0  0  0  0
   20.8073  -20.7530  -14.8780 C   0  0  0  0  0  0  0  0  0  0  0  0
   21.9091  -21.2569  -14.2654 N   0  0  0  0  0  0  0  0  0  0  0  0
   21.5265  -20.9936  -10.0657 C   0  0  0  0  0  0  0  0  0  0  0  0
   20.3355  -20.3917  -10.4203 O   0  0  0  0  0  0  0  0  0  0  0  0
   21.5319  -21.9517   -9.2555 O   0  0  0  0  0  0  0  0  0  0  0  0
  2  1  1  0
  3  2  2  0
  4  3  1  0
  5 11  1  0
  5  4  2  0
  6  5  1  0
  7  8  1  6
  7  9  1  0
  7  6  1  0
  9 10  2  0
 11 12  2  0
 12  2  1  0
 13 14  1  0
 13  9  1  0
 14 25  1  0
 14 15  1  1
 16 15  1  0
 17 16  2  0
 18 17  1  0
 19 18  1  0
 19 24  2  0
 20 19  1  0
 21 20  2  0
 21 22  1  0
 22 23  2  0
 23 24  1  0
 24 16  1  0
 25 27  1  0
 25 26  2  0
 27 28  1  0
 28 29  1  6
 29 30  1  0
 30 31  2  0
 31 32  1  0
 33 32  1  0
 34 30  1  0
 34 33  2  0
 35 28  1  0
 35 36  1  0
 37 35  2  0
M  END
$$$$
