YWH.pdb
     RDKit          3D

 37 40  0  0  1  0  0  0  0  0999 V2000
   25.9995  -11.5112  -26.0728 O   0  0  0  0  0  0  0  0  0  0  0  0
   25.5541  -11.3038  -24.7614 C   0  0  0  0  0  0  0  0  0  0  0  0
   24.5223  -12.0996  -24.3149 C   0  0  0  0  0  0  0  0  0  0  0  0
   24.0599  -11.9218  -23.0298 C   0  0  0  0  0  0  0  0  0  0  0  0
   24.6366  -10.9570  -22.2236 C   0  0  0  0  0  0  0  0  0  0  0  0
   24.0952  -10.8062  -20.8351 C   0  0  0  0  0  0  0  0  0  0  0  0
   25.0021  -11.4639  -19.8268 C   0  0  2  0  0  0  0  0  0  0  0  0
   24.9357  -12.8953  -20.0288 N   0  0  0  0  0  0  0  0  0  0  0  0
   24.7022  -11.1136  -18.4359 C   0  0  0  0  0  0  0  0  0  0  0  0
   23.9954  -11.8961  -17.7454 O   0  0  0  0  0  0  0  0  0  0  0  0
   25.6733  -10.1571  -22.6716 C   0  0  0  0  0  0  0  0  0  0  0  0
   26.1270  -10.3429  -23.9556 C   0  0  0  0  0  0  0  0  0  0  0  0
   25.1567   -9.9362  -17.7933 N   0  0  0  0  0  0  0  0  0  0  0  0
   24.8515   -9.6272  -16.4368 C   0  0  1  0  0  0  0  0  0  0  0  0
   26.0046   -9.6085  -15.5070 C   0  0  0  0  0  0  0  0  0  0  0  0
   27.1189  -10.5060  -15.8067 C   0  0  0  0  0  0  0  0  0  0  0  0
   28.2607  -10.3933  -16.5572 C   0  0  0  0  0  0  0  0  0  0  0  0
   28.9879  -11.5504  -16.4947 N   0  0  0  0  0  0  0  0  0  0  0  0
   28.3097  -12.3995  -15.7049 C   0  0  0  0  0  0  0  0  0  0  0  0
   28.6064  -13.7085  -15.3111 C   0  0  0  0  0  0  0  0  0  0  0  0
   27.7702  -14.4031  -14.4920 C   0  0  0  0  0  0  0  0  0  0  0  0
   26.6154  -13.8168  -14.0411 C   0  0  0  0  0  0  0  0  0  0  0  0
   26.3340  -12.5236  -14.4373 C   0  0  0  0  0  0  0  0  0  0  0  0
   27.1657  -11.7972  -15.2674 C   0  0  0  0  0  0  0  0  0  0  0  0
   24.1003   -8.3335  -16.2963 C   0  0  0  0  0  0  0  0  0  0  0  0
   24.5202   -7.3062  -16.9286 O   0  0  0  0  0  0  0  0  0  0  0  0
   22.9556   -8.1819  -15.5059 N   0  0  0  0  0  0  0  0  0  0  0  0
   22.1717   -6.9445  -15.4426 C   0  0  1  0  0  0  0  0  0  0  0  0
   21.7302   -6.6613  -16.8501 C   0  0  0  0  0  0  0  0  0  0  0  0
   20.9452   -5.4391  -17.0188 C   0  0  0  0  0  0  0  0  0  0  0  0
   19.5860   -5.3765  -17.2239 C   0  0  0  0  0  0  0  0  0  0  0  0
   19.2541   -4.0771  -17.3313 N   0  0  0  0  0  0  0  0  0  0  0  0
   20.3596   -3.3205  -17.2004 C   0  0  0  0  0  0  0  0  0  0  0  0
   21.3933   -4.1795  -17.0084 N   0  0  0  0  0  0  0  0  0  0  0  0
   20.9833   -7.1251  -14.5685 C   0  0  0  0  0  0  0  0  0  0  0  0
   20.2540   -6.0084  -14.2112 O   0  0  0  0  0  0  0  0  0  0  0  0
   20.6401   -8.2600  -14.1580 O   0  0  0  0  0  0  0  0  0  0  0  0
  2  1  1  0
  3  2  2  0
  4  3  1  0
  5 11  1  0
  5  4  2  0
  6  5  1  0
  7  8  1  1
  7  9  1  0
  7  6  1  0
  9 10  2  0
 11 12  2  0
 12  2  1  0
 13 14  1  0
 13  9  1  0
 14 25  1  0
 14 15  1  1
 16 15  1  0
 17 16  2  0
 18 17  1  0
 19 18  1  0
 19 24  2  0
 20 19  1  0
 21 20  2  0
 21 22  1  0
 22 23  2  0
 23 24  1  0
 24 16  1  0
 25 27  1  0
 25 26  2  0
 27 28  1  0
 28 29  1  6
 29 30  1  0
 30 31  2  0
 31 32  1  0
 33 32  1  0
 34 30  1  0
 34 33  2  0
 35 28  1  0
 35 36  1  0
 37 35  2  0
M  END
$$$$
