YWH.pdb
     RDKit          3D

 37 40  0  0  1  0  0  0  0  0999 V2000
   28.4384  -10.2782  -26.5002 O   0  0  0  0  0  0  0  0  0  0  0  0
   27.5346  -10.1687  -25.4360 C   0  0  0  0  0  0  0  0  0  0  0  0
   26.2958  -10.7477  -25.6015 C   0  0  0  0  0  0  0  0  0  0  0  0
   25.3828  -10.6587  -24.5742 C   0  0  0  0  0  0  0  0  0  0  0  0
   25.7270   -9.9959  -23.4099 C   0  0  0  0  0  0  0  0  0  0  0  0
   24.6962   -9.9291  -22.3251 C   0  0  0  0  0  0  0  0  0  0  0  0
   25.0573  -10.8394  -21.1794 C   0  0  2  0  0  0  0  0  0  0  0  0
   24.8845  -12.2069  -21.6200 N   0  0  0  0  0  0  0  0  0  0  0  0
   24.3011  -10.5820  -19.9509 C   0  0  0  0  0  0  0  0  0  0  0  0
   23.2369  -11.2239  -19.7404 O   0  0  0  0  0  0  0  0  0  0  0  0
   26.9715   -9.4140  -23.2429 C   0  0  0  0  0  0  0  0  0  0  0  0
   27.8749   -9.5088  -24.2743 C   0  0  0  0  0  0  0  0  0  0  0  0
   24.6833   -9.6461  -18.9591 N   0  0  0  0  0  0  0  0  0  0  0  0
   23.8769   -9.3481  -17.8236 C   0  0  1  0  0  0  0  0  0  0  0  0
   24.6073   -8.8875  -16.6199 C   0  0  0  0  0  0  0  0  0  0  0  0
   23.8190   -8.6409  -15.4138 C   0  0  0  0  0  0  0  0  0  0  0  0
   23.3195   -9.4413  -14.4192 C   0  0  0  0  0  0  0  0  0  0  0  0
   22.6442   -8.6896  -13.4970 N   0  0  0  0  0  0  0  0  0  0  0  0
   22.7136   -7.4113  -13.9040 C   0  0  0  0  0  0  0  0  0  0  0  0
   22.1950   -6.2453  -13.3310 C   0  0  0  0  0  0  0  0  0  0  0  0
   22.3832   -5.0307  -13.9157 C   0  0  0  0  0  0  0  0  0  0  0  0
   23.0918   -4.9400  -15.0862 C   0  0  0  0  0  0  0  0  0  0  0  0
   23.5987   -6.0989  -15.6417 C   0  0  0  0  0  0  0  0  0  0  0  0
   23.4221   -7.3434  -15.0686 C   0  0  0  0  0  0  0  0  0  0  0  0
   22.7898   -8.3584  -18.1336 C   0  0  0  0  0  0  0  0  0  0  0  0
   23.0815   -7.3161  -18.8119 O   0  0  0  0  0  0  0  0  0  0  0  0
   21.4614   -8.5089  -17.7203 N   0  0  0  0  0  0  0  0  0  0  0  0
   20.4190   -7.5059  -17.9594 C   0  0  1  0  0  0  0  0  0  0  0  0
   19.2669   -8.2451  -18.5778 C   0  0  0  0  0  0  0  0  0  0  0  0
   19.5108   -8.7561  -19.9260 C   0  0  0  0  0  0  0  0  0  0  0  0
   19.8197  -10.0570  -20.2508 C   0  0  0  0  0  0  0  0  0  0  0  0
   19.9690  -10.1144  -21.5866 N   0  0  0  0  0  0  0  0  0  0  0  0
   19.7643   -8.8924  -22.1126 C   0  0  0  0  0  0  0  0  0  0  0  0
   19.4828   -8.0675  -21.0717 N   0  0  0  0  0  0  0  0  0  0  0  0
   19.9902   -6.8851  -16.6789 C   0  0  0  0  0  0  0  0  0  0  0  0
   19.1961   -5.7566  -16.7287 O   0  0  0  0  0  0  0  0  0  0  0  0
   20.3347   -7.3651  -15.5720 O   0  0  0  0  0  0  0  0  0  0  0  0
  2  1  1  0
  3  2  2  0
  4  3  1  0
  5 11  1  0
  5  4  2  0
  6  5  1  0
  7  8  1  6
  7  9  1  0
  7  6  1  0
  9 10  2  0
 11 12  2  0
 12  2  1  0
 13 14  1  0
 13  9  1  0
 14 25  1  0
 14 15  1  1
 16 15  1  0
 17 16  2  0
 18 17  1  0
 19 18  1  0
 19 24  2  0
 20 19  1  0
 21 20  2  0
 21 22  1  0
 22 23  2  0
 23 24  1  0
 24 16  1  0
 25 27  1  0
 25 26  2  0
 27 28  1  0
 28 29  1  1
 29 30  1  0
 30 31  2  0
 31 32  1  0
 33 32  1  0
 34 30  1  0
 34 33  2  0
 35 28  1  0
 35 36  1  0
 37 35  2  0
M  END
$$$$
