YWH.pdb
     RDKit          3D

 37 40  0  0  1  0  0  0  0  0999 V2000
   30.3055  -17.9322  -19.5094 O   0  0  0  0  0  0  0  0  0  0  0  0
   29.4802  -18.4092  -18.4834 C   0  0  0  0  0  0  0  0  0  0  0  0
   28.3462  -19.0960  -18.8570 C   0  0  0  0  0  0  0  0  0  0  0  0
   27.5124  -19.5788  -17.8728 C   0  0  0  0  0  0  0  0  0  0  0  0
   27.8294  -19.3652  -16.5435 C   0  0  0  0  0  0  0  0  0  0  0  0
   26.8879  -19.9119  -15.5146 C   0  0  0  0  0  0  0  0  0  0  0  0
   27.5490  -20.9910  -14.6958 C   0  0  2  0  0  0  0  0  0  0  0  0
   27.6030  -22.1943  -15.4977 N   0  0  0  0  0  0  0  0  0  0  0  0
   26.8995  -21.2453  -13.4072 C   0  0  0  0  0  0  0  0  0  0  0  0
   25.9874  -22.1127  -13.3410 O   0  0  0  0  0  0  0  0  0  0  0  0
   28.9686  -18.6753  -16.1674 C   0  0  0  0  0  0  0  0  0  0  0  0
   29.7936  -18.1978  -17.1575 C   0  0  0  0  0  0  0  0  0  0  0  0
   27.2260  -20.5760  -12.2025 N   0  0  0  0  0  0  0  0  0  0  0  0
   26.5840  -20.8561  -10.9624 C   0  0  1  0  0  0  0  0  0  0  0  0
   27.2432  -20.3004   -9.7577 C   0  0  0  0  0  0  0  0  0  0  0  0
   26.6749  -20.6595   -8.4597 C   0  0  0  0  0  0  0  0  0  0  0  0
   25.5882  -21.3957   -8.0637 C   0  0  0  0  0  0  0  0  0  0  0  0
   25.5084  -21.4305   -6.6984 N   0  0  0  0  0  0  0  0  0  0  0  0
   26.5436  -20.7170   -6.2252 C   0  0  0  0  0  0  0  0  0  0  0  0
   26.9282  -20.4356   -4.9101 C   0  0  0  0  0  0  0  0  0  0  0  0
   28.0293  -19.6803   -4.6457 C   0  0  0  0  0  0  0  0  0  0  0  0
   28.7793  -19.1831   -5.6805 C   0  0  0  0  0  0  0  0  0  0  0  0
   28.3888  -19.4683   -6.9746 C   0  0  0  0  0  0  0  0  0  0  0  0
   27.2761  -20.2321   -7.2698 C   0  0  0  0  0  0  0  0  0  0  0  0
   25.1403  -20.4398  -10.9549 C   0  0  0  0  0  0  0  0  0  0  0  0
   24.5591  -20.2541   -9.8327 O   0  0  0  0  0  0  0  0  0  0  0  0
   24.3833  -20.2408  -12.1148 N   0  0  0  0  0  0  0  0  0  0  0  0
   22.9584  -19.8955  -12.1040 C   0  0  1  0  0  0  0  0  0  0  0  0
   22.5945  -19.5933  -13.5297 C   0  0  0  0  0  0  0  0  0  0  0  0
   23.2487  -18.4163  -14.0998 C   0  0  0  0  0  0  0  0  0  0  0  0
   24.0776  -17.5494  -13.4253 C   0  0  0  0  0  0  0  0  0  0  0  0
   24.4680  -16.6035  -14.2987 N   0  0  0  0  0  0  0  0  0  0  0  0
   23.9121  -16.8469  -15.5002 C   0  0  0  0  0  0  0  0  0  0  0  0
   23.1628  -17.9700  -15.3572 N   0  0  0  0  0  0  0  0  0  0  0  0
   22.1490  -21.0397  -11.6093 C   0  0  0  0  0  0  0  0  0  0  0  0
   20.8191  -20.8227  -11.3076 O   0  0  0  0  0  0  0  0  0  0  0  0
   22.6501  -22.1808  -11.4646 O   0  0  0  0  0  0  0  0  0  0  0  0
  2  1  1  0
  3  2  2  0
  4  3  1  0
  5 11  1  0
  5  4  2  0
  6  5  1  0
  7  8  1  6
  7  9  1  0
  7  6  1  0
  9 10  2  0
 11 12  2  0
 12  2  1  0
 13 14  1  0
 13  9  1  0
 14 25  1  0
 14 15  1  1
 16 15  1  0
 17 16  2  0
 18 17  1  0
 19 18  1  0
 19 24  2  0
 20 19  1  0
 21 20  2  0
 21 22  1  0
 22 23  2  0
 23 24  1  0
 24 16  1  0
 25 27  1  0
 25 26  2  0
 27 28  1  0
 28 29  1  6
 29 30  1  0
 30 31  2  0
 31 32  1  0
 33 32  1  0
 34 30  1  0
 34 33  2  0
 35 28  1  0
 35 36  1  0
 37 35  2  0
M  END
$$$$
