KFN.pdb
     RDKit          3D

 29 29  0  0  1  0  0  0  0  0999 V2000
    7.8701  -15.9789   19.4353 N   0  0  0  0  0  0  0  0  0  0  0  0
    8.9316  -14.9986   19.5175 C   0  0  1  0  0  0  0  0  0  0  0  0
    8.6327  -13.8215   18.6176 C   0  0  0  0  0  0  0  0  0  0  0  0
    8.9396  -14.1242   17.1766 C   0  0  0  0  0  0  0  0  0  0  0  0
    7.7659  -13.7693   16.3013 C   0  0  0  0  0  0  0  0  0  0  0  0
    8.2473  -13.4811   14.8717 C   0  0  0  0  0  0  0  0  0  0  0  0
    7.7693  -14.5600   14.0466 N   0  0  0  0  0  0  0  0  0  0  0  0
    9.0300  -14.4516   20.9177 C   0  0  0  0  0  0  0  0  0  0  0  0
    9.9599  -13.6560   21.2451 O   0  0  0  0  0  0  0  0  0  0  0  0
    8.0971  -14.7943   21.9327 N   0  0  0  0  0  0  0  0  0  0  0  0
    8.1251  -14.2462   23.2561 C   0  0  1  0  0  0  0  0  0  0  0  0
    6.8428  -14.3781   24.0127 C   0  0  0  0  0  0  0  0  0  0  0  0
    6.8500  -13.7474   25.3337 C   0  0  0  0  0  0  0  0  0  0  0  0
    6.4259  -12.4485   25.5435 C   0  0  0  0  0  0  0  0  0  0  0  0
    6.4418  -11.8690   26.8016 C   0  0  0  0  0  0  0  0  0  0  0  0
    6.8842  -12.5680   27.9038 C   0  0  0  0  0  0  0  0  0  0  0  0
    7.3097  -13.8648   27.7058 C   0  0  0  0  0  0  0  0  0  0  0  0
    7.2918  -14.4434   26.4388 C   0  0  0  0  0  0  0  0  0  0  0  0
    9.3066  -14.7817   23.9941 C   0  0  0  0  0  0  0  0  0  0  0  0
    9.8161  -14.1102   24.9228 O   0  0  0  0  0  0  0  0  0  0  0  0
   11.7668  -18.3917   26.5865 N   0  0  0  0  0  0  0  0  0  0  0  0
   10.3514  -18.1190   26.7724 C   0  0  0  0  0  0  0  0  0  0  0  0
    9.8263  -18.6164   27.7972 O   0  0  0  0  0  0  0  0  0  0  0  0
    9.6762  -17.2971   25.7558 C   0  0  0  0  0  0  0  0  0  0  0  0
   10.6061  -16.8543   24.6947 C   0  0  2  0  0  0  0  0  0  0  0  0
    9.8841  -16.0368   23.6832 N   0  0  0  0  0  0  0  0  0  0  0  0
   11.2736  -17.9790   23.9854 C   0  0  0  0  0  0  0  0  0  0  0  0
   10.5552  -18.6692   23.1810 O   0  0  0  0  0  0  0  0  0  0  0  0
   12.5869  -18.3326   24.1223 O   0  0  0  0  0  0  0  0  0  0  0  0
  2  1  1  1
  2  3  1  0
  3  4  1  0
  4  5  1  0
  6  5  1  0
  7  6  1  0
  8  9  2  0
  8  2  1  0
 10  8  1  0
 11 10  1  0
 11 12  1  1
 13 14  2  0
 13 12  1  0
 15 14  1  0
 16 15  2  0
 17 16  1  0
 17 18  2  0
 18 13  1  0
 19 26  1  0
 19 11  1  0
 20 19  2  0
 21 22  1  0
 22 23  2  0
 22 24  1  0
 25 24  1  1
 25 26  1  0
 25 27  1  0
 27 29  1  0
 28 27  2  0
M  END
$$$$
