KFN.pdb
     RDKit          3D

 29 29  0  0  1  0  0  0  0  0999 V2000
    8.5820  -17.8756   20.1639 N   0  0  0  0  0  0  0  0  0  0  0  0
    9.9106  -17.5092   20.6057 C   0  0  1  0  0  0  0  0  0  0  0  0
   10.7198  -16.9680   19.4494 C   0  0  0  0  0  0  0  0  0  0  0  0
   10.2994  -17.5727   18.1380 C   0  0  0  0  0  0  0  0  0  0  0  0
   11.1524  -17.0429   17.0150 C   0  0  0  0  0  0  0  0  0  0  0  0
   10.7059  -17.6611   15.6819 C   0  0  0  0  0  0  0  0  0  0  0  0
   11.5828  -17.1382   14.6667 N   0  0  0  0  0  0  0  0  0  0  0  0
    9.8352  -16.4053   21.6280 C   0  0  0  0  0  0  0  0  0  0  0  0
   10.8807  -15.8129   22.0291 O   0  0  0  0  0  0  0  0  0  0  0  0
    8.6034  -15.9751   22.1896 N   0  0  0  0  0  0  0  0  0  0  0  0
    8.5044  -15.2053   23.3939 C   0  0  1  0  0  0  0  0  0  0  0  0
    7.2582  -14.3884   23.5109 C   0  0  0  0  0  0  0  0  0  0  0  0
    7.1570  -13.6096   24.7463 C   0  0  0  0  0  0  0  0  0  0  0  0
    6.3316  -13.9743   25.7936 C   0  0  0  0  0  0  0  0  0  0  0  0
    6.2487  -13.2229   26.9542 C   0  0  0  0  0  0  0  0  0  0  0  0
    6.9906  -12.0726   27.1142 C   0  0  0  0  0  0  0  0  0  0  0  0
    7.8174  -11.6994   26.0755 C   0  0  0  0  0  0  0  0  0  0  0  0
    7.8975  -12.4583   24.9102 C   0  0  0  0  0  0  0  0  0  0  0  0
    8.7477  -16.0879   24.5726 C   0  0  0  0  0  0  0  0  0  0  0  0
    7.9334  -17.0027   24.8426 O   0  0  0  0  0  0  0  0  0  0  0  0
   12.7267  -17.9269   24.1409 N   0  0  0  0  0  0  0  0  0  0  0  0
   11.7912  -18.2937   25.1910 C   0  0  0  0  0  0  0  0  0  0  0  0
   11.1980  -19.3885   25.0401 O   0  0  0  0  0  0  0  0  0  0  0  0
   11.6293  -17.3601   26.3166 C   0  0  0  0  0  0  0  0  0  0  0  0
   10.2272  -16.9158   26.4701 C   0  0  2  0  0  0  0  0  0  0  0  0
    9.8783  -15.9315   25.4108 N   0  0  0  0  0  0  0  0  0  0  0  0
    9.9458  -16.2898   27.7902 C   0  0  0  0  0  0  0  0  0  0  0  0
   10.1272  -17.0150   28.8298 O   0  0  0  0  0  0  0  0  0  0  0  0
    9.5119  -15.0077   27.9815 O   0  0  0  0  0  0  0  0  0  0  0  0
  2  1  1  6
  2  3  1  0
  3  4  1  0
  4  5  1  0
  6  5  1  0
  7  6  1  0
  8  9  2  0
  8  2  1  0
 10  8  1  0
 11 10  1  0
 11 12  1  1
 13 14  2  0
 13 12  1  0
 15 14  1  0
 16 15  2  0
 17 16  1  0
 17 18  2  0
 18 13  1  0
 19 26  1  0
 19 11  1  0
 20 19  2  0
 21 22  1  0
 22 23  2  0
 22 24  1  0
 25 24  1  1
 25 26  1  0
 25 27  1  0
 27 29  1  0
 28 27  2  0
M  END
$$$$
