KFN.pdb
     RDKit          3D

 29 29  0  0  1  0  0  0  0  0999 V2000
    9.8678  -16.7690   19.2003 N   0  0  0  0  0  0  0  0  0  0  0  0
    8.8829  -17.0747   20.2157 C   0  0  1  0  0  0  0  0  0  0  0  0
    9.0562  -18.4933   20.7078 C   0  0  0  0  0  0  0  0  0  0  0  0
    9.0222  -19.4872   19.5794 C   0  0  0  0  0  0  0  0  0  0  0  0
    8.4499  -20.7992   20.0490 C   0  0  0  0  0  0  0  0  0  0  0  0
    8.4012  -21.7967   18.8821 C   0  0  0  0  0  0  0  0  0  0  0  0
    9.7594  -22.1964   18.6199 N   0  0  0  0  0  0  0  0  0  0  0  0
    9.0729  -16.1809   21.4134 C   0  0  0  0  0  0  0  0  0  0  0  0
   10.2310  -15.9060   21.8471 O   0  0  0  0  0  0  0  0  0  0  0  0
    7.9775  -15.6060   22.1116 N   0  0  0  0  0  0  0  0  0  0  0  0
    8.1124  -14.8632   23.3293 C   0  0  1  0  0  0  0  0  0  0  0  0
    6.9043  -14.0715   23.7137 C   0  0  0  0  0  0  0  0  0  0  0  0
    7.0488  -13.3075   24.9540 C   0  0  0  0  0  0  0  0  0  0  0  0
    7.8112  -12.1574   25.0382 C   0  0  0  0  0  0  0  0  0  0  0  0
    7.9367  -11.4492   26.2220 C   0  0  0  0  0  0  0  0  0  0  0  0
    7.3024  -11.8646   27.3729 C   0  0  0  0  0  0  0  0  0  0  0  0
    6.5392  -13.0109   27.3001 C   0  0  0  0  0  0  0  0  0  0  0  0
    6.4160  -13.7198   26.1073 C   0  0  0  0  0  0  0  0  0  0  0  0
    8.5996  -15.7655   24.4138 C   0  0  0  0  0  0  0  0  0  0  0  0
    7.9794  -16.8262   24.6652 O   0  0  0  0  0  0  0  0  0  0  0  0
   10.9448  -18.0488   24.0287 N   0  0  0  0  0  0  0  0  0  0  0  0
   12.0674  -17.3675   24.6517 C   0  0  0  0  0  0  0  0  0  0  0  0
   13.1780  -17.5086   24.0860 O   0  0  0  0  0  0  0  0  0  0  0  0
   11.8005  -16.5876   25.8704 C   0  0  0  0  0  0  0  0  0  0  0  0
   10.3518  -16.4440   26.1297 C   0  0  2  0  0  0  0  0  0  0  0  0
    9.7516  -15.4675   25.1815 N   0  0  0  0  0  0  0  0  0  0  0  0
   10.0399  -15.9930   27.5129 C   0  0  0  0  0  0  0  0  0  0  0  0
    9.8570  -14.7380   27.6895 O   0  0  0  0  0  0  0  0  0  0  0  0
    9.9325  -16.8075   28.6054 O   0  0  0  0  0  0  0  0  0  0  0  0
  2  1  1  6
  2  3  1  0
  3  4  1  0
  4  5  1  0
  6  5  1  0
  7  6  1  0
  8  9  2  0
  8  2  1  0
 10  8  1  0
 11 10  1  0
 11 12  1  1
 13 14  2  0
 13 12  1  0
 15 14  1  0
 16 15  2  0
 17 16  1  0
 17 18  2  0
 18 13  1  0
 19 26  1  0
 19 11  1  0
 20 19  2  0
 21 22  1  0
 22 23  2  0
 22 24  1  0
 25 24  1  1
 25 26  1  0
 25 27  1  0
 27 29  1  0
 28 27  2  0
M  END
$$$$
