KFN.pdb
     RDKit          3D

 29 29  0  0  1  0  0  0  0  0999 V2000
    8.2308  -16.0836   20.0299 N   0  0  0  0  0  0  0  0  0  0  0  0
    9.0252  -17.0438   20.7657 C   0  0  1  0  0  0  0  0  0  0  0  0
   10.2176  -17.4801   19.9456 C   0  0  0  0  0  0  0  0  0  0  0  0
    9.8036  -18.2027   18.6931 C   0  0  0  0  0  0  0  0  0  0  0  0
   11.0147  -18.6739   17.9311 C   0  0  0  0  0  0  0  0  0  0  0  0
   10.5768  -19.4341   16.6705 C   0  0  0  0  0  0  0  0  0  0  0  0
   11.7794  -19.8635   16.0052 N   0  0  0  0  0  0  0  0  0  0  0  0
    9.5759  -16.4150   22.0190 C   0  0  0  0  0  0  0  0  0  0  0  0
   10.7365  -15.9077   22.0407 O   0  0  0  0  0  0  0  0  0  0  0  0
    8.8324  -16.3580   23.2282 N   0  0  0  0  0  0  0  0  0  0  0  0
    9.3497  -15.8293   24.4553 C   0  0  1  0  0  0  0  0  0  0  0  0
    8.3122  -15.3021   25.3933 C   0  0  0  0  0  0  0  0  0  0  0  0
    8.8446  -14.7603   26.6446 C   0  0  0  0  0  0  0  0  0  0  0  0
    9.0096  -15.5297   27.7812 C   0  0  0  0  0  0  0  0  0  0  0  0
    9.5139  -14.9979   28.9566 C   0  0  0  0  0  0  0  0  0  0  0  0
    9.8746  -13.6705   29.0423 C   0  0  0  0  0  0  0  0  0  0  0  0
    9.7141  -12.8938   27.9142 C   0  0  0  0  0  0  0  0  0  0  0  0
    9.2066  -13.4331   26.7344 C   0  0  0  0  0  0  0  0  0  0  0  0
   10.2643  -16.8276   25.0833 C   0  0  0  0  0  0  0  0  0  0  0  0
    9.8751  -18.0080   25.2509 O   0  0  0  0  0  0  0  0  0  0  0  0
   13.6320  -18.8501   23.9669 N   0  0  0  0  0  0  0  0  0  0  0  0
   14.4804  -17.8543   24.6001 C   0  0  0  0  0  0  0  0  0  0  0  0
   15.6307  -17.7256   24.1168 O   0  0  0  0  0  0  0  0  0  0  0  0
   13.9194  -17.1013   25.7328 C   0  0  0  0  0  0  0  0  0  0  0  0
   12.5276  -17.5032   26.0298 C   0  0  2  0  0  0  0  0  0  0  0  0
   11.5738  -16.4902   25.5036 N   0  0  0  0  0  0  0  0  0  0  0  0
   12.2589  -17.6765   27.4830 C   0  0  0  0  0  0  0  0  0  0  0  0
   12.1297  -16.6121   28.1829 O   0  0  0  0  0  0  0  0  0  0  0  0
   12.1385  -18.8758   28.1278 O   0  0  0  0  0  0  0  0  0  0  0  0
  2  1  1  6
  2  3  1  0
  3  4  1  0
  4  5  1  0
  6  5  1  0
  7  6  1  0
  8  9  2  0
  8  2  1  0
 10  8  1  0
 11 10  1  0
 11 12  1  1
 13 14  2  0
 13 12  1  0
 15 14  1  0
 16 15  2  0
 17 16  1  0
 17 18  2  0
 18 13  1  0
 19 26  1  0
 19 11  1  0
 20 19  2  0
 21 22  1  0
 22 23  2  0
 22 24  1  0
 25 24  1  1
 25 26  1  0
 25 27  1  0
 27 29  1  0
 28 27  2  0
M  END
$$$$
