KFN.pdb
     RDKit          3D

 29 29  0  0  1  0  0  0  0  0999 V2000
    7.4322  -15.6791   19.1684 N   0  0  0  0  0  0  0  0  0  0  0  0
    8.6091  -14.8584   19.3573 C   0  0  1  0  0  0  0  0  0  0  0  0
    8.4706  -13.5567   18.6015 C   0  0  0  0  0  0  0  0  0  0  0  0
    7.7981  -13.7492   17.2700 C   0  0  0  0  0  0  0  0  0  0  0  0
    8.8030  -13.6504   16.1521 C   0  0  0  0  0  0  0  0  0  0  0  0
    8.1277  -13.9739   14.8111 C   0  0  0  0  0  0  0  0  0  0  0  0
    9.1549  -13.9163   13.8038 N   0  0  0  0  0  0  0  0  0  0  0  0
    8.7638  -14.4939   20.8108 C   0  0  0  0  0  0  0  0  0  0  0  0
    9.7863  -13.8700   21.2233 O   0  0  0  0  0  0  0  0  0  0  0  0
    7.7839  -14.8262   21.7841 N   0  0  0  0  0  0  0  0  0  0  0  0
    7.9126  -14.5214   23.1781 C   0  0  1  0  0  0  0  0  0  0  0  0
    6.6538  -14.0501   23.8319 C   0  0  0  0  0  0  0  0  0  0  0  0
    6.8198  -13.6018   25.2155 C   0  0  0  0  0  0  0  0  0  0  0  0
    6.6261  -14.4374   26.2996 C   0  0  0  0  0  0  0  0  0  0  0  0
    6.7867  -13.9937   27.6019 C   0  0  0  0  0  0  0  0  0  0  0  0
    7.1487  -12.6918   27.8728 C   0  0  0  0  0  0  0  0  0  0  0  0
    7.3444  -11.8495   26.7985 C   0  0  0  0  0  0  0  0  0  0  0  0
    7.1817  -12.3003   25.4906 C   0  0  0  0  0  0  0  0  0  0  0  0
    8.5531  -15.6700   23.8838 C   0  0  0  0  0  0  0  0  0  0  0  0
    8.0504  -16.8152   23.7905 O   0  0  0  0  0  0  0  0  0  0  0  0
   12.1949  -18.6733   25.8679 N   0  0  0  0  0  0  0  0  0  0  0  0
   12.8269  -17.5695   25.1647 C   0  0  0  0  0  0  0  0  0  0  0  0
   14.0624  -17.6745   24.9753 O   0  0  0  0  0  0  0  0  0  0  0  0
   11.9713  -16.4479   24.7470 C   0  0  0  0  0  0  0  0  0  0  0  0
   10.5522  -16.6741   25.0962 C   0  0  2  0  0  0  0  0  0  0  0  0
    9.7234  -15.5162   24.6660 N   0  0  0  0  0  0  0  0  0  0  0  0
   10.3273  -16.8850   26.5518 C   0  0  0  0  0  0  0  0  0  0  0  0
   10.9425  -17.8646   27.1008 O   0  0  0  0  0  0  0  0  0  0  0  0
    9.5206  -16.1196   27.3469 O   0  0  0  0  0  0  0  0  0  0  0  0
  2  1  1  1
  2  3  1  0
  3  4  1  0
  4  5  1  0
  6  5  1  0
  7  6  1  0
  8  9  2  0
  8  2  1  0
 10  8  1  0
 11 10  1  0
 11 12  1  1
 13 14  2  0
 13 12  1  0
 15 14  1  0
 16 15  2  0
 17 16  1  0
 17 18  2  0
 18 13  1  0
 19 26  1  0
 19 11  1  0
 20 19  2  0
 21 22  1  0
 22 23  2  0
 22 24  1  0
 25 24  1  1
 25 26  1  0
 25 27  1  0
 27 29  1  0
 28 27  2  0
M  END
$$$$
