KFN.pdb
     RDKit          3D

 29 29  0  0  1  0  0  0  0  0999 V2000
    7.8873  -15.8403   18.9777 N   0  0  0  0  0  0  0  0  0  0  0  0
    9.2629  -15.6128   19.3654 C   0  0  1  0  0  0  0  0  0  0  0  0
    9.8674  -14.5028   18.5365 C   0  0  0  0  0  0  0  0  0  0  0  0
    9.7043  -14.7505   17.0619 C   0  0  0  0  0  0  0  0  0  0  0  0
    8.4501  -14.0905   16.5515 C   0  0  0  0  0  0  0  0  0  0  0  0
    8.3644  -14.2387   15.0252 C   0  0  0  0  0  0  0  0  0  0  0  0
    7.1140  -13.6510   14.6200 N   0  0  0  0  0  0  0  0  0  0  0  0
    9.3331  -15.1606   20.8008 C   0  0  0  0  0  0  0  0  0  0  0  0
   10.4315  -14.8031   21.3209 O   0  0  0  0  0  0  0  0  0  0  0  0
    8.1858  -15.1117   21.6370 N   0  0  0  0  0  0  0  0  0  0  0  0
    8.2142  -14.6740   23.0010 C   0  0  1  0  0  0  0  0  0  0  0  0
    7.0011  -13.9184   23.4386 C   0  0  0  0  0  0  0  0  0  0  0  0
    7.0364  -13.4678   24.8308 C   0  0  0  0  0  0  0  0  0  0  0  0
    6.5111  -14.2124   25.8704 C   0  0  0  0  0  0  0  0  0  0  0  0
    6.5529  -13.7678   27.1816 C   0  0  0  0  0  0  0  0  0  0  0  0
    7.1239  -12.5563   27.5065 C   0  0  0  0  0  0  0  0  0  0  0  0
    7.6510  -11.8052   26.4771 C   0  0  0  0  0  0  0  0  0  0  0  0
    7.6066  -12.2565   25.1600 C   0  0  0  0  0  0  0  0  0  0  0  0
    8.5471  -15.8265   23.8889 C   0  0  0  0  0  0  0  0  0  0  0  0
    7.8578  -16.8728   23.8339 O   0  0  0  0  0  0  0  0  0  0  0  0
   12.0727  -19.7240   25.0354 N   0  0  0  0  0  0  0  0  0  0  0  0
   12.1280  -18.4352   25.7050 C   0  0  0  0  0  0  0  0  0  0  0  0
   12.6821  -18.4244   26.8302 O   0  0  0  0  0  0  0  0  0  0  0  0
   11.5370  -17.2803   25.0110 C   0  0  0  0  0  0  0  0  0  0  0  0
   10.1569  -17.0074   25.4665 C   0  0  2  0  0  0  0  0  0  0  0  0
    9.6265  -15.7854   24.8045 N   0  0  0  0  0  0  0  0  0  0  0  0
   10.0459  -16.8180   26.9382 C   0  0  0  0  0  0  0  0  0  0  0  0
    9.6315  -17.8162   27.6247 O   0  0  0  0  0  0  0  0  0  0  0  0
   10.3503  -15.6690   27.6133 O   0  0  0  0  0  0  0  0  0  0  0  0
  2  1  1  6
  2  3  1  0
  3  4  1  0
  4  5  1  0
  6  5  1  0
  7  6  1  0
  8  9  2  0
  8  2  1  0
 10  8  1  0
 11 10  1  0
 11 12  1  1
 13 14  2  0
 13 12  1  0
 15 14  1  0
 16 15  2  0
 17 16  1  0
 17 18  2  0
 18 13  1  0
 19 26  1  0
 19 11  1  0
 20 19  2  0
 21 22  1  0
 22 23  2  0
 22 24  1  0
 25 24  1  1
 25 26  1  0
 25 27  1  0
 27 29  1  0
 28 27  2  0
M  END
$$$$
