KFN.pdb
     RDKit          3D

 29 29  0  0  1  0  0  0  0  0999 V2000
   10.2018  -16.5671   19.2351 N   0  0  0  0  0  0  0  0  0  0  0  0
    9.1831  -16.9382   20.1938 C   0  0  1  0  0  0  0  0  0  0  0  0
    9.3420  -18.3861   20.5976 C   0  0  0  0  0  0  0  0  0  0  0  0
    9.9151  -19.2199   19.4846 C   0  0  0  0  0  0  0  0  0  0  0  0
    9.1544  -20.5130   19.3485 C   0  0  0  0  0  0  0  0  0  0  0  0
    9.7096  -21.3253   18.1692 C   0  0  0  0  0  0  0  0  0  0  0  0
    8.9214  -22.5273   18.0846 N   0  0  0  0  0  0  0  0  0  0  0  0
    9.3301  -16.1250   21.4534 C   0  0  0  0  0  0  0  0  0  0  0  0
   10.4579  -15.9843   22.0130 O   0  0  0  0  0  0  0  0  0  0  0  0
    8.2260  -15.4807   22.0728 N   0  0  0  0  0  0  0  0  0  0  0  0
    8.3207  -14.7428   23.2973 C   0  0  1  0  0  0  0  0  0  0  0  0
    7.1425  -13.8719   23.5930 C   0  0  0  0  0  0  0  0  0  0  0  0
    7.2132  -13.1705   24.8759 C   0  0  0  0  0  0  0  0  0  0  0  0
    8.1381  -12.1758   25.1334 C   0  0  0  0  0  0  0  0  0  0  0  0
    8.1898  -11.5247   26.3549 C   0  0  0  0  0  0  0  0  0  0  0  0
    7.3154  -11.8437   27.3713 C   0  0  0  0  0  0  0  0  0  0  0  0
    6.3885  -12.8347   27.1252 C   0  0  0  0  0  0  0  0  0  0  0  0
    6.3403  -13.4867   25.8951 C   0  0  0  0  0  0  0  0  0  0  0  0
    8.6677  -15.6701   24.4141 C   0  0  0  0  0  0  0  0  0  0  0  0
    7.9554  -16.6802   24.6273 O   0  0  0  0  0  0  0  0  0  0  0  0
   13.6458  -17.4686   27.2111 N   0  0  0  0  0  0  0  0  0  0  0  0
   12.4275  -17.8131   26.4974 C   0  0  0  0  0  0  0  0  0  0  0  0
   12.0229  -18.9920   26.6389 O   0  0  0  0  0  0  0  0  0  0  0  0
   11.7917  -16.7625   25.6870 C   0  0  0  0  0  0  0  0  0  0  0  0
   10.3848  -16.5345   26.0812 C   0  0  2  0  0  0  0  0  0  0  0  0
    9.7858  -15.4521   25.2552 N   0  0  0  0  0  0  0  0  0  0  0  0
   10.2240  -16.1627   27.5129 C   0  0  0  0  0  0  0  0  0  0  0  0
   10.5743  -17.0333   28.3841 O   0  0  0  0  0  0  0  0  0  0  0  0
    9.7353  -14.9711   27.9709 O   0  0  0  0  0  0  0  0  0  0  0  0
  2  1  1  6
  2  3  1  0
  3  4  1  0
  4  5  1  0
  6  5  1  0
  7  6  1  0
  8  9  2  0
  8  2  1  0
 10  8  1  0
 11 10  1  0
 11 12  1  1
 13 14  2  0
 13 12  1  0
 15 14  1  0
 16 15  2  0
 17 16  1  0
 17 18  2  0
 18 13  1  0
 19 26  1  0
 19 11  1  0
 20 19  2  0
 21 22  1  0
 22 23  2  0
 22 24  1  0
 25 24  1  6
 25 26  1  0
 25 27  1  0
 27 29  1  0
 28 27  2  0
M  END
$$$$
