KFN.pdb
     RDKit          3D

 29 29  0  0  1  0  0  0  0  0999 V2000
    6.9896  -16.3664   20.6069 N   0  0  0  0  0  0  0  0  0  0  0  0
    8.2717  -15.6989   20.6773 C   0  0  1  0  0  0  0  0  0  0  0  0
    8.1938  -14.3378   20.0246 C   0  0  0  0  0  0  0  0  0  0  0  0
    7.8141  -14.4324   18.5723 C   0  0  0  0  0  0  0  0  0  0  0  0
    7.9566  -13.0913   17.9012 C   0  0  0  0  0  0  0  0  0  0  0  0
    7.4983  -13.1865   16.4384 C   0  0  0  0  0  0  0  0  0  0  0  0
    7.6696  -11.8778   15.8630 N   0  0  0  0  0  0  0  0  0  0  0  0
    8.6591  -15.4621   22.1138 C   0  0  0  0  0  0  0  0  0  0  0  0
    9.7860  -14.9674   22.4142 O   0  0  0  0  0  0  0  0  0  0  0  0
    7.7924  -15.7769   23.1943 N   0  0  0  0  0  0  0  0  0  0  0  0
    8.2036  -15.7859   24.5667 C   0  0  1  0  0  0  0  0  0  0  0  0
    7.1310  -15.4200   25.5413 C   0  0  0  0  0  0  0  0  0  0  0  0
    7.0476  -13.9901   25.8434 C   0  0  0  0  0  0  0  0  0  0  0  0
    6.0132  -13.4410   26.5778 C   0  0  0  0  0  0  0  0  0  0  0  0
    5.9514  -12.0846   26.8519 C   0  0  0  0  0  0  0  0  0  0  0  0
    6.9254  -11.2203   26.4006 C   0  0  0  0  0  0  0  0  0  0  0  0
    7.9621  -11.7575   25.6668 C   0  0  0  0  0  0  0  0  0  0  0  0
    8.0199  -13.1222   25.3937 C   0  0  0  0  0  0  0  0  0  0  0  0
    8.8717  -17.0832   24.8799 C   0  0  0  0  0  0  0  0  0  0  0  0
    8.6189  -18.0962   24.1849 O   0  0  0  0  0  0  0  0  0  0  0  0
   12.4652  -20.6164   24.2841 N   0  0  0  0  0  0  0  0  0  0  0  0
   12.7183  -19.3437   24.9388 C   0  0  0  0  0  0  0  0  0  0  0  0
   13.8206  -19.2389   25.5281 O   0  0  0  0  0  0  0  0  0  0  0  0
   11.6730  -18.3120   24.8510 C   0  0  0  0  0  0  0  0  0  0  0  0
   10.7678  -18.3400   26.0201 C   0  0  2  0  0  0  0  0  0  0  0  0
    9.7937  -17.2182   25.9461 N   0  0  0  0  0  0  0  0  0  0  0  0
   11.4804  -18.2450   27.3228 C   0  0  0  0  0  0  0  0  0  0  0  0
   11.2196  -19.1438   28.1967 O   0  0  0  0  0  0  0  0  0  0  0  0
   12.3879  -17.2799   27.6598 O   0  0  0  0  0  0  0  0  0  0  0  0
  2  1  1  1
  2  3  1  0
  3  4  1  0
  4  5  1  0
  6  5  1  0
  7  6  1  0
  8  9  2  0
  8  2  1  0
 10  8  1  0
 11 10  1  0
 11 12  1  1
 13 14  2  0
 13 12  1  0
 15 14  1  0
 16 15  2  0
 17 16  1  0
 17 18  2  0
 18 13  1  0
 19 26  1  0
 19 11  1  0
 20 19  2  0
 21 22  1  0
 22 23  2  0
 22 24  1  0
 25 24  1  6
 25 26  1  0
 25 27  1  0
 27 29  1  0
 28 27  2  0
M  END
$$$$
