PNA.pdb
     RDKit          3D

 21 21  0  0  1  0  0  0  0  0999 V2000
   24.3440  -12.0358  -15.5729 N   0  0  0  0  0  0  0  0  0  0  0  0
   24.8757  -13.3808  -15.6784 C   0  0  0  0  0  0  0  0  0  0  0  0
   24.2224  -14.0236  -16.8696 C   0  0  0  0  0  0  0  0  0  0  0  0
   23.2276  -13.0071  -17.3241 C   0  0  0  0  0  0  0  0  0  0  0  0
   23.8544  -11.6928  -16.8932 C   0  0  1  0  0  0  0  0  0  0  0  0
   22.8389  -10.6328  -16.8613 C   0  0  0  0  0  0  0  0  0  0  0  0
   22.3522  -10.1954  -17.9320 O   0  0  0  0  0  0  0  0  0  0  0  0
   19.0017   -7.6835  -15.5205 N   0  0  0  0  0  0  0  0  0  0  0  0
   19.0286   -8.8320  -14.6854 C   0  0  0  0  0  0  0  0  0  0  0  0
   18.0241   -9.0927  -13.9992 O   0  0  0  0  0  0  0  0  0  0  0  0
   20.2180   -9.6898  -14.6360 C   0  0  0  0  0  0  0  0  0  0  0  0
   21.3362   -9.1271  -15.5177 C   0  0  2  0  0  0  0  0  0  0  0  0
   22.4009  -10.0970  -15.6402 N   0  0  0  0  0  0  0  0  0  0  0  0
   21.8310   -7.8820  -14.9126 C   0  0  0  0  0  0  0  0  0  0  0  0
   22.2750   -7.8035  -13.7388 O   0  0  0  0  0  0  0  0  0  0  0  0
   22.4898   -4.4744  -16.3539 C   0  0  0  0  0  0  0  0  0  0  0  0
   22.4488   -5.4699  -15.2192 C   0  0  2  0  0  0  0  0  0  0  0  0
   21.8162   -6.6864  -15.6795 N   0  0  0  0  0  0  0  0  0  0  0  0
   21.7286   -4.9098  -14.0506 C   0  0  0  0  0  0  0  0  0  0  0  0
   20.5249   -5.2125  -13.8316 O   0  0  0  0  0  0  0  0  0  0  0  0
   22.3338   -4.0449  -13.1627 O   0  0  0  0  0  0  0  0  0  0  0  0
  2  1  1  0
  3  4  1  0
  3  2  1  0
  4  5  1  0
  5  1  1  0
  5  6  1  1
  6 13  1  0
  7  6  2  0
  9  8  1  0
 10  9  2  0
 11  9  1  0
 12 11  1  1
 12 13  1  0
 12 14  1  0
 14 15  2  0
 14 18  1  0
 17 16  1  6
 17 19  1  0
 18 17  1  0
 19 21  1  0
 20 19  2  0
M  END
$$$$
