PNA.pdb
     RDKit          3D

 21 21  0  0  1  0  0  0  0  0999 V2000
   44.5607  -10.7984   -6.7473 N   0  0  0  0  0  0  0  0  0  0  0  0
   45.6411  -11.5805   -6.1781 C   0  0  0  0  0  0  0  0  0  0  0  0
   45.9857  -12.6518   -7.1743 C   0  0  0  0  0  0  0  0  0  0  0  0
   44.9612  -12.4851   -8.2477 C   0  0  0  0  0  0  0  0  0  0  0  0
   44.6270  -11.0054   -8.1803 C   0  0  1  0  0  0  0  0  0  0  0  0
   43.3460  -10.7436   -8.8485 C   0  0  0  0  0  0  0  0  0  0  0  0
   43.2408  -10.8976  -10.0895 O   0  0  0  0  0  0  0  0  0  0  0  0
   41.1590   -9.6568   -5.9878 N   0  0  0  0  0  0  0  0  0  0  0  0
   40.0510  -10.4313   -6.4231 C   0  0  0  0  0  0  0  0  0  0  0  0
   39.2732  -10.8908   -5.5677 O   0  0  0  0  0  0  0  0  0  0  0  0
   39.8320  -10.6816   -7.8522 C   0  0  0  0  0  0  0  0  0  0  0  0
   40.9357  -10.0382   -8.6963 C   0  0  2  0  0  0  0  0  0  0  0  0
   42.2280  -10.3200   -8.1133 N   0  0  0  0  0  0  0  0  0  0  0  0
   40.6957   -8.5891   -8.7591 C   0  0  0  0  0  0  0  0  0  0  0  0
   41.1331   -7.7708   -7.9105 O   0  0  0  0  0  0  0  0  0  0  0  0
   38.9283   -6.3957  -11.2559 C   0  0  0  0  0  0  0  0  0  0  0  0
   39.6476   -6.6470   -9.9521 C   0  0  2  0  0  0  0  0  0  0  0  0
   39.9282   -8.0607   -9.8313 N   0  0  0  0  0  0  0  0  0  0  0  0
   38.8419   -6.1685   -8.8032 C   0  0  0  0  0  0  0  0  0  0  0  0
   38.1019   -6.9620   -8.1619 O   0  0  0  0  0  0  0  0  0  0  0  0
   38.8649   -4.8528   -8.3897 O   0  0  0  0  0  0  0  0  0  0  0  0
  2  1  1  0
  3  4  1  0
  3  2  1  0
  4  5  1  0
  5  1  1  0
  5  6  1  6
  6 13  1  0
  7  6  2  0
  9  8  1  0
 10  9  2  0
 11  9  1  0
 12 11  1  1
 12 13  1  0
 12 14  1  0
 14 15  2  0
 14 18  1  0
 17 16  1  6
 17 19  1  0
 18 17  1  0
 19 21  1  0
 20 19  2  0
M  END
$$$$
