PNA.pdb
     RDKit          3D

 21 21  0  0  1  0  0  0  0  0999 V2000
   19.2525  -12.3327  -18.7236 N   0  0  0  0  0  0  0  0  0  0  0  0
   19.4548  -13.6723  -19.2406 C   0  0  0  0  0  0  0  0  0  0  0  0
   18.9560  -14.6308  -18.1959 C   0  0  0  0  0  0  0  0  0  0  0  0
   18.5911  -13.7498  -17.0470 C   0  0  0  0  0  0  0  0  0  0  0  0
   18.2124  -12.4424  -17.7202 C   0  0  1  0  0  0  0  0  0  0  0  0
   18.2472  -11.3424  -16.7482 C   0  0  0  0  0  0  0  0  0  0  0  0
   17.3861  -11.2803  -15.8374 O   0  0  0  0  0  0  0  0  0  0  0  0
   19.6909   -7.4517  -13.8429 N   0  0  0  0  0  0  0  0  0  0  0  0
   20.7448   -8.3827  -14.0420 C   0  0  0  0  0  0  0  0  0  0  0  0
   21.7052   -8.3725  -13.2513 O   0  0  0  0  0  0  0  0  0  0  0  0
   20.6978   -9.3343  -15.1578 C   0  0  0  0  0  0  0  0  0  0  0  0
   19.3560   -9.2529  -15.8910 C   0  0  2  0  0  0  0  0  0  0  0  0
   19.2378  -10.3511  -16.8234 N   0  0  0  0  0  0  0  0  0  0  0  0
   19.2801   -7.9626  -16.5914 C   0  0  0  0  0  0  0  0  0  0  0  0
   20.1196   -7.5806  -17.4459 O   0  0  0  0  0  0  0  0  0  0  0  0
   16.5867   -5.3849  -16.8570 C   0  0  0  0  0  0  0  0  0  0  0  0
   18.0197   -5.8349  -17.0134 C   0  0  2  0  0  0  0  0  0  0  0  0
   18.2049   -7.0804  -16.3019 N   0  0  0  0  0  0  0  0  0  0  0  0
   18.9562   -4.7985  -16.5164 C   0  0  0  0  0  0  0  0  0  0  0  0
   19.6735   -5.0131  -15.5025 O   0  0  0  0  0  0  0  0  0  0  0  0
   19.0836   -3.5705  -17.1315 O   0  0  0  0  0  0  0  0  0  0  0  0
  2  1  1  0
  3  4  1  0
  3  2  1  0
  4  5  1  0
  5  1  1  0
  5  6  1  1
  6 13  1  0
  7  6  2  0
  9  8  1  0
 10  9  2  0
 11  9  1  0
 12 11  1  6
 12 13  1  0
 12 14  1  0
 14 15  2  0
 14 18  1  0
 17 16  1  1
 17 19  1  0
 18 17  1  0
 19 21  1  0
 20 19  2  0
M  END
$$$$
