PNA.pdb
     RDKit          3D

 21 21  0  0  1  0  0  0  0  0999 V2000
   26.9777  -18.9643  -14.9779 N   0  0  0  0  0  0  0  0  0  0  0  0
   28.3502  -18.5729  -15.2346 C   0  0  0  0  0  0  0  0  0  0  0  0
   29.1754  -19.8290  -15.2425 C   0  0  0  0  0  0  0  0  0  0  0  0
   28.2054  -20.8968  -14.8575 C   0  0  0  0  0  0  0  0  0  0  0  0
   26.8789  -20.3580  -15.3632 C   0  0  1  0  0  0  0  0  0  0  0  0
   25.7651  -21.0492  -14.7017 C   0  0  0  0  0  0  0  0  0  0  0  0
   25.5023  -22.2412  -14.9933 O   0  0  0  0  0  0  0  0  0  0  0  0
   26.0399  -20.5245  -10.0870 N   0  0  0  0  0  0  0  0  0  0  0  0
   25.1855  -21.2831  -10.9305 C   0  0  0  0  0  0  0  0  0  0  0  0
   25.4693  -22.4746  -11.1485 O   0  0  0  0  0  0  0  0  0  0  0  0
   23.9945  -20.6706  -11.5299 C   0  0  0  0  0  0  0  0  0  0  0  0
   23.8944  -21.0109  -13.0195 C   0  0  2  0  0  0  0  0  0  0  0  0
   24.9834  -20.3907  -13.7398 N   0  0  0  0  0  0  0  0  0  0  0  0
   22.5975  -20.5372  -13.5242 C   0  0  0  0  0  0  0  0  0  0  0  0
   22.1747  -19.3629  -13.3717 O   0  0  0  0  0  0  0  0  0  0  0  0
   20.0751  -21.9918  -15.8616 C   0  0  0  0  0  0  0  0  0  0  0  0
   20.4715  -21.0415  -14.7569 C   0  0  2  0  0  0  0  0  0  0  0  0
   21.7570  -21.4408  -14.2278 N   0  0  0  0  0  0  0  0  0  0  0  0
   19.4449  -21.0168  -13.6875 C   0  0  0  0  0  0  0  0  0  0  0  0
   19.5277  -21.7939  -12.6986 O   0  0  0  0  0  0  0  0  0  0  0  0
   18.3685  -20.1552  -13.7250 O   0  0  0  0  0  0  0  0  0  0  0  0
  2  1  1  0
  3  4  1  0
  3  2  1  0
  4  5  1  0
  5  1  1  0
  5  6  1  1
  6 13  1  0
  7  6  2  0
  9  8  1  0
 10  9  2  0
 11  9  1  0
 12 11  1  1
 12 13  1  0
 12 14  1  0
 14 15  2  0
 14 18  1  0
 17 16  1  6
 17 19  1  0
 18 17  1  0
 19 21  1  0
 20 19  2  0
M  END
$$$$
