PNA.pdb
     RDKit          3D

 21 21  0  0  1  0  0  0  0  0999 V2000
   18.7256   -9.5943  -14.8296 N   0  0  0  0  0  0  0  0  0  0  0  0
   18.3919  -10.9237  -15.3030 C   0  0  0  0  0  0  0  0  0  0  0  0
   16.8926  -11.0104  -15.3609 C   0  0  0  0  0  0  0  0  0  0  0  0
   16.4364   -9.7120  -14.7817 C   0  0  0  0  0  0  0  0  0  0  0  0
   17.5735   -8.7640  -15.1193 C   0  0  1  0  0  0  0  0  0  0  0  0
   17.5090   -7.5702  -14.2669 C   0  0  0  0  0  0  0  0  0  0  0  0
   16.5836   -6.7367  -14.4206 O   0  0  0  0  0  0  0  0  0  0  0  0
   16.1543   -6.3057  -10.9832 N   0  0  0  0  0  0  0  0  0  0  0  0
   17.3390   -6.6407  -10.2752 C   0  0  0  0  0  0  0  0  0  0  0  0
   17.2476   -6.9459   -9.0726 O   0  0  0  0  0  0  0  0  0  0  0  0
   18.6409   -6.6258  -10.9517 C   0  0  0  0  0  0  0  0  0  0  0  0
   18.4949   -6.1864  -12.4112 C   0  0  2  0  0  0  0  0  0  0  0  0
   18.4755   -7.3459  -13.2741 N   0  0  0  0  0  0  0  0  0  0  0  0
   19.6185   -5.3014  -12.7508 C   0  0  0  0  0  0  0  0  0  0  0  0
   19.8076   -4.1769  -12.2209 O   0  0  0  0  0  0  0  0  0  0  0  0
   22.6882   -5.7707  -14.8529 C   0  0  0  0  0  0  0  0  0  0  0  0
   21.7044   -4.9157  -14.0904 C   0  0  2  0  0  0  0  0  0  0  0  0
   20.5572   -5.7201  -13.7314 N   0  0  0  0  0  0  0  0  0  0  0  0
   21.2937   -3.7389  -14.8932 C   0  0  0  0  0  0  0  0  0  0  0  0
   20.2992   -3.8024  -15.6650 O   0  0  0  0  0  0  0  0  0  0  0  0
   21.9708   -2.5387  -14.8332 O   0  0  0  0  0  0  0  0  0  0  0  0
  2  1  1  0
  3  4  1  0
  3  2  1  0
  4  5  1  0
  5  1  1  0
  5  6  1  1
  6 13  1  0
  7  6  2  0
  9  8  1  0
 10  9  2  0
 11  9  1  0
 12 11  1  1
 12 13  1  0
 12 14  1  0
 14 15  2  0
 14 18  1  0
 17 16  1  6
 17 19  1  0
 18 17  1  0
 19 21  1  0
 20 19  2  0
M  END
$$$$
