PNA.pdb
     RDKit          3D

 21 21  0  0  1  0  0  0  0  0999 V2000
   18.1801  -12.8244    5.9371 N   0  0  0  0  0  0  0  0  0  0  0  0
   18.4998  -11.6108    5.2105 C   0  0  0  0  0  0  0  0  0  0  0  0
   19.9842  -11.4044    5.3236 C   0  0  0  0  0  0  0  0  0  0  0  0
   20.4277  -12.4927    6.2446 C   0  0  0  0  0  0  0  0  0  0  0  0
   19.4085  -13.5911    5.9984 C   0  0  1  0  0  0  0  0  0  0  0  0
   19.4197  -14.5519    7.1087 C   0  0  0  0  0  0  0  0  0  0  0  0
   18.7406  -14.3292    8.1402 O   0  0  0  0  0  0  0  0  0  0  0  0
   17.6746  -17.7574    8.0370 N   0  0  0  0  0  0  0  0  0  0  0  0
   18.7064  -18.3441    7.2573 C   0  0  0  0  0  0  0  0  0  0  0  0
   18.3883  -19.0679    6.2967 O   0  0  0  0  0  0  0  0  0  0  0  0
   20.1163  -18.0992    7.5813 C   0  0  0  0  0  0  0  0  0  0  0  0
   20.3173  -16.6772    8.1125 C   0  0  2  0  0  0  0  0  0  0  0  0
   20.1854  -15.7257    7.0324 N   0  0  0  0  0  0  0  0  0  0  0  0
   21.6499  -16.5884    8.7269 C   0  0  0  0  0  0  0  0  0  0  0  0
   22.7237  -16.6048    8.0729 O   0  0  0  0  0  0  0  0  0  0  0  0
   22.8713  -15.6021   12.0858 C   0  0  0  0  0  0  0  0  0  0  0  0
   23.0327  -16.3958   10.8113 C   0  0  2  0  0  0  0  0  0  0  0  0
   21.7546  -16.4771   10.1392 N   0  0  0  0  0  0  0  0  0  0  0  0
   23.5668  -17.7493   11.0958 C   0  0  0  0  0  0  0  0  0  0  0  0
   22.8110  -18.7576   11.0684 O   0  0  0  0  0  0  0  0  0  0  0  0
   24.8952  -17.9640   11.3987 O   0  0  0  0  0  0  0  0  0  0  0  0
  2  1  1  0
  3  4  1  0
  3  2  1  0
  4  5  1  0
  5  1  1  0
  5  6  1  1
  6 13  1  0
  7  6  2  0
  9  8  1  0
 10  9  2  0
 11  9  1  0
 12 11  1  6
 12 13  1  0
 12 14  1  0
 14 15  2  0
 14 18  1  0
 17 16  1  1
 17 19  1  0
 18 17  1  0
 19 21  1  0
 20 19  2  0
M  END
$$$$
