PNA.pdb
     RDKit          3D

 21 21  0  0  1  0  0  0  0  0999 V2000
   41.9994  -11.7920   -9.1091 N   0  0  0  0  0  0  0  0  0  0  0  0
   42.8995  -12.8232   -9.5878 C   0  0  0  0  0  0  0  0  0  0  0  0
   43.1125  -13.7871   -8.4544 C   0  0  0  0  0  0  0  0  0  0  0  0
   42.3851  -13.1608   -7.3107 C   0  0  0  0  0  0  0  0  0  0  0  0
   41.2805  -12.3732   -7.9929 C   0  0  1  0  0  0  0  0  0  0  0  0
   40.7417  -11.3586   -7.0784 C   0  0  0  0  0  0  0  0  0  0  0  0
   40.0003  -11.7008   -6.1255 O   0  0  0  0  0  0  0  0  0  0  0  0
   43.7560   -9.1843   -4.6136 N   0  0  0  0  0  0  0  0  0  0  0  0
   42.3530   -8.9726   -4.6754 C   0  0  0  0  0  0  0  0  0  0  0  0
   41.6383   -9.4544   -3.7782 O   0  0  0  0  0  0  0  0  0  0  0  0
   41.7633   -8.2017   -5.7757 C   0  0  0  0  0  0  0  0  0  0  0  0
   40.5732   -8.9447   -6.3889 C   0  0  2  0  0  0  0  0  0  0  0  0
   41.0464  -10.0001   -7.2560 N   0  0  0  0  0  0  0  0  0  0  0  0
   39.7526   -7.9819   -7.1379 C   0  0  0  0  0  0  0  0  0  0  0  0
   40.0811   -7.5016   -8.2525 O   0  0  0  0  0  0  0  0  0  0  0  0
   36.3592   -6.4811   -6.5065 C   0  0  0  0  0  0  0  0  0  0  0  0
   37.6510   -6.6189   -7.2764 C   0  0  2  0  0  0  0  0  0  0  0  0
   38.5133   -7.5555   -6.5899 N   0  0  0  0  0  0  0  0  0  0  0  0
   38.3171   -5.3034   -7.4308 C   0  0  0  0  0  0  0  0  0  0  0  0
   39.1334   -4.8903   -6.5639 O   0  0  0  0  0  0  0  0  0  0  0  0
   38.0776   -4.4837   -8.5140 O   0  0  0  0  0  0  0  0  0  0  0  0
  2  1  1  0
  3  4  1  0
  3  2  1  0
  4  5  1  0
  5  1  1  0
  5  6  1  1
  6 13  1  0
  7  6  2  0
  9  8  1  0
 10  9  2  0
 11  9  1  0
 12 11  1  6
 12 13  1  0
 12 14  1  0
 14 15  2  0
 14 18  1  0
 17 16  1  1
 17 19  1  0
 18 17  1  0
 19 21  1  0
 20 19  2  0
M  END
$$$$
