PNA.pdb
     RDKit          3D

 21 21  0  0  1  0  0  0  0  0999 V2000
   19.9948  -12.0138  -15.8226 N   0  0  0  0  0  0  0  0  0  0  0  0
   19.6206  -13.4104  -15.9335 C   0  0  0  0  0  0  0  0  0  0  0  0
   18.7604  -13.5431  -17.1588 C   0  0  0  0  0  0  0  0  0  0  0  0
   18.5895  -12.1366  -17.6300 C   0  0  0  0  0  0  0  0  0  0  0  0
   19.8600  -11.4552  -17.1531 C   0  0  1  0  0  0  0  0  0  0  0  0
   19.6794   -9.9981  -17.1383 C   0  0  0  0  0  0  0  0  0  0  0  0
   19.6042   -9.3625  -18.2176 O   0  0  0  0  0  0  0  0  0  0  0  0
   18.7782   -5.2026  -15.6415 N   0  0  0  0  0  0  0  0  0  0  0  0
   17.7851   -6.1150  -15.1962 C   0  0  0  0  0  0  0  0  0  0  0  0
   16.6948   -5.6628  -14.8030 O   0  0  0  0  0  0  0  0  0  0  0  0
   18.0438   -7.5592  -15.2012 C   0  0  0  0  0  0  0  0  0  0  0  0
   19.4073   -7.8693  -15.8250 C   0  0  2  0  0  0  0  0  0  0  0  0
   19.5888   -9.2999  -15.9241 N   0  0  0  0  0  0  0  0  0  0  0  0
   20.4554   -7.2666  -14.9885 C   0  0  0  0  0  0  0  0  0  0  0  0
   20.7434   -7.6673  -13.8320 O   0  0  0  0  0  0  0  0  0  0  0  0
   23.0520   -4.6363  -15.6437 C   0  0  0  0  0  0  0  0  0  0  0  0
   22.2471   -5.5297  -14.7303 C   0  0  2  0  0  0  0  0  0  0  0  0
   21.1983   -6.1671  -15.4956 N   0  0  0  0  0  0  0  0  0  0  0  0
   21.6802   -4.7563  -13.5996 C   0  0  0  0  0  0  0  0  0  0  0  0
   20.4908   -4.3411  -13.6369 O   0  0  0  0  0  0  0  0  0  0  0  0
   22.4173   -4.4601  -12.4720 O   0  0  0  0  0  0  0  0  0  0  0  0
  2  1  1  0
  3  4  1  0
  3  2  1  0
  4  5  1  0
  5  1  1  0
  5  6  1  1
  6 13  1  0
  7  6  2  0
  9  8  1  0
 10  9  2  0
 11  9  1  0
 12 11  1  1
 12 13  1  0
 12 14  1  0
 14 15  2  0
 14 18  1  0
 17 16  1  6
 17 19  1  0
 18 17  1  0
 19 21  1  0
 20 19  2  0
M  END
$$$$
