VDM.pdb
     RDKit          3D

 24 23  0  0  1  0  0  0  0  0999 V2000
    7.1496  -13.3359   21.0896 C   0  0  0  0  0  0  0  0  0  0  0  0
    8.3248  -13.4645   20.1549 C   0  0  2  0  0  0  0  0  0  0  0  0
    8.0341  -12.6461   18.8963 C   0  0  0  0  0  0  0  0  0  0  0  0
    8.5044  -14.9045   19.7681 C   0  0  2  0  0  0  0  0  0  0  0  0
    7.2737  -15.3679   19.1560 N   0  0  0  0  0  0  0  0  0  0  0  0
    8.8743  -15.7521   20.9344 C   0  0  0  0  0  0  0  0  0  0  0  0
    7.9413  -16.1450   21.6840 O   0  0  0  0  0  0  0  0  0  0  0  0
   10.2036  -16.1076   21.2049 N   0  0  0  0  0  0  0  0  0  0  0  0
   10.5607  -16.8972   22.3714 C   0  0  1  0  0  0  0  0  0  0  0  0
   12.0200  -17.3643   22.2352 C   0  0  0  0  0  0  0  0  0  0  0  0
   12.0901  -18.3194   21.1102 C   0  0  0  0  0  0  0  0  0  0  0  0
   11.3342  -19.3221   20.9972 O   0  0  0  0  0  0  0  0  0  0  0  0
   10.5263  -16.0438   23.6029 C   0  0  0  0  0  0  0  0  0  0  0  0
   11.3461  -15.1102   23.7869 O   0  0  0  0  0  0  0  0  0  0  0  0
   13.0409  -18.1062   20.1213 O   0  0  0  0  0  0  0  0  0  0  0  0
    7.0749  -11.4571   25.6277 C   0  0  0  0  0  0  0  0  0  0  0  0
    6.6002  -12.7837   26.7807 S   0  0  0  0  0  0  0  0  0  0  0  0
    8.0399  -13.8852   27.0630 C   0  0  0  0  0  0  0  0  0  0  0  0
    8.2338  -14.6801   25.7858 C   0  0  0  0  0  0  0  0  0  0  0  0
    9.4778  -15.5432   25.8379 C   0  0  2  0  0  0  0  0  0  0  0  0
    9.5345  -16.2989   24.6003 N   0  0  0  0  0  0  0  0  0  0  0  0
    9.3164  -16.4472   27.0194 C   0  0  0  0  0  0  0  0  0  0  0  0
    9.3463  -16.0367   28.1872 O   0  0  0  0  0  0  0  0  0  0  0  0
    9.1281  -17.8016   26.7933 O   0  0  0  0  0  0  0  0  0  0  0  0
  2  3  1  6
  2  1  1  0
  4  2  1  0
  4  5  1  1
  6  7  2  0
  6  4  1  0
  8  6  1  0
  9  8  1  0
  9 10  1  6
 10 11  1  0
 11 12  2  0
 11 15  1  0
 13  9  1  0
 14 13  2  0
 17 16  1  0
 17 18  1  0
 18 19  1  0
 20 19  1  6
 20 21  1  0
 21 13  1  0
 22 20  1  0
 22 24  1  0
 23 22  2  0
M  END
$$$$
