VDM.pdb
     RDKit          3D

 24 23  0  0  1  0  0  0  0  0999 V2000
    9.3792  -12.7570   19.6141 C   0  0  0  0  0  0  0  0  0  0  0  0
    8.1438  -13.4083   19.0474 C   0  0  2  0  0  0  0  0  0  0  0  0
    7.0096  -13.2603   20.0622 C   0  0  0  0  0  0  0  0  0  0  0  0
    8.4053  -14.8696   18.8197 C   0  0  2  0  0  0  0  0  0  0  0  0
    7.2352  -15.4477   18.1868 N   0  0  0  0  0  0  0  0  0  0  0  0
    8.7352  -15.5798   20.0854 C   0  0  0  0  0  0  0  0  0  0  0  0
    7.7801  -15.8631   20.8564 O   0  0  0  0  0  0  0  0  0  0  0  0
   10.0512  -15.9262   20.4239 N   0  0  0  0  0  0  0  0  0  0  0  0
   10.3549  -16.6980   21.6171 C   0  0  1  0  0  0  0  0  0  0  0  0
   11.8093  -17.1928   21.5395 C   0  0  0  0  0  0  0  0  0  0  0  0
   12.0168  -18.1716   22.6265 C   0  0  0  0  0  0  0  0  0  0  0  0
   13.1537  -18.5546   23.0140 O   0  0  0  0  0  0  0  0  0  0  0  0
   10.2947  -15.8192   22.8297 C   0  0  0  0  0  0  0  0  0  0  0  0
   10.9952  -14.7819   22.9334 O   0  0  0  0  0  0  0  0  0  0  0  0
   10.9006  -18.7035   23.2579 O   0  0  0  0  0  0  0  0  0  0  0  0
    6.4399  -11.5282   27.6222 C   0  0  0  0  0  0  0  0  0  0  0  0
    6.5555  -12.6831   26.2196 S   0  0  0  0  0  0  0  0  0  0  0  0
    8.0719  -13.7005   26.3956 C   0  0  0  0  0  0  0  0  0  0  0  0
    8.1876  -14.5276   25.1294 C   0  0  0  0  0  0  0  0  0  0  0  0
    9.4007  -15.4348   25.1531 C   0  0  2  0  0  0  0  0  0  0  0  0
    9.4175  -16.1706   23.9023 N   0  0  0  0  0  0  0  0  0  0  0  0
    9.2198  -16.3527   26.3209 C   0  0  0  0  0  0  0  0  0  0  0  0
    8.8448  -17.5266   26.1997 O   0  0  0  0  0  0  0  0  0  0  0  0
    9.4817  -15.8641   27.5912 O   0  0  0  0  0  0  0  0  0  0  0  0
  2  3  1  1
  2  1  1  0
  4  2  1  0
  4  5  1  1
  6  7  2  0
  6  4  1  0
  8  6  1  0
  9  8  1  0
  9 10  1  6
 10 11  1  0
 11 12  2  0
 11 15  1  0
 13  9  1  0
 14 13  2  0
 17 16  1  0
 17 18  1  0
 18 19  1  0
 20 19  1  6
 20 21  1  0
 21 13  1  0
 22 20  1  0
 22 24  1  0
 23 22  2  0
M  END
$$$$
