VDM.pdb
     RDKit          3D

 24 23  0  0  1  0  0  0  0  0999 V2000
    7.4911  -12.3516   18.7946 C   0  0  0  0  0  0  0  0  0  0  0  0
    7.7073  -13.3470   19.9054 C   0  0  2  0  0  0  0  0  0  0  0  0
    8.6213  -12.7116   20.9538 C   0  0  0  0  0  0  0  0  0  0  0  0
    8.3760  -14.5748   19.3571 C   0  0  2  0  0  0  0  0  0  0  0  0
    7.5002  -15.1637   18.3621 N   0  0  0  0  0  0  0  0  0  0  0  0
    8.7048  -15.5548   20.4280 C   0  0  0  0  0  0  0  0  0  0  0  0
    7.7640  -16.2656   20.8714 O   0  0  0  0  0  0  0  0  0  0  0  0
   10.0041  -15.6941   20.9369 N   0  0  0  0  0  0  0  0  0  0  0  0
   10.3123  -16.6408   21.9954 C   0  0  1  0  0  0  0  0  0  0  0  0
   11.7497  -17.1555   21.8071 C   0  0  0  0  0  0  0  0  0  0  0  0
   12.0060  -18.1805   22.8397 C   0  0  0  0  0  0  0  0  0  0  0  0
   12.6306  -17.9519   23.9108 O   0  0  0  0  0  0  0  0  0  0  0  0
   10.3052  -15.9493   23.3249 C   0  0  0  0  0  0  0  0  0  0  0  0
   11.1594  -15.0789   23.6253 O   0  0  0  0  0  0  0  0  0  0  0  0
   11.5369  -19.4689   22.6220 O   0  0  0  0  0  0  0  0  0  0  0  0
    6.5682  -11.2165   26.8781 C   0  0  0  0  0  0  0  0  0  0  0  0
    6.4717  -13.0022   26.5368 S   0  0  0  0  0  0  0  0  0  0  0  0
    8.1606  -13.6549   26.2415 C   0  0  0  0  0  0  0  0  0  0  0  0
    8.0053  -15.1302   25.9248 C   0  0  0  0  0  0  0  0  0  0  0  0
    9.3382  -15.7940   25.6457 C   0  0  2  0  0  0  0  0  0  0  0  0
    9.2996  -16.2897   24.2823 N   0  0  0  0  0  0  0  0  0  0  0  0
    9.4662  -16.9155   26.6280 C   0  0  0  0  0  0  0  0  0  0  0  0
    9.5972  -16.7296   27.8452 O   0  0  0  0  0  0  0  0  0  0  0  0
    9.4389  -18.2167   26.1514 O   0  0  0  0  0  0  0  0  0  0  0  0
  2  3  1  1
  2  1  1  0
  4  2  1  0
  4  5  1  6
  6  7  2  0
  6  4  1  0
  8  6  1  0
  9  8  1  0
  9 10  1  6
 10 11  1  0
 11 12  2  0
 11 15  1  0
 13  9  1  0
 14 13  2  0
 17 16  1  0
 17 18  1  0
 18 19  1  0
 20 19  1  1
 20 21  1  0
 21 13  1  0
 22 20  1  0
 22 24  1  0
 23 22  2  0
M  END
$$$$
