VDM.pdb
     RDKit          3D

 24 23  0  0  1  0  0  0  0  0999 V2000
    7.4097  -13.2692   20.6451 C   0  0  0  0  0  0  0  0  0  0  0  0
    8.5041  -13.4346   19.6221 C   0  0  2  0  0  0  0  0  0  0  0  0
    8.1623  -12.5751   18.4044 C   0  0  0  0  0  0  0  0  0  0  0  0
    8.5812  -14.8727   19.1964 C   0  0  2  0  0  0  0  0  0  0  0  0
    7.3251  -15.2277   18.5639 N   0  0  0  0  0  0  0  0  0  0  0  0
    8.8787  -15.7768   20.3407 C   0  0  0  0  0  0  0  0  0  0  0  0
    7.9042  -16.1760   21.0319 O   0  0  0  0  0  0  0  0  0  0  0  0
   10.1857  -16.1772   20.6534 N   0  0  0  0  0  0  0  0  0  0  0  0
   10.4804  -16.9639   21.8392 C   0  0  1  0  0  0  0  0  0  0  0  0
   11.9035  -17.5362   21.7223 C   0  0  0  0  0  0  0  0  0  0  0  0
   12.1436  -18.4042   22.8934 C   0  0  0  0  0  0  0  0  0  0  0  0
   13.0075  -18.1598   23.7786 O   0  0  0  0  0  0  0  0  0  0  0  0
   10.5011  -16.0828   23.0513 C   0  0  0  0  0  0  0  0  0  0  0  0
   11.3006  -15.1202   23.1590 O   0  0  0  0  0  0  0  0  0  0  0  0
   11.3794  -19.5553   23.0298 O   0  0  0  0  0  0  0  0  0  0  0  0
    6.3650  -11.4859   27.3054 C   0  0  0  0  0  0  0  0  0  0  0  0
    6.4939  -12.8550   26.1122 S   0  0  0  0  0  0  0  0  0  0  0  0
    8.0878  -13.7285   26.3619 C   0  0  0  0  0  0  0  0  0  0  0  0
    8.2313  -14.7049   25.2100 C   0  0  0  0  0  0  0  0  0  0  0  0
    9.5188  -15.4987   25.2962 C   0  0  2  0  0  0  0  0  0  0  0  0
    9.5872  -16.3447   24.1190 N   0  0  0  0  0  0  0  0  0  0  0  0
    9.4298  -16.3149   26.5472 C   0  0  0  0  0  0  0  0  0  0  0  0
    9.0273  -17.4858   26.5571 O   0  0  0  0  0  0  0  0  0  0  0  0
    9.8128  -15.7313   27.7446 O   0  0  0  0  0  0  0  0  0  0  0  0
  2  3  1  6
  2  1  1  0
  4  2  1  0
  4  5  1  1
  6  7  2  0
  6  4  1  0
  8  6  1  0
  9  8  1  0
  9 10  1  6
 10 11  1  0
 11 12  2  0
 11 15  1  0
 13  9  1  0
 14 13  2  0
 17 16  1  0
 17 18  1  0
 18 19  1  0
 20 19  1  6
 20 21  1  0
 21 13  1  0
 22 20  1  0
 22 24  1  0
 23 22  2  0
M  END
$$$$
