VDM.pdb
     RDKit          3D

 24 23  0  0  1  0  0  0  0  0999 V2000
    9.2046  -12.5453   19.9171 C   0  0  0  0  0  0  0  0  0  0  0  0
    8.1227  -13.2351   19.1264 C   0  0  2  0  0  0  0  0  0  0  0  0
    6.8574  -13.2905   19.9832 C   0  0  0  0  0  0  0  0  0  0  0  0
    8.5528  -14.6371   18.8026 C   0  0  2  0  0  0  0  0  0  0  0  0
    7.5206  -15.2535   17.9912 N   0  0  0  0  0  0  0  0  0  0  0  0
    8.8168  -15.4359   20.0305 C   0  0  0  0  0  0  0  0  0  0  0  0
    7.8229  -15.9375   20.6199 O   0  0  0  0  0  0  0  0  0  0  0  0
   10.1134  -15.6315   20.5275 N   0  0  0  0  0  0  0  0  0  0  0  0
   10.3685  -16.4683   21.6877 C   0  0  1  0  0  0  0  0  0  0  0  0
   11.8564  -16.8580   21.7097 C   0  0  0  0  0  0  0  0  0  0  0  0
   12.0739  -17.7633   22.8567 C   0  0  0  0  0  0  0  0  0  0  0  0
   11.2551  -18.6556   23.2073 O   0  0  0  0  0  0  0  0  0  0  0  0
   10.1397  -15.6887   22.9471 C   0  0  0  0  0  0  0  0  0  0  0  0
   10.7768  -14.6367   23.2017 O   0  0  0  0  0  0  0  0  0  0  0  0
   13.2425  -17.6263   23.5936 O   0  0  0  0  0  0  0  0  0  0  0  0
    6.8327  -11.4733   27.3436 C   0  0  0  0  0  0  0  0  0  0  0  0
    7.2421  -12.4576   25.8678 S   0  0  0  0  0  0  0  0  0  0  0  0
    6.9329  -14.2317   26.2177 C   0  0  0  0  0  0  0  0  0  0  0  0
    7.3910  -15.0007   24.9930 C   0  0  0  0  0  0  0  0  0  0  0  0
    8.8469  -15.4081   25.0907 C   0  0  2  0  0  0  0  0  0  0  0  0
    9.1706  -16.1547   23.8891 N   0  0  0  0  0  0  0  0  0  0  0  0
    8.9654  -16.2655   26.3113 C   0  0  0  0  0  0  0  0  0  0  0  0
    8.8401  -17.4970   26.2809 O   0  0  0  0  0  0  0  0  0  0  0  0
    9.2240  -15.6514   27.5266 O   0  0  0  0  0  0  0  0  0  0  0  0
  2  3  1  1
  2  1  1  0
  4  2  1  0
  4  5  1  1
  6  7  2  0
  6  4  1  0
  8  6  1  0
  9  8  1  0
  9 10  1  6
 10 11  1  0
 11 12  2  0
 11 15  1  0
 13  9  1  0
 14 13  2  0
 17 16  1  0
 17 18  1  0
 18 19  1  0
 20 19  1  6
 20 21  1  0
 21 13  1  0
 22 20  1  0
 22 24  1  0
 23 22  2  0
M  END
$$$$
