VDM.pdb
     RDKit          3D

 24 23  0  0  1  0  0  0  0  0999 V2000
    7.7129  -14.7096   18.4635 C   0  0  0  0  0  0  0  0  0  0  0  0
    7.9100  -13.4627   19.2867 C   0  0  2  0  0  0  0  0  0  0  0  0
    8.0430  -12.2716   18.3370 C   0  0  0  0  0  0  0  0  0  0  0  0
    9.1716  -13.5860   20.0920 C   0  0  2  0  0  0  0  0  0  0  0  0
   10.2671  -13.8605   19.1817 N   0  0  0  0  0  0  0  0  0  0  0  0
    9.0650  -14.6423   21.1352 C   0  0  0  0  0  0  0  0  0  0  0  0
    8.0970  -14.5680   21.9378 O   0  0  0  0  0  0  0  0  0  0  0  0
    9.9968  -15.6852   21.2372 N   0  0  0  0  0  0  0  0  0  0  0  0
    9.8523  -16.7452   22.2206 C   0  0  1  0  0  0  0  0  0  0  0  0
   10.9312  -17.8130   21.9718 C   0  0  0  0  0  0  0  0  0  0  0  0
   10.5912  -18.5221   20.7211 C   0  0  0  0  0  0  0  0  0  0  0  0
    9.4914  -19.1071   20.5267 O   0  0  0  0  0  0  0  0  0  0  0  0
   10.1233  -16.2143   23.5957 C   0  0  0  0  0  0  0  0  0  0  0  0
   11.2455  -15.7528   23.9199 O   0  0  0  0  0  0  0  0  0  0  0  0
   11.5327  -18.5504   19.7012 O   0  0  0  0  0  0  0  0  0  0  0  0
    6.4181  -11.1740   26.6103 C   0  0  0  0  0  0  0  0  0  0  0  0
    6.4331  -12.9874   26.7712 S   0  0  0  0  0  0  0  0  0  0  0  0
    8.0507  -13.6336   26.1957 C   0  0  0  0  0  0  0  0  0  0  0  0
    8.0181  -15.1349   26.4098 C   0  0  0  0  0  0  0  0  0  0  0  0
    9.2933  -15.8032   25.9382 C   0  0  2  0  0  0  0  0  0  0  0  0
    9.0771  -16.2349   24.5696 N   0  0  0  0  0  0  0  0  0  0  0  0
    9.5203  -16.9704   26.8465 C   0  0  0  0  0  0  0  0  0  0  0  0
    9.2385  -18.1332   26.5279 O   0  0  0  0  0  0  0  0  0  0  0  0
   10.0672  -16.7360   28.0983 O   0  0  0  0  0  0  0  0  0  0  0  0
  2  3  1  6
  2  1  1  0
  4  2  1  0
  4  5  1  6
  6  7  2  0
  6  4  1  0
  8  6  1  0
  9  8  1  0
  9 10  1  6
 10 11  1  0
 11 12  2  0
 11 15  1  0
 13  9  1  0
 14 13  2  0
 17 16  1  0
 17 18  1  0
 18 19  1  0
 20 19  1  1
 20 21  1  0
 21 13  1  0
 22 20  1  0
 22 24  1  0
 23 22  2  0
M  END
$$$$
