VDM.pdb
     RDKit          3D

 24 23  0  0  1  0  0  0  0  0999 V2000
    7.1339  -13.0686   21.6232 C   0  0  0  0  0  0  0  0  0  0  0  0
    8.0605  -13.3339   20.4646 C   0  0  2  0  0  0  0  0  0  0  0  0
    7.6086  -12.4815   19.2782 C   0  0  0  0  0  0  0  0  0  0  0  0
    7.9823  -14.7835   20.0799 C   0  0  2  0  0  0  0  0  0  0  0  0
    6.6344  -15.0602   19.6212 N   0  0  0  0  0  0  0  0  0  0  0  0
    8.3587  -15.6796   21.2072 C   0  0  0  0  0  0  0  0  0  0  0  0
    7.4383  -16.0544   21.9813 O   0  0  0  0  0  0  0  0  0  0  0  0
    9.6805  -16.0988   21.4162 N   0  0  0  0  0  0  0  0  0  0  0  0
   10.0358  -16.9890   22.5084 C   0  0  1  0  0  0  0  0  0  0  0  0
   11.4086  -17.6191   22.2175 C   0  0  0  0  0  0  0  0  0  0  0  0
   11.2252  -18.6514   21.1767 C   0  0  0  0  0  0  0  0  0  0  0  0
   10.3027  -19.5105   21.1998 O   0  0  0  0  0  0  0  0  0  0  0  0
   10.2137  -16.2073   23.7746 C   0  0  0  0  0  0  0  0  0  0  0  0
   11.0929  -15.3175   23.8877 O   0  0  0  0  0  0  0  0  0  0  0  0
   12.1171  -18.6825   20.1132 O   0  0  0  0  0  0  0  0  0  0  0  0
    7.0029  -11.1021   26.3259 C   0  0  0  0  0  0  0  0  0  0  0  0
    6.9539  -12.8646   26.7794 S   0  0  0  0  0  0  0  0  0  0  0  0
    8.4652  -13.6941   26.1519 C   0  0  0  0  0  0  0  0  0  0  0  0
    8.3888  -15.1378   26.6110 C   0  0  0  0  0  0  0  0  0  0  0  0
    9.6164  -15.9278   26.2057 C   0  0  2  0  0  0  0  0  0  0  0  0
    9.3613  -16.4818   24.8889 N   0  0  0  0  0  0  0  0  0  0  0  0
    9.7802  -17.0087   27.2274 C   0  0  0  0  0  0  0  0  0  0  0  0
    9.4802  -18.1899   27.0084 O   0  0  0  0  0  0  0  0  0  0  0  0
   10.2875  -16.6693   28.4718 O   0  0  0  0  0  0  0  0  0  0  0  0
  2  3  1  6
  2  1  1  0
  4  2  1  0
  4  5  1  1
  6  7  2  0
  6  4  1  0
  8  6  1  0
  9  8  1  0
  9 10  1  6
 10 11  1  0
 11 12  2  0
 11 15  1  0
 13  9  1  0
 14 13  2  0
 17 16  1  0
 17 18  1  0
 18 19  1  0
 20 19  1  1
 20 21  1  0
 21 13  1  0
 22 20  1  0
 22 24  1  0
 23 22  2  0
M  END
$$$$
