VDM.pdb
     RDKit          3D

 24 23  0  0  1  0  0  0  0  0999 V2000
    7.7164  -14.3358   26.8608 C   0  0  0  0  0  0  0  0  0  0  0  0
    7.2821  -13.8428   25.5044 C   0  0  2  0  0  0  0  0  0  0  0  0
    6.1240  -12.8625   25.6937 C   0  0  0  0  0  0  0  0  0  0  0  0
    6.8077  -15.0023   24.6762 C   0  0  2  0  0  0  0  0  0  0  0  0
    5.8186  -15.7348   25.4437 N   0  0  0  0  0  0  0  0  0  0  0  0
    7.9303  -15.8889   24.2651 C   0  0  0  0  0  0  0  0  0  0  0  0
    7.9031  -17.0823   24.6675 O   0  0  0  0  0  0  0  0  0  0  0  0
    8.9860  -15.4310   23.4637 N   0  0  0  0  0  0  0  0  0  0  0  0
   10.0027  -16.3338   22.9508 C   0  0  1  0  0  0  0  0  0  0  0  0
   10.8549  -15.5910   21.9075 C   0  0  0  0  0  0  0  0  0  0  0  0
   11.7754  -16.5685   21.2911 C   0  0  0  0  0  0  0  0  0  0  0  0
   11.4445  -17.7481   20.9934 O   0  0  0  0  0  0  0  0  0  0  0  0
   10.9525  -16.7170   24.0449 C   0  0  0  0  0  0  0  0  0  0  0  0
   11.9998  -17.3713   23.8160 O   0  0  0  0  0  0  0  0  0  0  0  0
   13.0788  -16.1711   21.0250 O   0  0  0  0  0  0  0  0  0  0  0  0
   10.2037  -12.0360   28.9443 C   0  0  0  0  0  0  0  0  0  0  0  0
   10.4231  -13.8318   29.1482 S   0  0  0  0  0  0  0  0  0  0  0  0
   10.9390  -14.5649   27.5476 C   0  0  0  0  0  0  0  0  0  0  0  0
   10.9608  -16.0684   27.7471 C   0  0  0  0  0  0  0  0  0  0  0  0
   11.4507  -16.7975   26.5128 C   0  0  2  0  0  0  0  0  0  0  0  0
   10.6594  -16.3303   25.3895 N   0  0  0  0  0  0  0  0  0  0  0  0
   11.2270  -18.2552   26.7658 C   0  0  0  0  0  0  0  0  0  0  0  0
   10.3724  -18.9175   26.1621 O   0  0  0  0  0  0  0  0  0  0  0  0
   12.0098  -18.8875   27.7189 O   0  0  0  0  0  0  0  0  0  0  0  0
  2  3  1  1
  2  1  1  0
  4  2  1  0
  4  5  1  1
  6  7  2  0
  6  4  1  0
  8  6  1  0
  9  8  1  0
  9 10  1  6
 10 11  1  0
 11 12  2  0
 11 15  1  0
 13  9  1  0
 14 13  2  0
 17 16  1  0
 17 18  1  0
 18 19  1  0
 20 19  1  1
 20 21  1  0
 21 13  1  0
 22 20  1  0
 22 24  1  0
 23 22  2  0
M  END
$$$$
