VDM.pdb
     RDKit          3D

 24 23  0  0  1  0  0  0  0  0999 V2000
    6.8471  -13.0064   20.2302 C   0  0  0  0  0  0  0  0  0  0  0  0
    7.5139  -13.9494   21.1985 C   0  0  2  0  0  0  0  0  0  0  0  0
    8.3685  -13.1274   22.1641 C   0  0  0  0  0  0  0  0  0  0  0  0
    8.4043  -14.8961   20.4460 C   0  0  2  0  0  0  0  0  0  0  0  0
    7.6100  -15.5536   19.4259 N   0  0  0  0  0  0  0  0  0  0  0  0
    9.0475  -15.8907   21.3474 C   0  0  0  0  0  0  0  0  0  0  0  0
    8.3976  -16.9365   21.6135 O   0  0  0  0  0  0  0  0  0  0  0  0
   10.3245  -15.6879   21.8900 N   0  0  0  0  0  0  0  0  0  0  0  0
   11.0109  -16.7281   22.6373 C   0  0  1  0  0  0  0  0  0  0  0  0
   12.5024  -16.3678   22.7471 C   0  0  0  0  0  0  0  0  0  0  0  0
   13.2030  -16.9695   21.5940 C   0  0  0  0  0  0  0  0  0  0  0  0
   12.8261  -18.0283   21.0225 O   0  0  0  0  0  0  0  0  0  0  0  0
   10.5042  -16.7711   24.0470 C   0  0  0  0  0  0  0  0  0  0  0  0
   10.7868  -17.7152   24.8257 O   0  0  0  0  0  0  0  0  0  0  0  0
   14.3415  -16.3388   21.1106 O   0  0  0  0  0  0  0  0  0  0  0  0
    5.4428  -11.6541   25.8544 C   0  0  0  0  0  0  0  0  0  0  0  0
    7.0585  -12.2323   26.4627 S   0  0  0  0  0  0  0  0  0  0  0  0
    7.4795  -13.8212   25.6481 C   0  0  0  0  0  0  0  0  0  0  0  0
    8.8150  -14.2594   26.2184 C   0  0  0  0  0  0  0  0  0  0  0  0
    9.1361  -15.6984   25.8700 C   0  0  2  0  0  0  0  0  0  0  0  0
    9.6725  -15.7096   24.5215 N   0  0  0  0  0  0  0  0  0  0  0  0
    7.8450  -16.4507   25.9472 C   0  0  0  0  0  0  0  0  0  0  0  0
    7.2535  -16.6604   27.0146 O   0  0  0  0  0  0  0  0  0  0  0  0
    7.2914  -16.9341   24.7721 O   0  0  0  0  0  0  0  0  0  0  0  0
  2  3  1  1
  2  1  1  0
  4  2  1  0
  4  5  1  6
  6  7  2  0
  6  4  1  0
  8  6  1  0
  9  8  1  0
  9 10  1  1
 10 11  1  0
 11 12  2  0
 11 15  1  0
 13  9  1  0
 14 13  2  0
 17 16  1  0
 17 18  1  0
 18 19  1  0
 20 19  1  6
 20 21  1  0
 21 13  1  0
 22 20  1  0
 22 24  1  0
 23 22  2  0
M  END
$$$$
