VVD.pdb
     RDKit          3D

 23 22  0  0  1  0  0  0  0  0999 V2000
    6.5992  -11.4246   27.6037 C   0  0  0  0  0  0  0  0  0  0  0  0
    7.2006  -12.5801   26.8623 C   0  0  2  0  0  0  0  0  0  0  0  0
    8.3425  -12.0912   26.0033 C   0  0  0  0  0  0  0  0  0  0  0  0
    6.2210  -13.2923   25.9763 C   0  0  2  0  0  0  0  0  0  0  0  0
    5.0994  -13.8328   26.6852 N   0  0  0  0  0  0  0  0  0  0  0  0
    6.8480  -14.3583   25.1621 C   0  0  0  0  0  0  0  0  0  0  0  0
    6.9069  -15.5084   25.6596 O   0  0  0  0  0  0  0  0  0  0  0  0
    6.8303  -14.6363   20.9987 C   0  0  0  0  0  0  0  0  0  0  0  0
    8.1975  -14.7952   21.6465 C   0  0  2  0  0  0  0  0  0  0  0  0
    8.9454  -15.8464   20.8703 C   0  0  0  0  0  0  0  0  0  0  0  0
    8.0914  -15.1201   23.1081 C   0  0  2  0  0  0  0  0  0  0  0  0
    7.3775  -14.1477   23.8681 N   0  0  0  0  0  0  0  0  0  0  0  0
    9.4127  -15.4738   23.7007 C   0  0  0  0  0  0  0  0  0  0  0  0
   10.3041  -14.6221   23.9549 O   0  0  0  0  0  0  0  0  0  0  0  0
    9.7463  -16.8198   24.0179 N   0  0  0  0  0  0  0  0  0  0  0  0
   11.0390  -17.1745   24.6355 C   0  0  1  0  0  0  0  0  0  0  0  0
   10.7980  -18.3220   25.5693 C   0  0  0  0  0  0  0  0  0  0  0  0
   11.9937  -18.8479   26.2130 C   0  0  0  0  0  0  0  0  0  0  0  0
   13.1318  -18.4052   25.9671 O   0  0  0  0  0  0  0  0  0  0  0  0
   11.9206  -17.5928   23.5156 C   0  0  0  0  0  0  0  0  0  0  0  0
   11.5658  -18.3228   22.5669 O   0  0  0  0  0  0  0  0  0  0  0  0
   11.8723  -19.8778   27.1337 O   0  0  0  0  0  0  0  0  0  0  0  0
   13.2468  -17.1619   23.4819 O   0  0  0  0  0  0  0  0  0  0  0  0
  2  3  1  6
  2  1  1  0
  4  2  1  0
  4  5  1  1
  6  7  2  0
  6  4  1  0
  9  8  1  6
  9 11  1  0
 10  9  1  0
 11 12  1  1
 12  6  1  0
 13 15  1  0
 13 11  1  0
 14 13  2  0
 16 15  1  0
 16 20  1  0
 17 18  1  0
 16 17  1  1
 18 19  2  0
 20 21  2  0
 20 23  1  0
 22 18  1  0
M  END
$$$$
