VVD.pdb
     RDKit          3D

 23 22  0  0  1  0  0  0  0  0999 V2000
    7.6722  -20.6536   23.5317 C   0  0  0  0  0  0  0  0  0  0  0  0
    6.3191  -20.0142   23.4504 C   0  0  2  0  0  0  0  0  0  0  0  0
    5.2519  -21.0562   23.6874 C   0  0  0  0  0  0  0  0  0  0  0  0
    6.0490  -19.3613   22.1266 C   0  0  2  0  0  0  0  0  0  0  0  0
    5.9798  -20.2889   21.0369 N   0  0  0  0  0  0  0  0  0  0  0  0
    7.0205  -18.2923   21.8012 C   0  0  0  0  0  0  0  0  0  0  0  0
    7.9684  -18.5850   21.0333 O   0  0  0  0  0  0  0  0  0  0  0  0
    6.3460  -14.3086   21.1056 C   0  0  0  0  0  0  0  0  0  0  0  0
    7.3852  -14.5641   22.1868 C   0  0  2  0  0  0  0  0  0  0  0  0
    8.4598  -13.5205   22.0356 C   0  0  0  0  0  0  0  0  0  0  0  0
    7.9242  -15.9638   22.1271 C   0  0  2  0  0  0  0  0  0  0  0  0
    6.9348  -16.9744   22.3064 N   0  0  0  0  0  0  0  0  0  0  0  0
    9.1136  -16.1439   23.0075 C   0  0  0  0  0  0  0  0  0  0  0  0
    9.0582  -16.0749   24.2632 O   0  0  0  0  0  0  0  0  0  0  0  0
   10.4025  -16.4088   22.4670 N   0  0  0  0  0  0  0  0  0  0  0  0
   11.5731  -16.6501   23.3330 C   0  0  1  0  0  0  0  0  0  0  0  0
   11.6872  -18.1299   23.5426 C   0  0  0  0  0  0  0  0  0  0  0  0
   12.3573  -18.5230   24.7743 C   0  0  0  0  0  0  0  0  0  0  0  0
   12.8254  -17.6895   25.5729 O   0  0  0  0  0  0  0  0  0  0  0  0
   12.7462  -16.1407   22.5777 C   0  0  0  0  0  0  0  0  0  0  0  0
   13.8457  -15.8433   23.0891 O   0  0  0  0  0  0  0  0  0  0  0  0
   12.4841  -19.8701   25.0784 O   0  0  0  0  0  0  0  0  0  0  0  0
   12.6568  -15.9672   21.1966 O   0  0  0  0  0  0  0  0  0  0  0  0
  2  3  1  6
  2  1  1  0
  4  2  1  0
  4  5  1  6
  6  7  2  0
  6  4  1  0
  9  8  1  6
  9 11  1  0
 10  9  1  0
 11 12  1  1
 12  6  1  0
 13 15  1  0
 13 11  1  0
 14 13  2  0
 16 15  1  0
 16 20  1  0
 17 18  1  0
 16 17  1  6
 18 19  2  0
 20 21  2  0
 20 23  1  0
 22 18  1  0
M  END
$$$$
