VVD.pdb
     RDKit          3D

 23 22  0  0  1  0  0  0  0  0999 V2000
   11.3658  -15.4719   30.0123 C   0  0  0  0  0  0  0  0  0  0  0  0
   10.6226  -15.3259   28.7189 C   0  0  2  0  0  0  0  0  0  0  0  0
   10.4625  -13.8607   28.3898 C   0  0  0  0  0  0  0  0  0  0  0  0
    9.2587  -15.9511   28.7436 C   0  0  2  0  0  0  0  0  0  0  0  0
    9.2706  -17.3306   29.1303 N   0  0  0  0  0  0  0  0  0  0  0  0
    8.5341  -15.8066   27.4603 C   0  0  0  0  0  0  0  0  0  0  0  0
    8.1069  -16.8527   26.9152 O   0  0  0  0  0  0  0  0  0  0  0  0
    6.3020  -12.3756   26.2089 C   0  0  0  0  0  0  0  0  0  0  0  0
    7.3168  -12.9679   25.2427 C   0  0  2  0  0  0  0  0  0  0  0  0
    6.7640  -12.8056   23.8518 C   0  0  0  0  0  0  0  0  0  0  0  0
    7.6405  -14.3956   25.5748 C   0  0  2  0  0  0  0  0  0  0  0  0
    8.3026  -14.5643   26.8260 N   0  0  0  0  0  0  0  0  0  0  0  0
    8.3270  -15.0907   24.4488 C   0  0  0  0  0  0  0  0  0  0  0  0
    7.7500  -15.3938   23.3719 O   0  0  0  0  0  0  0  0  0  0  0  0
    9.6991  -15.4572   24.5304 N   0  0  0  0  0  0  0  0  0  0  0  0
   10.3794  -16.1688   23.4308 C   0  0  1  0  0  0  0  0  0  0  0  0
   11.5207  -15.3126   22.9715 C   0  0  0  0  0  0  0  0  0  0  0  0
   12.3475  -15.9038   21.9287 C   0  0  0  0  0  0  0  0  0  0  0  0
   12.0981  -17.0193   21.4335 O   0  0  0  0  0  0  0  0  0  0  0  0
   10.8848  -17.4350   24.0206 C   0  0  0  0  0  0  0  0  0  0  0  0
   10.8330  -17.7236   25.2342 O   0  0  0  0  0  0  0  0  0  0  0  0
   13.4539  -15.2091   21.4635 O   0  0  0  0  0  0  0  0  0  0  0  0
   11.4661  -18.3980   23.1958 O   0  0  0  0  0  0  0  0  0  0  0  0
  2  3  1  1
  2  1  1  0
  4  2  1  0
  4  5  1  6
  6  7  2  0
  6  4  1  0
  9  8  1  1
  9 11  1  0
 10  9  1  0
 11 12  1  1
 12  6  1  0
 13 15  1  0
 13 11  1  0
 14 13  2  0
 16 15  1  0
 16 20  1  0
 17 18  1  0
 16 17  1  1
 18 19  2  0
 20 21  2  0
 20 23  1  0
 22 18  1  0
M  END
$$$$
