RYD.pdb
     RDKit          3D

 32 32  0  0  1  0  0  0  0  0999 V2000
   20.3387  -13.4956  -19.2066 N   0  0  0  0  0  0  0  0  0  0  0  0
   20.3661  -13.0953  -20.5611 C   0  0  0  0  0  0  0  0  0  0  0  0
   19.2794  -12.9170  -21.2088 N   0  0  0  0  0  0  0  0  0  0  0  0
   21.6137  -12.8824  -21.2331 N   0  0  0  0  0  0  0  0  0  0  0  0
   22.8765  -13.1992  -20.5997 C   0  0  0  0  0  0  0  0  0  0  0  0
   23.9841  -12.8832  -21.5945 C   0  0  0  0  0  0  0  0  0  0  0  0
   24.0891  -11.4026  -21.8437 C   0  0  0  0  0  0  0  0  0  0  0  0
   25.1798  -10.7273  -21.0858 C   0  0  2  0  0  0  0  0  0  0  0  0
   26.1955  -11.7544  -20.8179 N   0  0  0  0  0  0  0  0  0  0  0  0
   24.7573  -10.0674  -19.8396 C   0  0  0  0  0  0  0  0  0  0  0  0
   24.7355  -10.5895  -18.7194 O   0  0  0  0  0  0  0  0  0  0  0  0
   19.2242  -12.6940  -22.2149 O   0  0  0  0  0  0  0  0  0  0  0  0
   22.4630   -3.3563  -14.5304 C   0  0  0  0  0  0  0  0  0  0  0  0
   23.0132   -4.1850  -15.5075 C   0  0  0  0  0  0  0  0  0  0  0  0
   23.6798   -5.3555  -15.1672 C   0  0  0  0  0  0  0  0  0  0  0  0
   24.2168   -6.1609  -16.1562 C   0  0  0  0  0  0  0  0  0  0  0  0
   24.1071   -5.8295  -17.4827 C   0  0  0  0  0  0  0  0  0  0  0  0
   24.6856   -6.7013  -18.5127 C   0  0  1  0  0  0  0  0  0  0  0  0
   23.9132   -7.9583  -18.7605 N   0  0  0  0  0  0  0  0  0  0  0  0
   24.3304   -8.7027  -19.9031 C   0  0  0  0  0  0  0  0  0  0  0  0
   22.4533   -7.7547  -18.7966 O   0  0  0  0  0  0  0  0  0  0  0  0
   21.8113   -7.3684  -19.8086 C   0  0  0  0  0  0  0  0  0  0  0  0
   23.4546   -4.6814  -17.8372 C   0  0  0  0  0  0  0  0  0  0  0  0
   22.9187   -3.8776  -16.8533 N   0  0  0  0  0  0  0  0  0  0  0  0
   21.6732   -8.0002  -17.6269 C   0  0  1  0  0  0  0  0  0  0  0  0
   20.2517   -7.7750  -17.5583 C   0  0  0  0  0  0  0  0  0  0  0  0
   19.4343   -9.0173  -17.4408 C   0  0  0  0  0  0  0  0  0  0  0  0
   19.1223   -9.6800  -18.7197 O   0  0  0  0  0  0  0  0  0  0  0  0
   18.5602  -10.7977  -18.7102 C   0  0  0  0  0  0  0  0  0  0  0  0
   19.8743   -6.7668  -16.5621 O   0  0  0  0  0  0  0  0  0  0  0  0
   18.8734   -5.8530  -16.8220 O   0  0  0  0  0  0  0  0  0  0  0  0
   19.4276   -9.1134  -19.9430 O   0  0  0  0  0  0  0  0  0  0  0  0
  2  3  2  0
  2  1  1  0
  4  2  1  0
  5  4  1  0
  6  5  1  0
  7  8  1  0
  7  6  1  0
  8  9  1  1
 10  8  1  0
 10 11  2  0
 12 13  1  0
 13 23  2  0
 13 14  1  0
 14 15  2  0
 15 16  1  0
 16 17  1  0
 18 17  1  1
 18 19  1  0
 19 10  1  0
 20 18  1  0
 21 20  2  0
 22 16  2  0
 23 22  1  0
 24 20  1  0
 25 24  1  0
 25 29  1  0
 25 26  1  1
 27 26  1  0
 27 28  2  0
 29 30  1  0
 31 27  1  0
 32 29  2  0
M  END
$$$$
