RYD.pdb
     RDKit          3D

 32 32  0  0  1  0  0  0  0  0999 V2000
   26.2817  -27.0729  -18.8326 N   0  0  0  0  0  0  0  0  0  0  0  0
   24.9281  -26.7403  -18.6028 C   0  0  0  0  0  0  0  0  0  0  0  0
   24.0439  -27.6553  -18.4882 N   0  0  0  0  0  0  0  0  0  0  0  0
   24.5224  -25.3702  -18.4946 N   0  0  0  0  0  0  0  0  0  0  0  0
   25.4875  -24.2915  -18.5330 C   0  0  0  0  0  0  0  0  0  0  0  0
   26.4691  -24.5095  -17.3905 C   0  0  0  0  0  0  0  0  0  0  0  0
   26.0720  -23.7220  -16.1707 C   0  0  0  0  0  0  0  0  0  0  0  0
   26.3857  -22.2676  -16.2487 C   0  0  2  0  0  0  0  0  0  0  0  0
   27.8280  -22.1409  -15.9994 N   0  0  0  0  0  0  0  0  0  0  0  0
   25.6159  -21.4134  -15.3296 C   0  0  0  0  0  0  0  0  0  0  0  0
   25.8112  -21.3035  -14.1141 O   0  0  0  0  0  0  0  0  0  0  0  0
   23.0439  -27.4861  -18.2974 O   0  0  0  0  0  0  0  0  0  0  0  0
   20.8293  -17.8807  -20.4762 C   0  0  0  0  0  0  0  0  0  0  0  0
   21.5238  -18.0014  -19.2732 C   0  0  0  0  0  0  0  0  0  0  0  0
   22.8753  -18.3227  -19.2509 C   0  0  0  0  0  0  0  0  0  0  0  0
   23.5416  -18.4365  -18.0434 C   0  0  0  0  0  0  0  0  0  0  0  0
   22.8941  -18.2378  -16.8507 C   0  0  0  0  0  0  0  0  0  0  0  0
   23.6241  -18.3642  -15.5832 C   0  0  1  0  0  0  0  0  0  0  0  0
   23.7330  -19.7660  -15.0722 N   0  0  0  0  0  0  0  0  0  0  0  0
   24.5429  -20.6317  -15.8649 C   0  0  0  0  0  0  0  0  0  0  0  0
   22.4279  -20.3989  -14.8071 O   0  0  0  0  0  0  0  0  0  0  0  0
   21.8915  -21.2656  -15.5465 C   0  0  0  0  0  0  0  0  0  0  0  0
   21.5640  -17.9209  -16.8523 C   0  0  0  0  0  0  0  0  0  0  0  0
   20.8982  -17.8070  -18.0544 N   0  0  0  0  0  0  0  0  0  0  0  0
   21.6857  -20.0348  -13.6436 C   0  0  1  0  0  0  0  0  0  0  0  0
   20.3882  -20.5756  -13.3275 C   0  0  0  0  0  0  0  0  0  0  0  0
   20.2236  -20.9959  -11.9057 C   0  0  0  0  0  0  0  0  0  0  0  0
   18.9846  -21.7397  -11.6162 O   0  0  0  0  0  0  0  0  0  0  0  0
   18.1874  -21.9896  -12.5474 C   0  0  0  0  0  0  0  0  0  0  0  0
   19.2821  -19.7288  -13.7868 O   0  0  0  0  0  0  0  0  0  0  0  0
   18.2704  -20.2464  -14.5697 O   0  0  0  0  0  0  0  0  0  0  0  0
   18.6620  -22.1779  -10.3455 O   0  0  0  0  0  0  0  0  0  0  0  0
  2  3  2  0
  2  1  1  0
  4  2  1  0
  5  4  1  0
  6  5  1  0
  7  8  1  0
  7  6  1  0
  8  9  1  1
 10  8  1  0
 10 11  2  0
 12 13  1  0
 13 23  2  0
 13 14  1  0
 14 15  2  0
 15 16  1  0
 16 17  1  0
 18 17  1  1
 18 19  1  0
 19 10  1  0
 20 18  1  0
 21 20  2  0
 22 16  2  0
 23 22  1  0
 24 20  1  0
 25 24  1  0
 25 29  1  0
 25 26  1  1
 27 26  1  0
 27 28  2  0
 29 30  1  0
 31 27  1  0
 32 29  2  0
M  END
$$$$
