RYD.pdb
     RDKit          3D

 32 32  0  0  1  0  0  0  0  0999 V2000
   23.2795  -24.8363  -15.6665 N   0  0  0  0  0  0  0  0  0  0  0  0
   22.9263  -23.5256  -15.2754 C   0  0  0  0  0  0  0  0  0  0  0  0
   23.3032  -23.0596  -14.1471 N   0  0  0  0  0  0  0  0  0  0  0  0
   22.1384  -22.6951  -16.1374 N   0  0  0  0  0  0  0  0  0  0  0  0
   21.8268  -23.0951  -17.4936 C   0  0  0  0  0  0  0  0  0  0  0  0
   23.0350  -22.7693  -18.3600 C   0  0  0  0  0  0  0  0  0  0  0  0
   22.9426  -21.3775  -18.9257 C   0  0  0  0  0  0  0  0  0  0  0  0
   24.2025  -20.5884  -18.8263 C   0  0  2  0  0  0  0  0  0  0  0  0
   25.1363  -21.1748  -19.7973 N   0  0  0  0  0  0  0  0  0  0  0  0
   24.8028  -20.5385  -17.4831 C   0  0  0  0  0  0  0  0  0  0  0  0
   25.7105  -21.2698  -17.0718 O   0  0  0  0  0  0  0  0  0  0  0  0
   23.1787  -22.0811  -13.8437 O   0  0  0  0  0  0  0  0  0  0  0  0
   29.8926  -16.4085  -17.9617 C   0  0  0  0  0  0  0  0  0  0  0  0
   28.7671  -16.7888  -17.2317 C   0  0  0  0  0  0  0  0  0  0  0  0
   27.5443  -16.1540  -17.4106 C   0  0  0  0  0  0  0  0  0  0  0  0
   26.4423  -16.5505  -16.6734 C   0  0  0  0  0  0  0  0  0  0  0  0
   26.5262  -17.5682  -15.7576 C   0  0  0  0  0  0  0  0  0  0  0  0
   25.3419  -17.9700  -14.9885 C   0  0  2  0  0  0  0  0  0  0  0  0
   24.8754  -19.3653  -15.2597 N   0  0  0  0  0  0  0  0  0  0  0  0
   24.3109  -19.5676  -16.5536 C   0  0  0  0  0  0  0  0  0  0  0  0
   23.9678  -19.8941  -14.2250 O   0  0  0  0  0  0  0  0  0  0  0  0
   22.7273  -20.0498  -14.3755 C   0  0  0  0  0  0  0  0  0  0  0  0
   27.7212  -18.2049  -15.5675 C   0  0  0  0  0  0  0  0  0  0  0  0
   28.8205  -17.8114  -16.3010 N   0  0  0  0  0  0  0  0  0  0  0  0
   24.4870  -20.2685  -12.9494 C   0  0  2  0  0  0  0  0  0  0  0  0
   23.6904  -20.8785  -11.9153 C   0  0  0  0  0  0  0  0  0  0  0  0
   24.4195  -21.1231  -10.6371 C   0  0  0  0  0  0  0  0  0  0  0  0
   25.7630  -21.7096  -10.7894 O   0  0  0  0  0  0  0  0  0  0  0  0
   26.1123  -22.1618  -11.9025 C   0  0  0  0  0  0  0  0  0  0  0  0
   22.4068  -20.2022  -11.7005 O   0  0  0  0  0  0  0  0  0  0  0  0
   21.4483  -20.7470  -10.8705 O   0  0  0  0  0  0  0  0  0  0  0  0
   26.6640  -21.7823   -9.7435 O   0  0  0  0  0  0  0  0  0  0  0  0
  2  3  2  0
  2  1  1  0
  4  2  1  0
  5  4  1  0
  6  5  1  0
  7  8  1  0
  7  6  1  0
  8  9  1  6
 10  8  1  0
 10 11  2  0
 12 13  1  0
 13 23  2  0
 13 14  1  0
 14 15  2  0
 15 16  1  0
 16 17  1  0
 18 17  1  6
 18 19  1  0
 19 10  1  0
 20 18  1  0
 21 20  2  0
 22 16  2  0
 23 22  1  0
 24 20  1  0
 25 24  1  0
 25 29  1  0
 25 26  1  6
 27 26  1  0
 27 28  2  0
 29 30  1  0
 31 27  1  0
 32 29  2  0
M  END
$$$$
