RYD.pdb
     RDKit          3D

 32 32  0  0  1  0  0  0  0  0999 V2000
   16.3722   -8.8890  -14.6511 N   0  0  0  0  0  0  0  0  0  0  0  0
   16.8659   -9.6689  -13.5818 C   0  0  0  0  0  0  0  0  0  0  0  0
   16.8385   -9.2233  -12.3848 N   0  0  0  0  0  0  0  0  0  0  0  0
   17.4069  -10.9742  -13.8208 N   0  0  0  0  0  0  0  0  0  0  0  0
   17.5864  -11.4830  -15.1644 C   0  0  0  0  0  0  0  0  0  0  0  0
   19.0813  -11.5226  -15.4472 C   0  0  0  0  0  0  0  0  0  0  0  0
   19.3601  -11.9896  -16.8507 C   0  0  0  0  0  0  0  0  0  0  0  0
   20.8058  -12.1674  -17.1639 C   0  0  2  0  0  0  0  0  0  0  0  0
   21.2513  -13.3462  -16.4088 N   0  0  0  0  0  0  0  0  0  0  0  0
   21.6557  -11.0020  -16.8696 C   0  0  0  0  0  0  0  0  0  0  0  0
   22.3602  -10.8595  -15.8641 O   0  0  0  0  0  0  0  0  0  0  0  0
   17.1765   -9.7392  -11.5573 O   0  0  0  0  0  0  0  0  0  0  0  0
   26.3666   -3.6701  -18.1071 C   0  0  0  0  0  0  0  0  0  0  0  0
   25.6226   -4.8369  -18.2776 C   0  0  0  0  0  0  0  0  0  0  0  0
   26.0139   -6.0330  -17.6890 C   0  0  0  0  0  0  0  0  0  0  0  0
   25.2576   -7.1772  -17.8737 C   0  0  0  0  0  0  0  0  0  0  0  0
   24.1157   -7.1617  -18.6333 C   0  0  0  0  0  0  0  0  0  0  0  0
   23.3309   -8.3895  -18.8134 C   0  0  1  0  0  0  0  0  0  0  0  0
   22.4784   -8.7534  -17.6392 N   0  0  0  0  0  0  0  0  0  0  0  0
   21.6870   -9.9268  -17.8140 C   0  0  0  0  0  0  0  0  0  0  0  0
   21.6356   -7.6436  -17.1572 O   0  0  0  0  0  0  0  0  0  0  0  0
   20.4985   -7.3590  -17.6173 C   0  0  0  0  0  0  0  0  0  0  0  0
   23.7145   -5.9939  -19.2206 C   0  0  0  0  0  0  0  0  0  0  0  0
   24.4666   -4.8527  -19.0378 N   0  0  0  0  0  0  0  0  0  0  0  0
   22.1001   -6.8080  -16.0975 C   0  0  2  0  0  0  0  0  0  0  0  0
   21.3511   -5.6914  -15.5798 C   0  0  0  0  0  0  0  0  0  0  0  0
   21.8770   -5.1350  -14.2995 C   0  0  0  0  0  0  0  0  0  0  0  0
   21.1161   -3.9951  -13.7573 O   0  0  0  0  0  0  0  0  0  0  0  0
   21.7212   -2.9440  -13.4506 C   0  0  0  0  0  0  0  0  0  0  0  0
   21.1072   -4.6463  -16.5796 O   0  0  0  0  0  0  0  0  0  0  0  0
   19.8276   -4.3632  -17.0120 O   0  0  0  0  0  0  0  0  0  0  0  0
   19.7470   -4.0382  -13.5710 O   0  0  0  0  0  0  0  0  0  0  0  0
  2  3  2  0
  2  1  1  0
  4  2  1  0
  5  4  1  0
  6  5  1  0
  7  8  1  0
  7  6  1  0
  8  9  1  1
 10  8  1  0
 10 11  2  0
 12 13  1  0
 13 23  2  0
 13 14  1  0
 14 15  2  0
 15 16  1  0
 16 17  1  0
 18 17  1  1
 18 19  1  0
 19 10  1  0
 20 18  1  0
 21 20  2  0
 22 16  2  0
 23 22  1  0
 24 20  1  0
 25 24  1  0
 25 29  1  0
 25 26  1  1
 27 26  1  0
 27 28  2  0
 29 30  1  0
 31 27  1  0
 32 29  2  0
M  END
$$$$
