RYD.pdb
     RDKit          3D

 32 32  0  0  1  0  0  0  0  0999 V2000
   14.9951  -15.3353  -14.2667 N   0  0  0  0  0  0  0  0  0  0  0  0
   14.7106  -15.3527  -15.6503 C   0  0  0  0  0  0  0  0  0  0  0  0
   13.8910  -16.2045  -16.1352 N   0  0  0  0  0  0  0  0  0  0  0  0
   15.3366  -14.4153  -16.5351 N   0  0  0  0  0  0  0  0  0  0  0  0
   16.6461  -13.8668  -16.2507 C   0  0  0  0  0  0  0  0  0  0  0  0
   17.6650  -14.9809  -16.4437 C   0  0  0  0  0  0  0  0  0  0  0  0
   19.0554  -14.5148  -16.1044 C   0  0  0  0  0  0  0  0  0  0  0  0
   19.4990  -13.3062  -16.8543 C   0  0  2  0  0  0  0  0  0  0  0  0
   19.6017  -13.7077  -18.2637 N   0  0  0  0  0  0  0  0  0  0  0  0
   20.7595  -12.7084  -16.3843 C   0  0  0  0  0  0  0  0  0  0  0  0
   21.0007  -12.3539  -15.2250 O   0  0  0  0  0  0  0  0  0  0  0  0
   13.6534  -16.2883  -17.1359 O   0  0  0  0  0  0  0  0  0  0  0  0
   29.1364  -10.0205  -16.1881 C   0  0  0  0  0  0  0  0  0  0  0  0
   27.9286  -10.5991  -16.5765 C   0  0  0  0  0  0  0  0  0  0  0  0
   27.2828  -10.2044  -17.7416 C   0  0  0  0  0  0  0  0  0  0  0  0
   26.0850  -10.7946  -18.1050 C   0  0  0  0  0  0  0  0  0  0  0  0
   25.5100  -11.7728  -17.3344 C   0  0  0  0  0  0  0  0  0  0  0  0
   24.2385  -12.3833  -17.7424 C   0  0  2  0  0  0  0  0  0  0  0  0
   23.0418  -11.8595  -17.0133 N   0  0  0  0  0  0  0  0  0  0  0  0
   21.8135  -12.5101  -17.3322 C   0  0  0  0  0  0  0  0  0  0  0  0
   22.8810  -10.3977  -17.1198 O   0  0  0  0  0  0  0  0  0  0  0  0
   22.4746   -9.7975  -18.1494 C   0  0  0  0  0  0  0  0  0  0  0  0
   26.1306  -12.1745  -16.1842 C   0  0  0  0  0  0  0  0  0  0  0  0
   27.3242  -11.5878  -15.8204 N   0  0  0  0  0  0  0  0  0  0  0  0
   23.1954   -9.5657  -16.0036 C   0  0  2  0  0  0  0  0  0  0  0  0
   23.0826   -8.1295  -16.0264 C   0  0  0  0  0  0  0  0  0  0  0  0
   22.4600   -7.5391  -14.8062 C   0  0  0  0  0  0  0  0  0  0  0  0
   20.9910   -7.6415  -14.7455 O   0  0  0  0  0  0  0  0  0  0  0  0
   20.3660   -8.0885  -15.7329 C   0  0  0  0  0  0  0  0  0  0  0  0
   24.3347   -7.4577  -16.3903 O   0  0  0  0  0  0  0  0  0  0  0  0
   25.5107   -7.7412  -15.7260 O   0  0  0  0  0  0  0  0  0  0  0  0
   20.2659   -7.2606  -13.6320 O   0  0  0  0  0  0  0  0  0  0  0  0
  2  3  2  0
  2  1  1  0
  4  2  1  0
  5  4  1  0
  6  5  1  0
  7  8  1  0
  7  6  1  0
  8  9  1  6
 10  8  1  0
 10 11  2  0
 12 13  1  0
 13 23  2  0
 13 14  1  0
 14 15  2  0
 15 16  1  0
 16 17  1  0
 18 17  1  1
 18 19  1  0
 19 10  1  0
 20 18  1  0
 21 20  2  0
 22 16  2  0
 23 22  1  0
 24 20  1  0
 25 24  1  0
 25 29  1  0
 25 26  1  1
 27 26  1  0
 27 28  2  0
 29 30  1  0
 31 27  1  0
 32 29  2  0
M  END
$$$$
