RYD.pdb
     RDKit          3D

 32 32  0  0  1  0  0  0  0  0999 V2000
   31.4916  -21.7685  -20.5348 N   0  0  0  0  0  0  0  0  0  0  0  0
   30.2076  -21.2280  -20.7686 C   0  0  0  0  0  0  0  0  0  0  0  0
   29.8007  -21.0097  -21.9599 N   0  0  0  0  0  0  0  0  0  0  0  0
   29.3384  -20.9143  -19.6734 N   0  0  0  0  0  0  0  0  0  0  0  0
   29.7384  -21.1459  -18.3013 C   0  0  0  0  0  0  0  0  0  0  0  0
   29.3873  -22.5858  -17.9549 C   0  0  0  0  0  0  0  0  0  0  0  0
   28.5810  -22.6618  -16.6861 C   0  0  0  0  0  0  0  0  0  0  0  0
   27.2074  -22.0952  -16.7955 C   0  0  2  0  0  0  0  0  0  0  0  0
   27.3707  -20.6778  -17.1457 N   0  0  0  0  0  0  0  0  0  0  0  0
   26.3725  -22.2471  -15.5927 C   0  0  0  0  0  0  0  0  0  0  0  0
   26.1049  -23.3154  -15.0314 O   0  0  0  0  0  0  0  0  0  0  0  0
   28.8619  -20.6589  -22.2056 O   0  0  0  0  0  0  0  0  0  0  0  0
   22.6419  -20.7916   -7.8629 C   0  0  0  0  0  0  0  0  0  0  0  0
   23.3636  -20.6730   -9.0500 C   0  0  0  0  0  0  0  0  0  0  0  0
   22.8014  -20.0913  -10.1796 C   0  0  0  0  0  0  0  0  0  0  0  0
   23.5391  -19.9854  -11.3457 C   0  0  0  0  0  0  0  0  0  0  0  0
   24.8291  -20.4461  -11.4171 C   0  0  0  0  0  0  0  0  0  0  0  0
   25.5904  -20.3215  -12.6663 C   0  0  2  0  0  0  0  0  0  0  0  0
   25.0198  -21.0918  -13.8148 N   0  0  0  0  0  0  0  0  0  0  0  0
   25.8098  -21.0710  -15.0019 C   0  0  0  0  0  0  0  0  0  0  0  0
   23.6253  -20.7313  -14.1305 O   0  0  0  0  0  0  0  0  0  0  0  0
   23.2565  -19.6005  -14.5439 C   0  0  0  0  0  0  0  0  0  0  0  0
   25.3995  -21.0216  -10.3158 C   0  0  0  0  0  0  0  0  0  0  0  0
   24.6663  -21.1280   -9.1529 N   0  0  0  0  0  0  0  0  0  0  0  0
   22.5885  -21.6992  -13.9717 C   0  0  1  0  0  0  0  0  0  0  0  0
   21.1939  -21.4131  -14.1934 C   0  0  0  0  0  0  0  0  0  0  0  0
   20.5709  -22.1960  -15.2999 C   0  0  0  0  0  0  0  0  0  0  0  0
   20.3966  -21.4573  -16.5633 O   0  0  0  0  0  0  0  0  0  0  0  0
   20.7510  -20.2591  -16.6271 C   0  0  0  0  0  0  0  0  0  0  0  0
   20.3933  -21.4558  -12.9652 O   0  0  0  0  0  0  0  0  0  0  0  0
   19.5091  -20.4413  -12.6593 O   0  0  0  0  0  0  0  0  0  0  0  0
   19.8521  -22.0380  -17.6934 O   0  0  0  0  0  0  0  0  0  0  0  0
  2  3  2  0
  2  1  1  0
  4  2  1  0
  5  4  1  0
  6  5  1  0
  7  8  1  0
  7  6  1  0
  8  9  1  1
 10  8  1  0
 10 11  2  0
 12 13  1  0
 13 23  2  0
 13 14  1  0
 14 15  2  0
 15 16  1  0
 16 17  1  0
 18 17  1  1
 18 19  1  0
 19 10  1  0
 20 18  1  0
 21 20  2  0
 22 16  2  0
 23 22  1  0
 24 20  1  0
 25 24  1  0
 25 29  1  0
 25 26  1  1
 27 26  1  0
 27 28  2  0
 29 30  1  0
 31 27  1  0
 32 29  2  0
M  END
$$$$
