RYD.pdb
     RDKit          3D

 32 32  0  0  1  0  0  0  0  0999 V2000
   15.1119  -20.4508    2.3445 N   0  0  0  0  0  0  0  0  0  0  0  0
   16.3640  -20.0629    2.8711 C   0  0  0  0  0  0  0  0  0  0  0  0
   17.3410  -20.8856    2.8994 N   0  0  0  0  0  0  0  0  0  0  0  0
   16.5606  -18.7392    3.3837 N   0  0  0  0  0  0  0  0  0  0  0  0
   15.6486  -18.1590    4.3470 C   0  0  0  0  0  0  0  0  0  0  0  0
   16.0668  -16.7120    4.5654 C   0  0  0  0  0  0  0  0  0  0  0  0
   17.4560  -16.6250    5.1382 C   0  0  0  0  0  0  0  0  0  0  0  0
   17.5397  -16.9204    6.5961 C   0  0  2  0  0  0  0  0  0  0  0  0
   16.5819  -16.0230    7.2562 N   0  0  0  0  0  0  0  0  0  0  0  0
   18.8820  -16.7820    7.1845 C   0  0  0  0  0  0  0  0  0  0  0  0
   19.9151  -17.3065    6.7540 O   0  0  0  0  0  0  0  0  0  0  0  0
   18.2861  -20.6645    3.2497 O   0  0  0  0  0  0  0  0  0  0  0  0
   21.3401  -10.2268    6.0324 C   0  0  0  0  0  0  0  0  0  0  0  0
   21.1152  -11.2699    6.9300 C   0  0  0  0  0  0  0  0  0  0  0  0
   19.8310  -11.7325    7.1894 C   0  0  0  0  0  0  0  0  0  0  0  0
   19.6348  -12.7693    8.0848 C   0  0  0  0  0  0  0  0  0  0  0  0
   20.6893  -13.3609    8.7323 C   0  0  0  0  0  0  0  0  0  0  0  0
   20.4541  -14.4596    9.6774 C   0  0  2  0  0  0  0  0  0  0  0  0
   20.2738  -15.7979    9.0337 N   0  0  0  0  0  0  0  0  0  0  0  0
   19.0309  -15.9751    8.3573 C   0  0  0  0  0  0  0  0  0  0  0  0
   20.5158  -16.9285    9.9488 O   0  0  0  0  0  0  0  0  0  0  0  0
   19.6358  -17.4582   10.6773 C   0  0  0  0  0  0  0  0  0  0  0  0
   21.9604  -12.9193    8.4900 C   0  0  0  0  0  0  0  0  0  0  0  0
   22.1582  -11.8864    7.5982 N   0  0  0  0  0  0  0  0  0  0  0  0
   21.8224  -17.4940   10.0483 C   0  0  1  0  0  0  0  0  0  0  0  0
   22.1595  -18.5602   10.9570 C   0  0  0  0  0  0  0  0  0  0  0  0
   21.7454  -19.9176   10.4976 C   0  0  0  0  0  0  0  0  0  0  0  0
   22.0324  -21.0096   11.4449 O   0  0  0  0  0  0  0  0  0  0  0  0
   22.2706  -20.7361   12.6423 C   0  0  0  0  0  0  0  0  0  0  0  0
   23.5594  -18.5259   11.3935 O   0  0  0  0  0  0  0  0  0  0  0  0
   24.4615  -17.6563   10.8153 O   0  0  0  0  0  0  0  0  0  0  0  0
   22.0501  -22.3380   11.0629 O   0  0  0  0  0  0  0  0  0  0  0  0
  2  3  2  0
  2  1  1  0
  4  2  1  0
  5  4  1  0
  6  5  1  0
  7  8  1  0
  7  6  1  0
  8  9  1  1
 10  8  1  0
 10 11  2  0
 12 13  1  0
 13 23  2  0
 13 14  1  0
 14 15  2  0
 15 16  1  0
 16 17  1  0
 18 17  1  6
 18 19  1  0
 19 10  1  0
 20 18  1  0
 21 20  2  0
 22 16  2  0
 23 22  1  0
 24 20  1  0
 25 24  1  0
 25 29  1  0
 25 26  1  6
 27 26  1  0
 27 28  2  0
 29 30  1  0
 31 27  1  0
 32 29  2  0
M  END
$$$$
