EVW.pdb
     RDKit          3D

 31 32  0  0  1  0  0  0  0  0999 V2000
   11.4084  -16.7031   17.4334 N   0  0  0  0  0  0  0  0  0  0  0  0
   10.8605  -17.4347   18.5639 C   0  0  1  0  0  0  0  0  0  0  0  0
   11.8896  -18.4817   18.9397 C   0  0  0  0  0  0  0  0  0  0  0  0
   11.9118  -19.6111   17.9348 C   0  0  0  0  0  0  0  0  0  0  0  0
   12.8854  -20.6199   18.3606 C   0  0  0  0  0  0  0  0  0  0  0  0
   12.4892  -21.7207   18.8103 O   0  0  0  0  0  0  0  0  0  0  0  0
   10.5394  -16.5380   19.6857 C   0  0  0  0  0  0  0  0  0  0  0  0
   11.4506  -15.8415   20.1920 O   0  0  0  0  0  0  0  0  0  0  0  0
   14.2612  -20.4183   18.2915 O   0  0  0  0  0  0  0  0  0  0  0  0
    7.0200  -14.5456   19.9745 C   0  0  0  0  0  0  0  0  0  0  0  0
    7.3844  -15.2163   21.2807 C   0  0  2  0  0  0  0  0  0  0  0  0
    7.0269  -14.3435   22.4685 C   0  0  0  0  0  0  0  0  0  0  0  0
    8.8414  -15.6184   21.3041 C   0  0  2  0  0  0  0  0  0  0  0  0
    9.2194  -16.4494   20.2015 N   0  0  0  0  0  0  0  0  0  0  0  0
    9.1481  -16.2657   22.6064 C   0  0  0  0  0  0  0  0  0  0  0  0
    9.1184  -17.5212   22.7101 O   0  0  0  0  0  0  0  0  0  0  0  0
    9.4773  -15.5093   23.7512 N   0  0  0  0  0  0  0  0  0  0  0  0
    9.8231  -16.0989   25.0302 C   0  0  1  0  0  0  0  0  0  0  0  0
    9.5620  -15.0787   26.1163 C   0  0  0  0  0  0  0  0  0  0  0  0
    8.1609  -14.6608   26.1831 C   0  0  0  0  0  0  0  0  0  0  0  0
    7.0614  -15.4782   26.0496 C   0  0  0  0  0  0  0  0  0  0  0  0
    5.9280  -14.7498   26.1669 N   0  0  0  0  0  0  0  0  0  0  0  0
    6.2621  -13.4580   26.3768 C   0  0  0  0  0  0  0  0  0  0  0  0
    5.4865  -12.3374   26.5584 C   0  0  0  0  0  0  0  0  0  0  0  0
    6.0707  -11.1031   26.7595 C   0  0  0  0  0  0  0  0  0  0  0  0
    7.4421  -11.0314   26.7722 C   0  0  0  0  0  0  0  0  0  0  0  0
    8.2219  -12.1506   26.5908 C   0  0  0  0  0  0  0  0  0  0  0  0
    7.6601  -13.3930   26.3884 C   0  0  0  0  0  0  0  0  0  0  0  0
    9.0932  -17.3674   25.2660 C   0  0  0  0  0  0  0  0  0  0  0  0
    8.0132  -17.7294   24.4896 O   0  0  0  0  0  0  0  0  0  0  0  0
    9.4509  -18.1422   26.1878 O   0  0  0  0  0  0  0  0  0  0  0  0
  2  3  1  0
  2  1  1  6
  3  4  1  0
  4  5  1  0
  5  9  1  0
  5  6  2  0
  7 14  1  0
  7  2  1  0
  8  7  2  0
 11 10  1  6
 12 11  1  0
 13 11  1  0
 13 14  1  6
 13 15  1  0
 15 17  1  0
 16 15  2  0
 17 18  1  0
 18 19  1  1
 19 20  1  0
 20 21  2  0
 20 28  1  0
 21 22  1  0
 22 23  1  0
 23 24  2  0
 24 25  1  0
 26 25  2  0
 27 26  1  0
 28 27  2  0
 28 23  1  0
 29 30  1  0
 29 18  1  0
 31 29  2  0
M  END
$$$$
