EVW.pdb
     RDKit          3D

 31 32  0  0  1  0  0  0  0  0999 V2000
   11.1176  -16.9815   17.2147 N   0  0  0  0  0  0  0  0  0  0  0  0
   10.4541  -17.6165   18.3418 C   0  0  1  0  0  0  0  0  0  0  0  0
   11.3059  -18.8091   18.7276 C   0  0  0  0  0  0  0  0  0  0  0  0
   11.2516  -19.8850   17.6668 C   0  0  0  0  0  0  0  0  0  0  0  0
   12.0636  -21.0277   18.0933 C   0  0  0  0  0  0  0  0  0  0  0  0
   13.2670  -21.1022   17.7511 O   0  0  0  0  0  0  0  0  0  0  0  0
   10.2667  -16.6778   19.4595 C   0  0  0  0  0  0  0  0  0  0  0  0
   11.2464  -16.0120   19.8698 O   0  0  0  0  0  0  0  0  0  0  0  0
   11.5594  -22.0616   18.8776 O   0  0  0  0  0  0  0  0  0  0  0  0
    7.0051  -14.3818   19.9371 C   0  0  0  0  0  0  0  0  0  0  0  0
    7.3455  -15.0994   21.2247 C   0  0  2  0  0  0  0  0  0  0  0  0
    7.1234  -14.2062   22.4303 C   0  0  0  0  0  0  0  0  0  0  0  0
    8.7531  -15.6497   21.1916 C   0  0  2  0  0  0  0  0  0  0  0  0
    8.9988  -16.5150   20.0780 N   0  0  0  0  0  0  0  0  0  0  0  0
    9.0433  -16.3254   22.4832 C   0  0  0  0  0  0  0  0  0  0  0  0
    8.9716  -17.5805   22.5693 O   0  0  0  0  0  0  0  0  0  0  0  0
    9.4030  -15.5969   23.6368 N   0  0  0  0  0  0  0  0  0  0  0  0
    9.6555  -16.2100   24.9265 C   0  0  1  0  0  0  0  0  0  0  0  0
    9.5187  -15.1505   25.9977 C   0  0  0  0  0  0  0  0  0  0  0  0
    8.1785  -14.5649   26.0547 C   0  0  0  0  0  0  0  0  0  0  0  0
    6.9883  -15.2443   25.9247 C   0  0  0  0  0  0  0  0  0  0  0  0
    5.9513  -14.3824   26.0302 N   0  0  0  0  0  0  0  0  0  0  0  0
    6.4393  -13.1387   26.2287 C   0  0  0  0  0  0  0  0  0  0  0  0
    5.8049  -11.9305   26.3961 C   0  0  0  0  0  0  0  0  0  0  0  0
    6.5341  -10.7741   26.5874 C   0  0  0  0  0  0  0  0  0  0  0  0
    7.9040  -10.8693   26.6050 C   0  0  0  0  0  0  0  0  0  0  0  0
    8.5427  -12.0767   26.4378 C   0  0  0  0  0  0  0  0  0  0  0  0
    7.8347  -13.2437   26.2454 C   0  0  0  0  0  0  0  0  0  0  0  0
    8.7637  -17.3693   25.1681 C   0  0  0  0  0  0  0  0  0  0  0  0
    9.1294  -18.3918   26.0172 O   0  0  0  0  0  0  0  0  0  0  0  0
    7.6474  -17.4397   24.5965 O   0  0  0  0  0  0  0  0  0  0  0  0
  2  3  1  0
  2  1  1  6
  3  4  1  0
  4  5  1  0
  5  9  1  0
  5  6  2  0
  7 14  1  0
  7  2  1  0
  8  7  2  0
 11 10  1  6
 12 11  1  0
 13 11  1  0
 13 14  1  6
 13 15  1  0
 15 17  1  0
 16 15  2  0
 17 18  1  0
 18 19  1  1
 19 20  1  0
 20 21  2  0
 20 28  1  0
 21 22  1  0
 22 23  1  0
 23 24  2  0
 24 25  1  0
 26 25  2  0
 27 26  1  0
 28 27  2  0
 28 23  1  0
 29 30  1  0
 29 18  1  0
 31 29  2  0
M  END
$$$$
