EVW.pdb
     RDKit          3D

 31 32  0  0  1  0  0  0  0  0999 V2000
   10.1115  -17.9742   17.6123 N   0  0  0  0  0  0  0  0  0  0  0  0
    9.6700  -18.2963   18.9595 C   0  0  1  0  0  0  0  0  0  0  0  0
   10.5424  -19.4395   19.4376 C   0  0  0  0  0  0  0  0  0  0  0  0
   11.2229  -20.1294   18.2771 C   0  0  0  0  0  0  0  0  0  0  0  0
   12.0702  -21.2114   18.7855 C   0  0  0  0  0  0  0  0  0  0  0  0
   13.2998  -21.0234   18.9387 O   0  0  0  0  0  0  0  0  0  0  0  0
    9.7446  -17.1260   19.8487 C   0  0  0  0  0  0  0  0  0  0  0  0
   10.8201  -16.4870   19.9296 O   0  0  0  0  0  0  0  0  0  0  0  0
   11.5721  -22.4688   19.1162 O   0  0  0  0  0  0  0  0  0  0  0  0
    7.0639  -14.3866   19.9163 C   0  0  0  0  0  0  0  0  0  0  0  0
    7.3597  -14.7352   21.3583 C   0  0  2  0  0  0  0  0  0  0  0  0
    7.4318  -13.4917   22.2238 C   0  0  0  0  0  0  0  0  0  0  0  0
    8.6155  -15.5685   21.4758 C   0  0  2  0  0  0  0  0  0  0  0  0
    8.6222  -16.7108   20.6132 N   0  0  0  0  0  0  0  0  0  0  0  0
    8.8130  -15.9558   22.8971 C   0  0  0  0  0  0  0  0  0  0  0  0
    8.3030  -17.0204   23.3381 O   0  0  0  0  0  0  0  0  0  0  0  0
    9.5654  -15.1585   23.7853 N   0  0  0  0  0  0  0  0  0  0  0  0
    9.9612  -15.5901   25.1120 C   0  0  1  0  0  0  0  0  0  0  0  0
    8.7451  -16.1463   25.8195 C   0  0  0  0  0  0  0  0  0  0  0  0
    7.6051  -15.2284   25.8037 C   0  0  0  0  0  0  0  0  0  0  0  0
    6.3129  -15.5428   25.4481 C   0  0  0  0  0  0  0  0  0  0  0  0
    5.5263  -14.4476   25.5523 N   0  0  0  0  0  0  0  0  0  0  0  0
    6.2811  -13.4096   25.9730 C   0  0  0  0  0  0  0  0  0  0  0  0
    5.9587  -12.0983   26.2311 C   0  0  0  0  0  0  0  0  0  0  0  0
    6.9230  -11.2085   26.6602 C   0  0  0  0  0  0  0  0  0  0  0  0
    8.2056  -11.6726   26.8197 C   0  0  0  0  0  0  0  0  0  0  0  0
    8.5323  -12.9844   26.5624 C   0  0  0  0  0  0  0  0  0  0  0  0
    7.5859  -13.8900   26.1333 C   0  0  0  0  0  0  0  0  0  0  0  0
   11.0758  -16.5662   25.0627 C   0  0  0  0  0  0  0  0  0  0  0  0
   11.6370  -17.0740   26.2149 O   0  0  0  0  0  0  0  0  0  0  0  0
   11.5325  -16.9510   23.9576 O   0  0  0  0  0  0  0  0  0  0  0  0
  2  3  1  0
  2  1  1  6
  3  4  1  0
  4  5  1  0
  5  9  1  0
  5  6  2  0
  7 14  1  0
  7  2  1  0
  8  7  2  0
 11 10  1  6
 12 11  1  0
 13 11  1  0
 13 14  1  6
 13 15  1  0
 15 17  1  0
 16 15  2  0
 17 18  1  0
 18 19  1  6
 19 20  1  0
 20 21  2  0
 20 28  1  0
 21 22  1  0
 22 23  1  0
 23 24  2  0
 24 25  1  0
 26 25  2  0
 27 26  1  0
 28 27  2  0
 28 23  1  0
 29 30  1  0
 29 18  1  0
 31 29  2  0
M  END
$$$$
