EVW.pdb
     RDKit          3D

 31 32  0  0  1  0  0  0  0  0999 V2000
    8.8361  -18.1020   18.1113 N   0  0  0  0  0  0  0  0  0  0  0  0
   10.0149  -18.1034   18.9623 C   0  0  1  0  0  0  0  0  0  0  0  0
   11.2097  -18.2627   18.0438 C   0  0  0  0  0  0  0  0  0  0  0  0
   12.1707  -19.3027   18.5734 C   0  0  0  0  0  0  0  0  0  0  0  0
   13.5259  -18.9901   18.1120 C   0  0  0  0  0  0  0  0  0  0  0  0
   14.4870  -19.7173   18.4562 O   0  0  0  0  0  0  0  0  0  0  0  0
   10.0956  -16.8816   19.7785 C   0  0  0  0  0  0  0  0  0  0  0  0
   11.2207  -16.3960   20.0429 O   0  0  0  0  0  0  0  0  0  0  0  0
   13.8123  -17.9023   17.2917 O   0  0  0  0  0  0  0  0  0  0  0  0
    7.6298  -13.7730   19.5356 C   0  0  0  0  0  0  0  0  0  0  0  0
    7.7604  -14.1993   20.9812 C   0  0  2  0  0  0  0  0  0  0  0  0
    7.8485  -12.9997   21.9052 C   0  0  0  0  0  0  0  0  0  0  0  0
    8.9302  -15.1372   21.1740 C   0  0  2  0  0  0  0  0  0  0  0  0
    8.9241  -16.2466   20.2694 N   0  0  0  0  0  0  0  0  0  0  0  0
    8.9668  -15.5870   22.5901 C   0  0  0  0  0  0  0  0  0  0  0  0
    8.1517  -16.4574   22.9974 O   0  0  0  0  0  0  0  0  0  0  0  0
    9.8995  -15.0638   23.5105 N   0  0  0  0  0  0  0  0  0  0  0  0
    9.9598  -15.4596   24.9043 C   0  0  1  0  0  0  0  0  0  0  0  0
    8.6711  -16.1681   25.2592 C   0  0  0  0  0  0  0  0  0  0  0  0
    7.5629  -15.2461   25.5122 C   0  0  0  0  0  0  0  0  0  0  0  0
    6.2224  -15.5309   25.3819 C   0  0  0  0  0  0  0  0  0  0  0  0
    5.4864  -14.4413   25.6987 N   0  0  0  0  0  0  0  0  0  0  0  0
    6.3227  -13.4364   26.0378 C   0  0  0  0  0  0  0  0  0  0  0  0
    6.0748  -12.1433   26.4335 C   0  0  0  0  0  0  0  0  0  0  0  0
    7.1159  -11.2878   26.7328 C   0  0  0  0  0  0  0  0  0  0  0  0
    8.3982  -11.7670   26.6232 C   0  0  0  0  0  0  0  0  0  0  0  0
    8.6505  -13.0606   26.2275 C   0  0  0  0  0  0  0  0  0  0  0  0
    7.6265  -13.9320   25.9238 C   0  0  0  0  0  0  0  0  0  0  0  0
   11.1532  -16.2919   25.1883 C   0  0  0  0  0  0  0  0  0  0  0  0
   11.4245  -16.7478   26.4606 O   0  0  0  0  0  0  0  0  0  0  0  0
   11.9460  -16.5990   24.2635 O   0  0  0  0  0  0  0  0  0  0  0  0
  2  3  1  0
  2  1  1  6
  3  4  1  0
  4  5  1  0
  5  9  1  0
  5  6  2  0
  7 14  1  0
  7  2  1  0
  8  7  2  0
 11 10  1  6
 12 11  1  0
 13 11  1  0
 13 14  1  6
 13 15  1  0
 15 17  1  0
 16 15  2  0
 17 18  1  0
 18 19  1  6
 19 20  1  0
 20 21  2  0
 20 28  1  0
 21 22  1  0
 22 23  1  0
 23 24  2  0
 24 25  1  0
 26 25  2  0
 27 26  1  0
 28 27  2  0
 28 23  1  0
 29 30  1  0
 29 18  1  0
 31 29  2  0
M  END
$$$$
