EVW.pdb
     RDKit          3D

 31 32  0  0  1  0  0  0  0  0999 V2000
    9.6064  -18.5329   18.3090 N   0  0  0  0  0  0  0  0  0  0  0  0
   10.7752  -17.7143   18.5872 C   0  0  1  0  0  0  0  0  0  0  0  0
   11.1528  -17.0436   17.2818 C   0  0  0  0  0  0  0  0  0  0  0  0
   11.5947  -18.0600   16.2535 C   0  0  0  0  0  0  0  0  0  0  0  0
   12.1335  -17.3626   15.0829 C   0  0  0  0  0  0  0  0  0  0  0  0
   13.2115  -16.7297   15.1734 O   0  0  0  0  0  0  0  0  0  0  0  0
   10.5131  -16.7421   19.6604 C   0  0  0  0  0  0  0  0  0  0  0  0
   11.4347  -15.9774   20.0314 O   0  0  0  0  0  0  0  0  0  0  0  0
   11.4981  -17.3642   13.8441 O   0  0  0  0  0  0  0  0  0  0  0  0
    6.5555  -16.5218   21.5841 C   0  0  0  0  0  0  0  0  0  0  0  0
    7.4990  -15.3496   21.4284 C   0  0  2  0  0  0  0  0  0  0  0  0
    7.1461  -14.5139   20.2129 C   0  0  0  0  0  0  0  0  0  0  0  0
    8.9399  -15.8052   21.3912 C   0  0  2  0  0  0  0  0  0  0  0  0
    9.2381  -16.6566   20.2797 N   0  0  0  0  0  0  0  0  0  0  0  0
    9.2798  -16.4551   22.6840 C   0  0  0  0  0  0  0  0  0  0  0  0
    9.4205  -17.7058   22.7442 O   0  0  0  0  0  0  0  0  0  0  0  0
    9.4535  -15.7063   23.8672 N   0  0  0  0  0  0  0  0  0  0  0  0
    9.7780  -16.2982   25.1508 C   0  0  1  0  0  0  0  0  0  0  0  0
    9.6596  -15.2307   26.2162 C   0  0  0  0  0  0  0  0  0  0  0  0
    8.3105  -14.6724   26.3185 C   0  0  0  0  0  0  0  0  0  0  0  0
    7.1338  -15.3867   26.3315 C   0  0  0  0  0  0  0  0  0  0  0  0
    6.0827  -14.5422   26.4371 N   0  0  0  0  0  0  0  0  0  0  0  0
    6.5478  -13.2755   26.4942 C   0  0  0  0  0  0  0  0  0  0  0  0
    5.8926  -12.0717   26.6032 C   0  0  0  0  0  0  0  0  0  0  0  0
    6.6002  -10.8872   26.6435 C   0  0  0  0  0  0  0  0  0  0  0  0
    7.9702  -10.9499   26.5716 C   0  0  0  0  0  0  0  0  0  0  0  0
    8.6297  -12.1528   26.4624 C   0  0  0  0  0  0  0  0  0  0  0  0
    7.9435  -13.3475   26.4205 C   0  0  0  0  0  0  0  0  0  0  0  0
    8.9288  -17.4777   25.4427 C   0  0  0  0  0  0  0  0  0  0  0  0
    9.3298  -18.4475   26.3365 O   0  0  0  0  0  0  0  0  0  0  0  0
    7.8173  -17.6143   24.8738 O   0  0  0  0  0  0  0  0  0  0  0  0
  2  3  1  0
  2  1  1  6
  3  4  1  0
  4  5  1  0
  5  9  1  0
  5  6  2  0
  7 14  1  0
  7  2  1  0
  8  7  2  0
 11 10  1  6
 12 11  1  0
 13 11  1  0
 13 14  1  6
 13 15  1  0
 15 17  1  0
 16 15  2  0
 17 18  1  0
 18 19  1  1
 19 20  1  0
 20 21  2  0
 20 28  1  0
 21 22  1  0
 22 23  1  0
 23 24  2  0
 24 25  1  0
 26 25  2  0
 27 26  1  0
 28 27  2  0
 28 23  1  0
 29 30  1  0
 29 18  1  0
 31 29  2  0
M  END
$$$$
