EVW.pdb
     RDKit          3D

 31 32  0  0  1  0  0  0  0  0999 V2000
    9.0748  -18.5660   19.1915 N   0  0  0  0  0  0  0  0  0  0  0  0
   10.3932  -17.9938   18.9723 C   0  0  1  0  0  0  0  0  0  0  0  0
   10.6825  -18.1319   17.4912 C   0  0  0  0  0  0  0  0  0  0  0  0
   10.4430  -19.5476   17.0176 C   0  0  0  0  0  0  0  0  0  0  0  0
   10.7971  -19.6509   15.5995 C   0  0  0  0  0  0  0  0  0  0  0  0
   11.9812  -19.8919   15.2666 O   0  0  0  0  0  0  0  0  0  0  0  0
   10.4600  -16.5960   19.4275 C   0  0  0  0  0  0  0  0  0  0  0  0
   11.5425  -15.9715   19.3282 O   0  0  0  0  0  0  0  0  0  0  0  0
    9.8674  -19.4920   14.5755 O   0  0  0  0  0  0  0  0  0  0  0  0
    7.3212  -13.9692   18.8666 C   0  0  0  0  0  0  0  0  0  0  0  0
    7.8779  -13.9770   20.2732 C   0  0  2  0  0  0  0  0  0  0  0  0
    7.8301  -12.5939   20.8940 C   0  0  0  0  0  0  0  0  0  0  0  0
    9.2745  -14.5546   20.3082 C   0  0  2  0  0  0  0  0  0  0  0  0
    9.3224  -15.9460   19.9752 N   0  0  0  0  0  0  0  0  0  0  0  0
    9.8786  -14.2904   21.6403 C   0  0  0  0  0  0  0  0  0  0  0  0
   10.1526  -13.1102   21.9864 O   0  0  0  0  0  0  0  0  0  0  0  0
   10.1608  -15.3342   22.5468 N   0  0  0  0  0  0  0  0  0  0  0  0
    9.5277  -15.4623   23.8451 C   0  0  1  0  0  0  0  0  0  0  0  0
    8.0275  -15.4714   23.6498 C   0  0  0  0  0  0  0  0  0  0  0  0
    7.2961  -14.9784   24.8177 C   0  0  0  0  0  0  0  0  0  0  0  0
    6.4213  -15.7036   25.5949 C   0  0  0  0  0  0  0  0  0  0  0  0
    5.9320  -14.9257   26.5872 N   0  0  0  0  0  0  0  0  0  0  0  0
    6.4717  -13.6924   26.4779 C   0  0  0  0  0  0  0  0  0  0  0  0
    6.3005  -12.5561   27.2328 C   0  0  0  0  0  0  0  0  0  0  0  0
    6.9755  -11.3941   26.9174 C   0  0  0  0  0  0  0  0  0  0  0  0
    7.8177  -11.4100   25.8328 C   0  0  0  0  0  0  0  0  0  0  0  0
    7.9919  -12.5451   25.0747 C   0  0  0  0  0  0  0  0  0  0  0  0
    7.3282  -13.7163   25.3713 C   0  0  0  0  0  0  0  0  0  0  0  0
   10.0051  -16.6619   24.5735 C   0  0  0  0  0  0  0  0  0  0  0  0
   10.1170  -16.6705   25.9475 O   0  0  0  0  0  0  0  0  0  0  0  0
   10.3192  -17.7023   23.9435 O   0  0  0  0  0  0  0  0  0  0  0  0
  2  3  1  0
  2  1  1  6
  3  4  1  0
  4  5  1  0
  5  9  1  0
  5  6  2  0
  7 14  1  0
  7  2  1  0
  8  7  2  0
 11 10  1  6
 12 11  1  0
 13 11  1  0
 13 14  1  1
 13 15  1  0
 15 17  1  0
 16 15  2  0
 17 18  1  0
 18 19  1  6
 19 20  1  0
 20 21  2  0
 20 28  1  0
 21 22  1  0
 22 23  1  0
 23 24  2  0
 24 25  1  0
 26 25  2  0
 27 26  1  0
 28 27  2  0
 28 23  1  0
 29 30  1  0
 29 18  1  0
 31 29  2  0
M  END
$$$$
