EVW.pdb
     RDKit          3D

 31 32  0  0  1  0  0  0  0  0999 V2000
    7.7588  -17.0612   18.3377 N   0  0  0  0  0  0  0  0  0  0  0  0
    8.5655  -16.5087   19.4137 C   0  0  1  0  0  0  0  0  0  0  0  0
    8.3298  -15.0117   19.4044 C   0  0  0  0  0  0  0  0  0  0  0  0
    8.8802  -14.3800   18.1460 C   0  0  0  0  0  0  0  0  0  0  0  0
    8.6567  -12.9326   18.1923 C   0  0  0  0  0  0  0  0  0  0  0  0
    9.2657  -12.2325   19.0349 O   0  0  0  0  0  0  0  0  0  0  0  0
    8.2316  -17.1196   20.7101 C   0  0  0  0  0  0  0  0  0  0  0  0
    7.0555  -17.4979   20.9231 O   0  0  0  0  0  0  0  0  0  0  0  0
    7.7831  -12.2753   17.3303 O   0  0  0  0  0  0  0  0  0  0  0  0
   10.8023  -19.5720   22.8090 C   0  0  0  0  0  0  0  0  0  0  0  0
    9.3234  -19.3571   23.0441 C   0  0  2  0  0  0  0  0  0  0  0  0
    8.4860  -20.1685   22.0741 C   0  0  0  0  0  0  0  0  0  0  0  0
    8.9667  -17.8889   22.9940 C   0  0  2  0  0  0  0  0  0  0  0  0
    9.2163  -17.2867   21.7195 N   0  0  0  0  0  0  0  0  0  0  0  0
    9.6813  -17.1756   24.0847 C   0  0  0  0  0  0  0  0  0  0  0  0
   10.7706  -16.5883   23.8474 O   0  0  0  0  0  0  0  0  0  0  0  0
    9.1728  -17.1326   25.4002 N   0  0  0  0  0  0  0  0  0  0  0  0
    9.8406  -16.4584   26.4968 C   0  0  1  0  0  0  0  0  0  0  0  0
    8.7902  -15.8317   27.3871 C   0  0  0  0  0  0  0  0  0  0  0  0
    7.7318  -15.1568   26.6345 C   0  0  0  0  0  0  0  0  0  0  0  0
    6.6718  -15.7639   25.9996 C   0  0  0  0  0  0  0  0  0  0  0  0
    5.8938  -14.8305   25.4058 N   0  0  0  0  0  0  0  0  0  0  0  0
    6.4248  -13.6107   25.6389 C   0  0  0  0  0  0  0  0  0  0  0  0
    6.0168  -12.3546   25.2569 C   0  0  0  0  0  0  0  0  0  0  0  0
    6.7400  -11.2381   25.6253 C   0  0  0  0  0  0  0  0  0  0  0  0
    7.8722  -11.4216   26.3806 C   0  0  0  0  0  0  0  0  0  0  0  0
    8.2840  -12.6771   26.7650 C   0  0  0  0  0  0  0  0  0  0  0  0
    7.5774  -13.8057   26.4085 C   0  0  0  0  0  0  0  0  0  0  0  0
   10.7334  -17.3760   27.2442 C   0  0  0  0  0  0  0  0  0  0  0  0
   11.6382  -16.9017   28.1698 O   0  0  0  0  0  0  0  0  0  0  0  0
   10.6796  -18.6149   27.0439 O   0  0  0  0  0  0  0  0  0  0  0  0
  2  3  1  0
  2  1  1  6
  3  4  1  0
  4  5  1  0
  5  9  1  0
  5  6  2  0
  7 14  1  0
  7  2  1  0
  8  7  2  0
 11 10  1  6
 12 11  1  0
 13 11  1  0
 13 14  1  6
 13 15  1  0
 15 17  1  0
 16 15  2  0
 17 18  1  0
 18 19  1  1
 19 20  1  0
 20 21  2  0
 20 28  1  0
 21 22  1  0
 22 23  1  0
 23 24  2  0
 24 25  1  0
 26 25  2  0
 27 26  1  0
 28 27  2  0
 28 23  1  0
 29 30  1  0
 29 18  1  0
 31 29  2  0
M  END
$$$$
