MRQ.pdb
     RDKit          3D

 29 28  0  0  1  0  0  0  0  0999 V2000
    4.5227  -11.1917   27.8036 C   0  0  0  0  0  0  0  0  0  0  0  0
    6.1295  -10.9454   27.0572 S   0  0  0  0  0  0  0  0  0  0  0  0
    7.1512  -12.4046   26.9216 C   0  0  0  0  0  0  0  0  0  0  0  0
    6.4172  -13.6603   26.6263 C   0  0  0  0  0  0  0  0  0  0  0  0
    7.2560  -14.8978   26.5410 C   0  0  2  0  0  0  0  0  0  0  0  0
    8.6301  -14.4995   26.8154 N   0  0  0  0  0  0  0  0  0  0  0  0
    7.2317  -15.4888   25.1721 C   0  0  0  0  0  0  0  0  0  0  0  0
    6.3337  -16.2877   24.8106 O   0  0  0  0  0  0  0  0  0  0  0  0
    8.8058  -13.9865   17.1748 N   0  0  0  0  0  0  0  0  0  0  0  0
    8.4939  -13.1775   18.3084 C   0  0  0  0  0  0  0  0  0  0  0  0
    8.9557  -11.9900   18.4116 N   0  0  0  0  0  0  0  0  0  0  0  0
    7.6629  -13.7256   19.3083 N   0  0  0  0  0  0  0  0  0  0  0  0
    7.4621  -15.1781   19.3290 C   0  0  0  0  0  0  0  0  0  0  0  0
    8.2270  -15.7989   20.4480 C   0  0  0  0  0  0  0  0  0  0  0  0
    8.1935  -15.1143   21.7573 C   0  0  0  0  0  0  0  0  0  0  0  0
    8.3839  -15.9305   22.9867 C   0  0  2  0  0  0  0  0  0  0  0  0
    8.2385  -15.1772   24.1818 N   0  0  0  0  0  0  0  0  0  0  0  0
    9.7395  -16.5995   22.9758 C   0  0  0  0  0  0  0  0  0  0  0  0
   10.7573  -15.9027   23.2180 O   0  0  0  0  0  0  0  0  0  0  0  0
    8.7351  -11.4336   19.2469 N   0  0  0  0  0  0  0  0  0  0  0  0
   11.4472  -18.5052   27.1175 C   0  0  0  0  0  0  0  0  0  0  0  0
   11.7755  -19.7946   26.6306 O   0  0  0  0  0  0  0  0  0  0  0  0
   12.5701  -20.4906   27.2919 C   0  0  0  0  0  0  0  0  0  0  0  0
   11.1962  -20.2854   25.3891 C   0  0  0  0  0  0  0  0  0  0  0  0
   10.2710  -19.3667   24.6632 C   0  0  1  0  0  0  0  0  0  0  0  0
   10.8776  -18.7799   23.4491 N   0  0  0  0  0  0  0  0  0  0  0  0
    9.9225  -17.9579   22.7091 C   0  0  0  0  0  0  0  0  0  0  0  0
   11.3837  -19.7841   22.5262 O   0  0  0  0  0  0  0  0  0  0  0  0
   10.6656  -20.2605   21.6192 O   0  0  0  0  0  0  0  0  0  0  0  0
  2  3  1  0
  2  1  1  0
  4  5  1  0
  4  3  1  0
  5  6  1  6
  7  8  2  0
  7  5  1  0
  9 10  1  0
 10 12  1  0
 11 10  2  0
 12 13  1  0
 13 14  1  0
 14 15  1  0
 16 15  1  6
 16 17  1  0
 17  7  1  0
 18 16  1  0
 19 18  2  0
 20 21  1  0
 21 23  1  0
 21 22  2  0
 23 24  1  0
 25 24  1  1
 25 27  1  0
 25 26  1  0
 26 18  1  0
 27 29  1  0
 28 27  2  0
M  END
$$$$
