MRQ.pdb
     RDKit          3D

 29 28  0  0  1  0  0  0  0  0999 V2000
    6.6501  -10.7396   26.6541 C   0  0  0  0  0  0  0  0  0  0  0  0
    6.5377  -12.3148   27.4942 S   0  0  0  0  0  0  0  0  0  0  0  0
    6.0578  -13.7019   26.4758 C   0  0  0  0  0  0  0  0  0  0  0  0
    7.1775  -14.3994   25.7959 C   0  0  0  0  0  0  0  0  0  0  0  0
    6.7852  -15.5142   24.8763 C   0  0  2  0  0  0  0  0  0  0  0  0
    6.2019  -16.5620   25.7035 N   0  0  0  0  0  0  0  0  0  0  0  0
    7.9682  -16.1032   24.1853 C   0  0  0  0  0  0  0  0  0  0  0  0
    8.4549  -17.2078   24.5292 O   0  0  0  0  0  0  0  0  0  0  0  0
    8.5662  -12.7311   18.5828 N   0  0  0  0  0  0  0  0  0  0  0  0
    8.1562  -13.7042   17.6228 C   0  0  0  0  0  0  0  0  0  0  0  0
    7.2931  -13.4146   16.7254 N   0  0  0  0  0  0  0  0  0  0  0  0
    8.7303  -14.9911   17.6933 N   0  0  0  0  0  0  0  0  0  0  0  0
    9.7671  -15.2377   18.7006 C   0  0  0  0  0  0  0  0  0  0  0  0
    9.2125  -15.0808   20.0756 C   0  0  0  0  0  0  0  0  0  0  0  0
   10.1508  -15.2244   21.2083 C   0  0  0  0  0  0  0  0  0  0  0  0
    9.7178  -16.0213   22.3879 C   0  0  2  0  0  0  0  0  0  0  0  0
    8.6232  -15.4388   23.0804 N   0  0  0  0  0  0  0  0  0  0  0  0
   10.8698  -16.2213   23.3461 C   0  0  0  0  0  0  0  0  0  0  0  0
   11.3652  -15.2139   23.9115 O   0  0  0  0  0  0  0  0  0  0  0  0
    7.0106  -14.1326   16.0466 N   0  0  0  0  0  0  0  0  0  0  0  0
   12.0129  -18.8520   29.6206 C   0  0  0  0  0  0  0  0  0  0  0  0
   11.4769  -19.0273   28.3208 O   0  0  0  0  0  0  0  0  0  0  0  0
   10.3678  -19.5846   28.2099 C   0  0  0  0  0  0  0  0  0  0  0  0
   12.2097  -18.5667   27.1508 C   0  0  0  0  0  0  0  0  0  0  0  0
   11.4028  -18.0733   25.9966 C   0  0  1  0  0  0  0  0  0  0  0  0
   12.2319  -17.7136   24.8263 N   0  0  0  0  0  0  0  0  0  0  0  0
   11.4165  -17.4727   23.6378 C   0  0  0  0  0  0  0  0  0  0  0  0
   13.2003  -18.7426   24.4800 O   0  0  0  0  0  0  0  0  0  0  0  0
   14.1565  -19.0226   25.2366 O   0  0  0  0  0  0  0  0  0  0  0  0
  2  3  1  0
  2  1  1  0
  4  5  1  0
  4  3  1  0
  5  6  1  1
  7  8  2  0
  7  5  1  0
  9 10  1  0
 10 12  1  0
 11 10  2  0
 12 13  1  0
 13 14  1  0
 14 15  1  0
 16 15  1  6
 16 17  1  0
 17  7  1  0
 18 16  1  0
 19 18  2  0
 20 21  1  0
 21 23  1  0
 21 22  2  0
 23 24  1  0
 25 24  1  1
 25 27  1  0
 25 26  1  0
 26 18  1  0
 27 29  1  0
 28 27  2  0
M  END
$$$$
