MRQ.pdb
     RDKit          3D

 29 28  0  0  1  0  0  0  0  0999 V2000
    6.7824  -10.7827   24.9951 C   0  0  0  0  0  0  0  0  0  0  0  0
    5.9125  -11.2237   26.4947 S   0  0  0  0  0  0  0  0  0  0  0  0
    4.9920  -12.7536   26.4332 C   0  0  0  0  0  0  0  0  0  0  0  0
    5.5307  -13.7740   25.4998 C   0  0  0  0  0  0  0  0  0  0  0  0
    6.6469  -14.6174   26.0338 C   0  0  2  0  0  0  0  0  0  0  0  0
    7.7105  -13.7079   26.4387 N   0  0  0  0  0  0  0  0  0  0  0  0
    7.2095  -15.5176   24.9864 C   0  0  0  0  0  0  0  0  0  0  0  0
    6.5847  -16.5241   24.5719 O   0  0  0  0  0  0  0  0  0  0  0  0
    8.6359  -12.3098   19.2505 N   0  0  0  0  0  0  0  0  0  0  0  0
    8.0783  -13.4296   18.5637 C   0  0  0  0  0  0  0  0  0  0  0  0
    7.2120  -13.2643   17.6383 N   0  0  0  0  0  0  0  0  0  0  0  0
    8.5106  -14.7203   18.9350 N   0  0  0  0  0  0  0  0  0  0  0  0
    9.5051  -14.8412   20.0058 C   0  0  0  0  0  0  0  0  0  0  0  0
    8.8757  -15.3658   21.2513 C   0  0  0  0  0  0  0  0  0  0  0  0
    9.7741  -15.7271   22.3678 C   0  0  0  0  0  0  0  0  0  0  0  0
    9.1696  -16.2727   23.6131 C   0  0  2  0  0  0  0  0  0  0  0  0
    8.5049  -15.2848   24.3871 N   0  0  0  0  0  0  0  0  0  0  0  0
   10.2209  -16.9522   24.4607 C   0  0  0  0  0  0  0  0  0  0  0  0
   11.0312  -16.2376   25.1032 O   0  0  0  0  0  0  0  0  0  0  0  0
    6.8506  -14.0830   17.1333 N   0  0  0  0  0  0  0  0  0  0  0  0
    7.7610  -21.3105   27.8673 C   0  0  0  0  0  0  0  0  0  0  0  0
    9.0811  -21.2322   28.3758 O   0  0  0  0  0  0  0  0  0  0  0  0
    9.3550  -21.8739   29.4083 C   0  0  0  0  0  0  0  0  0  0  0  0
   10.0848  -20.4201   27.7041 C   0  0  0  0  0  0  0  0  0  0  0  0
    9.6627  -19.7132   26.4595 C   0  0  1  0  0  0  0  0  0  0  0  0
   10.7743  -18.9950   25.8001 N   0  0  0  0  0  0  0  0  0  0  0  0
   10.3408  -18.3393   24.5682 C   0  0  0  0  0  0  0  0  0  0  0  0
   11.8858  -19.8670   25.4529 O   0  0  0  0  0  0  0  0  0  0  0  0
   11.9289  -20.4670   24.3560 O   0  0  0  0  0  0  0  0  0  0  0  0
  2  3  1  0
  2  1  1  0
  4  5  1  0
  4  3  1  0
  5  6  1  6
  7  8  2  0
  7  5  1  0
  9 10  1  0
 10 12  1  0
 11 10  2  0
 12 13  1  0
 13 14  1  0
 14 15  1  0
 16 15  1  6
 16 17  1  0
 17  7  1  0
 18 16  1  0
 19 18  2  0
 20 21  1  0
 21 23  1  0
 21 22  2  0
 23 24  1  0
 25 24  1  1
 25 27  1  0
 25 26  1  0
 26 18  1  0
 27 29  1  0
 28 27  2  0
M  END
$$$$
