MRQ.pdb
     RDKit          3D

 29 28  0  0  1  0  0  0  0  0999 V2000
    7.9762  -11.3910   27.2284 C   0  0  0  0  0  0  0  0  0  0  0  0
    6.2649  -11.6535   26.7786 S   0  0  0  0  0  0  0  0  0  0  0  0
    5.9002  -13.2232   26.0075 C   0  0  0  0  0  0  0  0  0  0  0  0
    7.0805  -13.9568   25.4867 C   0  0  0  0  0  0  0  0  0  0  0  0
    6.7817  -15.2149   24.7316 C   0  0  2  0  0  0  0  0  0  0  0  0
    6.1629  -16.1386   25.6729 N   0  0  0  0  0  0  0  0  0  0  0  0
    8.0251  -15.8650   24.2265 C   0  0  0  0  0  0  0  0  0  0  0  0
    8.6464  -16.7218   24.9011 O   0  0  0  0  0  0  0  0  0  0  0  0
    8.1308  -12.5530   18.6112 N   0  0  0  0  0  0  0  0  0  0  0  0
    7.4946  -13.6212   17.9107 C   0  0  0  0  0  0  0  0  0  0  0  0
    6.4027  -13.4278   17.2746 N   0  0  0  0  0  0  0  0  0  0  0  0
    8.1049  -14.8929   17.9406 N   0  0  0  0  0  0  0  0  0  0  0  0
    9.3190  -15.0648   18.7449 C   0  0  0  0  0  0  0  0  0  0  0  0
    8.9763  -15.5080   20.1264 C   0  0  0  0  0  0  0  0  0  0  0  0
   10.0965  -15.7891   21.0485 C   0  0  0  0  0  0  0  0  0  0  0  0
    9.7790  -16.1560   22.4551 C   0  0  2  0  0  0  0  0  0  0  0  0
    8.5874  -15.5482   22.9323 N   0  0  0  0  0  0  0  0  0  0  0  0
   10.9276  -15.7974   23.3701 C   0  0  0  0  0  0  0  0  0  0  0  0
   10.8115  -14.7939   24.1181 O   0  0  0  0  0  0  0  0  0  0  0  0
    5.9880  -14.1996   16.7375 N   0  0  0  0  0  0  0  0  0  0  0  0
   10.6153  -19.9080   26.8227 C   0  0  0  0  0  0  0  0  0  0  0  0
   11.7599  -19.3201   27.4157 O   0  0  0  0  0  0  0  0  0  0  0  0
   12.2218  -19.8399   28.4499 C   0  0  0  0  0  0  0  0  0  0  0  0
   12.3734  -18.1392   26.8266 C   0  0  0  0  0  0  0  0  0  0  0  0
   11.7517  -17.6026   25.5807 C   0  0  1  0  0  0  0  0  0  0  0  0
   12.7262  -16.9314   24.6939 N   0  0  0  0  0  0  0  0  0  0  0  0
   12.1177  -16.5254   23.4288 C   0  0  0  0  0  0  0  0  0  0  0  0
   13.8692  -17.7709   24.3695 O   0  0  0  0  0  0  0  0  0  0  0  0
   13.9266  -18.4125   23.2970 O   0  0  0  0  0  0  0  0  0  0  0  0
  2  3  1  0
  2  1  1  0
  4  5  1  0
  4  3  1  0
  5  6  1  1
  7  8  2  0
  7  5  1  0
  9 10  1  0
 10 12  1  0
 11 10  2  0
 12 13  1  0
 13 14  1  0
 14 15  1  0
 16 15  1  6
 16 17  1  0
 17  7  1  0
 18 16  1  0
 19 18  2  0
 20 21  1  0
 21 23  1  0
 21 22  2  0
 23 24  1  0
 25 24  1  1
 25 27  1  0
 25 26  1  0
 26 18  1  0
 27 29  1  0
 28 27  2  0
M  END
$$$$
