MRQ.pdb
     RDKit          3D

 29 28  0  0  1  0  0  0  0  0999 V2000
    6.5139  -11.1053   26.7379 C   0  0  0  0  0  0  0  0  0  0  0  0
    6.3240  -12.1849   28.1515 S   0  0  0  0  0  0  0  0  0  0  0  0
    6.0792  -13.9143   27.7764 C   0  0  0  0  0  0  0  0  0  0  0  0
    6.6523  -14.3640   26.4834 C   0  0  0  0  0  0  0  0  0  0  0  0
    6.3843  -15.7907   26.1157 C   0  0  2  0  0  0  0  0  0  0  0  0
    7.0504  -16.6187   27.1122 N   0  0  0  0  0  0  0  0  0  0  0  0
    6.9692  -16.1388   24.7888 C   0  0  0  0  0  0  0  0  0  0  0  0
    7.8067  -17.0640   24.6555 O   0  0  0  0  0  0  0  0  0  0  0  0
    9.5881  -12.6738   18.6856 N   0  0  0  0  0  0  0  0  0  0  0  0
    9.1363  -13.5140   17.6242 C   0  0  0  0  0  0  0  0  0  0  0  0
    9.9092  -13.8099   16.6499 N   0  0  0  0  0  0  0  0  0  0  0  0
    7.8156  -14.0070   17.6823 N   0  0  0  0  0  0  0  0  0  0  0  0
    7.0484  -13.8015   18.9150 C   0  0  0  0  0  0  0  0  0  0  0  0
    7.6296  -14.5959   20.0347 C   0  0  0  0  0  0  0  0  0  0  0  0
    6.8480  -14.6810   21.2861 C   0  0  0  0  0  0  0  0  0  0  0  0
    7.3582  -15.5508   22.3802 C   0  0  2  0  0  0  0  0  0  0  0  0
    6.6067  -15.4333   23.5795 N   0  0  0  0  0  0  0  0  0  0  0  0
    8.8115  -15.2483   22.6658 C   0  0  0  0  0  0  0  0  0  0  0  0
    9.0918  -14.2379   23.3591 O   0  0  0  0  0  0  0  0  0  0  0  0
    9.5491  -14.3819   15.8758 N   0  0  0  0  0  0  0  0  0  0  0  0
   13.5170  -19.2461   25.5261 C   0  0  0  0  0  0  0  0  0  0  0  0
   12.7065  -18.0940   25.6776 O   0  0  0  0  0  0  0  0  0  0  0  0
   12.1231  -17.9216   26.7652 C   0  0  0  0  0  0  0  0  0  0  0  0
   12.5635  -17.1421   24.5861 C   0  0  0  0  0  0  0  0  0  0  0  0
   11.2017  -16.9874   23.9959 C   0  0  1  0  0  0  0  0  0  0  0  0
   11.1748  -16.0581   22.8460 N   0  0  0  0  0  0  0  0  0  0  0  0
    9.8654  -16.0358   22.1977 C   0  0  0  0  0  0  0  0  0  0  0  0
   12.1535  -16.3934   21.8232 O   0  0  0  0  0  0  0  0  0  0  0  0
   11.8049  -16.7770   20.6845 O   0  0  0  0  0  0  0  0  0  0  0  0
  2  3  1  0
  2  1  1  0
  4  5  1  0
  4  3  1  0
  5  6  1  1
  7  8  2  0
  7  5  1  0
  9 10  1  0
 10 12  1  0
 11 10  2  0
 12 13  1  0
 13 14  1  0
 14 15  1  0
 16 15  1  6
 16 17  1  0
 17  7  1  0
 18 16  1  0
 19 18  2  0
 20 21  1  0
 21 23  1  0
 21 22  2  0
 23 24  1  0
 25 24  1  1
 25 27  1  0
 25 26  1  0
 26 18  1  0
 27 29  1  0
 28 27  2  0
M  END
$$$$
