MRQ.pdb
     RDKit          3D

 29 28  0  0  1  0  0  0  0  0999 V2000
    6.5230  -11.4726   25.7865 C   0  0  0  0  0  0  0  0  0  0  0  0
    7.0357  -12.2635   27.3068 S   0  0  0  0  0  0  0  0  0  0  0  0
    7.0582  -14.0497   27.2799 C   0  0  0  0  0  0  0  0  0  0  0  0
    6.1346  -14.6750   26.3009 C   0  0  0  0  0  0  0  0  0  0  0  0
    6.6178  -15.9454   25.6723 C   0  0  2  0  0  0  0  0  0  0  0  0
    7.8759  -16.2889   26.3215 N   0  0  0  0  0  0  0  0  0  0  0  0
    6.9033  -15.7695   24.2193 C   0  0  0  0  0  0  0  0  0  0  0  0
    5.9894  -15.7720   23.3589 O   0  0  0  0  0  0  0  0  0  0  0  0
    7.1907  -12.8288   16.7662 N   0  0  0  0  0  0  0  0  0  0  0  0
    8.0046  -13.9803   16.9863 C   0  0  0  0  0  0  0  0  0  0  0  0
    8.2721  -14.7848   16.0296 N   0  0  0  0  0  0  0  0  0  0  0  0
    8.5039  -14.2031   18.2869 N   0  0  0  0  0  0  0  0  0  0  0  0
    8.0704  -13.3065   19.3633 C   0  0  0  0  0  0  0  0  0  0  0  0
    8.8102  -13.6014   20.6235 C   0  0  0  0  0  0  0  0  0  0  0  0
    8.0439  -14.1937   21.7398 C   0  0  0  0  0  0  0  0  0  0  0  0
    8.5265  -15.4722   22.3284 C   0  0  2  0  0  0  0  0  0  0  0  0
    8.2465  -15.5855   23.7161 N   0  0  0  0  0  0  0  0  0  0  0  0
   10.0120  -15.6350   22.1002 C   0  0  0  0  0  0  0  0  0  0  0  0
   10.7227  -14.6033   21.9987 O   0  0  0  0  0  0  0  0  0  0  0  0
    8.8682  -15.6024   16.2095 N   0  0  0  0  0  0  0  0  0  0  0  0
   11.8998  -20.1092   26.9509 C   0  0  0  0  0  0  0  0  0  0  0  0
   11.3654  -18.8953   26.4527 O   0  0  0  0  0  0  0  0  0  0  0  0
   10.4142  -18.3734   27.0658 C   0  0  0  0  0  0  0  0  0  0  0  0
   11.9181  -18.2810   25.2547 C   0  0  0  0  0  0  0  0  0  0  0  0
   10.9487  -17.8479   24.2062 C   0  0  2  0  0  0  0  0  0  0  0  0
   11.6101  -17.3509   22.9806 N   0  0  0  0  0  0  0  0  0  0  0  0
   10.6403  -16.8777   21.9953 C   0  0  0  0  0  0  0  0  0  0  0  0
   12.4261  -18.3624   22.3269 O   0  0  0  0  0  0  0  0  0  0  0  0
   13.5942  -18.6050   22.7038 O   0  0  0  0  0  0  0  0  0  0  0  0
  2  3  1  0
  2  1  1  0
  4  5  1  0
  4  3  1  0
  5  6  1  1
  7  8  2  0
  7  5  1  0
  9 10  1  0
 10 12  1  0
 11 10  2  0
 12 13  1  0
 13 14  1  0
 14 15  1  0
 16 15  1  1
 16 17  1  0
 17  7  1  0
 18 16  1  0
 19 18  2  0
 20 21  1  0
 21 23  1  0
 21 22  2  0
 23 24  1  0
 25 24  1  1
 25 27  1  0
 25 26  1  0
 26 18  1  0
 27 29  1  0
 28 27  2  0
M  END
$$$$
