MRQ.pdb
     RDKit          3D

 29 28  0  0  1  0  0  0  0  0999 V2000
    7.3337  -11.2861   26.5289 C   0  0  0  0  0  0  0  0  0  0  0  0
    7.1645  -12.2604   28.0195 S   0  0  0  0  0  0  0  0  0  0  0  0
    6.7958  -13.9912   27.7743 C   0  0  0  0  0  0  0  0  0  0  0  0
    7.3457  -14.5803   26.5281 C   0  0  0  0  0  0  0  0  0  0  0  0
    6.8743  -15.9635   26.2009 C   0  0  2  0  0  0  0  0  0  0  0  0
    7.3123  -16.8297   27.2872 N   0  0  0  0  0  0  0  0  0  0  0  0
    7.4966  -16.4774   24.9469 C   0  0  0  0  0  0  0  0  0  0  0  0
    8.3182  -17.4262   24.9550 O   0  0  0  0  0  0  0  0  0  0  0  0
    7.1086  -12.8296   18.9265 N   0  0  0  0  0  0  0  0  0  0  0  0
    8.0825  -13.3750   18.0373 C   0  0  0  0  0  0  0  0  0  0  0  0
    8.8833  -12.6119   17.3965 N   0  0  0  0  0  0  0  0  0  0  0  0
    8.1354  -14.7769   17.8875 N   0  0  0  0  0  0  0  0  0  0  0  0
    7.2322  -15.5993   18.6989 C   0  0  0  0  0  0  0  0  0  0  0  0
    7.9172  -16.0675   19.9374 C   0  0  0  0  0  0  0  0  0  0  0  0
    7.2641  -15.7714   21.2297 C   0  0  0  0  0  0  0  0  0  0  0  0
    7.8820  -16.3069   22.4728 C   0  0  2  0  0  0  0  0  0  0  0  0
    7.1909  -15.9151   23.6501 N   0  0  0  0  0  0  0  0  0  0  0  0
    9.3288  -15.8804   22.5736 C   0  0  0  0  0  0  0  0  0  0  0  0
    9.5893  -14.7330   23.0160 O   0  0  0  0  0  0  0  0  0  0  0  0
    9.4780  -13.0100   16.6589 N   0  0  0  0  0  0  0  0  0  0  0  0
   13.8991  -19.3032   24.9146 C   0  0  0  0  0  0  0  0  0  0  0  0
   14.5951  -18.2201   24.3230 O   0  0  0  0  0  0  0  0  0  0  0  0
   15.8239  -18.1342   24.5123 C   0  0  0  0  0  0  0  0  0  0  0  0
   13.8857  -17.2373   23.5176 C   0  0  0  0  0  0  0  0  0  0  0  0
   12.4235  -17.4555   23.3147 C   0  0  1  0  0  0  0  0  0  0  0  0
   11.7835  -16.3764   22.5322 N   0  0  0  0  0  0  0  0  0  0  0  0
   10.3974  -16.6975   22.1990 C   0  0  0  0  0  0  0  0  0  0  0  0
   12.4716  -16.0990   21.2808 O   0  0  0  0  0  0  0  0  0  0  0  0
   12.1116  -16.6268   20.2051 O   0  0  0  0  0  0  0  0  0  0  0  0
  2  3  1  0
  2  1  1  0
  4  5  1  0
  4  3  1  0
  5  6  1  1
  7  8  2  0
  7  5  1  0
  9 10  1  0
 10 12  1  0
 11 10  2  0
 12 13  1  0
 13 14  1  0
 14 15  1  0
 16 15  1  6
 16 17  1  0
 17  7  1  0
 18 16  1  0
 19 18  2  0
 20 21  1  0
 21 23  1  0
 21 22  2  0
 23 24  1  0
 25 24  1  1
 25 27  1  0
 25 26  1  0
 26 18  1  0
 27 29  1  0
 28 27  2  0
M  END
$$$$
