MRQ.pdb
     RDKit          3D

 29 28  0  0  1  0  0  0  0  0999 V2000
    4.8496  -11.8546   25.8586 C   0  0  0  0  0  0  0  0  0  0  0  0
    6.2846  -12.3836   26.7865 S   0  0  0  0  0  0  0  0  0  0  0  0
    6.6900  -14.1189   26.6609 C   0  0  0  0  0  0  0  0  0  0  0  0
    6.5721  -14.6946   25.2981 C   0  0  0  0  0  0  0  0  0  0  0  0
    6.8910  -16.1530   25.1796 C   0  0  2  0  0  0  0  0  0  0  0  0
    8.2661  -16.3250   25.6288 N   0  0  0  0  0  0  0  0  0  0  0  0
    6.8261  -16.6199   23.7649 C   0  0  0  0  0  0  0  0  0  0  0  0
    5.7617  -16.5779   23.1010 O   0  0  0  0  0  0  0  0  0  0  0  0
    8.4634  -13.5697   17.3557 N   0  0  0  0  0  0  0  0  0  0  0  0
    8.8233  -12.8108   18.5095 C   0  0  0  0  0  0  0  0  0  0  0  0
    9.5898  -11.7926   18.4099 N   0  0  0  0  0  0  0  0  0  0  0  0
    8.3092  -13.2162   19.7593 N   0  0  0  0  0  0  0  0  0  0  0  0
    7.5143  -14.4471   19.8200 C   0  0  0  0  0  0  0  0  0  0  0  0
    7.2421  -14.8280   21.2354 C   0  0  0  0  0  0  0  0  0  0  0  0
    8.4021  -14.9471   22.1433 C   0  0  0  0  0  0  0  0  0  0  0  0
    8.9327  -16.3057   22.4375 C   0  0  2  0  0  0  0  0  0  0  0  0
    7.9826  -17.1471   23.0750 N   0  0  0  0  0  0  0  0  0  0  0  0
   10.1777  -16.2168   23.2903 C   0  0  0  0  0  0  0  0  0  0  0  0
   11.2073  -15.6878   22.8003 O   0  0  0  0  0  0  0  0  0  0  0  0
    9.8862  -11.2989   19.2610 N   0  0  0  0  0  0  0  0  0  0  0  0
   10.1036  -14.8843   29.4010 C   0  0  0  0  0  0  0  0  0  0  0  0
   11.4752  -15.0867   29.1095 O   0  0  0  0  0  0  0  0  0  0  0  0
   12.3100  -14.8490   30.0037 C   0  0  0  0  0  0  0  0  0  0  0  0
   11.8900  -15.5590   27.7969 C   0  0  0  0  0  0  0  0  0  0  0  0
   10.8137  -15.7962   26.7908 C   0  0  1  0  0  0  0  0  0  0  0  0
   11.3288  -16.3307   25.5119 N   0  0  0  0  0  0  0  0  0  0  0  0
   10.2456  -16.6941   24.6009 C   0  0  0  0  0  0  0  0  0  0  0  0
   12.1580  -17.5134   25.6848 O   0  0  0  0  0  0  0  0  0  0  0  0
   11.7008  -18.6646   25.5093 O   0  0  0  0  0  0  0  0  0  0  0  0
  2  3  1  0
  2  1  1  0
  4  5  1  0
  4  3  1  0
  5  6  1  6
  7  8  2  0
  7  5  1  0
  9 10  1  0
 10 12  1  0
 11 10  2  0
 12 13  1  0
 13 14  1  0
 14 15  1  0
 16 15  1  1
 16 17  1  0
 17  7  1  0
 18 16  1  0
 19 18  2  0
 20 21  1  0
 21 23  1  0
 21 22  2  0
 23 24  1  0
 25 24  1  6
 25 27  1  0
 25 26  1  0
 26 18  1  0
 27 29  1  0
 28 27  2  0
M  END
$$$$
