MRQ.pdb
     RDKit          3D

 29 28  0  0  1  0  0  0  0  0999 V2000
    7.4507  -11.6285   26.4012 C   0  0  0  0  0  0  0  0  0  0  0  0
    6.1363  -12.6456   27.0627 S   0  0  0  0  0  0  0  0  0  0  0  0
    6.6172  -14.2826   27.5923 C   0  0  0  0  0  0  0  0  0  0  0  0
    7.4443  -15.0398   26.6202 C   0  0  0  0  0  0  0  0  0  0  0  0
    6.7110  -16.0482   25.7908 C   0  0  2  0  0  0  0  0  0  0  0  0
    6.4066  -17.1749   26.6626 N   0  0  0  0  0  0  0  0  0  0  0  0
    7.5556  -16.5668   24.6765 C   0  0  0  0  0  0  0  0  0  0  0  0
    8.1694  -17.6582   24.7622 O   0  0  0  0  0  0  0  0  0  0  0  0
    7.5109  -14.1232   16.4267 N   0  0  0  0  0  0  0  0  0  0  0  0
    7.6915  -13.4498   17.6719 C   0  0  0  0  0  0  0  0  0  0  0  0
    7.5735  -12.1794   17.7517 N   0  0  0  0  0  0  0  0  0  0  0  0
    8.0026  -14.2255   18.8086 N   0  0  0  0  0  0  0  0  0  0  0  0
    9.1097  -15.1828   18.7176 C   0  0  0  0  0  0  0  0  0  0  0  0
    9.1916  -16.0113   19.9543 C   0  0  0  0  0  0  0  0  0  0  0  0
    8.4323  -15.5487   21.1348 C   0  0  0  0  0  0  0  0  0  0  0  0
    8.6185  -16.2711   22.4223 C   0  0  2  0  0  0  0  0  0  0  0  0
    7.7169  -15.8452   23.4336 N   0  0  0  0  0  0  0  0  0  0  0  0
   10.0385  -16.1174   22.9174 C   0  0  0  0  0  0  0  0  0  0  0  0
   10.3699  -15.0393   23.4723 O   0  0  0  0  0  0  0  0  0  0  0  0
    7.7696  -11.7094   18.6443 N   0  0  0  0  0  0  0  0  0  0  0  0
   13.1253  -20.6245   25.7112 C   0  0  0  0  0  0  0  0  0  0  0  0
   12.6525  -19.4578   26.3613 O   0  0  0  0  0  0  0  0  0  0  0  0
   12.4641  -19.5032   27.5923 C   0  0  0  0  0  0  0  0  0  0  0  0
   12.3949  -18.2424   25.6034 C   0  0  0  0  0  0  0  0  0  0  0  0
   12.6608  -18.2898   24.1357 C   0  0  2  0  0  0  0  0  0  0  0  0
   12.3105  -17.0295   23.4462 N   0  0  0  0  0  0  0  0  0  0  0  0
   11.0075  -17.1148   22.7902 C   0  0  0  0  0  0  0  0  0  0  0  0
   13.2787  -16.6523   22.4281 O   0  0  0  0  0  0  0  0  0  0  0  0
   14.3569  -16.0921   22.7259 O   0  0  0  0  0  0  0  0  0  0  0  0
  2  3  1  0
  2  1  1  0
  4  5  1  0
  4  3  1  0
  5  6  1  1
  7  8  2  0
  7  5  1  0
  9 10  1  0
 10 12  1  0
 11 10  2  0
 12 13  1  0
 13 14  1  0
 14 15  1  0
 16 15  1  6
 16 17  1  0
 17  7  1  0
 18 16  1  0
 19 18  2  0
 20 21  1  0
 21 23  1  0
 21 22  2  0
 23 24  1  0
 25 24  1  1
 25 27  1  0
 25 26  1  0
 26 18  1  0
 27 29  1  0
 28 27  2  0
M  END
$$$$
