WYW.pdb
     RDKit          3D

 41 45  0  0  1  0  0  0  0  0999 V2000
    8.7634  -17.4703   19.8279 N   0  0  0  0  0  0  0  0  0  0  0  0
    9.0406  -16.6823   21.0195 C   0  0  1  0  0  0  0  0  0  0  0  0
    7.7405  -16.0502   21.4529 C   0  0  0  0  0  0  0  0  0  0  0  0
    7.2218  -15.0586   20.4912 C   0  0  0  0  0  0  0  0  0  0  0  0
    6.0526  -15.1741   19.7717 C   0  0  0  0  0  0  0  0  0  0  0  0
    5.9051  -14.0703   18.9919 N   0  0  0  0  0  0  0  0  0  0  0  0
    6.9410  -13.2387   19.1790 C   0  0  0  0  0  0  0  0  0  0  0  0
    7.2542  -12.0118   18.6398 C   0  0  0  0  0  0  0  0  0  0  0  0
    8.4114  -11.3776   19.0368 C   0  0  0  0  0  0  0  0  0  0  0  0
    9.2277  -11.9946   19.9691 C   0  0  0  0  0  0  0  0  0  0  0  0
    8.9198  -13.2304   20.5171 C   0  0  0  0  0  0  0  0  0  0  0  0
    7.7687  -13.8498   20.1159 C   0  0  0  0  0  0  0  0  0  0  0  0
    9.5851  -17.5998   22.0425 C   0  0  0  0  0  0  0  0  0  0  0  0
    8.8270  -18.4606   22.5743 O   0  0  0  0  0  0  0  0  0  0  0  0
   15.0691  -21.9031   27.5010 O   0  0  0  0  0  0  0  0  0  0  0  0
   14.5274  -21.1853   26.4536 C   0  0  0  0  0  0  0  0  0  0  0  0
   15.0496  -19.9776   26.0429 C   0  0  0  0  0  0  0  0  0  0  0  0
   14.4902  -19.2896   25.0023 C   0  0  0  0  0  0  0  0  0  0  0  0
   13.3906  -19.7343   24.2977 C   0  0  0  0  0  0  0  0  0  0  0  0
   12.7711  -18.9600   23.2236 C   0  0  0  0  0  0  0  0  0  0  0  0
   11.4298  -18.4409   23.5869 C   0  0  2  0  0  0  0  0  0  0  0  0
   10.9203  -17.5899   22.4818 N   0  0  0  0  0  0  0  0  0  0  0  0
   11.3287  -17.6216   24.8053 C   0  0  0  0  0  0  0  0  0  0  0  0
   12.0411  -16.5446   24.8738 O   0  0  0  0  0  0  0  0  0  0  0  0
   12.8731  -20.9571   24.7235 C   0  0  0  0  0  0  0  0  0  0  0  0
   13.4257  -21.6539   25.7663 C   0  0  0  0  0  0  0  0  0  0  0  0
   10.5305  -17.8500   25.9510 N   0  0  0  0  0  0  0  0  0  0  0  0
   10.6376  -17.0852   27.1598 C   0  0  1  0  0  0  0  0  0  0  0  0
   10.5147  -15.6002   26.9507 C   0  0  0  0  0  0  0  0  0  0  0  0
    9.1023  -15.2993   26.6094 C   0  0  0  0  0  0  0  0  0  0  0  0
    8.0997  -16.2065   26.2830 C   0  0  0  0  0  0  0  0  0  0  0  0
    6.9515  -15.5580   26.0244 N   0  0  0  0  0  0  0  0  0  0  0  0
    7.1517  -14.2383   26.1670 C   0  0  0  0  0  0  0  0  0  0  0  0
    6.3080  -13.1560   26.0194 C   0  0  0  0  0  0  0  0  0  0  0  0
    6.7566  -11.8620   26.2251 C   0  0  0  0  0  0  0  0  0  0  0  0
    8.0717  -11.6979   26.5823 C   0  0  0  0  0  0  0  0  0  0  0  0
    8.9087  -12.7769   26.7297 C   0  0  0  0  0  0  0  0  0  0  0  0
    8.4739  -14.0685   26.5271 C   0  0  0  0  0  0  0  0  0  0  0  0
    9.7750  -17.6147   28.2124 C   0  0  0  0  0  0  0  0  0  0  0  0
    9.6382  -17.0908   29.3443 O   0  0  0  0  0  0  0  0  0  0  0  0
    9.0133  -18.7859   28.0175 O   0  0  0  0  0  0  0  0  0  0  0  0
  2  3  1  0
  2  1  1  6
  4  5  2  0
  4  3  1  0
  6  5  1  0
  7 12  2  0
  7  6  1  0
  8  7  1  0
  9 10  1  0
  9  8  2  0
 10 11  2  0
 11 12  1  0
 12  4  1  0
 13  2  1  0
 14 13  2  0
 16 15  1  0
 16 17  2  0
 18 17  1  0
 19 18  2  0
 20 19  1  0
 21 20  1  6
 21 22  1  0
 22 13  1  0
 23 21  1  0
 23 27  1  0
 24 23  2  0
 25 26  2  0
 25 19  1  0
 26 16  1  0
 28 27  1  0
 28 39  1  0
 28 29  1  6
 30 31  2  0
 30 29  1  0
 32 31  1  0
 33 38  2  0
 33 32  1  0
 34 33  1  0
 35 36  1  0
 35 34  2  0
 36 37  2  0
 37 38  1  0
 38 30  1  0
 39 41  1  0
 40 39  2  0
M  END
$$$$
