WYW.pdb
     RDKit          3D

 41 45  0  0  1  0  0  0  0  0999 V2000
    6.3137  -18.0326   22.9537 N   0  0  0  0  0  0  0  0  0  0  0  0
    7.1513  -16.8806   23.2520 C   0  0  1  0  0  0  0  0  0  0  0  0
    7.5617  -16.9862   24.7004 C   0  0  0  0  0  0  0  0  0  0  0  0
    7.0052  -15.9134   25.5469 C   0  0  0  0  0  0  0  0  0  0  0  0
    5.9235  -16.0370   26.3911 C   0  0  0  0  0  0  0  0  0  0  0  0
    5.7048  -14.8432   27.0036 N   0  0  0  0  0  0  0  0  0  0  0  0
    6.6087  -13.9444   26.5856 C   0  0  0  0  0  0  0  0  0  0  0  0
    6.8146  -12.6206   26.9011 C   0  0  0  0  0  0  0  0  0  0  0  0
    7.8512  -11.9390   26.3014 C   0  0  0  0  0  0  0  0  0  0  0  0
    8.6578  -12.6072   25.3963 C   0  0  0  0  0  0  0  0  0  0  0  0
    8.4573  -13.9404   25.0726 C   0  0  0  0  0  0  0  0  0  0  0  0
    7.4259  -14.6064   25.6745 C   0  0  0  0  0  0  0  0  0  0  0  0
    8.3114  -16.9257   22.3371 C   0  0  0  0  0  0  0  0  0  0  0  0
    8.6082  -18.0109   21.7603 O   0  0  0  0  0  0  0  0  0  0  0  0
    6.2618  -13.7120   16.7209 O   0  0  0  0  0  0  0  0  0  0  0  0
    7.2734  -13.9307   17.6343 C   0  0  0  0  0  0  0  0  0  0  0  0
    7.5964  -13.0095   18.6075 C   0  0  0  0  0  0  0  0  0  0  0  0
    8.6045  -13.2547   19.4979 C   0  0  0  0  0  0  0  0  0  0  0  0
    9.3585  -14.4100   19.4967 C   0  0  0  0  0  0  0  0  0  0  0  0
   10.4694  -14.6327   20.4205 C   0  0  0  0  0  0  0  0  0  0  0  0
   10.3388  -15.8972   21.1849 C   0  0  2  0  0  0  0  0  0  0  0  0
    9.1335  -15.8225   22.0491 N   0  0  0  0  0  0  0  0  0  0  0  0
   11.4504  -16.2672   22.0757 C   0  0  0  0  0  0  0  0  0  0  0  0
   12.5856  -16.5713   21.5362 O   0  0  0  0  0  0  0  0  0  0  0  0
    9.0209  -15.3330   18.5074 C   0  0  0  0  0  0  0  0  0  0  0  0
    8.0129  -15.0961   17.6094 C   0  0  0  0  0  0  0  0  0  0  0  0
   11.4553  -16.3351   23.4889 N   0  0  0  0  0  0  0  0  0  0  0  0
   12.6203  -16.6468   24.2657 C   0  0  1  0  0  0  0  0  0  0  0  0
   12.7725  -15.7972   25.4982 C   0  0  0  0  0  0  0  0  0  0  0  0
   11.5582  -15.9754   26.3323 C   0  0  0  0  0  0  0  0  0  0  0  0
   10.8705  -17.1583   26.5824 C   0  0  0  0  0  0  0  0  0  0  0  0
    9.8121  -16.9224   27.3761 N   0  0  0  0  0  0  0  0  0  0  0  0
    9.7666  -15.6129   27.6682 C   0  0  0  0  0  0  0  0  0  0  0  0
    8.8924  -14.8685   28.4343 C   0  0  0  0  0  0  0  0  0  0  0  0
    9.0569  -13.5021   28.5888 C   0  0  0  0  0  0  0  0  0  0  0  0
   10.1229  -12.9175   27.9517 C   0  0  0  0  0  0  0  0  0  0  0  0
   10.9920  -13.6610   27.1910 C   0  0  0  0  0  0  0  0  0  0  0  0
   10.8381  -15.0207   27.0296 C   0  0  0  0  0  0  0  0  0  0  0  0
   12.7390  -18.0817   24.5097 C   0  0  0  0  0  0  0  0  0  0  0  0
   11.8697  -18.9274   24.1882 O   0  0  0  0  0  0  0  0  0  0  0  0
   13.8763  -18.6275   25.1410 O   0  0  0  0  0  0  0  0  0  0  0  0
  2  3  1  0
  2  1  1  6
  4  5  2  0
  4  3  1  0
  6  5  1  0
  7 12  2  0
  7  6  1  0
  8  7  1  0
  9 10  1  0
  9  8  2  0
 10 11  2  0
 11 12  1  0
 12  4  1  0
 13  2  1  0
 14 13  2  0
 16 15  1  0
 16 17  2  0
 18 17  1  0
 19 18  2  0
 20 19  1  0
 21 20  1  1
 21 22  1  0
 22 13  1  0
 23 21  1  0
 23 27  1  0
 24 23  2  0
 25 26  2  0
 25 19  1  0
 26 16  1  0
 28 27  1  0
 28 39  1  0
 28 29  1  1
 30 31  2  0
 30 29  1  0
 32 31  1  0
 33 38  2  0
 33 32  1  0
 34 33  1  0
 35 36  1  0
 35 34  2  0
 36 37  2  0
 37 38  1  0
 38 30  1  0
 39 41  1  0
 40 39  2  0
M  END
$$$$
