WYW.pdb
     RDKit          3D

 41 45  0  0  1  0  0  0  0  0999 V2000
    5.9054  -18.2849   21.9811 N   0  0  0  0  0  0  0  0  0  0  0  0
    6.6084  -17.2522   22.7275 C   0  0  1  0  0  0  0  0  0  0  0  0
    6.7778  -17.7552   24.1402 C   0  0  0  0  0  0  0  0  0  0  0  0
    6.7377  -16.6827   25.1528 C   0  0  0  0  0  0  0  0  0  0  0  0
    5.8915  -16.6360   26.2390 C   0  0  0  0  0  0  0  0  0  0  0  0
    6.1444  -15.5021   26.9451 N   0  0  0  0  0  0  0  0  0  0  0  0
    7.1279  -14.8072   26.3541 C   0  0  0  0  0  0  0  0  0  0  0  0
    7.7424  -13.6171   26.6711 C   0  0  0  0  0  0  0  0  0  0  0  0
    8.7503  -13.1430   25.8600 C   0  0  0  0  0  0  0  0  0  0  0  0
    9.1169  -13.8793   24.7466 C   0  0  0  0  0  0  0  0  0  0  0  0
    8.5031  -15.0788   24.4199 C   0  0  0  0  0  0  0  0  0  0  0  0
    7.5046  -15.5395   25.2325 C   0  0  0  0  0  0  0  0  0  0  0  0
    7.9050  -17.0231   22.0558 C   0  0  0  0  0  0  0  0  0  0  0  0
    8.4824  -17.9841   21.4714 O   0  0  0  0  0  0  0  0  0  0  0  0
    7.0961  -13.6426   15.9887 O   0  0  0  0  0  0  0  0  0  0  0  0
    7.8111  -13.7754   17.1621 C   0  0  0  0  0  0  0  0  0  0  0  0
    8.8433  -14.6791   17.2952 C   0  0  0  0  0  0  0  0  0  0  0  0
    9.5325  -14.7879   18.4710 C   0  0  0  0  0  0  0  0  0  0  0  0
    9.2608  -14.0244   19.5874 C   0  0  0  0  0  0  0  0  0  0  0  0
    9.9707  -14.1918   20.8543 C   0  0  0  0  0  0  0  0  0  0  0  0
    9.8918  -15.5764   21.3807 C   0  0  2  0  0  0  0  0  0  0  0  0
    8.5647  -15.7825   22.0143 N   0  0  0  0  0  0  0  0  0  0  0  0
   10.8859  -15.9742   22.3903 C   0  0  0  0  0  0  0  0  0  0  0  0
   11.9621  -15.2649   22.4953 O   0  0  0  0  0  0  0  0  0  0  0  0
    8.2147  -13.1144   19.4386 C   0  0  0  0  0  0  0  0  0  0  0  0
    7.5169  -12.9987   18.2647 C   0  0  0  0  0  0  0  0  0  0  0  0
   10.8273  -17.0577   23.2983 N   0  0  0  0  0  0  0  0  0  0  0  0
   11.7671  -17.2532   24.3643 C   0  0  1  0  0  0  0  0  0  0  0  0
   11.8804  -16.0772   25.2960 C   0  0  0  0  0  0  0  0  0  0  0  0
   10.7032  -16.0911   26.1993 C   0  0  0  0  0  0  0  0  0  0  0  0
    9.7656  -17.1072   26.3506 C   0  0  0  0  0  0  0  0  0  0  0  0
    8.8367  -16.7526   27.2545 N   0  0  0  0  0  0  0  0  0  0  0  0
    9.1215  -15.5251   27.7172 C   0  0  0  0  0  0  0  0  0  0  0  0
    8.4918  -14.7197   28.6446 C   0  0  0  0  0  0  0  0  0  0  0  0
    8.9870  -13.4656   28.9610 C   0  0  0  0  0  0  0  0  0  0  0  0
   10.1280  -13.0555   28.3178 C   0  0  0  0  0  0  0  0  0  0  0  0
   10.7533  -13.8597   27.3963 C   0  0  0  0  0  0  0  0  0  0  0  0
   10.2697  -15.1086   27.0731 C   0  0  0  0  0  0  0  0  0  0  0  0
   11.5616  -18.5325   25.0378 C   0  0  0  0  0  0  0  0  0  0  0  0
   12.2845  -18.9660   25.9673 O   0  0  0  0  0  0  0  0  0  0  0  0
   10.5016  -19.3903   24.6768 O   0  0  0  0  0  0  0  0  0  0  0  0
  2  3  1  0
  2  1  1  6
  4  5  2  0
  4  3  1  0
  6  5  1  0
  7 12  2  0
  7  6  1  0
  8  7  1  0
  9 10  1  0
  9  8  2  0
 10 11  2  0
 11 12  1  0
 12  4  1  0
 13  2  1  0
 14 13  2  0
 16 15  1  0
 16 17  2  0
 18 17  1  0
 19 18  2  0
 20 19  1  0
 21 20  1  1
 21 22  1  0
 22 13  1  0
 23 21  1  0
 23 27  1  0
 24 23  2  0
 25 26  2  0
 25 19  1  0
 26 16  1  0
 28 27  1  0
 28 39  1  0
 28 29  1  1
 30 31  2  0
 30 29  1  0
 32 31  1  0
 33 38  2  0
 33 32  1  0
 34 33  1  0
 35 36  1  0
 35 34  2  0
 36 37  2  0
 37 38  1  0
 38 30  1  0
 39 41  1  0
 40 39  2  0
M  END
$$$$
