WYW.pdb
     RDKit          3D

 41 45  0  0  1  0  0  0  0  0999 V2000
    8.6018  -19.0137   21.7094 N   0  0  0  0  0  0  0  0  0  0  0  0
    9.0574  -17.6661   22.0165 C   0  0  1  0  0  0  0  0  0  0  0  0
    7.9771  -17.0019   22.8345 C   0  0  0  0  0  0  0  0  0  0  0  0
    7.0920  -16.1299   22.0386 C   0  0  0  0  0  0  0  0  0  0  0  0
    5.7642  -16.3720   21.7624 C   0  0  0  0  0  0  0  0  0  0  0  0
    5.2793  -15.3522   21.0054 N   0  0  0  0  0  0  0  0  0  0  0  0
    6.2484  -14.4529   20.7780 C   0  0  0  0  0  0  0  0  0  0  0  0
    6.2663  -13.2644   20.0843 C   0  0  0  0  0  0  0  0  0  0  0  0
    7.4346  -12.5361   20.0267 C   0  0  0  0  0  0  0  0  0  0  0  0
    8.5598  -13.0222   20.6702 C   0  0  0  0  0  0  0  0  0  0  0  0
    8.5505  -14.2185   21.3710 C   0  0  0  0  0  0  0  0  0  0  0  0
    7.3853  -14.9321   21.4215 C   0  0  0  0  0  0  0  0  0  0  0  0
   10.3290  -17.7856   22.7606 C   0  0  0  0  0  0  0  0  0  0  0  0
   10.5554  -18.8244   23.4448 O   0  0  0  0  0  0  0  0  0  0  0  0
   18.9446  -17.0944   24.6354 O   0  0  0  0  0  0  0  0  0  0  0  0
   17.6503  -16.8634   24.2148 C   0  0  0  0  0  0  0  0  0  0  0  0
   16.7639  -17.8896   23.9676 C   0  0  0  0  0  0  0  0  0  0  0  0
   15.4881  -17.6288   23.5510 C   0  0  0  0  0  0  0  0  0  0  0  0
   14.9968  -16.3553   23.3507 C   0  0  0  0  0  0  0  0  0  0  0  0
   13.6475  -16.0955   22.8518 C   0  0  0  0  0  0  0  0  0  0  0  0
   12.6197  -16.9470   23.4991 C   0  0  2  0  0  0  0  0  0  0  0  0
   11.3364  -16.8053   22.7655 N   0  0  0  0  0  0  0  0  0  0  0  0
   12.3079  -16.6756   24.9116 C   0  0  0  0  0  0  0  0  0  0  0  0
   13.0078  -15.7789   25.5265 O   0  0  0  0  0  0  0  0  0  0  0  0
   15.9039  -15.3271   23.6047 C   0  0  0  0  0  0  0  0  0  0  0  0
   17.1852  -15.5781   24.0214 C   0  0  0  0  0  0  0  0  0  0  0  0
   11.3126  -17.2740   25.7197 N   0  0  0  0  0  0  0  0  0  0  0  0
   11.0607  -16.8967   27.0806 C   0  0  1  0  0  0  0  0  0  0  0  0
   10.6468  -15.4594   27.2445 C   0  0  0  0  0  0  0  0  0  0  0  0
    9.2526  -15.3237   26.7550 C   0  0  0  0  0  0  0  0  0  0  0  0
    8.3710  -16.3460   26.4196 C   0  0  0  0  0  0  0  0  0  0  0  0
    7.1997  -15.8335   26.0059 N   0  0  0  0  0  0  0  0  0  0  0  0
    7.2667  -14.4936   26.0526 C   0  0  0  0  0  0  0  0  0  0  0  0
    6.3478  -13.5125   25.7391 C   0  0  0  0  0  0  0  0  0  0  0  0
    6.6572  -12.1693   25.8726 C   0  0  0  0  0  0  0  0  0  0  0  0
    7.9119  -11.8517   26.3296 C   0  0  0  0  0  0  0  0  0  0  0  0
    8.8239  -12.8301   26.6421 C   0  0  0  0  0  0  0  0  0  0  0  0
    8.5277  -14.1695   26.5126 C   0  0  0  0  0  0  0  0  0  0  0  0
   10.1845  -17.8521   27.7528 C   0  0  0  0  0  0  0  0  0  0  0  0
    9.8402  -17.7695   28.9565 O   0  0  0  0  0  0  0  0  0  0  0  0
    9.6495  -18.9642   27.0696 O   0  0  0  0  0  0  0  0  0  0  0  0
  2  3  1  0
  2  1  1  1
  4  5  2  0
  4  3  1  0
  6  5  1  0
  7 12  2  0
  7  6  1  0
  8  7  1  0
  9 10  1  0
  9  8  2  0
 10 11  2  0
 11 12  1  0
 12  4  1  0
 13  2  1  0
 14 13  2  0
 16 15  1  0
 16 17  2  0
 18 17  1  0
 19 18  2  0
 20 19  1  0
 21 20  1  6
 21 22  1  0
 22 13  1  0
 23 21  1  0
 23 27  1  0
 24 23  2  0
 25 26  2  0
 25 19  1  0
 26 16  1  0
 28 27  1  0
 28 39  1  0
 28 29  1  6
 30 31  2  0
 30 29  1  0
 32 31  1  0
 33 38  2  0
 33 32  1  0
 34 33  1  0
 35 36  1  0
 35 34  2  0
 36 37  2  0
 37 38  1  0
 38 30  1  0
 39 41  1  0
 40 39  2  0
M  END
$$$$
