WYW.pdb
     RDKit          3D

 41 45  0  0  1  0  0  0  0  0999 V2000
    8.9424  -17.5818   20.1232 N   0  0  0  0  0  0  0  0  0  0  0  0
    8.7715  -16.7910   21.3329 C   0  0  1  0  0  0  0  0  0  0  0  0
    7.3139  -16.4096   21.4184 C   0  0  0  0  0  0  0  0  0  0  0  0
    6.9163  -15.3887   20.4301 C   0  0  0  0  0  0  0  0  0  0  0  0
    6.0486  -15.5852   19.3783 C   0  0  0  0  0  0  0  0  0  0  0  0
    5.9257  -14.4215   18.6861 N   0  0  0  0  0  0  0  0  0  0  0  0
    6.6860  -13.4723   19.2522 C   0  0  0  0  0  0  0  0  0  0  0  0
    6.9027  -12.1494   18.9404 C   0  0  0  0  0  0  0  0  0  0  0  0
    7.7538  -11.4033   19.7263 C   0  0  0  0  0  0  0  0  0  0  0  0
    8.3680  -12.0074   20.8099 C   0  0  0  0  0  0  0  0  0  0  0  0
    8.1554  -13.3393   21.1309 C   0  0  0  0  0  0  0  0  0  0  0  0
    7.3085  -14.0695   20.3441 C   0  0  0  0  0  0  0  0  0  0  0  0
    9.1991  -17.6270   22.4745 C   0  0  0  0  0  0  0  0  0  0  0  0
    8.9401  -18.8644   22.4721 O   0  0  0  0  0  0  0  0  0  0  0  0
   14.0117  -22.4917   27.5404 O   0  0  0  0  0  0  0  0  0  0  0  0
   13.3928  -21.6328   26.6545 C   0  0  0  0  0  0  0  0  0  0  0  0
   13.3807  -20.2673   26.8422 C   0  0  0  0  0  0  0  0  0  0  0  0
   12.7584  -19.4422   25.9470 C   0  0  0  0  0  0  0  0  0  0  0  0
   12.1117  -19.8943   24.8154 C   0  0  0  0  0  0  0  0  0  0  0  0
   11.4037  -19.0035   23.8976 C   0  0  0  0  0  0  0  0  0  0  0  0
   10.5539  -18.0104   24.5989 C   0  0  2  0  0  0  0  0  0  0  0  0
    9.8931  -17.1383   23.5950 N   0  0  0  0  0  0  0  0  0  0  0  0
   11.2177  -17.1012   25.5470 C   0  0  0  0  0  0  0  0  0  0  0  0
   12.5083  -17.1368   25.6203 O   0  0  0  0  0  0  0  0  0  0  0  0
   12.1321  -21.2773   24.6379 C   0  0  0  0  0  0  0  0  0  0  0  0
   12.7520  -22.1129   25.5300 C   0  0  0  0  0  0  0  0  0  0  0  0
   10.6239  -16.1565   26.4169 N   0  0  0  0  0  0  0  0  0  0  0  0
   10.4040  -16.3915   27.8148 C   0  0  1  0  0  0  0  0  0  0  0  0
    8.9660  -16.6620   28.1653 C   0  0  0  0  0  0  0  0  0  0  0  0
    8.1134  -15.8135   27.2964 C   0  0  0  0  0  0  0  0  0  0  0  0
    7.0768  -16.2267   26.4662 C   0  0  0  0  0  0  0  0  0  0  0  0
    6.5442  -15.1718   25.8264 N   0  0  0  0  0  0  0  0  0  0  0  0
    7.1930  -14.0582   26.2018 C   0  0  0  0  0  0  0  0  0  0  0  0
    7.0362  -12.7343   25.8444 C   0  0  0  0  0  0  0  0  0  0  0  0
    7.8449  -11.7452   26.3787 C   0  0  0  0  0  0  0  0  0  0  0  0
    8.8072  -12.1322   27.2777 C   0  0  0  0  0  0  0  0  0  0  0  0
    8.9601  -13.4503   27.6326 C   0  0  0  0  0  0  0  0  0  0  0  0
    8.1620  -14.4429   27.1072 C   0  0  0  0  0  0  0  0  0  0  0  0
   11.3452  -17.3698   28.3528 C   0  0  0  0  0  0  0  0  0  0  0  0
   11.0509  -18.5592   28.6230 O   0  0  0  0  0  0  0  0  0  0  0  0
   12.6902  -17.0305   28.6096 O   0  0  0  0  0  0  0  0  0  0  0  0
  2  3  1  0
  2  1  1  6
  4  5  2  0
  4  3  1  0
  6  5  1  0
  7 12  2  0
  7  6  1  0
  8  7  1  0
  9 10  1  0
  9  8  2  0
 10 11  2  0
 11 12  1  0
 12  4  1  0
 13  2  1  0
 14 13  2  0
 16 15  1  0
 16 17  2  0
 18 17  1  0
 19 18  2  0
 20 19  1  0
 21 20  1  6
 21 22  1  0
 22 13  1  0
 23 21  1  0
 23 27  1  0
 24 23  2  0
 25 26  2  0
 25 19  1  0
 26 16  1  0
 28 27  1  0
 28 39  1  0
 28 29  1  6
 30 31  2  0
 30 29  1  0
 32 31  1  0
 33 38  2  0
 33 32  1  0
 34 33  1  0
 35 36  1  0
 35 34  2  0
 36 37  2  0
 37 38  1  0
 38 30  1  0
 39 41  1  0
 40 39  2  0
M  END
$$$$
