WYW.pdb
     RDKit          3D

 41 45  0  0  1  0  0  0  0  0999 V2000
    6.1737  -20.7319   25.1803 N   0  0  0  0  0  0  0  0  0  0  0  0
    6.9311  -19.4928   25.2737 C   0  0  1  0  0  0  0  0  0  0  0  0
    8.2822  -19.8344   25.8526 C   0  0  0  0  0  0  0  0  0  0  0  0
    8.3647  -19.6254   27.3109 C   0  0  0  0  0  0  0  0  0  0  0  0
    7.7515  -20.4029   28.2688 C   0  0  0  0  0  0  0  0  0  0  0  0
    8.0543  -19.9069   29.4979 N   0  0  0  0  0  0  0  0  0  0  0  0
    8.8447  -18.8303   29.3726 C   0  0  0  0  0  0  0  0  0  0  0  0
    9.4186  -17.9885   30.2979 C   0  0  0  0  0  0  0  0  0  0  0  0
   10.2055  -16.9449   29.8617 C   0  0  0  0  0  0  0  0  0  0  0  0
   10.3967  -16.7727   28.5015 C   0  0  0  0  0  0  0  0  0  0  0  0
    9.8221  -17.6158   27.5626 C   0  0  0  0  0  0  0  0  0  0  0  0
    9.0437  -18.6481   28.0075 C   0  0  0  0  0  0  0  0  0  0  0  0
    7.0324  -18.9300   23.9106 C   0  0  0  0  0  0  0  0  0  0  0  0
    7.4767  -19.6497   22.9708 O   0  0  0  0  0  0  0  0  0  0  0  0
    8.3641  -12.9261   17.5600 O   0  0  0  0  0  0  0  0  0  0  0  0
    7.8686  -13.5961   18.6606 C   0  0  0  0  0  0  0  0  0  0  0  0
    7.8353  -13.0251   19.9147 C   0  0  0  0  0  0  0  0  0  0  0  0
    7.3390  -13.7146   20.9859 C   0  0  0  0  0  0  0  0  0  0  0  0
    6.8442  -14.9997   20.9026 C   0  0  0  0  0  0  0  0  0  0  0  0
    6.3684  -15.7431   22.0678 C   0  0  0  0  0  0  0  0  0  0  0  0
    7.2732  -16.8541   22.4517 C   0  0  2  0  0  0  0  0  0  0  0  0
    6.6610  -17.6183   23.5680 N   0  0  0  0  0  0  0  0  0  0  0  0
    8.6280  -16.4982   22.9030 C   0  0  0  0  0  0  0  0  0  0  0  0
    9.6306  -16.9065   22.1958 O   0  0  0  0  0  0  0  0  0  0  0  0
    6.8837  -15.5648   19.6283 C   0  0  0  0  0  0  0  0  0  0  0  0
    7.3805  -14.8825   18.5485 C   0  0  0  0  0  0  0  0  0  0  0  0
    9.0028  -15.7414   24.0383 N   0  0  0  0  0  0  0  0  0  0  0  0
   10.3157  -15.1972   24.2328 C   0  0  1  0  0  0  0  0  0  0  0  0
   10.3200  -13.8459   24.8945 C   0  0  0  0  0  0  0  0  0  0  0  0
    9.0464  -13.6954   25.6410 C   0  0  0  0  0  0  0  0  0  0  0  0
    8.3564  -14.6784   26.3425 C   0  0  0  0  0  0  0  0  0  0  0  0
    7.2360  -14.1669   26.8800 N   0  0  0  0  0  0  0  0  0  0  0  0
    7.1509  -12.8659   26.5602 C   0  0  0  0  0  0  0  0  0  0  0  0
    6.2099  -11.9018   26.8605 C   0  0  0  0  0  0  0  0  0  0  0  0
    6.3442  -10.6005   26.4060 C   0  0  0  0  0  0  0  0  0  0  0  0
    7.4494  -10.3067   25.6469 C   0  0  0  0  0  0  0  0  0  0  0  0
    8.3849  -11.2679   25.3508 C   0  0  0  0  0  0  0  0  0  0  0  0
    8.2616  -12.5657   25.7967 C   0  0  0  0  0  0  0  0  0  0  0  0
   11.2170  -16.1676   24.8480 C   0  0  0  0  0  0  0  0  0  0  0  0
   12.4504  -15.9914   24.9964 O   0  0  0  0  0  0  0  0  0  0  0  0
   10.7435  -17.4047   25.3331 O   0  0  0  0  0  0  0  0  0  0  0  0
  2  3  1  0
  2  1  1  6
  4  5  2  0
  4  3  1  0
  6  5  1  0
  7 12  2  0
  7  6  1  0
  8  7  1  0
  9 10  1  0
  9  8  2  0
 10 11  2  0
 11 12  1  0
 12  4  1  0
 13  2  1  0
 14 13  2  0
 16 15  1  0
 16 17  2  0
 18 17  1  0
 19 18  2  0
 20 19  1  0
 21 20  1  1
 21 22  1  0
 22 13  1  0
 23 21  1  0
 23 27  1  0
 24 23  2  0
 25 26  2  0
 25 19  1  0
 26 16  1  0
 28 27  1  0
 28 39  1  0
 28 29  1  1
 30 31  2  0
 30 29  1  0
 32 31  1  0
 33 38  2  0
 33 32  1  0
 34 33  1  0
 35 36  1  0
 35 34  2  0
 36 37  2  0
 37 38  1  0
 38 30  1  0
 39 41  1  0
 40 39  2  0
M  END
$$$$
