WYW.pdb
     RDKit          3D

 41 45  0  0  1  0  0  0  0  0999 V2000
    8.9671  -17.1276   20.4314 N   0  0  0  0  0  0  0  0  0  0  0  0
    7.9555  -16.2544   21.0073 C   0  0  1  0  0  0  0  0  0  0  0  0
    6.8224  -16.1633   20.0146 C   0  0  0  0  0  0  0  0  0  0  0  0
    7.1424  -15.3377   18.8343 C   0  0  0  0  0  0  0  0  0  0  0  0
    6.9302  -15.6982   17.5217 C   0  0  0  0  0  0  0  0  0  0  0  0
    7.3476  -14.6867   16.7148 N   0  0  0  0  0  0  0  0  0  0  0  0
    7.8261  -13.6783   17.4589 C   0  0  0  0  0  0  0  0  0  0  0  0
    8.3543  -12.4512   17.1280 C   0  0  0  0  0  0  0  0  0  0  0  0
    8.7670  -11.6030   18.1324 C   0  0  0  0  0  0  0  0  0  0  0  0
    8.6380  -12.0106   19.4490 C   0  0  0  0  0  0  0  0  0  0  0  0
    8.1072  -13.2449   19.7911 C   0  0  0  0  0  0  0  0  0  0  0  0
    7.7007  -14.0778   18.7858 C   0  0  0  0  0  0  0  0  0  0  0  0
    7.5291  -16.8534   22.2896 C   0  0  0  0  0  0  0  0  0  0  0  0
    6.5852  -16.3224   22.9420 O   0  0  0  0  0  0  0  0  0  0  0  0
    8.0572  -21.4014   29.8898 O   0  0  0  0  0  0  0  0  0  0  0  0
    8.1822  -21.0124   28.5712 C   0  0  0  0  0  0  0  0  0  0  0  0
    9.3954  -20.6566   28.0220 C   0  0  0  0  0  0  0  0  0  0  0  0
    9.4870  -20.2749   26.7124 C   0  0  0  0  0  0  0  0  0  0  0  0
    8.4057  -20.2171   25.8576 C   0  0  0  0  0  0  0  0  0  0  0  0
    8.5118  -19.7537   24.4752 C   0  0  0  0  0  0  0  0  0  0  0  0
    7.9062  -18.4155   24.2678 C   0  0  2  0  0  0  0  0  0  0  0  0
    8.1081  -18.0023   22.8559 N   0  0  0  0  0  0  0  0  0  0  0  0
    8.4182  -17.3065   25.0889 C   0  0  0  0  0  0  0  0  0  0  0  0
    7.5664  -16.4528   25.5554 O   0  0  0  0  0  0  0  0  0  0  0  0
    7.1852  -20.5799   26.4262 C   0  0  0  0  0  0  0  0  0  0  0  0
    7.0826  -20.9627   27.7381 C   0  0  0  0  0  0  0  0  0  0  0  0
    9.7568  -17.0349   25.4578 N   0  0  0  0  0  0  0  0  0  0  0  0
   10.1532  -15.8890   26.2244 C   0  0  1  0  0  0  0  0  0  0  0  0
    9.3145  -15.6617   27.4528 C   0  0  0  0  0  0  0  0  0  0  0  0
    8.0437  -15.0228   27.0302 C   0  0  0  0  0  0  0  0  0  0  0  0
    6.8513  -15.6543   26.6925 C   0  0  0  0  0  0  0  0  0  0  0  0
    5.9232  -14.7444   26.3511 N   0  0  0  0  0  0  0  0  0  0  0  0
    6.4565  -13.5164   26.4489 C   0  0  0  0  0  0  0  0  0  0  0  0
    5.9315  -12.2614   26.2156 C   0  0  0  0  0  0  0  0  0  0  0  0
    6.6953  -11.1193   26.3897 C   0  0  0  0  0  0  0  0  0  0  0  0
    7.9934  -11.2838   26.8042 C   0  0  0  0  0  0  0  0  0  0  0  0
    8.5128  -12.5339   27.0369 C   0  0  0  0  0  0  0  0  0  0  0  0
    7.7629  -13.6771   26.8665 C   0  0  0  0  0  0  0  0  0  0  0  0
   11.5923  -15.8759   26.4716 C   0  0  0  0  0  0  0  0  0  0  0  0
   12.1867  -14.9953   27.1391 O   0  0  0  0  0  0  0  0  0  0  0  0
   12.4341  -16.8863   25.9612 O   0  0  0  0  0  0  0  0  0  0  0  0
  2  3  1  0
  2  1  1  6
  4  5  2  0
  4  3  1  0
  6  5  1  0
  7 12  2  0
  7  6  1  0
  8  7  1  0
  9 10  1  0
  9  8  2  0
 10 11  2  0
 11 12  1  0
 12  4  1  0
 13  2  1  0
 14 13  2  0
 16 15  1  0
 16 17  2  0
 18 17  1  0
 19 18  2  0
 20 19  1  0
 21 20  1  1
 21 22  1  0
 22 13  1  0
 23 21  1  0
 23 27  1  0
 24 23  2  0
 25 26  2  0
 25 19  1  0
 26 16  1  0
 28 27  1  0
 28 39  1  0
 28 29  1  1
 30 31  2  0
 30 29  1  0
 32 31  1  0
 33 38  2  0
 33 32  1  0
 34 33  1  0
 35 36  1  0
 35 34  2  0
 36 37  2  0
 37 38  1  0
 38 30  1  0
 39 41  1  0
 40 39  2  0
M  END
$$$$
