WKR.pdb
     RDKit          3D

 35 36  0  0  1  0  0  0  0  0999 V2000
    6.4504  -17.2522   25.2304 N   0  0  0  0  0  0  0  0  0  0  0  0
    7.0777  -16.0634   24.7241 C   0  0  1  0  0  0  0  0  0  0  0  0
    8.1897  -15.5332   25.6025 C   0  0  0  0  0  0  0  0  0  0  0  0
    7.7153  -14.6983   26.7186 C   0  0  0  0  0  0  0  0  0  0  0  0
    7.6633  -15.0618   28.0470 C   0  0  0  0  0  0  0  0  0  0  0  0
    7.1417  -14.0426   28.7844 N   0  0  0  0  0  0  0  0  0  0  0  0
    6.8504  -13.0126   27.9577 C   0  0  0  0  0  0  0  0  0  0  0  0
    6.3144  -11.7699   28.2246 C   0  0  0  0  0  0  0  0  0  0  0  0
    6.1258  -10.8971   27.1771 C   0  0  0  0  0  0  0  0  0  0  0  0
    6.4728  -11.2809   25.9030 C   0  0  0  0  0  0  0  0  0  0  0  0
    7.0038  -12.5092   25.6308 C   0  0  0  0  0  0  0  0  0  0  0  0
    7.2028  -13.4037   26.6609 C   0  0  0  0  0  0  0  0  0  0  0  0
    7.5188  -16.2210   23.3147 C   0  0  0  0  0  0  0  0  0  0  0  0
    7.7676  -17.2979   22.7573 O   0  0  0  0  0  0  0  0  0  0  0  0
    7.6714  -15.0266   22.5206 N   0  0  0  0  0  0  0  0  0  0  0  0
    8.2571  -15.0734   21.1853 C   0  0  1  0  0  0  0  0  0  0  0  0
    8.1528  -13.6289   20.6751 C   0  0  0  0  0  0  0  0  0  0  0  0
    8.8833  -13.4029   19.3964 C   0  0  0  0  0  0  0  0  0  0  0  0
    8.0248  -13.8954   18.2521 C   0  0  0  0  0  0  0  0  0  0  0  0
    8.7063  -13.7406   16.9037 C   0  0  0  0  0  0  0  0  0  0  0  0
    7.7808  -14.1965   15.8556 N   0  0  0  0  0  0  0  0  0  0  0  0
    9.6575  -15.5279   21.3042 C   0  0  0  0  0  0  0  0  0  0  0  0
   10.3705  -15.1786   22.2948 O   0  0  0  0  0  0  0  0  0  0  0  0
   13.2023  -20.3456   15.5172 N   0  0  0  0  0  0  0  0  0  0  0  0
   12.0105  -19.6128   15.8262 C   0  0  0  0  0  0  0  0  0  0  0  0
   11.1081  -19.4542   14.9294 N   0  0  0  0  0  0  0  0  0  0  0  0
   11.8085  -19.0527   17.1225 N   0  0  0  0  0  0  0  0  0  0  0  0
   11.6778  -19.8783   18.3029 C   0  0  0  0  0  0  0  0  0  0  0  0
   11.3095  -18.9477   19.4586 C   0  0  0  0  0  0  0  0  0  0  0  0
   12.0894  -17.6675   19.3828 C   0  0  0  0  0  0  0  0  0  0  0  0
   11.6984  -16.7459   20.4995 C   0  0  2  0  0  0  0  0  0  0  0  0
   10.2846  -16.3587   20.3537 N   0  0  0  0  0  0  0  0  0  0  0  0
   12.5298  -15.5458   20.6630 C   0  0  0  0  0  0  0  0  0  0  0  0
   13.4313  -15.4556   21.5136 O   0  0  0  0  0  0  0  0  0  0  0  0
   12.3540  -14.4053   19.8545 O   0  0  0  0  0  0  0  0  0  0  0  0
  2  1  1  1
  2  3  1  0
  4  3  1  0
  4  5  2  0
  6  5  1  0
  7  6  1  0
  8  7  2  0
  9  8  1  0
 10  9  2  0
 10 11  1  0
 11 12  2  0
 12  7  1  0
 12  4  1  0
 13  2  1  0
 14 13  2  0
 15 13  1  0
 16 17  1  1
 16 15  1  0
 17 18  1  0
 18 19  1  0
 19 20  1  0
 20 21  1  0
 22 32  1  0
 22 16  1  0
 23 22  2  0
 24 25  1  0
 25 26  2  0
 27 25  1  0
 27 28  1  0
 28 29  1  0
 29 30  1  0
 31 30  1  6
 31 32  1  0
 33 31  1  0
 34 33  2  0
 35 33  1  0
M  END
$$$$
