WKR.pdb
     RDKit          3D

 35 36  0  0  1  0  0  0  0  0999 V2000
    6.8125  -17.6348   25.4927 N   0  0  0  0  0  0  0  0  0  0  0  0
    7.3945  -16.4718   24.8832 C   0  0  1  0  0  0  0  0  0  0  0  0
    8.4447  -15.7920   25.7341 C   0  0  0  0  0  0  0  0  0  0  0  0
    7.9021  -14.7556   26.6281 C   0  0  0  0  0  0  0  0  0  0  0  0
    7.7581  -14.8490   27.9956 C   0  0  0  0  0  0  0  0  0  0  0  0
    7.1953  -13.7074   28.4796 N   0  0  0  0  0  0  0  0  0  0  0  0
    6.9676  -12.8634   27.4476 C   0  0  0  0  0  0  0  0  0  0  0  0
    6.4236  -11.5960   27.4263 C   0  0  0  0  0  0  0  0  0  0  0  0
    6.3121  -10.9492   26.2163 C   0  0  0  0  0  0  0  0  0  0  0  0
    6.7415  -11.5756   25.0699 C   0  0  0  0  0  0  0  0  0  0  0  0
    7.2809  -12.8300   25.0828 C   0  0  0  0  0  0  0  0  0  0  0  0
    7.4037  -13.5014   26.2807 C   0  0  0  0  0  0  0  0  0  0  0  0
    7.8939  -16.7498   23.5123 C   0  0  0  0  0  0  0  0  0  0  0  0
    8.3183  -17.8413   23.1114 O   0  0  0  0  0  0  0  0  0  0  0  0
    7.8865  -15.6653   22.5614 N   0  0  0  0  0  0  0  0  0  0  0  0
    8.3885  -15.8440   21.2034 C   0  0  1  0  0  0  0  0  0  0  0  0
    8.1182  -14.4962   20.5192 C   0  0  0  0  0  0  0  0  0  0  0  0
    8.7651  -14.3753   19.1825 C   0  0  0  0  0  0  0  0  0  0  0  0
    7.8057  -13.6842   18.2386 C   0  0  0  0  0  0  0  0  0  0  0  0
    8.3463  -13.5926   16.8222 C   0  0  0  0  0  0  0  0  0  0  0  0
    7.3236  -12.9682   15.9695 N   0  0  0  0  0  0  0  0  0  0  0  0
    9.8299  -16.1591   21.2750 C   0  0  0  0  0  0  0  0  0  0  0  0
   10.6049  -15.4833   22.0197 O   0  0  0  0  0  0  0  0  0  0  0  0
    9.7556  -19.9954   24.2037 N   0  0  0  0  0  0  0  0  0  0  0  0
   10.4967  -21.2106   24.0390 C   0  0  0  0  0  0  0  0  0  0  0  0
   10.6727  -21.9917   25.0404 N   0  0  0  0  0  0  0  0  0  0  0  0
   11.0456  -21.5697   22.7722 N   0  0  0  0  0  0  0  0  0  0  0  0
   10.9173  -20.7168   21.6111 C   0  0  0  0  0  0  0  0  0  0  0  0
   12.0298  -19.6721   21.7008 C   0  0  0  0  0  0  0  0  0  0  0  0
   12.1548  -18.9130   20.4120 C   0  0  0  0  0  0  0  0  0  0  0  0
   11.8797  -17.4550   20.6308 C   0  0  2  0  0  0  0  0  0  0  0  0
   10.4310  -17.2029   20.5430 N   0  0  0  0  0  0  0  0  0  0  0  0
   12.6018  -16.5258   19.7515 C   0  0  0  0  0  0  0  0  0  0  0  0
   12.2658  -16.3047   18.5757 O   0  0  0  0  0  0  0  0  0  0  0  0
   13.7373  -15.8176   20.1924 O   0  0  0  0  0  0  0  0  0  0  0  0
  2  1  1  1
  2  3  1  0
  4  3  1  0
  4  5  2  0
  6  5  1  0
  7  6  1  0
  8  7  2  0
  9  8  1  0
 10  9  2  0
 10 11  1  0
 11 12  2  0
 12  7  1  0
 12  4  1  0
 13  2  1  0
 14 13  2  0
 15 13  1  0
 16 17  1  6
 16 15  1  0
 17 18  1  0
 18 19  1  0
 19 20  1  0
 20 21  1  0
 22 32  1  0
 22 16  1  0
 23 22  2  0
 24 25  1  0
 25 26  2  0
 27 25  1  0
 27 28  1  0
 28 29  1  0
 29 30  1  0
 31 30  1  6
 31 32  1  0
 33 31  1  0
 34 33  2  0
 35 33  1  0
M  END
$$$$
