WKR.pdb
     RDKit          3D

 35 36  0  0  1  0  0  0  0  0999 V2000
    6.2508  -18.1286   25.1437 N   0  0  0  0  0  0  0  0  0  0  0  0
    6.8156  -16.9100   24.6349 C   0  0  1  0  0  0  0  0  0  0  0  0
    7.6464  -16.1488   25.6446 C   0  0  0  0  0  0  0  0  0  0  0  0
    6.9698  -14.9620   26.1937 C   0  0  0  0  0  0  0  0  0  0  0  0
    5.8713  -14.9591   27.0260 C   0  0  0  0  0  0  0  0  0  0  0  0
    5.5068  -13.6769   27.3048 N   0  0  0  0  0  0  0  0  0  0  0  0
    6.3523  -12.8360   26.6666 C   0  0  0  0  0  0  0  0  0  0  0  0
    6.3990  -11.4577   26.6401 C   0  0  0  0  0  0  0  0  0  0  0  0
    7.3869  -10.8479   25.9006 C   0  0  0  0  0  0  0  0  0  0  0  0
    8.2942  -11.6195   25.2134 C   0  0  0  0  0  0  0  0  0  0  0  0
    8.2545  -12.9843   25.2346 C   0  0  0  0  0  0  0  0  0  0  0  0
    7.2751  -13.6214   25.9664 C   0  0  0  0  0  0  0  0  0  0  0  0
    7.5550  -17.1241   23.3647 C   0  0  0  0  0  0  0  0  0  0  0  0
    8.1282  -18.1710   23.0364 O   0  0  0  0  0  0  0  0  0  0  0  0
    7.6148  -16.0283   22.4288 N   0  0  0  0  0  0  0  0  0  0  0  0
    8.3435  -16.1446   21.1704 C   0  0  1  0  0  0  0  0  0  0  0  0
    7.8608  -14.9460   20.3409 C   0  0  0  0  0  0  0  0  0  0  0  0
    8.4937  -14.8700   18.9942 C   0  0  0  0  0  0  0  0  0  0  0  0
    7.5964  -14.0649   18.0799 C   0  0  0  0  0  0  0  0  0  0  0  0
    8.0791  -14.0675   16.6398 C   0  0  0  0  0  0  0  0  0  0  0  0
    7.2429  -13.1396   15.8636 N   0  0  0  0  0  0  0  0  0  0  0  0
    9.7906  -16.0815   21.4601 C   0  0  0  0  0  0  0  0  0  0  0  0
   10.2560  -15.2026   22.2491 O   0  0  0  0  0  0  0  0  0  0  0  0
   11.4465  -23.1293   24.0256 N   0  0  0  0  0  0  0  0  0  0  0  0
   10.9580  -21.8073   24.2838 C   0  0  0  0  0  0  0  0  0  0  0  0
    9.7107  -21.6215   24.5150 N   0  0  0  0  0  0  0  0  0  0  0  0
   11.8405  -20.6865   24.2885 N   0  0  0  0  0  0  0  0  0  0  0  0
   12.5194  -20.2399   23.0919 C   0  0  0  0  0  0  0  0  0  0  0  0
   12.0405  -18.8150   22.8139 C   0  0  0  0  0  0  0  0  0  0  0  0
   12.6713  -18.2739   21.5640 C   0  0  0  0  0  0  0  0  0  0  0  0
   12.1558  -16.8971   21.2674 C   0  0  2  0  0  0  0  0  0  0  0  0
   10.7316  -16.9676   20.8977 N   0  0  0  0  0  0  0  0  0  0  0  0
   12.8977  -16.1381   20.2518 C   0  0  0  0  0  0  0  0  0  0  0  0
   12.5520  -16.0823   19.0594 O   0  0  0  0  0  0  0  0  0  0  0  0
   14.0648  -15.4160   20.5705 O   0  0  0  0  0  0  0  0  0  0  0  0
  2  1  1  1
  2  3  1  0
  4  3  1  0
  4  5  2  0
  6  5  1  0
  7  6  1  0
  8  7  2  0
  9  8  1  0
 10  9  2  0
 10 11  1  0
 11 12  2  0
 12  7  1  0
 12  4  1  0
 13  2  1  0
 14 13  2  0
 15 13  1  0
 16 17  1  6
 16 15  1  0
 17 18  1  0
 18 19  1  0
 19 20  1  0
 20 21  1  0
 22 32  1  0
 22 16  1  0
 23 22  2  0
 24 25  1  0
 25 26  2  0
 27 25  1  0
 27 28  1  0
 28 29  1  0
 29 30  1  0
 31 30  1  6
 31 32  1  0
 33 31  1  0
 34 33  2  0
 35 33  1  0
M  END
$$$$
