WKR.pdb
     RDKit          3D

 35 36  0  0  1  0  0  0  0  0999 V2000
    6.6458  -17.8135   23.9068 N   0  0  0  0  0  0  0  0  0  0  0  0
    7.7097  -16.8706   23.7022 C   0  0  1  0  0  0  0  0  0  0  0  0
    8.2842  -16.3045   24.9823 C   0  0  0  0  0  0  0  0  0  0  0  0
    7.4308  -15.2843   25.6138 C   0  0  0  0  0  0  0  0  0  0  0  0
    6.3441  -15.5176   26.4287 C   0  0  0  0  0  0  0  0  0  0  0  0
    5.7848  -14.3337   26.8025 N   0  0  0  0  0  0  0  0  0  0  0  0
    6.4903  -13.3239   26.2440 C   0  0  0  0  0  0  0  0  0  0  0  0
    6.3225  -11.9573   26.3267 C   0  0  0  0  0  0  0  0  0  0  0  0
    7.2048  -11.1450   25.6510 C   0  0  0  0  0  0  0  0  0  0  0  0
    8.2218  -11.7098   24.9177 C   0  0  0  0  0  0  0  0  0  0  0  0
    8.3944  -13.0616   24.8309 C   0  0  0  0  0  0  0  0  0  0  0  0
    7.5247  -13.8988   25.4969 C   0  0  0  0  0  0  0  0  0  0  0  0
    8.7716  -17.4098   22.8149 C   0  0  0  0  0  0  0  0  0  0  0  0
    9.3492  -18.4943   22.9648 O   0  0  0  0  0  0  0  0  0  0  0  0
    9.1690  -16.6122   21.6807 N   0  0  0  0  0  0  0  0  0  0  0  0
   10.2389  -17.0436   20.7876 C   0  0  1  0  0  0  0  0  0  0  0  0
    9.8102  -16.5283   19.4062 C   0  0  0  0  0  0  0  0  0  0  0  0
   10.8162  -16.7966   18.3405 C   0  0  0  0  0  0  0  0  0  0  0  0
   10.2368  -17.7983   17.3658 C   0  0  0  0  0  0  0  0  0  0  0  0
   11.2463  -18.2487   16.3242 C   0  0  0  0  0  0  0  0  0  0  0  0
   11.3946  -19.7090   16.4158 N   0  0  0  0  0  0  0  0  0  0  0  0
   11.5048  -16.4361   21.2463 C   0  0  0  0  0  0  0  0  0  0  0  0
   12.5589  -16.5267   20.5447 O   0  0  0  0  0  0  0  0  0  0  0  0
   12.1093  -16.8507   30.1087 N   0  0  0  0  0  0  0  0  0  0  0  0
   11.6954  -17.5364   28.9207 C   0  0  0  0  0  0  0  0  0  0  0  0
   10.9113  -18.5471   29.0074 N   0  0  0  0  0  0  0  0  0  0  0  0
   12.1429  -17.1120   27.6344 N   0  0  0  0  0  0  0  0  0  0  0  0
   12.7094  -18.0354   26.6761 C   0  0  0  0  0  0  0  0  0  0  0  0
   13.2576  -17.1976   25.5208 C   0  0  0  0  0  0  0  0  0  0  0  0
   12.1564  -16.7940   24.5842 C   0  0  0  0  0  0  0  0  0  0  0  0
   12.7118  -16.0432   23.4108 C   0  0  2  0  0  0  0  0  0  0  0  0
   11.6296  -15.7321   22.4611 N   0  0  0  0  0  0  0  0  0  0  0  0
   13.8256  -16.6891   22.7035 C   0  0  0  0  0  0  0  0  0  0  0  0
   13.7566  -17.8381   22.2348 O   0  0  0  0  0  0  0  0  0  0  0  0
   15.0596  -16.0374   22.5100 O   0  0  0  0  0  0  0  0  0  0  0  0
  2  1  1  1
  2  3  1  0
  4  3  1  0
  4  5  2  0
  6  5  1  0
  7  6  1  0
  8  7  2  0
  9  8  1  0
 10  9  2  0
 10 11  1  0
 11 12  2  0
 12  7  1  0
 12  4  1  0
 13  2  1  0
 14 13  2  0
 15 13  1  0
 16 17  1  6
 16 15  1  0
 17 18  1  0
 18 19  1  0
 19 20  1  0
 20 21  1  0
 22 32  1  0
 22 16  1  0
 23 22  2  0
 24 25  1  0
 25 26  2  0
 27 25  1  0
 27 28  1  0
 28 29  1  0
 29 30  1  0
 31 30  1  1
 31 32  1  0
 33 31  1  0
 34 33  2  0
 35 33  1  0
M  END
$$$$
