WKR.pdb
     RDKit          3D

 35 36  0  0  1  0  0  0  0  0999 V2000
    7.0462  -18.2464   26.3630 N   0  0  0  0  0  0  0  0  0  0  0  0
    7.6319  -17.7678   25.1420 C   0  0  1  0  0  0  0  0  0  0  0  0
    8.5382  -16.5700   25.3231 C   0  0  0  0  0  0  0  0  0  0  0  0
    7.8389  -15.3654   25.8004 C   0  0  0  0  0  0  0  0  0  0  0  0
    7.2072  -15.2143   27.0159 C   0  0  0  0  0  0  0  0  0  0  0  0
    6.6476  -13.9753   27.0945 N   0  0  0  0  0  0  0  0  0  0  0  0
    6.9038  -13.3088   25.9459 C   0  0  0  0  0  0  0  0  0  0  0  0
    6.5566  -12.0339   25.5501 C   0  0  0  0  0  0  0  0  0  0  0  0
    6.9606  -11.5986   24.3083 C   0  0  0  0  0  0  0  0  0  0  0  0
    7.6933  -12.4366   23.5007 C   0  0  0  0  0  0  0  0  0  0  0  0
    8.0408  -13.6999   23.8854 C   0  0  0  0  0  0  0  0  0  0  0  0
    7.6486  -14.1620   25.1237 C   0  0  0  0  0  0  0  0  0  0  0  0
    8.3013  -18.8529   24.3802 C   0  0  0  0  0  0  0  0  0  0  0  0
    9.1369  -19.6418   24.8401 O   0  0  0  0  0  0  0  0  0  0  0  0
    7.9547  -19.0099   22.9889 N   0  0  0  0  0  0  0  0  0  0  0  0
    8.6122  -20.0071   22.1514 C   0  0  1  0  0  0  0  0  0  0  0  0
    7.6237  -20.2470   21.0011 C   0  0  0  0  0  0  0  0  0  0  0  0
    8.1252  -21.2173   19.9878 C   0  0  0  0  0  0  0  0  0  0  0  0
    7.1106  -21.3213   18.8702 C   0  0  0  0  0  0  0  0  0  0  0  0
    7.5676  -22.2423   17.7523 C   0  0  0  0  0  0  0  0  0  0  0  0
    6.5954  -22.1617   16.6517 N   0  0  0  0  0  0  0  0  0  0  0  0
    9.8971  -19.4501   21.6816 C   0  0  0  0  0  0  0  0  0  0  0  0
   10.8400  -20.2164   21.3137 O   0  0  0  0  0  0  0  0  0  0  0  0
    7.3389  -14.4001   17.4893 N   0  0  0  0  0  0  0  0  0  0  0  0
    8.6864  -14.8363   17.2724 C   0  0  0  0  0  0  0  0  0  0  0  0
    9.1480  -14.9138   16.0788 N   0  0  0  0  0  0  0  0  0  0  0  0
    9.5294  -15.1882   18.3680 N   0  0  0  0  0  0  0  0  0  0  0  0
    9.1376  -14.9599   19.7415 C   0  0  0  0  0  0  0  0  0  0  0  0
   10.3179  -15.3809   20.6171 C   0  0  0  0  0  0  0  0  0  0  0  0
   11.0774  -16.5097   19.9830 C   0  0  0  0  0  0  0  0  0  0  0  0
   11.4032  -17.5622   21.0005 C   0  0  2  0  0  0  0  0  0  0  0  0
   10.1607  -18.0672   21.6099 N   0  0  0  0  0  0  0  0  0  0  0  0
   12.3500  -17.1680   22.0522 C   0  0  0  0  0  0  0  0  0  0  0  0
   12.7514  -16.0013   22.2014 O   0  0  0  0  0  0  0  0  0  0  0  0
   12.8704  -18.1015   22.9703 O   0  0  0  0  0  0  0  0  0  0  0  0
  2  1  1  1
  2  3  1  0
  4  3  1  0
  4  5  2  0
  6  5  1  0
  7  6  1  0
  8  7  2  0
  9  8  1  0
 10  9  2  0
 10 11  1  0
 11 12  2  0
 12  7  1  0
 12  4  1  0
 13  2  1  0
 14 13  2  0
 15 13  1  0
 16 17  1  6
 16 15  1  0
 17 18  1  0
 18 19  1  0
 19 20  1  0
 20 21  1  0
 22 32  1  0
 22 16  1  0
 23 22  2  0
 24 25  1  0
 25 26  2  0
 27 25  1  0
 27 28  1  0
 28 29  1  0
 29 30  1  0
 31 30  1  6
 31 32  1  0
 33 31  1  0
 34 33  2  0
 35 33  1  0
M  END
$$$$
