WKR.pdb
     RDKit          3D

 35 36  0  0  1  0  0  0  0  0999 V2000
    5.8962  -17.3873   24.1708 N   0  0  0  0  0  0  0  0  0  0  0  0
    6.6819  -16.2173   23.8939 C   0  0  1  0  0  0  0  0  0  0  0  0
    7.4829  -15.7204   25.0773 C   0  0  0  0  0  0  0  0  0  0  0  0
    6.7729  -14.7241   25.8964 C   0  0  0  0  0  0  0  0  0  0  0  0
    5.6740  -14.9557   26.6953 C   0  0  0  0  0  0  0  0  0  0  0  0
    5.2735  -13.7921   27.2783 N   0  0  0  0  0  0  0  0  0  0  0  0
    6.0957  -12.7974   26.8734 C   0  0  0  0  0  0  0  0  0  0  0  0
    6.1039  -11.4543   27.1874 C   0  0  0  0  0  0  0  0  0  0  0  0
    7.0750  -10.6548   26.6285 C   0  0  0  0  0  0  0  0  0  0  0  0
    8.0042  -11.2087   25.7795 C   0  0  0  0  0  0  0  0  0  0  0  0
    8.0027  -12.5373   25.4637 C   0  0  0  0  0  0  0  0  0  0  0  0
    7.0407  -13.3611   26.0085 C   0  0  0  0  0  0  0  0  0  0  0  0
    7.5317  -16.3872   22.6877 C   0  0  0  0  0  0  0  0  0  0  0  0
    8.0521  -17.4487   22.3209 O   0  0  0  0  0  0  0  0  0  0  0  0
    7.7754  -15.2256   21.8681 N   0  0  0  0  0  0  0  0  0  0  0  0
    8.8143  -15.2245   20.8439 C   0  0  1  0  0  0  0  0  0  0  0  0
    8.8630  -13.7696   20.3552 C   0  0  0  0  0  0  0  0  0  0  0  0
    7.9182  -13.4932   19.2369 C   0  0  0  0  0  0  0  0  0  0  0  0
    8.5496  -13.9543   17.9416 C   0  0  0  0  0  0  0  0  0  0  0  0
    7.6751  -13.6687   16.7330 C   0  0  0  0  0  0  0  0  0  0  0  0
    8.3361  -14.2126   15.5371 N   0  0  0  0  0  0  0  0  0  0  0  0
   10.0844  -15.6518   21.4652 C   0  0  0  0  0  0  0  0  0  0  0  0
   10.5153  -15.0840   22.5158 O   0  0  0  0  0  0  0  0  0  0  0  0
    9.0532  -22.1108   20.8690 N   0  0  0  0  0  0  0  0  0  0  0  0
    9.6936  -21.7472   22.0981 C   0  0  0  0  0  0  0  0  0  0  0  0
    9.1998  -22.1376   23.2150 N   0  0  0  0  0  0  0  0  0  0  0  0
   10.8788  -20.9533   22.1014 N   0  0  0  0  0  0  0  0  0  0  0  0
   11.3739  -20.3192   23.3034 C   0  0  0  0  0  0  0  0  0  0  0  0
   11.3834  -18.8132   23.0409 C   0  0  0  0  0  0  0  0  0  0  0  0
   12.2544  -18.4817   21.8643 C   0  0  0  0  0  0  0  0  0  0  0  0
   12.1889  -17.0152   21.5573 C   0  0  2  0  0  0  0  0  0  0  0  0
   10.8861  -16.6910   20.9511 N   0  0  0  0  0  0  0  0  0  0  0  0
   13.2739  -16.4847   20.7210 C   0  0  0  0  0  0  0  0  0  0  0  0
   14.3408  -16.0511   21.1881 O   0  0  0  0  0  0  0  0  0  0  0  0
   13.1711  -16.4330   19.3167 O   0  0  0  0  0  0  0  0  0  0  0  0
  2  1  1  1
  2  3  1  0
  4  3  1  0
  4  5  2  0
  6  5  1  0
  7  6  1  0
  8  7  2  0
  9  8  1  0
 10  9  2  0
 10 11  1  0
 11 12  2  0
 12  7  1  0
 12  4  1  0
 13  2  1  0
 14 13  2  0
 15 13  1  0
 16 17  1  1
 16 15  1  0
 17 18  1  0
 18 19  1  0
 19 20  1  0
 20 21  1  0
 22 32  1  0
 22 16  1  0
 23 22  2  0
 24 25  1  0
 25 26  2  0
 27 25  1  0
 27 28  1  0
 28 29  1  0
 29 30  1  0
 31 30  1  6
 31 32  1  0
 33 31  1  0
 34 33  2  0
 35 33  1  0
M  END
$$$$
