WKR.pdb
     RDKit          3D

 35 36  0  0  1  0  0  0  0  0999 V2000
    6.6839  -17.4790   25.0360 N   0  0  0  0  0  0  0  0  0  0  0  0
    7.2012  -16.2911   24.4163 C   0  0  1  0  0  0  0  0  0  0  0  0
    8.2486  -15.5743   25.2398 C   0  0  0  0  0  0  0  0  0  0  0  0
    7.6874  -14.7439   26.3184 C   0  0  0  0  0  0  0  0  0  0  0  0
    7.4668  -15.1355   27.6213 C   0  0  0  0  0  0  0  0  0  0  0  0
    6.9106  -14.1099   28.3236 N   0  0  0  0  0  0  0  0  0  0  0  0
    6.7628  -13.0480   27.4992 C   0  0  0  0  0  0  0  0  0  0  0  0
    6.2563  -11.7876   27.7391 C   0  0  0  0  0  0  0  0  0  0  0  0
    6.2287  -10.8824   26.7025 C   0  0  0  0  0  0  0  0  0  0  0  0
    6.7021  -11.2526   25.4656 C   0  0  0  0  0  0  0  0  0  0  0  0
    7.2049  -12.4982   25.2202 C   0  0  0  0  0  0  0  0  0  0  0  0
    7.2437  -13.4251   26.2401 C   0  0  0  0  0  0  0  0  0  0  0  0
    7.6701  -16.5427   23.0297 C   0  0  0  0  0  0  0  0  0  0  0  0
    8.1363  -17.6110   22.6132 O   0  0  0  0  0  0  0  0  0  0  0  0
    7.5774  -15.4595   22.0819 N   0  0  0  0  0  0  0  0  0  0  0  0
    8.2537  -15.5215   20.7907 C   0  0  1  0  0  0  0  0  0  0  0  0
    7.7226  -14.3006   20.0258 C   0  0  0  0  0  0  0  0  0  0  0  0
    8.5967  -13.8924   18.8904 C   0  0  0  0  0  0  0  0  0  0  0  0
    7.9375  -14.3107   17.5944 C   0  0  0  0  0  0  0  0  0  0  0  0
    7.9145  -13.1937   16.5654 C   0  0  0  0  0  0  0  0  0  0  0  0
    7.1535  -13.6518   15.3933 N   0  0  0  0  0  0  0  0  0  0  0  0
    9.7109  -15.4500   21.0218 C   0  0  0  0  0  0  0  0  0  0  0  0
   10.1743  -14.9219   22.0791 O   0  0  0  0  0  0  0  0  0  0  0  0
    9.0936  -21.1352   19.5363 N   0  0  0  0  0  0  0  0  0  0  0  0
    9.5214  -21.4942   20.8558 C   0  0  0  0  0  0  0  0  0  0  0  0
    8.6826  -21.9991   21.6836 N   0  0  0  0  0  0  0  0  0  0  0  0
   10.8731  -21.2989   21.2678 N   0  0  0  0  0  0  0  0  0  0  0  0
   11.2337  -20.3338   22.2830 C   0  0  0  0  0  0  0  0  0  0  0  0
   11.9348  -19.1778   21.5694 C   0  0  0  0  0  0  0  0  0  0  0  0
   10.9499  -18.1138   21.1812 C   0  0  0  0  0  0  0  0  0  0  0  0
   11.6506  -16.9620   20.5242 C   0  0  2  0  0  0  0  0  0  0  0  0
   10.6641  -15.9491   20.1111 N   0  0  0  0  0  0  0  0  0  0  0  0
   12.5212  -17.3016   19.3907 C   0  0  0  0  0  0  0  0  0  0  0  0
   12.0848  -17.6269   18.2735 O   0  0  0  0  0  0  0  0  0  0  0  0
   13.9257  -17.2800   19.5011 O   0  0  0  0  0  0  0  0  0  0  0  0
  2  1  1  1
  2  3  1  0
  4  3  1  0
  4  5  2  0
  6  5  1  0
  7  6  1  0
  8  7  2  0
  9  8  1  0
 10  9  2  0
 10 11  1  0
 11 12  2  0
 12  7  1  0
 12  4  1  0
 13  2  1  0
 14 13  2  0
 15 13  1  0
 16 17  1  6
 16 15  1  0
 17 18  1  0
 18 19  1  0
 19 20  1  0
 20 21  1  0
 22 32  1  0
 22 16  1  0
 23 22  2  0
 24 25  1  0
 25 26  2  0
 27 25  1  0
 27 28  1  0
 28 29  1  0
 29 30  1  0
 31 30  1  6
 31 32  1  0
 33 31  1  0
 34 33  2  0
 35 33  1  0
M  END
$$$$
