WKR.pdb
     RDKit          3D

 35 36  0  0  1  0  0  0  0  0999 V2000
    8.9726  -14.5255   24.1506 N   0  0  0  0  0  0  0  0  0  0  0  0
    8.5356  -15.8003   23.6540 C   0  0  1  0  0  0  0  0  0  0  0  0
    7.3012  -16.3386   24.3437 C   0  0  0  0  0  0  0  0  0  0  0  0
    6.7432  -15.4261   25.3555 C   0  0  0  0  0  0  0  0  0  0  0  0
    5.8242  -15.7497   26.3303 C   0  0  0  0  0  0  0  0  0  0  0  0
    5.5210  -14.6436   27.0644 N   0  0  0  0  0  0  0  0  0  0  0  0
    6.2296  -13.5960   26.5852 C   0  0  0  0  0  0  0  0  0  0  0  0
    6.2718  -12.2784   26.9913 C   0  0  0  0  0  0  0  0  0  0  0  0
    7.1007  -11.4097   26.3183 C   0  0  0  0  0  0  0  0  0  0  0  0
    7.8591  -11.8716   25.2683 C   0  0  0  0  0  0  0  0  0  0  0  0
    7.8228  -13.1743   24.8603 C   0  0  0  0  0  0  0  0  0  0  0  0
    7.0007  -14.0659   25.5159 C   0  0  0  0  0  0  0  0  0  0  0  0
    8.3844  -15.8027   22.1765 C   0  0  0  0  0  0  0  0  0  0  0  0
    7.9925  -16.7605   21.4973 O   0  0  0  0  0  0  0  0  0  0  0  0
    8.7176  -14.5932   21.4647 N   0  0  0  0  0  0  0  0  0  0  0  0
    9.3717  -14.6360   20.1614 C   0  0  1  0  0  0  0  0  0  0  0  0
    8.7460  -13.4683   19.3850 C   0  0  0  0  0  0  0  0  0  0  0  0
    9.3019  -13.3105   18.0117 C   0  0  0  0  0  0  0  0  0  0  0  0
    8.2003  -13.5721   17.0082 C   0  0  0  0  0  0  0  0  0  0  0  0
    8.6865  -13.4801   15.5722 C   0  0  0  0  0  0  0  0  0  0  0  0
    7.5478  -13.7279   14.6750 N   0  0  0  0  0  0  0  0  0  0  0  0
   10.8251  -14.4635   20.3615 C   0  0  0  0  0  0  0  0  0  0  0  0
   11.2750  -13.9381   21.4260 O   0  0  0  0  0  0  0  0  0  0  0  0
   16.5112  -15.9529   23.0551 N   0  0  0  0  0  0  0  0  0  0  0  0
   17.6102  -16.1689   22.1614 C   0  0  0  0  0  0  0  0  0  0  0  0
   18.8013  -15.8714   22.5307 N   0  0  0  0  0  0  0  0  0  0  0  0
   17.4015  -16.7130   20.8593 N   0  0  0  0  0  0  0  0  0  0  0  0
   16.0813  -17.0403   20.3673 C   0  0  0  0  0  0  0  0  0  0  0  0
   15.3883  -15.7180   20.0383 C   0  0  0  0  0  0  0  0  0  0  0  0
   13.8959  -15.8719   20.0816 C   0  0  0  0  0  0  0  0  0  0  0  0
   13.2230  -14.6075   19.6366 C   0  0  2  0  0  0  0  0  0  0  0  0
   11.7890  -14.8590   19.4121 N   0  0  0  0  0  0  0  0  0  0  0  0
   13.8045  -13.9505   18.4584 C   0  0  0  0  0  0  0  0  0  0  0  0
   14.9784  -13.5446   18.4181 O   0  0  0  0  0  0  0  0  0  0  0  0
   13.0567  -13.7357   17.2838 O   0  0  0  0  0  0  0  0  0  0  0  0
  2  1  1  1
  2  3  1  0
  4  3  1  0
  4  5  2  0
  6  5  1  0
  7  6  1  0
  8  7  2  0
  9  8  1  0
 10  9  2  0
 10 11  1  0
 11 12  2  0
 12  7  1  0
 12  4  1  0
 13  2  1  0
 14 13  2  0
 15 13  1  0
 16 17  1  6
 16 15  1  0
 17 18  1  0
 18 19  1  0
 19 20  1  0
 20 21  1  0
 22 32  1  0
 22 16  1  0
 23 22  2  0
 24 25  1  0
 25 26  2  0
 27 25  1  0
 27 28  1  0
 28 29  1  0
 29 30  1  0
 31 30  1  6
 31 32  1  0
 33 31  1  0
 34 33  2  0
 35 33  1  0
M  END
$$$$
