WKR.pdb
     RDKit          3D

 35 36  0  0  1  0  0  0  0  0999 V2000
    8.2868  -18.1991   20.1274 N   0  0  0  0  0  0  0  0  0  0  0  0
    9.3199  -17.5389   20.8754 C   0  0  1  0  0  0  0  0  0  0  0  0
    8.8029  -16.5517   21.8987 C   0  0  0  0  0  0  0  0  0  0  0  0
    7.9867  -15.4718   21.3197 C   0  0  0  0  0  0  0  0  0  0  0  0
    6.6310  -15.2906   21.4895 C   0  0  0  0  0  0  0  0  0  0  0  0
    6.2182  -14.2035   20.7807 N   0  0  0  0  0  0  0  0  0  0  0  0
    7.2856  -13.6666   20.1470 C   0  0  0  0  0  0  0  0  0  0  0  0
    7.3803  -12.5661   19.3209 C   0  0  0  0  0  0  0  0  0  0  0  0
    8.6137  -12.2338   18.8079 C   0  0  0  0  0  0  0  0  0  0  0  0
    9.7104  -12.9990   19.1284 C   0  0  0  0  0  0  0  0  0  0  0  0
    9.6248  -14.0899   19.9453 C   0  0  0  0  0  0  0  0  0  0  0  0
    8.4016  -14.4461   20.4723 C   0  0  0  0  0  0  0  0  0  0  0  0
   10.2775  -18.5021   21.4763 C   0  0  0  0  0  0  0  0  0  0  0  0
    9.9692  -19.5385   22.0788 O   0  0  0  0  0  0  0  0  0  0  0  0
   11.6858  -18.2163   21.3516 N   0  0  0  0  0  0  0  0  0  0  0  0
   12.6946  -19.1311   21.8747 C   0  0  1  0  0  0  0  0  0  0  0  0
   13.9971  -18.6893   21.1920 C   0  0  0  0  0  0  0  0  0  0  0  0
   15.1966  -19.4245   21.6825 C   0  0  0  0  0  0  0  0  0  0  0  0
   16.4187  -18.8952   20.9647 C   0  0  0  0  0  0  0  0  0  0  0  0
   17.6935  -19.6082   21.3811 C   0  0  0  0  0  0  0  0  0  0  0  0
   18.8270  -18.9925   20.6749 N   0  0  0  0  0  0  0  0  0  0  0  0
   12.7492  -18.9776   23.3428 C   0  0  0  0  0  0  0  0  0  0  0  0
   12.6099  -17.8362   23.8808 O   0  0  0  0  0  0  0  0  0  0  0  0
   13.6857  -22.0517   30.9020 N   0  0  0  0  0  0  0  0  0  0  0  0
   12.2928  -21.7418   31.0317 C   0  0  0  0  0  0  0  0  0  0  0  0
   11.7874  -21.5483   32.1940 N   0  0  0  0  0  0  0  0  0  0  0  0
   11.4526  -21.6438   29.8831 N   0  0  0  0  0  0  0  0  0  0  0  0
   11.8815  -22.0968   28.5781 C   0  0  0  0  0  0  0  0  0  0  0  0
   12.4919  -20.8896   27.8661 C   0  0  0  0  0  0  0  0  0  0  0  0
   12.3657  -21.0277   26.3769 C   0  0  0  0  0  0  0  0  0  0  0  0
   12.9817  -19.8486   25.6845 C   0  0  2  0  0  0  0  0  0  0  0  0
   12.9536  -20.0566   24.2265 N   0  0  0  0  0  0  0  0  0  0  0  0
   14.3413  -19.4911   26.1111 C   0  0  0  0  0  0  0  0  0  0  0  0
   15.3559  -20.0904   25.7164 O   0  0  0  0  0  0  0  0  0  0  0  0
   14.5833  -18.4316   27.0079 O   0  0  0  0  0  0  0  0  0  0  0  0
  2  1  1  1
  2  3  1  0
  4  3  1  0
  4  5  2  0
  6  5  1  0
  7  6  1  0
  8  7  2  0
  9  8  1  0
 10  9  2  0
 10 11  1  0
 11 12  2  0
 12  7  1  0
 12  4  1  0
 13  2  1  0
 14 13  2  0
 15 13  1  0
 16 17  1  6
 16 15  1  0
 17 18  1  0
 18 19  1  0
 19 20  1  0
 20 21  1  0
 22 32  1  0
 22 16  1  0
 23 22  2  0
 24 25  1  0
 25 26  2  0
 27 25  1  0
 27 28  1  0
 28 29  1  0
 29 30  1  0
 31 30  1  1
 31 32  1  0
 33 31  1  0
 34 33  2  0
 35 33  1  0
M  END
$$$$
