WKR.pdb
     RDKit          3D

 35 36  0  0  1  0  0  0  0  0999 V2000
    6.4297  -18.3461   24.7059 N   0  0  0  0  0  0  0  0  0  0  0  0
    6.8233  -17.0148   24.3376 C   0  0  1  0  0  0  0  0  0  0  0  0
    7.5414  -16.2603   25.4349 C   0  0  0  0  0  0  0  0  0  0  0  0
    6.7590  -15.1471   25.9976 C   0  0  0  0  0  0  0  0  0  0  0  0
    5.5033  -15.2321   26.5592 C   0  0  0  0  0  0  0  0  0  0  0  0
    5.0852  -13.9947   26.9445 N   0  0  0  0  0  0  0  0  0  0  0  0
    6.0506  -13.0964   26.6441 C   0  0  0  0  0  0  0  0  0  0  0  0
    6.1012  -11.7320   26.8403 C   0  0  0  0  0  0  0  0  0  0  0  0
    7.2281  -11.0517   26.4380 C   0  0  0  0  0  0  0  0  0  0  0  0
    8.2659  -11.7417   25.8565 C   0  0  0  0  0  0  0  0  0  0  0  0
    8.2233  -13.0922   25.6588 C   0  0  0  0  0  0  0  0  0  0  0  0
    7.1063  -13.7986   26.0513 C   0  0  0  0  0  0  0  0  0  0  0  0
    7.5863  -16.9898   23.0636 C   0  0  0  0  0  0  0  0  0  0  0  0
    8.3407  -17.8851   22.6618 O   0  0  0  0  0  0  0  0  0  0  0  0
    7.4420  -15.8313   22.2164 N   0  0  0  0  0  0  0  0  0  0  0  0
    8.2267  -15.6821   20.9957 C   0  0  1  0  0  0  0  0  0  0  0  0
    7.6637  -14.4150   20.3359 C   0  0  0  0  0  0  0  0  0  0  0  0
    8.3047  -14.0984   19.0288 C   0  0  0  0  0  0  0  0  0  0  0  0
    7.6338  -12.8761   18.4415 C   0  0  0  0  0  0  0  0  0  0  0  0
    8.1876  -12.5068   17.0763 C   0  0  0  0  0  0  0  0  0  0  0  0
    7.9645  -13.6348   16.1593 N   0  0  0  0  0  0  0  0  0  0  0  0
    9.6488  -15.5376   21.3682 C   0  0  0  0  0  0  0  0  0  0  0  0
   10.0458  -14.5313   22.0326 O   0  0  0  0  0  0  0  0  0  0  0  0
    9.6732  -17.8522   26.9939 N   0  0  0  0  0  0  0  0  0  0  0  0
   10.6339  -18.8170   26.5476 C   0  0  0  0  0  0  0  0  0  0  0  0
   10.4615  -20.0594   26.8128 N   0  0  0  0  0  0  0  0  0  0  0  0
   11.7865  -18.4173   25.8081 N   0  0  0  0  0  0  0  0  0  0  0  0
   11.8811  -17.1191   25.1774 C   0  0  0  0  0  0  0  0  0  0  0  0
   11.8981  -17.3577   23.6676 C   0  0  0  0  0  0  0  0  0  0  0  0
   12.0963  -16.0683   22.9252 C   0  0  0  0  0  0  0  0  0  0  0  0
   12.0385  -16.2990   21.4444 C   0  0  2  0  0  0  0  0  0  0  0  0
   10.6386  -16.4799   21.0229 N   0  0  0  0  0  0  0  0  0  0  0  0
   12.8599  -17.4048   20.9338 C   0  0  0  0  0  0  0  0  0  0  0  0
   14.0774  -17.5069   21.1612 O   0  0  0  0  0  0  0  0  0  0  0  0
   12.3110  -18.4331   20.1424 O   0  0  0  0  0  0  0  0  0  0  0  0
  2  1  1  1
  2  3  1  0
  4  3  1  0
  4  5  2  0
  6  5  1  0
  7  6  1  0
  8  7  2  0
  9  8  1  0
 10  9  2  0
 10 11  1  0
 11 12  2  0
 12  7  1  0
 12  4  1  0
 13  2  1  0
 14 13  2  0
 15 13  1  0
 16 17  1  1
 16 15  1  0
 17 18  1  0
 18 19  1  0
 19 20  1  0
 20 21  1  0
 22 32  1  0
 22 16  1  0
 23 22  2  0
 24 25  1  0
 25 26  2  0
 27 25  1  0
 27 28  1  0
 28 29  1  0
 29 30  1  0
 31 30  1  1
 31 32  1  0
 33 31  1  0
 34 33  2  0
 35 33  1  0
M  END
$$$$
