HMC.pdb
     RDKit          3D

 25 25  0  0  1  0  0  0  0  0999 V2000
    7.6425  -15.5129   20.1098 N   0  0  0  0  0  0  0  0  0  0  0  0
    9.0435  -15.3352   20.4034 C   0  0  1  0  0  0  0  0  0  0  0  0
    9.4249  -14.0038   19.7329 C   0  0  0  0  0  0  0  0  0  0  0  0
    8.8355  -13.9652   18.3498 C   0  0  0  0  0  0  0  0  0  0  0  0
    7.8424  -13.1252   17.8951 C   0  0  0  0  0  0  0  0  0  0  0  0
    7.5774  -13.3985   16.5994 N   0  0  0  0  0  0  0  0  0  0  0  0
    8.3879  -14.3969   16.2333 C   0  0  0  0  0  0  0  0  0  0  0  0
    9.1508  -14.7403   17.2953 N   0  0  0  0  0  0  0  0  0  0  0  0
    9.3030  -15.1319   21.8572 C   0  0  0  0  0  0  0  0  0  0  0  0
   10.4757  -14.8906   22.2105 O   0  0  0  0  0  0  0  0  0  0  0  0
    6.9909  -11.1018   26.9313 C   0  0  0  0  0  0  0  0  0  0  0  0
    6.2847  -12.7625   26.8786 S   0  0  0  0  0  0  0  0  0  0  0  0
    7.4879  -13.9908   26.3162 C   0  0  0  0  0  0  0  0  0  0  0  0
    7.2328  -14.3628   24.8771 C   0  0  0  0  0  0  0  0  0  0  0  0
    8.4797  -14.9701   24.2359 C   0  0  2  0  0  0  0  0  0  0  0  0
    8.2902  -15.1996   22.8353 N   0  0  0  0  0  0  0  0  0  0  0  0
    8.7747  -16.2259   24.9602 C   0  0  0  0  0  0  0  0  0  0  0  0
    7.9391  -17.1785   25.0310 O   0  0  0  0  0  0  0  0  0  0  0  0
   10.0187  -16.4711   25.6354 N   0  0  0  0  0  0  0  0  0  0  0  0
   10.2991  -17.7605   26.2443 C   0  0  1  0  0  0  0  0  0  0  0  0
   11.8024  -18.0046   26.3046 C   0  0  0  0  0  0  0  0  0  0  0  0
   12.4526  -17.7533   24.6288 S   0  0  0  0  0  0  0  0  0  0  0  0
    9.7940  -17.7743   27.6307 C   0  0  0  0  0  0  0  0  0  0  0  0
    9.2405  -16.7618   28.1107 O   0  0  0  0  0  0  0  0  0  0  0  0
    9.9388  -18.9182   28.3940 O   0  0  0  0  0  0  0  0  0  0  0  0
  2  1  1  1
  2  9  1  0
  3  4  1  0
  3  2  1  0
  4  5  2  0
  6  5  1  0
  7  6  1  0
  8  7  2  0
  8  4  1  0
  9 10  2  0
 11 12  1  0
 12 13  1  0
 14 13  1  0
 15 14  1  1
 16 15  1  0
 16  9  1  0
 17 15  1  0
 18 17  2  0
 19 17  1  0
 20 23  1  0
 20 19  1  0
 20 21  1  1
 22 21  1  0
 23 25  1  0
 24 23  2  0
M  END
$$$$
