HMC.pdb
     RDKit          3D

 25 25  0  0  1  0  0  0  0  0999 V2000
    9.6527  -14.0560   19.4437 N   0  0  0  0  0  0  0  0  0  0  0  0
    8.5221  -14.5035   20.2196 C   0  0  1  0  0  0  0  0  0  0  0  0
    8.3611  -15.9924   19.8661 C   0  0  0  0  0  0  0  0  0  0  0  0
    7.8947  -16.1101   18.4413 C   0  0  0  0  0  0  0  0  0  0  0  0
    7.7796  -15.0920   17.5199 C   0  0  0  0  0  0  0  0  0  0  0  0
    7.3202  -15.5895   16.3516 N   0  0  0  0  0  0  0  0  0  0  0  0
    7.1448  -16.9037   16.5245 C   0  0  0  0  0  0  0  0  0  0  0  0
    7.4934  -17.2191   17.7921 N   0  0  0  0  0  0  0  0  0  0  0  0
    8.7860  -14.4739   21.6865 C   0  0  0  0  0  0  0  0  0  0  0  0
    9.9750  -14.5142   22.0645 O   0  0  0  0  0  0  0  0  0  0  0  0
    7.4615  -11.6826   28.2968 C   0  0  0  0  0  0  0  0  0  0  0  0
    7.1950  -12.0424   26.5479 S   0  0  0  0  0  0  0  0  0  0  0  0
    6.8556  -13.7964   26.2631 C   0  0  0  0  0  0  0  0  0  0  0  0
    6.6327  -14.0619   24.7954 C   0  0  0  0  0  0  0  0  0  0  0  0
    7.9606  -14.2216   24.0566 C   0  0  2  0  0  0  0  0  0  0  0  0
    7.7599  -14.4021   22.6504 N   0  0  0  0  0  0  0  0  0  0  0  0
    8.6598  -15.3767   24.6613 C   0  0  0  0  0  0  0  0  0  0  0  0
    8.1598  -16.5431   24.6667 O   0  0  0  0  0  0  0  0  0  0  0  0
    9.9501  -15.2769   25.2849 N   0  0  0  0  0  0  0  0  0  0  0  0
   10.5319  -16.4081   25.9877 C   0  0  1  0  0  0  0  0  0  0  0  0
    9.5174  -17.0156   26.9494 C   0  0  0  0  0  0  0  0  0  0  0  0
    9.6941  -16.1459   28.5327 S   0  0  0  0  0  0  0  0  0  0  0  0
   10.9031  -17.4565   25.0180 C   0  0  0  0  0  0  0  0  0  0  0  0
   11.5563  -18.4555   25.3880 O   0  0  0  0  0  0  0  0  0  0  0  0
   10.5212  -17.3231   23.6956 O   0  0  0  0  0  0  0  0  0  0  0  0
  2  1  1  6
  2  9  1  0
  3  4  1  0
  3  2  1  0
  4  5  2  0
  6  5  1  0
  7  6  1  0
  8  7  2  0
  8  4  1  0
  9 10  2  0
 11 12  1  0
 12 13  1  0
 14 13  1  0
 15 14  1  1
 16 15  1  0
 16  9  1  0
 17 15  1  0
 18 17  2  0
 19 17  1  0
 20 23  1  0
 20 19  1  0
 20 21  1  1
 22 21  1  0
 23 25  1  0
 24 23  2  0
M  END
$$$$
