HMC.pdb
     RDKit          3D

 25 25  0  0  1  0  0  0  0  0999 V2000
    9.2639  -16.7423   19.2954 N   0  0  0  0  0  0  0  0  0  0  0  0
    8.2320  -16.7915   20.3020 C   0  0  1  0  0  0  0  0  0  0  0  0
    8.0118  -18.2900   20.5734 C   0  0  0  0  0  0  0  0  0  0  0  0
    7.3713  -18.9176   19.3661 C   0  0  0  0  0  0  0  0  0  0  0  0
    6.5280  -18.3071   18.4635 C   0  0  0  0  0  0  0  0  0  0  0  0
    6.1530  -19.1984   17.5209 N   0  0  0  0  0  0  0  0  0  0  0  0
    6.7472  -20.3590   17.8172 C   0  0  0  0  0  0  0  0  0  0  0  0
    7.4860  -20.1882   18.9365 N   0  0  0  0  0  0  0  0  0  0  0  0
    8.6742  -16.2168   21.6045 C   0  0  0  0  0  0  0  0  0  0  0  0
    9.8729  -16.3553   21.9244 O   0  0  0  0  0  0  0  0  0  0  0  0
    6.7333  -11.4872   27.7332 C   0  0  0  0  0  0  0  0  0  0  0  0
    6.2416  -12.2773   26.1861 S   0  0  0  0  0  0  0  0  0  0  0  0
    7.4640  -13.4884   25.6277 C   0  0  0  0  0  0  0  0  0  0  0  0
    7.1484  -13.9540   24.2285 C   0  0  0  0  0  0  0  0  0  0  0  0
    8.1758  -14.9756   23.7430 C   0  0  2  0  0  0  0  0  0  0  0  0
    7.8043  -15.5318   22.4769 N   0  0  0  0  0  0  0  0  0  0  0  0
    8.2814  -16.0178   24.7877 C   0  0  0  0  0  0  0  0  0  0  0  0
    7.5600  -17.0619   24.7771 O   0  0  0  0  0  0  0  0  0  0  0  0
    9.2005  -15.9378   25.8888 N   0  0  0  0  0  0  0  0  0  0  0  0
    9.8914  -17.1201   26.3753 C   0  0  1  0  0  0  0  0  0  0  0  0
   10.8383  -17.6590   25.3095 C   0  0  0  0  0  0  0  0  0  0  0  0
   11.6468  -19.1275   26.0055 S   0  0  0  0  0  0  0  0  0  0  0  0
   10.7075  -16.7678   27.5531 C   0  0  0  0  0  0  0  0  0  0  0  0
   11.4568  -15.7680   27.5253 O   0  0  0  0  0  0  0  0  0  0  0  0
   10.6353  -17.5544   28.6881 O   0  0  0  0  0  0  0  0  0  0  0  0
  2  1  1  6
  2  9  1  0
  3  4  1  0
  3  2  1  0
  4  5  2  0
  6  5  1  0
  7  6  1  0
  8  7  2  0
  8  4  1  0
  9 10  2  0
 11 12  1  0
 12 13  1  0
 14 13  1  0
 15 14  1  1
 16 15  1  0
 16  9  1  0
 17 15  1  0
 18 17  2  0
 19 17  1  0
 20 23  1  0
 20 19  1  0
 20 21  1  6
 22 21  1  0
 23 25  1  0
 24 23  2  0
M  END
$$$$
