HMC.pdb
     RDKit          3D

 25 25  0  0  1  0  0  0  0  0999 V2000
   10.1256  -15.8709   20.0009 N   0  0  0  0  0  0  0  0  0  0  0  0
   10.3399  -16.6147   21.2180 C   0  0  1  0  0  0  0  0  0  0  0  0
   11.8620  -16.8278   21.2914 C   0  0  0  0  0  0  0  0  0  0  0  0
   12.2293  -18.0278   20.4629 C   0  0  0  0  0  0  0  0  0  0  0  0
   11.3736  -18.8270   19.7363 C   0  0  0  0  0  0  0  0  0  0  0  0
   12.0761  -19.8094   19.1321 N   0  0  0  0  0  0  0  0  0  0  0  0
   13.3593  -19.6401   19.4678 C   0  0  0  0  0  0  0  0  0  0  0  0
   13.4517  -18.5595   20.2750 N   0  0  0  0  0  0  0  0  0  0  0  0
    9.9933  -15.8304   22.4375 C   0  0  0  0  0  0  0  0  0  0  0  0
   10.2054  -14.6005   22.4177 O   0  0  0  0  0  0  0  0  0  0  0  0
    6.8291  -11.9314   25.1971 C   0  0  0  0  0  0  0  0  0  0  0  0
    6.5720  -13.5710   25.9077 S   0  0  0  0  0  0  0  0  0  0  0  0
    6.6753  -14.8735   24.6564 C   0  0  0  0  0  0  0  0  0  0  0  0
    7.5790  -15.9869   25.1233 C   0  0  0  0  0  0  0  0  0  0  0  0
    9.0369  -15.6988   24.7678 C   0  0  2  0  0  0  0  0  0  0  0  0
    9.4422  -16.4148   23.5958 N   0  0  0  0  0  0  0  0  0  0  0  0
    9.8539  -16.0692   25.9441 C   0  0  0  0  0  0  0  0  0  0  0  0
   10.4491  -17.1868   26.0297 O   0  0  0  0  0  0  0  0  0  0  0  0
   10.0419  -15.2041   27.0754 N   0  0  0  0  0  0  0  0  0  0  0  0
   10.8523  -15.6181   28.2085 C   0  0  1  0  0  0  0  0  0  0  0  0
   10.8683  -14.5308   29.2765 C   0  0  0  0  0  0  0  0  0  0  0  0
   10.1924  -13.0266   28.5183 S   0  0  0  0  0  0  0  0  0  0  0  0
   10.2688  -16.8279   28.8195 C   0  0  0  0  0  0  0  0  0  0  0  0
   10.8955  -17.4549   29.7003 O   0  0  0  0  0  0  0  0  0  0  0  0
    9.0219  -17.2615   28.4081 O   0  0  0  0  0  0  0  0  0  0  0  0
  2  1  1  6
  2  9  1  0
  3  4  1  0
  3  2  1  0
  4  5  2  0
  6  5  1  0
  7  6  1  0
  8  7  2  0
  8  4  1  0
  9 10  2  0
 11 12  1  0
 12 13  1  0
 14 13  1  0
 15 14  1  1
 16 15  1  0
 16  9  1  0
 17 15  1  0
 18 17  2  0
 19 17  1  0
 20 23  1  0
 20 19  1  0
 20 21  1  1
 22 21  1  0
 23 25  1  0
 24 23  2  0
M  END
$$$$
