HMC.pdb
     RDKit          3D

 25 25  0  0  1  0  0  0  0  0999 V2000
   10.3134  -15.8862   19.8368 N   0  0  0  0  0  0  0  0  0  0  0  0
    9.0250  -15.9089   20.4850 C   0  0  1  0  0  0  0  0  0  0  0  0
    8.5177  -17.3513   20.3117 C   0  0  0  0  0  0  0  0  0  0  0  0
    8.2144  -17.5927   18.8586 C   0  0  0  0  0  0  0  0  0  0  0  0
    7.4962  -16.7739   18.0145 C   0  0  0  0  0  0  0  0  0  0  0  0
    7.4319  -17.3345   16.7876 N   0  0  0  0  0  0  0  0  0  0  0  0
    8.0981  -18.4922   16.8477 C   0  0  0  0  0  0  0  0  0  0  0  0
    8.5725  -18.6485   18.1040 N   0  0  0  0  0  0  0  0  0  0  0  0
    9.1207  -15.7000   21.9579 C   0  0  0  0  0  0  0  0  0  0  0  0
   10.0969  -16.1999   22.5540 O   0  0  0  0  0  0  0  0  0  0  0  0
    7.0489  -10.7289   26.3061 C   0  0  0  0  0  0  0  0  0  0  0  0
    6.0974  -12.2468   26.5298 S   0  0  0  0  0  0  0  0  0  0  0  0
    7.0507  -13.7151   26.0738 C   0  0  0  0  0  0  0  0  0  0  0  0
    7.0031  -13.9364   24.5828 C   0  0  0  0  0  0  0  0  0  0  0  0
    8.1891  -14.7773   24.1126 C   0  0  2  0  0  0  0  0  0  0  0  0
    8.1659  -14.9695   22.6939 N   0  0  0  0  0  0  0  0  0  0  0  0
    8.1262  -16.0644   24.8394 C   0  0  0  0  0  0  0  0  0  0  0  0
    7.4738  -17.0595   24.3979 O   0  0  0  0  0  0  0  0  0  0  0  0
    8.7923  -16.2945   26.0911 N   0  0  0  0  0  0  0  0  0  0  0  0
    9.5673  -17.5032   26.3162 C   0  0  1  0  0  0  0  0  0  0  0  0
   10.7469  -17.5657   25.3529 C   0  0  0  0  0  0  0  0  0  0  0  0
   11.6703  -19.0806   25.7358 S   0  0  0  0  0  0  0  0  0  0  0  0
   10.1163  -17.4921   27.6857 C   0  0  0  0  0  0  0  0  0  0  0  0
   10.2903  -16.4105   28.2870 O   0  0  0  0  0  0  0  0  0  0  0  0
   10.4366  -18.6900   28.2977 O   0  0  0  0  0  0  0  0  0  0  0  0
  2  1  1  6
  2  9  1  0
  3  4  1  0
  3  2  1  0
  4  5  2  0
  6  5  1  0
  7  6  1  0
  8  7  2  0
  8  4  1  0
  9 10  2  0
 11 12  1  0
 12 13  1  0
 14 13  1  0
 15 14  1  1
 16 15  1  0
 16  9  1  0
 17 15  1  0
 18 17  2  0
 19 17  1  0
 20 23  1  0
 20 19  1  0
 20 21  1  6
 22 21  1  0
 23 25  1  0
 24 23  2  0
M  END
$$$$
