HMC.pdb
     RDKit          3D

 25 25  0  0  1  0  0  0  0  0999 V2000
    8.3765  -17.2144   20.8066 N   0  0  0  0  0  0  0  0  0  0  0  0
    8.8509  -15.8551   20.8957 C   0  0  1  0  0  0  0  0  0  0  0  0
    7.9364  -15.0520   19.9541 C   0  0  0  0  0  0  0  0  0  0  0  0
    8.0903  -15.5793   18.5542 C   0  0  0  0  0  0  0  0  0  0  0  0
    8.9021  -16.6139   18.1426 C   0  0  0  0  0  0  0  0  0  0  0  0
    8.7728  -16.7870   16.8095 N   0  0  0  0  0  0  0  0  0  0  0  0
    7.8930  -15.8777   16.3774 C   0  0  0  0  0  0  0  0  0  0  0  0
    7.4793  -15.1454   17.4359 N   0  0  0  0  0  0  0  0  0  0  0  0
    8.6413  -15.2624   22.2474 C   0  0  0  0  0  0  0  0  0  0  0  0
    8.0134  -14.1860   22.3195 O   0  0  0  0  0  0  0  0  0  0  0  0
    5.9297  -11.7918   26.0755 C   0  0  0  0  0  0  0  0  0  0  0  0
    7.1406  -13.1301   26.1226 S   0  0  0  0  0  0  0  0  0  0  0  0
    6.5935  -14.5698   25.1735 C   0  0  0  0  0  0  0  0  0  0  0  0
    7.5728  -15.7069   25.3231 C   0  0  0  0  0  0  0  0  0  0  0  0
    8.9400  -15.3352   24.7510 C   0  0  2  0  0  0  0  0  0  0  0  0
    9.1170  -15.8619   23.4312 N   0  0  0  0  0  0  0  0  0  0  0  0
    9.9605  -15.8545   25.6877 C   0  0  0  0  0  0  0  0  0  0  0  0
   10.8291  -16.7102   25.3357 O   0  0  0  0  0  0  0  0  0  0  0  0
   10.0545  -15.4373   27.0591 N   0  0  0  0  0  0  0  0  0  0  0  0
   11.0364  -16.0247   27.9552 C   0  0  1  0  0  0  0  0  0  0  0  0
   11.1268  -15.2199   29.2463 C   0  0  0  0  0  0  0  0  0  0  0  0
   11.0047  -13.4665   28.7933 S   0  0  0  0  0  0  0  0  0  0  0  0
   10.6211  -17.3936   28.3168 C   0  0  0  0  0  0  0  0  0  0  0  0
    9.5047  -17.8288   27.9617 O   0  0  0  0  0  0  0  0  0  0  0  0
   11.4789  -18.1906   29.0523 O   0  0  0  0  0  0  0  0  0  0  0  0
  2  1  1  1
  2  9  1  0
  3  4  1  0
  3  2  1  0
  4  5  2  0
  6  5  1  0
  7  6  1  0
  8  7  2  0
  8  4  1  0
  9 10  2  0
 11 12  1  0
 12 13  1  0
 14 13  1  0
 15 14  1  1
 16 15  1  0
 16  9  1  0
 17 15  1  0
 18 17  2  0
 19 17  1  0
 20 23  1  0
 20 19  1  0
 20 21  1  1
 22 21  1  0
 23 25  1  0
 24 23  2  0
M  END
$$$$
