FVF.pdb
     RDKit          3D

 30 31  0  0  1  0  0  0  0  0999 V2000
    5.9739  -17.8202   21.0483 N   0  0  0  0  0  0  0  0  0  0  0  0
    6.8860  -16.7101   21.3246 C   0  0  1  0  0  0  0  0  0  0  0  0
    6.0976  -15.5299   21.8497 C   0  0  0  0  0  0  0  0  0  0  0  0
    6.7908  -14.3009   21.3981 C   0  0  0  0  0  0  0  0  0  0  0  0
    7.4210  -13.4300   22.2541 C   0  0  0  0  0  0  0  0  0  0  0  0
    8.0629  -12.2810   21.7820 C   0  0  0  0  0  0  0  0  0  0  0  0
    8.0583  -12.0224   20.4170 C   0  0  0  0  0  0  0  0  0  0  0  0
    7.4365  -12.8802   19.5647 C   0  0  0  0  0  0  0  0  0  0  0  0
    6.8095  -14.0077   20.0519 C   0  0  0  0  0  0  0  0  0  0  0  0
    7.8633  -17.2157   22.3252 C   0  0  0  0  0  0  0  0  0  0  0  0
    7.4234  -18.0588   23.1648 O   0  0  0  0  0  0  0  0  0  0  0  0
   12.5932  -18.1419   23.4561 C   0  0  0  0  0  0  0  0  0  0  0  0
   11.5185  -17.5480   22.5958 C   0  0  1  0  0  0  0  0  0  0  0  0
   11.3959  -18.4311   21.3616 C   0  0  0  0  0  0  0  0  0  0  0  0
   10.1884  -17.4061   23.2935 C   0  0  2  0  0  0  0  0  0  0  0  0
    9.2175  -16.8023   22.3695 N   0  0  0  0  0  0  0  0  0  0  0  0
   10.2054  -16.6026   24.5130 C   0  0  0  0  0  0  0  0  0  0  0  0
   10.8227  -15.4785   24.4768 O   0  0  0  0  0  0  0  0  0  0  0  0
    9.6172  -16.9032   25.7568 N   0  0  0  0  0  0  0  0  0  0  0  0
    9.9312  -16.1472   26.9715 C   0  0  1  0  0  0  0  0  0  0  0  0
    8.6441  -15.5923   27.4927 C   0  0  0  0  0  0  0  0  0  0  0  0
    8.1799  -14.3636   26.8411 C   0  0  0  0  0  0  0  0  0  0  0  0
    8.9620  -13.2260   26.9478 C   0  0  0  0  0  0  0  0  0  0  0  0
    8.5538  -12.0650   26.3424 C   0  0  0  0  0  0  0  0  0  0  0  0
    7.3675  -12.0527   25.6363 C   0  0  0  0  0  0  0  0  0  0  0  0
    6.5888  -13.1948   25.5329 C   0  0  0  0  0  0  0  0  0  0  0  0
    6.9918  -14.3638   26.1375 C   0  0  0  0  0  0  0  0  0  0  0  0
   10.5685  -17.0577   27.9446 C   0  0  0  0  0  0  0  0  0  0  0  0
   10.7125  -18.4018   27.6777 O   0  0  0  0  0  0  0  0  0  0  0  0
   10.9959  -16.6339   29.0416 O   0  0  0  0  0  0  0  0  0  0  0  0
  2 10  1  0
  2  1  1  1
  3  4  1  0
  3  2  1  0
  4  9  1  0
  5  4  2  0
  5  6  1  0
  6  7  2  0
  7  8  1  0
  9  8  2  0
 10 11  2  0
 13 12  1  1
 13 14  1  0
 15 13  1  0
 15 16  1  6
 16 10  1  0
 17 18  2  0
 17 15  1  0
 19 17  1  0
 20 19  1  0
 21 22  1  0
 20 21  1  1
 22 27  1  0
 23 22  2  0
 23 24  1  0
 24 25  2  0
 25 26  1  0
 27 26  2  0
 28 29  1  0
 28 20  1  0
 30 28  2  0
M  END
$$$$
