FVF.pdb
     RDKit          3D

 30 31  0  0  1  0  0  0  0  0999 V2000
    4.6828  -22.4695   21.3934 N   0  0  0  0  0  0  0  0  0  0  0  0
    4.9462  -21.7460   22.6375 C   0  0  1  0  0  0  0  0  0  0  0  0
    5.8233  -22.5917   23.5351 C   0  0  0  0  0  0  0  0  0  0  0  0
    4.9531  -23.6089   24.1700 C   0  0  0  0  0  0  0  0  0  0  0  0
    3.8639  -23.2941   24.9465 C   0  0  0  0  0  0  0  0  0  0  0  0
    3.0707  -24.2890   25.5263 C   0  0  0  0  0  0  0  0  0  0  0  0
    3.3983  -25.6212   25.3073 C   0  0  0  0  0  0  0  0  0  0  0  0
    4.4749  -25.9393   24.5399 C   0  0  0  0  0  0  0  0  0  0  0  0
    5.2435  -24.9420   23.9777 C   0  0  0  0  0  0  0  0  0  0  0  0
    5.6127  -20.4756   22.2451 C   0  0  0  0  0  0  0  0  0  0  0  0
    6.4468  -20.5491   21.2921 O   0  0  0  0  0  0  0  0  0  0  0  0
    5.6654  -15.6338   21.7305 C   0  0  0  0  0  0  0  0  0  0  0  0
    5.0524  -16.9447   22.1223 C   0  0  1  0  0  0  0  0  0  0  0  0
    4.1890  -17.4006   20.9541 C   0  0  0  0  0  0  0  0  0  0  0  0
    6.0620  -18.0026   22.4937 C   0  0  2  0  0  0  0  0  0  0  0  0
    5.3562  -19.2339   22.8768 N   0  0  0  0  0  0  0  0  0  0  0  0
    6.9665  -17.6473   23.5840 C   0  0  0  0  0  0  0  0  0  0  0  0
    7.1464  -18.5122   24.5142 O   0  0  0  0  0  0  0  0  0  0  0  0
    7.6893  -16.4507   23.7547 N   0  0  0  0  0  0  0  0  0  0  0  0
    8.6656  -16.2760   24.8326 C   0  0  1  0  0  0  0  0  0  0  0  0
    9.0538  -14.8320   24.8487 C   0  0  0  0  0  0  0  0  0  0  0  0
    8.0380  -13.9141   25.3736 C   0  0  0  0  0  0  0  0  0  0  0  0
    7.2638  -13.2037   24.4720 C   0  0  0  0  0  0  0  0  0  0  0  0
    6.3023  -12.3430   24.9366 C   0  0  0  0  0  0  0  0  0  0  0  0
    6.1244  -12.2010   26.2983 C   0  0  0  0  0  0  0  0  0  0  0  0
    6.9025  -12.9149   27.1961 C   0  0  0  0  0  0  0  0  0  0  0  0
    7.8693  -13.7807   26.7376 C   0  0  0  0  0  0  0  0  0  0  0  0
    8.0433  -16.6895   26.1069 C   0  0  0  0  0  0  0  0  0  0  0  0
    8.8105  -17.0523   27.1925 O   0  0  0  0  0  0  0  0  0  0  0  0
    6.7993  -16.7230   26.2372 O   0  0  0  0  0  0  0  0  0  0  0  0
  2 10  1  0
  2  1  1  6
  3  4  1  0
  3  2  1  0
  4  9  1  0
  5  4  2  0
  5  6  1  0
  6  7  2  0
  7  8  1  0
  9  8  2  0
 10 11  2  0
 13 12  1  6
 13 14  1  0
 15 13  1  0
 15 16  1  1
 16 10  1  0
 17 18  2  0
 17 15  1  0
 19 17  1  0
 20 19  1  0
 21 22  1  0
 20 21  1  1
 22 27  1  0
 23 22  2  0
 23 24  1  0
 24 25  2  0
 25 26  1  0
 27 26  2  0
 28 29  1  0
 28 20  1  0
 30 28  2  0
M  END
$$$$
