FVF.pdb
     RDKit          3D

 30 31  0  0  1  0  0  0  0  0999 V2000
    6.8235  -18.0660   18.3874 N   0  0  0  0  0  0  0  0  0  0  0  0
    7.3504  -16.9219   19.1317 C   0  0  1  0  0  0  0  0  0  0  0  0
    6.2950  -15.8397   19.2041 C   0  0  0  0  0  0  0  0  0  0  0  0
    6.8352  -14.7536   20.0549 C   0  0  0  0  0  0  0  0  0  0  0  0
    7.6451  -13.7511   19.5782 C   0  0  0  0  0  0  0  0  0  0  0  0
    8.1321  -12.7460   20.4195 C   0  0  0  0  0  0  0  0  0  0  0  0
    7.7844  -12.7694   21.7643 C   0  0  0  0  0  0  0  0  0  0  0  0
    6.9833  -13.7587   22.2423 C   0  0  0  0  0  0  0  0  0  0  0  0
    6.5143  -14.7402   21.3948 C   0  0  0  0  0  0  0  0  0  0  0  0
    7.7137  -17.4356   20.4793 C   0  0  0  0  0  0  0  0  0  0  0  0
    6.8317  -18.1264   21.0744 O   0  0  0  0  0  0  0  0  0  0  0  0
    9.5077  -20.0714   21.4340 C   0  0  0  0  0  0  0  0  0  0  0  0
   10.1781  -18.9757   22.2071 C   0  0  1  0  0  0  0  0  0  0  0  0
   11.4583  -18.6228   21.4623 C   0  0  0  0  0  0  0  0  0  0  0  0
    9.3146  -17.7547   22.4067 C   0  0  2  0  0  0  0  0  0  0  0  0
    8.9646  -17.1881   21.0962 N   0  0  0  0  0  0  0  0  0  0  0  0
    9.9129  -16.6911   23.2091 C   0  0  0  0  0  0  0  0  0  0  0  0
   10.9172  -16.0650   22.7140 O   0  0  0  0  0  0  0  0  0  0  0  0
    9.5232  -16.2468   24.4874 N   0  0  0  0  0  0  0  0  0  0  0  0
   10.3789  -15.3877   25.3093 C   0  0  1  0  0  0  0  0  0  0  0  0
   10.0050  -13.9716   25.0075 C   0  0  0  0  0  0  0  0  0  0  0  0
    8.7436  -13.5150   25.5993 C   0  0  0  0  0  0  0  0  0  0  0  0
    8.7982  -12.6731   26.6971 C   0  0  0  0  0  0  0  0  0  0  0  0
    7.6329  -12.2265   27.2660 C   0  0  0  0  0  0  0  0  0  0  0  0
    6.4242  -12.6261   26.7316 C   0  0  0  0  0  0  0  0  0  0  0  0
    6.3759  -13.4690   25.6323 C   0  0  0  0  0  0  0  0  0  0  0  0
    7.5410  -13.9214   25.0558 C   0  0  0  0  0  0  0  0  0  0  0  0
   10.1582  -15.7207   26.7314 C   0  0  0  0  0  0  0  0  0  0  0  0
    9.2282  -16.6649   27.1085 O   0  0  0  0  0  0  0  0  0  0  0  0
   10.8102  -15.1533   27.6363 O   0  0  0  0  0  0  0  0  0  0  0  0
  2 10  1  0
  2  1  1  6
  3  4  1  0
  3  2  1  0
  4  9  1  0
  5  4  2  0
  5  6  1  0
  6  7  2  0
  7  8  1  0
  9  8  2  0
 10 11  2  0
 13 12  1  6
 13 14  1  0
 15 13  1  0
 15 16  1  6
 16 10  1  0
 17 18  2  0
 17 15  1  0
 19 17  1  0
 20 19  1  0
 21 22  1  0
 20 21  1  1
 22 27  1  0
 23 22  2  0
 23 24  1  0
 24 25  2  0
 25 26  1  0
 27 26  2  0
 28 29  1  0
 28 20  1  0
 30 28  2  0
M  END
$$$$
