FVF.pdb
     RDKit          3D

 30 31  0  0  1  0  0  0  0  0999 V2000
    5.5015  -17.8129   25.2600 N   0  0  0  0  0  0  0  0  0  0  0  0
    6.1901  -16.5255   25.1640 C   0  0  1  0  0  0  0  0  0  0  0  0
    6.8175  -16.1897   26.4995 C   0  0  0  0  0  0  0  0  0  0  0  0
    7.0302  -14.7238   26.5303 C   0  0  0  0  0  0  0  0  0  0  0  0
    8.1510  -14.1113   26.0234 C   0  0  0  0  0  0  0  0  0  0  0  0
    8.3087  -12.7229   26.0748 C   0  0  0  0  0  0  0  0  0  0  0  0
    7.3058  -11.9544   26.6525 C   0  0  0  0  0  0  0  0  0  0  0  0
    6.1942  -12.5544   27.1558 C   0  0  0  0  0  0  0  0  0  0  0  0
    6.0593  -13.9254   27.0946 C   0  0  0  0  0  0  0  0  0  0  0  0
    7.2105  -16.6801   24.0930 C   0  0  0  0  0  0  0  0  0  0  0  0
    7.7368  -17.8287   23.9792 O   0  0  0  0  0  0  0  0  0  0  0  0
    9.4067  -14.9771   19.9611 C   0  0  0  0  0  0  0  0  0  0  0  0
    8.3916  -14.8738   21.0597 C   0  0  1  0  0  0  0  0  0  0  0  0
    7.0320  -15.1660   20.4399 C   0  0  0  0  0  0  0  0  0  0  0  0
    8.6620  -15.7904   22.2271 C   0  0  2  0  0  0  0  0  0  0  0  0
    7.5989  -15.6267   23.2291 N   0  0  0  0  0  0  0  0  0  0  0  0
    9.9438  -15.5872   22.8969 C   0  0  0  0  0  0  0  0  0  0  0  0
   10.5357  -14.4626   22.7213 O   0  0  0  0  0  0  0  0  0  0  0  0
   10.6353  -16.4837   23.7345 N   0  0  0  0  0  0  0  0  0  0  0  0
   11.9124  -16.1374   24.3628 C   0  0  1  0  0  0  0  0  0  0  0  0
   11.7216  -14.8294   25.0619 C   0  0  0  0  0  0  0  0  0  0  0  0
   10.8854  -14.8764   26.2655 C   0  0  0  0  0  0  0  0  0  0  0  0
   10.3215  -16.0877   26.6284 C   0  0  0  0  0  0  0  0  0  0  0  0
    9.5402  -16.1604   27.7533 C   0  0  0  0  0  0  0  0  0  0  0  0
    9.3304  -15.0211   28.5044 C   0  0  0  0  0  0  0  0  0  0  0  0
    9.8978  -13.8112   28.1361 C   0  0  0  0  0  0  0  0  0  0  0  0
   10.6831  -13.7303   27.0086 C   0  0  0  0  0  0  0  0  0  0  0  0
   12.2835  -17.2126   25.3053 C   0  0  0  0  0  0  0  0  0  0  0  0
   13.5284  -17.2482   25.8948 O   0  0  0  0  0  0  0  0  0  0  0  0
   11.4767  -18.1241   25.5954 O   0  0  0  0  0  0  0  0  0  0  0  0
  2 10  1  0
  2  1  1  1
  3  4  1  0
  3  2  1  0
  4  9  1  0
  5  4  2  0
  5  6  1  0
  6  7  2  0
  7  8  1  0
  9  8  2  0
 10 11  2  0
 13 12  1  6
 13 14  1  0
 15 13  1  0
 15 16  1  1
 16 10  1  0
 17 18  2  0
 17 15  1  0
 19 17  1  0
 20 19  1  0
 21 22  1  0
 20 21  1  1
 22 27  1  0
 23 22  2  0
 23 24  1  0
 24 25  2  0
 25 26  1  0
 27 26  2  0
 28 29  1  0
 28 20  1  0
 30 28  2  0
M  END
$$$$
