FVF.pdb
     RDKit          3D

 30 31  0  0  1  0  0  0  0  0999 V2000
    5.7361  -19.2151   20.7472 N   0  0  0  0  0  0  0  0  0  0  0  0
    5.3360  -17.9141   21.2839 C   0  0  1  0  0  0  0  0  0  0  0  0
    4.6030  -18.1137   22.5927 C   0  0  0  0  0  0  0  0  0  0  0  0
    3.2545  -18.6341   22.2677 C   0  0  0  0  0  0  0  0  0  0  0  0
    2.6767  -19.6972   22.9190 C   0  0  0  0  0  0  0  0  0  0  0  0
    1.4001  -20.1542   22.5775 C   0  0  0  0  0  0  0  0  0  0  0  0
    0.7087  -19.5138   21.5568 C   0  0  0  0  0  0  0  0  0  0  0  0
    1.2749  -18.4613   20.9083 C   0  0  0  0  0  0  0  0  0  0  0  0
    2.5352  -18.0270   21.2614 C   0  0  0  0  0  0  0  0  0  0  0  0
    6.5906  -17.1354   21.4620 C   0  0  0  0  0  0  0  0  0  0  0  0
    7.6491  -17.8093   21.6484 O   0  0  0  0  0  0  0  0  0  0  0  0
    8.9786  -12.7391   21.3047 C   0  0  0  0  0  0  0  0  0  0  0  0
    7.7569  -13.5864   21.1115 C   0  0  1  0  0  0  0  0  0  0  0  0
    7.4798  -13.6355   19.6152 C   0  0  0  0  0  0  0  0  0  0  0  0
    7.8829  -14.9766   21.6841 C   0  0  2  0  0  0  0  0  0  0  0  0
    6.6401  -15.7200   21.4314 N   0  0  0  0  0  0  0  0  0  0  0  0
    8.1588  -15.0393   23.1168 C   0  0  0  0  0  0  0  0  0  0  0  0
    7.9387  -13.9840   23.8123 O   0  0  0  0  0  0  0  0  0  0  0  0
    8.6453  -16.1334   23.8582 N   0  0  0  0  0  0  0  0  0  0  0  0
    9.0916  -15.9983   25.2468 C   0  0  1  0  0  0  0  0  0  0  0  0
    7.8669  -15.9631   26.1042 C   0  0  0  0  0  0  0  0  0  0  0  0
    7.3074  -14.6296   26.3461 C   0  0  0  0  0  0  0  0  0  0  0  0
    6.0163  -14.3699   25.9185 C   0  0  0  0  0  0  0  0  0  0  0  0
    5.4669  -13.1326   26.1378 C   0  0  0  0  0  0  0  0  0  0  0  0
    6.2138  -12.1668   26.7826 C   0  0  0  0  0  0  0  0  0  0  0  0
    7.5057  -12.4327   27.2085 C   0  0  0  0  0  0  0  0  0  0  0  0
    8.0641  -13.6721   26.9921 C   0  0  0  0  0  0  0  0  0  0  0  0
    9.9594  -17.1466   25.5792 C   0  0  0  0  0  0  0  0  0  0  0  0
   10.2130  -18.1407   24.6595 O   0  0  0  0  0  0  0  0  0  0  0  0
   10.4896  -17.2500   26.7080 O   0  0  0  0  0  0  0  0  0  0  0  0
  2 10  1  0
  2  1  1  1
  3  4  1  0
  3  2  1  0
  4  9  1  0
  5  4  2  0
  5  6  1  0
  6  7  2  0
  7  8  1  0
  9  8  2  0
 10 11  2  0
 13 12  1  6
 13 14  1  0
 15 13  1  0
 15 16  1  1
 16 10  1  0
 17 18  2  0
 17 15  1  0
 19 17  1  0
 20 19  1  0
 21 22  1  0
 20 21  1  1
 22 27  1  0
 23 22  2  0
 23 24  1  0
 24 25  2  0
 25 26  1  0
 27 26  2  0
 28 29  1  0
 28 20  1  0
 30 28  2  0
M  END
$$$$
