FVF.pdb
     RDKit          3D

 30 31  0  0  1  0  0  0  0  0999 V2000
    5.9879  -19.2769   21.3764 N   0  0  0  0  0  0  0  0  0  0  0  0
    6.0183  -18.1930   22.3587 C   0  0  1  0  0  0  0  0  0  0  0  0
    6.2860  -18.7669   23.7331 C   0  0  0  0  0  0  0  0  0  0  0  0
    6.2271  -17.6445   24.6984 C   0  0  0  0  0  0  0  0  0  0  0  0
    5.6678  -16.4239   24.4060 C   0  0  0  0  0  0  0  0  0  0  0  0
    5.6349  -15.3927   25.3498 C   0  0  0  0  0  0  0  0  0  0  0  0
    6.1816  -15.6160   26.6073 C   0  0  0  0  0  0  0  0  0  0  0  0
    6.7366  -16.8216   26.9029 C   0  0  0  0  0  0  0  0  0  0  0  0
    6.7583  -17.8247   25.9569 C   0  0  0  0  0  0  0  0  0  0  0  0
    7.0981  -17.2680   21.9221 C   0  0  0  0  0  0  0  0  0  0  0  0
    8.1688  -17.8086   21.5091 O   0  0  0  0  0  0  0  0  0  0  0  0
    8.3999  -12.7266   20.3630 C   0  0  0  0  0  0  0  0  0  0  0  0
    7.4077  -13.7619   20.8006 C   0  0  1  0  0  0  0  0  0  0  0  0
    6.6057  -14.1600   19.5692 C   0  0  0  0  0  0  0  0  0  0  0  0
    8.0347  -14.9700   21.4515 C   0  0  2  0  0  0  0  0  0  0  0  0
    6.9744  -15.8571   21.9512 N   0  0  0  0  0  0  0  0  0  0  0  0
    8.9384  -14.6825   22.5622 C   0  0  0  0  0  0  0  0  0  0  0  0
    8.8418  -13.5345   23.1266 O   0  0  0  0  0  0  0  0  0  0  0  0
    9.9273  -15.5201   23.1134 N   0  0  0  0  0  0  0  0  0  0  0  0
   10.5598  -15.2361   24.4037 C   0  0  1  0  0  0  0  0  0  0  0  0
    9.4713  -15.1804   25.4276 C   0  0  0  0  0  0  0  0  0  0  0  0
    9.9162  -14.9518   26.8059 C   0  0  0  0  0  0  0  0  0  0  0  0
   10.4024  -16.0286   27.5279 C   0  0  0  0  0  0  0  0  0  0  0  0
   10.8308  -15.8408   28.8171 C   0  0  0  0  0  0  0  0  0  0  0  0
   10.7689  -14.5781   29.3720 C   0  0  0  0  0  0  0  0  0  0  0  0
   10.2813  -13.5039   28.6443 C   0  0  0  0  0  0  0  0  0  0  0  0
    9.8496  -13.6844   27.3498 C   0  0  0  0  0  0  0  0  0  0  0  0
   11.5346  -16.3059   24.6991 C   0  0  0  0  0  0  0  0  0  0  0  0
   11.3889  -17.5710   24.1728 O   0  0  0  0  0  0  0  0  0  0  0  0
   12.5222  -16.0939   25.4377 O   0  0  0  0  0  0  0  0  0  0  0  0
  2 10  1  0
  2  1  1  6
  3  4  1  0
  3  2  1  0
  4  9  1  0
  5  4  2  0
  5  6  1  0
  6  7  2  0
  7  8  1  0
  9  8  2  0
 10 11  2  0
 13 12  1  6
 13 14  1  0
 15 13  1  0
 15 16  1  1
 16 10  1  0
 17 18  2  0
 17 15  1  0
 19 17  1  0
 20 19  1  0
 21 22  1  0
 20 21  1  1
 22 27  1  0
 23 22  2  0
 23 24  1  0
 24 25  2  0
 25 26  1  0
 27 26  2  0
 28 29  1  0
 28 20  1  0
 30 28  2  0
M  END
$$$$
