AVI.pdb
     RDKit          3D

 21 20  0  0  1  0  0  0  0  0999 V2000
   22.4976  -20.3503  -16.5422 C   0  0  0  0  0  0  0  0  0  0  0  0
   23.8454  -20.0031  -15.9351 C   0  0  2  0  0  0  0  0  0  0  0  0
   24.2103  -20.9073  -14.8788 N   0  0  0  0  0  0  0  0  0  0  0  0
   23.7465  -18.6232  -15.3606 C   0  0  0  0  0  0  0  0  0  0  0  0
   23.2162  -18.4117  -14.2493 O   0  0  0  0  0  0  0  0  0  0  0  0
   26.5255  -16.1874  -14.6074 C   0  0  0  0  0  0  0  0  0  0  0  0
   25.5891  -15.5635  -15.6048 C   0  0  1  0  0  0  0  0  0  0  0  0
   26.2116  -15.6684  -16.9727 C   0  0  0  0  0  0  0  0  0  0  0  0
   24.2283  -16.2162  -15.6013 C   0  0  2  0  0  0  0  0  0  0  0  0
   24.2862  -17.5641  -16.1423 N   0  0  0  0  0  0  0  0  0  0  0  0
   23.3617  -15.4053  -16.5203 C   0  0  0  0  0  0  0  0  0  0  0  0
   23.2830  -15.6603  -17.7546 O   0  0  0  0  0  0  0  0  0  0  0  0
   17.8417  -13.4373  -16.7145 C   0  0  0  0  0  0  0  0  0  0  0  0
   19.2557  -13.1543  -17.1608 C   0  0  0  0  0  0  0  0  0  0  0  0
   20.2619  -13.8793  -16.3178 C   0  0  2  0  0  0  0  0  0  0  0  0
   20.1501  -13.4136  -14.8792 C   0  0  0  0  0  0  0  0  0  0  0  0
   21.6448  -13.6499  -16.8582 C   0  0  2  0  0  0  0  0  0  0  0  0
   22.6150  -14.3264  -15.9802 N   0  0  0  0  0  0  0  0  0  0  0  0
   22.0256  -12.2161  -16.9403 C   0  0  0  0  0  0  0  0  0  0  0  0
   21.5616  -11.4280  -17.7922 O   0  0  0  0  0  0  0  0  0  0  0  0
   22.9463  -11.7012  -16.0305 O   0  0  0  0  0  0  0  0  0  0  0  0
  2  1  1  1
  2  3  1  0
  4 10  1  0
  4  2  1  0
  5  4  2  0
  7  9  1  0
  7  6  1  1
  8  7  1  0
  9 11  1  0
  9 10  1  6
 11 18  1  0
 12 11  2  0
 14 13  1  0
 15 14  1  0
 15 16  1  1
 17 15  1  0
 17 18  1  1
 19 17  1  0
 19 21  1  0
 20 19  2  0
M  END
$$$$
