AVI.pdb
     RDKit          3D

 21 20  0  0  1  0  0  0  0  0999 V2000
   13.0707  -11.5764  -14.1702 C   0  0  0  0  0  0  0  0  0  0  0  0
   14.5721  -11.7717  -14.2842 C   0  0  2  0  0  0  0  0  0  0  0  0
   14.9377  -13.1619  -14.2739 N   0  0  0  0  0  0  0  0  0  0  0  0
   15.2108  -11.1081  -13.1028 C   0  0  0  0  0  0  0  0  0  0  0  0
   15.2921  -11.6787  -11.9943 O   0  0  0  0  0  0  0  0  0  0  0  0
   18.7561   -9.8016  -13.2702 C   0  0  0  0  0  0  0  0  0  0  0  0
   17.8495   -8.6943  -12.8090 C   0  0  1  0  0  0  0  0  0  0  0  0
   17.5916   -7.7738  -13.9735 C   0  0  0  0  0  0  0  0  0  0  0  0
   16.5440   -9.2130  -12.2573 C   0  0  2  0  0  0  0  0  0  0  0  0
   15.7207   -9.7953  -13.3042 N   0  0  0  0  0  0  0  0  0  0  0  0
   15.8032   -8.0236  -11.7192 C   0  0  0  0  0  0  0  0  0  0  0  0
   15.0048   -7.3589  -12.4372 O   0  0  0  0  0  0  0  0  0  0  0  0
   12.3793   -6.0700   -8.0642 C   0  0  0  0  0  0  0  0  0  0  0  0
   13.8589   -5.8215   -7.8972 C   0  0  0  0  0  0  0  0  0  0  0  0
   14.6799   -6.9343   -8.4770 C   0  0  2  0  0  0  0  0  0  0  0  0
   15.8144   -7.2758   -7.5307 C   0  0  0  0  0  0  0  0  0  0  0  0
   15.2001   -6.5376   -9.8294 C   0  0  2  0  0  0  0  0  0  0  0  0
   16.0111   -7.6428  -10.3682 N   0  0  0  0  0  0  0  0  0  0  0  0
   16.0467   -5.3168   -9.8110 C   0  0  0  0  0  0  0  0  0  0  0  0
   17.2911   -5.3433   -9.6963 O   0  0  0  0  0  0  0  0  0  0  0  0
   15.4440   -4.0662   -9.9261 O   0  0  0  0  0  0  0  0  0  0  0  0
  2  1  1  1
  2  3  1  0
  4 10  1  0
  4  2  1  0
  5  4  2  0
  7  9  1  0
  7  6  1  6
  8  7  1  0
  9 11  1  0
  9 10  1  6
 11 18  1  0
 12 11  2  0
 14 13  1  0
 15 14  1  0
 15 16  1  1
 17 15  1  0
 17 18  1  1
 19 17  1  0
 19 21  1  0
 20 19  2  0
M  END
$$$$
