AVI.pdb
     RDKit          3D

 21 20  0  0  1  0  0  0  0  0999 V2000
   28.9187  -21.7147  -15.1048 C   0  0  0  0  0  0  0  0  0  0  0  0
   27.4973  -21.3697  -15.5121 C   0  0  2  0  0  0  0  0  0  0  0  0
   27.4591  -20.5269  -16.6760 N   0  0  0  0  0  0  0  0  0  0  0  0
   26.8620  -20.6306  -14.3745 C   0  0  0  0  0  0  0  0  0  0  0  0
   26.9408  -19.3878  -14.2740 O   0  0  0  0  0  0  0  0  0  0  0  0
   22.9658  -20.4695  -11.6233 C   0  0  0  0  0  0  0  0  0  0  0  0
   23.8549  -21.0413  -12.6925 C   0  0  1  0  0  0  0  0  0  0  0  0
   23.4116  -20.4930  -14.0239 C   0  0  0  0  0  0  0  0  0  0  0  0
   25.3117  -20.7238  -12.4584 C   0  0  2  0  0  0  0  0  0  0  0  0
   26.1639  -21.4131  -13.4130 N   0  0  0  0  0  0  0  0  0  0  0  0
   25.6521  -21.2531  -11.0956 C   0  0  0  0  0  0  0  0  0  0  0  0
   25.8113  -22.4879  -10.8843 O   0  0  0  0  0  0  0  0  0  0  0  0
   28.5944  -19.6309   -6.0488 C   0  0  0  0  0  0  0  0  0  0  0  0
   27.6233  -20.5446   -6.7566 C   0  0  0  0  0  0  0  0  0  0  0  0
   27.1804  -19.9762   -8.0716 C   0  0  2  0  0  0  0  0  0  0  0  0
   26.6361  -18.5764   -7.8631 C   0  0  0  0  0  0  0  0  0  0  0  0
   26.1504  -20.8730   -8.6976 C   0  0  2  0  0  0  0  0  0  0  0  0
   25.7969  -20.3358  -10.0228 N   0  0  0  0  0  0  0  0  0  0  0  0
   24.8995  -20.9929   -7.9050 C   0  0  0  0  0  0  0  0  0  0  0  0
   23.8458  -20.3814   -8.1844 O   0  0  0  0  0  0  0  0  0  0  0  0
   24.8763  -21.8248   -6.7879 O   0  0  0  0  0  0  0  0  0  0  0  0
  2  1  1  1
  2  3  1  0
  4 10  1  0
  4  2  1  0
  5  4  2  0
  7  9  1  0
  7  6  1  1
  8  7  1  0
  9 11  1  0
  9 10  1  6
 11 18  1  0
 12 11  2  0
 14 13  1  0
 15 14  1  0
 15 16  1  1
 17 15  1  0
 17 18  1  6
 19 17  1  0
 19 21  1  0
 20 19  2  0
M  END
$$$$
