AVI.pdb
     RDKit          3D

 21 20  0  0  1  0  0  0  0  0999 V2000
   18.2162  -14.5384  -16.1991 C   0  0  0  0  0  0  0  0  0  0  0  0
   17.4713  -13.8839  -17.3491 C   0  0  2  0  0  0  0  0  0  0  0  0
   17.4009  -14.7389  -18.5025 N   0  0  0  0  0  0  0  0  0  0  0  0
   18.2169  -12.6413  -17.7287 C   0  0  0  0  0  0  0  0  0  0  0  0
   19.2313  -12.6814  -18.4568 O   0  0  0  0  0  0  0  0  0  0  0  0
   16.0525   -9.1556  -17.6746 C   0  0  0  0  0  0  0  0  0  0  0  0
   17.3553   -9.3041  -18.4105 C   0  0  1  0  0  0  0  0  0  0  0  0
   17.9404   -7.9325  -18.6245 C   0  0  0  0  0  0  0  0  0  0  0  0
   18.3371  -10.1784  -17.6693 C   0  0  2  0  0  0  0  0  0  0  0  0
   17.7134  -11.4119  -17.2196 N   0  0  0  0  0  0  0  0  0  0  0  0
   18.7492   -9.4163  -16.4435 C   0  0  0  0  0  0  0  0  0  0  0  0
   17.9898   -9.3134  -15.4398 O   0  0  0  0  0  0  0  0  0  0  0  0
   23.2958  -10.6057  -14.3853 C   0  0  0  0  0  0  0  0  0  0  0  0
   21.9037  -10.1086  -14.6918 C   0  0  0  0  0  0  0  0  0  0  0  0
   21.8687   -8.6193  -14.8630 C   0  0  2  0  0  0  0  0  0  0  0  0
   22.4039   -7.9508  -13.6117 C   0  0  0  0  0  0  0  0  0  0  0  0
   20.4669   -8.1700  -15.1629 C   0  0  2  0  0  0  0  0  0  0  0  0
   20.0265   -8.7985  -16.4202 N   0  0  0  0  0  0  0  0  0  0  0  0
   20.3293   -6.6985  -15.3154 C   0  0  0  0  0  0  0  0  0  0  0  0
   20.5531   -6.0931  -16.3857 O   0  0  0  0  0  0  0  0  0  0  0  0
   19.9311   -5.9332  -14.2217 O   0  0  0  0  0  0  0  0  0  0  0  0
  2  1  1  1
  2  3  1  0
  4 10  1  0
  4  2  1  0
  5  4  2  0
  7  9  1  0
  7  6  1  1
  8  7  1  0
  9 11  1  0
  9 10  1  1
 11 18  1  0
 12 11  2  0
 14 13  1  0
 15 14  1  0
 15 16  1  1
 17 15  1  0
 17 18  1  6
 19 17  1  0
 19 21  1  0
 20 19  2  0
M  END
$$$$
