AVI.pdb
     RDKit          3D

 21 20  0  0  1  0  0  0  0  0999 V2000
   21.5852  -19.4011  -11.2842 C   0  0  0  0  0  0  0  0  0  0  0  0
   22.7289  -20.0799  -12.0168 C   0  0  2  0  0  0  0  0  0  0  0  0
   22.2600  -21.0513  -12.9669 N   0  0  0  0  0  0  0  0  0  0  0  0
   23.5700  -20.7857  -10.9978 C   0  0  0  0  0  0  0  0  0  0  0  0
   23.1460  -21.7808  -10.3726 O   0  0  0  0  0  0  0  0  0  0  0  0
   26.6332  -22.2789  -11.9831 C   0  0  0  0  0  0  0  0  0  0  0  0
   27.0040  -21.4766  -10.7667 C   0  0  1  0  0  0  0  0  0  0  0  0
   27.7821  -20.2664  -11.2136 C   0  0  0  0  0  0  0  0  0  0  0  0
   25.7956  -21.0521   -9.9685 C   0  0  2  0  0  0  0  0  0  0  0  0
   24.8763  -20.2675  -10.7761 N   0  0  0  0  0  0  0  0  0  0  0  0
   26.2983  -20.1581   -8.8725 C   0  0  0  0  0  0  0  0  0  0  0  0
   26.2150  -18.9005   -8.9515 O   0  0  0  0  0  0  0  0  0  0  0  0
   26.4966  -21.8573   -3.5775 C   0  0  0  0  0  0  0  0  0  0  0  0
   26.3250  -21.0375   -4.8335 C   0  0  0  0  0  0  0  0  0  0  0  0
   27.6447  -20.6469   -5.4288 C   0  0  2  0  0  0  0  0  0  0  0  0
   28.4465  -19.8560   -4.4135 C   0  0  0  0  0  0  0  0  0  0  0  0
   27.4261  -19.8546   -6.6862 C   0  0  2  0  0  0  0  0  0  0  0  0
   26.8807  -20.7493   -7.7215 N   0  0  0  0  0  0  0  0  0  0  0  0
   28.6633  -19.2333   -7.2254 C   0  0  0  0  0  0  0  0  0  0  0  0
   29.4377  -19.8144   -8.0160 O   0  0  0  0  0  0  0  0  0  0  0  0
   28.9979  -17.9360   -6.8438 O   0  0  0  0  0  0  0  0  0  0  0  0
  2  1  1  1
  2  3  1  0
  4 10  1  0
  4  2  1  0
  5  4  2  0
  7  9  1  0
  7  6  1  6
  8  7  1  0
  9 11  1  0
  9 10  1  6
 11 18  1  0
 12 11  2  0
 14 13  1  0
 15 14  1  0
 15 16  1  1
 17 15  1  0
 17 18  1  6
 19 17  1  0
 19 21  1  0
 20 19  2  0
M  END
$$$$
