AVI.pdb
     RDKit          3D

 21 20  0  0  1  0  0  0  0  0999 V2000
   17.2315   -9.8892  -17.6385 C   0  0  0  0  0  0  0  0  0  0  0  0
   18.3342  -10.9197  -17.4715 C   0  0  2  0  0  0  0  0  0  0  0  0
   17.8107  -12.2312  -17.2024 N   0  0  0  0  0  0  0  0  0  0  0  0
   19.1785  -10.5015  -16.3070 C   0  0  0  0  0  0  0  0  0  0  0  0
   18.7267  -10.4824  -15.1423 O   0  0  0  0  0  0  0  0  0  0  0  0
   23.6603   -9.6916  -14.5235 C   0  0  0  0  0  0  0  0  0  0  0  0
   22.7326  -10.2734  -15.5538 C   0  0  1  0  0  0  0  0  0  0  0  0
   22.6571  -11.7627  -15.3397 C   0  0  0  0  0  0  0  0  0  0  0  0
   21.3515   -9.6682  -15.4902 C   0  0  2  0  0  0  0  0  0  0  0  0
   20.5211  -10.1268  -16.5915 N   0  0  0  0  0  0  0  0  0  0  0  0
   21.5252   -8.1860  -15.6517 C   0  0  0  0  0  0  0  0  0  0  0  0
   22.0507   -7.6886  -16.6867 O   0  0  0  0  0  0  0  0  0  0  0  0
   17.9168   -4.8480  -16.1480 C   0  0  0  0  0  0  0  0  0  0  0  0
   19.2832   -5.4870  -16.0894 C   0  0  0  0  0  0  0  0  0  0  0  0
   19.9862   -5.1823  -14.8003 C   0  0  2  0  0  0  0  0  0  0  0  0
   20.1507   -3.6822  -14.6529 C   0  0  0  0  0  0  0  0  0  0  0  0
   21.3151   -5.8819  -14.7626 C   0  0  2  0  0  0  0  0  0  0  0  0
   21.0849   -7.3288  -14.6102 N   0  0  0  0  0  0  0  0  0  0  0  0
   22.1936   -5.4395  -13.6490 C   0  0  0  0  0  0  0  0  0  0  0  0
   22.1253   -5.9055  -12.4912 O   0  0  0  0  0  0  0  0  0  0  0  0
   23.1506   -4.4551  -13.8843 O   0  0  0  0  0  0  0  0  0  0  0  0
  2  1  1  1
  2  3  1  0
  4 10  1  0
  4  2  1  0
  5  4  2  0
  7  9  1  0
  7  6  1  1
  8  7  1  0
  9 11  1  0
  9 10  1  6
 11 18  1  0
 12 11  2  0
 14 13  1  0
 15 14  1  0
 15 16  1  6
 17 15  1  0
 17 18  1  1
 19 17  1  0
 19 21  1  0
 20 19  2  0
M  END
$$$$
