AVI.pdb
     RDKit          3D

 21 20  0  0  1  0  0  0  0  0999 V2000
   28.9765  -21.6883  -17.5464 C   0  0  0  0  0  0  0  0  0  0  0  0
   28.1460  -20.6754  -18.3144 C   0  0  2  0  0  0  0  0  0  0  0  0
   28.9648  -19.6938  -18.9720 N   0  0  0  0  0  0  0  0  0  0  0  0
   27.2621  -19.9697  -17.3321 C   0  0  0  0  0  0  0  0  0  0  0  0
   27.6734  -19.0030  -16.6560 O   0  0  0  0  0  0  0  0  0  0  0  0
   22.6595  -18.8925  -16.1335 C   0  0  0  0  0  0  0  0  0  0  0  0
   23.7116  -19.4314  -17.0626 C   0  0  1  0  0  0  0  0  0  0  0  0
   23.9318  -18.4288  -18.1653 C   0  0  0  0  0  0  0  0  0  0  0  0
   25.0124  -19.7179  -16.3529 C   0  0  2  0  0  0  0  0  0  0  0  0
   25.9303  -20.4540  -17.2063 N   0  0  0  0  0  0  0  0  0  0  0  0
   24.6792  -20.6052  -15.1890 C   0  0  0  0  0  0  0  0  0  0  0  0
   24.2125  -21.7671  -15.3529 O   0  0  0  0  0  0  0  0  0  0  0  0
   25.8962  -21.2214   -9.1977 C   0  0  0  0  0  0  0  0  0  0  0  0
   25.1016  -21.5831  -10.4291 C   0  0  0  0  0  0  0  0  0  0  0  0
   25.4580  -20.7137  -11.5977 C   0  0  2  0  0  0  0  0  0  0  0  0
   25.4021  -19.2563  -11.1831 C   0  0  0  0  0  0  0  0  0  0  0  0
   24.5280  -20.9892  -12.7449 C   0  0  2  0  0  0  0  0  0  0  0  0
   24.8972  -20.1183  -13.8741 N   0  0  0  0  0  0  0  0  0  0  0  0
   23.0972  -20.7443  -12.4282 C   0  0  0  0  0  0  0  0  0  0  0  0
   22.5559  -19.6207  -12.5116 O   0  0  0  0  0  0  0  0  0  0  0  0
   22.2978  -21.8075  -12.0149 O   0  0  0  0  0  0  0  0  0  0  0  0
  2  1  1  1
  2  3  1  0
  4 10  1  0
  4  2  1  0
  5  4  2  0
  7  9  1  0
  7  6  1  1
  8  7  1  0
  9 11  1  0
  9 10  1  6
 11 18  1  0
 12 11  2  0
 14 13  1  0
 15 14  1  0
 15 16  1  1
 17 15  1  0
 17 18  1  6
 19 17  1  0
 19 21  1  0
 20 19  2  0
M  END
$$$$
