VVA.pdb
     RDKit          3D

 20 19  0  0  1  0  0  0  0  0999 V2000
    6.7518  -19.3826   20.7343 C   0  0  0  0  0  0  0  0  0  0  0  0
    7.2351  -19.3180   19.2886 C   0  0  1  0  0  0  0  0  0  0  0  0
    6.2287  -20.0703   18.4596 C   0  0  0  0  0  0  0  0  0  0  0  0
    7.2860  -17.8585   18.8756 C   0  0  2  0  0  0  0  0  0  0  0  0
    7.5188  -17.7128   17.4647 N   0  0  0  0  0  0  0  0  0  0  0  0
    8.2538  -17.1263   19.7033 C   0  0  0  0  0  0  0  0  0  0  0  0
    9.4735  -17.3068   19.4971 O   0  0  0  0  0  0  0  0  0  0  0  0
    6.9702  -14.2915   22.6324 C   0  0  0  0  0  0  0  0  0  0  0  0
    8.2690  -14.1042   21.8521 C   0  0  2  0  0  0  0  0  0  0  0  0
    8.0129  -13.3004   20.5962 C   0  0  0  0  0  0  0  0  0  0  0  0
    8.7879  -15.4851   21.5282 C   0  0  2  0  0  0  0  0  0  0  0  0
    7.8725  -16.2297   20.7194 N   0  0  0  0  0  0  0  0  0  0  0  0
    9.1217  -16.2575   22.7345 C   0  0  0  0  0  0  0  0  0  0  0  0
    8.2225  -16.7290   23.4649 O   0  0  0  0  0  0  0  0  0  0  0  0
   11.1601  -18.6969   23.7485 C   0  0  0  0  0  0  0  0  0  0  0  0
   10.7652  -17.3137   24.2746 C   0  0  2  0  0  0  0  0  0  0  0  0
   10.4667  -16.5056   23.1289 N   0  0  0  0  0  0  0  0  0  0  0  0
   11.8597  -16.7260   25.0804 C   0  0  0  0  0  0  0  0  0  0  0  0
   12.5081  -15.7497   24.6355 O   0  0  0  0  0  0  0  0  0  0  0  0
   12.1988  -17.2223   26.3262 O   0  0  0  0  0  0  0  0  0  0  0  0
  2  1  1  1
  3  2  1  0
  4  2  1  0
  4  5  1  6
  6 12  1  0
  6  4  1  0
  7  6  2  0
  9  8  1  6
  9 11  1  0
 10  9  1  0
 11 12  1  1
 13 11  1  0
 13 14  2  0
 16 17  1  0
 16 15  1  6
 17 13  1  0
 18 16  1  0
 19 18  2  0
 20 18  1  0
M  END
$$$$
