VVA.pdb
     RDKit          3D

 20 19  0  0  1  0  0  0  0  0999 V2000
    6.5009  -18.1151   24.3692 C   0  0  0  0  0  0  0  0  0  0  0  0
    7.0535  -17.8426   22.9734 C   0  0  1  0  0  0  0  0  0  0  0  0
    6.2807  -18.7161   22.0217 C   0  0  0  0  0  0  0  0  0  0  0  0
    6.8282  -16.3754   22.6576 C   0  0  2  0  0  0  0  0  0  0  0  0
    7.0911  -16.0825   21.2751 N   0  0  0  0  0  0  0  0  0  0  0  0
    7.5897  -15.5297   23.5863 C   0  0  0  0  0  0  0  0  0  0  0  0
    8.8056  -15.3428   23.3640 O   0  0  0  0  0  0  0  0  0  0  0  0
    6.2727  -12.1796   25.3748 C   0  0  0  0  0  0  0  0  0  0  0  0
    6.8263  -13.1636   26.4025 C   0  0  2  0  0  0  0  0  0  0  0  0
    7.5756  -12.4206   27.4868 C   0  0  0  0  0  0  0  0  0  0  0  0
    7.7328  -14.1128   25.6554 C   0  0  2  0  0  0  0  0  0  0  0  0
    7.0145  -14.9186   24.7165 N   0  0  0  0  0  0  0  0  0  0  0  0
    8.5069  -14.9784   26.5580 C   0  0  0  0  0  0  0  0  0  0  0  0
    7.9415  -15.8505   27.2538 O   0  0  0  0  0  0  0  0  0  0  0  0
   12.0968  -15.7833   26.9984 C   0  0  0  0  0  0  0  0  0  0  0  0
   10.6586  -15.7682   27.5250 C   0  0  2  0  0  0  0  0  0  0  0  0
    9.9205  -14.8707   26.6855 N   0  0  0  0  0  0  0  0  0  0  0  0
   10.6222  -15.3371   28.9412 C   0  0  0  0  0  0  0  0  0  0  0  0
   10.3566  -14.1452   29.2247 O   0  0  0  0  0  0  0  0  0  0  0  0
   10.8746  -16.2150   29.9798 O   0  0  0  0  0  0  0  0  0  0  0  0
  2  1  1  1
  3  2  1  0
  4  2  1  0
  4  5  1  6
  6 12  1  0
  6  4  1  0
  7  6  2  0
  9  8  1  6
  9 11  1  0
 10  9  1  0
 11 12  1  6
 13 11  1  0
 13 14  2  0
 16 17  1  0
 16 15  1  6
 17 13  1  0
 18 16  1  0
 19 18  2  0
 20 18  1  0
M  END
$$$$
