VVA.pdb
     RDKit          3D

 20 19  0  0  1  0  0  0  0  0999 V2000
    7.8727  -17.9291   27.0420 C   0  0  0  0  0  0  0  0  0  0  0  0
    7.5317  -19.3147   26.5020 C   0  0  1  0  0  0  0  0  0  0  0  0
    6.7554  -20.0226   27.5801 C   0  0  0  0  0  0  0  0  0  0  0  0
    6.6812  -19.1372   25.2577 C   0  0  2  0  0  0  0  0  0  0  0  0
    6.1687  -20.3924   24.7803 N   0  0  0  0  0  0  0  0  0  0  0  0
    7.4207  -18.3844   24.2359 C   0  0  0  0  0  0  0  0  0  0  0  0
    8.2605  -18.9922   23.5373 O   0  0  0  0  0  0  0  0  0  0  0  0
    5.9710  -15.5584   21.8651 C   0  0  0  0  0  0  0  0  0  0  0  0
    7.2117  -15.0282   22.5794 C   0  0  2  0  0  0  0  0  0  0  0  0
    8.0412  -14.1888   21.6326 C   0  0  0  0  0  0  0  0  0  0  0  0
    7.9815  -16.2312   23.0704 C   0  0  2  0  0  0  0  0  0  0  0  0
    7.2284  -17.0090   24.0056 N   0  0  0  0  0  0  0  0  0  0  0  0
    9.2773  -15.8660   23.6627 C   0  0  0  0  0  0  0  0  0  0  0  0
    9.3359  -15.2060   24.7235 O   0  0  0  0  0  0  0  0  0  0  0  0
   11.9068  -16.8828   24.8896 C   0  0  0  0  0  0  0  0  0  0  0  0
   11.7640  -15.9280   23.7005 C   0  0  2  0  0  0  0  0  0  0  0  0
   10.5156  -16.2391   23.0682 N   0  0  0  0  0  0  0  0  0  0  0  0
   12.8989  -16.0840   22.7623 C   0  0  0  0  0  0  0  0  0  0  0  0
   12.7290  -16.6732   21.6689 O   0  0  0  0  0  0  0  0  0  0  0  0
   14.1602  -15.5958   23.0522 O   0  0  0  0  0  0  0  0  0  0  0  0
  2  1  1  1
  3  2  1  0
  4  2  1  0
  4  5  1  6
  6 12  1  0
  6  4  1  0
  7  6  2  0
  9  8  1  6
  9 11  1  0
 10  9  1  0
 11 12  1  1
 13 11  1  0
 13 14  2  0
 16 17  1  0
 16 15  1  1
 17 13  1  0
 18 16  1  0
 19 18  2  0
 20 18  1  0
M  END
$$$$
