VVA.pdb
     RDKit          3D

 20 19  0  0  1  0  0  0  0  0999 V2000
    9.4532  -14.9943   20.4860 C   0  0  0  0  0  0  0  0  0  0  0  0
    7.9704  -15.1656   20.8016 C   0  0  1  0  0  0  0  0  0  0  0  0
    7.3761  -15.9691   19.6758 C   0  0  0  0  0  0  0  0  0  0  0  0
    7.8539  -15.9162   22.1155 C   0  0  2  0  0  0  0  0  0  0  0  0
    6.5170  -16.3953   22.3376 N   0  0  0  0  0  0  0  0  0  0  0  0
    8.3690  -15.0964   23.2202 C   0  0  0  0  0  0  0  0  0  0  0  0
    9.5420  -14.6698   23.1509 O   0  0  0  0  0  0  0  0  0  0  0  0
    6.5296  -12.2350   25.0903 C   0  0  0  0  0  0  0  0  0  0  0  0
    7.0362  -13.2122   26.1483 C   0  0  2  0  0  0  0  0  0  0  0  0
    7.5842  -12.4560   27.3386 C   0  0  0  0  0  0  0  0  0  0  0  0
    8.1027  -14.0552   25.4904 C   0  0  2  0  0  0  0  0  0  0  0  0
    7.6034  -14.7678   24.3548 N   0  0  0  0  0  0  0  0  0  0  0  0
    8.7314  -14.9984   26.4276 C   0  0  0  0  0  0  0  0  0  0  0  0
    8.0785  -15.9430   26.9234 O   0  0  0  0  0  0  0  0  0  0  0  0
   12.1630  -15.9985   27.2185 C   0  0  0  0  0  0  0  0  0  0  0  0
   10.7056  -15.8635   27.6698 C   0  0  2  0  0  0  0  0  0  0  0  0
   10.0967  -14.8875   26.8144 N   0  0  0  0  0  0  0  0  0  0  0  0
   10.6314  -15.4575   29.0919 C   0  0  0  0  0  0  0  0  0  0  0  0
   11.0576  -16.2277   29.9845 O   0  0  0  0  0  0  0  0  0  0  0  0
   10.1008  -14.2400   29.4784 O   0  0  0  0  0  0  0  0  0  0  0  0
  2  1  1  6
  3  2  1  0
  4  2  1  0
  4  5  1  1
  6 12  1  0
  6  4  1  0
  7  6  2  0
  9  8  1  6
  9 11  1  0
 10  9  1  0
 11 12  1  6
 13 11  1  0
 13 14  2  0
 16 17  1  0
 16 15  1  6
 17 13  1  0
 18 16  1  0
 19 18  2  0
 20 18  1  0
M  END
$$$$
