VVA.pdb
     RDKit          3D

 20 19  0  0  1  0  0  0  0  0999 V2000
    6.2015  -18.8515   24.9773 C   0  0  0  0  0  0  0  0  0  0  0  0
    5.9238  -18.7617   23.4798 C   0  0  1  0  0  0  0  0  0  0  0  0
    4.7720  -19.6880   23.1948 C   0  0  0  0  0  0  0  0  0  0  0  0
    5.5502  -17.3267   23.1570 C   0  0  2  0  0  0  0  0  0  0  0  0
    5.0403  -17.1979   21.8193 N   0  0  0  0  0  0  0  0  0  0  0  0
    6.6782  -16.4289   23.4384 C   0  0  0  0  0  0  0  0  0  0  0  0
    7.5839  -16.3214   22.5834 O   0  0  0  0  0  0  0  0  0  0  0  0
    6.7935  -14.2215   27.0392 C   0  0  0  0  0  0  0  0  0  0  0  0
    7.5138  -13.6742   25.8093 C   0  0  2  0  0  0  0  0  0  0  0  0
    6.6051  -12.7360   25.0457 C   0  0  0  0  0  0  0  0  0  0  0  0
    7.9109  -14.8647   24.9690 C   0  0  2  0  0  0  0  0  0  0  0  0
    6.7881  -15.6826   24.6269 N   0  0  0  0  0  0  0  0  0  0  0  0
    8.9436  -15.6892   25.6148 C   0  0  0  0  0  0  0  0  0  0  0  0
    8.6633  -16.4264   26.5855 O   0  0  0  0  0  0  0  0  0  0  0  0
   12.4180  -16.6500   24.6736 C   0  0  0  0  0  0  0  0  0  0  0  0
   11.2215  -16.6892   25.6290 C   0  0  2  0  0  0  0  0  0  0  0  0
   10.2975  -15.6915   25.1753 N   0  0  0  0  0  0  0  0  0  0  0  0
   11.6529  -16.4330   27.0221 C   0  0  0  0  0  0  0  0  0  0  0  0
   11.3148  -15.3706   27.5954 O   0  0  0  0  0  0  0  0  0  0  0  0
   12.4279  -17.3370   27.7260 O   0  0  0  0  0  0  0  0  0  0  0  0
  2  1  1  1
  3  2  1  0
  4  2  1  0
  4  5  1  6
  6 12  1  0
  6  4  1  0
  7  6  2  0
  9  8  1  1
  9 11  1  0
 10  9  1  0
 11 12  1  1
 13 11  1  0
 13 14  2  0
 16 17  1  0
 16 15  1  6
 17 13  1  0
 18 16  1  0
 19 18  2  0
 20 18  1  0
M  END
$$$$
