VVA.pdb
     RDKit          3D

 20 19  0  0  1  0  0  0  0  0999 V2000
    6.7581  -17.4723   23.0608 C   0  0  0  0  0  0  0  0  0  0  0  0
    7.4650  -16.9066   21.8327 C   0  0  1  0  0  0  0  0  0  0  0  0
    6.7615  -17.4711   20.6275 C   0  0  0  0  0  0  0  0  0  0  0  0
    7.3340  -15.3951   21.8706 C   0  0  2  0  0  0  0  0  0  0  0  0
    7.7887  -14.7911   20.6481 N   0  0  0  0  0  0  0  0  0  0  0  0
    7.9934  -14.8545   23.0667 C   0  0  0  0  0  0  0  0  0  0  0  0
    9.2399  -14.7593   23.0702 O   0  0  0  0  0  0  0  0  0  0  0  0
    6.5699  -11.8913   25.2678 C   0  0  0  0  0  0  0  0  0  0  0  0
    6.9657  -13.0432   26.1883 C   0  0  2  0  0  0  0  0  0  0  0  0
    7.6318  -12.5090   27.4373 C   0  0  0  0  0  0  0  0  0  0  0  0
    7.8994  -13.9315   25.4009 C   0  0  2  0  0  0  0  0  0  0  0  0
    7.2874  -14.4379   24.2111 N   0  0  0  0  0  0  0  0  0  0  0  0
    8.4207  -15.0494   26.2020 C   0  0  0  0  0  0  0  0  0  0  0  0
    7.6646  -15.9638   26.5978 O   0  0  0  0  0  0  0  0  0  0  0  0
   11.6560  -16.6227   26.7225 C   0  0  0  0  0  0  0  0  0  0  0  0
   10.2845  -16.2717   27.3070 C   0  0  2  0  0  0  0  0  0  0  0  0
    9.7937  -15.1483   26.5640 N   0  0  0  0  0  0  0  0  0  0  0  0
   10.3929  -15.9595   28.7505 C   0  0  0  0  0  0  0  0  0  0  0  0
   10.2463  -14.7794   29.1471 O   0  0  0  0  0  0  0  0  0  0  0  0
   10.6543  -16.9377   29.6929 O   0  0  0  0  0  0  0  0  0  0  0  0
  2  1  1  1
  3  2  1  0
  4  2  1  0
  4  5  1  6
  6 12  1  0
  6  4  1  0
  7  6  2  0
  9  8  1  6
  9 11  1  0
 10  9  1  0
 11 12  1  6
 13 11  1  0
 13 14  2  0
 16 17  1  0
 16 15  1  6
 17 13  1  0
 18 16  1  0
 19 18  2  0
 20 18  1  0
M  END
$$$$
