VVA.pdb
     RDKit          3D

 20 19  0  0  1  0  0  0  0  0999 V2000
    6.1633  -16.7929   20.2646 C   0  0  0  0  0  0  0  0  0  0  0  0
    6.9239  -16.5502   21.5647 C   0  0  1  0  0  0  0  0  0  0  0  0
    8.0149  -17.5854   21.6300 C   0  0  0  0  0  0  0  0  0  0  0  0
    7.5135  -15.1529   21.5098 C   0  0  2  0  0  0  0  0  0  0  0  0
    8.3943  -14.9911   20.3855 N   0  0  0  0  0  0  0  0  0  0  0  0
    8.1404  -14.8116   22.7936 C   0  0  0  0  0  0  0  0  0  0  0  0
    9.3863  -14.8619   22.8821 O   0  0  0  0  0  0  0  0  0  0  0  0
    6.8308  -11.9043   25.2010 C   0  0  0  0  0  0  0  0  0  0  0  0
    7.0587  -13.1843   26.0014 C   0  0  2  0  0  0  0  0  0  0  0  0
    7.6570  -12.8567   27.3519 C   0  0  0  0  0  0  0  0  0  0  0  0
    7.9840  -14.0532   25.1831 C   0  0  2  0  0  0  0  0  0  0  0  0
    7.4037  -14.4300   23.9309 N   0  0  0  0  0  0  0  0  0  0  0  0
    8.4137  -15.2574   25.9101 C   0  0  0  0  0  0  0  0  0  0  0  0
    7.5885  -16.1372   26.2407 O   0  0  0  0  0  0  0  0  0  0  0  0
   11.4654  -17.1532   26.3524 C   0  0  0  0  0  0  0  0  0  0  0  0
   10.1628  -16.6594   26.9890 C   0  0  2  0  0  0  0  0  0  0  0  0
    9.7722  -15.4818   26.2708 N   0  0  0  0  0  0  0  0  0  0  0  0
   10.3568  -16.3748   28.4292 C   0  0  0  0  0  0  0  0  0  0  0  0
   10.3997  -15.1882   28.8312 O   0  0  0  0  0  0  0  0  0  0  0  0
   10.4946  -17.3862   29.3626 O   0  0  0  0  0  0  0  0  0  0  0  0
  2  1  1  6
  3  2  1  0
  4  2  1  0
  4  5  1  6
  6 12  1  0
  6  4  1  0
  7  6  2  0
  9  8  1  6
  9 11  1  0
 10  9  1  0
 11 12  1  6
 13 11  1  0
 13 14  2  0
 16 17  1  0
 16 15  1  6
 17 13  1  0
 18 16  1  0
 19 18  2  0
 20 18  1  0
M  END
$$$$
