VVA.pdb
     RDKit          3D

 20 19  0  0  1  0  0  0  0  0999 V2000
    8.9589  -12.8909   25.9186 C   0  0  0  0  0  0  0  0  0  0  0  0
    7.6765  -13.2169   26.6781 C   0  0  1  0  0  0  0  0  0  0  0  0
    7.3798  -12.0327   27.5589 C   0  0  0  0  0  0  0  0  0  0  0  0
    6.5679  -13.4200   25.6618 C   0  0  2  0  0  0  0  0  0  0  0  0
    5.2909  -13.6003   26.2965 N   0  0  0  0  0  0  0  0  0  0  0  0
    6.9157  -14.5062   24.7359 C   0  0  0  0  0  0  0  0  0  0  0  0
    6.4470  -15.6454   24.9487 O   0  0  0  0  0  0  0  0  0  0  0  0
    6.9136  -13.8438   20.9074 C   0  0  0  0  0  0  0  0  0  0  0  0
    8.1709  -14.6454   21.2355 C   0  0  2  0  0  0  0  0  0  0  0  0
    8.4265  -15.6797   20.1613 C   0  0  0  0  0  0  0  0  0  0  0  0
    7.9392  -15.2915   22.5808 C   0  0  2  0  0  0  0  0  0  0  0  0
    7.7529  -14.3249   23.6189 N   0  0  0  0  0  0  0  0  0  0  0  0
    9.0212  -16.2150   22.9547 C   0  0  0  0  0  0  0  0  0  0  0  0
    9.2038  -17.2797   22.3244 O   0  0  0  0  0  0  0  0  0  0  0  0
   12.2618  -15.8763   24.3655 C   0  0  0  0  0  0  0  0  0  0  0  0
   11.0361  -16.7919   24.2948 C   0  0  2  0  0  0  0  0  0  0  0  0
    9.9050  -15.9494   24.0384 N   0  0  0  0  0  0  0  0  0  0  0  0
   10.8718  -17.5481   25.5573 C   0  0  0  0  0  0  0  0  0  0  0  0
    9.8527  -17.3686   26.2649 O   0  0  0  0  0  0  0  0  0  0  0  0
   11.8165  -18.4602   25.9920 O   0  0  0  0  0  0  0  0  0  0  0  0
  2  1  1  6
  3  2  1  0
  4  2  1  0
  4  5  1  1
  6 12  1  0
  6  4  1  0
  7  6  2  0
  9  8  1  6
  9 11  1  0
 10  9  1  0
 11 12  1  1
 13 11  1  0
 13 14  2  0
 16 17  1  0
 16 15  1  1
 17 13  1  0
 18 16  1  0
 19 18  2  0
 20 18  1  0
M  END
$$$$
