VVA.pdb
     RDKit          3D

 20 19  0  0  1  0  0  0  0  0999 V2000
    6.6448  -19.6458   17.0318 C   0  0  0  0  0  0  0  0  0  0  0  0
    7.4778  -18.8656   18.0444 C   0  0  1  0  0  0  0  0  0  0  0  0
    8.7305  -19.6650   18.2850 C   0  0  0  0  0  0  0  0  0  0  0  0
    7.8119  -17.5157   17.4367 C   0  0  2  0  0  0  0  0  0  0  0  0
    8.5561  -17.6521   16.2146 N   0  0  0  0  0  0  0  0  0  0  0  0
    8.4745  -16.6584   18.4286 C   0  0  0  0  0  0  0  0  0  0  0  0
    9.7186  -16.5443   18.3835 O   0  0  0  0  0  0  0  0  0  0  0  0
    7.2120  -13.1243   19.7379 C   0  0  0  0  0  0  0  0  0  0  0  0
    7.4712  -14.0516   20.9228 C   0  0  2  0  0  0  0  0  0  0  0  0
    8.0918  -13.2785   22.0656 C   0  0  0  0  0  0  0  0  0  0  0  0
    8.3908  -15.1438   20.4306 C   0  0  2  0  0  0  0  0  0  0  0  0
    7.7742  -15.9580   19.4288 N   0  0  0  0  0  0  0  0  0  0  0  0
    8.8867  -15.9955   21.5224 C   0  0  0  0  0  0  0  0  0  0  0  0
    8.1154  -16.7616   22.1409 O   0  0  0  0  0  0  0  0  0  0  0  0
   12.2178  -17.0467   22.7575 C   0  0  0  0  0  0  0  0  0  0  0  0
   10.7143  -16.8531   22.9761 C   0  0  2  0  0  0  0  0  0  0  0  0
   10.2514  -15.9929   21.9269 N   0  0  0  0  0  0  0  0  0  0  0  0
   10.4484  -16.2692   24.3107 C   0  0  0  0  0  0  0  0  0  0  0  0
   10.3367  -15.0271   24.4382 O   0  0  0  0  0  0  0  0  0  0  0  0
   10.3166  -17.0563   25.4405 O   0  0  0  0  0  0  0  0  0  0  0  0
  2  1  1  6
  3  2  1  0
  4  2  1  0
  4  5  1  6
  6 12  1  0
  6  4  1  0
  7  6  2  0
  9  8  1  6
  9 11  1  0
 10  9  1  0
 11 12  1  6
 13 11  1  0
 13 14  2  0
 16 17  1  0
 16 15  1  6
 17 13  1  0
 18 16  1  0
 19 18  2  0
 20 18  1  0
M  END
$$$$
