VVA.pdb
     RDKit          3D

 20 19  0  0  1  0  0  0  0  0999 V2000
    7.8420  -17.6916   23.9633 C   0  0  0  0  0  0  0  0  0  0  0  0
    8.3094  -17.1570   22.6129 C   0  0  1  0  0  0  0  0  0  0  0  0
    7.8090  -18.1181   21.5679 C   0  0  0  0  0  0  0  0  0  0  0  0
    7.6965  -15.7828   22.4145 C   0  0  2  0  0  0  0  0  0  0  0  0
    7.7999  -15.3464   21.0489 N   0  0  0  0  0  0  0  0  0  0  0  0
    8.2631  -14.8268   23.3751 C   0  0  0  0  0  0  0  0  0  0  0  0
    9.3397  -14.2595   23.0889 O   0  0  0  0  0  0  0  0  0  0  0  0
    5.9287  -13.3491   26.4867 C   0  0  0  0  0  0  0  0  0  0  0  0
    7.1401  -12.5691   25.9818 C   0  0  2  0  0  0  0  0  0  0  0  0
    6.7417  -11.6730   24.8298 C   0  0  0  0  0  0  0  0  0  0  0  0
    8.1712  -13.5881   25.5583 C   0  0  2  0  0  0  0  0  0  0  0  0
    7.6505  -14.5186   24.6045 N   0  0  0  0  0  0  0  0  0  0  0  0
    8.7414  -14.3189   26.7003 C   0  0  0  0  0  0  0  0  0  0  0  0
    8.0507  -15.1329   27.3519 O   0  0  0  0  0  0  0  0  0  0  0  0
    9.8168  -13.9753   29.4771 C   0  0  0  0  0  0  0  0  0  0  0  0
   10.5631  -14.6979   28.3516 C   0  0  2  0  0  0  0  0  0  0  0  0
   10.0904  -14.1409   27.1181 N   0  0  0  0  0  0  0  0  0  0  0  0
   10.3213  -16.1575   28.4135 C   0  0  0  0  0  0  0  0  0  0  0  0
   10.7338  -16.8179   29.3959 O   0  0  0  0  0  0  0  0  0  0  0  0
    9.6462  -16.8303   27.4111 O   0  0  0  0  0  0  0  0  0  0  0  0
  2  1  1  1
  3  2  1  0
  4  2  1  0
  4  5  1  6
  6 12  1  0
  6  4  1  0
  7  6  2  0
  9  8  1  6
  9 11  1  0
 10  9  1  0
 11 12  1  6
 13 11  1  0
 13 14  2  0
 16 17  1  0
 16 15  1  1
 17 13  1  0
 18 16  1  0
 19 18  2  0
 20 18  1  0
M  END
$$$$
