IIV.pdb
     RDKit          3D

 24 23  0  0  1  0  0  0  0  0999 V2000
    4.9180  -19.2750   21.1858 C   0  0  0  0  0  0  0  0  0  0  0  0
    5.0781  -17.7604   21.2014 C   0  0  0  0  0  0  0  0  0  0  0  0
    6.2221  -17.3572   22.1197 C   0  0  2  0  0  0  0  0  0  0  0  0
    5.8625  -17.9132   23.4968 C   0  0  0  0  0  0  0  0  0  0  0  0
    6.2513  -15.8676   22.2181 C   0  0  2  0  0  0  0  0  0  0  0  0
    6.3907  -15.2192   20.9468 N   0  0  0  0  0  0  0  0  0  0  0  0
    7.3150  -15.3870   23.1558 C   0  0  0  0  0  0  0  0  0  0  0  0
    8.4850  -15.4145   22.7083 O   0  0  0  0  0  0  0  0  0  0  0  0
    6.0197  -11.5174   26.5943 C   0  0  0  0  0  0  0  0  0  0  0  0
    6.9550  -12.3889   25.7666 C   0  0  0  0  0  0  0  0  0  0  0  0
    7.4234  -13.6015   26.5088 C   0  0  2  0  0  0  0  0  0  0  0  0
    8.5596  -13.2035   27.4103 C   0  0  0  0  0  0  0  0  0  0  0  0
    7.8952  -14.6365   25.5225 C   0  0  2  0  0  0  0  0  0  0  0  0
    7.0064  -14.9359   24.4543 N   0  0  0  0  0  0  0  0  0  0  0  0
    8.5926  -15.7929   26.1055 C   0  0  0  0  0  0  0  0  0  0  0  0
    8.0691  -16.6343   26.8524 O   0  0  0  0  0  0  0  0  0  0  0  0
   11.6973  -17.2118   23.9045 C   0  0  0  0  0  0  0  0  0  0  0  0
   12.0291  -17.1862   25.3973 C   0  0  2  0  0  0  0  0  0  0  0  0
   12.7963  -18.4482   25.7325 C   0  0  0  0  0  0  0  0  0  0  0  0
   10.7262  -17.1741   26.1690 C   0  0  2  0  0  0  0  0  0  0  0  0
    9.9924  -16.0090   25.8173 N   0  0  0  0  0  0  0  0  0  0  0  0
   11.0108  -17.1981   27.6260 C   0  0  0  0  0  0  0  0  0  0  0  0
   11.2266  -18.2714   28.2023 O   0  0  0  0  0  0  0  0  0  0  0  0
   11.0190  -15.9652   28.2858 O   0  0  0  0  0  0  0  0  0  0  0  0
  2  1  1  0
  3  2  1  0
  3  4  1  1
  5  6  1  6
  5  3  1  0
  7  8  2  0
  7  5  1  0
 10  9  1  0
 11 12  1  1
 11 10  1  0
 13 14  1  1
 13 11  1  0
 14  7  1  0
 15 13  1  0
 16 15  2  0
 18 17  1  6
 18 19  1  0
 20 18  1  0
 20 21  1  1
 21 15  1  0
 22 20  1  0
 23 22  2  0
 24 22  1  0
M  END
$$$$
