IIV.pdb
     RDKit          3D

 24 23  0  0  1  0  0  0  0  0999 V2000
    6.6862  -17.8661   18.7824 C   0  0  0  0  0  0  0  0  0  0  0  0
    6.6478  -16.4143   19.2413 C   0  0  0  0  0  0  0  0  0  0  0  0
    7.4204  -16.2480   20.5413 C   0  0  2  0  0  0  0  0  0  0  0  0
    6.7108  -17.1381   21.5607 C   0  0  0  0  0  0  0  0  0  0  0  0
    7.2884  -14.8319   20.9960 C   0  0  2  0  0  0  0  0  0  0  0  0
    7.7260  -13.8802   20.0169 N   0  0  0  0  0  0  0  0  0  0  0  0
    7.9942  -14.5903   22.2941 C   0  0  0  0  0  0  0  0  0  0  0  0
    9.2457  -14.5736   22.2359 O   0  0  0  0  0  0  0  0  0  0  0  0
    5.8036  -11.3589   26.0734 C   0  0  0  0  0  0  0  0  0  0  0  0
    6.7486  -12.1983   25.2240 C   0  0  0  0  0  0  0  0  0  0  0  0
    7.0139  -13.5475   25.8157 C   0  0  2  0  0  0  0  0  0  0  0  0
    7.8239  -13.3705   27.0706 C   0  0  0  0  0  0  0  0  0  0  0  0
    7.7840  -14.3813   24.8266 C   0  0  2  0  0  0  0  0  0  0  0  0
    7.2847  -14.3960   23.4958 N   0  0  0  0  0  0  0  0  0  0  0  0
    8.2684  -15.6747   25.3327 C   0  0  0  0  0  0  0  0  0  0  0  0
    7.5406  -16.6079   25.7057 O   0  0  0  0  0  0  0  0  0  0  0  0
   11.4661  -17.2910   23.6164 C   0  0  0  0  0  0  0  0  0  0  0  0
   11.6468  -17.2658   25.1349 C   0  0  2  0  0  0  0  0  0  0  0  0
   12.3043  -18.5641   25.5542 C   0  0  0  0  0  0  0  0  0  0  0  0
   10.2756  -17.1724   25.7706 C   0  0  2  0  0  0  0  0  0  0  0  0
    9.6889  -15.9260   25.4216 N   0  0  0  0  0  0  0  0  0  0  0  0
   10.4006  -17.3020   27.2444 C   0  0  0  0  0  0  0  0  0  0  0  0
   10.3248  -16.3013   27.9677 O   0  0  0  0  0  0  0  0  0  0  0  0
   10.6038  -18.5909   27.7476 O   0  0  0  0  0  0  0  0  0  0  0  0
  2  1  1  0
  3  2  1  0
  3  4  1  1
  5  6  1  6
  5  3  1  0
  7  8  2  0
  7  5  1  0
 10  9  1  0
 11 12  1  1
 11 10  1  0
 13 14  1  6
 13 11  1  0
 14  7  1  0
 15 13  1  0
 16 15  2  0
 18 17  1  6
 18 19  1  0
 20 18  1  0
 20 21  1  1
 21 15  1  0
 22 20  1  0
 23 22  2  0
 24 22  1  0
M  END
$$$$
