IIV.pdb
     RDKit          3D

 24 23  0  0  1  0  0  0  0  0999 V2000
    6.0533  -22.4922   24.7568 C   0  0  0  0  0  0  0  0  0  0  0  0
    5.2778  -21.2149   24.4623 C   0  0  0  0  0  0  0  0  0  0  0  0
    6.2315  -20.0880   24.0943 C   0  0  2  0  0  0  0  0  0  0  0  0
    7.1251  -19.8867   25.3174 C   0  0  0  0  0  0  0  0  0  0  0  0
    5.4380  -18.8392   23.8935 C   0  0  2  0  0  0  0  0  0  0  0  0
    4.5219  -18.9217   22.7936 N   0  0  0  0  0  0  0  0  0  0  0  0
    6.3145  -17.6352   23.7388 C   0  0  0  0  0  0  0  0  0  0  0  0
    6.8719  -17.5100   22.6236 O   0  0  0  0  0  0  0  0  0  0  0  0
    7.6061  -12.0322   26.1201 C   0  0  0  0  0  0  0  0  0  0  0  0
    7.9921  -13.3268   25.4169 C   0  0  0  0  0  0  0  0  0  0  0  0
    6.9521  -14.3941   25.5588 C   0  0  2  0  0  0  0  0  0  0  0  0
    6.7313  -14.6576   27.0231 C   0  0  0  0  0  0  0  0  0  0  0  0
    7.4336  -15.6503   24.8830 C   0  0  2  0  0  0  0  0  0  0  0  0
    6.4923  -16.7112   24.7874 N   0  0  0  0  0  0  0  0  0  0  0  0
    8.8094  -16.0554   25.2091 C   0  0  0  0  0  0  0  0  0  0  0  0
    9.1805  -16.4807   26.3143 O   0  0  0  0  0  0  0  0  0  0  0  0
   11.8354  -15.3745   22.2742 C   0  0  0  0  0  0  0  0  0  0  0  0
   11.6612  -16.7705   22.8742 C   0  0  2  0  0  0  0  0  0  0  0  0
   10.6639  -17.5293   22.0237 C   0  0  0  0  0  0  0  0  0  0  0  0
   11.1067  -16.6150   24.2748 C   0  0  2  0  0  0  0  0  0  0  0  0
    9.8424  -15.9704   24.2017 N   0  0  0  0  0  0  0  0  0  0  0  0
   12.0547  -15.8245   25.1000 C   0  0  0  0  0  0  0  0  0  0  0  0
   11.7450  -14.6942   25.4963 O   0  0  0  0  0  0  0  0  0  0  0  0
   13.2845  -16.4227   25.3921 O   0  0  0  0  0  0  0  0  0  0  0  0
  2  1  1  0
  3  2  1  0
  3  4  1  1
  5  6  1  6
  5  3  1  0
  7  8  2  0
  7  5  1  0
 10  9  1  0
 11 12  1  1
 11 10  1  0
 13 14  1  1
 13 11  1  0
 14  7  1  0
 15 13  1  0
 16 15  2  0
 18 17  1  6
 18 19  1  0
 20 18  1  0
 20 21  1  6
 21 15  1  0
 22 20  1  0
 23 22  2  0
 24 22  1  0
M  END
$$$$
