IIV.pdb
     RDKit          3D

 24 23  0  0  1  0  0  0  0  0999 V2000
    5.6436  -18.6397   19.8665 C   0  0  0  0  0  0  0  0  0  0  0  0
    5.7106  -17.1420   20.1353 C   0  0  0  0  0  0  0  0  0  0  0  0
    6.7497  -16.8408   21.2050 C   0  0  2  0  0  0  0  0  0  0  0  0
    6.3318  -17.6554   22.4283 C   0  0  0  0  0  0  0  0  0  0  0  0
    6.6593  -15.3940   21.5626 C   0  0  2  0  0  0  0  0  0  0  0  0
    6.8967  -14.5203   20.4507 N   0  0  0  0  0  0  0  0  0  0  0  0
    7.5705  -15.0372   22.6959 C   0  0  0  0  0  0  0  0  0  0  0  0
    8.7883  -14.9651   22.4104 O   0  0  0  0  0  0  0  0  0  0  0  0
    6.0800  -11.3758   26.3401 C   0  0  0  0  0  0  0  0  0  0  0  0
    6.8750  -12.3402   25.4701 C   0  0  0  0  0  0  0  0  0  0  0  0
    7.2050  -13.6182   26.1762 C   0  0  2  0  0  0  0  0  0  0  0  0
    8.1939  -13.3211   27.2697 C   0  0  0  0  0  0  0  0  0  0  0  0
    7.8083  -14.5871   25.1944 C   0  0  2  0  0  0  0  0  0  0  0  0
    7.0771  -14.8006   23.9942 N   0  0  0  0  0  0  0  0  0  0  0  0
    8.4154  -15.7894   25.7854 C   0  0  0  0  0  0  0  0  0  0  0  0
    7.8235  -16.5941   26.5216 O   0  0  0  0  0  0  0  0  0  0  0  0
   12.2532  -18.8698   25.1306 C   0  0  0  0  0  0  0  0  0  0  0  0
   11.5561  -17.5512   24.7924 C   0  0  2  0  0  0  0  0  0  0  0  0
   12.5592  -16.4293   24.9619 C   0  0  0  0  0  0  0  0  0  0  0  0
   10.4180  -17.3557   25.7721 C   0  0  2  0  0  0  0  0  0  0  0  0
    9.8015  -16.1006   25.5189 N   0  0  0  0  0  0  0  0  0  0  0  0
   10.9410  -17.4158   27.1604 C   0  0  0  0  0  0  0  0  0  0  0  0
   11.0264  -16.3858   27.8405 O   0  0  0  0  0  0  0  0  0  0  0  0
   11.3198  -18.6751   27.6360 O   0  0  0  0  0  0  0  0  0  0  0  0
  2  1  1  0
  3  2  1  0
  3  4  1  1
  5  6  1  6
  5  3  1  0
  7  8  2  0
  7  5  1  0
 10  9  1  0
 11 12  1  1
 11 10  1  0
 13 14  1  6
 13 11  1  0
 14  7  1  0
 15 13  1  0
 16 15  2  0
 18 17  1  1
 18 19  1  0
 20 18  1  0
 20 21  1  6
 21 15  1  0
 22 20  1  0
 23 22  2  0
 24 22  1  0
M  END
$$$$
