IIV.pdb
     RDKit          3D

 24 23  0  0  1  0  0  0  0  0999 V2000
    6.4722  -18.1150   19.2207 C   0  0  0  0  0  0  0  0  0  0  0  0
    6.4619  -16.6439   19.6152 C   0  0  0  0  0  0  0  0  0  0  0  0
    7.2699  -16.4297   20.8864 C   0  0  2  0  0  0  0  0  0  0  0  0
    6.5386  -17.2103   21.9775 C   0  0  0  0  0  0  0  0  0  0  0  0
    7.2193  -14.9810   21.2443 C   0  0  2  0  0  0  0  0  0  0  0  0
    7.6987  -14.1231   20.2002 N   0  0  0  0  0  0  0  0  0  0  0  0
    7.9494  -14.6912   22.5190 C   0  0  0  0  0  0  0  0  0  0  0  0
    9.1989  -14.6583   22.4326 O   0  0  0  0  0  0  0  0  0  0  0  0
    6.0309  -11.1506   26.1044 C   0  0  0  0  0  0  0  0  0  0  0  0
    6.8564  -12.1256   25.2755 C   0  0  0  0  0  0  0  0  0  0  0  0
    7.0917  -13.4265   25.9778 C   0  0  2  0  0  0  0  0  0  0  0  0
    7.9506  -13.1714   27.1858 C   0  0  0  0  0  0  0  0  0  0  0  0
    7.7956  -14.3751   25.0444 C   0  0  2  0  0  0  0  0  0  0  0  0
    7.2634  -14.4717   23.7298 N   0  0  0  0  0  0  0  0  0  0  0  0
    8.2290  -15.6462   25.6443 C   0  0  0  0  0  0  0  0  0  0  0  0
    7.4664  -16.5068   26.1110 O   0  0  0  0  0  0  0  0  0  0  0  0
   11.3617  -17.4897   24.0062 C   0  0  0  0  0  0  0  0  0  0  0  0
   11.5379  -17.3981   25.5227 C   0  0  2  0  0  0  0  0  0  0  0  0
   12.1325  -18.7033   26.0091 C   0  0  0  0  0  0  0  0  0  0  0  0
   10.1702  -17.2098   26.1449 C   0  0  2  0  0  0  0  0  0  0  0  0
    9.6372  -15.9631   25.7194 N   0  0  0  0  0  0  0  0  0  0  0  0
   10.2862  -17.2562   27.6244 C   0  0  0  0  0  0  0  0  0  0  0  0
   10.3357  -16.2082   28.2799 O   0  0  0  0  0  0  0  0  0  0  0  0
   10.3346  -18.5242   28.2122 O   0  0  0  0  0  0  0  0  0  0  0  0
  2  1  1  0
  3  2  1  0
  3  4  1  1
  5  6  1  6
  5  3  1  0
  7  8  2  0
  7  5  1  0
 10  9  1  0
 11 12  1  1
 11 10  1  0
 13 14  1  6
 13 11  1  0
 14  7  1  0
 15 13  1  0
 16 15  2  0
 18 17  1  6
 18 19  1  0
 20 18  1  0
 20 21  1  1
 21 15  1  0
 22 20  1  0
 23 22  2  0
 24 22  1  0
M  END
$$$$
