IIV.pdb
     RDKit          3D

 24 23  0  0  1  0  0  0  0  0999 V2000
    6.2660  -18.0119   19.1118 C   0  0  0  0  0  0  0  0  0  0  0  0
    6.4015  -16.5380   19.4712 C   0  0  0  0  0  0  0  0  0  0  0  0
    7.1935  -16.3767   20.7601 C   0  0  2  0  0  0  0  0  0  0  0  0
    6.4343  -17.1800   21.8152 C   0  0  0  0  0  0  0  0  0  0  0  0
    7.1594  -14.9395   21.1633 C   0  0  2  0  0  0  0  0  0  0  0  0
    7.6585  -14.0557   20.1504 N   0  0  0  0  0  0  0  0  0  0  0  0
    7.8831  -14.6999   22.4519 C   0  0  0  0  0  0  0  0  0  0  0  0
    9.1338  -14.6885   22.3773 O   0  0  0  0  0  0  0  0  0  0  0  0
    6.1581  -11.1705   26.1027 C   0  0  0  0  0  0  0  0  0  0  0  0
    6.9814  -12.1632   25.2928 C   0  0  0  0  0  0  0  0  0  0  0  0
    7.0598  -13.5117   25.9381 C   0  0  2  0  0  0  0  0  0  0  0  0
    7.8869  -13.3978   27.1891 C   0  0  0  0  0  0  0  0  0  0  0  0
    7.7081  -14.4813   24.9863 C   0  0  2  0  0  0  0  0  0  0  0  0
    7.1903  -14.5017   23.6625 N   0  0  0  0  0  0  0  0  0  0  0  0
    8.0403  -15.7970   25.5538 C   0  0  0  0  0  0  0  0  0  0  0  0
    7.2224  -16.5725   26.0729 O   0  0  0  0  0  0  0  0  0  0  0  0
   12.0838  -17.0697   25.0971 C   0  0  0  0  0  0  0  0  0  0  0  0
   10.9213  -18.0635   25.0942 C   0  0  2  0  0  0  0  0  0  0  0  0
   10.3767  -18.1497   23.6837 C   0  0  0  0  0  0  0  0  0  0  0  0
    9.8433  -17.5294   26.0140 C   0  0  2  0  0  0  0  0  0  0  0  0
    9.4069  -16.2668   25.5294 N   0  0  0  0  0  0  0  0  0  0  0  0
   10.3810  -17.4078   27.3926 C   0  0  0  0  0  0  0  0  0  0  0  0
   10.5618  -16.2923   27.8961 O   0  0  0  0  0  0  0  0  0  0  0  0
   10.6620  -18.6010   28.0658 O   0  0  0  0  0  0  0  0  0  0  0  0
  2  1  1  0
  3  2  1  0
  3  4  1  1
  5  6  1  6
  5  3  1  0
  7  8  2  0
  7  5  1  0
 10  9  1  0
 11 12  1  1
 11 10  1  0
 13 14  1  6
 13 11  1  0
 14  7  1  0
 15 13  1  0
 16 15  2  0
 18 17  1  6
 18 19  1  0
 20 18  1  0
 20 21  1  6
 21 15  1  0
 22 20  1  0
 23 22  2  0
 24 22  1  0
M  END
$$$$
