IIV.pdb
     RDKit          3D

 24 23  0  0  1  0  0  0  0  0999 V2000
    6.6786  -17.4942   18.5942 C   0  0  0  0  0  0  0  0  0  0  0  0
    6.6287  -16.0649   19.1182 C   0  0  0  0  0  0  0  0  0  0  0  0
    7.3910  -15.9537   20.4301 C   0  0  2  0  0  0  0  0  0  0  0  0
    6.6875  -16.9031   21.3989 C   0  0  0  0  0  0  0  0  0  0  0  0
    7.2370  -14.5641   20.9540 C   0  0  2  0  0  0  0  0  0  0  0  0
    7.6592  -13.5584   20.0233 N   0  0  0  0  0  0  0  0  0  0  0  0
    7.9396  -14.3758   22.2628 C   0  0  0  0  0  0  0  0  0  0  0  0
    9.1873  -14.2806   22.1995 O   0  0  0  0  0  0  0  0  0  0  0  0
    6.1086  -11.1112   26.0585 C   0  0  0  0  0  0  0  0  0  0  0  0
    6.9359  -12.0541   25.1951 C   0  0  0  0  0  0  0  0  0  0  0  0
    7.0670  -13.4203   25.7929 C   0  0  2  0  0  0  0  0  0  0  0  0
    7.8974  -13.3196   27.0428 C   0  0  0  0  0  0  0  0  0  0  0  0
    7.7439  -14.3324   24.8046 C   0  0  2  0  0  0  0  0  0  0  0  0
    7.2312  -14.3116   23.4790 N   0  0  0  0  0  0  0  0  0  0  0  0
    8.1089  -15.6612   25.3189 C   0  0  0  0  0  0  0  0  0  0  0  0
    7.3007  -16.5129   25.7205 O   0  0  0  0  0  0  0  0  0  0  0  0
   12.1787  -16.7687   24.8334 C   0  0  0  0  0  0  0  0  0  0  0  0
   11.0342  -17.7820   24.7815 C   0  0  2  0  0  0  0  0  0  0  0  0
   10.4595  -17.7744   23.3803 C   0  0  0  0  0  0  0  0  0  0  0  0
    9.9679  -17.3382   25.7610 C   0  0  2  0  0  0  0  0  0  0  0  0
    9.4992  -16.0515   25.3813 N   0  0  0  0  0  0  0  0  0  0  0  0
   10.5341  -17.3093   27.1332 C   0  0  0  0  0  0  0  0  0  0  0  0
   10.8491  -18.3624   27.7010 O   0  0  0  0  0  0  0  0  0  0  0  0
   10.6842  -16.0514   27.7255 O   0  0  0  0  0  0  0  0  0  0  0  0
  2  1  1  0
  3  2  1  0
  3  4  1  1
  5  6  1  6
  5  3  1  0
  7  8  2  0
  7  5  1  0
 10  9  1  0
 11 12  1  1
 11 10  1  0
 13 14  1  6
 13 11  1  0
 14  7  1  0
 15 13  1  0
 16 15  2  0
 18 17  1  6
 18 19  1  0
 20 18  1  0
 20 21  1  6
 21 15  1  0
 22 20  1  0
 23 22  2  0
 24 22  1  0
M  END
$$$$
