SNC.pdb
     RDKit          3D

 21 20  0  0  1  0  0  0  0  0999 V2000
   17.6816  -11.1311  -18.9451 O   0  0  0  0  0  0  0  0  0  0  0  0
   18.4420  -10.5694  -17.9201 C   0  0  0  0  0  0  0  0  0  0  0  0
   19.7748  -11.2881  -17.8290 C   0  0  2  0  0  0  0  0  0  0  0  0
   19.5504  -12.5943  -17.2818 N   0  0  0  0  0  0  0  0  0  0  0  0
   20.7254  -10.5068  -16.9563 C   0  0  0  0  0  0  0  0  0  0  0  0
   20.5352  -10.4707  -15.7375 O   0  0  0  0  0  0  0  0  0  0  0  0
   24.9262   -7.4309  -15.9488 N   0  0  0  0  0  0  0  0  0  0  0  0
   25.1118   -8.0369  -17.2088 C   0  0  0  0  0  0  0  0  0  0  0  0
   26.2668   -7.8516  -17.7311 O   0  0  0  0  0  0  0  0  0  0  0  0
   24.0391   -8.8236  -17.8607 C   0  0  0  0  0  0  0  0  0  0  0  0
   22.8136   -9.0171  -16.9953 C   0  0  2  0  0  0  0  0  0  0  0  0
   21.7878   -9.8504  -17.5380 N   0  0  0  0  0  0  0  0  0  0  0  0
   22.2676   -7.6636  -16.7585 C   0  0  0  0  0  0  0  0  0  0  0  0
   21.7347   -7.0104  -17.7314 O   0  0  0  0  0  0  0  0  0  0  0  0
   22.2663   -6.9824  -15.5346 N   0  0  0  0  0  0  0  0  0  0  0  0
   21.6640   -5.7040  -15.3322 C   0  0  1  0  0  0  0  0  0  0  0  0
   20.5785   -5.7234  -14.2761 C   0  0  0  0  0  0  0  0  0  0  0  0
   19.8987   -4.0405  -14.1776 S   0  0  0  0  0  0  0  0  0  0  0  0
   22.6425   -4.6285  -15.0602 C   0  0  0  0  0  0  0  0  0  0  0  0
   23.6388   -4.8455  -14.3245 O   0  0  0  0  0  0  0  0  0  0  0  0
   22.5177   -3.3576  -15.5871 O   0  0  0  0  0  0  0  0  0  0  0  0
  2  3  1  0
  2  1  1  0
  3  5  1  0
  3  4  1  1
  5  6  2  0
  7  8  1  0
  8 10  1  0
  8  9  2  0
 11 10  1  6
 11 13  1  0
 12 11  1  0
 12  5  1  0
 13 15  1  0
 14 13  2  0
 15 16  1  0
 16 17  1  1
 17 18  1  0
 19 21  1  0
 19 16  1  0
 20 19  2  0
M  END
$$$$
