SNC.pdb
     RDKit          3D

 21 20  0  0  1  0  0  0  0  0999 V2000
   13.5255   -8.9723  -13.2163 O   0  0  0  0  0  0  0  0  0  0  0  0
   14.8510   -8.9672  -13.6494 C   0  0  0  0  0  0  0  0  0  0  0  0
   14.8890   -9.1205  -15.1582 C   0  0  2  0  0  0  0  0  0  0  0  0
   14.6673  -10.4999  -15.4806 N   0  0  0  0  0  0  0  0  0  0  0  0
   16.2237   -8.6622  -15.6913 C   0  0  0  0  0  0  0  0  0  0  0  0
   17.1089   -9.4961  -15.9011 O   0  0  0  0  0  0  0  0  0  0  0  0
   15.5956   -5.0604  -19.3520 N   0  0  0  0  0  0  0  0  0  0  0  0
   16.5720   -5.8442  -18.7026 C   0  0  0  0  0  0  0  0  0  0  0  0
   16.9028   -6.9154  -19.3223 O   0  0  0  0  0  0  0  0  0  0  0  0
   17.1571   -5.4406  -17.4029 C   0  0  0  0  0  0  0  0  0  0  0  0
   17.5214   -6.6063  -16.5103 C   0  0  2  0  0  0  0  0  0  0  0  0
   16.4268   -7.3214  -15.9345 N   0  0  0  0  0  0  0  0  0  0  0  0
   18.3578   -6.0424  -15.4293 C   0  0  0  0  0  0  0  0  0  0  0  0
   17.8010   -5.4232  -14.4477 O   0  0  0  0  0  0  0  0  0  0  0  0
   19.7547   -6.1113  -15.3525 N   0  0  0  0  0  0  0  0  0  0  0  0
   20.5267   -5.5314  -14.3009 C   0  0  1  0  0  0  0  0  0  0  0  0
   21.8781   -6.1927  -14.1270 C   0  0  0  0  0  0  0  0  0  0  0  0
   22.6775   -5.4066  -12.6962 S   0  0  0  0  0  0  0  0  0  0  0  0
   20.6710   -4.0638  -14.4169 C   0  0  0  0  0  0  0  0  0  0  0  0
   21.0266   -3.5431  -15.5049 O   0  0  0  0  0  0  0  0  0  0  0  0
   20.4288   -3.2062  -13.3614 O   0  0  0  0  0  0  0  0  0  0  0  0
  2  3  1  0
  2  1  1  0
  3  5  1  0
  3  4  1  1
  5  6  2  0
  7  8  1  0
  8 10  1  0
  8  9  2  0
 11 10  1  6
 11 13  1  0
 12 11  1  0
 12  5  1  0
 13 15  1  0
 14 13  2  0
 15 16  1  0
 16 17  1  6
 17 18  1  0
 19 21  1  0
 19 16  1  0
 20 19  2  0
M  END
$$$$
