SNC.pdb
     RDKit          3D

 21 20  0  0  1  0  0  0  0  0999 V2000
   17.0099  -12.7699  -13.1900 O   0  0  0  0  0  0  0  0  0  0  0  0
   17.2785  -11.4179  -13.4010 C   0  0  0  0  0  0  0  0  0  0  0  0
   16.0343  -10.6037  -13.1006 C   0  0  2  0  0  0  0  0  0  0  0  0
   15.1250  -10.7404  -14.2008 N   0  0  0  0  0  0  0  0  0  0  0  0
   16.4010   -9.1548  -12.8962 C   0  0  0  0  0  0  0  0  0  0  0  0
   16.4388   -8.3982  -13.8704 O   0  0  0  0  0  0  0  0  0  0  0  0
   17.8595   -4.9115  -10.0475 N   0  0  0  0  0  0  0  0  0  0  0  0
   17.2706   -5.8545   -9.1796 C   0  0  0  0  0  0  0  0  0  0  0  0
   17.0634   -5.4341   -7.9874 O   0  0  0  0  0  0  0  0  0  0  0  0
   16.9260   -7.2221   -9.6331 C   0  0  0  0  0  0  0  0  0  0  0  0
   17.0711   -7.4240  -11.1252 C   0  0  2  0  0  0  0  0  0  0  0  0
   16.6848   -8.7053  -11.6252 N   0  0  0  0  0  0  0  0  0  0  0  0
   18.4999   -7.1932  -11.4277 C   0  0  0  0  0  0  0  0  0  0  0  0
   19.3818   -8.0449  -11.0352 O   0  0  0  0  0  0  0  0  0  0  0  0
   19.0236   -6.0985  -12.1273 N   0  0  0  0  0  0  0  0  0  0  0  0
   20.3782   -6.0062  -12.5686 C   0  0  1  0  0  0  0  0  0  0  0  0
   20.7574   -7.1018  -13.5431 C   0  0  0  0  0  0  0  0  0  0  0  0
   22.4940   -6.8283  -14.0052 S   0  0  0  0  0  0  0  0  0  0  0  0
   20.7315   -4.6758  -13.1103 C   0  0  0  0  0  0  0  0  0  0  0  0
   19.8305   -3.8626  -13.4393 O   0  0  0  0  0  0  0  0  0  0  0  0
   22.0392   -4.2644  -13.2801 O   0  0  0  0  0  0  0  0  0  0  0  0
  2  3  1  0
  2  1  1  0
  3  5  1  0
  3  4  1  6
  5  6  2  0
  7  8  1  0
  8 10  1  0
  8  9  2  0
 11 10  1  1
 11 13  1  0
 12 11  1  0
 12  5  1  0
 13 15  1  0
 14 13  2  0
 15 16  1  0
 16 17  1  6
 17 18  1  0
 19 21  1  0
 19 16  1  0
 20 19  2  0
M  END
$$$$
