SNC.pdb
     RDKit          3D

 21 20  0  0  1  0  0  0  0  0999 V2000
   15.3686  -13.3755  -10.8890 O   0  0  0  0  0  0  0  0  0  0  0  0
   15.6695  -12.1327  -11.4453 C   0  0  0  0  0  0  0  0  0  0  0  0
   14.8682  -11.0563  -10.7379 C   0  0  2  0  0  0  0  0  0  0  0  0
   13.4826  -11.2351  -11.0605 N   0  0  0  0  0  0  0  0  0  0  0  0
   15.3391   -9.6907  -11.1730 C   0  0  0  0  0  0  0  0  0  0  0  0
   15.1255   -9.3186  -12.3301 O   0  0  0  0  0  0  0  0  0  0  0  0
   14.3023   -6.2711   -9.2625 N   0  0  0  0  0  0  0  0  0  0  0  0
   15.5043   -6.2804   -8.5246 C   0  0  0  0  0  0  0  0  0  0  0  0
   15.4169   -5.7876   -7.3454 O   0  0  0  0  0  0  0  0  0  0  0  0
   16.7613   -6.8239   -9.0898 C   0  0  0  0  0  0  0  0  0  0  0  0
   16.5694   -7.5822  -10.3845 C   0  0  2  0  0  0  0  0  0  0  0  0
   15.9970   -8.8861  -10.2687 N   0  0  0  0  0  0  0  0  0  0  0  0
   17.9129   -7.6919  -10.9921 C   0  0  0  0  0  0  0  0  0  0  0  0
   18.8927   -8.1548  -10.2971 O   0  0  0  0  0  0  0  0  0  0  0  0
   18.2525   -7.3308  -12.3022 N   0  0  0  0  0  0  0  0  0  0  0  0
   19.5572   -7.4848  -12.8609 C   0  0  1  0  0  0  0  0  0  0  0  0
   19.5574   -8.2807  -14.1494 C   0  0  0  0  0  0  0  0  0  0  0  0
   18.6669   -9.8307  -13.8202 S   0  0  0  0  0  0  0  0  0  0  0  0
   20.2784   -6.2049  -13.0337 C   0  0  0  0  0  0  0  0  0  0  0  0
   21.4966   -6.1977  -13.3452 O   0  0  0  0  0  0  0  0  0  0  0  0
   19.6672   -4.9774  -12.8663 O   0  0  0  0  0  0  0  0  0  0  0  0
  2  3  1  0
  2  1  1  0
  3  5  1  0
  3  4  1  6
  5  6  2  0
  7  8  1  0
  8 10  1  0
  8  9  2  0
 11 10  1  1
 11 13  1  0
 12 11  1  0
 12  5  1  0
 13 15  1  0
 14 13  2  0
 15 16  1  0
 16 17  1  6
 17 18  1  0
 19 21  1  0
 19 16  1  0
 20 19  2  0
M  END
$$$$
