SNC.pdb
     RDKit          3D

 21 20  0  0  1  0  0  0  0  0999 V2000
   12.9212  -11.5495  -10.7970 O   0  0  0  0  0  0  0  0  0  0  0  0
   13.7659  -10.4668  -10.5549 C   0  0  0  0  0  0  0  0  0  0  0  0
   15.1009  -10.7070  -11.2340 C   0  0  2  0  0  0  0  0  0  0  0  0
   15.5817  -12.0011  -10.8464 N   0  0  0  0  0  0  0  0  0  0  0  0
   16.0855   -9.6367  -10.8330 C   0  0  0  0  0  0  0  0  0  0  0  0
   16.7010   -9.7502   -9.7694 O   0  0  0  0  0  0  0  0  0  0  0  0
   19.5113   -8.8697  -12.2020 N   0  0  0  0  0  0  0  0  0  0  0  0
   19.0786   -7.8827  -13.1120 C   0  0  0  0  0  0  0  0  0  0  0  0
   19.7986   -7.7681  -14.1654 O   0  0  0  0  0  0  0  0  0  0  0  0
   17.8798   -7.0528  -12.8497 C   0  0  0  0  0  0  0  0  0  0  0  0
   17.1478   -7.4240  -11.5790 C   0  0  2  0  0  0  0  0  0  0  0  0
   16.2785   -8.5546  -11.6635 N   0  0  0  0  0  0  0  0  0  0  0  0
   16.3603   -6.2307  -11.2024 C   0  0  0  0  0  0  0  0  0  0  0  0
   15.4500   -5.7886  -11.9980 O   0  0  0  0  0  0  0  0  0  0  0  0
   16.5026   -5.4940  -10.0195 N   0  0  0  0  0  0  0  0  0  0  0  0
   15.6962   -4.3665   -9.6785 C   0  0  1  0  0  0  0  0  0  0  0  0
   14.8819   -4.5822   -8.4197 C   0  0  0  0  0  0  0  0  0  0  0  0
   16.0515   -4.9958   -7.0911 S   0  0  0  0  0  0  0  0  0  0  0  0
   16.4570   -3.1002   -9.6015 C   0  0  0  0  0  0  0  0  0  0  0  0
   17.7092   -3.1019   -9.7164 O   0  0  0  0  0  0  0  0  0  0  0  0
   15.8476   -1.8764   -9.4038 O   0  0  0  0  0  0  0  0  0  0  0  0
  2  3  1  0
  2  1  1  0
  3  5  1  0
  3  4  1  1
  5  6  2  0
  7  8  1  0
  8 10  1  0
  8  9  2  0
 11 10  1  6
 11 13  1  0
 12 11  1  0
 12  5  1  0
 13 15  1  0
 14 13  2  0
 15 16  1  0
 16 17  1  1
 17 18  1  0
 19 21  1  0
 19 16  1  0
 20 19  2  0
M  END
$$$$
