SNC.pdb
     RDKit          3D

 21 20  0  0  1  0  0  0  0  0999 V2000
   17.4223  -10.9778  -17.8380 O   0  0  0  0  0  0  0  0  0  0  0  0
   17.6879   -9.8318  -17.0892 C   0  0  0  0  0  0  0  0  0  0  0  0
   18.7537  -10.1410  -16.0550 C   0  0  2  0  0  0  0  0  0  0  0  0
   18.2996  -11.2354  -15.2475 N   0  0  0  0  0  0  0  0  0  0  0  0
   19.0123   -8.9259  -15.1992 C   0  0  0  0  0  0  0  0  0  0  0  0
   18.2836   -8.7050  -14.2280 O   0  0  0  0  0  0  0  0  0  0  0  0
   21.4961   -4.5343  -13.6494 N   0  0  0  0  0  0  0  0  0  0  0  0
   22.4345   -5.4251  -14.2108 C   0  0  0  0  0  0  0  0  0  0  0  0
   23.6587   -5.0713  -14.0801 O   0  0  0  0  0  0  0  0  0  0  0  0
   22.0144   -6.6699  -14.8954 C   0  0  0  0  0  0  0  0  0  0  0  0
   20.5148   -6.8622  -14.9442 C   0  0  2  0  0  0  0  0  0  0  0  0
   20.0580   -8.0878  -15.5189 N   0  0  0  0  0  0  0  0  0  0  0  0
   19.9867   -5.7278  -15.7319 C   0  0  0  0  0  0  0  0  0  0  0  0
   20.3512   -5.5763  -16.9572 O   0  0  0  0  0  0  0  0  0  0  0  0
   19.0915   -4.7547  -15.2698 N   0  0  0  0  0  0  0  0  0  0  0  0
   18.5274   -3.7330  -16.0919 C   0  0  1  0  0  0  0  0  0  0  0  0
   17.0198   -3.6467  -15.9753 C   0  0  0  0  0  0  0  0  0  0  0  0
   16.6365   -3.3283  -14.2272 S   0  0  0  0  0  0  0  0  0  0  0  0
   19.1469   -2.4051  -15.8892 C   0  0  0  0  0  0  0  0  0  0  0  0
   20.0293   -2.2422  -15.0083 O   0  0  0  0  0  0  0  0  0  0  0  0
   18.7979   -1.2984  -16.6386 O   0  0  0  0  0  0  0  0  0  0  0  0
  2  3  1  0
  2  1  1  0
  3  5  1  0
  3  4  1  1
  5  6  2  0
  7  8  1  0
  8 10  1  0
  8  9  2  0
 11 10  1  6
 11 13  1  0
 12 11  1  0
 12  5  1  0
 13 15  1  0
 14 13  2  0
 15 16  1  0
 16 17  1  1
 17 18  1  0
 19 21  1  0
 19 16  1  0
 20 19  2  0
M  END
$$$$
