SNC.pdb
     RDKit          3D

 21 20  0  0  1  0  0  0  0  0999 V2000
   15.0800  -11.6287  -11.0758 O   0  0  0  0  0  0  0  0  0  0  0  0
   15.8536  -10.9046  -11.9823 C   0  0  0  0  0  0  0  0  0  0  0  0
   14.9773  -10.4282  -13.1253 C   0  0  2  0  0  0  0  0  0  0  0  0
   14.6584  -11.5544  -13.9535 N   0  0  0  0  0  0  0  0  0  0  0  0
   15.6991   -9.3726  -13.9254 C   0  0  0  0  0  0  0  0  0  0  0  0
   16.0483   -9.6249  -15.0819 O   0  0  0  0  0  0  0  0  0  0  0  0
   17.4723   -4.5433  -15.0414 N   0  0  0  0  0  0  0  0  0  0  0  0
   16.5224   -4.4489  -14.0030 C   0  0  0  0  0  0  0  0  0  0  0  0
   16.1693   -3.2547  -13.7024 O   0  0  0  0  0  0  0  0  0  0  0  0
   15.9869   -5.6523  -13.3250 C   0  0  0  0  0  0  0  0  0  0  0  0
   16.5470   -6.9523  -13.8585 C   0  0  2  0  0  0  0  0  0  0  0  0
   15.9527   -8.1473  -13.3489 N   0  0  0  0  0  0  0  0  0  0  0  0
   17.9865   -6.9415  -13.5211 C   0  0  0  0  0  0  0  0  0  0  0  0
   18.3575   -7.1046  -12.2992 O   0  0  0  0  0  0  0  0  0  0  0  0
   19.0400   -6.7653  -14.4272 N   0  0  0  0  0  0  0  0  0  0  0  0
   20.4204   -6.8096  -14.0661 C   0  0  1  0  0  0  0  0  0  0  0  0
   21.0965   -8.1017  -14.4751 C   0  0  0  0  0  0  0  0  0  0  0  0
   22.8214   -8.0045  -13.9100 S   0  0  0  0  0  0  0  0  0  0  0  0
   21.1912   -5.6400  -14.5416 C   0  0  0  0  0  0  0  0  0  0  0  0
   20.9747   -5.1557  -15.6817 O   0  0  0  0  0  0  0  0  0  0  0  0
   22.1674   -5.0309  -13.7773 O   0  0  0  0  0  0  0  0  0  0  0  0
  2  3  1  0
  2  1  1  0
  3  5  1  0
  3  4  1  6
  5  6  2  0
  7  8  1  0
  8 10  1  0
  8  9  2  0
 11 10  1  1
 11 13  1  0
 12 11  1  0
 12  5  1  0
 13 15  1  0
 14 13  2  0
 15 16  1  0
 16 17  1  6
 17 18  1  0
 19 21  1  0
 19 16  1  0
 20 19  2  0
M  END
$$$$
