SNC.pdb
     RDKit          3D

 21 20  0  0  1  0  0  0  0  0999 V2000
   15.9384  -13.0028  -10.5756 O   0  0  0  0  0  0  0  0  0  0  0  0
   16.0673  -11.7216  -11.1109 C   0  0  0  0  0  0  0  0  0  0  0  0
   15.0694  -10.7938  -10.4441 C   0  0  2  0  0  0  0  0  0  0  0  0
   13.7499  -11.1720  -10.8586 N   0  0  0  0  0  0  0  0  0  0  0  0
   15.3542   -9.3637  -10.8309 C   0  0  0  0  0  0  0  0  0  0  0  0
   15.0325   -8.9664  -11.9542 O   0  0  0  0  0  0  0  0  0  0  0  0
   17.1417   -4.4332  -10.1274 N   0  0  0  0  0  0  0  0  0  0  0  0
   16.6928   -4.9427   -8.8911 C   0  0  0  0  0  0  0  0  0  0  0  0
   16.6892   -4.0971   -7.9289 O   0  0  0  0  0  0  0  0  0  0  0  0
   16.2628   -6.3522   -8.7392 C   0  0  0  0  0  0  0  0  0  0  0  0
   16.3959   -7.1697  -10.0050 C   0  0  2  0  0  0  0  0  0  0  0  0
   15.9665   -8.5297   -9.9213 N   0  0  0  0  0  0  0  0  0  0  0  0
   17.8304   -7.1326  -10.3617 C   0  0  0  0  0  0  0  0  0  0  0  0
   18.6946   -7.6982   -9.5934 O   0  0  0  0  0  0  0  0  0  0  0  0
   18.3776   -6.5211  -11.4968 N   0  0  0  0  0  0  0  0  0  0  0  0
   19.7647   -6.5553  -11.8326 C   0  0  1  0  0  0  0  0  0  0  0  0
   20.2113   -7.9029  -12.3602 C   0  0  0  0  0  0  0  0  0  0  0  0
   21.9788   -7.7611  -12.7603 S   0  0  0  0  0  0  0  0  0  0  0  0
   20.1755   -5.4697  -12.7495 C   0  0  0  0  0  0  0  0  0  0  0  0
   19.3173   -4.8533  -13.4312 O   0  0  0  0  0  0  0  0  0  0  0  0
   21.4929   -5.0834  -12.9031 O   0  0  0  0  0  0  0  0  0  0  0  0
  2  3  1  0
  2  1  1  0
  3  5  1  0
  3  4  1  6
  5  6  2  0
  7  8  1  0
  8 10  1  0
  8  9  2  0
 11 10  1  1
 11 13  1  0
 12 11  1  0
 12  5  1  0
 13 15  1  0
 14 13  2  0
 15 16  1  0
 16 17  1  6
 17 18  1  0
 19 21  1  0
 19 16  1  0
 20 19  2  0
M  END
$$$$
