SNC.pdb
     RDKit          3D

 21 20  0  0  1  0  0  0  0  0999 V2000
   15.2365  -12.9664  -15.2529 O   0  0  0  0  0  0  0  0  0  0  0  0
   15.7965  -12.0094  -14.4072 C   0  0  0  0  0  0  0  0  0  0  0  0
   16.9419  -11.3153  -15.1196 C   0  0  2  0  0  0  0  0  0  0  0  0
   17.9781  -12.2771  -15.3585 N   0  0  0  0  0  0  0  0  0  0  0  0
   17.4622  -10.1778  -14.2764 C   0  0  0  0  0  0  0  0  0  0  0  0
   18.3681  -10.3919  -13.4661 O   0  0  0  0  0  0  0  0  0  0  0  0
   18.5759   -4.5300  -14.0678 N   0  0  0  0  0  0  0  0  0  0  0  0
   17.3257   -5.1726  -13.9512 C   0  0  0  0  0  0  0  0  0  0  0  0
   16.4818   -4.5764  -13.1940 O   0  0  0  0  0  0  0  0  0  0  0  0
   17.0322   -6.4403  -14.6593 C   0  0  0  0  0  0  0  0  0  0  0  0
   17.1943   -7.6720  -13.7963 C   0  0  2  0  0  0  0  0  0  0  0  0
   16.9161   -8.9222  -14.4292 N   0  0  0  0  0  0  0  0  0  0  0  0
   16.2748   -7.4890  -12.6530 C   0  0  0  0  0  0  0  0  0  0  0  0
   15.0150   -7.7056  -12.8053 O   0  0  0  0  0  0  0  0  0  0  0  0
   16.6410   -7.0873  -11.3621 N   0  0  0  0  0  0  0  0  0  0  0  0
   15.7133   -6.8738  -10.2983 C   0  0  1  0  0  0  0  0  0  0  0  0
   15.9398   -7.8012   -9.1225 C   0  0  0  0  0  0  0  0  0  0  0  0
   14.5850   -7.5126   -7.9455 S   0  0  0  0  0  0  0  0  0  0  0  0
   15.6443   -5.4655   -9.8510 C   0  0  0  0  0  0  0  0  0  0  0  0
   16.6869   -4.7654   -9.7893 O   0  0  0  0  0  0  0  0  0  0  0  0
   14.4589   -4.8577   -9.4854 O   0  0  0  0  0  0  0  0  0  0  0  0
  2  3  1  0
  2  1  1  0
  3  5  1  0
  3  4  1  1
  5  6  2  0
  7  8  1  0
  8 10  1  0
  8  9  2  0
 11 10  1  6
 11 13  1  0
 12 11  1  0
 12  5  1  0
 13 15  1  0
 14 13  2  0
 15 16  1  0
 16 17  1  1
 17 18  1  0
 19 21  1  0
 19 16  1  0
 20 19  2  0
M  END
$$$$
