SII.pdb
     RDKit          3D

 23 22  0  0  1  0  0  0  0  0999 V2000
   11.8507  -19.3555   21.4049 O   0  0  0  0  0  0  0  0  0  0  0  0
   10.9085  -19.0032   20.4648 C   0  0  0  0  0  0  0  0  0  0  0  0
   11.1955  -17.5748   19.9977 C   0  0  2  0  0  0  0  0  0  0  0  0
   12.6037  -17.4110   19.7011 N   0  0  0  0  0  0  0  0  0  0  0  0
   10.8293  -16.6302   21.0708 C   0  0  0  0  0  0  0  0  0  0  0  0
   11.7193  -16.1206   21.7845 O   0  0  0  0  0  0  0  0  0  0  0  0
    6.5201  -13.2295   20.4572 C   0  0  0  0  0  0  0  0  0  0  0  0
    7.8831  -13.8155   20.7015 C   0  0  0  0  0  0  0  0  0  0  0  0
    7.8433  -14.5976   21.9969 C   0  0  2  0  0  0  0  0  0  0  0  0
    7.5751  -13.6266   23.1231 C   0  0  0  0  0  0  0  0  0  0  0  0
    9.1856  -15.2476   22.2868 C   0  0  2  0  0  0  0  0  0  0  0  0
    9.4707  -16.2759   21.3222 N   0  0  0  0  0  0  0  0  0  0  0  0
    9.2189  -15.8218   23.6488 C   0  0  0  0  0  0  0  0  0  0  0  0
    8.8092  -16.9910   23.8535 O   0  0  0  0  0  0  0  0  0  0  0  0
   10.1502  -13.8714   29.4723 C   0  0  0  0  0  0  0  0  0  0  0  0
   10.1869  -15.0183   28.4744 C   0  0  0  0  0  0  0  0  0  0  0  0
    9.9143  -14.5518   27.0797 C   0  0  2  0  0  0  0  0  0  0  0  0
    8.7716  -13.5619   27.0226 C   0  0  0  0  0  0  0  0  0  0  0  0
    9.7835  -15.6555   26.0930 C   0  0  2  0  0  0  0  0  0  0  0  0
    9.7103  -15.0702   24.7424 N   0  0  0  0  0  0  0  0  0  0  0  0
    8.6794  -16.5894   26.2922 C   0  0  0  0  0  0  0  0  0  0  0  0
    8.8632  -17.7510   27.0143 O   0  0  0  0  0  0  0  0  0  0  0  0
    7.5347  -16.3763   25.8202 O   0  0  0  0  0  0  0  0  0  0  0  0
  2  1  1  0
  3  4  1  1
  3  2  1  0
  5  3  1  0
  6  5  2  0
  8  9  1  0
  8  7  1  0
  9 11  1  0
  9 10  1  1
 11 13  1  0
 11 12  1  6
 12  5  1  0
 13 20  1  0
 14 13  2  0
 15 16  1  0
 17 19  1  0
 17 16  1  0
 17 18  1  1
 19 21  1  0
 19 20  1  6
 21 23  2  0
 21 22  1  0
M  END
$$$$
