SII.pdb
     RDKit          3D

 23 22  0  0  1  0  0  0  0  0999 V2000
    9.2003  -17.8844   21.3447 O   0  0  0  0  0  0  0  0  0  0  0  0
    7.9811  -17.3242   21.0356 C   0  0  0  0  0  0  0  0  0  0  0  0
    8.1391  -15.8029   20.9957 C   0  0  2  0  0  0  0  0  0  0  0  0
    9.1159  -15.4200   19.9972 N   0  0  0  0  0  0  0  0  0  0  0  0
    8.6045  -15.3283   22.3133 C   0  0  0  0  0  0  0  0  0  0  0  0
    9.8198  -15.1103   22.5047 O   0  0  0  0  0  0  0  0  0  0  0  0
    5.3192  -12.1324   25.3211 C   0  0  0  0  0  0  0  0  0  0  0  0
    6.5064  -12.6820   24.5800 C   0  0  0  0  0  0  0  0  0  0  0  0
    7.0711  -13.8415   25.3724 C   0  0  2  0  0  0  0  0  0  0  0  0
    7.6781  -13.2909   26.6418 C   0  0  0  0  0  0  0  0  0  0  0  0
    8.1914  -14.5315   24.6125 C   0  0  2  0  0  0  0  0  0  0  0  0
    7.6965  -15.1077   23.3909 N   0  0  0  0  0  0  0  0  0  0  0  0
    8.8275  -15.5826   25.4349 C   0  0  0  0  0  0  0  0  0  0  0  0
    8.5601  -16.7929   25.2337 O   0  0  0  0  0  0  0  0  0  0  0  0
   11.0696  -14.4335   30.5354 C   0  0  0  0  0  0  0  0  0  0  0  0
   10.2730  -15.0767   29.4111 C   0  0  0  0  0  0  0  0  0  0  0  0
   11.1637  -15.6514   28.3558 C   0  0  2  0  0  0  0  0  0  0  0  0
   12.2089  -14.6613   27.8906 C   0  0  0  0  0  0  0  0  0  0  0  0
   10.4286  -16.2967   27.2368 C   0  0  2  0  0  0  0  0  0  0  0  0
    9.7449  -15.2481   26.4591 N   0  0  0  0  0  0  0  0  0  0  0  0
    9.4832  -17.3509   27.5914 C   0  0  0  0  0  0  0  0  0  0  0  0
    9.9275  -18.6250   27.8810 O   0  0  0  0  0  0  0  0  0  0  0  0
    8.2452  -17.1435   27.6453 O   0  0  0  0  0  0  0  0  0  0  0  0
  2  1  1  0
  3  4  1  6
  3  2  1  0
  5  3  1  0
  6  5  2  0
  8  9  1  0
  8  7  1  0
  9 11  1  0
  9 10  1  1
 11 13  1  0
 11 12  1  6
 12  5  1  0
 13 20  1  0
 14 13  2  0
 15 16  1  0
 17 19  1  0
 17 16  1  0
 17 18  1  6
 19 21  1  0
 19 20  1  1
 21 23  2  0
 21 22  1  0
M  END
$$$$
