SII.pdb
     RDKit          3D

 23 22  0  0  1  0  0  0  0  0999 V2000
    6.3954  -16.9566   19.9809 O   0  0  0  0  0  0  0  0  0  0  0  0
    7.0011  -16.6659   21.1827 C   0  0  0  0  0  0  0  0  0  0  0  0
    7.1902  -15.1507   21.2799 C   0  0  2  0  0  0  0  0  0  0  0  0
    7.9699  -14.6637   20.1607 N   0  0  0  0  0  0  0  0  0  0  0  0
    7.9100  -14.8303   22.5277 C   0  0  0  0  0  0  0  0  0  0  0  0
    9.1573  -14.8952   22.5632 O   0  0  0  0  0  0  0  0  0  0  0  0
    5.9534  -11.2740   26.1970 C   0  0  0  0  0  0  0  0  0  0  0  0
    6.8880  -12.0135   25.2802 C   0  0  0  0  0  0  0  0  0  0  0  0
    7.1909  -13.3642   25.8927 C   0  0  2  0  0  0  0  0  0  0  0  0
    8.0830  -13.1458   27.0924 C   0  0  0  0  0  0  0  0  0  0  0  0
    7.9630  -14.2449   24.9249 C   0  0  2  0  0  0  0  0  0  0  0  0
    7.2156  -14.4430   23.7119 N   0  0  0  0  0  0  0  0  0  0  0  0
    8.2815  -15.5551   25.5312 C   0  0  0  0  0  0  0  0  0  0  0  0
    7.3609  -16.3541   25.8326 O   0  0  0  0  0  0  0  0  0  0  0  0
   12.3843  -19.8780   24.8942 C   0  0  0  0  0  0  0  0  0  0  0  0
   11.3867  -19.2593   25.8608 C   0  0  0  0  0  0  0  0  0  0  0  0
   10.9076  -17.9238   25.3876 C   0  0  2  0  0  0  0  0  0  0  0  0
   12.0501  -17.0207   24.9773 C   0  0  0  0  0  0  0  0  0  0  0  0
    9.9463  -17.2691   26.3128 C   0  0  2  0  0  0  0  0  0  0  0  0
    9.6218  -15.9329   25.7826 N   0  0  0  0  0  0  0  0  0  0  0  0
   10.3460  -17.1664   27.7130 C   0  0  0  0  0  0  0  0  0  0  0  0
   10.3755  -18.2861   28.5193 O   0  0  0  0  0  0  0  0  0  0  0  0
   10.6732  -16.0703   28.2325 O   0  0  0  0  0  0  0  0  0  0  0  0
  2  1  1  0
  3  4  1  6
  3  2  1  0
  5  3  1  0
  6  5  2  0
  8  9  1  0
  8  7  1  0
  9 11  1  0
  9 10  1  1
 11 13  1  0
 11 12  1  6
 12  5  1  0
 13 20  1  0
 14 13  2  0
 15 16  1  0
 17 19  1  0
 17 16  1  0
 17 18  1  1
 19 21  1  0
 19 20  1  6
 21 23  2  0
 21 22  1  0
M  END
$$$$
