SII.pdb
     RDKit          3D

 23 22  0  0  1  0  0  0  0  0999 V2000
    7.0773  -17.7224   20.3387 O   0  0  0  0  0  0  0  0  0  0  0  0
    7.7068  -17.2838   21.4820 C   0  0  0  0  0  0  0  0  0  0  0  0
    8.0095  -15.7917   21.3307 C   0  0  2  0  0  0  0  0  0  0  0  0
    9.0131  -15.5785   20.3084 N   0  0  0  0  0  0  0  0  0  0  0  0
    8.5253  -15.2686   22.6106 C   0  0  0  0  0  0  0  0  0  0  0  0
    9.7477  -15.3286   22.8623 O   0  0  0  0  0  0  0  0  0  0  0  0
    6.9453  -11.5582   27.2580 C   0  0  0  0  0  0  0  0  0  0  0  0
    7.9077  -12.5634   26.6885 C   0  0  0  0  0  0  0  0  0  0  0  0
    7.2822  -13.1807   25.4561 C   0  0  2  0  0  0  0  0  0  0  0  0
    6.0563  -13.9512   25.8879 C   0  0  0  0  0  0  0  0  0  0  0  0
    8.2233  -14.1803   24.8052 C   0  0  2  0  0  0  0  0  0  0  0  0
    7.6588  -14.6881   23.5835 N   0  0  0  0  0  0  0  0  0  0  0  0
    8.5244  -15.3041   25.7175 C   0  0  0  0  0  0  0  0  0  0  0  0
    7.6683  -16.1992   25.9240 O   0  0  0  0  0  0  0  0  0  0  0  0
   12.7027  -19.2708   25.8977 C   0  0  0  0  0  0  0  0  0  0  0  0
   11.9681  -18.4066   26.9105 C   0  0  0  0  0  0  0  0  0  0  0  0
   11.3573  -17.1992   26.2732 C   0  0  2  0  0  0  0  0  0  0  0  0
   12.3941  -16.1567   25.9162 C   0  0  0  0  0  0  0  0  0  0  0  0
   10.2023  -16.6435   27.0256 C   0  0  2  0  0  0  0  0  0  0  0  0
    9.7756  -15.3932   26.3724 N   0  0  0  0  0  0  0  0  0  0  0  0
   10.3944  -16.4189   28.4551 C   0  0  0  0  0  0  0  0  0  0  0  0
   10.3282  -15.1448   28.9814 O   0  0  0  0  0  0  0  0  0  0  0  0
   10.6253  -17.3628   29.2515 O   0  0  0  0  0  0  0  0  0  0  0  0
  2  1  1  0
  3  4  1  6
  3  2  1  0
  5  3  1  0
  6  5  2  0
  8  9  1  0
  8  7  1  0
  9 11  1  0
  9 10  1  1
 11 13  1  0
 11 12  1  6
 12  5  1  0
 13 20  1  0
 14 13  2  0
 15 16  1  0
 17 19  1  0
 17 16  1  0
 17 18  1  1
 19 21  1  0
 19 20  1  6
 21 23  2  0
 21 22  1  0
M  END
$$$$
