SII.pdb
     RDKit          3D

 23 22  0  0  1  0  0  0  0  0999 V2000
    6.1560  -19.2910   24.1352 O   0  0  0  0  0  0  0  0  0  0  0  0
    5.2642  -18.3560   23.6595 C   0  0  0  0  0  0  0  0  0  0  0  0
    5.5250  -18.1483   22.1663 C   0  0  2  0  0  0  0  0  0  0  0  0
    5.7191  -19.4211   21.5030 N   0  0  0  0  0  0  0  0  0  0  0  0
    6.7470  -17.3389   21.9949 C   0  0  0  0  0  0  0  0  0  0  0  0
    7.8407  -17.8995   21.7694 O   0  0  0  0  0  0  0  0  0  0  0  0
    6.7836  -12.6948   19.2501 C   0  0  0  0  0  0  0  0  0  0  0  0
    7.1657  -14.0383   19.8067 C   0  0  0  0  0  0  0  0  0  0  0  0
    7.6670  -13.8457   21.2219 C   0  0  2  0  0  0  0  0  0  0  0  0
    8.9855  -13.1106   21.1567 C   0  0  0  0  0  0  0  0  0  0  0  0
    7.9405  -15.1807   21.8937 C   0  0  2  0  0  0  0  0  0  0  0  0
    6.7178  -15.9153   22.0798 N   0  0  0  0  0  0  0  0  0  0  0  0
    8.6118  -14.9959   23.1979 C   0  0  0  0  0  0  0  0  0  0  0  0
    9.8495  -14.7904   23.2497 O   0  0  0  0  0  0  0  0  0  0  0  0
    5.8149  -12.0692   26.3560 C   0  0  0  0  0  0  0  0  0  0  0  0
    6.7939  -12.9138   25.5556 C   0  0  0  0  0  0  0  0  0  0  0  0
    7.6255  -13.7891   26.4385 C   0  0  2  0  0  0  0  0  0  0  0  0
    8.3487  -12.9987   27.5069 C   0  0  0  0  0  0  0  0  0  0  0  0
    8.5147  -14.7192   25.6947 C   0  0  2  0  0  0  0  0  0  0  0  0
    7.8778  -15.0465   24.4066 N   0  0  0  0  0  0  0  0  0  0  0  0
    8.9077  -15.9454   26.3824 C   0  0  0  0  0  0  0  0  0  0  0  0
    8.4079  -17.1675   25.9808 O   0  0  0  0  0  0  0  0  0  0  0  0
    9.7044  -15.9369   27.3540 O   0  0  0  0  0  0  0  0  0  0  0  0
  2  1  1  0
  3  4  1  6
  3  2  1  0
  5  3  1  0
  6  5  2  0
  8  9  1  0
  8  7  1  0
  9 11  1  0
  9 10  1  6
 11 13  1  0
 11 12  1  1
 12  5  1  0
 13 20  1  0
 14 13  2  0
 15 16  1  0
 17 19  1  0
 17 16  1  0
 17 18  1  1
 19 21  1  0
 19 20  1  6
 21 23  2  0
 21 22  1  0
M  END
$$$$
