SII.pdb
     RDKit          3D

 23 22  0  0  1  0  0  0  0  0999 V2000
   12.8533  -19.2970   20.2214 O   0  0  0  0  0  0  0  0  0  0  0  0
   12.4862  -18.4944   21.2782 C   0  0  0  0  0  0  0  0  0  0  0  0
   12.2517  -17.0758   20.7552 C   0  0  2  0  0  0  0  0  0  0  0  0
   13.5136  -16.4262   20.4665 N   0  0  0  0  0  0  0  0  0  0  0  0
   11.5442  -16.2896   21.7843 C   0  0  0  0  0  0  0  0  0  0  0  0
   12.1946  -15.6394   22.6300 O   0  0  0  0  0  0  0  0  0  0  0  0
    6.8284  -13.7122   20.6873 C   0  0  0  0  0  0  0  0  0  0  0  0
    8.2182  -14.0685   21.1370 C   0  0  0  0  0  0  0  0  0  0  0  0
    8.1136  -14.9678   22.3501 C   0  0  2  0  0  0  0  0  0  0  0  0
    7.4965  -14.1690   23.4744 C   0  0  0  0  0  0  0  0  0  0  0  0
    9.4873  -15.4089   22.8263 C   0  0  2  0  0  0  0  0  0  0  0  0
   10.1197  -16.2485   21.8443 N   0  0  0  0  0  0  0  0  0  0  0  0
    9.4012  -16.1298   24.1142 C   0  0  0  0  0  0  0  0  0  0  0  0
    9.2893  -17.3803   24.1339 O   0  0  0  0  0  0  0  0  0  0  0  0
   10.3563  -12.8866   28.5107 C   0  0  0  0  0  0  0  0  0  0  0  0
   10.4125  -13.9071   27.3847 C   0  0  0  0  0  0  0  0  0  0  0  0
    9.6499  -15.1492   27.7204 C   0  0  2  0  0  0  0  0  0  0  0  0
   10.0770  -15.7397   29.0463 C   0  0  0  0  0  0  0  0  0  0  0  0
    9.6136  -16.1467   26.6192 C   0  0  2  0  0  0  0  0  0  0  0  0
    9.4428  -15.4294   25.3431 N   0  0  0  0  0  0  0  0  0  0  0  0
    8.6222  -17.2125   26.7287 C   0  0  0  0  0  0  0  0  0  0  0  0
    8.9574  -18.4294   27.2868 O   0  0  0  0  0  0  0  0  0  0  0  0
    7.4417  -17.0668   26.3240 O   0  0  0  0  0  0  0  0  0  0  0  0
  2  1  1  0
  3  4  1  1
  3  2  1  0
  5  3  1  0
  6  5  2  0
  8  9  1  0
  8  7  1  0
  9 11  1  0
  9 10  1  1
 11 13  1  0
 11 12  1  6
 12  5  1  0
 13 20  1  0
 14 13  2  0
 15 16  1  0
 17 19  1  0
 17 16  1  0
 17 18  1  1
 19 21  1  0
 19 20  1  6
 21 23  2  0
 21 22  1  0
M  END
$$$$
