SII.pdb
     RDKit          3D

 23 22  0  0  1  0  0  0  0  0999 V2000
   11.1105  -19.9259   21.0759 O   0  0  0  0  0  0  0  0  0  0  0  0
   11.9330  -18.8658   21.3846 C   0  0  0  0  0  0  0  0  0  0  0  0
   11.5334  -17.6697   20.5182 C   0  0  2  0  0  0  0  0  0  0  0  0
   12.6685  -17.1945   19.7543 N   0  0  0  0  0  0  0  0  0  0  0  0
   11.0627  -16.5751   21.3889 C   0  0  0  0  0  0  0  0  0  0  0  0
   11.8726  -15.7250   21.8162 O   0  0  0  0  0  0  0  0  0  0  0  0
    6.7331  -13.5020   20.5196 C   0  0  0  0  0  0  0  0  0  0  0  0
    8.0996  -13.9688   20.9386 C   0  0  0  0  0  0  0  0  0  0  0  0
    7.9569  -14.8045   22.1926 C   0  0  2  0  0  0  0  0  0  0  0  0
    7.4845  -13.9006   23.3075 C   0  0  0  0  0  0  0  0  0  0  0  0
    9.2962  -15.3755   22.6268 C   0  0  2  0  0  0  0  0  0  0  0  0
    9.6916  -16.4559   21.7633 N   0  0  0  0  0  0  0  0  0  0  0  0
    9.2469  -15.8510   24.0258 C   0  0  0  0  0  0  0  0  0  0  0  0
    8.6269  -16.9039   24.3155 O   0  0  0  0  0  0  0  0  0  0  0  0
    9.4576  -12.1158   27.8206 C   0  0  0  0  0  0  0  0  0  0  0  0
    9.8743  -13.2019   26.8412 C   0  0  0  0  0  0  0  0  0  0  0  0
    9.5989  -14.5707   27.3775 C   0  0  2  0  0  0  0  0  0  0  0  0
   10.1801  -14.7689   28.7603 C   0  0  0  0  0  0  0  0  0  0  0  0
    9.9452  -15.6654   26.4338 C   0  0  2  0  0  0  0  0  0  0  0  0
    9.8932  -15.1337   25.0603 N   0  0  0  0  0  0  0  0  0  0  0  0
    9.1537  -16.8885   26.5253 C   0  0  0  0  0  0  0  0  0  0  0  0
    7.8835  -16.9453   25.9888 O   0  0  0  0  0  0  0  0  0  0  0  0
    9.5907  -17.9229   27.0889 O   0  0  0  0  0  0  0  0  0  0  0  0
  2  1  1  0
  3  4  1  1
  3  2  1  0
  5  3  1  0
  6  5  2  0
  8  9  1  0
  8  7  1  0
  9 11  1  0
  9 10  1  1
 11 13  1  0
 11 12  1  6
 12  5  1  0
 13 20  1  0
 14 13  2  0
 15 16  1  0
 17 19  1  0
 17 16  1  0
 17 18  1  1
 19 21  1  0
 19 20  1  6
 21 23  2  0
 21 22  1  0
M  END
$$$$
