GMF.pdb
     RDKit          3D

 24 24  0  0  1  0  0  0  0  0999 V2000
   26.0470  -24.1376  -17.0294 N   0  0  0  0  0  0  0  0  0  0  0  0
   26.5853  -22.9264  -16.4467 C   0  0  0  0  0  0  0  0  0  0  0  0
   25.8505  -22.5878  -15.1785 C   0  0  0  0  0  0  0  0  0  0  0  0
   24.7786  -23.1519  -14.8569 O   0  0  0  0  0  0  0  0  0  0  0  0
   24.4322  -20.7886   -8.6789 C   0  0  0  0  0  0  0  0  0  0  0  0
   24.7028  -20.7263  -10.4702 S   0  0  0  0  0  0  0  0  0  0  0  0
   26.5175  -20.8554  -10.7253 C   0  0  0  0  0  0  0  0  0  0  0  0
   26.7714  -20.6334  -12.1790 C   0  0  0  0  0  0  0  0  0  0  0  0
   25.7105  -21.1772  -13.0854 C   0  0  2  0  0  0  0  0  0  0  0  0
   26.3640  -21.6082  -14.3080 N   0  0  0  0  0  0  0  0  0  0  0  0
   24.6433  -20.1972  -13.4114 C   0  0  0  0  0  0  0  0  0  0  0  0
   24.8875  -19.0199  -13.7691 O   0  0  0  0  0  0  0  0  0  0  0  0
   23.2798  -20.5784  -13.3236 N   0  0  0  0  0  0  0  0  0  0  0  0
   22.2601  -19.6178  -13.7089 C   0  0  1  0  0  0  0  0  0  0  0  0
   22.5361  -19.2489  -15.1577 C   0  0  0  0  0  0  0  0  0  0  0  0
   22.1143  -20.2979  -16.1142 C   0  0  0  0  0  0  0  0  0  0  0  0
   23.0269  -21.2397  -16.5346 C   0  0  0  0  0  0  0  0  0  0  0  0
   22.7077  -22.2529  -17.4210 C   0  0  0  0  0  0  0  0  0  0  0  0
   21.4066  -22.3071  -17.8969 C   0  0  0  0  0  0  0  0  0  0  0  0
   20.4883  -21.3731  -17.4844 C   0  0  0  0  0  0  0  0  0  0  0  0
   20.8207  -20.3520  -16.5875 C   0  0  0  0  0  0  0  0  0  0  0  0
   20.9002  -20.1347  -13.4939 C   0  0  0  0  0  0  0  0  0  0  0  0
   19.8589  -19.4340  -13.7307 O   0  0  0  0  0  0  0  0  0  0  0  0
   20.6650  -21.4153  -13.0215 O   0  0  0  0  0  0  0  0  0  0  0  0
  2  3  1  0
  2  1  1  0
  3 10  1  0
  4  3  2  0
  6  7  1  0
  6  5  1  0
  7  8  1  0
  9  8  1  1
  9 11  1  0
 10  9  1  0
 11 13  1  0
 11 12  2  0
 13 14  1  0
 14 15  1  6
 14 22  1  0
 16 21  2  0
 16 15  1  0
 17 16  1  0
 18 19  1  0
 18 17  2  0
 19 20  2  0
 20 21  1  0
 22 24  1  0
 23 22  2  0
M  END
$$$$
