GMF.pdb
     RDKit          3D

 24 24  0  0  1  0  0  0  0  0999 V2000
   29.8407  -25.0173  -16.1846 N   0  0  0  0  0  0  0  0  0  0  0  0
   28.5596  -24.6324  -16.7386 C   0  0  0  0  0  0  0  0  0  0  0  0
   28.0993  -23.3346  -16.1328 C   0  0  0  0  0  0  0  0  0  0  0  0
   28.6677  -22.8223  -15.1403 O   0  0  0  0  0  0  0  0  0  0  0  0
   26.0339  -20.5960  -20.3952 C   0  0  0  0  0  0  0  0  0  0  0  0
   27.6991  -20.2844  -19.7502 S   0  0  0  0  0  0  0  0  0  0  0  0
   27.4912  -19.8006  -17.9902 C   0  0  0  0  0  0  0  0  0  0  0  0
   26.2936  -20.5273  -17.4757 C   0  0  0  0  0  0  0  0  0  0  0  0
   26.5437  -21.3453  -16.2464 C   0  0  2  0  0  0  0  0  0  0  0  0
   26.9959  -22.6544  -16.6814 N   0  0  0  0  0  0  0  0  0  0  0  0
   25.3497  -21.4960  -15.3761 C   0  0  0  0  0  0  0  0  0  0  0  0
   24.5579  -22.4644  -15.4697 O   0  0  0  0  0  0  0  0  0  0  0  0
   25.0653  -20.5194  -14.3873 N   0  0  0  0  0  0  0  0  0  0  0  0
   23.8983  -20.7017  -13.5413 C   0  0  1  0  0  0  0  0  0  0  0  0
   24.1274  -19.8582  -12.2974 C   0  0  0  0  0  0  0  0  0  0  0  0
   23.0096  -19.9364  -11.3291 C   0  0  0  0  0  0  0  0  0  0  0  0
   23.1126  -20.7726  -10.2397 C   0  0  0  0  0  0  0  0  0  0  0  0
   22.1146  -20.8959   -9.2894 C   0  0  0  0  0  0  0  0  0  0  0  0
   20.9668  -20.1364   -9.4574 C   0  0  0  0  0  0  0  0  0  0  0  0
   20.8534  -19.2991  -10.5400 C   0  0  0  0  0  0  0  0  0  0  0  0
   21.8684  -19.1812  -11.4959 C   0  0  0  0  0  0  0  0  0  0  0  0
   22.6477  -20.3708  -14.2408 C   0  0  0  0  0  0  0  0  0  0  0  0
   22.5738  -19.4235  -15.0943 O   0  0  0  0  0  0  0  0  0  0  0  0
   21.4718  -21.0678  -14.0171 O   0  0  0  0  0  0  0  0  0  0  0  0
  2  3  1  0
  2  1  1  0
  3 10  1  0
  4  3  2  0
  6  7  1  0
  6  5  1  0
  7  8  1  0
  9  8  1  6
  9 11  1  0
 10  9  1  0
 11 13  1  0
 11 12  2  0
 13 14  1  0
 14 15  1  1
 14 22  1  0
 16 21  2  0
 16 15  1  0
 17 16  1  0
 18 19  1  0
 18 17  2  0
 19 20  2  0
 20 21  1  0
 22 24  1  0
 23 22  2  0
M  END
$$$$
