GMF.pdb
     RDKit          3D

 24 24  0  0  1  0  0  0  0  0999 V2000
   30.5622  -23.2397  -17.3822 N   0  0  0  0  0  0  0  0  0  0  0  0
   30.5025  -24.5057  -16.6823 C   0  0  0  0  0  0  0  0  0  0  0  0
   29.6252  -25.4727  -17.4296 C   0  0  0  0  0  0  0  0  0  0  0  0
   28.9254  -25.1206  -18.4078 O   0  0  0  0  0  0  0  0  0  0  0  0
   32.3150  -30.9964  -18.1644 C   0  0  0  0  0  0  0  0  0  0  0  0
   31.2357  -30.5324  -19.5448 S   0  0  0  0  0  0  0  0  0  0  0  0
   30.5808  -28.8615  -19.1520 C   0  0  0  0  0  0  0  0  0  0  0  0
   29.6935  -29.0087  -17.9611 C   0  0  0  0  0  0  0  0  0  0  0  0
   28.7889  -27.8414  -17.7121 C   0  0  2  0  0  0  0  0  0  0  0  0
   29.5717  -26.8229  -17.0357 N   0  0  0  0  0  0  0  0  0  0  0  0
   27.5948  -28.1749  -16.8944 C   0  0  0  0  0  0  0  0  0  0  0  0
   27.6644  -28.4644  -15.6758 O   0  0  0  0  0  0  0  0  0  0  0  0
   26.3065  -28.1750  -17.4882 N   0  0  0  0  0  0  0  0  0  0  0  0
   25.1643  -28.5619  -16.6777 C   0  0  1  0  0  0  0  0  0  0  0  0
   24.1332  -27.4542  -16.8233 C   0  0  0  0  0  0  0  0  0  0  0  0
   24.5329  -26.1971  -16.1501 C   0  0  0  0  0  0  0  0  0  0  0  0
   24.1121  -25.9538  -14.8615 C   0  0  0  0  0  0  0  0  0  0  0  0
   24.4482  -24.8068  -14.1647 C   0  0  0  0  0  0  0  0  0  0  0  0
   25.2447  -23.8717  -14.8078 C   0  0  0  0  0  0  0  0  0  0  0  0
   25.6701  -24.1040  -16.0927 C   0  0  0  0  0  0  0  0  0  0  0  0
   25.3249  -25.2673  -16.7893 C   0  0  0  0  0  0  0  0  0  0  0  0
   24.6441  -29.8869  -17.0474 C   0  0  0  0  0  0  0  0  0  0  0  0
   24.9712  -30.4684  -18.1364 O   0  0  0  0  0  0  0  0  0  0  0  0
   23.7668  -30.5866  -16.2354 O   0  0  0  0  0  0  0  0  0  0  0  0
  2  3  1  0
  2  1  1  0
  3 10  1  0
  4  3  2  0
  6  7  1  0
  6  5  1  0
  7  8  1  0
  9  8  1  1
  9 11  1  0
 10  9  1  0
 11 13  1  0
 11 12  2  0
 13 14  1  0
 14 15  1  6
 14 22  1  0
 16 21  2  0
 16 15  1  0
 17 16  1  0
 18 19  1  0
 18 17  2  0
 19 20  2  0
 20 21  1  0
 22 24  1  0
 23 22  2  0
M  END
$$$$
