GMF.pdb
     RDKit          3D

 24 24  0  0  1  0  0  0  0  0999 V2000
   28.4712  -21.5406  -16.6343 N   0  0  0  0  0  0  0  0  0  0  0  0
   27.7733  -20.5828  -15.8026 C   0  0  0  0  0  0  0  0  0  0  0  0
   26.6818  -21.2663  -15.0251 C   0  0  0  0  0  0  0  0  0  0  0  0
   26.1863  -22.3584  -15.3889 O   0  0  0  0  0  0  0  0  0  0  0  0
   24.8733  -20.9458   -8.6296 C   0  0  0  0  0  0  0  0  0  0  0  0
   26.5584  -20.7018   -9.2513 S   0  0  0  0  0  0  0  0  0  0  0  0
   26.5624  -21.3014  -10.9878 C   0  0  0  0  0  0  0  0  0  0  0  0
   25.3229  -20.7783  -11.6336 C   0  0  0  0  0  0  0  0  0  0  0  0
   25.1136  -21.2407  -13.0426 C   0  0  2  0  0  0  0  0  0  0  0  0
   26.1841  -20.6793  -13.8466 N   0  0  0  0  0  0  0  0  0  0  0  0
   23.8019  -20.8420  -13.6135 C   0  0  0  0  0  0  0  0  0  0  0  0
   23.4888  -19.6464  -13.8281 O   0  0  0  0  0  0  0  0  0  0  0  0
   22.8404  -21.8326  -13.9403 N   0  0  0  0  0  0  0  0  0  0  0  0
   21.5404  -21.4084  -14.4315 C   0  0  1  0  0  0  0  0  0  0  0  0
   21.3733  -22.0285  -15.8095 C   0  0  0  0  0  0  0  0  0  0  0  0
   22.0961  -21.2896  -16.8700 C   0  0  0  0  0  0  0  0  0  0  0  0
   21.4189  -20.3680  -17.6373 C   0  0  0  0  0  0  0  0  0  0  0  0
   22.0254  -19.6349  -18.6417 C   0  0  0  0  0  0  0  0  0  0  0  0
   23.3755  -19.8507  -18.8722 C   0  0  0  0  0  0  0  0  0  0  0  0
   24.0607  -20.7673  -18.1132 C   0  0  0  0  0  0  0  0  0  0  0  0
   23.4385  -21.5040  -17.0994 C   0  0  0  0  0  0  0  0  0  0  0  0
   20.4543  -21.7605  -13.5046 C   0  0  0  0  0  0  0  0  0  0  0  0
   20.6382  -22.5232  -12.4968 O   0  0  0  0  0  0  0  0  0  0  0  0
   19.1636  -21.2851  -13.6677 O   0  0  0  0  0  0  0  0  0  0  0  0
  2  3  1  0
  2  1  1  0
  3 10  1  0
  4  3  2  0
  6  7  1  0
  6  5  1  0
  7  8  1  0
  9  8  1  1
  9 11  1  0
 10  9  1  0
 11 13  1  0
 11 12  2  0
 13 14  1  0
 14 15  1  6
 14 22  1  0
 16 21  2  0
 16 15  1  0
 17 16  1  0
 18 19  1  0
 18 17  2  0
 19 20  2  0
 20 21  1  0
 22 24  1  0
 23 22  2  0
M  END
$$$$
