GMF.pdb
     RDKit          3D

 24 24  0  0  1  0  0  0  0  0999 V2000
   19.6492  -13.6597  -17.5344 N   0  0  0  0  0  0  0  0  0  0  0  0
   20.5602  -12.6837  -18.0945 C   0  0  0  0  0  0  0  0  0  0  0  0
   21.2949  -11.9664  -16.9951 C   0  0  0  0  0  0  0  0  0  0  0  0
   20.7710  -11.7395  -15.8794 O   0  0  0  0  0  0  0  0  0  0  0  0
   27.4054  -12.8937  -15.2836 C   0  0  0  0  0  0  0  0  0  0  0  0
   27.4282  -11.1455  -15.7621 S   0  0  0  0  0  0  0  0  0  0  0  0
   25.7449  -10.4928  -15.4224 C   0  0  0  0  0  0  0  0  0  0  0  0
   24.8126  -11.1759  -16.3663 C   0  0  0  0  0  0  0  0  0  0  0  0
   23.3810  -10.7550  -16.2394 C   0  0  2  0  0  0  0  0  0  0  0  0
   22.6155  -11.5258  -17.2025 N   0  0  0  0  0  0  0  0  0  0  0  0
   23.1613   -9.3054  -16.4762 C   0  0  0  0  0  0  0  0  0  0  0  0
   23.0933   -8.8067  -17.6252 O   0  0  0  0  0  0  0  0  0  0  0  0
   23.0189   -8.4210  -15.3762 N   0  0  0  0  0  0  0  0  0  0  0  0
   22.7807   -7.0121  -15.6395 C   0  0  1  0  0  0  0  0  0  0  0  0
   22.0672   -6.4564  -14.4174 C   0  0  0  0  0  0  0  0  0  0  0  0
   21.6038   -5.0618  -14.6000 C   0  0  0  0  0  0  0  0  0  0  0  0
   22.4980   -4.0247  -14.4533 C   0  0  0  0  0  0  0  0  0  0  0  0
   22.1427   -2.6972  -14.6134 C   0  0  0  0  0  0  0  0  0  0  0  0
   20.8237   -2.4171  -14.9359 C   0  0  0  0  0  0  0  0  0  0  0  0
   19.9235   -3.4434  -15.0847 C   0  0  0  0  0  0  0  0  0  0  0  0
   20.2923   -4.7830  -14.9207 C   0  0  0  0  0  0  0  0  0  0  0  0
   24.0203   -6.2898  -15.9622 C   0  0  0  0  0  0  0  0  0  0  0  0
   25.0917   -6.4364  -15.2826 O   0  0  0  0  0  0  0  0  0  0  0  0
   24.1022   -5.4054  -17.0251 O   0  0  0  0  0  0  0  0  0  0  0  0
  2  3  1  0
  2  1  1  0
  3 10  1  0
  4  3  2  0
  6  7  1  0
  6  5  1  0
  7  8  1  0
  9  8  1  6
  9 11  1  0
 10  9  1  0
 11 13  1  0
 11 12  2  0
 13 14  1  0
 14 15  1  1
 14 22  1  0
 16 21  2  0
 16 15  1  0
 17 16  1  0
 18 19  1  0
 18 17  2  0
 19 20  2  0
 20 21  1  0
 22 24  1  0
 23 22  2  0
M  END
$$$$
