GMF.pdb
     RDKit          3D

 24 24  0  0  1  0  0  0  0  0999 V2000
   31.4239  -22.1886  -10.5502 N   0  0  0  0  0  0  0  0  0  0  0  0
   30.5981  -21.0051  -10.4323 C   0  0  0  0  0  0  0  0  0  0  0  0
   29.3354  -21.3245   -9.6796 C   0  0  0  0  0  0  0  0  0  0  0  0
   28.8447  -22.4774   -9.6575 O   0  0  0  0  0  0  0  0  0  0  0  0
   27.0021  -20.2626   -3.6352 C   0  0  0  0  0  0  0  0  0  0  0  0
   28.3017  -19.3598   -4.5194 S   0  0  0  0  0  0  0  0  0  0  0  0
   28.5275  -20.2187   -6.1276 C   0  0  0  0  0  0  0  0  0  0  0  0
   27.4155  -19.7766   -7.0191 C   0  0  0  0  0  0  0  0  0  0  0  0
   27.3651  -20.4750   -8.3430 C   0  0  2  0  0  0  0  0  0  0  0  0
   28.6647  -20.3114   -8.9691 N   0  0  0  0  0  0  0  0  0  0  0  0
   26.3081  -19.9600   -9.2503 C   0  0  0  0  0  0  0  0  0  0  0  0
   26.3185  -18.7944   -9.7138 O   0  0  0  0  0  0  0  0  0  0  0  0
   25.2271  -20.7978   -9.6270 N   0  0  0  0  0  0  0  0  0  0  0  0
   24.4049  -20.4094  -10.7602 C   0  0  1  0  0  0  0  0  0  0  0  0
   25.0351  -21.0413  -11.9910 C   0  0  0  0  0  0  0  0  0  0  0  0
   24.2506  -20.8141  -13.2263 C   0  0  0  0  0  0  0  0  0  0  0  0
   24.4301  -19.6499  -13.9398 C   0  0  0  0  0  0  0  0  0  0  0  0
   23.7394  -19.3681  -15.1050 C   0  0  0  0  0  0  0  0  0  0  0  0
   22.8302  -20.3109  -15.5598 C   0  0  0  0  0  0  0  0  0  0  0  0
   22.6432  -21.4754  -14.8562 C   0  0  0  0  0  0  0  0  0  0  0  0
   23.3466  -21.7514  -13.6786 C   0  0  0  0  0  0  0  0  0  0  0  0
   22.9945  -20.7836  -10.5774 C   0  0  0  0  0  0  0  0  0  0  0  0
   22.6444  -21.8311   -9.9359 O   0  0  0  0  0  0  0  0  0  0  0  0
   21.9577  -20.0213  -11.0899 O   0  0  0  0  0  0  0  0  0  0  0  0
  2  3  1  0
  2  1  1  0
  3 10  1  0
  4  3  2  0
  6  7  1  0
  6  5  1  0
  7  8  1  0
  9  8  1  1
  9 11  1  0
 10  9  1  0
 11 13  1  0
 11 12  2  0
 13 14  1  0
 14 15  1  6
 14 22  1  0
 16 21  2  0
 16 15  1  0
 17 16  1  0
 18 19  1  0
 18 17  2  0
 19 20  2  0
 20 21  1  0
 22 24  1  0
 23 22  2  0
M  END
$$$$
