GMF.pdb
     RDKit          3D

 24 24  0  0  1  0  0  0  0  0999 V2000
   13.9288  -12.0971  -13.0148 N   0  0  0  0  0  0  0  0  0  0  0  0
   14.3817  -11.1723  -14.0326 C   0  0  0  0  0  0  0  0  0  0  0  0
   15.8748  -11.0054  -13.9570 C   0  0  0  0  0  0  0  0  0  0  0  0
   16.4959  -11.0365  -12.8690 O   0  0  0  0  0  0  0  0  0  0  0  0
   17.3032  -14.7329  -15.5848 C   0  0  0  0  0  0  0  0  0  0  0  0
   18.5293  -14.0818  -16.7503 S   0  0  0  0  0  0  0  0  0  0  0  0
   19.3367  -12.6598  -15.9130 C   0  0  0  0  0  0  0  0  0  0  0  0
   18.5867  -11.4334  -16.3135 C   0  0  0  0  0  0  0  0  0  0  0  0
   18.0608  -10.6247  -15.1680 C   0  0  2  0  0  0  0  0  0  0  0  0
   16.6209  -10.8065  -15.1338 N   0  0  0  0  0  0  0  0  0  0  0  0
   18.3765   -9.1766  -15.2645 C   0  0  0  0  0  0  0  0  0  0  0  0
   17.6196   -8.3519  -15.8306 O   0  0  0  0  0  0  0  0  0  0  0  0
   19.5782   -8.6741  -14.7025 N   0  0  0  0  0  0  0  0  0  0  0  0
   19.9229   -7.2801  -14.9241 C   0  0  1  0  0  0  0  0  0  0  0  0
   20.7863   -6.8539  -13.7475 C   0  0  0  0  0  0  0  0  0  0  0  0
   21.2956   -5.4690  -13.8730 C   0  0  0  0  0  0  0  0  0  0  0  0
   22.5135   -5.2457  -14.4761 C   0  0  0  0  0  0  0  0  0  0  0  0
   23.0532   -3.9818  -14.6355 C   0  0  0  0  0  0  0  0  0  0  0  0
   22.3217   -2.9038  -14.1610 C   0  0  0  0  0  0  0  0  0  0  0  0
   21.1061   -3.1147  -13.5579 C   0  0  0  0  0  0  0  0  0  0  0  0
   20.5685   -4.3970  -13.4013 C   0  0  0  0  0  0  0  0  0  0  0  0
   20.5753   -7.0691  -16.2251 C   0  0  0  0  0  0  0  0  0  0  0  0
   20.3522   -6.0345  -16.9400 O   0  0  0  0  0  0  0  0  0  0  0  0
   21.4737   -7.9804  -16.7551 O   0  0  0  0  0  0  0  0  0  0  0  0
  2  3  1  0
  2  1  1  0
  3 10  1  0
  4  3  2  0
  6  7  1  0
  6  5  1  0
  7  8  1  0
  9  8  1  6
  9 11  1  0
 10  9  1  0
 11 13  1  0
 11 12  2  0
 13 14  1  0
 14 15  1  1
 14 22  1  0
 16 21  2  0
 16 15  1  0
 17 16  1  0
 18 19  1  0
 18 17  2  0
 19 20  2  0
 20 21  1  0
 22 24  1  0
 23 22  2  0
M  END
$$$$
