GMF.pdb
     RDKit          3D

 24 24  0  0  1  0  0  0  0  0999 V2000
   25.3346  -20.3502   -8.6338 N   0  0  0  0  0  0  0  0  0  0  0  0
   25.3874  -21.2912   -9.7328 C   0  0  0  0  0  0  0  0  0  0  0  0
   25.7945  -20.5896  -10.9998 C   0  0  0  0  0  0  0  0  0  0  0  0
   25.9665  -19.3493  -11.0504 O   0  0  0  0  0  0  0  0  0  0  0  0
   27.6159  -24.1732  -15.9200 C   0  0  0  0  0  0  0  0  0  0  0  0
   28.5636  -22.6752  -16.2986 S   0  0  0  0  0  0  0  0  0  0  0  0
   27.6470  -21.2759  -15.5391 C   0  0  0  0  0  0  0  0  0  0  0  0
   27.1144  -21.7604  -14.2320 C   0  0  0  0  0  0  0  0  0  0  0  0
   26.3265  -20.7427  -13.4662 C   0  0  2  0  0  0  0  0  0  0  0  0
   25.9947  -21.3293  -12.1804 N   0  0  0  0  0  0  0  0  0  0  0  0
   25.0816  -20.3116  -14.1518 C   0  0  0  0  0  0  0  0  0  0  0  0
   24.0536  -21.0282  -14.2088 O   0  0  0  0  0  0  0  0  0  0  0  0
   25.0214  -19.0406  -14.7789 N   0  0  0  0  0  0  0  0  0  0  0  0
   23.8494  -18.7076  -15.5706 C   0  0  1  0  0  0  0  0  0  0  0  0
   24.3263  -17.7969  -16.6906 C   0  0  0  0  0  0  0  0  0  0  0  0
   25.3222  -16.7971  -16.2415 C   0  0  0  0  0  0  0  0  0  0  0  0
   24.9723  -15.8748  -15.2805 C   0  0  0  0  0  0  0  0  0  0  0  0
   25.8477  -14.9143  -14.8060 C   0  0  0  0  0  0  0  0  0  0  0  0
   27.1302  -14.8942  -15.3326 C   0  0  0  0  0  0  0  0  0  0  0  0
   27.4900  -15.8092  -16.2914 C   0  0  0  0  0  0  0  0  0  0  0  0
   26.5974  -16.7769  -16.7650 C   0  0  0  0  0  0  0  0  0  0  0  0
   23.1501  -19.9056  -16.0590 C   0  0  0  0  0  0  0  0  0  0  0  0
   23.7330  -20.7942  -16.7674 O   0  0  0  0  0  0  0  0  0  0  0  0
   21.8147  -20.1443  -15.7794 O   0  0  0  0  0  0  0  0  0  0  0  0
  2  3  1  0
  2  1  1  0
  3 10  1  0
  4  3  2  0
  6  7  1  0
  6  5  1  0
  7  8  1  0
  9  8  1  6
  9 11  1  0
 10  9  1  0
 11 13  1  0
 11 12  2  0
 13 14  1  0
 14 15  1  6
 14 22  1  0
 16 21  2  0
 16 15  1  0
 17 16  1  0
 18 19  1  0
 18 17  2  0
 19 20  2  0
 20 21  1  0
 22 24  1  0
 23 22  2  0
M  END
$$$$
