GMF.pdb
     RDKit          3D

 24 24  0  0  1  0  0  0  0  0999 V2000
   25.6807  -13.5507  -16.1075 N   0  0  0  0  0  0  0  0  0  0  0  0
   25.2861  -14.4551  -15.0479 C   0  0  0  0  0  0  0  0  0  0  0  0
   24.5003  -15.6069  -15.6125 C   0  0  0  0  0  0  0  0  0  0  0  0
   23.3701  -15.4533  -16.1318 O   0  0  0  0  0  0  0  0  0  0  0  0
   24.3470  -21.0345  -18.8248 C   0  0  0  0  0  0  0  0  0  0  0  0
   24.1249  -19.3044  -19.3178 S   0  0  0  0  0  0  0  0  0  0  0  0
   25.3191  -18.3245  -18.3236 C   0  0  0  0  0  0  0  0  0  0  0  0
   25.2568  -18.8462  -16.9268 C   0  0  0  0  0  0  0  0  0  0  0  0
   24.3278  -18.0951  -16.0237 C   0  0  2  0  0  0  0  0  0  0  0  0
   25.0309  -16.9098  -15.5675 N   0  0  0  0  0  0  0  0  0  0  0  0
   23.8683  -18.8823  -14.8511 C   0  0  0  0  0  0  0  0  0  0  0  0
   24.6146  -19.1549  -13.8804 O   0  0  0  0  0  0  0  0  0  0  0  0
   22.5340  -19.3609  -14.7974 N   0  0  0  0  0  0  0  0  0  0  0  0
   22.0928  -20.0664  -13.6063 C   0  0  1  0  0  0  0  0  0  0  0  0
   21.8869  -19.0135  -12.5291 C   0  0  0  0  0  0  0  0  0  0  0  0
   21.2904  -19.5608  -11.2890 C   0  0  0  0  0  0  0  0  0  0  0  0
   22.1116  -20.0769  -10.3113 C   0  0  0  0  0  0  0  0  0  0  0  0
   21.6305  -20.6003   -9.1244 C   0  0  0  0  0  0  0  0  0  0  0  0
   20.2580  -20.5969   -8.9275 C   0  0  0  0  0  0  0  0  0  0  0  0
   19.4297  -20.0847   -9.8958 C   0  0  0  0  0  0  0  0  0  0  0  0
   19.9258  -19.5575  -11.0931 C   0  0  0  0  0  0  0  0  0  0  0  0
   20.8933  -20.8801  -13.8549 C   0  0  0  0  0  0  0  0  0  0  0  0
   19.9924  -20.5296  -14.6896 O   0  0  0  0  0  0  0  0  0  0  0  0
   20.6672  -22.0787  -13.1984 O   0  0  0  0  0  0  0  0  0  0  0  0
  2  3  1  0
  2  1  1  0
  3 10  1  0
  4  3  2  0
  6  7  1  0
  6  5  1  0
  7  8  1  0
  9  8  1  6
  9 11  1  0
 10  9  1  0
 11 13  1  0
 11 12  2  0
 13 14  1  0
 14 15  1  1
 14 22  1  0
 16 21  2  0
 16 15  1  0
 17 16  1  0
 18 19  1  0
 18 17  2  0
 19 20  2  0
 20 21  1  0
 22 24  1  0
 23 22  2  0
M  END
$$$$
