YIG.pdb
     RDKit          3D

 25 25  0  0  1  0  0  0  0  0999 V2000
    5.5712  -23.6232   28.8456 O   0  0  0  0  0  0  0  0  0  0  0  0
    6.0033  -22.4984   28.1414 C   0  0  0  0  0  0  0  0  0  0  0  0
    5.9224  -21.2275   28.6716 C   0  0  0  0  0  0  0  0  0  0  0  0
    6.3637  -20.1247   27.9399 C   0  0  0  0  0  0  0  0  0  0  0  0
    6.8919  -20.2596   26.6729 C   0  0  0  0  0  0  0  0  0  0  0  0
    7.3430  -19.0527   25.9467 C   0  0  0  0  0  0  0  0  0  0  0  0
    6.2569  -18.3618   25.1988 C   0  0  2  0  0  0  0  0  0  0  0  0
    5.8003  -19.1055   24.0435 N   0  0  0  0  0  0  0  0  0  0  0  0
    6.8217  -17.0630   24.6987 C   0  0  0  0  0  0  0  0  0  0  0  0
    7.2245  -16.9424   23.4907 O   0  0  0  0  0  0  0  0  0  0  0  0
    6.9712  -21.5303   26.1467 C   0  0  0  0  0  0  0  0  0  0  0  0
    6.5334  -22.6203   26.8736 C   0  0  0  0  0  0  0  0  0  0  0  0
    5.2652  -12.4141   27.0443 C   0  0  0  0  0  0  0  0  0  0  0  0
    5.7709  -13.3174   25.9669 C   0  0  0  0  0  0  0  0  0  0  0  0
    7.2598  -13.6114   26.1276 C   0  0  2  0  0  0  0  0  0  0  0  0
    8.0768  -12.3816   25.8703 C   0  0  0  0  0  0  0  0  0  0  0  0
    7.6715  -14.7115   25.1414 C   0  0  2  0  0  0  0  0  0  0  0  0
    6.9301  -15.9331   25.5333 N   0  0  0  0  0  0  0  0  0  0  0  0
    9.1191  -14.9522   25.3161 C   0  0  0  0  0  0  0  0  0  0  0  0
    9.5598  -15.0720   26.5155 O   0  0  0  0  0  0  0  0  0  0  0  0
   10.0871  -15.0722   24.3047 N   0  0  0  0  0  0  0  0  0  0  0  0
   11.5004  -15.3502   24.6193 C   0  0  0  0  0  0  0  0  0  0  0  0
   12.2919  -15.3795   23.3893 C   0  0  0  0  0  0  0  0  0  0  0  0
   11.7113  -15.4231   22.2800 O   0  0  0  0  0  0  0  0  0  0  0  0
   13.6722  -15.3595   23.4392 O   0  0  0  0  0  0  0  0  0  0  0  0
  2  1  1  0
  3  2  2  0
  4  3  1  0
  5  4  2  0
  5 11  1  0
  6  5  1  0
  7  6  1  0
  7  9  1  0
  7  8  1  6
  9 10  2  0
 11 12  2  0
 12  2  1  0
 14 13  1  0
 14 15  1  0
 15 16  1  6
 17 15  1  0
 17 18  1  1
 18  9  1  0
 19 21  1  0
 19 17  1  0
 20 19  2  0
 22 21  1  0
 23 22  1  0
 23 25  1  0
 24 23  2  0
M  END
$$$$
