YIG.pdb
     RDKit          3D

 25 25  0  0  1  0  0  0  0  0999 V2000
   11.7438  -14.9077   31.6967 O   0  0  0  0  0  0  0  0  0  0  0  0
   11.2333  -15.4848   30.5330 C   0  0  0  0  0  0  0  0  0  0  0  0
   10.7780  -14.7225   29.4773 C   0  0  0  0  0  0  0  0  0  0  0  0
   10.2738  -15.3323   28.3283 C   0  0  0  0  0  0  0  0  0  0  0  0
   10.2112  -16.7046   28.2037 C   0  0  0  0  0  0  0  0  0  0  0  0
    9.6663  -17.2924   26.9607 C   0  0  0  0  0  0  0  0  0  0  0  0
    8.1896  -17.4803   26.9833 C   0  0  2  0  0  0  0  0  0  0  0  0
    7.7905  -18.8647   26.8397 N   0  0  0  0  0  0  0  0  0  0  0  0
    7.6307  -16.7305   25.8081 C   0  0  0  0  0  0  0  0  0  0  0  0
    6.9490  -17.3316   24.9079 O   0  0  0  0  0  0  0  0  0  0  0  0
   10.6668  -17.4625   29.2600 C   0  0  0  0  0  0  0  0  0  0  0  0
   11.1655  -16.8559   30.3965 C   0  0  0  0  0  0  0  0  0  0  0  0
    6.4137  -11.6321   26.7852 C   0  0  0  0  0  0  0  0  0  0  0  0
    6.1641  -12.8629   25.9756 C   0  0  0  0  0  0  0  0  0  0  0  0
    7.2692  -13.0992   24.9499 C   0  0  2  0  0  0  0  0  0  0  0  0
    7.0724  -12.2305   23.7446 C   0  0  0  0  0  0  0  0  0  0  0  0
    7.2614  -14.5721   24.5224 C   0  0  2  0  0  0  0  0  0  0  0  0
    7.8326  -15.3452   25.6502 N   0  0  0  0  0  0  0  0  0  0  0  0
    8.1521  -14.7041   23.3506 C   0  0  0  0  0  0  0  0  0  0  0  0
    7.6639  -14.4164   22.1992 O   0  0  0  0  0  0  0  0  0  0  0  0
    9.4972  -15.1109   23.3492 N   0  0  0  0  0  0  0  0  0  0  0  0
   10.3428  -14.9737   22.1492 C   0  0  0  0  0  0  0  0  0  0  0  0
   10.3808  -16.2385   21.4150 C   0  0  0  0  0  0  0  0  0  0  0  0
    9.6730  -17.1986   21.7980 O   0  0  0  0  0  0  0  0  0  0  0  0
   11.1889  -16.3842   20.3042 O   0  0  0  0  0  0  0  0  0  0  0  0
  2  1  1  0
  3  2  2  0
  4  3  1  0
  5  4  2  0
  5 11  1  0
  6  5  1  0
  7  6  1  0
  7  9  1  0
  7  8  1  6
  9 10  2  0
 11 12  2  0
 12  2  1  0
 14 13  1  0
 14 15  1  0
 15 16  1  6
 17 15  1  0
 17 18  1  1
 18  9  1  0
 19 21  1  0
 19 17  1  0
 20 19  2  0
 22 21  1  0
 23 22  1  0
 23 25  1  0
 24 23  2  0
M  END
$$$$
