YIG.pdb
     RDKit          3D

 25 25  0  0  1  0  0  0  0  0999 V2000
   12.7348  -16.9368   32.5707 O   0  0  0  0  0  0  0  0  0  0  0  0
   12.1600  -16.7925   31.3072 C   0  0  0  0  0  0  0  0  0  0  0  0
   12.3685  -17.7111   30.2993 C   0  0  0  0  0  0  0  0  0  0  0  0
   11.7782  -17.5359   29.0474 C   0  0  0  0  0  0  0  0  0  0  0  0
   10.9727  -16.4509   28.7711 C   0  0  0  0  0  0  0  0  0  0  0  0
   10.3748  -16.3201   27.4246 C   0  0  0  0  0  0  0  0  0  0  0  0
    8.9677  -16.7996   27.3441 C   0  0  2  0  0  0  0  0  0  0  0  0
    8.8526  -18.2405   27.4273 N   0  0  0  0  0  0  0  0  0  0  0  0
    8.4360  -16.3862   26.0016 C   0  0  0  0  0  0  0  0  0  0  0  0
    8.1126  -17.2594   25.1247 O   0  0  0  0  0  0  0  0  0  0  0  0
   10.7668  -15.5357   29.7800 C   0  0  0  0  0  0  0  0  0  0  0  0
   11.3526  -15.7118   31.0186 C   0  0  0  0  0  0  0  0  0  0  0  0
    6.3491  -11.6523   26.4853 C   0  0  0  0  0  0  0  0  0  0  0  0
    6.1708  -12.9318   25.7345 C   0  0  0  0  0  0  0  0  0  0  0  0
    7.2248  -13.0993   24.6436 C   0  0  2  0  0  0  0  0  0  0  0  0
    6.7467  -12.5191   23.3470 C   0  0  0  0  0  0  0  0  0  0  0  0
    7.5283  -14.5905   24.4527 C   0  0  2  0  0  0  0  0  0  0  0  0
    8.2731  -15.0302   25.6559 N   0  0  0  0  0  0  0  0  0  0  0  0
    8.4055  -14.7223   23.2707 C   0  0  0  0  0  0  0  0  0  0  0  0
    7.8804  -14.5211   22.1171 O   0  0  0  0  0  0  0  0  0  0  0  0
    9.7735  -15.0435   23.2614 N   0  0  0  0  0  0  0  0  0  0  0  0
   10.5665  -15.0025   22.0192 C   0  0  0  0  0  0  0  0  0  0  0  0
   10.9081  -16.3609   21.5969 C   0  0  0  0  0  0  0  0  0  0  0  0
   10.3255  -17.3377   22.1221 O   0  0  0  0  0  0  0  0  0  0  0  0
   11.8662  -16.5766   20.6255 O   0  0  0  0  0  0  0  0  0  0  0  0
  2  1  1  0
  3  2  2  0
  4  3  1  0
  5  4  2  0
  5 11  1  0
  6  5  1  0
  7  6  1  0
  7  9  1  0
  7  8  1  6
  9 10  2  0
 11 12  2  0
 12  2  1  0
 14 13  1  0
 14 15  1  0
 15 16  1  6
 17 15  1  0
 17 18  1  1
 18  9  1  0
 19 21  1  0
 19 17  1  0
 20 19  2  0
 22 21  1  0
 23 22  1  0
 23 25  1  0
 24 23  2  0
M  END
$$$$
