YIG.pdb
     RDKit          3D

 25 25  0  0  1  0  0  0  0  0999 V2000
    7.5148  -13.8585   15.6056 O   0  0  0  0  0  0  0  0  0  0  0  0
    7.5479  -14.1349   16.9732 C   0  0  0  0  0  0  0  0  0  0  0  0
    7.6749  -13.1380   17.9183 C   0  0  0  0  0  0  0  0  0  0  0  0
    7.7045  -13.4497   19.2778 C   0  0  0  0  0  0  0  0  0  0  0  0
    7.6092  -14.7509   19.7255 C   0  0  0  0  0  0  0  0  0  0  0  0
    7.6465  -15.0184   21.1796 C   0  0  0  0  0  0  0  0  0  0  0  0
    8.8960  -14.5544   21.8430 C   0  0  2  0  0  0  0  0  0  0  0  0
   10.0833  -15.2172   21.3457 N   0  0  0  0  0  0  0  0  0  0  0  0
    8.7738  -14.8923   23.3013 C   0  0  0  0  0  0  0  0  0  0  0  0
    9.5834  -15.7122   23.8567 O   0  0  0  0  0  0  0  0  0  0  0  0
    7.4826  -15.7437   18.7788 C   0  0  0  0  0  0  0  0  0  0  0  0
    7.4535  -15.4319   17.4334 C   0  0  0  0  0  0  0  0  0  0  0  0
    6.2378  -11.0067   26.1911 C   0  0  0  0  0  0  0  0  0  0  0  0
    7.2202  -12.0514   25.7712 C   0  0  0  0  0  0  0  0  0  0  0  0
    6.7347  -13.4562   26.1173 C   0  0  2  0  0  0  0  0  0  0  0  0
    6.5939  -13.6213   27.6003 C   0  0  0  0  0  0  0  0  0  0  0  0
    7.7364  -14.4876   25.5833 C   0  0  2  0  0  0  0  0  0  0  0  0
    7.7704  -14.3245   24.1109 N   0  0  0  0  0  0  0  0  0  0  0  0
    7.2117  -15.8312   25.9050 C   0  0  0  0  0  0  0  0  0  0  0  0
    6.0471  -16.1353   25.4598 O   0  0  0  0  0  0  0  0  0  0  0  0
    7.8517  -16.8353   26.6511 N   0  0  0  0  0  0  0  0  0  0  0  0
    7.2512  -18.1712   26.8202 C   0  0  0  0  0  0  0  0  0  0  0  0
    8.1410  -19.0254   27.6068 C   0  0  0  0  0  0  0  0  0  0  0  0
    9.2668  -18.5968   27.9506 O   0  0  0  0  0  0  0  0  0  0  0  0
    7.7521  -20.2991   27.9738 O   0  0  0  0  0  0  0  0  0  0  0  0
  2  1  1  0
  3  2  2  0
  4  3  1  0
  5  4  2  0
  5 11  1  0
  6  5  1  0
  7  6  1  0
  7  9  1  0
  7  8  1  6
  9 10  2  0
 11 12  2  0
 12  2  1  0
 14 13  1  0
 14 15  1  0
 15 16  1  1
 17 15  1  0
 17 18  1  6
 18  9  1  0
 19 21  1  0
 19 17  1  0
 20 19  2  0
 22 21  1  0
 23 22  1  0
 23 25  1  0
 24 23  2  0
M  END
$$$$
