YIG.pdb
     RDKit          3D

 25 25  0  0  1  0  0  0  0  0999 V2000
   11.0197  -14.0362   31.1441 O   0  0  0  0  0  0  0  0  0  0  0  0
   10.6199  -14.9144   30.1357 C   0  0  0  0  0  0  0  0  0  0  0  0
   10.4574  -16.2651   30.3637 C   0  0  0  0  0  0  0  0  0  0  0  0
   10.0564  -17.1149   29.3326 C   0  0  0  0  0  0  0  0  0  0  0  0
    9.8096  -16.6441   28.0597 C   0  0  0  0  0  0  0  0  0  0  0  0
    9.3869  -17.5943   27.0081 C   0  0  0  0  0  0  0  0  0  0  0  0
    7.9099  -17.7335   26.8841 C   0  0  2  0  0  0  0  0  0  0  0  0
    7.4857  -19.0966   26.6430 N   0  0  0  0  0  0  0  0  0  0  0  0
    7.4873  -16.9178   25.6958 C   0  0  0  0  0  0  0  0  0  0  0  0
    6.9324  -17.4685   24.6834 O   0  0  0  0  0  0  0  0  0  0  0  0
    9.9730  -15.2947   27.8357 C   0  0  0  0  0  0  0  0  0  0  0  0
   10.3701  -14.4557   28.8588 C   0  0  0  0  0  0  0  0  0  0  0  0
    6.1590  -11.8766   26.8648 C   0  0  0  0  0  0  0  0  0  0  0  0
    5.9748  -13.0361   25.9405 C   0  0  0  0  0  0  0  0  0  0  0  0
    7.1872  -13.2364   25.0354 C   0  0  2  0  0  0  0  0  0  0  0  0
    7.1422  -12.2970   23.8684 C   0  0  0  0  0  0  0  0  0  0  0  0
    7.2084  -14.6823   24.5243 C   0  0  2  0  0  0  0  0  0  0  0  0
    7.6833  -15.5235   25.6480 N   0  0  0  0  0  0  0  0  0  0  0  0
    8.1907  -14.7545   23.4226 C   0  0  0  0  0  0  0  0  0  0  0  0
    7.8839  -14.1815   22.3160 O   0  0  0  0  0  0  0  0  0  0  0  0
    9.4464  -15.3847   23.4459 N   0  0  0  0  0  0  0  0  0  0  0  0
   10.3714  -15.3028   22.3007 C   0  0  0  0  0  0  0  0  0  0  0  0
   10.3897  -16.5748   21.5785 C   0  0  0  0  0  0  0  0  0  0  0  0
    9.6356  -17.5059   21.9446 O   0  0  0  0  0  0  0  0  0  0  0  0
   11.2296  -16.7592   20.4975 O   0  0  0  0  0  0  0  0  0  0  0  0
  2  1  1  0
  3  2  2  0
  4  3  1  0
  5  4  2  0
  5 11  1  0
  6  5  1  0
  7  6  1  0
  7  9  1  0
  7  8  1  6
  9 10  2  0
 11 12  2  0
 12  2  1  0
 14 13  1  0
 14 15  1  0
 15 16  1  6
 17 15  1  0
 17 18  1  1
 18  9  1  0
 19 21  1  0
 19 17  1  0
 20 19  2  0
 22 21  1  0
 23 22  1  0
 23 25  1  0
 24 23  2  0
M  END
$$$$
