YIG.pdb
     RDKit          3D

 25 25  0  0  1  0  0  0  0  0999 V2000
   11.1099  -14.1144   30.5367 O   0  0  0  0  0  0  0  0  0  0  0  0
   10.6836  -15.1385   29.6897 C   0  0  0  0  0  0  0  0  0  0  0  0
   10.3968  -16.4039   30.1584 C   0  0  0  0  0  0  0  0  0  0  0  0
    9.9729  -17.4045   29.2836 C   0  0  0  0  0  0  0  0  0  0  0  0
    9.8255  -17.1714   27.9321 C   0  0  0  0  0  0  0  0  0  0  0  0
    9.3723  -18.2726   27.0550 C   0  0  0  0  0  0  0  0  0  0  0  0
    7.8943  -18.3370   26.8881 C   0  0  2  0  0  0  0  0  0  0  0  0
    7.4334  -19.6172   26.3934 N   0  0  0  0  0  0  0  0  0  0  0  0
    7.5194  -17.3023   25.8660 C   0  0  0  0  0  0  0  0  0  0  0  0
    7.2199  -17.6385   24.6688 O   0  0  0  0  0  0  0  0  0  0  0  0
   10.1128  -15.9066   27.4678 C   0  0  0  0  0  0  0  0  0  0  0  0
   10.5324  -14.9178   28.3364 C   0  0  0  0  0  0  0  0  0  0  0  0
    6.1087  -11.2140   25.9628 C   0  0  0  0  0  0  0  0  0  0  0  0
    6.1323  -12.5286   25.2530 C   0  0  0  0  0  0  0  0  0  0  0  0
    6.7374  -13.6291   26.1201 C   0  0  2  0  0  0  0  0  0  0  0  0
    8.0916  -13.2282   26.6220 C   0  0  0  0  0  0  0  0  0  0  0  0
    6.8607  -14.9170   25.2965 C   0  0  2  0  0  0  0  0  0  0  0  0
    7.4825  -15.9298   26.1816 N   0  0  0  0  0  0  0  0  0  0  0  0
    7.7732  -14.6421   24.1671 C   0  0  0  0  0  0  0  0  0  0  0  0
    7.4398  -13.7118   23.3482 O   0  0  0  0  0  0  0  0  0  0  0  0
    8.9878  -15.2883   23.8814 N   0  0  0  0  0  0  0  0  0  0  0  0
    9.7979  -14.9219   22.7052 C   0  0  0  0  0  0  0  0  0  0  0  0
   10.9575  -15.8075   22.5990 C   0  0  0  0  0  0  0  0  0  0  0  0
   11.0926  -16.7512   23.4119 O   0  0  0  0  0  0  0  0  0  0  0  0
   11.9041  -15.6133   21.6120 O   0  0  0  0  0  0  0  0  0  0  0  0
  2  1  1  0
  3  2  2  0
  4  3  1  0
  5  4  2  0
  5 11  1  0
  6  5  1  0
  7  6  1  0
  7  9  1  0
  7  8  1  6
  9 10  2  0
 11 12  2  0
 12  2  1  0
 14 13  1  0
 14 15  1  0
 15 16  1  6
 17 15  1  0
 17 18  1  1
 18  9  1  0
 19 21  1  0
 19 17  1  0
 20 19  2  0
 22 21  1  0
 23 22  1  0
 23 25  1  0
 24 23  2  0
M  END
$$$$
