YIG.pdb
     RDKit          3D

 25 25  0  0  1  0  0  0  0  0999 V2000
   11.0950  -14.3559   31.0424 O   0  0  0  0  0  0  0  0  0  0  0  0
   10.6171  -15.2744   30.1066 C   0  0  0  0  0  0  0  0  0  0  0  0
   10.3292  -14.9123   28.8070 C   0  0  0  0  0  0  0  0  0  0  0  0
    9.8528  -15.8563   27.8971 C   0  0  0  0  0  0  0  0  0  0  0  0
    9.6532  -17.1731   28.2561 C   0  0  0  0  0  0  0  0  0  0  0  0
    9.1461  -18.1276   27.2466 C   0  0  0  0  0  0  0  0  0  0  0  0
    7.6897  -17.9907   26.9700 C   0  0  2  0  0  0  0  0  0  0  0  0
    7.0445  -19.2546   26.6826 N   0  0  0  0  0  0  0  0  0  0  0  0
    7.5511  -17.1304   25.7467 C   0  0  0  0  0  0  0  0  0  0  0  0
    7.4512  -17.6524   24.5832 O   0  0  0  0  0  0  0  0  0  0  0  0
    9.9418  -17.5310   29.5548 C   0  0  0  0  0  0  0  0  0  0  0  0
   10.4134  -16.5940   30.4535 C   0  0  0  0  0  0  0  0  0  0  0  0
    5.8565  -12.1451   26.8597 C   0  0  0  0  0  0  0  0  0  0  0  0
    5.9066  -13.3710   26.0069 C   0  0  0  0  0  0  0  0  0  0  0  0
    7.1793  -13.4239   25.1663 C   0  0  2  0  0  0  0  0  0  0  0  0
    7.0933  -12.4758   24.0087 C   0  0  0  0  0  0  0  0  0  0  0  0
    7.3847  -14.8504   24.6416 C   0  0  2  0  0  0  0  0  0  0  0  0
    7.5256  -15.7243   25.8299 N   0  0  0  0  0  0  0  0  0  0  0  0
    8.6503  -14.8702   23.8788 C   0  0  0  0  0  0  0  0  0  0  0  0
    9.6849  -14.3511   24.4330 O   0  0  0  0  0  0  0  0  0  0  0  0
    8.8591  -15.4045   22.5961 N   0  0  0  0  0  0  0  0  0  0  0  0
   10.1835  -15.3618   21.9495 C   0  0  0  0  0  0  0  0  0  0  0  0
   10.1351  -16.0524   20.6607 C   0  0  0  0  0  0  0  0  0  0  0  0
    9.1329  -16.7438   20.3657 O   0  0  0  0  0  0  0  0  0  0  0  0
   11.1831  -15.9496   19.7667 O   0  0  0  0  0  0  0  0  0  0  0  0
  2  1  1  0
  3  2  2  0
  4  3  1  0
  5  4  2  0
  5 11  1  0
  6  5  1  0
  7  6  1  0
  7  9  1  0
  7  8  1  6
  9 10  2  0
 11 12  2  0
 12  2  1  0
 14 13  1  0
 14 15  1  0
 15 16  1  6
 17 15  1  0
 17 18  1  1
 18  9  1  0
 19 21  1  0
 19 17  1  0
 20 19  2  0
 22 21  1  0
 23 22  1  0
 23 25  1  0
 24 23  2  0
M  END
$$$$
