YIG.pdb
     RDKit          3D

 25 25  0  0  1  0  0  0  0  0999 V2000
   10.8474  -17.3674   29.7511 O   0  0  0  0  0  0  0  0  0  0  0  0
    9.9921  -17.8353   28.7524 C   0  0  0  0  0  0  0  0  0  0  0  0
    8.7473  -18.3556   29.0398 C   0  0  0  0  0  0  0  0  0  0  0  0
    7.9175  -18.8145   28.0166 C   0  0  0  0  0  0  0  0  0  0  0  0
    8.3038  -18.7669   26.6933 C   0  0  0  0  0  0  0  0  0  0  0  0
    7.3799  -19.2685   25.6531 C   0  0  0  0  0  0  0  0  0  0  0  0
    6.2117  -18.3785   25.4087 C   0  0  2  0  0  0  0  0  0  0  0  0
    5.2344  -18.9571   24.5107 N   0  0  0  0  0  0  0  0  0  0  0  0
    6.7351  -17.1315   24.7555 C   0  0  0  0  0  0  0  0  0  0  0  0
    6.9358  -17.0847   23.4930 O   0  0  0  0  0  0  0  0  0  0  0  0
    9.5476  -18.2466   26.4102 C   0  0  0  0  0  0  0  0  0  0  0  0
   10.3671  -17.7929   27.4255 C   0  0  0  0  0  0  0  0  0  0  0  0
    5.4136  -12.4311   27.1228 C   0  0  0  0  0  0  0  0  0  0  0  0
    5.7665  -13.2672   25.9358 C   0  0  0  0  0  0  0  0  0  0  0  0
    7.2562  -13.5964   25.8982 C   0  0  2  0  0  0  0  0  0  0  0  0
    8.0594  -12.3895   25.5182 C   0  0  0  0  0  0  0  0  0  0  0  0
    7.5055  -14.7151   24.8791 C   0  0  2  0  0  0  0  0  0  0  0  0
    7.0243  -15.9714   25.5005 N   0  0  0  0  0  0  0  0  0  0  0  0
    8.9649  -14.8129   24.6679 C   0  0  0  0  0  0  0  0  0  0  0  0
    9.5399  -13.8490   24.0456 O   0  0  0  0  0  0  0  0  0  0  0  0
    9.8135  -15.8543   25.0799 N   0  0  0  0  0  0  0  0  0  0  0  0
   11.2727  -15.7842   24.8806 C   0  0  0  0  0  0  0  0  0  0  0  0
   11.6487  -16.5088   23.6666 C   0  0  0  0  0  0  0  0  0  0  0  0
   10.7618  -17.0608   22.9750 O   0  0  0  0  0  0  0  0  0  0  0  0
   12.9711  -16.5903   23.2759 O   0  0  0  0  0  0  0  0  0  0  0  0
  2  1  1  0
  3  2  2  0
  4  3  1  0
  5  4  2  0
  5 11  1  0
  6  5  1  0
  7  6  1  0
  7  9  1  0
  7  8  1  6
  9 10  2  0
 11 12  2  0
 12  2  1  0
 14 13  1  0
 14 15  1  0
 15 16  1  6
 17 15  1  0
 17 18  1  1
 18  9  1  0
 19 21  1  0
 19 17  1  0
 20 19  2  0
 22 21  1  0
 23 22  1  0
 23 25  1  0
 24 23  2  0
M  END
$$$$
