YIG.pdb
     RDKit          3D

 25 25  0  0  1  0  0  0  0  0999 V2000
    6.7591  -10.5476   27.5935 O   0  0  0  0  0  0  0  0  0  0  0  0
    7.0606  -11.8563   27.2136 C   0  0  0  0  0  0  0  0  0  0  0  0
    8.2659  -12.4497   27.5266 C   0  0  0  0  0  0  0  0  0  0  0  0
    8.5346  -13.7603   27.1311 C   0  0  0  0  0  0  0  0  0  0  0  0
    7.6172  -14.5055   26.4200 C   0  0  0  0  0  0  0  0  0  0  0  0
    7.9599  -15.8901   26.0290 C   0  0  0  0  0  0  0  0  0  0  0  0
    6.9380  -16.5389   25.1622 C   0  0  2  0  0  0  0  0  0  0  0  0
    6.4942  -17.8206   25.6685 N   0  0  0  0  0  0  0  0  0  0  0  0
    7.5821  -16.7848   23.8278 C   0  0  0  0  0  0  0  0  0  0  0  0
    8.0141  -17.9460   23.5098 O   0  0  0  0  0  0  0  0  0  0  0  0
    6.4147  -13.9095   26.1092 C   0  0  0  0  0  0  0  0  0  0  0  0
    6.1515  -12.6117   26.5023 C   0  0  0  0  0  0  0  0  0  0  0  0
    8.0456  -12.3491   20.3155 C   0  0  0  0  0  0  0  0  0  0  0  0
    8.4018  -13.5483   21.1325 C   0  0  0  0  0  0  0  0  0  0  0  0
    7.6606  -14.7957   20.6595 C   0  0  2  0  0  0  0  0  0  0  0  0
    6.1800  -14.6304   20.8239 C   0  0  0  0  0  0  0  0  0  0  0  0
    8.1308  -16.0074   21.4736 C   0  0  2  0  0  0  0  0  0  0  0  0
    7.7357  -15.7546   22.8792 N   0  0  0  0  0  0  0  0  0  0  0  0
    9.6055  -16.0583   21.3917 C   0  0  0  0  0  0  0  0  0  0  0  0
   10.1295  -16.2280   20.2326 O   0  0  0  0  0  0  0  0  0  0  0  0
   10.5186  -15.9361   22.4528 N   0  0  0  0  0  0  0  0  0  0  0  0
   11.9747  -15.9807   22.2257 C   0  0  0  0  0  0  0  0  0  0  0  0
   12.6857  -15.6802   23.4685 C   0  0  0  0  0  0  0  0  0  0  0  0
   13.8251  -15.1615   23.4203 O   0  0  0  0  0  0  0  0  0  0  0  0
   12.1134  -15.9627   24.6935 O   0  0  0  0  0  0  0  0  0  0  0  0
  2  1  1  0
  3  2  2  0
  4  3  1  0
  5  4  2  0
  5 11  1  0
  6  5  1  0
  7  6  1  0
  7  9  1  0
  7  8  1  1
  9 10  2  0
 11 12  2  0
 12  2  1  0
 14 13  1  0
 14 15  1  0
 15 16  1  1
 17 15  1  0
 17 18  1  1
 18  9  1  0
 19 21  1  0
 19 17  1  0
 20 19  2  0
 22 21  1  0
 23 22  1  0
 23 25  1  0
 24 23  2  0
M  END
$$$$
