YIG.pdb
     RDKit          3D

 25 25  0  0  1  0  0  0  0  0999 V2000
    6.6066  -11.0748   27.0003 O   0  0  0  0  0  0  0  0  0  0  0  0
    6.8238  -12.4390   26.8011 C   0  0  0  0  0  0  0  0  0  0  0  0
    5.7915  -13.3118   26.5264 C   0  0  0  0  0  0  0  0  0  0  0  0
    6.0442  -14.6700   26.3326 C   0  0  0  0  0  0  0  0  0  0  0  0
    7.3205  -15.1878   26.4070 C   0  0  0  0  0  0  0  0  0  0  0  0
    7.5252  -16.6367   26.1919 C   0  0  0  0  0  0  0  0  0  0  0  0
    6.5852  -17.2353   25.2048 C   0  0  2  0  0  0  0  0  0  0  0  0
    6.2877  -18.6264   25.4744 N   0  0  0  0  0  0  0  0  0  0  0  0
    7.2560  -17.1743   23.8624 C   0  0  0  0  0  0  0  0  0  0  0  0
    7.3728  -18.2214   23.1371 O   0  0  0  0  0  0  0  0  0  0  0  0
    8.3488  -14.3132   26.6815 C   0  0  0  0  0  0  0  0  0  0  0  0
    8.0955  -12.9688   26.8729 C   0  0  0  0  0  0  0  0  0  0  0  0
    7.2170  -12.0522   21.7430 C   0  0  0  0  0  0  0  0  0  0  0  0
    7.0273  -13.5316   21.8313 C   0  0  0  0  0  0  0  0  0  0  0  0
    8.3527  -14.2797   21.7186 C   0  0  2  0  0  0  0  0  0  0  0  0
    8.9807  -14.0524   20.3768 C   0  0  0  0  0  0  0  0  0  0  0  0
    8.1095  -15.7807   21.9189 C   0  0  2  0  0  0  0  0  0  0  0  0
    7.7800  -15.9707   23.3511 N   0  0  0  0  0  0  0  0  0  0  0  0
    9.3744  -16.4842   21.6204 C   0  0  0  0  0  0  0  0  0  0  0  0
    9.7108  -16.6020   20.3875 O   0  0  0  0  0  0  0  0  0  0  0  0
   10.2711  -17.0459   22.5450 N   0  0  0  0  0  0  0  0  0  0  0  0
   11.4457  -17.8215   22.1062 C   0  0  0  0  0  0  0  0  0  0  0  0
   12.6170  -16.9497   22.0149 C   0  0  0  0  0  0  0  0  0  0  0  0
   13.7449  -17.4487   21.7947 O   0  0  0  0  0  0  0  0  0  0  0  0
   12.4915  -15.5827   22.1689 O   0  0  0  0  0  0  0  0  0  0  0  0
  2  1  1  0
  3  2  2  0
  4  3  1  0
  5  4  2  0
  5 11  1  0
  6  5  1  0
  7  6  1  0
  7  9  1  0
  7  8  1  1
  9 10  2  0
 11 12  2  0
 12  2  1  0
 14 13  1  0
 14 15  1  0
 15 16  1  6
 17 15  1  0
 17 18  1  1
 18  9  1  0
 19 21  1  0
 19 17  1  0
 20 19  2  0
 22 21  1  0
 23 22  1  0
 23 25  1  0
 24 23  2  0
M  END
$$$$
