LTS.pdb
     RDKit          3D

 22 21  0  0  1  0  0  0  0  0999 V2000
    9.2471  -12.6544   19.1319 C   0  0  0  0  0  0  0  0  0  0  0  0
    7.9350  -13.4445   19.2532 C   0  0  2  0  0  0  0  0  0  0  0  0
    6.8530  -12.4613   18.8324 C   0  0  0  0  0  0  0  0  0  0  0  0
    7.7561  -13.7433   20.7014 C   0  0  0  0  0  0  0  0  0  0  0  0
    8.7829  -14.6327   21.3163 C   0  0  2  0  0  0  0  0  0  0  0  0
    9.0036  -15.8106   20.5379 N   0  0  0  0  0  0  0  0  0  0  0  0
    8.3285  -14.9445   22.7045 C   0  0  0  0  0  0  0  0  0  0  0  0
    7.6714  -14.0587   23.3244 O   0  0  0  0  0  0  0  0  0  0  0  0
    6.7056  -18.2359   24.1375 C   0  0  0  0  0  0  0  0  0  0  0  0
    7.9276  -17.8282   24.9558 C   0  0  1  0  0  0  0  0  0  0  0  0
    9.0140  -18.6088   24.5625 O   0  0  0  0  0  0  0  0  0  0  0  0
    8.2202  -16.3515   24.7871 C   0  0  2  0  0  0  0  0  0  0  0  0
    8.5744  -16.1512   23.3816 N   0  0  0  0  0  0  0  0  0  0  0  0
    9.3751  -16.0042   25.6713 C   0  0  0  0  0  0  0  0  0  0  0  0
   10.5508  -16.2537   25.3043 O   0  0  0  0  0  0  0  0  0  0  0  0
    8.5575  -13.8388   28.8218 O   0  0  0  0  0  0  0  0  0  0  0  0
    9.8979  -13.6606   28.4569 C   0  0  0  0  0  0  0  0  0  0  0  0
   10.3280  -14.9545   27.7563 C   0  0  2  0  0  0  0  0  0  0  0  0
    9.2166  -15.3888   26.9433 N   0  0  0  0  0  0  0  0  0  0  0  0
   10.6142  -15.9630   28.7866 C   0  0  0  0  0  0  0  0  0  0  0  0
   11.5133  -15.7526   29.6184 O   0  0  0  0  0  0  0  0  0  0  0  0
    9.8961  -17.1303   28.8335 O   0  0  0  0  0  0  0  0  0  0  0  0
  2  1  1  1
  2  4  1  0
  2  3  1  0
  4  5  1  0
  5  7  1  0
  5  6  1  6
  7  8  2  0
 10  9  1  6
 10 12  1  0
 11 10  1  0
 12 14  1  0
 12 13  1  6
 13  7  1  0
 14 19  1  0
 14 15  2  0
 16 17  1  0
 18 17  1  1
 18 20  1  0
 19 18  1  0
 20 21  2  0
 20 22  1  0
M  END
$$$$
