LTS.pdb
     RDKit          3D

 22 21  0  0  1  0  0  0  0  0999 V2000
    9.3277  -13.1640   18.9716 C   0  0  0  0  0  0  0  0  0  0  0  0
    8.0363  -13.9417   19.2680 C   0  0  2  0  0  0  0  0  0  0  0  0
    6.9179  -13.0279   18.7899 C   0  0  0  0  0  0  0  0  0  0  0  0
    7.9443  -14.0553   20.7503 C   0  0  0  0  0  0  0  0  0  0  0  0
    8.8835  -15.0204   21.3907 C   0  0  2  0  0  0  0  0  0  0  0  0
    8.8004  -16.3184   20.7988 N   0  0  0  0  0  0  0  0  0  0  0  0
    8.5743  -15.0401   22.8518 C   0  0  0  0  0  0  0  0  0  0  0  0
    8.3630  -13.9328   23.4263 O   0  0  0  0  0  0  0  0  0  0  0  0
    6.1076  -17.4720   24.7225 C   0  0  0  0  0  0  0  0  0  0  0  0
    7.4691  -17.4343   25.4109 C   0  0  1  0  0  0  0  0  0  0  0  0
    8.2010  -18.5559   25.0232 O   0  0  0  0  0  0  0  0  0  0  0  0
    8.2057  -16.1533   25.0775 C   0  0  2  0  0  0  0  0  0  0  0  0
    8.4989  -16.1981   23.6446 N   0  0  0  0  0  0  0  0  0  0  0  0
    9.4737  -16.1286   25.8696 C   0  0  0  0  0  0  0  0  0  0  0  0
   10.5028  -16.7043   25.4351 O   0  0  0  0  0  0  0  0  0  0  0  0
    9.3678  -14.3005   29.3568 O   0  0  0  0  0  0  0  0  0  0  0  0
   10.6890  -14.2852   28.8923 C   0  0  0  0  0  0  0  0  0  0  0  0
   10.8078  -15.4451   27.8969 C   0  0  2  0  0  0  0  0  0  0  0  0
    9.5877  -15.4713   27.1252 N   0  0  0  0  0  0  0  0  0  0  0  0
   10.9406  -16.6946   28.6594 C   0  0  0  0  0  0  0  0  0  0  0  0
   10.0299  -17.5393   28.6171 O   0  0  0  0  0  0  0  0  0  0  0  0
   12.0607  -16.9312   29.4143 O   0  0  0  0  0  0  0  0  0  0  0  0
  2  1  1  1
  2  4  1  0
  2  3  1  0
  4  5  1  0
  5  7  1  0
  5  6  1  6
  7  8  2  0
 10  9  1  6
 10 12  1  0
 11 10  1  0
 12 14  1  0
 12 13  1  6
 13  7  1  0
 14 19  1  0
 14 15  2  0
 16 17  1  0
 18 17  1  1
 18 20  1  0
 19 18  1  0
 20 21  2  0
 20 22  1  0
M  END
$$$$
