LTS.pdb
     RDKit          3D

 22 21  0  0  1  0  0  0  0  0999 V2000
    5.4392  -12.1634   25.8523 C   0  0  0  0  0  0  0  0  0  0  0  0
    6.3614  -12.8300   26.8846 C   0  0  2  0  0  0  0  0  0  0  0  0
    7.2670  -11.7093   27.3727 C   0  0  0  0  0  0  0  0  0  0  0  0
    7.1949  -13.8097   26.1337 C   0  0  0  0  0  0  0  0  0  0  0  0
    6.4498  -14.8601   25.3821 C   0  0  2  0  0  0  0  0  0  0  0  0
    5.6897  -15.7011   26.2522 N   0  0  0  0  0  0  0  0  0  0  0  0
    7.4490  -15.6268   24.5791 C   0  0  0  0  0  0  0  0  0  0  0  0
    8.0154  -16.6158   25.1285 O   0  0  0  0  0  0  0  0  0  0  0  0
    7.2470  -15.4198   20.5943 C   0  0  0  0  0  0  0  0  0  0  0  0
    8.6803  -15.6734   21.0529 C   0  0  1  0  0  0  0  0  0  0  0  0
    9.4078  -14.4900   20.9324 O   0  0  0  0  0  0  0  0  0  0  0  0
    8.7064  -16.1938   22.4753 C   0  0  2  0  0  0  0  0  0  0  0  0
    7.8128  -15.3353   23.2533 N   0  0  0  0  0  0  0  0  0  0  0  0
   10.1087  -16.0843   22.9829 C   0  0  0  0  0  0  0  0  0  0  0  0
   10.6373  -14.9557   23.1439 O   0  0  0  0  0  0  0  0  0  0  0  0
   11.7528  -19.3811   24.0881 O   0  0  0  0  0  0  0  0  0  0  0  0
   12.5886  -18.3641   24.5665 C   0  0  0  0  0  0  0  0  0  0  0  0
   12.2849  -17.1239   23.7181 C   0  0  2  0  0  0  0  0  0  0  0  0
   10.9047  -17.2177   23.3045 N   0  0  0  0  0  0  0  0  0  0  0  0
   13.1602  -17.1477   22.5376 C   0  0  0  0  0  0  0  0  0  0  0  0
   12.6656  -17.3158   21.4099 O   0  0  0  0  0  0  0  0  0  0  0  0
   14.5151  -16.9859   22.6749 O   0  0  0  0  0  0  0  0  0  0  0  0
  2  1  1  6
  2  4  1  0
  2  3  1  0
  4  5  1  0
  5  7  1  0
  5  6  1  1
  7  8  2  0
 10  9  1  1
 10 12  1  0
 11 10  1  0
 12 14  1  0
 12 13  1  1
 13  7  1  0
 14 19  1  0
 14 15  2  0
 16 17  1  0
 18 17  1  1
 18 20  1  0
 19 18  1  0
 20 21  2  0
 20 22  1  0
M  END
$$$$
