LTS.pdb
     RDKit          3D

 22 21  0  0  1  0  0  0  0  0999 V2000
    9.5567  -12.3539   19.2417 C   0  0  0  0  0  0  0  0  0  0  0  0
    8.2466  -12.9483   18.7023 C   0  0  2  0  0  0  0  0  0  0  0  0
    7.1546  -12.0581   19.2764 C   0  0  0  0  0  0  0  0  0  0  0  0
    8.1152  -14.3005   19.3129 C   0  0  0  0  0  0  0  0  0  0  0  0
    9.0985  -15.3228   18.8532 C   0  0  2  0  0  0  0  0  0  0  0  0
    8.7300  -15.8895   17.5942 N   0  0  0  0  0  0  0  0  0  0  0  0
    9.2081  -16.3517   19.9304 C   0  0  0  0  0  0  0  0  0  0  0  0
    8.1520  -16.9523   20.2838 O   0  0  0  0  0  0  0  0  0  0  0  0
   10.6317  -19.5442   19.9442 C   0  0  0  0  0  0  0  0  0  0  0  0
   11.3009  -18.8530   21.1289 C   0  0  1  0  0  0  0  0  0  0  0  0
   12.5582  -18.3982   20.7335 O   0  0  0  0  0  0  0  0  0  0  0  0
   10.4415  -17.7176   21.6455 C   0  0  2  0  0  0  0  0  0  0  0  0
   10.3983  -16.7082   20.5871 N   0  0  0  0  0  0  0  0  0  0  0  0
   11.0951  -17.1623   22.8705 C   0  0  0  0  0  0  0  0  0  0  0  0
   12.0762  -16.3840   22.7669 O   0  0  0  0  0  0  0  0  0  0  0  0
    9.2345  -16.2905   26.1901 O   0  0  0  0  0  0  0  0  0  0  0  0
   10.3217  -17.1049   26.5313 C   0  0  0  0  0  0  0  0  0  0  0  0
   11.3226  -16.9916   25.3756 C   0  0  2  0  0  0  0  0  0  0  0  0
   10.6582  -17.4727   24.1874 N   0  0  0  0  0  0  0  0  0  0  0  0
   12.4774  -17.8482   25.6808 C   0  0  0  0  0  0  0  0  0  0  0  0
   12.7093  -18.8417   24.9711 O   0  0  0  0  0  0  0  0  0  0  0  0
   13.2966  -17.5567   26.7412 O   0  0  0  0  0  0  0  0  0  0  0  0
  2  1  1  1
  2  4  1  0
  2  3  1  0
  4  5  1  0
  5  7  1  0
  5  6  1  6
  7  8  2  0
 10  9  1  6
 10 12  1  0
 11 10  1  0
 12 14  1  0
 12 13  1  6
 13  7  1  0
 14 19  1  0
 14 15  2  0
 16 17  1  0
 18 17  1  1
 18 20  1  0
 19 18  1  0
 20 21  2  0
 20 22  1  0
M  END
$$$$
