LTS.pdb
     RDKit          3D

 22 21  0  0  1  0  0  0  0  0999 V2000
    5.8178  -12.1866   26.3232 C   0  0  0  0  0  0  0  0  0  0  0  0
    6.7607  -13.0669   27.1578 C   0  0  2  0  0  0  0  0  0  0  0  0
    7.7434  -12.0905   27.7867 C   0  0  0  0  0  0  0  0  0  0  0  0
    7.5056  -13.9203   26.1907 C   0  0  0  0  0  0  0  0  0  0  0  0
    6.7017  -14.9553   25.4793 C   0  0  2  0  0  0  0  0  0  0  0  0
    6.0154  -15.8169   26.3896 N   0  0  0  0  0  0  0  0  0  0  0  0
    7.6319  -15.7018   24.5803 C   0  0  0  0  0  0  0  0  0  0  0  0
    8.3165  -16.6388   25.0846 O   0  0  0  0  0  0  0  0  0  0  0  0
    6.8671  -15.9504   20.7006 C   0  0  0  0  0  0  0  0  0  0  0  0
    8.3744  -15.8964   20.9330 C   0  0  1  0  0  0  0  0  0  0  0  0
    8.8379  -14.6270   20.5893 O   0  0  0  0  0  0  0  0  0  0  0  0
    8.7100  -16.2351   22.3708 C   0  0  2  0  0  0  0  0  0  0  0  0
    7.8087  -15.4449   23.2099 N   0  0  0  0  0  0  0  0  0  0  0  0
   10.1318  -15.8440   22.6190 C   0  0  0  0  0  0  0  0  0  0  0  0
   10.3980  -14.8431   23.3307 O   0  0  0  0  0  0  0  0  0  0  0  0
   13.1935  -18.0260   24.7201 O   0  0  0  0  0  0  0  0  0  0  0  0
   12.0242  -17.7688   23.9933 C   0  0  0  0  0  0  0  0  0  0  0  0
   12.4322  -16.8535   22.8331 C   0  0  2  0  0  0  0  0  0  0  0  0
   11.2355  -16.5604   22.0802 N   0  0  0  0  0  0  0  0  0  0  0  0
   13.3868  -17.5820   21.9855 C   0  0  0  0  0  0  0  0  0  0  0  0
   13.0290  -18.6276   21.4168 O   0  0  0  0  0  0  0  0  0  0  0  0
   14.6654  -17.1146   21.8203 O   0  0  0  0  0  0  0  0  0  0  0  0
  2  1  1  6
  2  4  1  0
  2  3  1  0
  4  5  1  0
  5  7  1  0
  5  6  1  1
  7  8  2  0
 10  9  1  1
 10 12  1  0
 11 10  1  0
 12 14  1  0
 12 13  1  1
 13  7  1  0
 14 19  1  0
 14 15  2  0
 16 17  1  0
 18 17  1  1
 18 20  1  0
 19 18  1  0
 20 21  2  0
 20 22  1  0
M  END
$$$$
