LTS.pdb
     RDKit          3D

 22 21  0  0  1  0  0  0  0  0999 V2000
    9.2539  -12.4562   19.1816 C   0  0  0  0  0  0  0  0  0  0  0  0
    8.1232  -13.4944   19.1166 C   0  0  2  0  0  0  0  0  0  0  0  0
    6.8999  -12.7047   18.6760 C   0  0  0  0  0  0  0  0  0  0  0  0
    7.8992  -13.9606   20.5133 C   0  0  0  0  0  0  0  0  0  0  0  0
    9.0226  -14.7170   21.1373 C   0  0  2  0  0  0  0  0  0  0  0  0
    9.3509  -15.8935   20.3954 N   0  0  0  0  0  0  0  0  0  0  0  0
    8.6263  -15.0234   22.5444 C   0  0  0  0  0  0  0  0  0  0  0  0
    7.9143  -14.1750   23.1560 O   0  0  0  0  0  0  0  0  0  0  0  0
    7.4503  -18.5329   24.0369 C   0  0  0  0  0  0  0  0  0  0  0  0
    8.5721  -17.9032   24.8578 C   0  0  1  0  0  0  0  0  0  0  0  0
    9.7805  -18.5014   24.5026 O   0  0  0  0  0  0  0  0  0  0  0  0
    8.6167  -16.4037   24.6475 C   0  0  2  0  0  0  0  0  0  0  0  0
    8.9834  -16.1865   23.2478 N   0  0  0  0  0  0  0  0  0  0  0  0
    9.6627  -15.8396   25.5551 C   0  0  0  0  0  0  0  0  0  0  0  0
   10.8681  -15.8256   25.2000 O   0  0  0  0  0  0  0  0  0  0  0  0
    8.3855  -13.5859   28.2970 O   0  0  0  0  0  0  0  0  0  0  0  0
    9.7714  -13.3948   28.2307 C   0  0  0  0  0  0  0  0  0  0  0  0
   10.3606  -14.7051   27.6958 C   0  0  2  0  0  0  0  0  0  0  0  0
    9.3647  -15.3010   26.8368 N   0  0  0  0  0  0  0  0  0  0  0  0
   10.6261  -15.5910   28.8382 C   0  0  0  0  0  0  0  0  0  0  0  0
   10.0355  -16.6815   28.9195 O   0  0  0  0  0  0  0  0  0  0  0  0
   11.5191  -15.2207   29.8107 O   0  0  0  0  0  0  0  0  0  0  0  0
  2  1  1  1
  2  4  1  0
  2  3  1  0
  4  5  1  0
  5  7  1  0
  5  6  1  6
  7  8  2  0
 10  9  1  6
 10 12  1  0
 11 10  1  0
 12 14  1  0
 12 13  1  6
 13  7  1  0
 14 19  1  0
 14 15  2  0
 16 17  1  0
 18 17  1  1
 18 20  1  0
 19 18  1  0
 20 21  2  0
 20 22  1  0
M  END
$$$$
