LTS.pdb
     RDKit          3D

 22 21  0  0  1  0  0  0  0  0999 V2000
    8.4827  -15.9363   14.3817 C   0  0  0  0  0  0  0  0  0  0  0  0
    7.7234  -14.9933   15.3275 C   0  0  2  0  0  0  0  0  0  0  0  0
    7.6064  -13.6869   14.5568 C   0  0  0  0  0  0  0  0  0  0  0  0
    8.6145  -14.7654   16.4991 C   0  0  0  0  0  0  0  0  0  0  0  0
    8.7254  -15.8961   17.4648 C   0  0  2  0  0  0  0  0  0  0  0  0
    7.4806  -16.5772   17.6342 N   0  0  0  0  0  0  0  0  0  0  0  0
    9.2475  -15.3369   18.7476 C   0  0  0  0  0  0  0  0  0  0  0  0
   10.3524  -14.7212   18.7177 O   0  0  0  0  0  0  0  0  0  0  0  0
    7.5404  -13.0994   21.2880 C   0  0  0  0  0  0  0  0  0  0  0  0
    8.1076  -14.3034   22.0347 C   0  0  1  0  0  0  0  0  0  0  0  0
    7.0716  -15.1984   22.2992 O   0  0  0  0  0  0  0  0  0  0  0  0
    9.2132  -14.9610   21.2348 C   0  0  2  0  0  0  0  0  0  0  0  0
    8.6053  -15.4408   19.9933 N   0  0  0  0  0  0  0  0  0  0  0  0
    9.7436  -16.1083   22.0339 C   0  0  0  0  0  0  0  0  0  0  0  0
    9.0483  -17.1426   22.1951 O   0  0  0  0  0  0  0  0  0  0  0  0
   12.8531  -17.5754   21.3555 O   0  0  0  0  0  0  0  0  0  0  0  0
   11.9914  -18.2529   22.2273 C   0  0  0  0  0  0  0  0  0  0  0  0
   11.5969  -17.2437   23.3118 C   0  0  2  0  0  0  0  0  0  0  0  0
   11.0290  -16.0978   22.6415 N   0  0  0  0  0  0  0  0  0  0  0  0
   12.8133  -16.8448   24.0341 C   0  0  0  0  0  0  0  0  0  0  0  0
   13.4692  -17.7011   24.6514 O   0  0  0  0  0  0  0  0  0  0  0  0
   13.2256  -15.5369   24.0297 O   0  0  0  0  0  0  0  0  0  0  0  0
  2  1  1  6
  2  4  1  0
  2  3  1  0
  4  5  1  0
  5  7  1  0
  5  6  1  1
  7  8  2  0
 10  9  1  6
 10 12  1  0
 11 10  1  0
 12 14  1  0
 12 13  1  6
 13  7  1  0
 14 19  1  0
 14 15  2  0
 16 17  1  0
 18 17  1  6
 18 20  1  0
 19 18  1  0
 20 21  2  0
 20 22  1  0
M  END
$$$$
