LTS.pdb
     RDKit          3D

 22 21  0  0  1  0  0  0  0  0999 V2000
    8.3531  -14.0383   17.9841 C   0  0  0  0  0  0  0  0  0  0  0  0
    7.6558  -13.5768   19.2730 C   0  0  2  0  0  0  0  0  0  0  0  0
    7.5187  -12.0695   19.1183 C   0  0  0  0  0  0  0  0  0  0  0  0
    8.6078  -13.8467   20.3863 C   0  0  0  0  0  0  0  0  0  0  0  0
    8.7251  -15.2702   20.8144 C   0  0  2  0  0  0  0  0  0  0  0  0
    7.4958  -15.9800   20.6497 N   0  0  0  0  0  0  0  0  0  0  0  0
    9.1980  -15.2719   22.2311 C   0  0  0  0  0  0  0  0  0  0  0  0
   10.2515  -14.6263   22.5034 O   0  0  0  0  0  0  0  0  0  0  0  0
    7.4219  -14.1143   25.2769 C   0  0  0  0  0  0  0  0  0  0  0  0
    7.8955  -15.5387   25.5522 C   0  0  1  0  0  0  0  0  0  0  0  0
    6.8275  -16.4138   25.3582 O   0  0  0  0  0  0  0  0  0  0  0  0
    9.0696  -15.8967   24.6646 C   0  0  2  0  0  0  0  0  0  0  0  0
    8.5621  -15.9379   23.2928 N   0  0  0  0  0  0  0  0  0  0  0  0
    9.5684  -17.2446   25.0776 C   0  0  0  0  0  0  0  0  0  0  0  0
    8.9420  -18.2812   24.7427 O   0  0  0  0  0  0  0  0  0  0  0  0
   13.0685  -17.5125   27.0814 O   0  0  0  0  0  0  0  0  0  0  0  0
   12.7715  -18.6318   26.2938 C   0  0  0  0  0  0  0  0  0  0  0  0
   11.2423  -18.7272   26.2424 C   0  0  2  0  0  0  0  0  0  0  0  0
   10.7469  -17.4285   25.8514 N   0  0  0  0  0  0  0  0  0  0  0  0
   10.7560  -19.0600   27.5889 C   0  0  0  0  0  0  0  0  0  0  0  0
   10.0474  -18.2453   28.2044 O   0  0  0  0  0  0  0  0  0  0  0  0
   11.0798  -20.2608   28.1666 O   0  0  0  0  0  0  0  0  0  0  0  0
  2  1  1  6
  2  4  1  0
  2  3  1  0
  4  5  1  0
  5  7  1  0
  5  6  1  1
  7  8  2  0
 10  9  1  6
 10 12  1  0
 11 10  1  0
 12 14  1  0
 12 13  1  6
 13  7  1  0
 14 19  1  0
 14 15  2  0
 16 17  1  0
 18 17  1  1
 18 20  1  0
 19 18  1  0
 20 21  2  0
 20 22  1  0
M  END
$$$$
