LTS.pdb
     RDKit          3D

 22 21  0  0  1  0  0  0  0  0999 V2000
    9.6217  -12.5729   19.6850 C   0  0  0  0  0  0  0  0  0  0  0  0
    8.2624  -13.2706   19.5224 C   0  0  2  0  0  0  0  0  0  0  0  0
    7.2357  -12.1696   19.7415 C   0  0  0  0  0  0  0  0  0  0  0  0
    8.1513  -14.2423   20.6457 C   0  0  0  0  0  0  0  0  0  0  0  0
    9.0905  -15.3997   20.6032 C   0  0  2  0  0  0  0  0  0  0  0  0
    8.7788  -16.3011   19.5391 N   0  0  0  0  0  0  0  0  0  0  0  0
    9.0436  -16.0610   21.9417 C   0  0  0  0  0  0  0  0  0  0  0  0
    7.9146  -16.4244   22.3822 O   0  0  0  0  0  0  0  0  0  0  0  0
   10.6529  -19.1643   23.1457 C   0  0  0  0  0  0  0  0  0  0  0  0
   11.0460  -18.0609   24.1239 C   0  0  1  0  0  0  0  0  0  0  0  0
   12.3313  -17.6195   23.8123 O   0  0  0  0  0  0  0  0  0  0  0  0
   10.0471  -16.9229   24.0815 C   0  0  2  0  0  0  0  0  0  0  0  0
   10.1607  -16.3133   22.7562 N   0  0  0  0  0  0  0  0  0  0  0  0
   10.4212  -15.9384   25.1430 C   0  0  0  0  0  0  0  0  0  0  0  0
   11.2944  -15.0637   24.9157 O   0  0  0  0  0  0  0  0  0  0  0  0
    9.2610  -13.2523   28.7682 O   0  0  0  0  0  0  0  0  0  0  0  0
    8.9017  -14.1846   27.7867 C   0  0  0  0  0  0  0  0  0  0  0  0
   10.1733  -14.9763   27.4603 C   0  0  2  0  0  0  0  0  0  0  0  0
    9.8285  -15.9331   26.4354 N   0  0  0  0  0  0  0  0  0  0  0  0
   10.6009  -15.6826   28.6762 C   0  0  0  0  0  0  0  0  0  0  0  0
   10.3468  -16.8924   28.8048 O   0  0  0  0  0  0  0  0  0  0  0  0
   11.2765  -15.0150   29.6654 O   0  0  0  0  0  0  0  0  0  0  0  0
  2  1  1  1
  2  4  1  0
  2  3  1  0
  4  5  1  0
  5  7  1  0
  5  6  1  6
  7  8  2  0
 10  9  1  6
 10 12  1  0
 11 10  1  0
 12 14  1  0
 12 13  1  6
 13  7  1  0
 14 19  1  0
 14 15  2  0
 16 17  1  0
 18 17  1  1
 18 20  1  0
 19 18  1  0
 20 21  2  0
 20 22  1  0
M  END
$$$$
