NGQ.pdb
     RDKit          3D

 22 21  0  0  1  0  0  0  0  0999 V2000
    9.6370  -19.9837   17.7206 N   0  0  0  0  0  0  0  0  0  0  0  0
    8.6375  -19.0447   17.2896 C   0  0  0  0  0  0  0  0  0  0  0  0
    8.1062  -19.2849   16.1904 O   0  0  0  0  0  0  0  0  0  0  0  0
    8.2836  -17.8916   18.1033 C   0  0  0  0  0  0  0  0  0  0  0  0
    9.1809  -17.6305   19.2882 C   0  0  2  0  0  0  0  0  0  0  0  0
    9.3323  -18.9336   20.0000 N   0  0  0  0  0  0  0  0  0  0  0  0
    8.5659  -16.7051   20.2624 C   0  0  0  0  0  0  0  0  0  0  0  0
    8.3559  -15.5131   19.8820 O   0  0  0  0  0  0  0  0  0  0  0  0
    8.1974  -17.0704   21.5810 N   0  0  0  0  0  0  0  0  0  0  0  0
    7.6154  -16.0629   22.4288 C   0  0  0  0  0  0  0  0  0  0  0  0
    8.5412  -15.3362   23.2875 C   0  0  0  0  0  0  0  0  0  0  0  0
    9.1442  -14.3429   22.7504 O   0  0  0  0  0  0  0  0  0  0  0  0
    5.3642  -12.6457   26.1148 N   0  0  0  0  0  0  0  0  0  0  0  0
    6.4192  -12.1245   26.8931 C   0  0  0  0  0  0  0  0  0  0  0  0
    6.2866  -11.1893   27.6893 O   0  0  0  0  0  0  0  0  0  0  0  0
    7.7830  -12.7557   26.7335 C   0  0  0  0  0  0  0  0  0  0  0  0
    7.7220  -13.8269   25.7068 C   0  0  0  0  0  0  0  0  0  0  0  0
    9.0405  -14.5422   25.5966 C   0  0  2  0  0  0  0  0  0  0  0  0
    8.8205  -15.6331   24.6343 N   0  0  0  0  0  0  0  0  0  0  0  0
    9.4614  -15.1450   26.8678 C   0  0  0  0  0  0  0  0  0  0  0  0
   10.0064  -14.4758   27.7736 O   0  0  0  0  0  0  0  0  0  0  0  0
    9.2691  -16.5198   27.1287 O   0  0  0  0  0  0  0  0  0  0  0  0
  2  1  1  0
  3  2  2  0
  4  2  1  0
  5  4  1  0
  5  6  1  1
  7  5  1  0
  7  8  2  0
  9  7  1  0
 10  9  1  0
 10 11  1  0
 11 12  2  0
 11 19  1  0
 14 15  2  0
 14 13  1  0
 16 14  1  0
 17 16  1  0
 18 17  1  1
 19 18  1  0
 20 18  1  0
 20 22  1  0
 21 20  2  0
M  END
$$$$
