NGQ.pdb
     RDKit          3D

 22 21  0  0  1  0  0  0  0  0999 V2000
   11.5904  -17.9301   17.0527 N   0  0  0  0  0  0  0  0  0  0  0  0
   10.1592  -18.0609   17.0207 C   0  0  0  0  0  0  0  0  0  0  0  0
    9.6639  -18.3274   15.9107 O   0  0  0  0  0  0  0  0  0  0  0  0
    9.3578  -17.8889   18.2229 C   0  0  0  0  0  0  0  0  0  0  0  0
   10.1219  -17.5001   19.4648 C   0  0  2  0  0  0  0  0  0  0  0  0
   10.4011  -18.7663   20.2039 N   0  0  0  0  0  0  0  0  0  0  0  0
    9.3152  -16.6657   20.3795 C   0  0  0  0  0  0  0  0  0  0  0  0
    9.4528  -15.4073   20.2948 O   0  0  0  0  0  0  0  0  0  0  0  0
    8.4038  -17.1852   21.3321 N   0  0  0  0  0  0  0  0  0  0  0  0
    7.6345  -16.2544   22.1159 C   0  0  0  0  0  0  0  0  0  0  0  0
    8.3030  -15.6950   23.2833 C   0  0  0  0  0  0  0  0  0  0  0  0
    9.5816  -15.7573   23.2823 O   0  0  0  0  0  0  0  0  0  0  0  0
    5.8525  -12.0521   27.5329 N   0  0  0  0  0  0  0  0  0  0  0  0
    6.3215  -11.5681   26.2934 C   0  0  0  0  0  0  0  0  0  0  0  0
    6.0184  -10.4639   25.8297 O   0  0  0  0  0  0  0  0  0  0  0  0
    7.2461  -12.4614   25.4992 C   0  0  0  0  0  0  0  0  0  0  0  0
    7.5602  -13.6819   26.2848 C   0  0  0  0  0  0  0  0  0  0  0  0
    8.4716  -14.5976   25.5146 C   0  0  2  0  0  0  0  0  0  0  0  0
    7.6680  -15.1030   24.3906 N   0  0  0  0  0  0  0  0  0  0  0  0
    8.9087  -15.7536   26.3077 C   0  0  0  0  0  0  0  0  0  0  0  0
    8.3229  -16.8577   26.2536 O   0  0  0  0  0  0  0  0  0  0  0  0
   10.0201  -15.6718   27.1756 O   0  0  0  0  0  0  0  0  0  0  0  0
  2  1  1  0
  3  2  2  0
  4  2  1  0
  5  4  1  0
  5  6  1  1
  7  5  1  0
  7  8  2  0
  9  7  1  0
 10  9  1  0
 10 11  1  0
 11 12  2  0
 11 19  1  0
 14 15  2  0
 14 13  1  0
 16 14  1  0
 17 16  1  0
 18 17  1  1
 19 18  1  0
 20 18  1  0
 20 22  1  0
 21 20  2  0
M  END
$$$$
