NGQ.pdb
     RDKit          3D

 22 21  0  0  1  0  0  0  0  0999 V2000
    6.0657  -13.1560   19.5219 N   0  0  0  0  0  0  0  0  0  0  0  0
    7.1724  -13.9933   19.1469 C   0  0  0  0  0  0  0  0  0  0  0  0
    7.0072  -14.6850   18.1258 O   0  0  0  0  0  0  0  0  0  0  0  0
    8.4008  -14.0157   19.9264 C   0  0  0  0  0  0  0  0  0  0  0  0
    8.9109  -15.3863   20.2989 C   0  0  2  0  0  0  0  0  0  0  0  0
    7.9363  -15.9487   21.2795 N   0  0  0  0  0  0  0  0  0  0  0  0
   10.2081  -15.3276   21.0042 C   0  0  0  0  0  0  0  0  0  0  0  0
   11.2120  -14.9182   20.3452 O   0  0  0  0  0  0  0  0  0  0  0  0
   10.3916  -15.6944   22.3605 N   0  0  0  0  0  0  0  0  0  0  0  0
   11.7187  -15.6162   22.9130 C   0  0  0  0  0  0  0  0  0  0  0  0
   11.8416  -15.9310   24.3302 C   0  0  0  0  0  0  0  0  0  0  0  0
   13.0257  -15.8883   24.8149 O   0  0  0  0  0  0  0  0  0  0  0  0
   11.3880  -13.1543   28.3282 N   0  0  0  0  0  0  0  0  0  0  0  0
   10.5342  -14.2545   28.5544 C   0  0  0  0  0  0  0  0  0  0  0  0
   10.3129  -14.7321   29.6719 O   0  0  0  0  0  0  0  0  0  0  0  0
    9.8590  -14.8735   27.3523 C   0  0  0  0  0  0  0  0  0  0  0  0
    9.9747  -16.3525   27.4194 C   0  0  0  0  0  0  0  0  0  0  0  0
   11.0701  -16.8479   26.5156 C   0  0  2  0  0  0  0  0  0  0  0  0
   10.7832  -16.2719   25.1925 N   0  0  0  0  0  0  0  0  0  0  0  0
   11.0673  -18.3098   26.3773 C   0  0  0  0  0  0  0  0  0  0  0  0
   10.7217  -18.8776   25.3174 O   0  0  0  0  0  0  0  0  0  0  0  0
   11.4578  -19.1498   27.4436 O   0  0  0  0  0  0  0  0  0  0  0  0
  2  1  1  0
  3  2  2  0
  4  2  1  0
  5  4  1  0
  5  6  1  1
  7  5  1  0
  7  8  2  0
  9  7  1  0
 10  9  1  0
 10 11  1  0
 11 12  2  0
 11 19  1  0
 14 15  2  0
 14 13  1  0
 16 14  1  0
 17 16  1  0
 18 17  1  1
 19 18  1  0
 20 18  1  0
 20 22  1  0
 21 20  2  0
M  END
$$$$
