NGQ.pdb
     RDKit          3D

 22 21  0  0  1  0  0  0  0  0999 V2000
    9.2161  -16.9482   13.1527 N   0  0  0  0  0  0  0  0  0  0  0  0
    7.9383  -16.5408   13.6702 C   0  0  0  0  0  0  0  0  0  0  0  0
    6.9745  -16.6632   12.8928 O   0  0  0  0  0  0  0  0  0  0  0  0
    7.8020  -16.0203   15.0221 C   0  0  0  0  0  0  0  0  0  0  0  0
    7.4309  -17.0346   16.0761 C   0  0  2  0  0  0  0  0  0  0  0  0
    6.4551  -16.3636   16.9845 N   0  0  0  0  0  0  0  0  0  0  0  0
    8.5829  -17.4083   16.9230 C   0  0  0  0  0  0  0  0  0  0  0  0
    8.9580  -18.6199   16.8955 O   0  0  0  0  0  0  0  0  0  0  0  0
    9.2871  -16.4995   17.7512 N   0  0  0  0  0  0  0  0  0  0  0  0
   10.3953  -16.9998   18.5220 C   0  0  0  0  0  0  0  0  0  0  0  0
   10.2808  -16.8668   19.9684 C   0  0  0  0  0  0  0  0  0  0  0  0
    9.5593  -15.8962   20.3881 O   0  0  0  0  0  0  0  0  0  0  0  0
   11.5372  -20.9757   24.3832 N   0  0  0  0  0  0  0  0  0  0  0  0
   11.2547  -19.8665   25.2080 C   0  0  0  0  0  0  0  0  0  0  0  0
   11.3083  -19.8983   26.4418 O   0  0  0  0  0  0  0  0  0  0  0  0
   10.8660  -18.5729   24.5302 C   0  0  0  0  0  0  0  0  0  0  0  0
   10.9518  -18.7343   23.0564 C   0  0  0  0  0  0  0  0  0  0  0  0
   10.7234  -17.4223   22.3573 C   0  0  2  0  0  0  0  0  0  0  0  0
   10.8882  -17.7036   20.9226 N   0  0  0  0  0  0  0  0  0  0  0  0
   11.7152  -16.4058   22.7308 C   0  0  0  0  0  0  0  0  0  0  0  0
   12.7411  -16.1938   22.0468 O   0  0  0  0  0  0  0  0  0  0  0  0
   11.5557  -15.6139   23.8895 O   0  0  0  0  0  0  0  0  0  0  0  0
  2  1  1  0
  3  2  2  0
  4  2  1  0
  5  4  1  0
  5  6  1  1
  7  5  1  0
  7  8  2  0
  9  7  1  0
 10  9  1  0
 10 11  1  0
 11 12  2  0
 11 19  1  0
 14 15  2  0
 14 13  1  0
 16 14  1  0
 17 16  1  0
 18 17  1  1
 19 18  1  0
 20 18  1  0
 20 22  1  0
 21 20  2  0
M  END
$$$$
