NGQ.pdb
     RDKit          3D

 22 21  0  0  1  0  0  0  0  0999 V2000
    8.6512  -13.4210   17.1185 N   0  0  0  0  0  0  0  0  0  0  0  0
    7.3708  -13.4063   17.7718 C   0  0  0  0  0  0  0  0  0  0  0  0
    6.4198  -12.9811   17.0912 O   0  0  0  0  0  0  0  0  0  0  0  0
    7.2177  -13.8646   19.1443 C   0  0  0  0  0  0  0  0  0  0  0  0
    8.4879  -14.3069   19.8287 C   0  0  2  0  0  0  0  0  0  0  0  0
    8.9340  -15.5490   19.1317 N   0  0  0  0  0  0  0  0  0  0  0  0
    8.2595  -14.6917   21.2371 C   0  0  0  0  0  0  0  0  0  0  0  0
    8.1597  -13.7561   22.0882 O   0  0  0  0  0  0  0  0  0  0  0  0
    8.1426  -16.0308   21.6852 N   0  0  0  0  0  0  0  0  0  0  0  0
    7.9514  -16.2630   23.0931 C   0  0  0  0  0  0  0  0  0  0  0  0
    9.1612  -16.3164   23.9031 C   0  0  0  0  0  0  0  0  0  0  0  0
   10.2305  -15.8876   23.3451 O   0  0  0  0  0  0  0  0  0  0  0  0
   10.8501  -13.3184   28.1379 N   0  0  0  0  0  0  0  0  0  0  0  0
    9.6792  -14.0718   28.3663 C   0  0  0  0  0  0  0  0  0  0  0  0
    8.7970  -13.7421   29.1656 O   0  0  0  0  0  0  0  0  0  0  0  0
    9.5081  -15.3519   27.5816 C   0  0  0  0  0  0  0  0  0  0  0  0
   10.6531  -15.5265   26.6521 C   0  0  0  0  0  0  0  0  0  0  0  0
   10.5487  -16.8299   25.9088 C   0  0  2  0  0  0  0  0  0  0  0  0
    9.2469  -16.7926   25.2244 N   0  0  0  0  0  0  0  0  0  0  0  0
   10.5489  -17.9914   26.8072 C   0  0  0  0  0  0  0  0  0  0  0  0
    9.5343  -18.7042   26.9738 O   0  0  0  0  0  0  0  0  0  0  0  0
   11.7042  -18.3607   27.5311 O   0  0  0  0  0  0  0  0  0  0  0  0
  2  1  1  0
  3  2  2  0
  4  2  1  0
  5  4  1  0
  5  6  1  6
  7  5  1  0
  7  8  2  0
  9  7  1  0
 10  9  1  0
 10 11  1  0
 11 12  2  0
 11 19  1  0
 14 15  2  0
 14 13  1  0
 16 14  1  0
 17 16  1  0
 18 17  1  1
 19 18  1  0
 20 18  1  0
 20 22  1  0
 21 20  2  0
M  END
$$$$
