GCK.pdb
     RDKit          3D

 20 19  0  0  1  0  0  0  0  0999 V2000
   25.3982  -14.2346  -19.2371 N   0  0  0  0  0  0  0  0  0  0  0  0
   25.3707  -12.8116  -19.3937 C   0  0  0  0  0  0  0  0  0  0  0  0
   24.9377  -12.1136  -18.1670 C   0  0  0  0  0  0  0  0  0  0  0  0
   23.9175  -12.4490  -17.5122 O   0  0  0  0  0  0  0  0  0  0  0  0
   25.6873  -11.0143  -17.6852 N   0  0  0  0  0  0  0  0  0  0  0  0
   25.3422  -10.2290  -16.5453 C   0  0  1  0  0  0  0  0  0  0  0  0
   26.5327   -9.4884  -15.9792 C   0  0  0  0  0  0  0  0  0  0  0  0
   27.6522  -10.6793  -15.1732 S   0  0  0  0  0  0  0  0  0  0  0  0
   24.2731   -9.2362  -16.8168 C   0  0  0  0  0  0  0  0  0  0  0  0
   24.2907   -8.5520  -17.8663 O   0  0  0  0  0  0  0  0  0  0  0  0
   23.2180   -9.0397  -15.9062 N   0  0  0  0  0  0  0  0  0  0  0  0
   22.1315   -8.1311  -16.2660 C   0  0  1  0  0  0  0  0  0  0  0  0
   20.8656   -8.9031  -16.5166 C   0  0  0  0  0  0  0  0  0  0  0  0
   19.7952   -7.9612  -16.9868 C   0  0  0  0  0  0  0  0  0  0  0  0
   18.5097   -8.7120  -17.3298 C   0  0  0  0  0  0  0  0  0  0  0  0
   17.5440   -7.6535  -17.8563 C   0  0  0  0  0  0  0  0  0  0  0  0
   16.2994   -8.2763  -18.1943 N   0  0  0  0  0  0  0  0  0  0  0  0
   21.9859   -7.0651  -15.2767 C   0  0  0  0  0  0  0  0  0  0  0  0
   22.3759   -7.2938  -14.0828 O   0  0  0  0  0  0  0  0  0  0  0  0
   21.4623   -5.8124  -15.5095 O   0  0  0  0  0  0  0  0  0  0  0  0
  1  2  1  0
  3  2  1  0
  3  5  1  0
  4  3  2  0
  6  5  1  0
  6  7  1  6
  8  7  1  0
  9  6  1  0
 10  9  2  0
 11  9  1  0
 12 13  1  1
 12 11  1  0
 13 14  1  0
 14 15  1  0
 15 16  1  0
 16 17  1  0
 18 12  1  0
 19 18  2  0
 20 18  1  0
M  END
$$$$
