GCK.pdb
     RDKit          3D

 20 19  0  0  1  0  0  0  0  0999 V2000
   19.6850  -12.9404  -16.7615 N   0  0  0  0  0  0  0  0  0  0  0  0
   20.0790  -11.6873  -17.3315 C   0  0  0  0  0  0  0  0  0  0  0  0
   20.0890  -10.5917  -16.3420 C   0  0  0  0  0  0  0  0  0  0  0  0
   19.1150  -10.3426  -15.5862 O   0  0  0  0  0  0  0  0  0  0  0  0
   21.2345   -9.7700  -16.2188 N   0  0  0  0  0  0  0  0  0  0  0  0
   21.3094   -8.5900  -15.4206 C   0  0  1  0  0  0  0  0  0  0  0  0
   22.7240   -8.2844  -14.9828 C   0  0  0  0  0  0  0  0  0  0  0  0
   23.3124   -9.6143  -13.8844 S   0  0  0  0  0  0  0  0  0  0  0  0
   20.7708   -7.3853  -16.0996 C   0  0  0  0  0  0  0  0  0  0  0  0
   21.0156   -7.1733  -17.3101 O   0  0  0  0  0  0  0  0  0  0  0  0
   19.9754   -6.4556  -15.4038 N   0  0  0  0  0  0  0  0  0  0  0  0
   19.4337   -5.3063  -16.1257 C   0  0  1  0  0  0  0  0  0  0  0  0
   17.9382   -5.2532  -15.9772 C   0  0  0  0  0  0  0  0  0  0  0  0
   17.4098   -4.0517  -16.7060 C   0  0  0  0  0  0  0  0  0  0  0  0
   15.8979   -3.9197  -16.5315 C   0  0  0  0  0  0  0  0  0  0  0  0
   15.4856   -2.7364  -17.4033 C   0  0  0  0  0  0  0  0  0  0  0  0
   14.0796   -2.5078  -17.2547 N   0  0  0  0  0  0  0  0  0  0  0  0
   20.1092   -4.0709  -15.7336 C   0  0  0  0  0  0  0  0  0  0  0  0
   20.5351   -3.9717  -14.5341 O   0  0  0  0  0  0  0  0  0  0  0  0
   20.3395   -2.9826  -16.5461 O   0  0  0  0  0  0  0  0  0  0  0  0
  1  2  1  0
  3  2  1  0
  3  5  1  0
  4  3  2  0
  6  5  1  0
  6  7  1  6
  8  7  1  0
  9  6  1  0
 10  9  2  0
 11  9  1  0
 12 13  1  1
 12 11  1  0
 13 14  1  0
 14 15  1  0
 15 16  1  0
 16 17  1  0
 18 12  1  0
 19 18  2  0
 20 18  1  0
M  END
$$$$
