GCK.pdb
     RDKit          3D

 20 19  0  0  1  0  0  0  0  0999 V2000
   28.1095  -21.3936  -16.2088 N   0  0  0  0  0  0  0  0  0  0  0  0
   27.9398  -20.6214  -15.0150 C   0  0  0  0  0  0  0  0  0  0  0  0
   26.9015  -21.1750  -14.1235 C   0  0  0  0  0  0  0  0  0  0  0  0
   26.0683  -22.0401  -14.4971 O   0  0  0  0  0  0  0  0  0  0  0  0
   26.8187  -20.7287  -12.7831 N   0  0  0  0  0  0  0  0  0  0  0  0
   25.7896  -21.0927  -11.8647 C   0  0  1  0  0  0  0  0  0  0  0  0
   26.1153  -20.6786  -10.4473 C   0  0  0  0  0  0  0  0  0  0  0  0
   24.7075  -21.0872   -9.3645 S   0  0  0  0  0  0  0  0  0  0  0  0
   24.4630  -20.5262  -12.2129 C   0  0  0  0  0  0  0  0  0  0  0  0
   24.3173  -19.2907  -12.3630 O   0  0  0  0  0  0  0  0  0  0  0  0
   23.3410  -21.3589  -12.3825 N   0  0  0  0  0  0  0  0  0  0  0  0
   22.0709  -20.7621  -12.7903 C   0  0  1  0  0  0  0  0  0  0  0  0
   21.5704  -21.4091  -14.0520 C   0  0  0  0  0  0  0  0  0  0  0  0
   20.3023  -20.7330  -14.4868 C   0  0  0  0  0  0  0  0  0  0  0  0
   19.7616  -21.3484  -15.7763 C   0  0  0  0  0  0  0  0  0  0  0  0
   18.5836  -20.4694  -16.1883 C   0  0  0  0  0  0  0  0  0  0  0  0
   17.9825  -21.0094  -17.3708 N   0  0  0  0  0  0  0  0  0  0  0  0
   21.1036  -20.7803  -11.6947 C   0  0  0  0  0  0  0  0  0  0  0  0
   21.0858  -21.7977  -10.9236 O   0  0  0  0  0  0  0  0  0  0  0  0
   20.1934  -19.7882  -11.4035 O   0  0  0  0  0  0  0  0  0  0  0  0
  1  2  1  0
  3  2  1  0
  3  5  1  0
  4  3  2  0
  6  5  1  0
  6  7  1  1
  8  7  1  0
  9  6  1  0
 10  9  2  0
 11  9  1  0
 12 13  1  6
 12 11  1  0
 13 14  1  0
 14 15  1  0
 15 16  1  0
 16 17  1  0
 18 12  1  0
 19 18  2  0
 20 18  1  0
M  END
$$$$
