GCK.pdb
     RDKit          3D

 20 19  0  0  1  0  0  0  0  0999 V2000
   13.4369  -12.2407  -10.7191 N   0  0  0  0  0  0  0  0  0  0  0  0
   14.6049  -11.4802  -10.3906 C   0  0  0  0  0  0  0  0  0  0  0  0
   14.3354  -10.0308  -10.3131 C   0  0  0  0  0  0  0  0  0  0  0  0
   13.3185   -9.4951  -10.8241 O   0  0  0  0  0  0  0  0  0  0  0  0
   15.2470   -9.1840   -9.6390 N   0  0  0  0  0  0  0  0  0  0  0  0
   15.0934   -7.7734   -9.4915 C   0  0  1  0  0  0  0  0  0  0  0  0
   15.5494   -7.2873   -8.1343 C   0  0  0  0  0  0  0  0  0  0  0  0
   15.3234   -5.4815   -8.0369 S   0  0  0  0  0  0  0  0  0  0  0  0
   15.8177   -6.9916  -10.5242 C   0  0  0  0  0  0  0  0  0  0  0  0
   17.0649   -7.0647  -10.6202 O   0  0  0  0  0  0  0  0  0  0  0  0
   15.1247   -6.1527  -11.4170 N   0  0  0  0  0  0  0  0  0  0  0  0
   15.8775   -5.4332  -12.4421 C   0  0  1  0  0  0  0  0  0  0  0  0
   15.1937   -5.5558  -13.7757 C   0  0  0  0  0  0  0  0  0  0  0  0
   15.9506   -4.7565  -14.7966 C   0  0  0  0  0  0  0  0  0  0  0  0
   16.1140   -5.5369  -16.0997 C   0  0  0  0  0  0  0  0  0  0  0  0
   16.9155   -4.6260  -17.0261 C   0  0  0  0  0  0  0  0  0  0  0  0
   17.0764   -5.2682  -18.2961 N   0  0  0  0  0  0  0  0  0  0  0  0
   16.1346   -4.0527  -12.0363 C   0  0  0  0  0  0  0  0  0  0  0  0
   15.3248   -3.5055  -11.2149 O   0  0  0  0  0  0  0  0  0  0  0  0
   17.1862   -3.2689  -12.4575 O   0  0  0  0  0  0  0  0  0  0  0  0
  1  2  1  0
  3  2  1  0
  3  5  1  0
  4  3  2  0
  6  5  1  0
  6  7  1  1
  8  7  1  0
  9  6  1  0
 10  9  2  0
 11  9  1  0
 12 13  1  6
 12 11  1  0
 13 14  1  0
 14 15  1  0
 15 16  1  0
 16 17  1  0
 18 12  1  0
 19 18  2  0
 20 18  1  0
M  END
$$$$
