GCK.pdb
     RDKit          3D

 20 19  0  0  1  0  0  0  0  0999 V2000
   23.8878  -19.8834  -16.4014 N   0  0  0  0  0  0  0  0  0  0  0  0
   23.8972  -18.7419  -17.2658 C   0  0  0  0  0  0  0  0  0  0  0  0
   23.6756  -17.4768  -16.5379 C   0  0  0  0  0  0  0  0  0  0  0  0
   22.6176  -17.2270  -15.9052 O   0  0  0  0  0  0  0  0  0  0  0  0
   24.6838  -16.4838  -16.5366 N   0  0  0  0  0  0  0  0  0  0  0  0
   24.5331  -15.1696  -16.0025 C   0  0  1  0  0  0  0  0  0  0  0  0
   25.8619  -14.4734  -15.8130 C   0  0  0  0  0  0  0  0  0  0  0  0
   26.8467  -15.3855  -14.5803 S   0  0  0  0  0  0  0  0  0  0  0  0
   23.6717  -14.2921  -16.8333 C   0  0  0  0  0  0  0  0  0  0  0  0
   23.6988  -14.3717  -18.0835 O   0  0  0  0  0  0  0  0  0  0  0  0
   22.8071  -13.3532  -16.2400 N   0  0  0  0  0  0  0  0  0  0  0  0
   21.9164  -12.5713  -17.0949 C   0  0  1  0  0  0  0  0  0  0  0  0
   20.4885  -12.9959  -16.8893 C   0  0  0  0  0  0  0  0  0  0  0  0
   19.5860  -12.1080  -17.6963 C   0  0  0  0  0  0  0  0  0  0  0  0
   18.7261  -12.9233  -18.6605 C   0  0  0  0  0  0  0  0  0  0  0  0
   17.8718  -11.9047  -19.4106 C   0  0  0  0  0  0  0  0  0  0  0  0
   16.9441  -12.5966  -20.2544 N   0  0  0  0  0  0  0  0  0  0  0  0
   22.1367  -11.1376  -16.9149 C   0  0  0  0  0  0  0  0  0  0  0  0
   22.6399  -10.7393  -15.8112 O   0  0  0  0  0  0  0  0  0  0  0  0
   21.8529  -10.1542  -17.8368 O   0  0  0  0  0  0  0  0  0  0  0  0
  1  2  1  0
  3  2  1  0
  3  5  1  0
  4  3  2  0
  6  5  1  0
  6  7  1  6
  8  7  1  0
  9  6  1  0
 10  9  2  0
 11  9  1  0
 12 13  1  1
 12 11  1  0
 13 14  1  0
 14 15  1  0
 15 16  1  0
 16 17  1  0
 18 12  1  0
 19 18  2  0
 20 18  1  0
M  END
$$$$
