GCK.pdb
     RDKit          3D

 20 19  0  0  1  0  0  0  0  0999 V2000
   20.9229  -21.9070  -12.3570 N   0  0  0  0  0  0  0  0  0  0  0  0
   21.1789  -20.7086  -13.0978 C   0  0  0  0  0  0  0  0  0  0  0  0
   22.5897  -20.2813  -13.0164 C   0  0  0  0  0  0  0  0  0  0  0  0
   22.9813  -19.1405  -13.3731 O   0  0  0  0  0  0  0  0  0  0  0  0
   23.5651  -21.1773  -12.5182 N   0  0  0  0  0  0  0  0  0  0  0  0
   24.9619  -20.8992  -12.4370 C   0  0  1  0  0  0  0  0  0  0  0  0
   25.6715  -21.8134  -11.4638 C   0  0  0  0  0  0  0  0  0  0  0  0
   27.4438  -21.3904  -11.4268 S   0  0  0  0  0  0  0  0  0  0  0  0
   25.6577  -20.9950  -13.7444 C   0  0  0  0  0  0  0  0  0  0  0  0
   25.5520  -22.0262  -14.4482 O   0  0  0  0  0  0  0  0  0  0  0  0
   26.4497  -19.9347  -14.2235 N   0  0  0  0  0  0  0  0  0  0  0  0
   27.0081  -20.0204  -15.5712 C   0  0  1  0  0  0  0  0  0  0  0  0
   27.4680  -18.6655  -16.0337 C   0  0  0  0  0  0  0  0  0  0  0  0
   26.9596  -18.4172  -17.4243 C   0  0  0  0  0  0  0  0  0  0  0  0
   27.3518  -17.0250  -17.9162 C   0  0  0  0  0  0  0  0  0  0  0  0
   26.8827  -16.9549  -19.3671 C   0  0  0  0  0  0  0  0  0  0  0  0
   27.0679  -15.6227  -19.8593 N   0  0  0  0  0  0  0  0  0  0  0  0
   28.0407  -21.0518  -15.6497 C   0  0  0  0  0  0  0  0  0  0  0  0
   28.7639  -21.2600  -14.6184 O   0  0  0  0  0  0  0  0  0  0  0  0
   28.3146  -21.8395  -16.7461 O   0  0  0  0  0  0  0  0  0  0  0  0
  1  2  1  0
  3  2  1  0
  3  5  1  0
  4  3  2  0
  6  5  1  0
  6  7  1  1
  8  7  1  0
  9  6  1  0
 10  9  2  0
 11  9  1  0
 12 13  1  1
 12 11  1  0
 13 14  1  0
 14 15  1  0
 15 16  1  0
 16 17  1  0
 18 12  1  0
 19 18  2  0
 20 18  1  0
M  END
$$$$
