GCK.pdb
     RDKit          3D

 20 19  0  0  1  0  0  0  0  0999 V2000
   18.8629  -14.8995  -16.3673 N   0  0  0  0  0  0  0  0  0  0  0  0
   18.8218  -13.6922  -17.1361 C   0  0  0  0  0  0  0  0  0  0  0  0
   19.6517  -12.6194  -16.5533 C   0  0  0  0  0  0  0  0  0  0  0  0
   20.2194  -12.7234  -15.4357 O   0  0  0  0  0  0  0  0  0  0  0  0
   19.8325  -11.4094  -17.2644 N   0  0  0  0  0  0  0  0  0  0  0  0
   20.6376  -10.3173  -16.8238 C   0  0  1  0  0  0  0  0  0  0  0  0
   21.4614   -9.7252  -17.9451 C   0  0  0  0  0  0  0  0  0  0  0  0
   22.7427  -10.9212  -18.4442 S   0  0  0  0  0  0  0  0  0  0  0  0
   19.8531   -9.2203  -16.2045 C   0  0  0  0  0  0  0  0  0  0  0  0
   18.8077   -8.7977  -16.7509 O   0  0  0  0  0  0  0  0  0  0  0  0
   20.2623   -8.6304  -14.9939 N   0  0  0  0  0  0  0  0  0  0  0  0
   19.4394   -7.5754  -14.4062 C   0  0  1  0  0  0  0  0  0  0  0  0
   19.1575   -7.8766  -12.9602 C   0  0  0  0  0  0  0  0  0  0  0  0
   18.2553   -6.8157  -12.3993 C   0  0  0  0  0  0  0  0  0  0  0  0
   18.0260   -7.0193  -10.9027 C   0  0  0  0  0  0  0  0  0  0  0  0
   17.1259   -5.8668  -10.4646 C   0  0  0  0  0  0  0  0  0  0  0  0
   16.8652   -5.9787   -9.0608 N   0  0  0  0  0  0  0  0  0  0  0  0
   20.0322   -6.2581  -14.6291 C   0  0  0  0  0  0  0  0  0  0  0  0
   21.3051   -6.1702  -14.6747 O   0  0  0  0  0  0  0  0  0  0  0  0
   19.3408   -5.0793  -14.8017 O   0  0  0  0  0  0  0  0  0  0  0  0
  1  2  1  0
  3  2  1  0
  3  5  1  0
  4  3  2  0
  6  5  1  0
  6  7  1  6
  8  7  1  0
  9  6  1  0
 10  9  2  0
 11  9  1  0
 12 13  1  1
 12 11  1  0
 13 14  1  0
 14 15  1  0
 15 16  1  0
 16 17  1  0
 18 12  1  0
 19 18  2  0
 20 18  1  0
M  END
$$$$
