GCK.pdb
     RDKit          3D

 20 19  0  0  1  0  0  0  0  0999 V2000
   17.5300  -10.6065  -11.9948 N   0  0  0  0  0  0  0  0  0  0  0  0
   17.0256   -9.8882  -13.1260 C   0  0  0  0  0  0  0  0  0  0  0  0
   15.6311   -9.4411  -12.9388 C   0  0  0  0  0  0  0  0  0  0  0  0
   14.9717   -8.8598  -13.8385 O   0  0  0  0  0  0  0  0  0  0  0  0
   14.9843   -9.6648  -11.7003 N   0  0  0  0  0  0  0  0  0  0  0  0
   13.6194   -9.3539  -11.4253 C   0  0  1  0  0  0  0  0  0  0  0  0
   13.0096  -10.2995  -10.4152 C   0  0  0  0  0  0  0  0  0  0  0  0
   13.1454  -12.0080  -11.0348 S   0  0  0  0  0  0  0  0  0  0  0  0
   13.4194   -7.9682  -10.9331 C   0  0  0  0  0  0  0  0  0  0  0  0
   12.2838   -7.4396  -10.9621 O   0  0  0  0  0  0  0  0  0  0  0  0
   14.4955   -7.2173  -10.4239 N   0  0  0  0  0  0  0  0  0  0  0  0
   14.2824   -5.8109  -10.0894 C   0  0  1  0  0  0  0  0  0  0  0  0
   14.1018   -5.6478   -8.6055 C   0  0  0  0  0  0  0  0  0  0  0  0
   13.9325   -4.1912   -8.2836 C   0  0  0  0  0  0  0  0  0  0  0  0
   13.8388   -3.9654   -6.7756 C   0  0  0  0  0  0  0  0  0  0  0  0
   12.4233   -3.4523   -6.5243 C   0  0  0  0  0  0  0  0  0  0  0  0
   12.2576   -3.1899   -5.1261 N   0  0  0  0  0  0  0  0  0  0  0  0
   15.3376   -4.9695  -10.6507 C   0  0  0  0  0  0  0  0  0  0  0  0
   16.4430   -5.5225  -10.9703 O   0  0  0  0  0  0  0  0  0  0  0  0
   15.2555   -3.6131  -10.8768 O   0  0  0  0  0  0  0  0  0  0  0  0
  1  2  1  0
  3  2  1  0
  3  5  1  0
  4  3  2  0
  6  5  1  0
  6  7  1  1
  8  7  1  0
  9  6  1  0
 10  9  2  0
 11  9  1  0
 12 13  1  1
 12 11  1  0
 13 14  1  0
 14 15  1  0
 15 16  1  0
 16 17  1  0
 18 12  1  0
 19 18  2  0
 20 18  1  0
M  END
$$$$
