LMT.pdb
     RDKit          3D

 24 23  0  0  1  0  0  0  0  0999 V2000
    5.0152  -17.5840   19.8052 C   0  0  0  0  0  0  0  0  0  0  0  0
    6.3521  -18.2551   19.8265 C   0  0  2  0  0  0  0  0  0  0  0  0
    6.2063  -19.7437   19.9231 C   0  0  0  0  0  0  0  0  0  0  0  0
    7.2420  -17.6767   20.8773 C   0  0  0  0  0  0  0  0  0  0  0  0
    7.2699  -16.1788   20.9272 C   0  0  2  0  0  0  0  0  0  0  0  0
    7.8493  -15.6015   19.7482 N   0  0  0  0  0  0  0  0  0  0  0  0
    8.0652  -15.7874   22.1220 C   0  0  0  0  0  0  0  0  0  0  0  0
    9.3278  -15.6512   22.0583 O   0  0  0  0  0  0  0  0  0  0  0  0
    6.2557  -10.6774   26.5088 C   0  0  0  0  0  0  0  0  0  0  0  0
    6.6809  -12.4055   26.8501 S   0  0  0  0  0  0  0  0  0  0  0  0
    7.1017  -13.2275   25.2637 C   0  0  0  0  0  0  0  0  0  0  0  0
    7.4625  -14.6350   25.5876 C   0  0  0  0  0  0  0  0  0  0  0  0
    8.3486  -15.3140   24.5777 C   0  0  2  0  0  0  0  0  0  0  0  0
    7.4888  -15.5391   23.4048 N   0  0  0  0  0  0  0  0  0  0  0  0
    8.9232  -16.5860   25.0422 C   0  0  0  0  0  0  0  0  0  0  0  0
    8.1548  -17.5905   25.2212 O   0  0  0  0  0  0  0  0  0  0  0  0
   13.0040  -19.2106   25.5051 C   0  0  0  0  0  0  0  0  0  0  0  0
   12.2812  -17.9676   25.0960 C   0  0  1  0  0  0  0  0  0  0  0  0
   12.1271  -18.0312   23.6923 O   0  0  0  0  0  0  0  0  0  0  0  0
   10.8982  -17.9006   25.7231 C   0  0  2  0  0  0  0  0  0  0  0  0
   10.3141  -16.6632   25.2783 N   0  0  0  0  0  0  0  0  0  0  0  0
   10.9572  -18.0186   27.1885 C   0  0  0  0  0  0  0  0  0  0  0  0
   11.1607  -19.1462   27.6963 O   0  0  0  0  0  0  0  0  0  0  0  0
   10.7914  -16.9089   27.9778 O   0  0  0  0  0  0  0  0  0  0  0  0
  2  1  1  1
  3  2  1  0
  4  2  1  0
  5  4  1  0
  5  6  1  6
  7  8  2  0
  7  5  1  0
  9 10  1  0
 11 10  1  0
 12 11  1  0
 13 12  1  1
 13 14  1  0
 14  7  1  0
 15 13  1  0
 15 16  2  0
 18 17  1  1
 19 18  1  0
 20 21  1  1
 20 18  1  0
 21 15  1  0
 22 20  1  0
 23 22  2  0
 24 22  1  0
M  END
$$$$
