LMT.pdb
     RDKit          3D

 24 23  0  0  1  0  0  0  0  0999 V2000
    7.0570  -17.0473   18.2751 C   0  0  0  0  0  0  0  0  0  0  0  0
    6.9968  -15.6080   18.6787 C   0  0  2  0  0  0  0  0  0  0  0  0
    7.3448  -14.7110   17.5293 C   0  0  0  0  0  0  0  0  0  0  0  0
    7.8098  -15.3450   19.9037 C   0  0  0  0  0  0  0  0  0  0  0  0
    7.6568  -13.9698   20.4802 C   0  0  2  0  0  0  0  0  0  0  0  0
    8.3134  -12.9678   19.6904 N   0  0  0  0  0  0  0  0  0  0  0  0
    8.2392  -13.9930   21.8490 C   0  0  0  0  0  0  0  0  0  0  0  0
    9.4818  -13.8030   22.0404 O   0  0  0  0  0  0  0  0  0  0  0  0
    7.4773  -11.6696   27.9504 C   0  0  0  0  0  0  0  0  0  0  0  0
    6.2265  -11.5940   26.6414 S   0  0  0  0  0  0  0  0  0  0  0  0
    6.9584  -12.2602   25.0954 C   0  0  0  0  0  0  0  0  0  0  0  0
    7.1951  -13.7127   25.3192 C   0  0  0  0  0  0  0  0  0  0  0  0
    8.1302  -14.3647   24.3359 C   0  0  2  0  0  0  0  0  0  0  0  0
    7.4687  -14.2247   23.0289 N   0  0  0  0  0  0  0  0  0  0  0  0
    8.4075  -15.7811   24.6197 C   0  0  0  0  0  0  0  0  0  0  0  0
    7.4517  -16.6271   24.5709 O   0  0  0  0  0  0  0  0  0  0  0  0
   12.2871  -17.1180   24.2023 C   0  0  0  0  0  0  0  0  0  0  0  0
   11.0471  -17.9467   24.0992 C   0  0  1  0  0  0  0  0  0  0  0  0
   11.4346  -19.2868   24.3273 O   0  0  0  0  0  0  0  0  0  0  0  0
   10.0326  -17.5579   25.1623 C   0  0  2  0  0  0  0  0  0  0  0  0
    9.7278  -16.1696   24.9392 N   0  0  0  0  0  0  0  0  0  0  0  0
   10.5326  -17.8297   26.5191 C   0  0  0  0  0  0  0  0  0  0  0  0
   10.7217  -16.8660   27.2977 O   0  0  0  0  0  0  0  0  0  0  0  0
   10.7850  -19.1180   26.9168 O   0  0  0  0  0  0  0  0  0  0  0  0
  2  1  1  6
  3  2  1  0
  4  2  1  0
  5  4  1  0
  5  6  1  6
  7  8  2  0
  7  5  1  0
  9 10  1  0
 11 10  1  0
 12 11  1  0
 13 12  1  1
 13 14  1  0
 14  7  1  0
 15 13  1  0
 15 16  2  0
 18 17  1  1
 19 18  1  0
 20 21  1  1
 20 18  1  0
 21 15  1  0
 22 20  1  0
 23 22  2  0
 24 22  1  0
M  END
$$$$
