LMT.pdb
     RDKit          3D

 24 23  0  0  1  0  0  0  0  0999 V2000
    8.4191  -14.5871   18.4230 C   0  0  0  0  0  0  0  0  0  0  0  0
    7.8965  -13.6092   19.4274 C   0  0  2  0  0  0  0  0  0  0  0  0
    7.8386  -12.2259   18.8530 C   0  0  0  0  0  0  0  0  0  0  0  0
    8.6498  -13.6861   20.7147 C   0  0  0  0  0  0  0  0  0  0  0  0
    8.6373  -15.0320   21.3746 C   0  0  2  0  0  0  0  0  0  0  0  0
    7.3549  -15.6707   21.2935 N   0  0  0  0  0  0  0  0  0  0  0  0
    9.0108  -14.8326   22.8007 C   0  0  0  0  0  0  0  0  0  0  0  0
   10.1824  -14.4642   23.1305 O   0  0  0  0  0  0  0  0  0  0  0  0
    5.6831  -12.2517   27.5540 C   0  0  0  0  0  0  0  0  0  0  0  0
    6.9054  -11.3336   26.5810 S   0  0  0  0  0  0  0  0  0  0  0  0
    7.5799  -12.4490   25.2885 C   0  0  0  0  0  0  0  0  0  0  0  0
    7.5175  -13.8323   25.8348 C   0  0  0  0  0  0  0  0  0  0  0  0
    8.5374  -14.7860   25.2723 C   0  0  2  0  0  0  0  0  0  0  0  0
    8.1061  -15.0336   23.8873 N   0  0  0  0  0  0  0  0  0  0  0  0
    8.6439  -16.0546   26.0093 C   0  0  0  0  0  0  0  0  0  0  0  0
    8.6607  -16.0359   27.2864 O   0  0  0  0  0  0  0  0  0  0  0  0
    6.9087  -19.3677   24.7913 C   0  0  0  0  0  0  0  0  0  0  0  0
    8.3587  -19.5935   25.0768 C   0  0  1  0  0  0  0  0  0  0  0  0
    9.0317  -19.5275   23.8355 O   0  0  0  0  0  0  0  0  0  0  0  0
    8.9199  -18.5072   25.9799 C   0  0  2  0  0  0  0  0  0  0  0  0
    8.7246  -17.2637   25.2829 N   0  0  0  0  0  0  0  0  0  0  0  0
   10.3268  -18.7602   26.3284 C   0  0  0  0  0  0  0  0  0  0  0  0
   11.2127  -18.0199   25.8407 O   0  0  0  0  0  0  0  0  0  0  0  0
   10.6544  -19.7904   27.1729 O   0  0  0  0  0  0  0  0  0  0  0  0
  2  1  1  6
  3  2  1  0
  4  2  1  0
  5  4  1  0
  5  6  1  1
  7  8  2  0
  7  5  1  0
  9 10  1  0
 11 10  1  0
 12 11  1  0
 13 12  1  1
 13 14  1  0
 14  7  1  0
 15 13  1  0
 15 16  2  0
 18 17  1  6
 19 18  1  0
 20 21  1  6
 20 18  1  0
 21 15  1  0
 22 20  1  0
 23 22  2  0
 24 22  1  0
M  END
$$$$
