LMT.pdb
     RDKit          3D

 24 23  0  0  1  0  0  0  0  0999 V2000
    8.0037  -14.5376   17.6739 C   0  0  0  0  0  0  0  0  0  0  0  0
    7.6695  -13.6600   18.8386 C   0  0  2  0  0  0  0  0  0  0  0  0
    7.5494  -12.2268   18.4163 C   0  0  0  0  0  0  0  0  0  0  0  0
    8.6178  -13.8665   19.9738 C   0  0  0  0  0  0  0  0  0  0  0  0
    8.6196  -15.2496   20.5518 C   0  0  2  0  0  0  0  0  0  0  0  0
    7.3387  -15.8882   20.4500 N   0  0  0  0  0  0  0  0  0  0  0  0
    9.0121  -15.1343   21.9822 C   0  0  0  0  0  0  0  0  0  0  0  0
   10.2081  -14.8630   22.3182 O   0  0  0  0  0  0  0  0  0  0  0  0
    6.7951  -11.7555   28.4546 C   0  0  0  0  0  0  0  0  0  0  0  0
    6.4325  -12.4488   26.8202 S   0  0  0  0  0  0  0  0  0  0  0  0
    7.7080  -13.7080   26.4240 C   0  0  0  0  0  0  0  0  0  0  0  0
    7.4980  -14.1054   25.0049 C   0  0  0  0  0  0  0  0  0  0  0  0
    8.5263  -15.0550   24.4505 C   0  0  2  0  0  0  0  0  0  0  0  0
    8.0999  -15.3144   23.0661 N   0  0  0  0  0  0  0  0  0  0  0  0
    8.6405  -16.3181   25.1956 C   0  0  0  0  0  0  0  0  0  0  0  0
    7.6218  -17.0830   25.2890 O   0  0  0  0  0  0  0  0  0  0  0  0
   10.7780  -18.8077   24.2349 C   0  0  0  0  0  0  0  0  0  0  0  0
   11.1303  -18.6589   25.6802 C   0  0  1  0  0  0  0  0  0  0  0  0
   12.3073  -17.8780   25.7326 O   0  0  0  0  0  0  0  0  0  0  0  0
   10.0389  -17.9251   26.4424 C   0  0  2  0  0  0  0  0  0  0  0  0
    9.8779  -16.6530   25.7897 N   0  0  0  0  0  0  0  0  0  0  0  0
   10.3593  -17.8046   27.8734 C   0  0  0  0  0  0  0  0  0  0  0  0
   10.5713  -16.6656   28.3513 O   0  0  0  0  0  0  0  0  0  0  0  0
   10.4230  -18.9242   28.6633 O   0  0  0  0  0  0  0  0  0  0  0  0
  2  1  1  6
  3  2  1  0
  4  2  1  0
  5  4  1  0
  5  6  1  1
  7  8  2  0
  7  5  1  0
  9 10  1  0
 11 10  1  0
 12 11  1  0
 13 12  1  1
 13 14  1  0
 14  7  1  0
 15 13  1  0
 15 16  2  0
 18 17  1  6
 19 18  1  0
 20 21  1  6
 20 18  1  0
 21 15  1  0
 22 20  1  0
 23 22  2  0
 24 22  1  0
M  END
$$$$
