LMT.pdb
     RDKit          3D

 24 23  0  0  1  0  0  0  0  0999 V2000
    6.7151  -13.4000   19.7421 C   0  0  0  0  0  0  0  0  0  0  0  0
    8.1055  -13.2085   20.2601 C   0  0  2  0  0  0  0  0  0  0  0  0
    8.6910  -11.9194   19.7680 C   0  0  0  0  0  0  0  0  0  0  0  0
    8.9662  -14.3964   19.9795 C   0  0  0  0  0  0  0  0  0  0  0  0
    8.6537  -15.6110   20.8005 C   0  0  2  0  0  0  0  0  0  0  0  0
    7.2512  -15.9138   20.8201 N   0  0  0  0  0  0  0  0  0  0  0  0
    9.1311  -15.3482   22.1848 C   0  0  0  0  0  0  0  0  0  0  0  0
   10.3632  -15.1536   22.4318 O   0  0  0  0  0  0  0  0  0  0  0  0
    5.6054  -12.5243   26.6271 C   0  0  0  0  0  0  0  0  0  0  0  0
    7.3161  -12.1729   27.1103 S   0  0  0  0  0  0  0  0  0  0  0  0
    8.3574  -13.6171   26.6636 C   0  0  0  0  0  0  0  0  0  0  0  0
    7.9483  -14.0394   25.2960 C   0  0  0  0  0  0  0  0  0  0  0  0
    8.8172  -15.0971   24.6694 C   0  0  2  0  0  0  0  0  0  0  0  0
    8.2656  -15.2945   23.3194 N   0  0  0  0  0  0  0  0  0  0  0  0
    8.8373  -16.3708   25.4049 C   0  0  0  0  0  0  0  0  0  0  0  0
    7.7506  -17.0264   25.5492 O   0  0  0  0  0  0  0  0  0  0  0  0
   10.5729  -19.0940   24.3316 C   0  0  0  0  0  0  0  0  0  0  0  0
   11.0593  -18.9752   25.7402 C   0  0  1  0  0  0  0  0  0  0  0  0
   12.3142  -18.3270   25.6829 O   0  0  0  0  0  0  0  0  0  0  0  0
   10.1216  -18.1216   26.5786 C   0  0  2  0  0  0  0  0  0  0  0  0
   10.0619  -16.8369   25.9334 N   0  0  0  0  0  0  0  0  0  0  0  0
   10.5606  -18.0449   27.9808 C   0  0  0  0  0  0  0  0  0  0  0  0
   10.9450  -16.9415   28.4342 O   0  0  0  0  0  0  0  0  0  0  0  0
   10.5464  -19.1660   28.7711 O   0  0  0  0  0  0  0  0  0  0  0  0
  2  1  1  6
  3  2  1  0
  4  2  1  0
  5  4  1  0
  5  6  1  1
  7  8  2  0
  7  5  1  0
  9 10  1  0
 11 10  1  0
 12 11  1  0
 13 12  1  1
 13 14  1  0
 14  7  1  0
 15 13  1  0
 15 16  2  0
 18 17  1  6
 19 18  1  0
 20 21  1  6
 20 18  1  0
 21 15  1  0
 22 20  1  0
 23 22  2  0
 24 22  1  0
M  END
$$$$
