LMT.pdb
     RDKit          3D

 24 23  0  0  1  0  0  0  0  0999 V2000
    9.0420  -13.3246   18.5463 C   0  0  0  0  0  0  0  0  0  0  0  0
    7.6095  -13.5176   18.9319 C   0  0  2  0  0  0  0  0  0  0  0  0
    6.7786  -12.3378   18.5264 C   0  0  0  0  0  0  0  0  0  0  0  0
    7.4708  -13.8726   20.3760 C   0  0  0  0  0  0  0  0  0  0  0  0
    8.2996  -15.0393   20.8221 C   0  0  2  0  0  0  0  0  0  0  0  0
    7.6012  -16.2868   20.7003 N   0  0  0  0  0  0  0  0  0  0  0  0
    8.6685  -14.8060   22.2444 C   0  0  0  0  0  0  0  0  0  0  0  0
    9.0086  -13.6522   22.6569 O   0  0  0  0  0  0  0  0  0  0  0  0
    7.1304  -11.2227   26.4221 C   0  0  0  0  0  0  0  0  0  0  0  0
    6.2044  -12.7786   26.3488 S   0  0  0  0  0  0  0  0  0  0  0  0
    7.4013  -14.1703   26.3369 C   0  0  0  0  0  0  0  0  0  0  0  0
    7.6060  -14.5531   24.9130 C   0  0  0  0  0  0  0  0  0  0  0  0
    8.7574  -15.4907   24.6647 C   0  0  2  0  0  0  0  0  0  0  0  0
    8.6701  -15.8334   23.2363 N   0  0  0  0  0  0  0  0  0  0  0  0
    8.7262  -16.7105   25.4861 C   0  0  0  0  0  0  0  0  0  0  0  0
    7.6051  -17.2731   25.7272 O   0  0  0  0  0  0  0  0  0  0  0  0
   10.8457  -19.5404   24.6127 C   0  0  0  0  0  0  0  0  0  0  0  0
   11.0758  -19.3052   26.0710 C   0  0  1  0  0  0  0  0  0  0  0  0
   12.2714  -18.5587   26.1779 O   0  0  0  0  0  0  0  0  0  0  0  0
    9.9495  -18.4886   26.6837 C   0  0  2  0  0  0  0  0  0  0  0  0
    9.9409  -17.2293   25.9878 N   0  0  0  0  0  0  0  0  0  0  0  0
   10.1095  -18.3442   28.1391 C   0  0  0  0  0  0  0  0  0  0  0  0
   10.3790  -17.2137   28.6082 O   0  0  0  0  0  0  0  0  0  0  0  0
    9.9646  -19.4329   28.9610 O   0  0  0  0  0  0  0  0  0  0  0  0
  2  1  1  1
  3  2  1  0
  4  2  1  0
  5  4  1  0
  5  6  1  1
  7  8  2  0
  7  5  1  0
  9 10  1  0
 11 10  1  0
 12 11  1  0
 13 12  1  1
 13 14  1  0
 14  7  1  0
 15 13  1  0
 15 16  2  0
 18 17  1  6
 19 18  1  0
 20 21  1  6
 20 18  1  0
 21 15  1  0
 22 20  1  0
 23 22  2  0
 24 22  1  0
M  END
$$$$
