LMT.pdb
     RDKit          3D

 24 23  0  0  1  0  0  0  0  0999 V2000
    7.7269  -17.2231   18.8694 C   0  0  0  0  0  0  0  0  0  0  0  0
    7.4325  -16.0505   19.7505 C   0  0  2  0  0  0  0  0  0  0  0  0
    5.9785  -15.9989   20.1109 C   0  0  0  0  0  0  0  0  0  0  0  0
    7.9430  -14.7767   19.1610 C   0  0  0  0  0  0  0  0  0  0  0  0
    7.6623  -13.5479   19.9724 C   0  0  2  0  0  0  0  0  0  0  0  0
    8.2294  -12.3652   19.3907 N   0  0  0  0  0  0  0  0  0  0  0  0
    8.2369  -13.7675   21.3270 C   0  0  0  0  0  0  0  0  0  0  0  0
    9.4892  -13.6892   21.5330 O   0  0  0  0  0  0  0  0  0  0  0  0
    6.1954  -10.8887   26.5168 C   0  0  0  0  0  0  0  0  0  0  0  0
    6.2081  -12.6045   27.0996 S   0  0  0  0  0  0  0  0  0  0  0  0
    7.5004  -13.5251   26.1765 C   0  0  0  0  0  0  0  0  0  0  0  0
    7.1343  -13.4570   24.7351 C   0  0  0  0  0  0  0  0  0  0  0  0
    8.0730  -14.1779   23.8048 C   0  0  2  0  0  0  0  0  0  0  0  0
    7.4477  -14.0761   22.4766 N   0  0  0  0  0  0  0  0  0  0  0  0
    8.3010  -15.5880   24.1560 C   0  0  0  0  0  0  0  0  0  0  0  0
    7.3081  -16.3907   24.1956 O   0  0  0  0  0  0  0  0  0  0  0  0
   10.5119  -17.6627   22.3324 C   0  0  0  0  0  0  0  0  0  0  0  0
   10.9501  -17.8481   23.7496 C   0  0  1  0  0  0  0  0  0  0  0  0
   12.0802  -17.0198   23.9365 O   0  0  0  0  0  0  0  0  0  0  0  0
    9.8707  -17.4061   24.7243 C   0  0  2  0  0  0  0  0  0  0  0  0
    9.6162  -16.0186   24.4408 N   0  0  0  0  0  0  0  0  0  0  0  0
   10.2645  -17.6483   26.1212 C   0  0  0  0  0  0  0  0  0  0  0  0
   10.3832  -18.8307   26.5192 O   0  0  0  0  0  0  0  0  0  0  0  0
   10.4956  -16.5928   26.9663 O   0  0  0  0  0  0  0  0  0  0  0  0
  2  1  1  6
  3  2  1  0
  4  2  1  0
  5  4  1  0
  5  6  1  6
  7  8  2  0
  7  5  1  0
  9 10  1  0
 11 10  1  0
 12 11  1  0
 13 12  1  1
 13 14  1  0
 14  7  1  0
 15 13  1  0
 15 16  2  0
 18 17  1  6
 19 18  1  0
 20 21  1  1
 20 18  1  0
 21 15  1  0
 22 20  1  0
 23 22  2  0
 24 22  1  0
M  END
$$$$
