IFN.pdb
     RDKit          3D

 28 28  0  0  1  0  0  0  0  0999 V2000
   27.6908  -22.6565  -20.9534 C   0  0  0  0  0  0  0  0  0  0  0  0
   28.5610  -22.2999  -19.7665 C   0  0  0  0  0  0  0  0  0  0  0  0
   27.8026  -22.6501  -18.5267 C   0  0  2  0  0  0  0  0  0  0  0  0
   26.4754  -21.9270  -18.5666 C   0  0  0  0  0  0  0  0  0  0  0  0
   28.5180  -22.3322  -17.2400 C   0  0  2  0  0  0  0  0  0  0  0  0
   29.7288  -23.1267  -17.2028 N   0  0  0  0  0  0  0  0  0  0  0  0
   27.7267  -22.5947  -16.0418 C   0  0  0  0  0  0  0  0  0  0  0  0
   27.4911  -23.7436  -15.5828 O   0  0  0  0  0  0  0  0  0  0  0  0
   27.1754  -21.5014  -15.3283 N   0  0  0  0  0  0  0  0  0  0  0  0
   26.3982  -21.6448  -14.1066 C   0  0  1  0  0  0  0  0  0  0  0  0
   26.6899  -20.4779  -13.1994 C   0  0  0  0  0  0  0  0  0  0  0  0
   25.9703  -20.5015  -11.9265 C   0  0  0  0  0  0  0  0  0  0  0  0
   26.5147  -21.0143  -10.7622 C   0  0  0  0  0  0  0  0  0  0  0  0
   25.8686  -21.0388   -9.5584 C   0  0  0  0  0  0  0  0  0  0  0  0
   24.5765  -20.5160   -9.4863 C   0  0  0  0  0  0  0  0  0  0  0  0
   24.0330  -20.0062  -10.6385 C   0  0  0  0  0  0  0  0  0  0  0  0
   24.6896  -19.9864  -11.8401 C   0  0  0  0  0  0  0  0  0  0  0  0
   24.9646  -21.7089  -14.4646 C   0  0  0  0  0  0  0  0  0  0  0  0
   24.4540  -20.9044  -15.2973 O   0  0  0  0  0  0  0  0  0  0  0  0
   23.5672  -26.1646  -15.0731 N   0  0  0  0  0  0  0  0  0  0  0  0
   22.9190  -24.9442  -15.3908 C   0  0  0  0  0  0  0  0  0  0  0  0
   22.9216  -24.5603  -16.5791 O   0  0  0  0  0  0  0  0  0  0  0  0
   22.2635  -24.1553  -14.3523 C   0  0  0  0  0  0  0  0  0  0  0  0
   22.6635  -22.7194  -14.2711 C   0  0  2  0  0  0  0  0  0  0  0  0
   24.0679  -22.6644  -13.9075 N   0  0  0  0  0  0  0  0  0  0  0  0
   21.8304  -21.9141  -13.3539 C   0  0  0  0  0  0  0  0  0  0  0  0
   20.5973  -21.8146  -13.5515 O   0  0  0  0  0  0  0  0  0  0  0  0
   22.3394  -21.2345  -12.2465 O   0  0  0  0  0  0  0  0  0  0  0  0
  2  3  1  0
  2  1  1  0
  3  5  1  0
  3  4  1  1
  5  6  1  1
  7  8  2  0
  7  5  1  0
  9  7  1  0
 10  9  1  0
 10 11  1  1
 11 12  1  0
 12 13  2  0
 12 17  1  0
 13 14  1  0
 14 15  2  0
 16 15  1  0
 17 16  2  0
 18 10  1  0
 19 18  2  0
 20 21  1  0
 21 22  2  0
 21 23  1  0
 24 23  1  1
 24 26  1  0
 24 25  1  0
 25 18  1  0
 26 28  1  0
 27 26  2  0
M  END
$$$$
