IFN.pdb
     RDKit          3D

 28 28  0  0  1  0  0  0  0  0999 V2000
   26.2725  -22.4319  -20.9777 C   0  0  0  0  0  0  0  0  0  0  0  0
   27.2687  -22.1006  -19.8865 C   0  0  0  0  0  0  0  0  0  0  0  0
   26.6346  -22.4391  -18.5756 C   0  0  2  0  0  0  0  0  0  0  0  0
   25.3262  -21.6879  -18.4777 C   0  0  0  0  0  0  0  0  0  0  0  0
   27.4854  -22.1409  -17.3691 C   0  0  2  0  0  0  0  0  0  0  0  0
   28.6830  -22.9503  -17.4652 N   0  0  0  0  0  0  0  0  0  0  0  0
   26.8211  -22.4042  -16.0962 C   0  0  0  0  0  0  0  0  0  0  0  0
   26.6311  -23.5536  -15.6176 O   0  0  0  0  0  0  0  0  0  0  0  0
   26.3491  -21.3112  -15.3276 N   0  0  0  0  0  0  0  0  0  0  0  0
   25.7014  -21.4555  -14.0327 C   0  0  1  0  0  0  0  0  0  0  0  0
   26.3122  -20.4743  -13.0662 C   0  0  0  0  0  0  0  0  0  0  0  0
   25.8082  -20.5743  -11.6970 C   0  0  0  0  0  0  0  0  0  0  0  0
   24.6313  -19.9767  -11.2816 C   0  0  0  0  0  0  0  0  0  0  0  0
   24.1328  -20.0632  -10.0122 C   0  0  0  0  0  0  0  0  0  0  0  0
   24.8478  -20.7985   -9.0655 C   0  0  0  0  0  0  0  0  0  0  0  0
   26.0153  -21.3929   -9.4734 C   0  0  0  0  0  0  0  0  0  0  0  0
   26.5059  -21.3000  -10.7486 C   0  0  0  0  0  0  0  0  0  0  0  0
   24.2512  -21.2193  -14.2020 C   0  0  0  0  0  0  0  0  0  0  0  0
   23.8122  -20.1746  -14.7653 O   0  0  0  0  0  0  0  0  0  0  0  0
   19.4266  -23.2744  -14.2949 N   0  0  0  0  0  0  0  0  0  0  0  0
   19.9652  -23.2755  -12.9833 C   0  0  0  0  0  0  0  0  0  0  0  0
   19.3871  -23.9461  -12.1027 O   0  0  0  0  0  0  0  0  0  0  0  0
   21.1681  -22.5103  -12.6703 C   0  0  0  0  0  0  0  0  0  0  0  0
   21.8380  -21.8430  -13.8255 C   0  0  2  0  0  0  0  0  0  0  0  0
   23.2583  -22.1346  -13.7506 N   0  0  0  0  0  0  0  0  0  0  0  0
   21.5831  -20.3899  -13.9110 C   0  0  0  0  0  0  0  0  0  0  0  0
   20.4351  -19.9701  -14.1853 O   0  0  0  0  0  0  0  0  0  0  0  0
   22.5654  -19.4214  -13.7004 O   0  0  0  0  0  0  0  0  0  0  0  0
  2  3  1  0
  2  1  1  0
  3  5  1  0
  3  4  1  1
  5  6  1  6
  7  8  2  0
  7  5  1  0
  9  7  1  0
 10  9  1  0
 10 11  1  1
 11 12  1  0
 12 13  2  0
 12 17  1  0
 13 14  1  0
 14 15  2  0
 16 15  1  0
 17 16  2  0
 18 10  1  0
 19 18  2  0
 20 21  1  0
 21 22  2  0
 21 23  1  0
 24 23  1  1
 24 26  1  0
 24 25  1  0
 25 18  1  0
 26 28  1  0
 27 26  2  0
M  END
$$$$
