IFN.pdb
     RDKit          3D

 28 28  0  0  1  0  0  0  0  0999 V2000
   26.9678  -19.3200  -19.4905 C   0  0  0  0  0  0  0  0  0  0  0  0
   27.8906  -19.9682  -18.4799 C   0  0  0  0  0  0  0  0  0  0  0  0
   27.0558  -20.4076  -17.3202 C   0  0  2  0  0  0  0  0  0  0  0  0
   26.2688  -19.2143  -16.8276 C   0  0  0  0  0  0  0  0  0  0  0  0
   27.8313  -21.0129  -16.1797 C   0  0  2  0  0  0  0  0  0  0  0  0
   28.5245  -22.1784  -16.6896 N   0  0  0  0  0  0  0  0  0  0  0  0
   27.0047  -21.3984  -15.0400 C   0  0  0  0  0  0  0  0  0  0  0  0
   26.1878  -22.3569  -15.0459 O   0  0  0  0  0  0  0  0  0  0  0  0
   27.1091  -20.6616  -13.8340 N   0  0  0  0  0  0  0  0  0  0  0  0
   26.3078  -20.9336  -12.6503 C   0  0  1  0  0  0  0  0  0  0  0  0
   26.9403  -20.2557  -11.4628 C   0  0  0  0  0  0  0  0  0  0  0  0
   26.1715  -20.3570  -10.2230 C   0  0  0  0  0  0  0  0  0  0  0  0
   24.9832  -21.0597  -10.1282 C   0  0  0  0  0  0  0  0  0  0  0  0
   24.2512  -21.1789   -8.9805 C   0  0  0  0  0  0  0  0  0  0  0  0
   24.7223  -20.5564   -7.8235 C   0  0  0  0  0  0  0  0  0  0  0  0
   25.9004  -19.8589   -7.9131 C   0  0  0  0  0  0  0  0  0  0  0  0
   26.6264  -19.7458   -9.0687 C   0  0  0  0  0  0  0  0  0  0  0  0
   24.9335  -20.4412  -12.8880 C   0  0  0  0  0  0  0  0  0  0  0  0
   24.7109  -19.2487  -13.2482 O   0  0  0  0  0  0  0  0  0  0  0  0
   20.1689  -21.2430  -15.6921 N   0  0  0  0  0  0  0  0  0  0  0  0
   20.4621  -21.6927  -14.3797 C   0  0  0  0  0  0  0  0  0  0  0  0
   19.5129  -21.8982  -13.5947 O   0  0  0  0  0  0  0  0  0  0  0  0
   21.8420  -21.9107  -13.9568 C   0  0  0  0  0  0  0  0  0  0  0  0
   22.4545  -20.8236  -13.1373 C   0  0  2  0  0  0  0  0  0  0  0  0
   23.7786  -21.2591  -12.7313 N   0  0  0  0  0  0  0  0  0  0  0  0
   21.6364  -20.4109  -11.9780 C   0  0  0  0  0  0  0  0  0  0  0  0
   20.7477  -19.5390  -12.1167 O   0  0  0  0  0  0  0  0  0  0  0  0
   21.7907  -20.9430  -10.6972 O   0  0  0  0  0  0  0  0  0  0  0  0
  2  3  1  0
  2  1  1  0
  3  5  1  0
  3  4  1  1
  5  6  1  6
  7  8  2  0
  7  5  1  0
  9  7  1  0
 10  9  1  0
 10 11  1  1
 11 12  1  0
 12 13  2  0
 12 17  1  0
 13 14  1  0
 14 15  2  0
 16 15  1  0
 17 16  2  0
 18 10  1  0
 19 18  2  0
 20 21  1  0
 21 22  2  0
 21 23  1  0
 24 23  1  1
 24 26  1  0
 24 25  1  0
 25 18  1  0
 26 28  1  0
 27 26  2  0
M  END
$$$$
