IFN.pdb
     RDKit          3D

 28 28  0  0  1  0  0  0  0  0999 V2000
   24.4907  -33.7970   -5.1877 C   0  0  0  0  0  0  0  0  0  0  0  0
   25.5942  -34.1539   -6.1613 C   0  0  0  0  0  0  0  0  0  0  0  0
   26.4373  -32.9350   -6.3577 C   0  0  2  0  0  0  0  0  0  0  0  0
   25.5759  -31.8629   -6.9856 C   0  0  0  0  0  0  0  0  0  0  0  0
   27.6719  -33.1512   -7.1928 C   0  0  2  0  0  0  0  0  0  0  0  0
   27.2568  -33.7559   -8.4421 N   0  0  0  0  0  0  0  0  0  0  0  0
   28.6784  -33.9944   -6.5549 C   0  0  0  0  0  0  0  0  0  0  0  0
   28.9883  -35.1509   -6.9454 O   0  0  0  0  0  0  0  0  0  0  0  0
   29.3677  -33.5028   -5.4186 N   0  0  0  0  0  0  0  0  0  0  0  0
   30.3989  -34.2499   -4.7147 C   0  0  1  0  0  0  0  0  0  0  0  0
   31.6606  -33.4274   -4.6750 C   0  0  0  0  0  0  0  0  0  0  0  0
   32.5373  -33.6010   -5.8325 C   0  0  0  0  0  0  0  0  0  0  0  0
   33.3374  -34.7158   -6.0116 C   0  0  0  0  0  0  0  0  0  0  0  0
   34.1569  -34.9077   -7.0881 C   0  0  0  0  0  0  0  0  0  0  0  0
   34.1980  -33.9232   -8.0766 C   0  0  0  0  0  0  0  0  0  0  0  0
   33.4059  -32.8163   -7.9030 C   0  0  0  0  0  0  0  0  0  0  0  0
   32.5878  -32.6340   -6.8200 C   0  0  0  0  0  0  0  0  0  0  0  0
   29.9103  -34.5603   -3.3537 C   0  0  0  0  0  0  0  0  0  0  0  0
   28.8703  -34.0139   -2.8834 O   0  0  0  0  0  0  0  0  0  0  0  0
   28.0591  -38.0867    0.2386 N   0  0  0  0  0  0  0  0  0  0  0  0
   27.9664  -36.7168   -0.1153 C   0  0  0  0  0  0  0  0  0  0  0  0
   27.3144  -35.9529    0.6268 O   0  0  0  0  0  0  0  0  0  0  0  0
   28.6188  -36.2116   -1.3193 C   0  0  0  0  0  0  0  0  0  0  0  0
   30.0489  -35.8105   -1.1692 C   0  0  2  0  0  0  0  0  0  0  0  0
   30.5635  -35.4813   -2.4862 N   0  0  0  0  0  0  0  0  0  0  0  0
   30.8887  -36.8203   -0.4919 C   0  0  0  0  0  0  0  0  0  0  0  0
   31.5047  -37.6775   -1.1665 O   0  0  0  0  0  0  0  0  0  0  0  0
   31.0480  -36.8870    0.8928 O   0  0  0  0  0  0  0  0  0  0  0  0
  2  3  1  0
  2  1  1  0
  3  5  1  0
  3  4  1  6
  5  6  1  6
  7  8  2  0
  7  5  1  0
  9  7  1  0
 10  9  1  0
 10 11  1  1
 11 12  1  0
 12 13  2  0
 12 17  1  0
 13 14  1  0
 14 15  2  0
 16 15  1  0
 17 16  2  0
 18 10  1  0
 19 18  2  0
 20 21  1  0
 21 22  2  0
 21 23  1  0
 24 23  1  6
 24 26  1  0
 24 25  1  0
 25 18  1  0
 26 28  1  0
 27 26  2  0
M  END
$$$$
