IFN.pdb
     RDKit          3D

 28 28  0  0  1  0  0  0  0  0999 V2000
   18.2173  -23.2846  -13.6437 C   0  0  0  0  0  0  0  0  0  0  0  0
   17.9614  -21.8187  -13.3633 C   0  0  0  0  0  0  0  0  0  0  0  0
   19.2318  -21.0774  -13.6305 C   0  0  2  0  0  0  0  0  0  0  0  0
   19.7003  -21.4328  -15.0233 C   0  0  0  0  0  0  0  0  0  0  0  0
   20.3346  -21.3404  -12.6389 C   0  0  2  0  0  0  0  0  0  0  0  0
   19.8323  -21.0016  -11.3231 N   0  0  0  0  0  0  0  0  0  0  0  0
   21.5584  -20.5890  -12.9009 C   0  0  0  0  0  0  0  0  0  0  0  0
   21.6020  -19.3445  -13.0891 O   0  0  0  0  0  0  0  0  0  0  0  0
   22.7935  -21.2818  -12.9520 N   0  0  0  0  0  0  0  0  0  0  0  0
   24.0598  -20.6498  -13.2896 C   0  0  1  0  0  0  0  0  0  0  0  0
   25.1789  -21.4035  -12.6191 C   0  0  0  0  0  0  0  0  0  0  0  0
   26.5211  -20.9484  -12.9795 C   0  0  0  0  0  0  0  0  0  0  0  0
   27.0062  -19.6953  -12.6487 C   0  0  0  0  0  0  0  0  0  0  0  0
   28.2589  -19.2494  -12.9637 C   0  0  0  0  0  0  0  0  0  0  0  0
   29.1125  -20.1035  -13.6636 C   0  0  0  0  0  0  0  0  0  0  0  0
   28.6355  -21.3470  -13.9932 C   0  0  0  0  0  0  0  0  0  0  0  0
   27.3779  -21.7841  -13.6724 C   0  0  0  0  0  0  0  0  0  0  0  0
   24.2099  -20.6509  -14.7609 C   0  0  0  0  0  0  0  0  0  0  0  0
   23.8881  -21.6568  -15.4581 O   0  0  0  0  0  0  0  0  0  0  0  0
   24.9210  -19.2135  -19.7501 N   0  0  0  0  0  0  0  0  0  0  0  0
   24.0732  -18.3813  -18.9761 C   0  0  0  0  0  0  0  0  0  0  0  0
   23.3494  -17.5536  -19.5680 O   0  0  0  0  0  0  0  0  0  0  0  0
   24.0472  -18.4904  -17.5208 C   0  0  0  0  0  0  0  0  0  0  0  0
   24.8970  -19.5664  -16.9302 C   0  0  2  0  0  0  0  0  0  0  0  0
   24.7195  -19.5388  -15.4896 N   0  0  0  0  0  0  0  0  0  0  0  0
   26.3235  -19.4802  -17.3060 C   0  0  0  0  0  0  0  0  0  0  0  0
   27.0291  -18.5386  -16.8761 O   0  0  0  0  0  0  0  0  0  0  0  0
   26.9598  -20.4059  -18.1340 O   0  0  0  0  0  0  0  0  0  0  0  0
  2  3  1  0
  2  1  1  0
  3  5  1  0
  3  4  1  6
  5  6  1  1
  7  8  2  0
  7  5  1  0
  9  7  1  0
 10  9  1  0
 10 11  1  1
 11 12  1  0
 12 13  2  0
 12 17  1  0
 13 14  1  0
 14 15  2  0
 16 15  1  0
 17 16  2  0
 18 10  1  0
 19 18  2  0
 20 21  1  0
 21 22  2  0
 21 23  1  0
 24 23  1  6
 24 26  1  0
 24 25  1  0
 25 18  1  0
 26 28  1  0
 27 26  2  0
M  END
$$$$
