IFN.pdb
     RDKit          3D

 28 28  0  0  1  0  0  0  0  0999 V2000
   16.3143  -12.4984  -21.0783 C   0  0  0  0  0  0  0  0  0  0  0  0
   17.6841  -12.7708  -20.4928 C   0  0  0  0  0  0  0  0  0  0  0  0
   17.8241  -11.9368  -19.2600 C   0  0  2  0  0  0  0  0  0  0  0  0
   17.7272  -10.4825  -19.6618 C   0  0  0  0  0  0  0  0  0  0  0  0
   19.0944  -12.1680  -18.4845 C   0  0  2  0  0  0  0  0  0  0  0  0
   19.1919  -13.5880  -18.2145 N   0  0  0  0  0  0  0  0  0  0  0  0
   19.1645  -11.4279  -17.2282 C   0  0  0  0  0  0  0  0  0  0  0  0
   18.5105  -11.7212  -16.1927 O   0  0  0  0  0  0  0  0  0  0  0  0
   20.0180  -10.3000  -17.1410 N   0  0  0  0  0  0  0  0  0  0  0  0
   20.0519   -9.4004  -15.9979 C   0  0  1  0  0  0  0  0  0  0  0  0
   21.4824   -9.2101  -15.5652 C   0  0  0  0  0  0  0  0  0  0  0  0
   21.6690   -8.2363  -14.4903 C   0  0  0  0  0  0  0  0  0  0  0  0
   21.4723   -8.5408  -13.1548 C   0  0  0  0  0  0  0  0  0  0  0  0
   21.6498   -7.6536  -12.1308 C   0  0  0  0  0  0  0  0  0  0  0  0
   22.0553   -6.3542  -12.4395 C   0  0  0  0  0  0  0  0  0  0  0  0
   22.2517   -6.0481  -13.7625 C   0  0  0  0  0  0  0  0  0  0  0  0
   22.0711   -6.9453  -14.7812 C   0  0  0  0  0  0  0  0  0  0  0  0
   19.4279   -8.1177  -16.3887 C   0  0  0  0  0  0  0  0  0  0  0  0
   19.7087   -7.5523  -17.4855 O   0  0  0  0  0  0  0  0  0  0  0  0
   16.2759   -4.2010  -17.1988 N   0  0  0  0  0  0  0  0  0  0  0  0
   15.6541   -5.2071  -16.4168 C   0  0  0  0  0  0  0  0  0  0  0  0
   14.4067   -5.2342  -16.3639 O   0  0  0  0  0  0  0  0  0  0  0  0
   16.4541   -6.1886  -15.6907 C   0  0  0  0  0  0  0  0  0  0  0  0
   17.9257   -6.1444  -15.9375 C   0  0  2  0  0  0  0  0  0  0  0  0
   18.4811   -7.4353  -15.5730 N   0  0  0  0  0  0  0  0  0  0  0  0
   18.6184   -5.0374  -15.2458 C   0  0  0  0  0  0  0  0  0  0  0  0
   18.8190   -5.0981  -14.0107 O   0  0  0  0  0  0  0  0  0  0  0  0
   19.0796   -3.8914  -15.8949 O   0  0  0  0  0  0  0  0  0  0  0  0
  2  3  1  0
  2  1  1  0
  3  5  1  0
  3  4  1  6
  5  6  1  1
  7  8  2  0
  7  5  1  0
  9  7  1  0
 10  9  1  0
 10 11  1  6
 11 12  1  0
 12 13  2  0
 12 17  1  0
 13 14  1  0
 14 15  2  0
 16 15  1  0
 17 16  2  0
 18 10  1  0
 19 18  2  0
 20 21  1  0
 21 22  2  0
 21 23  1  0
 24 23  1  1
 24 26  1  0
 24 25  1  0
 25 18  1  0
 26 28  1  0
 27 26  2  0
M  END
$$$$
