IFN.pdb
     RDKit          3D

 28 28  0  0  1  0  0  0  0  0999 V2000
   17.6689  -15.5965  -18.5770 C   0  0  0  0  0  0  0  0  0  0  0  0
   18.4640  -14.4245  -19.1129 C   0  0  0  0  0  0  0  0  0  0  0  0
   18.1622  -13.2403  -18.2519 C   0  0  2  0  0  0  0  0  0  0  0  0
   16.6649  -13.0306  -18.2477 C   0  0  0  0  0  0  0  0  0  0  0  0
   18.8541  -11.9681  -18.6660 C   0  0  2  0  0  0  0  0  0  0  0  0
   20.2341  -12.2948  -18.9618 N   0  0  0  0  0  0  0  0  0  0  0  0
   18.8091  -10.9140  -17.6572 C   0  0  0  0  0  0  0  0  0  0  0  0
   17.7602  -10.5323  -17.0739 O   0  0  0  0  0  0  0  0  0  0  0  0
   20.0120  -10.2604  -17.2911 N   0  0  0  0  0  0  0  0  0  0  0  0
   20.0649   -9.0968  -16.4191 C   0  0  1  0  0  0  0  0  0  0  0  0
   21.3703   -9.1059  -15.6670 C   0  0  0  0  0  0  0  0  0  0  0  0
   21.6343   -7.8949  -14.8908 C   0  0  0  0  0  0  0  0  0  0  0  0
   22.2749   -6.7870  -15.4172 C   0  0  0  0  0  0  0  0  0  0  0  0
   22.5243   -5.6400  -14.7177 C   0  0  0  0  0  0  0  0  0  0  0  0
   22.1113   -5.5697  -13.3863 C   0  0  0  0  0  0  0  0  0  0  0  0
   21.4754   -6.6661  -12.8606 C   0  0  0  0  0  0  0  0  0  0  0  0
   21.2302   -7.8110  -13.5708 C   0  0  0  0  0  0  0  0  0  0  0  0
   19.9245   -7.8798  -17.2478 C   0  0  0  0  0  0  0  0  0  0  0  0
   20.5529   -7.7454  -18.3379 O   0  0  0  0  0  0  0  0  0  0  0  0
   16.3215   -7.0311  -19.4703 N   0  0  0  0  0  0  0  0  0  0  0  0
   17.4868   -6.2253  -19.4124 C   0  0  0  0  0  0  0  0  0  0  0  0
   18.2846   -6.2624  -20.3723 O   0  0  0  0  0  0  0  0  0  0  0  0
   17.7470   -5.3720  -18.2571 C   0  0  0  0  0  0  0  0  0  0  0  0
   19.0847   -5.5315  -17.6142 C   0  0  2  0  0  0  0  0  0  0  0  0
   19.0860   -6.7874  -16.8858 N   0  0  0  0  0  0  0  0  0  0  0  0
   19.4750   -4.3987  -16.7492 C   0  0  0  0  0  0  0  0  0  0  0  0
   19.2034   -4.4212  -15.5265 O   0  0  0  0  0  0  0  0  0  0  0  0
   20.1473   -3.2684  -17.2160 O   0  0  0  0  0  0  0  0  0  0  0  0
  2  3  1  0
  2  1  1  0
  3  5  1  0
  3  4  1  6
  5  6  1  1
  7  8  2  0
  7  5  1  0
  9  7  1  0
 10  9  1  0
 10 11  1  6
 11 12  1  0
 12 13  2  0
 12 17  1  0
 13 14  1  0
 14 15  2  0
 16 15  1  0
 17 16  2  0
 18 10  1  0
 19 18  2  0
 20 21  1  0
 21 22  2  0
 21 23  1  0
 24 23  1  1
 24 26  1  0
 24 25  1  0
 25 18  1  0
 26 28  1  0
 27 26  2  0
M  END
$$$$
