IFN.pdb
     RDKit          3D

 28 28  0  0  1  0  0  0  0  0999 V2000
   28.0174  -19.3987   -3.9378 C   0  0  0  0  0  0  0  0  0  0  0  0
   28.3180  -20.2758   -5.1351 C   0  0  0  0  0  0  0  0  0  0  0  0
   27.3168  -19.9520   -6.1971 C   0  0  2  0  0  0  0  0  0  0  0  0
   25.9348  -20.1598   -5.6203 C   0  0  0  0  0  0  0  0  0  0  0  0
   27.4650  -20.7494   -7.4662 C   0  0  2  0  0  0  0  0  0  0  0  0
   28.8816  -20.8840   -7.7376 N   0  0  0  0  0  0  0  0  0  0  0  0
   26.8027  -20.1521   -8.6218 C   0  0  0  0  0  0  0  0  0  0  0  0
   27.0375  -18.9933   -9.0555 O   0  0  0  0  0  0  0  0  0  0  0  0
   25.8265  -20.9051   -9.3205 N   0  0  0  0  0  0  0  0  0  0  0  0
   25.4853  -20.6847  -10.7177 C   0  0  1  0  0  0  0  0  0  0  0  0
   26.1985  -21.7067  -11.5643 C   0  0  0  0  0  0  0  0  0  0  0  0
   27.5944  -21.3859  -11.8594 C   0  0  0  0  0  0  0  0  0  0  0  0
   27.9680  -20.4081  -12.7646 C   0  0  0  0  0  0  0  0  0  0  0  0
   29.2636  -20.0814  -13.0506 C   0  0  0  0  0  0  0  0  0  0  0  0
   30.2840  -20.7713  -12.3941 C   0  0  0  0  0  0  0  0  0  0  0  0
   29.9178  -21.7415  -11.4956 C   0  0  0  0  0  0  0  0  0  0  0  0
   28.6158  -22.0609  -11.2161 C   0  0  0  0  0  0  0  0  0  0  0  0
   24.0173  -20.7859  -10.8662 C   0  0  0  0  0  0  0  0  0  0  0  0
   23.3299  -21.5571  -10.1354 O   0  0  0  0  0  0  0  0  0  0  0  0
   20.2457  -16.8415  -11.7813 N   0  0  0  0  0  0  0  0  0  0  0  0
   20.2377  -18.2496  -11.9472 C   0  0  0  0  0  0  0  0  0  0  0  0
   19.2718  -18.8973  -11.4924 O   0  0  0  0  0  0  0  0  0  0  0  0
   21.3336  -18.9260  -12.6343 C   0  0  0  0  0  0  0  0  0  0  0  0
   21.8443  -20.1695  -11.9853 C   0  0  2  0  0  0  0  0  0  0  0  0
   23.2812  -20.0358  -11.8270 N   0  0  0  0  0  0  0  0  0  0  0  0
   21.4875  -21.4118  -12.7016 C   0  0  0  0  0  0  0  0  0  0  0  0
   22.3134  -21.9477  -13.4763 O   0  0  0  0  0  0  0  0  0  0  0  0
   20.2535  -22.0500  -12.5703 O   0  0  0  0  0  0  0  0  0  0  0  0
  2  3  1  0
  2  1  1  0
  3  5  1  0
  3  4  1  1
  5  6  1  6
  7  8  2  0
  7  5  1  0
  9  7  1  0
 10  9  1  0
 10 11  1  6
 11 12  1  0
 12 13  2  0
 12 17  1  0
 13 14  1  0
 14 15  2  0
 16 15  1  0
 17 16  2  0
 18 10  1  0
 19 18  2  0
 20 21  1  0
 21 22  2  0
 21 23  1  0
 24 23  1  6
 24 26  1  0
 24 25  1  0
 25 18  1  0
 26 28  1  0
 27 26  2  0
M  END
$$$$
