IFN.pdb
     RDKit          3D

 28 28  0  0  1  0  0  0  0  0999 V2000
   19.1005  -14.4413  -17.4270 C   0  0  0  0  0  0  0  0  0  0  0  0
   18.3644  -13.1222  -17.5331 C   0  0  0  0  0  0  0  0  0  0  0  0
   18.5821  -12.3775  -16.2552 C   0  0  2  0  0  0  0  0  0  0  0  0
   18.2268  -13.2965  -15.1084 C   0  0  0  0  0  0  0  0  0  0  0  0
   17.8078  -11.0911  -16.1364 C   0  0  2  0  0  0  0  0  0  0  0  0
   18.1384  -10.2718  -17.2846 N   0  0  0  0  0  0  0  0  0  0  0  0
   18.0820  -10.3456  -14.9117 C   0  0  0  0  0  0  0  0  0  0  0  0
   17.9661  -10.8188  -13.7503 O   0  0  0  0  0  0  0  0  0  0  0  0
   18.5087   -8.9977  -15.0077 N   0  0  0  0  0  0  0  0  0  0  0  0
   18.8615   -8.1792  -13.8576 C   0  0  1  0  0  0  0  0  0  0  0  0
   20.1933   -7.5226  -14.1122 C   0  0  0  0  0  0  0  0  0  0  0  0
   21.3326   -8.4394  -14.1199 C   0  0  0  0  0  0  0  0  0  0  0  0
   21.7914   -9.0810  -12.9829 C   0  0  0  0  0  0  0  0  0  0  0  0
   22.8460   -9.9498  -12.9644 C   0  0  0  0  0  0  0  0  0  0  0  0
   23.5107  -10.2146  -14.1628 C   0  0  0  0  0  0  0  0  0  0  0  0
   23.0588   -9.5807  -15.2926 C   0  0  0  0  0  0  0  0  0  0  0  0
   22.0004   -8.7117  -15.3001 C   0  0  0  0  0  0  0  0  0  0  0  0
   17.7939   -7.1775  -13.6466 C   0  0  0  0  0  0  0  0  0  0  0  0
   17.3527   -6.4702  -14.5987 O   0  0  0  0  0  0  0  0  0  0  0  0
   16.3120   -7.2391   -8.8007 N   0  0  0  0  0  0  0  0  0  0  0  0
   16.1568   -6.1422   -9.6857 C   0  0  0  0  0  0  0  0  0  0  0  0
   16.6705   -5.0477   -9.3733 O   0  0  0  0  0  0  0  0  0  0  0  0
   15.4137   -6.2897  -10.9333 C   0  0  0  0  0  0  0  0  0  0  0  0
   16.1557   -5.9432  -12.1815 C   0  0  2  0  0  0  0  0  0  0  0  0
   17.1942   -6.9386  -12.3775 N   0  0  0  0  0  0  0  0  0  0  0  0
   16.7054   -4.5716  -12.1932 C   0  0  0  0  0  0  0  0  0  0  0  0
   15.9326   -3.5872  -12.2496 O   0  0  0  0  0  0  0  0  0  0  0  0
   18.0708   -4.2879  -12.1440 O   0  0  0  0  0  0  0  0  0  0  0  0
  2  3  1  0
  2  1  1  0
  3  5  1  0
  3  4  1  1
  5  6  1  6
  7  8  2  0
  7  5  1  0
  9  7  1  0
 10  9  1  0
 10 11  1  6
 11 12  1  0
 12 13  2  0
 12 17  1  0
 13 14  1  0
 14 15  2  0
 16 15  1  0
 17 16  2  0
 18 10  1  0
 19 18  2  0
 20 21  1  0
 21 22  2  0
 21 23  1  0
 24 23  1  1
 24 26  1  0
 24 25  1  0
 25 18  1  0
 26 28  1  0
 27 26  2  0
M  END
$$$$
