IFN.pdb
     RDKit          3D

 28 28  0  0  1  0  0  0  0  0999 V2000
   19.5718  -14.0409  -18.3900 C   0  0  0  0  0  0  0  0  0  0  0  0
   19.3590  -12.6721  -19.0017 C   0  0  0  0  0  0  0  0  0  0  0  0
   19.2805  -11.6831  -17.8834 C   0  0  2  0  0  0  0  0  0  0  0  0
   18.1911  -12.1301  -16.9351 C   0  0  0  0  0  0  0  0  0  0  0  0
   19.0288  -10.2624  -18.3158 C   0  0  2  0  0  0  0  0  0  0  0  0
   20.0438   -9.9131  -19.2887 N   0  0  0  0  0  0  0  0  0  0  0  0
   19.0515   -9.2972  -17.2210 C   0  0  0  0  0  0  0  0  0  0  0  0
   18.3351   -9.3765  -16.1882 O   0  0  0  0  0  0  0  0  0  0  0  0
   19.9293   -8.1875  -17.3003 N   0  0  0  0  0  0  0  0  0  0  0  0
   20.1174   -7.2289  -16.2220 C   0  0  1  0  0  0  0  0  0  0  0  0
   21.5876   -7.1227  -15.9104 C   0  0  0  0  0  0  0  0  0  0  0  0
   22.1561   -8.2964  -15.2488 C   0  0  0  0  0  0  0  0  0  0  0  0
   21.7313   -8.7429  -14.0098 C   0  0  0  0  0  0  0  0  0  0  0  0
   22.2377   -9.8416  -13.3746 C   0  0  0  0  0  0  0  0  0  0  0  0
   23.2484  -10.5680  -14.0062 C   0  0  0  0  0  0  0  0  0  0  0  0
   23.6724  -10.1289  -15.2350 C   0  0  0  0  0  0  0  0  0  0  0  0
   23.1577   -9.0261  -15.8629 C   0  0  0  0  0  0  0  0  0  0  0  0
   19.5568   -5.9273  -16.6451 C   0  0  0  0  0  0  0  0  0  0  0  0
   19.7459   -5.4730  -17.8110 O   0  0  0  0  0  0  0  0  0  0  0  0
   16.9318   -1.3513  -16.6713 N   0  0  0  0  0  0  0  0  0  0  0  0
   16.1707   -2.5371  -16.5128 C   0  0  0  0  0  0  0  0  0  0  0  0
   14.9279   -2.4644  -16.6103 O   0  0  0  0  0  0  0  0  0  0  0  0
   16.8256   -3.8132  -16.2423 C   0  0  0  0  0  0  0  0  0  0  0  0
   18.3167   -3.7828  -16.1790 C   0  0  2  0  0  0  0  0  0  0  0  0
   18.7765   -5.1026  -15.7859 N   0  0  0  0  0  0  0  0  0  0  0  0
   18.8596   -2.7302  -15.2952 C   0  0  0  0  0  0  0  0  0  0  0  0
   19.3321   -3.0342  -14.1755 O   0  0  0  0  0  0  0  0  0  0  0  0
   18.8831   -1.3765  -15.6331 O   0  0  0  0  0  0  0  0  0  0  0  0
  2  3  1  0
  2  1  1  0
  3  5  1  0
  3  4  1  1
  5  6  1  6
  7  8  2  0
  7  5  1  0
  9  7  1  0
 10  9  1  0
 10 11  1  6
 11 12  1  0
 12 13  2  0
 12 17  1  0
 13 14  1  0
 14 15  2  0
 16 15  1  0
 17 16  2  0
 18 10  1  0
 19 18  2  0
 20 21  1  0
 21 22  2  0
 21 23  1  0
 24 23  1  1
 24 26  1  0
 24 25  1  0
 25 18  1  0
 26 28  1  0
 27 26  2  0
M  END
$$$$
