LYE.pdb
     RDKit          3D

 30 30  0  0  1  0  0  0  0  0999 V2000
    7.7146  -12.4895   18.5101 C   0  0  0  0  0  0  0  0  0  0  0  0
    7.9367  -13.9716   18.2944 C   0  0  1  0  0  0  0  0  0  0  0  0
    7.7105  -14.3660   16.8358 C   0  0  0  0  0  0  0  0  0  0  0  0
    9.2987  -14.4352   18.7818 C   0  0  0  0  0  0  0  0  0  0  0  0
    9.1252  -15.5798   19.7120 C   0  0  2  0  0  0  0  0  0  0  0  0
    7.8457  -16.1876   19.5672 N   0  0  0  0  0  0  0  0  0  0  0  0
    9.3570  -15.2478   21.1345 C   0  0  0  0  0  0  0  0  0  0  0  0
   10.4817  -14.8864   21.5752 O   0  0  0  0  0  0  0  0  0  0  0  0
    6.9379  -12.2889   29.1042 O   0  0  0  0  0  0  0  0  0  0  0  0
    6.9845  -12.7055   27.7928 C   0  0  0  0  0  0  0  0  0  0  0  0
    6.4493  -13.9001   27.3697 C   0  0  0  0  0  0  0  0  0  0  0  0
    6.5045  -14.3089   26.0559 C   0  0  0  0  0  0  0  0  0  0  0  0
    7.1221  -13.4961   25.0965 C   0  0  0  0  0  0  0  0  0  0  0  0
    7.2636  -13.9215   23.7037 C   0  0  0  0  0  0  0  0  0  0  0  0
    8.3821  -14.8424   23.4518 C   0  0  2  0  0  0  0  0  0  0  0  0
    8.3024  -15.3296   22.0479 N   0  0  0  0  0  0  0  0  0  0  0  0
    8.3824  -16.0547   24.2644 C   0  0  0  0  0  0  0  0  0  0  0  0
    7.5774  -16.9893   23.9092 O   0  0  0  0  0  0  0  0  0  0  0  0
    7.6541  -12.3047   25.5253 C   0  0  0  0  0  0  0  0  0  0  0  0
    7.5864  -11.9206   26.8329 C   0  0  0  0  0  0  0  0  0  0  0  0
    9.1774  -16.3472   25.4053 N   0  0  0  0  0  0  0  0  0  0  0  0
   10.0179  -17.4763   25.5337 C   0  0  1  0  0  0  0  0  0  0  0  0
   10.9173  -17.8850   24.4488 C   0  0  0  0  0  0  0  0  0  0  0  0
   11.7048  -19.1237   24.7962 C   0  0  0  0  0  0  0  0  0  0  0  0
   12.4994  -19.5707   23.6244 C   0  0  0  0  0  0  0  0  0  0  0  0
   13.6546  -19.1155   23.4596 O   0  0  0  0  0  0  0  0  0  0  0  0
   10.8042  -17.5298   26.8192 C   0  0  0  0  0  0  0  0  0  0  0  0
   10.6944  -16.4713   27.6872 O   0  0  0  0  0  0  0  0  0  0  0  0
   11.9429  -20.4788   22.7458 O   0  0  0  0  0  0  0  0  0  0  0  0
   11.5170  -18.4955   27.0685 O   0  0  0  0  0  0  0  0  0  0  0  0
  2  1  1  6
  2  3  1  0
  4  2  1  0
  5  4  1  0
  5  6  1  1
  7  5  1  0
  7  8  2  0
  9 10  1  0
 10 11  2  0
 11 12  1  0
 13 12  2  0
 13 14  1  0
 15 14  1  1
 15 16  1  0
 16  7  1  0
 17 15  1  0
 18 17  2  0
 19 13  1  0
 20 10  1  0
 20 19  2  0
 21 17  1  0
 22 21  1  0
 23 24  1  0
 22 23  1  6
 24 25  1  0
 25 26  2  0
 27 22  1  0
 27 28  1  0
 29 25  1  0
 30 27  2  0
M  END
$$$$
