LYE.pdb
     RDKit          3D

 30 30  0  0  1  0  0  0  0  0999 V2000
    5.6284  -14.9299   19.1074 C   0  0  0  0  0  0  0  0  0  0  0  0
    6.8960  -14.1856   19.4703 C   0  0  1  0  0  0  0  0  0  0  0  0
    6.6343  -12.6925   19.6613 C   0  0  0  0  0  0  0  0  0  0  0  0
    7.5949  -14.7781   20.6818 C   0  0  0  0  0  0  0  0  0  0  0  0
    8.7741  -13.9439   21.0266 C   0  0  2  0  0  0  0  0  0  0  0  0
    9.6393  -13.7667   19.9098 N   0  0  0  0  0  0  0  0  0  0  0  0
    9.5529  -14.4399   22.1820 C   0  0  0  0  0  0  0  0  0  0  0  0
   10.6833  -14.9848   22.0583 O   0  0  0  0  0  0  0  0  0  0  0  0
   10.8675  -16.0976   30.9071 O   0  0  0  0  0  0  0  0  0  0  0  0
   10.4437  -15.6426   29.6788 C   0  0  0  0  0  0  0  0  0  0  0  0
   10.8137  -14.4203   29.1672 C   0  0  0  0  0  0  0  0  0  0  0  0
   10.3811  -13.9734   27.9386 C   0  0  0  0  0  0  0  0  0  0  0  0
    9.5334  -14.7744   27.1626 C   0  0  0  0  0  0  0  0  0  0  0  0
    8.9953  -14.3109   25.8833 C   0  0  0  0  0  0  0  0  0  0  0  0
    9.7627  -14.7352   24.7026 C   0  0  2  0  0  0  0  0  0  0  0  0
    9.0372  -14.3110   23.4745 N   0  0  0  0  0  0  0  0  0  0  0  0
    9.9270  -16.1778   24.5553 C   0  0  0  0  0  0  0  0  0  0  0  0
    8.8732  -16.8541   24.2726 O   0  0  0  0  0  0  0  0  0  0  0  0
    9.1679  -15.9934   27.6788 C   0  0  0  0  0  0  0  0  0  0  0  0
    9.6103  -16.4152   28.8987 C   0  0  0  0  0  0  0  0  0  0  0  0
   11.1191  -16.9425   24.6714 N   0  0  0  0  0  0  0  0  0  0  0  0
   11.1790  -18.3538   24.6220 C   0  0  1  0  0  0  0  0  0  0  0  0
   11.9650  -19.0485   23.5960 C   0  0  0  0  0  0  0  0  0  0  0  0
   13.3009  -18.3900   23.3573 C   0  0  0  0  0  0  0  0  0  0  0  0
   13.8867  -18.8687   22.0797 C   0  0  0  0  0  0  0  0  0  0  0  0
   14.2828  -20.0539   21.9950 O   0  0  0  0  0  0  0  0  0  0  0  0
   11.4737  -19.0156   25.9445 C   0  0  0  0  0  0  0  0  0  0  0  0
   11.4255  -20.3867   26.0048 O   0  0  0  0  0  0  0  0  0  0  0  0
   13.9789  -17.9929   21.0164 O   0  0  0  0  0  0  0  0  0  0  0  0
   11.7459  -18.3371   26.9286 O   0  0  0  0  0  0  0  0  0  0  0  0
  2  1  1  1
  2  3  1  0
  4  2  1  0
  5  4  1  0
  5  6  1  6
  7  5  1  0
  7  8  2  0
  9 10  1  0
 10 11  2  0
 11 12  1  0
 13 12  2  0
 13 14  1  0
 15 14  1  1
 15 16  1  0
 16  7  1  0
 17 15  1  0
 18 17  2  0
 19 13  1  0
 20 10  1  0
 20 19  2  0
 21 17  1  0
 22 21  1  0
 23 24  1  0
 22 23  1  6
 24 25  1  0
 25 26  2  0
 27 22  1  0
 27 28  1  0
 29 25  1  0
 30 27  2  0
M  END
$$$$
