LYE.pdb
     RDKit          3D

 30 30  0  0  1  0  0  0  0  0999 V2000
    7.5281  -11.9318   19.2028 C   0  0  0  0  0  0  0  0  0  0  0  0
    7.5465  -13.3662   19.6872 C   0  0  1  0  0  0  0  0  0  0  0  0
    6.9089  -14.3100   18.6688 C   0  0  0  0  0  0  0  0  0  0  0  0
    8.9392  -13.8354   20.0711 C   0  0  0  0  0  0  0  0  0  0  0  0
    8.8369  -15.0968   20.8481 C   0  0  2  0  0  0  0  0  0  0  0  0
    7.4854  -15.4112   21.1674 N   0  0  0  0  0  0  0  0  0  0  0  0
    9.6546  -15.1201   22.0803 C   0  0  0  0  0  0  0  0  0  0  0  0
   10.9089  -14.9926   22.0681 O   0  0  0  0  0  0  0  0  0  0  0  0
   11.1242  -15.4760   30.8375 O   0  0  0  0  0  0  0  0  0  0  0  0
   10.5438  -15.3732   29.5933 C   0  0  0  0  0  0  0  0  0  0  0  0
   10.0060  -16.4512   28.9291 C   0  0  0  0  0  0  0  0  0  0  0  0
    9.4308  -16.3379   27.6831 C   0  0  0  0  0  0  0  0  0  0  0  0
    9.3789  -15.0901   27.0483 C   0  0  0  0  0  0  0  0  0  0  0  0
    8.8391  -14.9362   25.6971 C   0  0  0  0  0  0  0  0  0  0  0  0
    9.7674  -15.3047   24.6176 C   0  0  2  0  0  0  0  0  0  0  0  0
    9.0355  -15.2882   23.3219 N   0  0  0  0  0  0  0  0  0  0  0  0
   10.3240  -16.6506   24.7107 C   0  0  0  0  0  0  0  0  0  0  0  0
    9.6194  -17.6033   24.2172 O   0  0  0  0  0  0  0  0  0  0  0  0
    9.9173  -14.0179   27.7167 C   0  0  0  0  0  0  0  0  0  0  0  0
   10.4814  -14.1549   28.9516 C   0  0  0  0  0  0  0  0  0  0  0  0
   11.5671  -17.0502   25.2713 N   0  0  0  0  0  0  0  0  0  0  0  0
   12.3045  -18.1868   24.8684 C   0  0  1  0  0  0  0  0  0  0  0  0
   13.0310  -18.2121   23.5938 C   0  0  0  0  0  0  0  0  0  0  0  0
   13.7558  -19.5169   23.3758 C   0  0  0  0  0  0  0  0  0  0  0  0
   14.5810  -19.4445   22.1436 C   0  0  0  0  0  0  0  0  0  0  0  0
   15.1827  -20.4700   21.7498 O   0  0  0  0  0  0  0  0  0  0  0  0
   13.2234  -18.7453   25.9255 C   0  0  0  0  0  0  0  0  0  0  0  0
   13.4726  -20.0957   25.9157 O   0  0  0  0  0  0  0  0  0  0  0  0
   14.6630  -18.2462   21.4629 O   0  0  0  0  0  0  0  0  0  0  0  0
   13.7252  -18.0040   26.7631 O   0  0  0  0  0  0  0  0  0  0  0  0
  2  1  1  6
  2  3  1  0
  4  2  1  0
  5  4  1  0
  5  6  1  1
  7  5  1  0
  7  8  2  0
  9 10  1  0
 10 11  2  0
 11 12  1  0
 13 12  2  0
 13 14  1  0
 15 14  1  1
 15 16  1  0
 16  7  1  0
 17 15  1  0
 18 17  2  0
 19 13  1  0
 20 10  1  0
 20 19  2  0
 21 17  1  0
 22 21  1  0
 23 24  1  0
 22 23  1  6
 24 25  1  0
 25 26  2  0
 27 22  1  0
 27 28  1  0
 29 25  1  0
 30 27  2  0
M  END
$$$$
