LYE.pdb
     RDKit          3D

 30 30  0  0  1  0  0  0  0  0999 V2000
    5.9489  -11.6395   25.4022 C   0  0  0  0  0  0  0  0  0  0  0  0
    6.7682  -12.8210   25.8767 C   0  0  1  0  0  0  0  0  0  0  0  0
    7.4091  -12.5488   27.2367 C   0  0  0  0  0  0  0  0  0  0  0  0
    5.9715  -14.1142   25.8961 C   0  0  0  0  0  0  0  0  0  0  0  0
    6.9058  -15.2683   25.8749 C   0  0  2  0  0  0  0  0  0  0  0  0
    8.0582  -15.0286   26.6761 N   0  0  0  0  0  0  0  0  0  0  0  0
    7.3241  -15.6871   24.5195 C   0  0  0  0  0  0  0  0  0  0  0  0
    6.5232  -16.1854   23.6828 O   0  0  0  0  0  0  0  0  0  0  0  0
    6.2205  -12.8846   17.9516 O   0  0  0  0  0  0  0  0  0  0  0  0
    7.0447  -13.2904   18.9770 C   0  0  0  0  0  0  0  0  0  0  0  0
    7.8200  -12.4155   19.7023 C   0  0  0  0  0  0  0  0  0  0  0  0
    8.6437  -12.8325   20.7240 C   0  0  0  0  0  0  0  0  0  0  0  0
    8.7115  -14.1918   21.0562 C   0  0  0  0  0  0  0  0  0  0  0  0
    9.6233  -14.6870   22.0879 C   0  0  0  0  0  0  0  0  0  0  0  0
    9.1695  -15.9037   22.7781 C   0  0  2  0  0  0  0  0  0  0  0  0
    8.6562  -15.5343   24.1252 N   0  0  0  0  0  0  0  0  0  0  0  0
   10.2095  -16.8941   23.0375 C   0  0  0  0  0  0  0  0  0  0  0  0
   11.0161  -17.1521   22.0728 O   0  0  0  0  0  0  0  0  0  0  0  0
    7.9350  -15.0600   20.3286 C   0  0  0  0  0  0  0  0  0  0  0  0
    7.1256  -14.6228   19.3209 C   0  0  0  0  0  0  0  0  0  0  0  0
   10.4597  -17.6112   24.2385 N   0  0  0  0  0  0  0  0  0  0  0  0
   11.4915  -18.5620   24.4092 C   0  0  1  0  0  0  0  0  0  0  0  0
   11.8928  -19.0208   25.7439 C   0  0  0  0  0  0  0  0  0  0  0  0
   11.5212  -18.0339   26.8224 C   0  0  0  0  0  0  0  0  0  0  0  0
   11.1869  -18.7503   28.0791 C   0  0  0  0  0  0  0  0  0  0  0  0
   11.3020  -19.9968   28.1213 O   0  0  0  0  0  0  0  0  0  0  0  0
   11.3745  -19.7795   23.5273 C   0  0  0  0  0  0  0  0  0  0  0  0
   10.2145  -19.9489   22.8119 O   0  0  0  0  0  0  0  0  0  0  0  0
   10.7574  -18.0219   29.1705 O   0  0  0  0  0  0  0  0  0  0  0  0
   12.2952  -20.5862   23.4613 O   0  0  0  0  0  0  0  0  0  0  0  0
  2  1  1  1
  2  3  1  0
  4  2  1  0
  5  4  1  0
  5  6  1  1
  7  5  1  0
  7  8  2  0
  9 10  1  0
 10 11  2  0
 11 12  1  0
 13 12  2  0
 13 14  1  0
 15 14  1  1
 15 16  1  0
 16  7  1  0
 17 15  1  0
 18 17  2  0
 19 13  1  0
 20 10  1  0
 20 19  2  0
 21 17  1  0
 22 21  1  0
 23 24  1  0
 22 23  1  1
 24 25  1  0
 25 26  2  0
 27 22  1  0
 27 28  1  0
 29 25  1  0
 30 27  2  0
M  END
$$$$
