LYE.pdb
     RDKit          3D

 30 30  0  0  1  0  0  0  0  0999 V2000
    7.8372  -13.2170   20.0082 C   0  0  0  0  0  0  0  0  0  0  0  0
    7.9356  -13.9344   18.6786 C   0  0  1  0  0  0  0  0  0  0  0  0
    7.9208  -12.9517   17.5088 C   0  0  0  0  0  0  0  0  0  0  0  0
    9.1381  -14.8592   18.6013 C   0  0  0  0  0  0  0  0  0  0  0  0
    9.0649  -15.8547   19.7009 C   0  0  2  0  0  0  0  0  0  0  0  0
    7.8369  -16.5750   19.6791 N   0  0  0  0  0  0  0  0  0  0  0  0
    9.2822  -15.2880   21.0496 C   0  0  0  0  0  0  0  0  0  0  0  0
   10.3384  -14.6788   21.3706 O   0  0  0  0  0  0  0  0  0  0  0  0
    7.1721  -12.3298   29.1062 O   0  0  0  0  0  0  0  0  0  0  0  0
    7.1217  -12.8867   27.8481 C   0  0  0  0  0  0  0  0  0  0  0  0
    6.8597  -14.2198   27.6319 C   0  0  0  0  0  0  0  0  0  0  0  0
    6.8150  -14.7674   26.3692 C   0  0  0  0  0  0  0  0  0  0  0  0
    7.0405  -13.9580   25.2482 C   0  0  0  0  0  0  0  0  0  0  0  0
    7.0700  -14.5107   23.8937 C   0  0  0  0  0  0  0  0  0  0  0  0
    8.4092  -14.8727   23.4055 C   0  0  2  0  0  0  0  0  0  0  0  0
    8.2913  -15.4192   22.0263 N   0  0  0  0  0  0  0  0  0  0  0  0
    9.0826  -15.9227   24.1630 C   0  0  0  0  0  0  0  0  0  0  0  0
    8.6407  -17.1185   24.0126 O   0  0  0  0  0  0  0  0  0  0  0  0
    7.3012  -12.6281   25.4707 C   0  0  0  0  0  0  0  0  0  0  0  0
    7.3394  -12.1081   26.7317 C   0  0  0  0  0  0  0  0  0  0  0  0
   10.1877  -15.7968   25.0474 N   0  0  0  0  0  0  0  0  0  0  0  0
   10.8281  -16.8774   25.6955 C   0  0  1  0  0  0  0  0  0  0  0  0
   12.2631  -17.1290   25.5214 C   0  0  0  0  0  0  0  0  0  0  0  0
   12.5338  -18.2143   24.5095 C   0  0  0  0  0  0  0  0  0  0  0  0
   13.9094  -18.0781   23.9680 C   0  0  0  0  0  0  0  0  0  0  0  0
   14.8066  -17.5906   24.6935 O   0  0  0  0  0  0  0  0  0  0  0  0
   10.5220  -16.9963   27.1673 C   0  0  0  0  0  0  0  0  0  0  0  0
   11.0316  -18.0753   27.8471 O   0  0  0  0  0  0  0  0  0  0  0  0
   14.1640  -18.4937   22.6762 O   0  0  0  0  0  0  0  0  0  0  0  0
    9.8365  -16.1480   27.7269 O   0  0  0  0  0  0  0  0  0  0  0  0
  2  1  1  1
  2  3  1  0
  4  2  1  0
  5  4  1  0
  5  6  1  1
  7  5  1  0
  7  8  2  0
  9 10  1  0
 10 11  2  0
 11 12  1  0
 13 12  2  0
 13 14  1  0
 15 14  1  1
 15 16  1  0
 16  7  1  0
 17 15  1  0
 18 17  2  0
 19 13  1  0
 20 10  1  0
 20 19  2  0
 21 17  1  0
 22 21  1  0
 23 24  1  0
 22 23  1  1
 24 25  1  0
 25 26  2  0
 27 22  1  0
 27 28  1  0
 29 25  1  0
 30 27  2  0
M  END
$$$$
