LYE.pdb
     RDKit          3D

 30 30  0  0  1  0  0  0  0  0999 V2000
    5.8511  -11.3562   26.1272 C   0  0  0  0  0  0  0  0  0  0  0  0
    6.6170  -12.6486   26.3156 C   0  0  1  0  0  0  0  0  0  0  0  0
    7.0610  -12.8309   27.7661 C   0  0  0  0  0  0  0  0  0  0  0  0
    5.8466  -13.8614   25.8225 C   0  0  0  0  0  0  0  0  0  0  0  0
    6.7231  -15.0587   25.8820 C   0  0  2  0  0  0  0  0  0  0  0  0
    7.7271  -14.9280   26.8831 N   0  0  0  0  0  0  0  0  0  0  0  0
    7.3537  -15.4154   24.5926 C   0  0  0  0  0  0  0  0  0  0  0  0
    6.6929  -15.8349   23.6040 O   0  0  0  0  0  0  0  0  0  0  0  0
    6.2651  -13.8936   18.0004 O   0  0  0  0  0  0  0  0  0  0  0  0
    7.1310  -14.0854   19.0534 C   0  0  0  0  0  0  0  0  0  0  0  0
    7.5292  -15.3330   19.4747 C   0  0  0  0  0  0  0  0  0  0  0  0
    8.3933  -15.5137   20.5316 C   0  0  0  0  0  0  0  0  0  0  0  0
    8.8993  -14.4024   21.2183 C   0  0  0  0  0  0  0  0  0  0  0  0
    9.7651  -14.5499   22.3885 C   0  0  0  0  0  0  0  0  0  0  0  0
    9.4777  -15.7265   23.2226 C   0  0  2  0  0  0  0  0  0  0  0  0
    8.7370  -15.2906   24.4375 N   0  0  0  0  0  0  0  0  0  0  0  0
   10.6519  -16.4246   23.7361 C   0  0  0  0  0  0  0  0  0  0  0  0
   11.4373  -15.7527   24.4974 O   0  0  0  0  0  0  0  0  0  0  0  0
    8.4982  -13.1597   20.7927 C   0  0  0  0  0  0  0  0  0  0  0  0
    7.6414  -13.0058   19.7419 C   0  0  0  0  0  0  0  0  0  0  0  0
   11.0395  -17.7734   23.5128 N   0  0  0  0  0  0  0  0  0  0  0  0
   12.2327  -18.3590   23.9936 C   0  0  1  0  0  0  0  0  0  0  0  0
   12.2050  -19.5198   24.8906 C   0  0  0  0  0  0  0  0  0  0  0  0
   11.3119  -19.2966   26.0855 C   0  0  0  0  0  0  0  0  0  0  0  0
   10.4798  -20.5007   26.3348 C   0  0  0  0  0  0  0  0  0  0  0  0
    9.9150  -21.0641   25.3692 O   0  0  0  0  0  0  0  0  0  0  0  0
   13.2699  -18.6299   22.9331 C   0  0  0  0  0  0  0  0  0  0  0  0
   14.4784  -19.1476   23.3299 O   0  0  0  0  0  0  0  0  0  0  0  0
   10.3506  -20.9687   27.6273 O   0  0  0  0  0  0  0  0  0  0  0  0
   13.0279  -18.3894   21.7556 O   0  0  0  0  0  0  0  0  0  0  0  0
  2  1  1  1
  2  3  1  0
  4  2  1  0
  5  4  1  0
  5  6  1  1
  7  5  1  0
  7  8  2  0
  9 10  1  0
 10 11  2  0
 11 12  1  0
 13 12  2  0
 13 14  1  0
 15 14  1  1
 15 16  1  0
 16  7  1  0
 17 15  1  0
 18 17  2  0
 19 13  1  0
 20 10  1  0
 20 19  2  0
 21 17  1  0
 22 21  1  0
 23 24  1  0
 22 23  1  6
 24 25  1  0
 25 26  2  0
 27 22  1  0
 27 28  1  0
 29 25  1  0
 30 27  2  0
M  END
$$$$
