LYE.pdb
     RDKit          3D

 30 30  0  0  1  0  0  0  0  0999 V2000
    7.6823  -12.1525   19.9316 C   0  0  0  0  0  0  0  0  0  0  0  0
    7.7677  -13.5473   20.5143 C   0  0  1  0  0  0  0  0  0  0  0  0
    6.4115  -14.2503   20.4873 C   0  0  0  0  0  0  0  0  0  0  0  0
    8.8368  -14.3949   19.8465 C   0  0  0  0  0  0  0  0  0  0  0  0
    9.1151  -15.5877   20.6864 C   0  0  2  0  0  0  0  0  0  0  0  0
    7.9257  -16.3108   20.9858 N   0  0  0  0  0  0  0  0  0  0  0  0
    9.8434  -15.2926   21.9394 C   0  0  0  0  0  0  0  0  0  0  0  0
   10.9821  -14.7514   21.9543 O   0  0  0  0  0  0  0  0  0  0  0  0
   10.7341  -15.0537   30.8616 O   0  0  0  0  0  0  0  0  0  0  0  0
   10.3059  -15.0402   29.5532 C   0  0  0  0  0  0  0  0  0  0  0  0
    9.8803  -13.8961   28.9188 C   0  0  0  0  0  0  0  0  0  0  0  0
    9.4506  -13.8944   27.6106 C   0  0  0  0  0  0  0  0  0  0  0  0
    9.4377  -15.0884   26.8778 C   0  0  0  0  0  0  0  0  0  0  0  0
    8.9254  -15.1451   25.5084 C   0  0  0  0  0  0  0  0  0  0  0  0
    9.9428  -15.4138   24.4811 C   0  0  2  0  0  0  0  0  0  0  0  0
    9.2672  -15.6166   23.1707 N   0  0  0  0  0  0  0  0  0  0  0  0
   10.7251  -16.6288   24.6857 C   0  0  0  0  0  0  0  0  0  0  0  0
   11.4043  -16.7032   25.7724 O   0  0  0  0  0  0  0  0  0  0  0  0
    9.8640  -16.2269   27.5167 C   0  0  0  0  0  0  0  0  0  0  0  0
   10.2863  -16.2035   28.8140 C   0  0  0  0  0  0  0  0  0  0  0  0
   10.8251  -17.7627   23.8352 N   0  0  0  0  0  0  0  0  0  0  0  0
   11.5226  -18.9500   24.1541 C   0  0  1  0  0  0  0  0  0  0  0  0
   11.2104  -20.2201   23.4891 C   0  0  0  0  0  0  0  0  0  0  0  0
   11.2989  -20.1148   21.9869 C   0  0  0  0  0  0  0  0  0  0  0  0
   10.8273  -21.3737   21.3567 C   0  0  0  0  0  0  0  0  0  0  0  0
    9.9538  -21.3189   20.4607 O   0  0  0  0  0  0  0  0  0  0  0  0
   13.0236  -18.8081   24.1789 C   0  0  0  0  0  0  0  0  0  0  0  0
   13.5740  -17.6776   23.6265 O   0  0  0  0  0  0  0  0  0  0  0  0
   11.3658  -22.5740   21.7756 O   0  0  0  0  0  0  0  0  0  0  0  0
   13.7195  -19.6842   24.6799 O   0  0  0  0  0  0  0  0  0  0  0  0
  2  1  1  6
  2  3  1  0
  4  2  1  0
  5  4  1  0
  5  6  1  1
  7  5  1  0
  7  8  2  0
  9 10  1  0
 10 11  2  0
 11 12  1  0
 13 12  2  0
 13 14  1  0
 15 14  1  1
 15 16  1  0
 16  7  1  0
 17 15  1  0
 18 17  2  0
 19 13  1  0
 20 10  1  0
 20 19  2  0
 21 17  1  0
 22 21  1  0
 23 24  1  0
 22 23  1  6
 24 25  1  0
 25 26  2  0
 27 22  1  0
 27 28  1  0
 29 25  1  0
 30 27  2  0
M  END
$$$$
