LYE.pdb
     RDKit          3D

 30 30  0  0  1  0  0  0  0  0999 V2000
    7.7733  -11.7083   19.8782 C   0  0  0  0  0  0  0  0  0  0  0  0
    7.6034  -13.1876   20.1529 C   0  0  1  0  0  0  0  0  0  0  0  0
    6.4800  -13.7889   19.3099 C   0  0  0  0  0  0  0  0  0  0  0  0
    8.8958  -13.9663   19.9780 C   0  0  0  0  0  0  0  0  0  0  0  0
    8.8405  -15.2025   20.7991 C   0  0  2  0  0  0  0  0  0  0  0  0
    7.5002  -15.5722   21.1059 N   0  0  0  0  0  0  0  0  0  0  0  0
    9.6343  -15.1406   22.0455 C   0  0  0  0  0  0  0  0  0  0  0  0
   10.8578  -14.8363   22.0596 O   0  0  0  0  0  0  0  0  0  0  0  0
   10.7351  -15.5580   30.9440 O   0  0  0  0  0  0  0  0  0  0  0  0
   10.2862  -15.4323   29.6486 C   0  0  0  0  0  0  0  0  0  0  0  0
   10.3101  -14.2400   28.9627 C   0  0  0  0  0  0  0  0  0  0  0  0
    9.8554  -14.1246   27.6681 C   0  0  0  0  0  0  0  0  0  0  0  0
    9.3459  -15.2478   27.0037 C   0  0  0  0  0  0  0  0  0  0  0  0
    8.7897  -15.1564   25.6534 C   0  0  0  0  0  0  0  0  0  0  0  0
    9.7482  -15.4322   24.5727 C   0  0  2  0  0  0  0  0  0  0  0  0
    9.0266  -15.4261   23.2712 N   0  0  0  0  0  0  0  0  0  0  0  0
   10.3911  -16.7410   24.6329 C   0  0  0  0  0  0  0  0  0  0  0  0
    9.6439  -17.7627   24.4198 O   0  0  0  0  0  0  0  0  0  0  0  0
    9.3251  -16.4350   27.6937 C   0  0  0  0  0  0  0  0  0  0  0  0
    9.7822  -16.5249   28.9762 C   0  0  0  0  0  0  0  0  0  0  0  0
   11.7575  -17.0376   24.8864 N   0  0  0  0  0  0  0  0  0  0  0  0
   12.2998  -18.3411   24.9543 C   0  0  1  0  0  0  0  0  0  0  0  0
   13.4015  -18.7554   24.0781 C   0  0  0  0  0  0  0  0  0  0  0  0
   13.4081  -17.9993   22.7729 C   0  0  0  0  0  0  0  0  0  0  0  0
   14.5274  -18.4661   21.9164 C   0  0  0  0  0  0  0  0  0  0  0  0
   15.6897  -18.4793   22.3829 O   0  0  0  0  0  0  0  0  0  0  0  0
   12.6276  -18.8121   26.3487 C   0  0  0  0  0  0  0  0  0  0  0  0
   12.5748  -17.8942   27.3688 O   0  0  0  0  0  0  0  0  0  0  0  0
   14.2566  -18.8745   20.6256 O   0  0  0  0  0  0  0  0  0  0  0  0
   12.9313  -19.9825   26.5508 O   0  0  0  0  0  0  0  0  0  0  0  0
  2  1  1  6
  2  3  1  0
  4  2  1  0
  5  4  1  0
  5  6  1  1
  7  5  1  0
  7  8  2  0
  9 10  1  0
 10 11  2  0
 11 12  1  0
 13 12  2  0
 13 14  1  0
 15 14  1  1
 15 16  1  0
 16  7  1  0
 17 15  1  0
 18 17  2  0
 19 13  1  0
 20 10  1  0
 20 19  2  0
 21 17  1  0
 22 21  1  0
 23 24  1  0
 22 23  1  6
 24 25  1  0
 25 26  2  0
 27 22  1  0
 27 28  1  0
 29 25  1  0
 30 27  2  0
M  END
$$$$
