LYE.pdb
     RDKit          3D

 30 30  0  0  1  0  0  0  0  0999 V2000
    7.3443  -12.0992   19.0375 C   0  0  0  0  0  0  0  0  0  0  0  0
    7.6667  -13.5234   19.4379 C   0  0  1  0  0  0  0  0  0  0  0  0
    8.2665  -14.3108   18.2741 C   0  0  0  0  0  0  0  0  0  0  0  0
    8.5577  -13.5975   20.6659 C   0  0  0  0  0  0  0  0  0  0  0  0
    8.6141  -15.0007   21.1490 C   0  0  2  0  0  0  0  0  0  0  0  0
    7.3530  -15.6507   21.0291 N   0  0  0  0  0  0  0  0  0  0  0  0
    9.1169  -15.1477   22.5322 C   0  0  0  0  0  0  0  0  0  0  0  0
   10.2582  -14.7473   22.8884 O   0  0  0  0  0  0  0  0  0  0  0  0
    6.1594  -10.3030   26.9723 O   0  0  0  0  0  0  0  0  0  0  0  0
    6.4960  -11.6106   26.7032 C   0  0  0  0  0  0  0  0  0  0  0  0
    7.7409  -12.1312   26.9710 C   0  0  0  0  0  0  0  0  0  0  0  0
    8.0681  -13.4399   26.6946 C   0  0  0  0  0  0  0  0  0  0  0  0
    7.1159  -14.2919   26.1203 C   0  0  0  0  0  0  0  0  0  0  0  0
    7.4411  -15.6689   25.7474 C   0  0  0  0  0  0  0  0  0  0  0  0
    8.6661  -15.8173   24.9474 C   0  0  2  0  0  0  0  0  0  0  0  0
    8.3132  -15.7513   23.5032 N   0  0  0  0  0  0  0  0  0  0  0  0
    9.3567  -17.0937   25.1014 C   0  0  0  0  0  0  0  0  0  0  0  0
    8.7238  -18.1434   24.7201 O   0  0  0  0  0  0  0  0  0  0  0  0
    5.8750  -13.7662   25.8556 C   0  0  0  0  0  0  0  0  0  0  0  0
    5.5738  -12.4660   26.1393 C   0  0  0  0  0  0  0  0  0  0  0  0
   10.6613  -17.3305   25.6123 N   0  0  0  0  0  0  0  0  0  0  0  0
   11.2737  -18.6014   25.7002 C   0  0  1  0  0  0  0  0  0  0  0  0
   12.4668  -18.9293   24.9116 C   0  0  0  0  0  0  0  0  0  0  0  0
   13.6315  -18.0275   25.2365 C   0  0  0  0  0  0  0  0  0  0  0  0
   14.5114  -17.8799   24.0498 C   0  0  0  0  0  0  0  0  0  0  0  0
   15.2047  -16.8439   23.9279 O   0  0  0  0  0  0  0  0  0  0  0  0
   11.5132  -19.0860   27.1080 C   0  0  0  0  0  0  0  0  0  0  0  0
   11.9768  -20.3673   27.2791 O   0  0  0  0  0  0  0  0  0  0  0  0
   14.5424  -18.8910   23.1101 O   0  0  0  0  0  0  0  0  0  0  0  0
   11.2952  -18.3475   28.0618 O   0  0  0  0  0  0  0  0  0  0  0  0
  2  1  1  6
  2  3  1  0
  4  2  1  0
  5  4  1  0
  5  6  1  1
  7  5  1  0
  7  8  2  0
  9 10  1  0
 10 11  2  0
 11 12  1  0
 13 12  2  0
 13 14  1  0
 15 14  1  1
 15 16  1  0
 16  7  1  0
 17 15  1  0
 18 17  2  0
 19 13  1  0
 20 10  1  0
 20 19  2  0
 21 17  1  0
 22 21  1  0
 23 24  1  0
 22 23  1  6
 24 25  1  0
 25 26  2  0
 27 22  1  0
 27 28  1  0
 29 25  1  0
 30 27  2  0
M  END
$$$$
