LYE.pdb
     RDKit          3D

 30 30  0  0  1  0  0  0  0  0999 V2000
    8.0533  -18.9024   15.9192 C   0  0  0  0  0  0  0  0  0  0  0  0
    8.6822  -19.3312   17.2281 C   0  0  1  0  0  0  0  0  0  0  0  0
    9.4253  -20.6584   17.0847 C   0  0  0  0  0  0  0  0  0  0  0  0
    9.5823  -18.2613   17.8218 C   0  0  0  0  0  0  0  0  0  0  0  0
    9.9298  -18.6296   19.2179 C   0  0  2  0  0  0  0  0  0  0  0  0
    8.8145  -19.1802   19.9110 N   0  0  0  0  0  0  0  0  0  0  0  0
   10.5094  -17.5246   20.0119 C   0  0  0  0  0  0  0  0  0  0  0  0
   11.4762  -16.8260   19.6031 O   0  0  0  0  0  0  0  0  0  0  0  0
    6.0440  -12.3740   19.0679 O   0  0  0  0  0  0  0  0  0  0  0  0
    6.7924  -13.1448   19.9288 C   0  0  0  0  0  0  0  0  0  0  0  0
    6.3075  -14.2881   20.5204 C   0  0  0  0  0  0  0  0  0  0  0  0
    7.0636  -15.0500   21.3829 C   0  0  0  0  0  0  0  0  0  0  0  0
    8.3774  -14.6681   21.6841 C   0  0  0  0  0  0  0  0  0  0  0  0
    9.1925  -15.4093   22.6469 C   0  0  0  0  0  0  0  0  0  0  0  0
   10.3924  -16.0425   22.0794 C   0  0  2  0  0  0  0  0  0  0  0  0
    9.9816  -17.2219   21.2701 N   0  0  0  0  0  0  0  0  0  0  0  0
   11.3343  -16.5757   23.0583 C   0  0  0  0  0  0  0  0  0  0  0  0
   10.9988  -17.6640   23.6506 O   0  0  0  0  0  0  0  0  0  0  0  0
    8.8557  -13.5259   21.0901 C   0  0  0  0  0  0  0  0  0  0  0  0
    8.0874  -12.7876   20.2377 C   0  0  0  0  0  0  0  0  0  0  0  0
   12.5983  -16.0494   23.4383 N   0  0  0  0  0  0  0  0  0  0  0  0
   13.6145  -16.7848   24.0897 C   0  0  1  0  0  0  0  0  0  0  0  0
   15.0276  -16.6133   23.7340 C   0  0  0  0  0  0  0  0  0  0  0  0
   15.9365  -17.4750   24.5747 C   0  0  0  0  0  0  0  0  0  0  0  0
   17.3572  -17.1579   24.2824 C   0  0  0  0  0  0  0  0  0  0  0  0
   18.1606  -17.0187   25.2332 O   0  0  0  0  0  0  0  0  0  0  0  0
   13.5223  -16.7842   25.5948 C   0  0  0  0  0  0  0  0  0  0  0  0
   14.1924  -17.7660   26.2827 O   0  0  0  0  0  0  0  0  0  0  0  0
   17.7561  -17.0251   22.9673 O   0  0  0  0  0  0  0  0  0  0  0  0
   12.8643  -15.9271   26.1738 O   0  0  0  0  0  0  0  0  0  0  0  0
  2  1  1  6
  2  3  1  0
  4  2  1  0
  5  4  1  0
  5  6  1  1
  7  5  1  0
  7  8  2  0
  9 10  1  0
 10 11  2  0
 11 12  1  0
 13 12  2  0
 13 14  1  0
 15 14  1  1
 15 16  1  0
 16  7  1  0
 17 15  1  0
 18 17  2  0
 19 13  1  0
 20 10  1  0
 20 19  2  0
 21 17  1  0
 22 21  1  0
 23 24  1  0
 22 23  1  1
 24 25  1  0
 25 26  2  0
 27 22  1  0
 27 28  1  0
 29 25  1  0
 30 27  2  0
M  END
$$$$
