QIE.pdb
     RDKit          3D

 27 26  0  0  1  0  0  0  0  0999 V2000
    9.2403  -17.5769   13.1980 N   0  0  0  0  0  0  0  0  0  0  0  0
    8.4522  -16.9231   14.2120 C   0  0  0  0  0  0  0  0  0  0  0  0
    7.1979  -17.0327   14.1651 O   0  0  0  0  0  0  0  0  0  0  0  0
    9.1574  -16.1506   15.2657 C   0  0  0  0  0  0  0  0  0  0  0  0
   10.2063  -16.9335   15.9856 C   0  0  0  0  0  0  0  0  0  0  0  0
    9.7630  -17.5278   17.2830 C   0  0  2  0  0  0  0  0  0  0  0  0
    8.3468  -17.8385   17.3006 N   0  0  0  0  0  0  0  0  0  0  0  0
    9.9846  -16.4899   18.3519 C   0  0  0  0  0  0  0  0  0  0  0  0
   11.1258  -15.9806   18.5038 O   0  0  0  0  0  0  0  0  0  0  0  0
    6.6387  -12.4050   19.6572 C   0  0  0  0  0  0  0  0  0  0  0  0
    7.8737  -13.2527   19.4444 C   0  0  0  0  0  0  0  0  0  0  0  0
    7.9663  -14.2708   20.5809 C   0  0  2  0  0  0  0  0  0  0  0  0
    8.2558  -13.4732   21.8333 C   0  0  0  0  0  0  0  0  0  0  0  0
    9.1430  -15.1931   20.3422 C   0  0  2  0  0  0  0  0  0  0  0  0
    8.9392  -16.0549   19.2106 N   0  0  0  0  0  0  0  0  0  0  0  0
    9.4405  -15.9605   21.5834 C   0  0  0  0  0  0  0  0  0  0  0  0
    8.6983  -16.9213   21.9089 O   0  0  0  0  0  0  0  0  0  0  0  0
   10.5256  -15.6669   22.4301 N   0  0  0  0  0  0  0  0  0  0  0  0
   10.9259  -16.4990   23.5698 C   0  0  1  0  0  0  0  0  0  0  0  0
   12.3959  -16.4579   23.7727 C   0  0  0  0  0  0  0  0  0  0  0  0
   13.2807  -16.8807   22.6778 C   0  0  0  0  0  0  0  0  0  0  0  0
   14.7213  -16.7488   22.8568 C   0  0  0  0  0  0  0  0  0  0  0  0
   15.2505  -16.2860   23.8766 O   0  0  0  0  0  0  0  0  0  0  0  0
   10.0551  -16.3501   24.7265 C   0  0  0  0  0  0  0  0  0  0  0  0
   10.0269  -17.3016   25.7436 O   0  0  0  0  0  0  0  0  0  0  0  0
   15.6089  -17.1591   21.8348 O   0  0  0  0  0  0  0  0  0  0  0  0
    9.2899  -15.3620   24.8541 O   0  0  0  0  0  0  0  0  0  0  0  0
  2  1  1  0
  3  2  2  0
  4  2  1  0
  5  4  1  0
  6  5  1  0
  6  7  1  6
  8 15  1  0
  8  6  1  0
  9  8  2  0
 11 10  1  0
 11 12  1  0
 12 14  1  0
 12 13  1  1
 14 15  1  6
 16 18  1  0
 16 14  1  0
 17 16  2  0
 19 18  1  0
 19 24  1  0
 19 20  1  1
 21 20  1  0
 22 26  1  0
 22 21  1  0
 23 22  2  0
 24 25  1  0
 27 24  2  0
M  END
$$$$
