QIE.pdb
     RDKit          3D

 27 26  0  0  1  0  0  0  0  0999 V2000
    5.8581  -18.8835   20.9244 N   0  0  0  0  0  0  0  0  0  0  0  0
    6.7339  -18.4080   19.8834 C   0  0  0  0  0  0  0  0  0  0  0  0
    7.0606  -19.2013   18.9607 O   0  0  0  0  0  0  0  0  0  0  0  0
    7.2099  -17.0031   19.9479 C   0  0  0  0  0  0  0  0  0  0  0  0
    6.6264  -16.2214   21.0793 C   0  0  0  0  0  0  0  0  0  0  0  0
    6.9979  -14.7740   21.0967 C   0  0  2  0  0  0  0  0  0  0  0  0
    7.8454  -14.4010   19.9810 N   0  0  0  0  0  0  0  0  0  0  0  0
    7.8059  -14.5323   22.3447 C   0  0  0  0  0  0  0  0  0  0  0  0
    9.0631  -14.5723   22.2946 O   0  0  0  0  0  0  0  0  0  0  0  0
    5.9011  -11.2551   26.2606 C   0  0  0  0  0  0  0  0  0  0  0  0
    6.8729  -11.9406   25.3254 C   0  0  0  0  0  0  0  0  0  0  0  0
    7.1684  -13.3379   25.8702 C   0  0  2  0  0  0  0  0  0  0  0  0
    8.0895  -13.1383   27.0536 C   0  0  0  0  0  0  0  0  0  0  0  0
    7.9238  -14.1391   24.8312 C   0  0  2  0  0  0  0  0  0  0  0  0
    7.1957  -14.2562   23.5979 N   0  0  0  0  0  0  0  0  0  0  0  0
    8.2925  -15.4688   25.3915 C   0  0  0  0  0  0  0  0  0  0  0  0
    7.3868  -16.2935   25.6732 O   0  0  0  0  0  0  0  0  0  0  0  0
    9.6223  -15.8637   25.6289 N   0  0  0  0  0  0  0  0  0  0  0  0
   10.0146  -17.2119   26.0534 C   0  0  1  0  0  0  0  0  0  0  0  0
   10.9902  -17.8085   25.1068 C   0  0  0  0  0  0  0  0  0  0  0  0
   12.3737  -17.3124   25.0987 C   0  0  0  0  0  0  0  0  0  0  0  0
   13.3108  -17.8794   24.1370 C   0  0  0  0  0  0  0  0  0  0  0  0
   13.2272  -17.7143   22.9122 O   0  0  0  0  0  0  0  0  0  0  0  0
   10.2730  -17.3142   27.4821 C   0  0  0  0  0  0  0  0  0  0  0  0
   10.4576  -18.5482   28.1017 O   0  0  0  0  0  0  0  0  0  0  0  0
   14.3961  -18.6718   24.5785 O   0  0  0  0  0  0  0  0  0  0  0  0
   10.3353  -16.2969   28.2164 O   0  0  0  0  0  0  0  0  0  0  0  0
  2  1  1  0
  3  2  2  0
  4  2  1  0
  5  4  1  0
  6  5  1  0
  6  7  1  6
  8 15  1  0
  8  6  1  0
  9  8  2  0
 11 10  1  0
 11 12  1  0
 12 14  1  0
 12 13  1  1
 14 15  1  6
 16 18  1  0
 16 14  1  0
 17 16  2  0
 19 18  1  0
 19 24  1  0
 19 20  1  6
 21 20  1  0
 22 26  1  0
 22 21  1  0
 23 22  2  0
 24 25  1  0
 27 24  2  0
M  END
$$$$
