QIE.pdb
     RDKit          3D

 27 26  0  0  1  0  0  0  0  0999 V2000
    5.6071  -18.6042   20.8376 N   0  0  0  0  0  0  0  0  0  0  0  0
    6.9887  -18.4552   20.4556 C   0  0  0  0  0  0  0  0  0  0  0  0
    7.6184  -19.4723   20.0602 O   0  0  0  0  0  0  0  0  0  0  0  0
    7.6050  -17.1074   20.5461 C   0  0  0  0  0  0  0  0  0  0  0  0
    6.6795  -16.0562   21.0658 C   0  0  0  0  0  0  0  0  0  0  0  0
    7.2823  -14.6937   21.1810 C   0  0  2  0  0  0  0  0  0  0  0  0
    8.2914  -14.4416   20.1707 N   0  0  0  0  0  0  0  0  0  0  0  0
    7.9851  -14.6241   22.5114 C   0  0  0  0  0  0  0  0  0  0  0  0
    9.2048  -14.9248   22.5922 O   0  0  0  0  0  0  0  0  0  0  0  0
    5.7826  -11.4344   26.4709 C   0  0  0  0  0  0  0  0  0  0  0  0
    6.8098  -12.0551   25.5494 C   0  0  0  0  0  0  0  0  0  0  0  0
    7.0898  -13.4810   26.0238 C   0  0  2  0  0  0  0  0  0  0  0  0
    7.9159  -13.3470   27.2840 C   0  0  0  0  0  0  0  0  0  0  0  0
    7.9356  -14.2016   24.9954 C   0  0  2  0  0  0  0  0  0  0  0  0
    7.3151  -14.2256   23.6996 N   0  0  0  0  0  0  0  0  0  0  0  0
    8.2642  -15.5696   25.4838 C   0  0  0  0  0  0  0  0  0  0  0  0
    7.3708  -16.4538   25.4932 O   0  0  0  0  0  0  0  0  0  0  0  0
    9.5420  -15.9377   25.9446 N   0  0  0  0  0  0  0  0  0  0  0  0
    9.8826  -17.2769   26.4368 C   0  0  1  0  0  0  0  0  0  0  0  0
   10.4638  -18.1126   25.3562 C   0  0  0  0  0  0  0  0  0  0  0  0
   11.7189  -17.6876   24.7204 C   0  0  0  0  0  0  0  0  0  0  0  0
   12.2857  -18.5249   23.6705 C   0  0  0  0  0  0  0  0  0  0  0  0
   12.7974  -19.6345   23.8736 O   0  0  0  0  0  0  0  0  0  0  0  0
   10.5329  -17.2645   27.7388 C   0  0  0  0  0  0  0  0  0  0  0  0
   10.7953  -18.4438   28.4325 O   0  0  0  0  0  0  0  0  0  0  0  0
   12.2747  -18.0892   22.3249 O   0  0  0  0  0  0  0  0  0  0  0  0
   10.8799  -16.1921   28.2935 O   0  0  0  0  0  0  0  0  0  0  0  0
  2  1  1  0
  3  2  2  0
  4  2  1  0
  5  4  1  0
  6  5  1  0
  6  7  1  6
  8 15  1  0
  8  6  1  0
  9  8  2  0
 11 10  1  0
 11 12  1  0
 12 14  1  0
 12 13  1  1
 14 15  1  6
 16 18  1  0
 16 14  1  0
 17 16  2  0
 19 18  1  0
 19 24  1  0
 19 20  1  6
 21 20  1  0
 22 26  1  0
 22 21  1  0
 23 22  2  0
 24 25  1  0
 27 24  2  0
M  END
$$$$
