QIE.pdb
     RDKit          3D

 27 26  0  0  1  0  0  0  0  0999 V2000
    8.3431  -14.1931   17.0736 N   0  0  0  0  0  0  0  0  0  0  0  0
    7.7839  -13.4290   18.1600 C   0  0  0  0  0  0  0  0  0  0  0  0
    7.7014  -12.1777   18.0378 O   0  0  0  0  0  0  0  0  0  0  0  0
    7.3304  -14.1545   19.3735 C   0  0  0  0  0  0  0  0  0  0  0  0
    8.3757  -14.2639   20.4350 C   0  0  0  0  0  0  0  0  0  0  0  0
    8.1755  -15.3906   21.3961 C   0  0  2  0  0  0  0  0  0  0  0  0
    6.7761  -15.7147   21.5938 N   0  0  0  0  0  0  0  0  0  0  0  0
    8.7010  -14.9393   22.7336 C   0  0  0  0  0  0  0  0  0  0  0  0
    9.8568  -14.4477   22.8192 O   0  0  0  0  0  0  0  0  0  0  0  0
    6.0170  -12.0105   26.2264 C   0  0  0  0  0  0  0  0  0  0  0  0
    7.1537  -12.6554   25.4641 C   0  0  0  0  0  0  0  0  0  0  0  0
    7.4512  -14.0161   26.0939 C   0  0  2  0  0  0  0  0  0  0  0  0
    8.1182  -13.7251   27.4202 C   0  0  0  0  0  0  0  0  0  0  0  0
    8.4465  -14.7669   25.2350 C   0  0  2  0  0  0  0  0  0  0  0  0
    7.9315  -15.0479   23.9233 N   0  0  0  0  0  0  0  0  0  0  0  0
    8.8875  -16.0026   25.9394 C   0  0  0  0  0  0  0  0  0  0  0  0
    8.0310  -16.8531   26.2902 O   0  0  0  0  0  0  0  0  0  0  0  0
   10.2339  -16.2794   26.2414 N   0  0  0  0  0  0  0  0  0  0  0  0
   10.6816  -17.4601   26.9877 C   0  0  1  0  0  0  0  0  0  0  0  0
   11.8399  -18.1070   26.3216 C   0  0  0  0  0  0  0  0  0  0  0  0
   11.7833  -18.3590   24.8746 C   0  0  0  0  0  0  0  0  0  0  0  0
   12.9329  -18.9830   24.2313 C   0  0  0  0  0  0  0  0  0  0  0  0
   13.4404  -20.0483   24.6079 O   0  0  0  0  0  0  0  0  0  0  0  0
   10.7302  -17.2485   28.4269 C   0  0  0  0  0  0  0  0  0  0  0  0
   10.7340  -18.3176   29.3200 O   0  0  0  0  0  0  0  0  0  0  0  0
   13.5401  -18.3753   23.1076 O   0  0  0  0  0  0  0  0  0  0  0  0
   10.7656  -16.0953   28.9239 O   0  0  0  0  0  0  0  0  0  0  0  0
  2  1  1  0
  3  2  2  0
  4  2  1  0
  5  4  1  0
  6  5  1  0
  6  7  1  1
  8 15  1  0
  8  6  1  0
  9  8  2  0
 11 10  1  0
 11 12  1  0
 12 14  1  0
 12 13  1  1
 14 15  1  6
 16 18  1  0
 16 14  1  0
 17 16  2  0
 19 18  1  0
 19 24  1  0
 19 20  1  6
 21 20  1  0
 22 26  1  0
 22 21  1  0
 23 22  2  0
 24 25  1  0
 27 24  2  0
M  END
$$$$
