QIE.pdb
     RDKit          3D

 27 26  0  0  1  0  0  0  0  0999 V2000
    7.3326  -19.4506   21.0757 N   0  0  0  0  0  0  0  0  0  0  0  0
    7.0324  -18.7165   19.8724 C   0  0  0  0  0  0  0  0  0  0  0  0
    6.7200  -19.3601   18.8352 O   0  0  0  0  0  0  0  0  0  0  0  0
    7.1052  -17.2341   19.9127 C   0  0  0  0  0  0  0  0  0  0  0  0
    7.5161  -16.6878   21.2409 C   0  0  0  0  0  0  0  0  0  0  0  0
    7.5940  -15.1969   21.3070 C   0  0  2  0  0  0  0  0  0  0  0  0
    8.4257  -14.6337   20.2613 N   0  0  0  0  0  0  0  0  0  0  0  0
    8.2519  -14.8385   22.6137 C   0  0  0  0  0  0  0  0  0  0  0  0
    9.5070  -14.8585   22.7095 O   0  0  0  0  0  0  0  0  0  0  0  0
    6.0311  -11.4258   26.2961 C   0  0  0  0  0  0  0  0  0  0  0  0
    7.0000  -12.1923   25.4226 C   0  0  0  0  0  0  0  0  0  0  0  0
    7.2047  -13.5815   26.0267 C   0  0  2  0  0  0  0  0  0  0  0  0
    8.0014  -13.3717   27.2955 C   0  0  0  0  0  0  0  0  0  0  0  0
    8.0458  -14.4235   25.0909 C   0  0  2  0  0  0  0  0  0  0  0  0
    7.5000  -14.4725   23.7626 N   0  0  0  0  0  0  0  0  0  0  0  0
    8.2336  -15.7830   25.6691 C   0  0  0  0  0  0  0  0  0  0  0  0
    7.5963  -16.7532   25.1869 O   0  0  0  0  0  0  0  0  0  0  0  0
    9.1002  -16.0504   26.7453 N   0  0  0  0  0  0  0  0  0  0  0  0
   10.1721  -17.0509   26.7068 C   0  0  1  0  0  0  0  0  0  0  0  0
   10.9317  -16.9730   25.4338 C   0  0  0  0  0  0  0  0  0  0  0  0
   12.0856  -17.8613   25.2343 C   0  0  0  0  0  0  0  0  0  0  0  0
   12.8589  -17.7327   24.0055 C   0  0  0  0  0  0  0  0  0  0  0  0
   12.4498  -18.0896   22.8921 O   0  0  0  0  0  0  0  0  0  0  0  0
   10.9100  -17.1538   27.9572 C   0  0  0  0  0  0  0  0  0  0  0  0
   11.0334  -16.0678   28.8209 O   0  0  0  0  0  0  0  0  0  0  0  0
   14.1579  -17.1738   24.0337 O   0  0  0  0  0  0  0  0  0  0  0  0
   11.4699  -18.2224   28.3074 O   0  0  0  0  0  0  0  0  0  0  0  0
  2  1  1  0
  3  2  2  0
  4  2  1  0
  5  4  1  0
  6  5  1  0
  6  7  1  6
  8 15  1  0
  8  6  1  0
  9  8  2  0
 11 10  1  0
 11 12  1  0
 12 14  1  0
 12 13  1  1
 14 15  1  6
 16 18  1  0
 16 14  1  0
 17 16  2  0
 19 18  1  0
 19 24  1  0
 19 20  1  6
 21 20  1  0
 22 26  1  0
 22 21  1  0
 23 22  2  0
 24 25  1  0
 27 24  2  0
M  END
$$$$
