QIE.pdb
     RDKit          3D

 27 26  0  0  1  0  0  0  0  0999 V2000
    7.5774  -19.2704   20.8145 N   0  0  0  0  0  0  0  0  0  0  0  0
    7.2271  -18.5525   19.6151 C   0  0  0  0  0  0  0  0  0  0  0  0
    6.8568  -19.2089   18.6054 O   0  0  0  0  0  0  0  0  0  0  0  0
    7.3190  -17.0706   19.6267 C   0  0  0  0  0  0  0  0  0  0  0  0
    7.6283  -16.4974   20.9711 C   0  0  0  0  0  0  0  0  0  0  0  0
    7.8140  -15.0148   20.9911 C   0  0  2  0  0  0  0  0  0  0  0  0
    8.7615  -14.5566   19.9938 N   0  0  0  0  0  0  0  0  0  0  0  0
    8.3983  -14.6530   22.3315 C   0  0  0  0  0  0  0  0  0  0  0  0
    9.6389  -14.7513   22.5213 O   0  0  0  0  0  0  0  0  0  0  0  0
    6.0504  -11.1186   25.8337 C   0  0  0  0  0  0  0  0  0  0  0  0
    7.0658  -11.9217   25.0506 C   0  0  0  0  0  0  0  0  0  0  0  0
    7.1481  -13.3232   25.6553 C   0  0  2  0  0  0  0  0  0  0  0  0
    7.8501  -13.1630   26.9858 C   0  0  0  0  0  0  0  0  0  0  0  0
    8.0165  -14.2033   24.7816 C   0  0  2  0  0  0  0  0  0  0  0  0
    7.5917  -14.1972   23.4089 N   0  0  0  0  0  0  0  0  0  0  0  0
    8.0654  -15.5806   25.3460 C   0  0  0  0  0  0  0  0  0  0  0  0
    7.3597  -16.4847   24.8317 O   0  0  0  0  0  0  0  0  0  0  0  0
    8.8717  -15.9362   26.4433 N   0  0  0  0  0  0  0  0  0  0  0  0
    9.7067  -17.1412   26.4919 C   0  0  1  0  0  0  0  0  0  0  0  0
   10.4303  -17.3431   25.2115 C   0  0  0  0  0  0  0  0  0  0  0  0
   11.3993  -18.4430   25.1037 C   0  0  0  0  0  0  0  0  0  0  0  0
   12.0977  -18.6338   23.8387 C   0  0  0  0  0  0  0  0  0  0  0  0
   13.0854  -17.9730   23.4891 O   0  0  0  0  0  0  0  0  0  0  0  0
   10.4403  -17.2845   27.7408 C   0  0  0  0  0  0  0  0  0  0  0  0
   10.7729  -16.1789   28.5204 O   0  0  0  0  0  0  0  0  0  0  0  0
   11.6606  -19.6188   22.9225 O   0  0  0  0  0  0  0  0  0  0  0  0
   10.8084  -18.4081   28.1652 O   0  0  0  0  0  0  0  0  0  0  0  0
  2  1  1  0
  3  2  2  0
  4  2  1  0
  5  4  1  0
  6  5  1  0
  6  7  1  6
  8 15  1  0
  8  6  1  0
  9  8  2  0
 11 10  1  0
 11 12  1  0
 12 14  1  0
 12 13  1  1
 14 15  1  6
 16 18  1  0
 16 14  1  0
 17 16  2  0
 19 18  1  0
 19 24  1  0
 19 20  1  6
 21 20  1  0
 22 26  1  0
 22 21  1  0
 23 22  2  0
 24 25  1  0
 27 24  2  0
M  END
$$$$
