QIE.pdb
     RDKit          3D

 27 26  0  0  1  0  0  0  0  0999 V2000
    8.8404  -21.7331   18.3960 N   0  0  0  0  0  0  0  0  0  0  0  0
    9.9375  -21.5268   17.4846 C   0  0  0  0  0  0  0  0  0  0  0  0
   10.3859  -22.5163   16.8465 O   0  0  0  0  0  0  0  0  0  0  0  0
   10.4876  -20.1553   17.3405 C   0  0  0  0  0  0  0  0  0  0  0  0
    9.8101  -19.1415   18.2035 C   0  0  0  0  0  0  0  0  0  0  0  0
    9.7842  -17.7576   17.6402 C   0  0  2  0  0  0  0  0  0  0  0  0
   10.8367  -17.5295   16.6693 N   0  0  0  0  0  0  0  0  0  0  0  0
   10.0404  -16.8042   18.7778 C   0  0  0  0  0  0  0  0  0  0  0  0
   11.2218  -16.4890   19.0772 O   0  0  0  0  0  0  0  0  0  0  0  0
    6.3381  -12.8871   20.0198 C   0  0  0  0  0  0  0  0  0  0  0  0
    7.6327  -13.6186   19.7402 C   0  0  0  0  0  0  0  0  0  0  0  0
    7.9585  -14.5066   20.9411 C   0  0  2  0  0  0  0  0  0  0  0  0
    8.3052  -13.5658   22.0739 C   0  0  0  0  0  0  0  0  0  0  0  0
    9.1890  -15.3359   20.6407 C   0  0  2  0  0  0  0  0  0  0  0  0
    8.9839  -16.2364   19.5399 N   0  0  0  0  0  0  0  0  0  0  0  0
    9.6281  -16.0487   21.8723 C   0  0  0  0  0  0  0  0  0  0  0  0
    8.8848  -16.9287   22.3754 O   0  0  0  0  0  0  0  0  0  0  0  0
   10.8510  -15.7896   22.5188 N   0  0  0  0  0  0  0  0  0  0  0  0
   11.2818  -16.4505   23.7554 C   0  0  1  0  0  0  0  0  0  0  0  0
   12.7586  -16.4054   23.9001 C   0  0  0  0  0  0  0  0  0  0  0  0
   13.6004  -16.6628   22.7231 C   0  0  0  0  0  0  0  0  0  0  0  0
   15.0487  -16.6071   22.8776 C   0  0  0  0  0  0  0  0  0  0  0  0
   15.6482  -15.6766   23.4336 O   0  0  0  0  0  0  0  0  0  0  0  0
   10.4551  -16.1166   24.9058 C   0  0  0  0  0  0  0  0  0  0  0  0
   10.4661  -16.8958   26.0606 O   0  0  0  0  0  0  0  0  0  0  0  0
   15.8612  -17.6527   22.3804 O   0  0  0  0  0  0  0  0  0  0  0  0
    9.6945  -15.1168   24.9045 O   0  0  0  0  0  0  0  0  0  0  0  0
  2  1  1  0
  3  2  2  0
  4  2  1  0
  5  4  1  0
  6  5  1  0
  6  7  1  6
  8 15  1  0
  8  6  1  0
  9  8  2  0
 11 10  1  0
 11 12  1  0
 12 14  1  0
 12 13  1  1
 14 15  1  6
 16 18  1  0
 16 14  1  0
 17 16  2  0
 19 18  1  0
 19 24  1  0
 19 20  1  1
 21 20  1  0
 22 26  1  0
 22 21  1  0
 23 22  2  0
 24 25  1  0
 27 24  2  0
M  END
$$$$
