FSY.pdb
     RDKit          3D

 30 31  0  0  1  0  0  0  0  0999 V2000
   22.7793   -3.1168  -17.4563 N   0  0  0  0  0  0  0  0  0  0  0  0
   22.0982   -3.4897  -16.2307 C   0  0  1  0  0  0  0  0  0  0  0  0
   20.9951   -2.4819  -16.0393 C   0  0  0  0  0  0  0  0  0  0  0  0
   21.4448   -1.1125  -15.7888 C   0  0  0  0  0  0  0  0  0  0  0  0
   21.6399   -0.1644  -16.7591 C   0  0  0  0  0  0  0  0  0  0  0  0
   22.0604    1.1063  -16.4400 C   0  0  0  0  0  0  0  0  0  0  0  0
   22.3010    1.4724  -15.1324 C   0  0  0  0  0  0  0  0  0  0  0  0
   22.1094    0.5316  -14.1486 C   0  0  0  0  0  0  0  0  0  0  0  0
   21.6887   -0.7356  -14.4804 C   0  0  0  0  0  0  0  0  0  0  0  0
   21.6024   -4.8837  -16.3093 C   0  0  0  0  0  0  0  0  0  0  0  0
   21.1058   -5.2571  -17.4224 O   0  0  0  0  0  0  0  0  0  0  0  0
   21.3344   -7.0870  -12.9131 O   0  0  0  0  0  0  0  0  0  0  0  0
   21.6995   -7.8312  -14.0506 C   0  0  0  0  0  0  0  0  0  0  0  0
   21.1697   -7.0973  -15.2539 C   0  0  2  0  0  0  0  0  0  0  0  0
   21.6829   -5.7419  -15.1997 N   0  0  0  0  0  0  0  0  0  0  0  0
   19.6983   -7.1320  -15.3548 C   0  0  0  0  0  0  0  0  0  0  0  0
   19.0596   -6.1310  -14.9383 O   0  0  0  0  0  0  0  0  0  0  0  0
   18.0543  -14.4851  -15.0207 O   0  0  0  0  0  0  0  0  0  0  0  0
   17.7358  -13.1996  -15.4510 C   0  0  0  0  0  0  0  0  0  0  0  0
   16.5399  -12.5970  -15.1716 C   0  0  0  0  0  0  0  0  0  0  0  0
   16.2947  -11.3287  -15.6279 C   0  0  0  0  0  0  0  0  0  0  0  0
   17.2169  -10.6090  -16.3748 C   0  0  0  0  0  0  0  0  0  0  0  0
   16.9821   -9.2430  -16.8812 C   0  0  0  0  0  0  0  0  0  0  0  0
   17.4781   -8.2307  -15.9189 C   0  0  2  0  0  0  0  0  0  0  0  0
   18.9512   -8.2033  -15.8832 N   0  0  0  0  0  0  0  0  0  0  0  0
   16.9172   -8.3824  -14.5867 C   0  0  0  0  0  0  0  0  0  0  0  0
   17.6821   -8.7654  -13.6325 O   0  0  0  0  0  0  0  0  0  0  0  0
   18.4260  -11.2630  -16.6371 C   0  0  0  0  0  0  0  0  0  0  0  0
   18.6853  -12.5343  -16.1859 C   0  0  0  0  0  0  0  0  0  0  0  0
   15.5946   -8.1321  -14.2878 O   0  0  0  0  0  0  0  0  0  0  0  0
  2  1  1  6
  2  3  1  0
  3  4  1  0
  4  9  1  0
  4  5  2  0
  5  6  1  0
  6  7  2  0
  8  7  1  0
  9  8  2  0
 10 11  2  0
 10  2  1  0
 13 12  1  0
 14 13  1  1
 14 15  1  0
 15 10  1  0
 16 17  2  0
 16 14  1  0
 18 19  1  0
 19 29  2  0
 19 20  1  0
 20 21  2  0
 21 22  1  0
 22 23  1  0
 24 23  1  6
 24 25  1  0
 24 26  1  0
 25 16  1  0
 26 30  1  0
 27 26  2  0
 28 22  2  0
 29 28  1  0
M  END
$$$$
