FSY.pdb
     RDKit          3D

 30 31  0  0  1  0  0  0  0  0999 V2000
   15.9731  -16.7798    2.4505 N   0  0  0  0  0  0  0  0  0  0  0  0
   17.0507  -16.0817    3.1260 C   0  0  1  0  0  0  0  0  0  0  0  0
   16.5853  -14.6600    3.3023 C   0  0  0  0  0  0  0  0  0  0  0  0
   17.5888  -13.7430    3.8432 C   0  0  0  0  0  0  0  0  0  0  0  0
   18.6927  -13.3021    3.1609 C   0  0  0  0  0  0  0  0  0  0  0  0
   19.5890  -12.4336    3.7401 C   0  0  0  0  0  0  0  0  0  0  0  0
   19.4096  -11.9749    5.0282 C   0  0  0  0  0  0  0  0  0  0  0  0
   18.3066  -12.4087    5.7246 C   0  0  0  0  0  0  0  0  0  0  0  0
   17.4176  -13.2772    5.1344 C   0  0  0  0  0  0  0  0  0  0  0  0
   17.3837  -16.7457    4.4079 C   0  0  0  0  0  0  0  0  0  0  0  0
   18.5383  -17.2782    4.4985 O   0  0  0  0  0  0  0  0  0  0  0  0
   16.4478  -17.3376    9.0282 O   0  0  0  0  0  0  0  0  0  0  0  0
   16.1415  -16.6726    7.8261 C   0  0  0  0  0  0  0  0  0  0  0  0
   16.7531  -17.4708    6.7053 C   0  0  2  0  0  0  0  0  0  0  0  0
   16.4588  -16.7786    5.4652 N   0  0  0  0  0  0  0  0  0  0  0  0
   16.3033  -18.8756    6.6792 C   0  0  0  0  0  0  0  0  0  0  0  0
   15.2911  -19.1529    5.9850 O   0  0  0  0  0  0  0  0  0  0  0  0
   14.7229  -20.8994    0.9085 O   0  0  0  0  0  0  0  0  0  0  0  0
   15.4553  -21.0341    2.0852 C   0  0  0  0  0  0  0  0  0  0  0  0
   15.0165  -21.7658    3.1545 C   0  0  0  0  0  0  0  0  0  0  0  0
   15.7909  -21.8545    4.2813 C   0  0  0  0  0  0  0  0  0  0  0  0
   17.0234  -21.2269    4.3956 C   0  0  0  0  0  0  0  0  0  0  0  0
   17.8793  -21.3024    5.5952 C   0  0  0  0  0  0  0  0  0  0  0  0
   17.0595  -21.2962    6.8300 C   0  0  2  0  0  0  0  0  0  0  0  0
   16.9222  -19.9335    7.3740 N   0  0  0  0  0  0  0  0  0  0  0  0
   17.5369  -22.2260    7.8401 C   0  0  0  0  0  0  0  0  0  0  0  0
   17.8799  -21.7710    8.9880 O   0  0  0  0  0  0  0  0  0  0  0  0
   17.4332  -20.4896    3.2790 C   0  0  0  0  0  0  0  0  0  0  0  0
   16.6673  -20.3919    2.1429 C   0  0  0  0  0  0  0  0  0  0  0  0
   17.6400  -23.5850    7.6316 O   0  0  0  0  0  0  0  0  0  0  0  0
  2  1  1  1
  2  3  1  0
  3  4  1  0
  4  9  1  0
  4  5  2  0
  5  6  1  0
  6  7  2  0
  8  7  1  0
  9  8  2  0
 10 11  2  0
 10  2  1  0
 13 12  1  0
 14 13  1  1
 14 15  1  0
 15 10  1  0
 16 17  2  0
 16 14  1  0
 18 19  1  0
 19 29  2  0
 19 20  1  0
 20 21  2  0
 21 22  1  0
 22 23  1  0
 24 23  1  6
 24 25  1  0
 24 26  1  0
 25 16  1  0
 26 30  1  0
 27 26  2  0
 28 22  2  0
 29 28  1  0
M  END
$$$$
