FSY.pdb
     RDKit          3D

 30 31  0  0  1  0  0  0  0  0999 V2000
   23.2513  -10.9610  -18.7147 N   0  0  0  0  0  0  0  0  0  0  0  0
   22.2022  -10.0082  -19.0249 C   0  0  1  0  0  0  0  0  0  0  0  0
   21.0205  -10.3918  -18.1732 C   0  0  0  0  0  0  0  0  0  0  0  0
   20.3523  -11.6330  -18.5649 C   0  0  0  0  0  0  0  0  0  0  0  0
   19.5508  -11.7744  -19.6676 C   0  0  0  0  0  0  0  0  0  0  0  0
   18.9614  -12.9802  -19.9707 C   0  0  0  0  0  0  0  0  0  0  0  0
   19.1555  -14.0905  -19.1761 C   0  0  0  0  0  0  0  0  0  0  0  0
   19.9571  -13.9634  -18.0667 C   0  0  0  0  0  0  0  0  0  0  0  0
   20.5409  -12.7523  -17.7743 C   0  0  0  0  0  0  0  0  0  0  0  0
   22.6648   -8.6215  -18.7836 C   0  0  0  0  0  0  0  0  0  0  0  0
   23.4960   -8.4482  -17.8329 O   0  0  0  0  0  0  0  0  0  0  0  0
   20.9469   -5.6052  -20.8470 O   0  0  0  0  0  0  0  0  0  0  0  0
   22.3184   -5.4078  -20.5996 C   0  0  0  0  0  0  0  0  0  0  0  0
   22.6693   -6.2010  -19.3687 C   0  0  2  0  0  0  0  0  0  0  0  0
   22.1994   -7.5575  -19.5746 N   0  0  0  0  0  0  0  0  0  0  0  0
   22.1383   -5.6103  -18.1255 C   0  0  0  0  0  0  0  0  0  0  0  0
   20.9252   -5.8076  -17.8558 O   0  0  0  0  0  0  0  0  0  0  0  0
   20.2879   -9.9469  -14.1557 O   0  0  0  0  0  0  0  0  0  0  0  0
   20.9683   -8.7416  -14.3087 C   0  0  0  0  0  0  0  0  0  0  0  0
   22.3316   -8.6624  -14.3899 C   0  0  0  0  0  0  0  0  0  0  0  0
   22.9339   -7.4411  -14.5403 C   0  0  0  0  0  0  0  0  0  0  0  0
   22.2166   -6.2553  -14.6160 C   0  0  0  0  0  0  0  0  0  0  0  0
   22.8358   -4.9256  -14.7765 C   0  0  0  0  0  0  0  0  0  0  0  0
   22.3218   -4.2469  -15.9897 C   0  0  2  0  0  0  0  0  0  0  0  0
   22.8877   -4.8398  -17.2145 N   0  0  0  0  0  0  0  0  0  0  0  0
   22.5072   -2.8055  -15.9626 C   0  0  0  0  0  0  0  0  0  0  0  0
   22.0611   -2.1424  -14.9609 O   0  0  0  0  0  0  0  0  0  0  0  0
   20.8257   -6.3826  -14.5286 C   0  0  0  0  0  0  0  0  0  0  0  0
   20.2085   -7.6004  -14.3778 C   0  0  0  0  0  0  0  0  0  0  0  0
   23.1453   -2.1041  -16.9636 O   0  0  0  0  0  0  0  0  0  0  0  0
  2  1  1  1
  2  3  1  0
  3  4  1  0
  4  9  1  0
  4  5  2  0
  5  6  1  0
  6  7  2  0
  8  7  1  0
  9  8  2  0
 10 11  2  0
 10  2  1  0
 13 12  1  0
 14 13  1  6
 14 15  1  0
 15 10  1  0
 16 17  2  0
 16 14  1  0
 18 19  1  0
 19 29  2  0
 19 20  1  0
 20 21  2  0
 21 22  1  0
 22 23  1  0
 24 23  1  1
 24 25  1  0
 24 26  1  0
 25 16  1  0
 26 30  1  0
 27 26  2  0
 28 22  2  0
 29 28  1  0
M  END
$$$$
