FSY.pdb
     RDKit          3D

 30 31  0  0  1  0  0  0  0  0999 V2000
   15.1607  -16.7194  -17.4342 N   0  0  0  0  0  0  0  0  0  0  0  0
   15.7909  -17.6730  -16.5406 C   0  0  1  0  0  0  0  0  0  0  0  0
   16.9609  -16.9566  -15.9186 C   0  0  0  0  0  0  0  0  0  0  0  0
   18.0296  -16.5929  -16.8493 C   0  0  0  0  0  0  0  0  0  0  0  0
   18.2360  -15.3331  -17.3479 C   0  0  0  0  0  0  0  0  0  0  0  0
   19.2698  -15.0710  -18.2174 C   0  0  0  0  0  0  0  0  0  0  0  0
   20.1359  -16.0661  -18.6188 C   0  0  0  0  0  0  0  0  0  0  0  0
   19.9409  -17.3348  -18.1266 C   0  0  0  0  0  0  0  0  0  0  0  0
   18.9036  -17.5842  -17.2578 C   0  0  0  0  0  0  0  0  0  0  0  0
   14.8203  -18.1750  -15.5401 C   0  0  0  0  0  0  0  0  0  0  0  0
   14.1369  -17.3020  -14.9112 O   0  0  0  0  0  0  0  0  0  0  0  0
   14.2532  -22.2424  -14.9932 O   0  0  0  0  0  0  0  0  0  0  0  0
   13.1758  -21.3498  -14.8396 C   0  0  0  0  0  0  0  0  0  0  0  0
   13.7390  -20.0551  -14.3163 C   0  0  2  0  0  0  0  0  0  0  0  0
   14.6717  -19.5527  -15.3068 N   0  0  0  0  0  0  0  0  0  0  0  0
   14.3589  -20.1870  -12.9841 C   0  0  0  0  0  0  0  0  0  0  0  0
   15.6062  -20.3448  -12.9323 O   0  0  0  0  0  0  0  0  0  0  0  0
    9.9002  -15.7739   -9.5277 O   0  0  0  0  0  0  0  0  0  0  0  0
   11.0470  -16.5631   -9.5617 C   0  0  0  0  0  0  0  0  0  0  0  0
   11.4310  -17.3618   -8.5197 C   0  0  0  0  0  0  0  0  0  0  0  0
   12.5727  -18.1122   -8.6231 C   0  0  0  0  0  0  0  0  0  0  0  0
   13.3762  -18.1032   -9.7547 C   0  0  0  0  0  0  0  0  0  0  0  0
   14.6111  -18.8984   -9.8958 C   0  0  0  0  0  0  0  0  0  0  0  0
   14.3136  -20.2427  -10.4446 C   0  0  2  0  0  0  0  0  0  0  0  0
   13.6591  -20.1498  -11.7618 N   0  0  0  0  0  0  0  0  0  0  0  0
   13.5531  -21.0796   -9.5314 C   0  0  0  0  0  0  0  0  0  0  0  0
   14.0302  -21.3171   -8.3660 O   0  0  0  0  0  0  0  0  0  0  0  0
   12.9462  -17.2727  -10.7958 C   0  0  0  0  0  0  0  0  0  0  0  0
   11.8040  -16.5150  -10.7059 C   0  0  0  0  0  0  0  0  0  0  0  0
   12.3328  -21.6363   -9.8509 O   0  0  0  0  0  0  0  0  0  0  0  0
  2  1  1  6
  2  3  1  0
  3  4  1  0
  4  9  1  0
  4  5  2  0
  5  6  1  0
  6  7  2  0
  8  7  1  0
  9  8  2  0
 10 11  2  0
 10  2  1  0
 13 12  1  0
 14 13  1  6
 14 15  1  0
 15 10  1  0
 16 17  2  0
 16 14  1  0
 18 19  1  0
 19 29  2  0
 19 20  1  0
 20 21  2  0
 21 22  1  0
 22 23  1  0
 24 23  1  1
 24 25  1  0
 24 26  1  0
 25 16  1  0
 26 30  1  0
 27 26  2  0
 28 22  2  0
 29 28  1  0
M  END
$$$$
