FSY.pdb
     RDKit          3D

 30 31  0  0  1  0  0  0  0  0999 V2000
   23.1858  -12.8882  -21.4696 N   0  0  0  0  0  0  0  0  0  0  0  0
   21.8968  -12.9532  -22.1321 C   0  0  1  0  0  0  0  0  0  0  0  0
   21.6487  -14.4093  -22.4274 C   0  0  0  0  0  0  0  0  0  0  0  0
   22.0454  -14.8455  -23.7663 C   0  0  0  0  0  0  0  0  0  0  0  0
   23.3081  -15.2494  -24.1142 C   0  0  0  0  0  0  0  0  0  0  0  0
   23.5999  -15.6509  -25.3975 C   0  0  0  0  0  0  0  0  0  0  0  0
   22.6329  -15.6616  -26.3806 C   0  0  0  0  0  0  0  0  0  0  0  0
   21.3618  -15.2590  -26.0460 C   0  0  0  0  0  0  0  0  0  0  0  0
   21.0824  -14.8598  -24.7592 C   0  0  0  0  0  0  0  0  0  0  0  0
   20.8418  -12.3451  -21.2881 C   0  0  0  0  0  0  0  0  0  0  0  0
   21.1554  -12.0672  -20.0842 O   0  0  0  0  0  0  0  0  0  0  0  0
   17.2243  -11.3513  -22.9434 O   0  0  0  0  0  0  0  0  0  0  0  0
   17.7289  -10.5674  -21.8889 C   0  0  0  0  0  0  0  0  0  0  0  0
   18.5250  -11.4804  -20.9945 C   0  0  2  0  0  0  0  0  0  0  0  0
   19.5600  -12.0926  -21.8054 N   0  0  0  0  0  0  0  0  0  0  0  0
   17.6948  -12.4835  -20.3008 C   0  0  0  0  0  0  0  0  0  0  0  0
   16.7839  -12.0643  -19.5407 O   0  0  0  0  0  0  0  0  0  0  0  0
   11.8682  -11.1287  -19.1636 O   0  0  0  0  0  0  0  0  0  0  0  0
   12.8223  -12.1123  -19.4117 C   0  0  0  0  0  0  0  0  0  0  0  0
   13.4378  -12.8191  -18.4153 C   0  0  0  0  0  0  0  0  0  0  0  0
   14.3680  -13.7733  -18.7335 C   0  0  0  0  0  0  0  0  0  0  0  0
   14.7252  -14.0655  -20.0424 C   0  0  0  0  0  0  0  0  0  0  0  0
   15.7235  -15.0856  -20.4170 C   0  0  0  0  0  0  0  0  0  0  0  0
   17.0047  -14.8556  -19.7083 C   0  0  2  0  0  0  0  0  0  0  0  0
   17.8443  -13.8789  -20.4246 N   0  0  0  0  0  0  0  0  0  0  0  0
   17.7348  -16.0814  -19.4308 C   0  0  0  0  0  0  0  0  0  0  0  0
   18.5541  -16.5268  -20.3098 O   0  0  0  0  0  0  0  0  0  0  0  0
   14.0713  -13.3192  -21.0293 C   0  0  0  0  0  0  0  0  0  0  0  0
   13.1368  -12.3596  -20.7248 C   0  0  0  0  0  0  0  0  0  0  0  0
   17.5962  -16.7983  -18.2612 O   0  0  0  0  0  0  0  0  0  0  0  0
  2  1  1  1
  2  3  1  0
  3  4  1  0
  4  9  1  0
  4  5  2  0
  5  6  1  0
  6  7  2  0
  8  7  1  0
  9  8  2  0
 10 11  2  0
 10  2  1  0
 13 12  1  0
 14 13  1  6
 14 15  1  0
 15 10  1  0
 16 17  2  0
 16 14  1  0
 18 19  1  0
 19 29  2  0
 19 20  1  0
 20 21  2  0
 21 22  1  0
 22 23  1  0
 24 23  1  6
 24 25  1  0
 24 26  1  0
 25 16  1  0
 26 30  1  0
 27 26  2  0
 28 22  2  0
 29 28  1  0
M  END
$$$$
