FSY.pdb
     RDKit          3D

 30 31  0  0  1  0  0  0  0  0999 V2000
   30.8359   -8.9883  -17.7033 N   0  0  0  0  0  0  0  0  0  0  0  0
   30.7002  -10.3724  -18.1165 C   0  0  1  0  0  0  0  0  0  0  0  0
   31.5654  -11.1770  -17.1820 C   0  0  0  0  0  0  0  0  0  0  0  0
   33.0028  -11.0887  -17.4395 C   0  0  0  0  0  0  0  0  0  0  0  0
   33.6207  -11.5308  -18.5802 C   0  0  0  0  0  0  0  0  0  0  0  0
   34.9807  -11.4064  -18.7483 C   0  0  0  0  0  0  0  0  0  0  0  0
   35.7717  -10.8324  -17.7755 C   0  0  0  0  0  0  0  0  0  0  0  0
   35.1655  -10.3844  -16.6259 C   0  0  0  0  0  0  0  0  0  0  0  0
   33.8047  -10.5145  -16.4696 C   0  0  0  0  0  0  0  0  0  0  0  0
   29.2787  -10.7896  -18.0939 C   0  0  0  0  0  0  0  0  0  0  0  0
   29.0163  -11.9654  -18.5105 O   0  0  0  0  0  0  0  0  0  0  0  0
   26.8881   -9.3946  -15.4418 O   0  0  0  0  0  0  0  0  0  0  0  0
   26.5113  -10.5459  -16.1585 C   0  0  0  0  0  0  0  0  0  0  0  0
   26.8842  -10.3175  -17.5994 C   0  0  2  0  0  0  0  0  0  0  0  0
   28.2781   -9.9182  -17.6317 N   0  0  0  0  0  0  0  0  0  0  0  0
   26.0097   -9.3428  -18.2788 C   0  0  0  0  0  0  0  0  0  0  0  0
   26.4585   -8.1813  -18.4602 O   0  0  0  0  0  0  0  0  0  0  0  0
   24.5793  -11.2447  -25.1370 O   0  0  0  0  0  0  0  0  0  0  0  0
   24.5212  -10.4143  -24.0206 C   0  0  0  0  0  0  0  0  0  0  0  0
   23.4693   -9.5762  -23.7714 C   0  0  0  0  0  0  0  0  0  0  0  0
   23.4796   -8.7865  -22.6519 C   0  0  0  0  0  0  0  0  0  0  0  0
   24.5247   -8.7937  -21.7386 C   0  0  0  0  0  0  0  0  0  0  0  0
   24.5656   -7.9548  -20.5254 C   0  0  0  0  0  0  0  0  0  0  0  0
   23.8526   -8.6124  -19.4046 C   0  0  2  0  0  0  0  0  0  0  0  0
   24.7067   -9.6135  -18.7413 N   0  0  0  0  0  0  0  0  0  0  0  0
   22.5724   -9.1802  -19.7937 C   0  0  0  0  0  0  0  0  0  0  0  0
   22.3830  -10.4391  -19.6467 O   0  0  0  0  0  0  0  0  0  0  0  0
   25.5793   -9.6653  -22.0324 C   0  0  0  0  0  0  0  0  0  0  0  0
   25.5823  -10.4626  -23.1510 C   0  0  0  0  0  0  0  0  0  0  0  0
   21.5381   -8.4323  -20.3151 O   0  0  0  0  0  0  0  0  0  0  0  0
  2  1  1  1
  2  3  1  0
  3  4  1  0
  4  9  1  0
  4  5  2  0
  5  6  1  0
  6  7  2  0
  8  7  1  0
  9  8  2  0
 10 11  2  0
 10  2  1  0
 13 12  1  0
 14 13  1  1
 14 15  1  0
 15 10  1  0
 16 17  2  0
 16 14  1  0
 18 19  1  0
 19 29  2  0
 19 20  1  0
 20 21  2  0
 21 22  1  0
 22 23  1  0
 24 23  1  6
 24 25  1  0
 24 26  1  0
 25 16  1  0
 26 30  1  0
 27 26  2  0
 28 22  2  0
 29 28  1  0
M  END
$$$$
