SFI.pdb
     RDKit          3D

 26 26  0  0  1  0  0  0  0  0999 V2000
   10.7285  -18.7500   21.7475 O   0  0  0  0  0  0  0  0  0  0  0  0
    9.6209  -18.5784   20.9245 C   0  0  0  0  0  0  0  0  0  0  0  0
    9.5339  -17.1551   20.3911 C   0  0  2  0  0  0  0  0  0  0  0  0
   10.7028  -16.9530   19.5573 N   0  0  0  0  0  0  0  0  0  0  0  0
    9.5978  -16.2652   21.6063 C   0  0  0  0  0  0  0  0  0  0  0  0
   10.7028  -15.8138   22.0001 O   0  0  0  0  0  0  0  0  0  0  0  0
    8.4470  -15.9046   22.3429 N   0  0  0  0  0  0  0  0  0  0  0  0
    8.4753  -15.1149   23.5464 C   0  0  1  0  0  0  0  0  0  0  0  0
    7.1401  -14.4803   23.8701 C   0  0  0  0  0  0  0  0  0  0  0  0
    7.1544  -13.6004   25.0255 C   0  0  0  0  0  0  0  0  0  0  0  0
    6.6675  -14.0329   26.2364 C   0  0  0  0  0  0  0  0  0  0  0  0
    6.6736  -13.1956   27.3602 C   0  0  0  0  0  0  0  0  0  0  0  0
    7.1738  -11.9195   27.2549 C   0  0  0  0  0  0  0  0  0  0  0  0
    7.6668  -11.4749   26.0379 C   0  0  0  0  0  0  0  0  0  0  0  0
    7.6536  -12.3245   24.9237 C   0  0  0  0  0  0  0  0  0  0  0  0
    8.9607  -15.9049   24.7175 C   0  0  0  0  0  0  0  0  0  0  0  0
    8.5324  -17.0681   24.9272 O   0  0  0  0  0  0  0  0  0  0  0  0
   14.0896  -15.8585   25.1905 C   0  0  0  0  0  0  0  0  0  0  0  0
   12.6322  -16.2561   25.2008 C   0  0  0  0  0  0  0  0  0  0  0  0
   12.0793  -15.9709   26.5804 C   0  0  2  0  0  0  0  0  0  0  0  0
   12.8148  -16.8405   27.5659 C   0  0  0  0  0  0  0  0  0  0  0  0
   10.5836  -16.2092   26.6322 C   0  0  2  0  0  0  0  0  0  0  0  0
    9.9148  -15.3854   25.6348 N   0  0  0  0  0  0  0  0  0  0  0  0
   10.0408  -15.8817   27.9735 C   0  0  0  0  0  0  0  0  0  0  0  0
    9.9348  -16.8630   28.9498 O   0  0  0  0  0  0  0  0  0  0  0  0
    9.6612  -14.7208   28.2745 O   0  0  0  0  0  0  0  0  0  0  0  0
  2  1  1  0
  3  2  1  0
  3  4  1  6
  5  3  1  0
  5  7  1  0
  6  5  2  0
  8  7  1  0
  8  9  1  1
  9 10  1  0
 10 11  2  0
 11 12  1  0
 13 12  2  0
 14 13  1  0
 15 10  1  0
 15 14  2  0
 16  8  1  0
 17 16  2  0
 19 18  1  0
 19 20  1  0
 20 22  1  0
 20 21  1  1
 22 23  1  6
 22 24  1  0
 23 16  1  0
 24 25  1  0
 26 24  2  0
M  END
$$$$
