SFI.pdb
     RDKit          3D

 26 26  0  0  1  0  0  0  0  0999 V2000
   10.6151  -19.0064   21.7643 O   0  0  0  0  0  0  0  0  0  0  0  0
   11.5079  -18.3273   20.9424 C   0  0  0  0  0  0  0  0  0  0  0  0
   10.8993  -17.0448   20.3925 C   0  0  2  0  0  0  0  0  0  0  0  0
   11.9292  -16.4055   19.5968 N   0  0  0  0  0  0  0  0  0  0  0  0
   10.5736  -16.2036   21.6003 C   0  0  0  0  0  0  0  0  0  0  0  0
   11.4801  -15.5525   22.1786 O   0  0  0  0  0  0  0  0  0  0  0  0
    9.2660  -16.1087   22.1276 N   0  0  0  0  0  0  0  0  0  0  0  0
    8.9288  -15.3741   23.3190 C   0  0  1  0  0  0  0  0  0  0  0  0
    7.4765  -14.9505   23.3627 C   0  0  0  0  0  0  0  0  0  0  0  0
    7.1419  -14.0544   24.4557 C   0  0  0  0  0  0  0  0  0  0  0  0
    7.5997  -12.7580   24.4583 C   0  0  0  0  0  0  0  0  0  0  0  0
    7.2863  -11.8814   25.5060 C   0  0  0  0  0  0  0  0  0  0  0  0
    6.5084  -12.3209   26.5508 C   0  0  0  0  0  0  0  0  0  0  0  0
    6.0425  -13.6265   26.5564 C   0  0  0  0  0  0  0  0  0  0  0  0
    6.3648  -14.4905   25.5012 C   0  0  0  0  0  0  0  0  0  0  0  0
    9.2747  -16.1349   24.5569 C   0  0  0  0  0  0  0  0  0  0  0  0
    9.2414  -17.3916   24.5666 O   0  0  0  0  0  0  0  0  0  0  0  0
   10.7409  -13.0496   28.9811 C   0  0  0  0  0  0  0  0  0  0  0  0
   10.8767  -13.9715   27.7922 C   0  0  0  0  0  0  0  0  0  0  0  0
   10.1828  -15.2738   28.1285 C   0  0  2  0  0  0  0  0  0  0  0  0
   10.9057  -15.8999   29.2920 C   0  0  0  0  0  0  0  0  0  0  0  0
   10.1445  -16.2006   26.9301 C   0  0  2  0  0  0  0  0  0  0  0  0
    9.6517  -15.4827   25.7628 N   0  0  0  0  0  0  0  0  0  0  0  0
    9.2638  -17.3659   27.1891 C   0  0  0  0  0  0  0  0  0  0  0  0
    9.7970  -18.5662   27.6389 O   0  0  0  0  0  0  0  0  0  0  0  0
    8.0192  -17.3137   27.0145 O   0  0  0  0  0  0  0  0  0  0  0  0
  2  1  1  0
  3  2  1  0
  3  4  1  6
  5  3  1  0
  5  7  1  0
  6  5  2  0
  8  7  1  0
  8  9  1  6
  9 10  1  0
 10 11  2  0
 11 12  1  0
 13 12  2  0
 14 13  1  0
 15 10  1  0
 15 14  2  0
 16  8  1  0
 17 16  2  0
 19 18  1  0
 19 20  1  0
 20 22  1  0
 20 21  1  1
 22 23  1  6
 22 24  1  0
 23 16  1  0
 24 25  1  0
 26 24  2  0
M  END
$$$$
