SFI.pdb
     RDKit          3D

 26 26  0  0  1  0  0  0  0  0999 V2000
   11.7833  -18.7522   21.7895 O   0  0  0  0  0  0  0  0  0  0  0  0
   10.7740  -18.4164   20.8939 C   0  0  0  0  0  0  0  0  0  0  0  0
   10.8391  -16.9469   20.5011 C   0  0  2  0  0  0  0  0  0  0  0  0
   12.2062  -16.6872   20.0934 N   0  0  0  0  0  0  0  0  0  0  0  0
   10.5129  -16.1797   21.7570 C   0  0  0  0  0  0  0  0  0  0  0  0
   11.4285  -15.6144   22.4067 O   0  0  0  0  0  0  0  0  0  0  0  0
    9.1946  -16.0619   22.2524 N   0  0  0  0  0  0  0  0  0  0  0  0
    8.8481  -15.3641   23.4631 C   0  0  1  0  0  0  0  0  0  0  0  0
    7.3860  -14.9783   23.5267 C   0  0  0  0  0  0  0  0  0  0  0  0
    7.0347  -14.1280   24.6505 C   0  0  0  0  0  0  0  0  0  0  0  0
    7.4225  -12.8091   24.6738 C   0  0  0  0  0  0  0  0  0  0  0  0
    7.0921  -11.9760   25.7514 C   0  0  0  0  0  0  0  0  0  0  0  0
    6.3681  -12.4817   26.8049 C   0  0  0  0  0  0  0  0  0  0  0  0
    5.9728  -13.8104   26.7898 C   0  0  0  0  0  0  0  0  0  0  0  0
    6.3113  -14.6302   25.7049 C   0  0  0  0  0  0  0  0  0  0  0  0
    9.2220  -16.1448   24.6803 C   0  0  0  0  0  0  0  0  0  0  0  0
    9.3819  -17.3902   24.6183 O   0  0  0  0  0  0  0  0  0  0  0  0
   10.4868  -13.0071   29.1051 C   0  0  0  0  0  0  0  0  0  0  0  0
   10.6962  -13.9270   27.9253 C   0  0  0  0  0  0  0  0  0  0  0  0
   10.0931  -15.2720   28.2682 C   0  0  2  0  0  0  0  0  0  0  0  0
   10.8891  -15.8643   29.4013 C   0  0  0  0  0  0  0  0  0  0  0  0
   10.0725  -16.1880   27.0609 C   0  0  2  0  0  0  0  0  0  0  0  0
    9.4113  -15.5248   25.9457 N   0  0  0  0  0  0  0  0  0  0  0  0
    9.3570  -17.4512   27.3661 C   0  0  0  0  0  0  0  0  0  0  0  0
    8.0031  -17.5795   27.0871 O   0  0  0  0  0  0  0  0  0  0  0  0
    9.9391  -18.4401   27.8814 O   0  0  0  0  0  0  0  0  0  0  0  0
  2  1  1  0
  3  2  1  0
  3  4  1  1
  5  3  1  0
  5  7  1  0
  6  5  2  0
  8  7  1  0
  8  9  1  6
  9 10  1  0
 10 11  2  0
 11 12  1  0
 13 12  2  0
 14 13  1  0
 15 10  1  0
 15 14  2  0
 16  8  1  0
 17 16  2  0
 19 18  1  0
 19 20  1  0
 20 22  1  0
 20 21  1  1
 22 23  1  6
 22 24  1  0
 23 16  1  0
 24 25  1  0
 26 24  2  0
M  END
$$$$
