SFI.pdb
     RDKit          3D

 26 26  0  0  1  0  0  0  0  0999 V2000
   11.8540  -18.8059   21.7239 O   0  0  0  0  0  0  0  0  0  0  0  0
   10.8274  -18.4582   20.8528 C   0  0  0  0  0  0  0  0  0  0  0  0
   10.9069  -16.9925   20.4490 C   0  0  2  0  0  0  0  0  0  0  0  0
   12.2857  -16.7390   20.0788 N   0  0  0  0  0  0  0  0  0  0  0  0
   10.5461  -16.2135   21.6881 C   0  0  0  0  0  0  0  0  0  0  0  0
   11.4414  -15.6279   22.3480 O   0  0  0  0  0  0  0  0  0  0  0  0
    9.2169  -16.1066   22.1559 N   0  0  0  0  0  0  0  0  0  0  0  0
    8.8374  -15.3963   23.3494 C   0  0  1  0  0  0  0  0  0  0  0  0
    7.3663  -15.0425   23.3856 C   0  0  0  0  0  0  0  0  0  0  0  0
    6.9832  -14.1659   24.4785 C   0  0  0  0  0  0  0  0  0  0  0  0
    7.3727  -12.8474   24.4830 C   0  0  0  0  0  0  0  0  0  0  0  0
    7.0119  -11.9892   25.5307 C   0  0  0  0  0  0  0  0  0  0  0  0
    6.2559  -12.4695   26.5735 C   0  0  0  0  0  0  0  0  0  0  0  0
    5.8587  -13.7976   26.5772 C   0  0  0  0  0  0  0  0  0  0  0  0
    6.2278  -14.6427   25.5221 C   0  0  0  0  0  0  0  0  0  0  0  0
    9.2108  -16.1476   24.5851 C   0  0  0  0  0  0  0  0  0  0  0  0
    9.1254  -17.4013   24.6227 O   0  0  0  0  0  0  0  0  0  0  0  0
   10.6916  -12.9985   28.9021 C   0  0  0  0  0  0  0  0  0  0  0  0
   10.8576  -13.9504   27.7409 C   0  0  0  0  0  0  0  0  0  0  0  0
   10.2145  -15.2670   28.1197 C   0  0  2  0  0  0  0  0  0  0  0  0
   11.0048  -15.8618   29.2555 C   0  0  0  0  0  0  0  0  0  0  0  0
   10.1478  -16.2067   26.9327 C   0  0  2  0  0  0  0  0  0  0  0  0
    9.6730  -15.4895   25.7576 N   0  0  0  0  0  0  0  0  0  0  0  0
    9.2353  -17.3437   27.2073 C   0  0  0  0  0  0  0  0  0  0  0  0
    9.7407  -18.5700   27.6175 O   0  0  0  0  0  0  0  0  0  0  0  0
    7.9877  -17.2435   27.0816 O   0  0  0  0  0  0  0  0  0  0  0  0
  2  1  1  0
  3  2  1  0
  3  4  1  1
  5  3  1  0
  5  7  1  0
  6  5  2  0
  8  7  1  0
  8  9  1  6
  9 10  1  0
 10 11  2  0
 11 12  1  0
 13 12  2  0
 14 13  1  0
 15 10  1  0
 15 14  2  0
 16  8  1  0
 17 16  2  0
 19 18  1  0
 19 20  1  0
 20 22  1  0
 20 21  1  1
 22 23  1  6
 22 24  1  0
 23 16  1  0
 24 25  1  0
 26 24  2  0
M  END
$$$$
