SFI.pdb
     RDKit          3D

 26 26  0  0  1  0  0  0  0  0999 V2000
   10.9531  -19.4477   20.5197 O   0  0  0  0  0  0  0  0  0  0  0  0
   11.5966  -18.3387   21.0579 C   0  0  0  0  0  0  0  0  0  0  0  0
   11.0718  -17.0409   20.4596 C   0  0  2  0  0  0  0  0  0  0  0  0
   12.1788  -16.4373   19.7435 N   0  0  0  0  0  0  0  0  0  0  0  0
   10.6807  -16.1841   21.6367 C   0  0  0  0  0  0  0  0  0  0  0  0
   11.5545  -15.5257   22.2556 O   0  0  0  0  0  0  0  0  0  0  0  0
    9.3461  -16.0823   22.0898 N   0  0  0  0  0  0  0  0  0  0  0  0
    8.9491  -15.3626   23.2720 C   0  0  1  0  0  0  0  0  0  0  0  0
    7.4898  -14.9620   23.2594 C   0  0  0  0  0  0  0  0  0  0  0  0
    7.0730  -14.1652   24.4000 C   0  0  0  0  0  0  0  0  0  0  0  0
    7.5001  -12.8653   24.5349 C   0  0  0  0  0  0  0  0  0  0  0  0
    7.1075  -12.0839   25.6301 C   0  0  0  0  0  0  0  0  0  0  0  0
    6.2815  -12.6220   26.5882 C   0  0  0  0  0  0  0  0  0  0  0  0
    5.8459  -13.9319   26.4603 C   0  0  0  0  0  0  0  0  0  0  0  0
    6.2476  -14.6999   25.3592 C   0  0  0  0  0  0  0  0  0  0  0  0
    9.2562  -16.1281   24.5173 C   0  0  0  0  0  0  0  0  0  0  0  0
    9.2494  -17.3852   24.5144 O   0  0  0  0  0  0  0  0  0  0  0  0
   10.7007  -13.0195   28.9119 C   0  0  0  0  0  0  0  0  0  0  0  0
   10.8581  -13.9758   27.7531 C   0  0  0  0  0  0  0  0  0  0  0  0
   10.1296  -15.2560   28.1011 C   0  0  2  0  0  0  0  0  0  0  0  0
   10.8352  -15.8903   29.2708 C   0  0  0  0  0  0  0  0  0  0  0  0
   10.0671  -16.1925   26.9112 C   0  0  2  0  0  0  0  0  0  0  0  0
    9.5655  -15.4800   25.7444 N   0  0  0  0  0  0  0  0  0  0  0  0
    9.1793  -17.3474   27.1918 C   0  0  0  0  0  0  0  0  0  0  0  0
    9.7116  -18.5627   27.6005 O   0  0  0  0  0  0  0  0  0  0  0  0
    7.9293  -17.2727   27.0724 O   0  0  0  0  0  0  0  0  0  0  0  0
  2  1  1  0
  3  2  1  0
  3  4  1  1
  5  3  1  0
  5  7  1  0
  6  5  2  0
  8  7  1  0
  8  9  1  6
  9 10  1  0
 10 11  2  0
 11 12  1  0
 13 12  2  0
 14 13  1  0
 15 10  1  0
 15 14  2  0
 16  8  1  0
 17 16  2  0
 19 18  1  0
 19 20  1  0
 20 22  1  0
 20 21  1  1
 22 23  1  6
 22 24  1  0
 23 16  1  0
 24 25  1  0
 26 24  2  0
M  END
$$$$
