SFI.pdb
     RDKit          3D

 26 26  0  0  1  0  0  0  0  0999 V2000
   12.1504  -18.8647   21.5188 O   0  0  0  0  0  0  0  0  0  0  0  0
   11.0462  -18.5355   20.7404 C   0  0  0  0  0  0  0  0  0  0  0  0
   11.0742  -17.0733   20.3175 C   0  0  2  0  0  0  0  0  0  0  0  0
   12.4357  -16.7858   19.9101 N   0  0  0  0  0  0  0  0  0  0  0  0
   10.7219  -16.2892   21.5559 C   0  0  0  0  0  0  0  0  0  0  0  0
   11.6201  -15.6909   22.2004 O   0  0  0  0  0  0  0  0  0  0  0  0
    9.3979  -16.1914   22.0400 N   0  0  0  0  0  0  0  0  0  0  0  0
    9.0219  -15.4465   23.2133 C   0  0  1  0  0  0  0  0  0  0  0  0
    7.5466  -15.1115   23.2546 C   0  0  0  0  0  0  0  0  0  0  0  0
    7.1690  -14.1776   24.3009 C   0  0  0  0  0  0  0  0  0  0  0  0
    7.5177  -12.8508   24.2093 C   0  0  0  0  0  0  0  0  0  0  0  0
    7.1616  -11.9375   25.2110 C   0  0  0  0  0  0  0  0  0  0  0  0
    6.4516  -12.3710   26.3054 C   0  0  0  0  0  0  0  0  0  0  0  0
    6.0957  -13.7071   26.4061 C   0  0  0  0  0  0  0  0  0  0  0  0
    6.4595  -14.6075   25.3959 C   0  0  0  0  0  0  0  0  0  0  0  0
    9.4193  -16.1508   24.4691 C   0  0  0  0  0  0  0  0  0  0  0  0
    9.5487  -17.4011   24.4886 O   0  0  0  0  0  0  0  0  0  0  0  0
   10.4611  -12.8742   28.8794 C   0  0  0  0  0  0  0  0  0  0  0  0
   10.7462  -13.8242   27.7400 C   0  0  0  0  0  0  0  0  0  0  0  0
   10.0872  -15.1487   28.0593 C   0  0  2  0  0  0  0  0  0  0  0  0
   10.7553  -15.7185   29.2830 C   0  0  0  0  0  0  0  0  0  0  0  0
   10.1700  -16.1005   26.8829 C   0  0  2  0  0  0  0  0  0  0  0  0
    9.6656  -15.4502   25.6815 N   0  0  0  0  0  0  0  0  0  0  0  0
    9.3774  -17.3284   27.1378 C   0  0  0  0  0  0  0  0  0  0  0  0
    9.9958  -18.4843   27.5948 O   0  0  0  0  0  0  0  0  0  0  0  0
    8.1339  -17.3704   26.9530 O   0  0  0  0  0  0  0  0  0  0  0  0
  2  1  1  0
  3  2  1  0
  3  4  1  1
  5  3  1  0
  5  7  1  0
  6  5  2  0
  8  7  1  0
  8  9  1  1
  9 10  1  0
 10 11  2  0
 11 12  1  0
 13 12  2  0
 14 13  1  0
 15 10  1  0
 15 14  2  0
 16  8  1  0
 17 16  2  0
 19 18  1  0
 19 20  1  0
 20 22  1  0
 20 21  1  1
 22 23  1  6
 22 24  1  0
 23 16  1  0
 24 25  1  0
 26 24  2  0
M  END
$$$$
