SFI.pdb
     RDKit          3D

 26 26  0  0  1  0  0  0  0  0999 V2000
   11.8306  -18.8130   21.5360 O   0  0  0  0  0  0  0  0  0  0  0  0
   10.7795  -18.3848   20.7326 C   0  0  0  0  0  0  0  0  0  0  0  0
   10.9043  -16.9076   20.3863 C   0  0  2  0  0  0  0  0  0  0  0  0
   12.2955  -16.6772   20.0486 N   0  0  0  0  0  0  0  0  0  0  0  0
   10.5424  -16.1663   21.6480 C   0  0  0  0  0  0  0  0  0  0  0  0
   11.4282  -15.5526   22.2952 O   0  0  0  0  0  0  0  0  0  0  0  0
    9.2227  -16.1266   22.1517 N   0  0  0  0  0  0  0  0  0  0  0  0
    8.8365  -15.4194   23.3449 C   0  0  1  0  0  0  0  0  0  0  0  0
    7.3637  -15.0723   23.3772 C   0  0  0  0  0  0  0  0  0  0  0  0
    6.9613  -14.2541   24.5077 C   0  0  0  0  0  0  0  0  0  0  0  0
    6.2478  -14.8039   25.5464 C   0  0  0  0  0  0  0  0  0  0  0  0
    5.8514  -14.0273   26.6438 C   0  0  0  0  0  0  0  0  0  0  0  0
    6.1793  -12.6930   26.6866 C   0  0  0  0  0  0  0  0  0  0  0  0
    6.8985  -12.1302   25.6437 C   0  0  0  0  0  0  0  0  0  0  0  0
    7.2873  -12.9203   24.5536 C   0  0  0  0  0  0  0  0  0  0  0  0
    9.2098  -16.1705   24.5808 C   0  0  0  0  0  0  0  0  0  0  0  0
    9.2312  -17.4274   24.5845 O   0  0  0  0  0  0  0  0  0  0  0  0
   11.2902  -13.0232   28.6806 C   0  0  0  0  0  0  0  0  0  0  0  0
   11.2326  -14.0472   27.5714 C   0  0  0  0  0  0  0  0  0  0  0  0
   10.3976  -15.2134   28.0545 C   0  0  2  0  0  0  0  0  0  0  0  0
   11.1231  -15.8610   29.2046 C   0  0  0  0  0  0  0  0  0  0  0  0
   10.1324  -16.1995   26.9347 C   0  0  2  0  0  0  0  0  0  0  0  0
    9.5527  -15.5083   25.7914 N   0  0  0  0  0  0  0  0  0  0  0  0
    9.2023  -17.2670   27.3776 C   0  0  0  0  0  0  0  0  0  0  0  0
    9.6916  -18.4835   27.8338 O   0  0  0  0  0  0  0  0  0  0  0  0
    7.9538  -17.1148   27.3578 O   0  0  0  0  0  0  0  0  0  0  0  0
  2  1  1  0
  3  2  1  0
  3  4  1  1
  5  3  1  0
  5  7  1  0
  6  5  2  0
  8  7  1  0
  8  9  1  6
  9 10  1  0
 10 11  2  0
 11 12  1  0
 13 12  2  0
 14 13  1  0
 15 10  1  0
 15 14  2  0
 16  8  1  0
 17 16  2  0
 19 18  1  0
 19 20  1  0
 20 22  1  0
 20 21  1  1
 22 23  1  6
 22 24  1  0
 23 16  1  0
 24 25  1  0
 26 24  2  0
M  END
$$$$
