SFI.pdb
     RDKit          3D

 26 26  0  0  1  0  0  0  0  0999 V2000
   12.1737  -18.8580   21.5949 O   0  0  0  0  0  0  0  0  0  0  0  0
   11.0448  -18.6806   20.8026 C   0  0  0  0  0  0  0  0  0  0  0  0
   10.9155  -17.2408   20.3251 C   0  0  2  0  0  0  0  0  0  0  0  0
   12.2137  -16.8590   19.8040 N   0  0  0  0  0  0  0  0  0  0  0  0
   10.5888  -16.4359   21.5570 C   0  0  0  0  0  0  0  0  0  0  0  0
   11.4910  -15.7865   22.1438 O   0  0  0  0  0  0  0  0  0  0  0  0
    9.2849  -16.3740   22.0983 N   0  0  0  0  0  0  0  0  0  0  0  0
    8.9198  -15.5623   23.2300 C   0  0  1  0  0  0  0  0  0  0  0  0
    7.4434  -15.2323   23.2706 C   0  0  0  0  0  0  0  0  0  0  0  0
    7.0678  -14.2712   24.2927 C   0  0  0  0  0  0  0  0  0  0  0  0
    6.3893  -14.6792   25.4167 C   0  0  0  0  0  0  0  0  0  0  0  0
    6.0191  -13.7638   26.4114 C   0  0  0  0  0  0  0  0  0  0  0  0
    6.3377  -12.4346   26.2650 C   0  0  0  0  0  0  0  0  0  0  0  0
    7.0217  -12.0142   25.1348 C   0  0  0  0  0  0  0  0  0  0  0  0
    7.3847  -12.9421   24.1495 C   0  0  0  0  0  0  0  0  0  0  0  0
    9.3371  -16.1888   24.5201 C   0  0  0  0  0  0  0  0  0  0  0  0
    9.5351  -17.4279   24.5959 O   0  0  0  0  0  0  0  0  0  0  0  0
   10.1491  -12.6587   28.7820 C   0  0  0  0  0  0  0  0  0  0  0  0
   10.5721  -13.6311   27.7061 C   0  0  0  0  0  0  0  0  0  0  0  0
    9.9989  -14.9886   28.0510 C   0  0  2  0  0  0  0  0  0  0  0  0
   10.6877  -15.4825   29.2960 C   0  0  0  0  0  0  0  0  0  0  0  0
   10.1604  -15.9610   26.8998 C   0  0  2  0  0  0  0  0  0  0  0  0
    9.5266  -15.4241   25.7037 N   0  0  0  0  0  0  0  0  0  0  0  0
    9.5487  -17.2730   27.2244 C   0  0  0  0  0  0  0  0  0  0  0  0
    8.1818  -17.4684   27.0801 O   0  0  0  0  0  0  0  0  0  0  0  0
   10.2330  -18.2446   27.6366 O   0  0  0  0  0  0  0  0  0  0  0  0
  2  1  1  0
  3  2  1  0
  3  4  1  1
  5  3  1  0
  5  7  1  0
  6  5  2  0
  8  7  1  0
  8  9  1  1
  9 10  1  0
 10 11  2  0
 11 12  1  0
 13 12  2  0
 14 13  1  0
 15 10  1  0
 15 14  2  0
 16  8  1  0
 17 16  2  0
 19 18  1  0
 19 20  1  0
 20 22  1  0
 20 21  1  1
 22 23  1  6
 22 24  1  0
 23 16  1  0
 24 25  1  0
 26 24  2  0
M  END
$$$$
