SFI.pdb
     RDKit          3D

 26 26  0  0  1  0  0  0  0  0999 V2000
   11.8469  -18.8211   21.6117 O   0  0  0  0  0  0  0  0  0  0  0  0
   10.8348  -18.4040   20.7543 C   0  0  0  0  0  0  0  0  0  0  0  0
   10.9713  -16.9294   20.4011 C   0  0  2  0  0  0  0  0  0  0  0  0
   12.3635  -16.7126   20.0586 N   0  0  0  0  0  0  0  0  0  0  0  0
   10.6193  -16.1795   21.6605 C   0  0  0  0  0  0  0  0  0  0  0  0
   11.5175  -15.5986   22.3207 O   0  0  0  0  0  0  0  0  0  0  0  0
    9.2955  -16.0955   22.1477 N   0  0  0  0  0  0  0  0  0  0  0  0
    8.9218  -15.3953   23.3489 C   0  0  1  0  0  0  0  0  0  0  0  0
    7.4687  -14.9723   23.3603 C   0  0  0  0  0  0  0  0  0  0  0  0
    7.0849  -14.1626   24.5034 C   0  0  0  0  0  0  0  0  0  0  0  0
    6.3861  -14.7198   25.5482 C   0  0  0  0  0  0  0  0  0  0  0  0
    6.0076  -13.9516   26.6577 C   0  0  0  0  0  0  0  0  0  0  0  0
    6.3386  -12.6182   26.7065 C   0  0  0  0  0  0  0  0  0  0  0  0
    7.0431  -12.0481   25.6575 C   0  0  0  0  0  0  0  0  0  0  0  0
    7.4140  -12.8299   24.5553 C   0  0  0  0  0  0  0  0  0  0  0  0
    9.2297  -16.1917   24.5744 C   0  0  0  0  0  0  0  0  0  0  0  0
    9.2988  -17.4459   24.5226 O   0  0  0  0  0  0  0  0  0  0  0  0
   10.1446  -13.1909   29.1840 C   0  0  0  0  0  0  0  0  0  0  0  0
   10.3984  -14.0115   27.9413 C   0  0  0  0  0  0  0  0  0  0  0  0
    9.9442  -15.4288   28.2160 C   0  0  2  0  0  0  0  0  0  0  0  0
   10.7907  -15.9812   29.3326 C   0  0  0  0  0  0  0  0  0  0  0  0
   10.0352  -16.2856   26.9692 C   0  0  2  0  0  0  0  0  0  0  0  0
    9.4553  -15.5772   25.8366 N   0  0  0  0  0  0  0  0  0  0  0  0
    9.3176  -17.5705   27.1555 C   0  0  0  0  0  0  0  0  0  0  0  0
   10.0061  -18.7130   27.5401 O   0  0  0  0  0  0  0  0  0  0  0  0
    8.0770  -17.6742   26.9753 O   0  0  0  0  0  0  0  0  0  0  0  0
  2  1  1  0
  3  2  1  0
  3  4  1  1
  5  3  1  0
  5  7  1  0
  6  5  2  0
  8  7  1  0
  8  9  1  6
  9 10  1  0
 10 11  2  0
 11 12  1  0
 13 12  2  0
 14 13  1  0
 15 10  1  0
 15 14  2  0
 16  8  1  0
 17 16  2  0
 19 18  1  0
 19 20  1  0
 20 22  1  0
 20 21  1  1
 22 23  1  6
 22 24  1  0
 23 16  1  0
 24 25  1  0
 26 24  2  0
M  END
$$$$
