HNP.pdb
     RDKit          3D

 26 27  0  0  1  0  0  0  0  0999 V2000
    7.3406  -16.6986   19.7828 N   0  0  0  0  0  0  0  0  0  0  0  0
    7.7818  -15.5514   20.5371 C   0  0  1  0  0  0  0  0  0  0  0  0
    7.3921  -14.3043   19.7963 C   0  0  0  0  0  0  0  0  0  0  0  0
    8.1850  -14.1011   18.5575 C   0  0  0  0  0  0  0  0  0  0  0  0
    9.1513  -14.9271   18.0349 C   0  0  0  0  0  0  0  0  0  0  0  0
    9.5937  -14.3385   16.9000 N   0  0  0  0  0  0  0  0  0  0  0  0
    8.9359  -13.1877   16.7104 C   0  0  0  0  0  0  0  0  0  0  0  0
    8.0807  -13.0532   17.7267 N   0  0  0  0  0  0  0  0  0  0  0  0
    7.2354  -15.5115   21.8988 C   0  0  0  0  0  0  0  0  0  0  0  0
    6.0939  -15.0456   22.0985 O   0  0  0  0  0  0  0  0  0  0  0  0
    6.7094  -18.9466   22.9684 N   0  0  0  0  0  0  0  0  0  0  0  0
    6.2698  -18.0427   23.9610 C   0  0  0  0  0  0  0  0  0  0  0  0
    5.0596  -17.7359   24.1548 O   0  0  0  0  0  0  0  0  0  0  0  0
    7.2964  -17.3998   24.8426 C   0  0  0  0  0  0  0  0  0  0  0  0
    7.5287  -15.9817   24.3604 C   0  0  2  0  0  0  0  0  0  0  0  0
    8.0040  -16.0104   23.0089 N   0  0  0  0  0  0  0  0  0  0  0  0
    8.3705  -15.1755   25.2284 C   0  0  0  0  0  0  0  0  0  0  0  0
    9.6161  -15.1311   24.7998 O   0  0  0  0  0  0  0  0  0  0  0  0
    8.0744  -14.4721   26.3936 N   0  0  0  0  0  0  0  0  0  0  0  0
    6.7417  -14.3905   26.9928 C   0  0  0  0  0  0  0  0  0  0  0  0
    6.6520  -12.8691   27.1388 C   0  0  0  0  0  0  0  0  0  0  0  0
    7.9897  -12.5816   27.8149 C   0  0  0  0  0  0  0  0  0  0  0  0
    8.9081  -13.6909   27.2536 C   0  0  1  0  0  0  0  0  0  0  0  0
    9.3337  -14.5701   28.3799 C   0  0  0  0  0  0  0  0  0  0  0  0
    8.7379  -15.6700   28.5060 O   0  0  0  0  0  0  0  0  0  0  0  0
   10.3278  -14.2572   29.2828 O   0  0  0  0  0  0  0  0  0  0  0  0
  2  3  1  0
  2  1  1  6
  4  3  1  0
  5  4  2  0
  6  5  1  0
  7  6  1  0
  7  8  2  0
  8  4  1  0
  9  2  1  0
  9 10  2  0
 11 12  1  0
 12 14  1  0
 13 12  2  0
 15 14  1  1
 15 16  1  0
 16  9  1  0
 17 15  1  0
 18 17  2  0
 19 17  1  0
 19 20  1  0
 20 21  1  0
 22 21  1  0
 23 19  1  0
 23 22  1  0
 23 24  1  1
 25 24  2  0
 26 24  1  0
M  END
$$$$
