HNP.pdb
     RDKit          3D

 26 27  0  0  1  0  0  0  0  0999 V2000
    8.9274  -15.4617   20.2327 N   0  0  0  0  0  0  0  0  0  0  0  0
    8.1529  -14.3677   20.7647 C   0  0  1  0  0  0  0  0  0  0  0  0
    6.9849  -14.1126   19.8556 C   0  0  0  0  0  0  0  0  0  0  0  0
    7.3863  -13.9607   18.4342 C   0  0  0  0  0  0  0  0  0  0  0  0
    8.0440  -12.9008   17.8568 C   0  0  0  0  0  0  0  0  0  0  0  0
    8.1978  -13.2051   16.5476 N   0  0  0  0  0  0  0  0  0  0  0  0
    7.6604  -14.4073   16.3046 C   0  0  0  0  0  0  0  0  0  0  0  0
    7.1686  -14.8578   17.4611 N   0  0  0  0  0  0  0  0  0  0  0  0
    7.6751  -14.6101   22.1312 C   0  0  0  0  0  0  0  0  0  0  0  0
    6.9725  -13.7526   22.7067 O   0  0  0  0  0  0  0  0  0  0  0  0
    6.1216  -17.5338   26.4226 N   0  0  0  0  0  0  0  0  0  0  0  0
    7.4254  -17.7648   25.9303 C   0  0  0  0  0  0  0  0  0  0  0  0
    8.3969  -18.1411   26.6451 O   0  0  0  0  0  0  0  0  0  0  0  0
    7.6829  -17.5500   24.4702 C   0  0  0  0  0  0  0  0  0  0  0  0
    7.7036  -16.0592   24.1967 C   0  0  2  0  0  0  0  0  0  0  0  0
    8.0060  -15.8331   22.8143 N   0  0  0  0  0  0  0  0  0  0  0  0
    8.5589  -15.2906   25.0853 C   0  0  0  0  0  0  0  0  0  0  0  0
    9.8356  -15.4617   24.8061 O   0  0  0  0  0  0  0  0  0  0  0  0
    8.2486  -14.4368   26.1412 N   0  0  0  0  0  0  0  0  0  0  0  0
    6.8870  -14.0856   26.5464 C   0  0  0  0  0  0  0  0  0  0  0  0
    7.0407  -12.5623   26.5596 C   0  0  0  0  0  0  0  0  0  0  0  0
    8.3164  -12.4250   27.3860 C   0  0  0  0  0  0  0  0  0  0  0  0
    9.0934  -13.7163   27.0424 C   0  0  1  0  0  0  0  0  0  0  0  0
    9.2242  -14.5355   28.2811 C   0  0  0  0  0  0  0  0  0  0  0  0
    8.3764  -15.4466   28.4588 O   0  0  0  0  0  0  0  0  0  0  0  0
   10.2047  -14.3592   29.2345 O   0  0  0  0  0  0  0  0  0  0  0  0
  2  3  1  0
  2  1  1  6
  4  3  1  0
  5  4  2  0
  6  5  1  0
  7  6  1  0
  7  8  2  0
  8  4  1  0
  9  2  1  0
  9 10  2  0
 11 12  1  0
 12 14  1  0
 13 12  2  0
 15 14  1  1
 15 16  1  0
 16  9  1  0
 17 15  1  0
 18 17  2  0
 19 17  1  0
 19 20  1  0
 20 21  1  0
 22 21  1  0
 23 19  1  0
 23 22  1  0
 23 24  1  1
 25 24  2  0
 26 24  1  0
M  END
$$$$
