HNP.pdb
     RDKit          3D

 26 27  0  0  1  0  0  0  0  0999 V2000
    8.4598  -16.2396   20.3004 N   0  0  0  0  0  0  0  0  0  0  0  0
    8.2473  -15.0227   21.0444 C   0  0  1  0  0  0  0  0  0  0  0  0
    7.3223  -14.1324   20.2648 C   0  0  0  0  0  0  0  0  0  0  0  0
    7.7753  -13.9172   18.8673 C   0  0  0  0  0  0  0  0  0  0  0  0
    8.6300  -12.9463   18.4025 C   0  0  0  0  0  0  0  0  0  0  0  0
    8.7528  -13.1420   17.0695 N   0  0  0  0  0  0  0  0  0  0  0  0
    8.0075  -14.1927   16.7040 C   0  0  0  0  0  0  0  0  0  0  0  0
    7.4161  -14.6565   17.8074 N   0  0  0  0  0  0  0  0  0  0  0  0
    7.6993  -15.2551   22.3861 C   0  0  0  0  0  0  0  0  0  0  0  0
    6.4637  -15.3395   22.5482 O   0  0  0  0  0  0  0  0  0  0  0  0
    7.5424  -18.8293   26.4447 N   0  0  0  0  0  0  0  0  0  0  0  0
    6.9400  -17.6399   25.9778 C   0  0  0  0  0  0  0  0  0  0  0  0
    6.0865  -16.9743   26.6294 O   0  0  0  0  0  0  0  0  0  0  0  0
    7.3293  -17.1292   24.6243 C   0  0  0  0  0  0  0  0  0  0  0  0
    8.1274  -15.8525   24.7999 C   0  0  2  0  0  0  0  0  0  0  0  0
    8.5762  -15.3919   23.5193 N   0  0  0  0  0  0  0  0  0  0  0  0
    9.2071  -15.9398   25.7687 C   0  0  0  0  0  0  0  0  0  0  0  0
   10.2666  -16.5437   25.2687 O   0  0  0  0  0  0  0  0  0  0  0  0
    9.2899  -15.5008   27.0880 N   0  0  0  0  0  0  0  0  0  0  0  0
    8.1462  -15.0487   27.8811 C   0  0  0  0  0  0  0  0  0  0  0  0
    8.7177  -13.7116   28.3606 C   0  0  0  0  0  0  0  0  0  0  0  0
   10.0794  -14.1676   28.8771 C   0  0  0  0  0  0  0  0  0  0  0  0
   10.4138  -15.3677   27.9620 C   0  0  1  0  0  0  0  0  0  0  0  0
   10.4754  -16.6001   28.7988 C   0  0  0  0  0  0  0  0  0  0  0  0
    9.4672  -17.3511   28.7894 O   0  0  0  0  0  0  0  0  0  0  0  0
   11.5556  -16.9647   29.5744 O   0  0  0  0  0  0  0  0  0  0  0  0
  2  3  1  0
  2  1  1  6
  4  3  1  0
  5  4  2  0
  6  5  1  0
  7  6  1  0
  7  8  2  0
  8  4  1  0
  9  2  1  0
  9 10  2  0
 11 12  1  0
 12 14  1  0
 13 12  2  0
 15 14  1  6
 15 16  1  0
 16  9  1  0
 17 15  1  0
 18 17  2  0
 19 17  1  0
 19 20  1  0
 20 21  1  0
 22 21  1  0
 23 19  1  0
 23 22  1  0
 23 24  1  1
 25 24  2  0
 26 24  1  0
M  END
$$$$
