HNP.pdb
     RDKit          3D

 26 27  0  0  1  0  0  0  0  0999 V2000
    7.2767  -16.7691   19.3347 N   0  0  0  0  0  0  0  0  0  0  0  0
    7.6895  -15.6728   20.1757 C   0  0  1  0  0  0  0  0  0  0  0  0
    7.2099  -14.3864   19.5664 C   0  0  0  0  0  0  0  0  0  0  0  0
    7.7724  -14.1473   18.2133 C   0  0  0  0  0  0  0  0  0  0  0  0
    8.6158  -14.9644   17.4990 C   0  0  0  0  0  0  0  0  0  0  0  0
    8.8586  -14.3402   16.3235 N   0  0  0  0  0  0  0  0  0  0  0  0
    8.1972  -13.1763   16.2933 C   0  0  0  0  0  0  0  0  0  0  0  0
    7.5395  -13.0692   17.4501 N   0  0  0  0  0  0  0  0  0  0  0  0
    7.1952  -15.7846   21.5532 C   0  0  0  0  0  0  0  0  0  0  0  0
    5.9662  -15.8175   21.7732 O   0  0  0  0  0  0  0  0  0  0  0  0
    6.0358  -17.7113   26.2405 N   0  0  0  0  0  0  0  0  0  0  0  0
    7.3879  -17.6140   25.8430 C   0  0  0  0  0  0  0  0  0  0  0  0
    8.3651  -17.6266   26.6437 O   0  0  0  0  0  0  0  0  0  0  0  0
    7.6921  -17.4845   24.3818 C   0  0  0  0  0  0  0  0  0  0  0  0
    7.6933  -16.0135   24.0162 C   0  0  2  0  0  0  0  0  0  0  0  0
    8.1173  -15.8615   22.6558 N   0  0  0  0  0  0  0  0  0  0  0  0
    8.4375  -15.1617   24.9286 C   0  0  0  0  0  0  0  0  0  0  0  0
    9.7186  -15.1163   24.6219 O   0  0  0  0  0  0  0  0  0  0  0  0
    8.0213  -14.4172   26.0298 N   0  0  0  0  0  0  0  0  0  0  0  0
    6.6590  -14.4243   26.5642 C   0  0  0  0  0  0  0  0  0  0  0  0
    6.4233  -12.9120   26.6032 C   0  0  0  0  0  0  0  0  0  0  0  0
    7.6941  -12.4571   27.3153 C   0  0  0  0  0  0  0  0  0  0  0  0
    8.7368  -13.5079   26.8701 C   0  0  1  0  0  0  0  0  0  0  0  0
    9.1852  -14.2698   28.0705 C   0  0  0  0  0  0  0  0  0  0  0  0
    9.8754  -13.6499   28.9189 O   0  0  0  0  0  0  0  0  0  0  0  0
    8.8951  -15.5969   28.3069 O   0  0  0  0  0  0  0  0  0  0  0  0
  2  3  1  0
  2  1  1  6
  4  3  1  0
  5  4  2  0
  6  5  1  0
  7  6  1  0
  7  8  2  0
  8  4  1  0
  9  2  1  0
  9 10  2  0
 11 12  1  0
 12 14  1  0
 13 12  2  0
 15 14  1  1
 15 16  1  0
 16  9  1  0
 17 15  1  0
 18 17  2  0
 19 17  1  0
 19 20  1  0
 20 21  1  0
 22 21  1  0
 23 19  1  0
 23 22  1  0
 23 24  1  1
 25 24  2  0
 26 24  1  0
M  END
$$$$
