HNP.pdb
     RDKit          3D

 26 27  0  0  1  0  0  0  0  0999 V2000
    8.9242  -15.8434   20.6099 N   0  0  0  0  0  0  0  0  0  0  0  0
    8.3684  -14.6994   21.2897 C   0  0  1  0  0  0  0  0  0  0  0  0
    7.1874  -14.1975   20.5092 C   0  0  0  0  0  0  0  0  0  0  0  0
    7.4836  -14.0301   19.0640 C   0  0  0  0  0  0  0  0  0  0  0  0
    7.9784  -12.9138   18.4328 C   0  0  0  0  0  0  0  0  0  0  0  0
    8.0887  -13.2257   17.1210 N   0  0  0  0  0  0  0  0  0  0  0  0
    7.6813  -14.4866   16.9280 C   0  0  0  0  0  0  0  0  0  0  0  0
    7.3144  -14.9664   18.1186 N   0  0  0  0  0  0  0  0  0  0  0  0
    7.9644  -14.9892   22.6707 C   0  0  0  0  0  0  0  0  0  0  0  0
    7.0055  -14.3731   23.1814 O   0  0  0  0  0  0  0  0  0  0  0  0
    6.3534  -18.2945   26.8258 N   0  0  0  0  0  0  0  0  0  0  0  0
    7.6455  -18.1406   26.2759 C   0  0  0  0  0  0  0  0  0  0  0  0
    8.7167  -18.3306   26.9182 O   0  0  0  0  0  0  0  0  0  0  0  0
    7.7632  -17.7233   24.8419 C   0  0  0  0  0  0  0  0  0  0  0  0
    8.3102  -16.3105   24.7924 C   0  0  2  0  0  0  0  0  0  0  0  0
    8.6626  -15.9837   23.4424 N   0  0  0  0  0  0  0  0  0  0  0  0
    9.3895  -16.0441   25.7283 C   0  0  0  0  0  0  0  0  0  0  0  0
   10.5412  -16.5175   25.2961 O   0  0  0  0  0  0  0  0  0  0  0  0
    9.3927  -15.3921   26.9592 N   0  0  0  0  0  0  0  0  0  0  0  0
    8.1928  -14.8944   27.6330 C   0  0  0  0  0  0  0  0  0  0  0  0
    8.6624  -13.4622   27.9025 C   0  0  0  0  0  0  0  0  0  0  0  0
   10.0276  -13.7366   28.5269 C   0  0  0  0  0  0  0  0  0  0  0  0
   10.4706  -15.0444   27.8321 C   0  0  1  0  0  0  0  0  0  0  0  0
   10.5736  -16.1177   28.8618 C   0  0  0  0  0  0  0  0  0  0  0  0
    9.6405  -16.9589   28.9092 O   0  0  0  0  0  0  0  0  0  0  0  0
   11.6152  -16.2450   29.7563 O   0  0  0  0  0  0  0  0  0  0  0  0
  2  3  1  0
  2  1  1  6
  4  3  1  0
  5  4  2  0
  6  5  1  0
  7  6  1  0
  7  8  2  0
  8  4  1  0
  9  2  1  0
  9 10  2  0
 11 12  1  0
 12 14  1  0
 13 12  2  0
 15 14  1  6
 15 16  1  0
 16  9  1  0
 17 15  1  0
 18 17  2  0
 19 17  1  0
 19 20  1  0
 20 21  1  0
 22 21  1  0
 23 19  1  0
 23 22  1  0
 23 24  1  1
 25 24  2  0
 26 24  1  0
M  END
$$$$
