HNP.pdb
     RDKit          3D

 26 27  0  0  1  0  0  0  0  0999 V2000
    8.4959  -16.4348   20.3207 N   0  0  0  0  0  0  0  0  0  0  0  0
    8.2826  -15.2326   21.0880 C   0  0  1  0  0  0  0  0  0  0  0  0
    7.3259  -14.3453   20.3442 C   0  0  0  0  0  0  0  0  0  0  0  0
    7.7908  -14.0233   18.9714 C   0  0  0  0  0  0  0  0  0  0  0  0
    8.5751  -12.9654   18.5777 C   0  0  0  0  0  0  0  0  0  0  0  0
    8.7424  -13.0819   17.2403 N   0  0  0  0  0  0  0  0  0  0  0  0
    8.0918  -14.1678   16.8038 C   0  0  0  0  0  0  0  0  0  0  0  0
    7.5153  -14.7330   17.8671 N   0  0  0  0  0  0  0  0  0  0  0  0
    7.7704  -15.4936   22.4385 C   0  0  0  0  0  0  0  0  0  0  0  0
    6.5515  -15.7032   22.6127 O   0  0  0  0  0  0  0  0  0  0  0  0
    6.1287  -17.7077   26.6186 N   0  0  0  0  0  0  0  0  0  0  0  0
    7.3846  -17.9773   26.0307 C   0  0  0  0  0  0  0  0  0  0  0  0
    8.2891  -18.6700   26.5768 O   0  0  0  0  0  0  0  0  0  0  0  0
    7.6726  -17.4076   24.6754 C   0  0  0  0  0  0  0  0  0  0  0  0
    8.2870  -16.0328   24.8488 C   0  0  2  0  0  0  0  0  0  0  0  0
    8.6639  -15.5149   23.5669 N   0  0  0  0  0  0  0  0  0  0  0  0
    9.3714  -15.9698   25.8142 C   0  0  0  0  0  0  0  0  0  0  0  0
   10.4646  -16.5511   25.3621 O   0  0  0  0  0  0  0  0  0  0  0  0
    9.4295  -15.4120   27.0892 N   0  0  0  0  0  0  0  0  0  0  0  0
    8.2750  -14.8701   27.8069 C   0  0  0  0  0  0  0  0  0  0  0  0
    8.8591  -13.5038   28.1762 C   0  0  0  0  0  0  0  0  0  0  0  0
   10.1989  -13.9321   28.7683 C   0  0  0  0  0  0  0  0  0  0  0  0
   10.5337  -15.2169   27.9767 C   0  0  1  0  0  0  0  0  0  0  0  0
   10.5517  -16.3674   28.9246 C   0  0  0  0  0  0  0  0  0  0  0  0
    9.5154  -17.0765   28.9862 O   0  0  0  0  0  0  0  0  0  0  0  0
   11.6205  -16.6997   29.7300 O   0  0  0  0  0  0  0  0  0  0  0  0
  2  3  1  0
  2  1  1  6
  4  3  1  0
  5  4  2  0
  6  5  1  0
  7  6  1  0
  7  8  2  0
  8  4  1  0
  9  2  1  0
  9 10  2  0
 11 12  1  0
 12 14  1  0
 13 12  2  0
 15 14  1  6
 15 16  1  0
 16  9  1  0
 17 15  1  0
 18 17  2  0
 19 17  1  0
 19 20  1  0
 20 21  1  0
 22 21  1  0
 23 19  1  0
 23 22  1  0
 23 24  1  1
 25 24  2  0
 26 24  1  0
M  END
$$$$
