HNP.pdb
     RDKit          3D

 26 27  0  0  1  0  0  0  0  0999 V2000
    9.2800  -15.4583   20.6352 N   0  0  0  0  0  0  0  0  0  0  0  0
    8.4180  -14.4509   21.2025 C   0  0  1  0  0  0  0  0  0  0  0  0
    7.2245  -14.2737   20.3082 C   0  0  0  0  0  0  0  0  0  0  0  0
    7.5971  -14.0982   18.8817 C   0  0  0  0  0  0  0  0  0  0  0  0
    8.8537  -14.1634   18.3286 C   0  0  0  0  0  0  0  0  0  0  0  0
    8.7064  -13.9446   17.0017 N   0  0  0  0  0  0  0  0  0  0  0  0
    7.4110  -13.7489   16.7245 C   0  0  0  0  0  0  0  0  0  0  0  0
    6.7448  -13.8442   17.8775 N   0  0  0  0  0  0  0  0  0  0  0  0
    7.9749  -14.7713   22.5646 C   0  0  0  0  0  0  0  0  0  0  0  0
    7.1878  -14.0057   23.1598 O   0  0  0  0  0  0  0  0  0  0  0  0
    6.2842  -18.2885   26.6730 N   0  0  0  0  0  0  0  0  0  0  0  0
    7.5728  -18.0975   26.1266 C   0  0  0  0  0  0  0  0  0  0  0  0
    8.6460  -18.2171   26.7825 O   0  0  0  0  0  0  0  0  0  0  0  0
    7.6839  -17.7266   24.6794 C   0  0  0  0  0  0  0  0  0  0  0  0
    8.1209  -16.2783   24.5831 C   0  0  2  0  0  0  0  0  0  0  0  0
    8.4371  -15.9662   23.2207 N   0  0  0  0  0  0  0  0  0  0  0  0
    9.1837  -15.9026   25.5002 C   0  0  0  0  0  0  0  0  0  0  0  0
   10.3545  -16.3654   25.1099 O   0  0  0  0  0  0  0  0  0  0  0  0
    9.1553  -15.1592   26.6779 N   0  0  0  0  0  0  0  0  0  0  0  0
    7.9565  -14.5203   27.2222 C   0  0  0  0  0  0  0  0  0  0  0  0
    8.5221  -13.1116   27.4225 C   0  0  0  0  0  0  0  0  0  0  0  0
    9.8138  -13.4404   28.1656 C   0  0  0  0  0  0  0  0  0  0  0  0
   10.1952  -14.8283   27.6019 C   0  0  1  0  0  0  0  0  0  0  0  0
   10.1385  -15.8231   28.7109 C   0  0  0  0  0  0  0  0  0  0  0  0
    9.1085  -16.5399   28.7866 O   0  0  0  0  0  0  0  0  0  0  0  0
   11.1326  -16.0048   29.6491 O   0  0  0  0  0  0  0  0  0  0  0  0
  2  3  1  0
  2  1  1  6
  4  3  1  0
  5  4  2  0
  6  5  1  0
  7  6  1  0
  7  8  2  0
  8  4  1  0
  9  2  1  0
  9 10  2  0
 11 12  1  0
 12 14  1  0
 13 12  2  0
 15 14  1  6
 15 16  1  0
 16  9  1  0
 17 15  1  0
 18 17  2  0
 19 17  1  0
 19 20  1  0
 20 21  1  0
 22 21  1  0
 23 19  1  0
 23 22  1  0
 23 24  1  1
 25 24  2  0
 26 24  1  0
M  END
$$$$
