RFF.pdb
     RDKit          3D

 34 35  0  0  1  0  0  0  0  0999 V2000
   27.3393  -16.8813  -18.2566 N   0  0  0  0  0  0  0  0  0  0  0  0
   27.7420  -17.3296  -19.5501 C   0  0  0  0  0  0  0  0  0  0  0  0
   27.8440  -16.4927  -20.5103 N   0  0  0  0  0  0  0  0  0  0  0  0
   28.0362  -18.6990  -19.8027 N   0  0  0  0  0  0  0  0  0  0  0  0
   27.8312  -19.7441  -18.8322 C   0  0  0  0  0  0  0  0  0  0  0  0
   26.4070  -19.7622  -18.3441 C   0  0  0  0  0  0  0  0  0  0  0  0
   26.1631  -20.8718  -17.3443 C   0  0  0  0  0  0  0  0  0  0  0  0
   27.4581  -21.3671  -16.7444 C   0  0  2  0  0  0  0  0  0  0  0  0
   27.9304  -22.5748  -17.3442 N   0  0  0  0  0  0  0  0  0  0  0  0
   27.2268  -21.5294  -15.2694 C   0  0  0  0  0  0  0  0  0  0  0  0
   26.5580  -22.4984  -14.8291 O   0  0  0  0  0  0  0  0  0  0  0  0
   28.0759  -16.8130  -21.4609 N   0  0  0  0  0  0  0  0  0  0  0  0
   27.7473  -20.6072  -14.3265 C   0  0  2  0  0  0  0  0  0  0  0  0
   27.5827  -20.7286  -12.8976 C   0  0  0  0  0  0  0  0  0  0  0  0
   28.5195  -19.8131  -12.1381 C   0  0  0  0  0  0  0  0  0  0  0  0
   28.3247  -19.9002  -10.6687 C   0  0  0  0  0  0  0  0  0  0  0  0
   27.4275  -19.0586  -10.0146 C   0  0  0  0  0  0  0  0  0  0  0  0
   27.2354  -19.1264   -8.6539 C   0  0  0  0  0  0  0  0  0  0  0  0
   27.9152  -20.0223   -7.8785 C   0  0  0  0  0  0  0  0  0  0  0  0
   28.8130  -20.8701   -8.5056 C   0  0  0  0  0  0  0  0  0  0  0  0
   29.0053  -20.8001   -9.8775 C   0  0  0  0  0  0  0  0  0  0  0  0
   26.2027  -20.3732  -12.4925 O   0  0  0  0  0  0  0  0  0  0  0  0
   25.7296  -19.2746  -12.8633 N   0  0  0  0  0  0  0  0  0  0  0  0
   25.3851  -21.2170  -11.7022 C   0  0  1  0  0  0  0  0  0  0  0  0
   24.0275  -20.8405  -11.2838 C   0  0  0  0  0  0  0  0  0  0  0  0
   23.0866  -21.5135  -12.2293 C   0  0  0  0  0  0  0  0  0  0  0  0
   22.7149  -20.7311  -13.4039 C   0  0  0  0  0  0  0  0  0  0  0  0
   23.1851  -21.1091  -14.6448 C   0  0  0  0  0  0  0  0  0  0  0  0
   22.8631  -20.4007  -15.8039 C   0  0  0  0  0  0  0  0  0  0  0  0
   22.0482  -19.2852  -15.7119 C   0  0  0  0  0  0  0  0  0  0  0  0
   21.5698  -18.8932  -14.4819 C   0  0  0  0  0  0  0  0  0  0  0  0
   21.9053  -19.6182  -13.3326 C   0  0  0  0  0  0  0  0  0  0  0  0
   23.8862  -21.2400   -9.8831 O   0  0  0  0  0  0  0  0  0  0  0  0
   22.8395  -20.8282   -9.0534 O   0  0  0  0  0  0  0  0  0  0  0  0
  2  3  2  0
  2  1  1  0
  4  2  1  0
  5  4  1  0
  6  7  1  0
  6  5  1  0
  8  9  1  6
  8  7  1  0
 10 12  1  0
 10  8  1  0
 11 10  2  0
 13 21  1  0
 13 14  1  6
 13 12  1  0
 15 16  2  0
 15 14  1  0
 17 16  1  0
 18 17  2  0
 19 18  1  0
 19 20  2  0
 20 15  1  0
 21 23  1  0
 22 21  2  0
 23 24  1  0
 24 25  1  1
 25 26  1  0
 26 27  2  0
 26 31  1  0
 27 28  1  0
 28 29  2  0
 30 29  1  0
 31 30  2  0
 32 33  1  0
 32 24  1  0
 34 32  2  0
M  END
$$$$
