RFF.pdb
     RDKit          3D

 34 35  0  0  1  0  0  0  0  0999 V2000
   22.5360  -16.1234  -17.7060 N   0  0  0  0  0  0  0  0  0  0  0  0
   22.8449  -15.5427  -16.4397 C   0  0  0  0  0  0  0  0  0  0  0  0
   22.3817  -14.3906  -16.1380 N   0  0  0  0  0  0  0  0  0  0  0  0
   23.6645  -16.2193  -15.4930 N   0  0  0  0  0  0  0  0  0  0  0  0
   24.6904  -17.1603  -15.8645 C   0  0  0  0  0  0  0  0  0  0  0  0
   24.3226  -17.8977  -17.1246 C   0  0  0  0  0  0  0  0  0  0  0  0
   24.6820  -19.3658  -17.0493 C   0  0  0  0  0  0  0  0  0  0  0  0
   25.9046  -19.5901  -16.1906 C   0  0  2  0  0  0  0  0  0  0  0  0
   27.0315  -20.0650  -16.9294 N   0  0  0  0  0  0  0  0  0  0  0  0
   25.5086  -20.5449  -15.1010 C   0  0  0  0  0  0  0  0  0  0  0  0
   25.3479  -21.7668  -15.3478 O   0  0  0  0  0  0  0  0  0  0  0  0
   22.5239  -13.9999  -15.1962 N   0  0  0  0  0  0  0  0  0  0  0  0
   25.3028  -20.1108  -13.7670 C   0  0  2  0  0  0  0  0  0  0  0  0
   24.9191  -20.9811  -12.6812 C   0  0  0  0  0  0  0  0  0  0  0  0
   25.5472  -20.5626  -11.3687 C   0  0  0  0  0  0  0  0  0  0  0  0
   27.0296  -20.5210  -11.4408 C   0  0  0  0  0  0  0  0  0  0  0  0
   27.6899  -19.4107  -11.9627 C   0  0  0  0  0  0  0  0  0  0  0  0
   29.0627  -19.3563  -12.0366 C   0  0  0  0  0  0  0  0  0  0  0  0
   29.8446  -20.3885  -11.6018 C   0  0  0  0  0  0  0  0  0  0  0  0
   29.2117  -21.5037  -11.0787 C   0  0  0  0  0  0  0  0  0  0  0  0
   27.8276  -21.5566  -11.0050 C   0  0  0  0  0  0  0  0  0  0  0  0
   23.4506  -20.9663  -12.4857 O   0  0  0  0  0  0  0  0  0  0  0  0
   22.9879  -20.4790  -11.4290 N   0  0  0  0  0  0  0  0  0  0  0  0
   22.5365  -21.4780  -13.4384 C   0  0  1  0  0  0  0  0  0  0  0  0
   21.0833  -21.4845  -13.2193 C   0  0  0  0  0  0  0  0  0  0  0  0
   20.5435  -20.2664  -13.8955 C   0  0  0  0  0  0  0  0  0  0  0  0
   20.5203  -19.0569  -13.0791 C   0  0  0  0  0  0  0  0  0  0  0  0
   19.8470  -19.0666  -11.8748 C   0  0  0  0  0  0  0  0  0  0  0  0
   19.7907  -17.9409  -11.0510 C   0  0  0  0  0  0  0  0  0  0  0  0
   20.4273  -16.7776  -11.4487 C   0  0  0  0  0  0  0  0  0  0  0  0
   21.1040  -16.7495  -12.6474 C   0  0  0  0  0  0  0  0  0  0  0  0
   21.1477  -17.8897  -13.4577 C   0  0  0  0  0  0  0  0  0  0  0  0
   20.5784  -22.7551  -13.7409 O   0  0  0  0  0  0  0  0  0  0  0  0
   19.3608  -23.3279  -13.3633 O   0  0  0  0  0  0  0  0  0  0  0  0
  2  3  2  0
  2  1  1  0
  4  2  1  0
  5  4  1  0
  6  7  1  0
  6  5  1  0
  8  9  1  6
  8  7  1  0
 10 12  1  0
 10  8  1  0
 11 10  2  0
 13 21  1  0
 13 14  1  6
 13 12  1  0
 15 16  2  0
 15 14  1  0
 17 16  1  0
 18 17  2  0
 19 18  1  0
 19 20  2  0
 20 15  1  0
 21 23  1  0
 22 21  2  0
 23 24  1  0
 24 25  1  1
 25 26  1  0
 26 27  2  0
 26 31  1  0
 27 28  1  0
 28 29  2  0
 30 29  1  0
 31 30  2  0
 32 33  1  0
 32 24  1  0
 34 32  2  0
M  END
$$$$
