RFF.pdb
     RDKit          3D

 34 35  0  0  1  0  0  0  0  0999 V2000
   32.6503  -25.0789  -15.1536 N   0  0  0  0  0  0  0  0  0  0  0  0
   32.9219  -25.7408  -16.3883 C   0  0  0  0  0  0  0  0  0  0  0  0
   33.9767  -26.4517  -16.5104 N   0  0  0  0  0  0  0  0  0  0  0  0
   32.0403  -25.6290  -17.5000 N   0  0  0  0  0  0  0  0  0  0  0  0
   30.7042  -25.0989  -17.3997 C   0  0  0  0  0  0  0  0  0  0  0  0
   30.5725  -23.8069  -18.1614 C   0  0  0  0  0  0  0  0  0  0  0  0
   29.8318  -22.7524  -17.3677 C   0  0  0  0  0  0  0  0  0  0  0  0
   28.3960  -23.1540  -17.1240 C   0  0  2  0  0  0  0  0  0  0  0  0
   27.6033  -23.1575  -18.3126 N   0  0  0  0  0  0  0  0  0  0  0  0
   27.8457  -22.2156  -16.0885 C   0  0  0  0  0  0  0  0  0  0  0  0
   28.4315  -22.0631  -14.9869 O   0  0  0  0  0  0  0  0  0  0  0  0
   34.1942  -26.9156  -17.4034 N   0  0  0  0  0  0  0  0  0  0  0  0
   26.6580  -21.4735  -16.3100 C   0  0  1  0  0  0  0  0  0  0  0  0
   26.1780  -20.4312  -15.4344 C   0  0  0  0  0  0  0  0  0  0  0  0
   26.0220  -19.1096  -16.1567 C   0  0  0  0  0  0  0  0  0  0  0  0
   27.3270  -18.5380  -16.5749 C   0  0  0  0  0  0  0  0  0  0  0  0
   27.7356  -18.5857  -17.9060 C   0  0  0  0  0  0  0  0  0  0  0  0
   28.9416  -18.0608  -18.3099 C   0  0  0  0  0  0  0  0  0  0  0  0
   29.7966  -17.4674  -17.4250 C   0  0  0  0  0  0  0  0  0  0  0  0
   29.4129  -17.4077  -16.0957 C   0  0  0  0  0  0  0  0  0  0  0  0
   28.1968  -17.9374  -15.6905 C   0  0  0  0  0  0  0  0  0  0  0  0
   24.8518  -20.7806  -14.8742 O   0  0  0  0  0  0  0  0  0  0  0  0
   24.0480  -21.4260  -15.5853 N   0  0  0  0  0  0  0  0  0  0  0  0
   24.4428  -20.4204  -13.5673 C   0  0  1  0  0  0  0  0  0  0  0  0
   23.0913  -20.6897  -13.0567 C   0  0  0  0  0  0  0  0  0  0  0  0
   23.1591  -20.5465  -11.5711 C   0  0  0  0  0  0  0  0  0  0  0  0
   21.8801  -20.6446  -10.8748 C   0  0  0  0  0  0  0  0  0  0  0  0
   21.2788  -19.4971  -10.4000 C   0  0  0  0  0  0  0  0  0  0  0  0
   20.0559  -19.5282   -9.7273 C   0  0  0  0  0  0  0  0  0  0  0  0
   19.4230  -20.7433   -9.5277 C   0  0  0  0  0  0  0  0  0  0  0  0
   20.0083  -21.8987   -9.9946 C   0  0  0  0  0  0  0  0  0  0  0  0
   21.2349  -21.8444  -10.6665 C   0  0  0  0  0  0  0  0  0  0  0  0
   22.1875  -19.7539  -13.7266 O   0  0  0  0  0  0  0  0  0  0  0  0
   20.8590  -20.0440  -14.0495 O   0  0  0  0  0  0  0  0  0  0  0  0
  2  3  2  0
  2  1  1  0
  4  2  1  0
  5  4  1  0
  6  7  1  0
  6  5  1  0
  8  9  1  6
  8  7  1  0
 10 12  1  0
 10  8  1  0
 11 10  2  0
 13 21  1  0
 13 14  1  1
 13 12  1  0
 15 16  2  0
 15 14  1  0
 17 16  1  0
 18 17  2  0
 19 18  1  0
 19 20  2  0
 20 15  1  0
 21 23  1  0
 22 21  2  0
 23 24  1  0
 24 25  1  6
 25 26  1  0
 26 27  2  0
 26 31  1  0
 27 28  1  0
 28 29  2  0
 30 29  1  0
 31 30  2  0
 32 33  1  0
 32 24  1  0
 34 32  2  0
M  END
$$$$
