RFF.pdb
     RDKit          3D

 34 35  0  0  1  0  0  0  0  0999 V2000
   21.0260  -19.6702  -18.7980 N   0  0  0  0  0  0  0  0  0  0  0  0
   20.1661  -20.5772  -18.1093 C   0  0  0  0  0  0  0  0  0  0  0  0
   19.2482  -21.1941  -18.7494 N   0  0  0  0  0  0  0  0  0  0  0  0
   20.3043  -20.8158  -16.7130 N   0  0  0  0  0  0  0  0  0  0  0  0
   21.3040  -20.1755  -15.8963 C   0  0  0  0  0  0  0  0  0  0  0  0
   22.6465  -20.1767  -16.5779 C   0  0  0  0  0  0  0  0  0  0  0  0
   23.6883  -20.9303  -15.7798 C   0  0  0  0  0  0  0  0  0  0  0  0
   23.7574  -20.4319  -14.3553 C   0  0  2  0  0  0  0  0  0  0  0  0
   23.7993  -19.0071  -14.2591 N   0  0  0  0  0  0  0  0  0  0  0  0
   24.9612  -21.0699  -13.7232 C   0  0  0  0  0  0  0  0  0  0  0  0
   25.1660  -22.3047  -13.8385 O   0  0  0  0  0  0  0  0  0  0  0  0
   18.6490  -21.8817  -18.2718 N   0  0  0  0  0  0  0  0  0  0  0  0
   25.9029  -20.3136  -12.9804 C   0  0  1  0  0  0  0  0  0  0  0  0
   27.0204  -20.8851  -12.2677 C   0  0  0  0  0  0  0  0  0  0  0  0
   28.3442  -20.3256  -12.7442 C   0  0  0  0  0  0  0  0  0  0  0  0
   29.4970  -20.8933  -12.0003 C   0  0  0  0  0  0  0  0  0  0  0  0
   29.6671  -22.2714  -11.8871 C   0  0  0  0  0  0  0  0  0  0  0  0
   30.7296  -22.8135  -11.2014 C   0  0  0  0  0  0  0  0  0  0  0  0
   31.6691  -22.0263  -10.5982 C   0  0  0  0  0  0  0  0  0  0  0  0
   31.5220  -20.6528  -10.6966 C   0  0  0  0  0  0  0  0  0  0  0  0
   30.4502  -20.1083  -11.3883 C   0  0  0  0  0  0  0  0  0  0  0  0
   26.9238  -20.5996  -10.8171 O   0  0  0  0  0  0  0  0  0  0  0  0
   26.9250  -19.4068  -10.4360 N   0  0  0  0  0  0  0  0  0  0  0  0
   26.8294  -21.6127   -9.8323 C   0  0  2  0  0  0  0  0  0  0  0  0
   26.7752  -21.3174   -8.3936 C   0  0  0  0  0  0  0  0  0  0  0  0
   27.9909  -20.5086   -8.0770 C   0  0  0  0  0  0  0  0  0  0  0  0
   28.0949  -20.0514   -6.6948 C   0  0  0  0  0  0  0  0  0  0  0  0
   28.6191  -20.8982   -5.7399 C   0  0  0  0  0  0  0  0  0  0  0  0
   28.7440  -20.5166   -4.4029 C   0  0  0  0  0  0  0  0  0  0  0  0
   28.3315  -19.2524   -4.0176 C   0  0  0  0  0  0  0  0  0  0  0  0
   27.8060  -18.3939   -4.9569 C   0  0  0  0  0  0  0  0  0  0  0  0
   27.6899  -18.7972   -6.2921 C   0  0  0  0  0  0  0  0  0  0  0  0
   25.5017  -20.6412   -8.1441 O   0  0  0  0  0  0  0  0  0  0  0  0
   24.6617  -20.9275   -7.0644 O   0  0  0  0  0  0  0  0  0  0  0  0
  2  3  2  0
  2  1  1  0
  4  2  1  0
  5  4  1  0
  6  7  1  0
  6  5  1  0
  8  9  1  6
  8  7  1  0
 10 12  1  0
 10  8  1  0
 11 10  2  0
 13 21  1  0
 13 14  1  1
 13 12  1  0
 15 16  2  0
 15 14  1  0
 17 16  1  0
 18 17  2  0
 19 18  1  0
 19 20  2  0
 20 15  1  0
 21 23  1  0
 22 21  2  0
 23 24  1  0
 24 25  1  6
 25 26  1  0
 26 27  2  0
 26 31  1  0
 27 28  1  0
 28 29  2  0
 30 29  1  0
 31 30  2  0
 32 33  1  0
 32 24  1  0
 34 32  2  0
M  END
$$$$
