RFF.pdb
     RDKit          3D

 34 35  0  0  1  0  0  0  0  0999 V2000
   26.8969  -34.6547  -13.6845 N   0  0  0  0  0  0  0  0  0  0  0  0
   26.1431  -34.7028  -14.8952 C   0  0  0  0  0  0  0  0  0  0  0  0
   24.8808  -34.8961  -14.8515 N   0  0  0  0  0  0  0  0  0  0  0  0
   26.7662  -34.5398  -16.1644 N   0  0  0  0  0  0  0  0  0  0  0  0
   28.1170  -34.0657  -16.3273 C   0  0  0  0  0  0  0  0  0  0  0  0
   28.1429  -32.7085  -16.9787 C   0  0  0  0  0  0  0  0  0  0  0  0
   29.5506  -32.2668  -17.3158 C   0  0  0  0  0  0  0  0  0  0  0  0
   29.5649  -30.8767  -17.9073 C   0  0  2  0  0  0  0  0  0  0  0  0
   30.7439  -30.1387  -17.5810 N   0  0  0  0  0  0  0  0  0  0  0  0
   28.3215  -30.1823  -17.4305 C   0  0  0  0  0  0  0  0  0  0  0  0
   28.2224  -29.7929  -16.2395 O   0  0  0  0  0  0  0  0  0  0  0  0
   24.3206  -34.8909  -15.7153 N   0  0  0  0  0  0  0  0  0  0  0  0
   27.2235  -29.9414  -18.2946 C   0  0  1  0  0  0  0  0  0  0  0  0
   26.1404  -29.0351  -17.9962 C   0  0  0  0  0  0  0  0  0  0  0  0
   26.3435  -27.6774  -18.6348 C   0  0  0  0  0  0  0  0  0  0  0  0
   27.5396  -26.9770  -18.1025 C   0  0  0  0  0  0  0  0  0  0  0  0
   28.7268  -26.9341  -18.8305 C   0  0  0  0  0  0  0  0  0  0  0  0
   29.8440  -26.2894  -18.3516 C   0  0  0  0  0  0  0  0  0  0  0  0
   29.8430  -25.6603  -17.1391 C   0  0  0  0  0  0  0  0  0  0  0  0
   28.6745  -25.6889  -16.3963 C   0  0  0  0  0  0  0  0  0  0  0  0
   27.5493  -26.3393  -16.8809 C   0  0  0  0  0  0  0  0  0  0  0  0
   24.8528  -29.5659  -18.5013 O   0  0  0  0  0  0  0  0  0  0  0  0
   24.8054  -30.0264  -19.6649 N   0  0  0  0  0  0  0  0  0  0  0  0
   23.6645  -29.5797  -17.7314 C   0  0  2  0  0  0  0  0  0  0  0  0
   22.3821  -30.0648  -18.2608 C   0  0  0  0  0  0  0  0  0  0  0  0
   21.5109  -30.3457  -17.0800 C   0  0  0  0  0  0  0  0  0  0  0  0
   20.1678  -30.8230  -17.3937 C   0  0  0  0  0  0  0  0  0  0  0  0
   19.9122  -32.1788  -17.3832 C   0  0  0  0  0  0  0  0  0  0  0  0
   18.6480  -32.6944  -17.6741 C   0  0  0  0  0  0  0  0  0  0  0  0
   17.6161  -31.8245  -17.9830 C   0  0  0  0  0  0  0  0  0  0  0  0
   17.8527  -30.4683  -17.9983 C   0  0  0  0  0  0  0  0  0  0  0  0
   19.1281  -29.9731  -17.7034 C   0  0  0  0  0  0  0  0  0  0  0  0
   21.8777  -29.0341  -19.1688 O   0  0  0  0  0  0  0  0  0  0  0  0
   21.2027  -29.3046  -20.3625 O   0  0  0  0  0  0  0  0  0  0  0  0
  2  3  2  0
  2  1  1  0
  4  2  1  0
  5  4  1  0
  6  7  1  0
  6  5  1  0
  8  9  1  1
  8  7  1  0
 10 12  1  0
 10  8  1  0
 11 10  2  0
 13 21  1  0
 13 14  1  6
 13 12  1  0
 15 16  2  0
 15 14  1  0
 17 16  1  0
 18 17  2  0
 19 18  1  0
 19 20  2  0
 20 15  1  0
 21 23  1  0
 22 21  2  0
 23 24  1  0
 24 25  1  6
 25 26  1  0
 26 27  2  0
 26 31  1  0
 27 28  1  0
 28 29  2  0
 30 29  1  0
 31 30  2  0
 32 33  1  0
 32 24  1  0
 34 32  2  0
M  END
$$$$
