RFF.pdb
     RDKit          3D

 34 35  0  0  1  0  0  0  0  0999 V2000
   15.2658  -31.7218   -4.6870 N   0  0  0  0  0  0  0  0  0  0  0  0
   16.4706  -31.2460   -4.0885 C   0  0  0  0  0  0  0  0  0  0  0  0
   17.2923  -32.0742   -3.5673 N   0  0  0  0  0  0  0  0  0  0  0  0
   16.7853  -29.8584   -4.0556 N   0  0  0  0  0  0  0  0  0  0  0  0
   15.9320  -28.8403   -4.6137 C   0  0  0  0  0  0  0  0  0  0  0  0
   16.5759  -27.4822   -4.5268 C   0  0  0  0  0  0  0  0  0  0  0  0
   15.6725  -26.3900   -5.0571 C   0  0  0  0  0  0  0  0  0  0  0  0
   16.3680  -25.0489   -5.0518 C   0  0  2  0  0  0  0  0  0  0  0  0
   17.7098  -25.1091   -5.5388 N   0  0  0  0  0  0  0  0  0  0  0  0
   16.3075  -24.5268   -3.6450 C   0  0  0  0  0  0  0  0  0  0  0  0
   17.2664  -23.8722   -3.1633 O   0  0  0  0  0  0  0  0  0  0  0  0
   18.1910  -31.7489   -3.1847 N   0  0  0  0  0  0  0  0  0  0  0  0
   15.1800  -24.7489   -2.8145 C   0  0  2  0  0  0  0  0  0  0  0  0
   15.0694  -24.2784   -1.4544 C   0  0  0  0  0  0  0  0  0  0  0  0
   13.6281  -24.1908   -0.9990 C   0  0  0  0  0  0  0  0  0  0  0  0
   13.5054  -23.6778    0.3890 C   0  0  0  0  0  0  0  0  0  0  0  0
   13.2575  -24.5430    1.4525 C   0  0  0  0  0  0  0  0  0  0  0  0
   13.1410  -24.0838    2.7443 C   0  0  0  0  0  0  0  0  0  0  0  0
   13.2630  -22.7572    3.0464 C   0  0  0  0  0  0  0  0  0  0  0  0
   13.5096  -21.8769    2.0061 C   0  0  0  0  0  0  0  0  0  0  0  0
   13.6267  -22.3418    0.7046 C   0  0  0  0  0  0  0  0  0  0  0  0
   15.7666  -25.1931   -0.5205 O   0  0  0  0  0  0  0  0  0  0  0  0
   15.8755  -26.4018   -0.8292 N   0  0  0  0  0  0  0  0  0  0  0  0
   16.3200  -24.7686    0.7118 C   0  0  1  0  0  0  0  0  0  0  0  0
   17.0694  -25.6710    1.5973 C   0  0  0  0  0  0  0  0  0  0  0  0
   18.5140  -25.5048    1.2538 C   0  0  0  0  0  0  0  0  0  0  0  0
   19.4439  -26.2748    2.0737 C   0  0  0  0  0  0  0  0  0  0  0  0
   19.9064  -27.4900    1.6118 C   0  0  0  0  0  0  0  0  0  0  0  0
   20.7972  -28.2705    2.3508 C   0  0  0  0  0  0  0  0  0  0  0  0
   21.2331  -27.8172    3.5842 C   0  0  0  0  0  0  0  0  0  0  0  0
   20.7822  -26.6070    4.0611 C   0  0  0  0  0  0  0  0  0  0  0  0
   19.8892  -25.8406    3.3035 C   0  0  0  0  0  0  0  0  0  0  0  0
   16.7162  -25.3117    2.9711 O   0  0  0  0  0  0  0  0  0  0  0  0
   16.7709  -24.0107    3.4788 O   0  0  0  0  0  0  0  0  0  0  0  0
  2  3  2  0
  2  1  1  0
  4  2  1  0
  5  4  1  0
  6  7  1  0
  6  5  1  0
  8  9  1  1
  8  7  1  0
 10 12  1  0
 10  8  1  0
 11 10  2  0
 13 21  1  0
 13 14  1  6
 13 12  1  0
 15 16  2  0
 15 14  1  0
 17 16  1  0
 18 17  2  0
 19 18  1  0
 19 20  2  0
 20 15  1  0
 21 23  1  0
 22 21  2  0
 23 24  1  0
 24 25  1  1
 25 26  1  0
 26 27  2  0
 26 31  1  0
 27 28  1  0
 28 29  2  0
 30 29  1  0
 31 30  2  0
 32 33  1  0
 32 24  1  0
 34 32  2  0
M  END
$$$$
