RFF.pdb
     RDKit          3D

 34 35  0  0  1  0  0  0  0  0999 V2000
   30.5758  -22.8527  -17.2748 N   0  0  0  0  0  0  0  0  0  0  0  0
   29.4786  -22.1638  -17.8730 C   0  0  0  0  0  0  0  0  0  0  0  0
   29.0112  -22.5631  -18.9932 N   0  0  0  0  0  0  0  0  0  0  0  0
   28.8841  -21.0312  -17.2489 N   0  0  0  0  0  0  0  0  0  0  0  0
   29.4293  -20.3979  -16.0752 C   0  0  0  0  0  0  0  0  0  0  0  0
   28.4963  -19.3431  -15.5425 C   0  0  0  0  0  0  0  0  0  0  0  0
   28.1837  -19.5490  -14.0761 C   0  0  0  0  0  0  0  0  0  0  0  0
   28.0881  -21.0175  -13.7344 C   0  0  2  0  0  0  0  0  0  0  0  0
   28.3454  -21.8726  -14.8496 N   0  0  0  0  0  0  0  0  0  0  0  0
   26.7204  -21.2476  -13.1582 C   0  0  0  0  0  0  0  0  0  0  0  0
   25.7470  -21.5150  -13.9070 O   0  0  0  0  0  0  0  0  0  0  0  0
   28.2658  -22.0344  -19.4673 N   0  0  0  0  0  0  0  0  0  0  0  0
   26.4761  -21.1732  -11.7635 C   0  0  2  0  0  0  0  0  0  0  0  0
   25.2039  -21.4634  -11.1465 C   0  0  0  0  0  0  0  0  0  0  0  0
   25.2774  -21.3989   -9.6356 C   0  0  0  0  0  0  0  0  0  0  0  0
   26.5754  -20.8599   -9.1566 C   0  0  0  0  0  0  0  0  0  0  0  0
   27.7748  -21.4925   -9.4766 C   0  0  0  0  0  0  0  0  0  0  0  0
   28.9858  -21.0062   -9.0407 C   0  0  0  0  0  0  0  0  0  0  0  0
   29.0706  -19.8794   -8.2732 C   0  0  0  0  0  0  0  0  0  0  0  0
   27.8919  -19.2323   -7.9417 C   0  0  0  0  0  0  0  0  0  0  0  0
   26.6720  -19.7242   -8.3820 C   0  0  0  0  0  0  0  0  0  0  0  0
   24.1742  -20.4880  -11.5746 O   0  0  0  0  0  0  0  0  0  0  0  0
   24.5438  -19.3769  -12.0184 N   0  0  0  0  0  0  0  0  0  0  0  0
   22.7841  -20.7486  -11.5075 C   0  0  1  0  0  0  0  0  0  0  0  0
   21.8145  -20.1191  -12.4151 C   0  0  0  0  0  0  0  0  0  0  0  0
   22.2020  -20.5217  -13.8007 C   0  0  0  0  0  0  0  0  0  0  0  0
   22.7989  -19.4671  -14.6141 C   0  0  0  0  0  0  0  0  0  0  0  0
   24.1433  -19.5267  -14.9185 C   0  0  0  0  0  0  0  0  0  0  0  0
   24.7696  -18.5482  -15.6925 C   0  0  0  0  0  0  0  0  0  0  0  0
   24.0248  -17.4840  -16.1718 C   0  0  0  0  0  0  0  0  0  0  0  0
   22.6819  -17.4080  -15.8781 C   0  0  0  0  0  0  0  0  0  0  0  0
   22.0744  -18.4003  -15.1002 C   0  0  0  0  0  0  0  0  0  0  0  0
   20.4850  -20.5611  -11.9928 O   0  0  0  0  0  0  0  0  0  0  0  0
   19.3122  -19.8326  -12.2102 O   0  0  0  0  0  0  0  0  0  0  0  0
  2  3  2  0
  2  1  1  0
  4  2  1  0
  5  4  1  0
  6  7  1  0
  6  5  1  0
  8  9  1  6
  8  7  1  0
 10 12  1  0
 10  8  1  0
 11 10  2  0
 13 21  1  0
 13 14  1  1
 13 12  1  0
 15 16  2  0
 15 14  1  0
 17 16  1  0
 18 17  2  0
 19 18  1  0
 19 20  2  0
 20 15  1  0
 21 23  1  0
 22 21  2  0
 23 24  1  0
 24 25  1  1
 25 26  1  0
 26 27  2  0
 26 31  1  0
 27 28  1  0
 28 29  2  0
 30 29  1  0
 31 30  2  0
 32 33  1  0
 32 24  1  0
 34 32  2  0
M  END
$$$$
