RFF.pdb
     RDKit          3D

 34 35  0  0  1  0  0  0  0  0999 V2000
   24.0748  -15.8291  -19.9054 N   0  0  0  0  0  0  0  0  0  0  0  0
   24.0844  -14.6583  -20.7212 C   0  0  0  0  0  0  0  0  0  0  0  0
   25.1536  -14.3174  -21.3322 N   0  0  0  0  0  0  0  0  0  0  0  0
   22.9225  -13.8507  -20.8741 N   0  0  0  0  0  0  0  0  0  0  0  0
   21.6378  -14.2008  -20.3235 C   0  0  0  0  0  0  0  0  0  0  0  0
   21.2044  -13.2078  -19.2781 C   0  0  0  0  0  0  0  0  0  0  0  0
   19.7974  -13.4751  -18.7892 C   0  0  0  0  0  0  0  0  0  0  0  0
   19.3197  -12.3824  -17.8617 C   0  0  2  0  0  0  0  0  0  0  0  0
   20.3786  -11.7639  -17.1288 N   0  0  0  0  0  0  0  0  0  0  0  0
   18.2937  -12.9943  -16.9515 C   0  0  0  0  0  0  0  0  0  0  0  0
   18.6353  -13.5119  -15.8583 O   0  0  0  0  0  0  0  0  0  0  0  0
   25.2181  -13.4045  -21.8038 N   0  0  0  0  0  0  0  0  0  0  0  0
   16.9159  -13.0122  -17.2855 C   0  0  1  0  0  0  0  0  0  0  0  0
   15.8748  -13.4903  -16.4074 C   0  0  0  0  0  0  0  0  0  0  0  0
   14.5418  -12.8329  -16.6959 C   0  0  0  0  0  0  0  0  0  0  0  0
   13.4296  -13.4548  -15.9338 C   0  0  0  0  0  0  0  0  0  0  0  0
   12.6104  -14.4171  -16.5202 C   0  0  0  0  0  0  0  0  0  0  0  0
   11.5757  -15.0030  -15.8280 C   0  0  0  0  0  0  0  0  0  0  0  0
   11.3017  -14.6692  -14.5320 C   0  0  0  0  0  0  0  0  0  0  0  0
   12.1021  -13.7147  -13.9267 C   0  0  0  0  0  0  0  0  0  0  0  0
   13.1446  -13.1253  -14.6263 C   0  0  0  0  0  0  0  0  0  0  0  0
   15.6826  -14.9512  -16.5621 O   0  0  0  0  0  0  0  0  0  0  0  0
   15.4251  -15.4083  -17.6992 N   0  0  0  0  0  0  0  0  0  0  0  0
   15.7756  -15.8638  -15.4835 C   0  0  1  0  0  0  0  0  0  0  0  0
   15.6955  -17.3198  -15.6674 C   0  0  0  0  0  0  0  0  0  0  0  0
   17.0968  -17.8353  -15.6128 C   0  0  0  0  0  0  0  0  0  0  0  0
   17.7028  -17.8586  -14.2852 C   0  0  0  0  0  0  0  0  0  0  0  0
   18.5309  -16.8238  -13.9016 C   0  0  0  0  0  0  0  0  0  0  0  0
   19.1381  -16.7908  -12.6449 C   0  0  0  0  0  0  0  0  0  0  0  0
   18.9063  -17.8240  -11.7530 C   0  0  0  0  0  0  0  0  0  0  0  0
   18.0827  -18.8649  -12.1187 C   0  0  0  0  0  0  0  0  0  0  0  0
   17.4842  -18.8778  -13.3838 C   0  0  0  0  0  0  0  0  0  0  0  0
   14.8075  -17.8338  -14.6242 O   0  0  0  0  0  0  0  0  0  0  0  0
   14.2581  -19.1189  -14.6270 O   0  0  0  0  0  0  0  0  0  0  0  0
  2  3  2  0
  2  1  1  0
  4  2  1  0
  5  4  1  0
  6  7  1  0
  6  5  1  0
  8  9  1  1
  8  7  1  0
 10 12  1  0
 10  8  1  0
 11 10  2  0
 13 21  1  0
 13 14  1  6
 13 12  1  0
 15 16  2  0
 15 14  1  0
 17 16  1  0
 18 17  2  0
 19 18  1  0
 19 20  2  0
 20 15  1  0
 21 23  1  0
 22 21  2  0
 23 24  1  0
 24 25  1  1
 25 26  1  0
 26 27  2  0
 26 31  1  0
 27 28  1  0
 28 29  2  0
 30 29  1  0
 31 30  2  0
 32 33  1  0
 32 24  1  0
 34 32  2  0
M  END
$$$$
