GRT.pdb
     RDKit          3D

 23 22  0  0  1  0  0  0  0  0999 V2000
   28.1654  -23.3088  -16.6522 N   0  0  0  0  0  0  0  0  0  0  0  0
   28.2878  -22.2059  -15.7248 C   0  0  0  0  0  0  0  0  0  0  0  0
   27.0363  -22.1011  -14.9402 C   0  0  0  0  0  0  0  0  0  0  0  0
   26.0452  -22.7534  -15.2828 O   0  0  0  0  0  0  0  0  0  0  0  0
   22.1574  -21.2163   -8.2344 N   0  0  0  0  0  0  0  0  0  0  0  0
   22.1367  -20.4684   -9.4206 C   0  0  0  0  0  0  0  0  0  0  0  0
   20.9824  -20.2084   -9.9858 N   0  0  0  0  0  0  0  0  0  0  0  0
   23.3381  -19.9916  -10.0151 N   0  0  0  0  0  0  0  0  0  0  0  0
   24.5788  -20.5364   -9.5413 C   0  0  0  0  0  0  0  0  0  0  0  0
   25.2418  -21.4513  -10.5287 C   0  0  0  0  0  0  0  0  0  0  0  0
   26.0597  -20.7270  -11.5552 C   0  0  0  0  0  0  0  0  0  0  0  0
   25.7532  -21.1740  -12.9660 C   0  0  2  0  0  0  0  0  0  0  0  0
   26.9491  -21.2497  -13.7788 N   0  0  0  0  0  0  0  0  0  0  0  0
   24.8295  -20.1545  -13.5444 C   0  0  0  0  0  0  0  0  0  0  0  0
   25.2366  -18.9686  -13.5594 O   0  0  0  0  0  0  0  0  0  0  0  0
   20.9365  -19.7007  -10.8935 C   0  0  0  0  0  0  0  0  0  0  0  0
   23.5661  -19.7542  -16.8827 C   0  0  2  0  0  0  0  0  0  0  0  0
   22.2753  -19.8493  -16.0781 O   0  0  0  0  0  0  0  0  0  0  0  0
   21.7567  -21.1561  -16.1462 C   0  0  2  0  0  0  0  0  0  0  0  0
   22.6116  -19.5889  -14.6516 N   0  0  0  0  0  0  0  0  0  0  0  0
   23.5495  -20.4862  -14.0579 C   0  0  0  0  0  0  0  0  0  0  0  0
   21.4219  -19.4149  -13.7708 O   0  0  0  0  0  0  0  0  0  0  0  0
   21.3069  -20.1284  -12.7582 O   0  0  0  0  0  0  0  0  0  0  0  0
  1  2  1  0
  3  4  2  0
  3  2  1  0
  5  6  1  0
  6  8  1  0
  7  6  2  0
  8  9  1  0
  9 10  1  0
 10 11  1  0
 12 11  1  1
 12 13  1  0
 13  3  1  0
 14 12  1  0
 15 14  2  0
 17 16  1  6
 17 19  1  0
 18 17  1  0
 19 21  1  0
 19 20  1  1
 20 14  1  0
 21 23  1  0
 22 21  2  0
M  END
$$$$
