GRT.pdb
     RDKit          3D

 23 22  0  0  1  0  0  0  0  0999 V2000
   27.2413  -24.2568  -16.5725 N   0  0  0  0  0  0  0  0  0  0  0  0
   27.3296  -22.9302  -16.0036 C   0  0  0  0  0  0  0  0  0  0  0  0
   26.0779  -22.6428  -15.2665 C   0  0  0  0  0  0  0  0  0  0  0  0
   25.0602  -23.2969  -15.5145 O   0  0  0  0  0  0  0  0  0  0  0  0
   23.3215  -21.0028   -7.3557 N   0  0  0  0  0  0  0  0  0  0  0  0
   22.2497  -21.0835   -8.2565 C   0  0  0  0  0  0  0  0  0  0  0  0
   21.0515  -21.3480   -7.7939 N   0  0  0  0  0  0  0  0  0  0  0  0
   22.4403  -20.8845   -9.6522 N   0  0  0  0  0  0  0  0  0  0  0  0
   23.7610  -20.5495  -10.1042 C   0  0  0  0  0  0  0  0  0  0  0  0
   23.8121  -20.1558  -11.5512 C   0  0  0  0  0  0  0  0  0  0  0  0
   25.0672  -20.5948  -12.2436 C   0  0  0  0  0  0  0  0  0  0  0  0
   24.7958  -21.2796  -13.5632 C   0  0  2  0  0  0  0  0  0  0  0  0
   26.0210  -21.6104  -14.2603 N   0  0  0  0  0  0  0  0  0  0  0  0
   24.0057  -20.3183  -14.3871 C   0  0  0  0  0  0  0  0  0  0  0  0
   24.5656  -19.2361  -14.6830 O   0  0  0  0  0  0  0  0  0  0  0  0
   20.2406  -21.4434   -8.4397 C   0  0  0  0  0  0  0  0  0  0  0  0
   20.5759  -19.1900  -17.5990 C   0  0  2  0  0  0  0  0  0  0  0  0
   21.3500  -20.2913  -16.8844 O   0  0  0  0  0  0  0  0  0  0  0  0
   22.4805  -20.6572  -17.6388 C   0  0  1  0  0  0  0  0  0  0  0  0
   21.8482  -19.7319  -15.5980 N   0  0  0  0  0  0  0  0  0  0  0  0
   22.6849  -20.5927  -14.8258 C   0  0  0  0  0  0  0  0  0  0  0  0
   20.7829  -19.1324  -14.7453 O   0  0  0  0  0  0  0  0  0  0  0  0
   20.4409  -17.9525  -14.9413 O   0  0  0  0  0  0  0  0  0  0  0  0
  1  2  1  0
  3  4  2  0
  3  2  1  0
  5  6  1  0
  6  8  1  0
  7  6  2  0
  8  9  1  0
  9 10  1  0
 10 11  1  0
 12 11  1  1
 12 13  1  0
 13  3  1  0
 14 12  1  0
 15 14  2  0
 17 16  1  6
 17 19  1  0
 18 17  1  0
 19 21  1  0
 19 20  1  1
 20 14  1  0
 21 23  1  0
 22 21  2  0
M  END
$$$$
