GRT.pdb
     RDKit          3D

 23 22  0  0  1  0  0  0  0  0999 V2000
   16.8002   -9.9884  -15.3935 N   0  0  0  0  0  0  0  0  0  0  0  0
   16.9931   -9.4268  -14.0749 C   0  0  0  0  0  0  0  0  0  0  0  0
   18.4181   -9.0558  -13.9181 C   0  0  0  0  0  0  0  0  0  0  0  0
   18.8334   -8.6820  -12.8167 O   0  0  0  0  0  0  0  0  0  0  0  0
   26.6600  -10.2742  -16.0604 N   0  0  0  0  0  0  0  0  0  0  0  0
   25.7801  -11.3526  -15.8877 C   0  0  0  0  0  0  0  0  0  0  0  0
   26.2377  -12.4672  -15.3703 N   0  0  0  0  0  0  0  0  0  0  0  0
   24.4108  -11.2569  -16.2617 N   0  0  0  0  0  0  0  0  0  0  0  0
   23.9256   -9.9775  -16.6959 C   0  0  0  0  0  0  0  0  0  0  0  0
   23.0635   -9.2917  -15.6771 C   0  0  0  0  0  0  0  0  0  0  0  0
   21.6032   -9.5920  -15.8340 C   0  0  0  0  0  0  0  0  0  0  0  0
   20.7382   -8.7870  -14.8917 C   0  0  2  0  0  0  0  0  0  0  0  0
   19.3362   -9.1217  -15.0290 N   0  0  0  0  0  0  0  0  0  0  0  0
   20.9385   -7.3524  -15.2508 C   0  0  0  0  0  0  0  0  0  0  0  0
   21.0338   -7.0846  -16.4721 O   0  0  0  0  0  0  0  0  0  0  0  0
   25.6048  -13.2775  -15.2069 C   0  0  0  0  0  0  0  0  0  0  0  0
   18.8104   -4.6982  -15.3061 C   0  0  2  0  0  0  0  0  0  0  0  0
   19.8443   -4.1506  -14.3294 O   0  0  0  0  0  0  0  0  0  0  0  0
   19.4261   -4.3751  -13.0044 C   0  0  2  0  0  0  0  0  0  0  0  0
   21.1029   -4.9212  -14.5245 N   0  0  0  0  0  0  0  0  0  0  0  0
   21.0201   -6.3245  -14.2767 C   0  0  0  0  0  0  0  0  0  0  0  0
   22.2856   -4.3350  -13.8322 O   0  0  0  0  0  0  0  0  0  0  0  0
   22.8909   -5.0148  -12.9842 O   0  0  0  0  0  0  0  0  0  0  0  0
  1  2  1  0
  3  4  2  0
  3  2  1  0
  5  6  1  0
  6  8  1  0
  7  6  2  0
  8  9  1  0
  9 10  1  0
 10 11  1  0
 12 11  1  6
 12 13  1  0
 13  3  1  0
 14 12  1  0
 15 14  2  0
 17 16  1  1
 17 19  1  0
 18 17  1  0
 19 21  1  0
 19 20  1  6
 20 14  1  0
 21 23  1  0
 22 21  2  0
M  END
$$$$
