GRT.pdb
     RDKit          3D

 23 22  0  0  1  0  0  0  0  0999 V2000
   17.8007  -10.8344  -15.0799 N   0  0  0  0  0  0  0  0  0  0  0  0
   18.0866  -10.8063  -13.6626 C   0  0  0  0  0  0  0  0  0  0  0  0
   17.1526   -9.8633  -13.0059 C   0  0  0  0  0  0  0  0  0  0  0  0
   16.8340   -8.8192  -13.5833 O   0  0  0  0  0  0  0  0  0  0  0  0
   10.7748  -12.7079   -8.3463 N   0  0  0  0  0  0  0  0  0  0  0  0
   10.8600  -12.9215   -9.7297 C   0  0  0  0  0  0  0  0  0  0  0  0
   10.0097  -13.7422  -10.2979 N   0  0  0  0  0  0  0  0  0  0  0  0
   11.8461  -12.2673  -10.5195 N   0  0  0  0  0  0  0  0  0  0  0  0
   12.8249  -11.4686   -9.8377 C   0  0  0  0  0  0  0  0  0  0  0  0
   13.8423  -10.8613  -10.7584 C   0  0  0  0  0  0  0  0  0  0  0  0
   14.7894   -9.9278  -10.0662 C   0  0  0  0  0  0  0  0  0  0  0  0
   15.7135   -9.2167  -11.0275 C   0  0  2  0  0  0  0  0  0  0  0  0
   16.6042  -10.1390  -11.7003 N   0  0  0  0  0  0  0  0  0  0  0  0
   16.5197   -8.2600  -10.2139 C   0  0  0  0  0  0  0  0  0  0  0  0
   17.3518   -8.7576   -9.4187 O   0  0  0  0  0  0  0  0  0  0  0  0
   10.0644  -13.9434  -11.3178 C   0  0  0  0  0  0  0  0  0  0  0  0
   18.7633   -5.5802  -11.4378 C   0  0  2  0  0  0  0  0  0  0  0  0
   17.8006   -4.8464  -10.5118 O   0  0  0  0  0  0  0  0  0  0  0  0
   16.7820   -4.2293  -11.2618 C   0  0  2  0  0  0  0  0  0  0  0  0
   17.1460   -5.8627   -9.6431 N   0  0  0  0  0  0  0  0  0  0  0  0
   16.3703   -6.8531  -10.3174 C   0  0  0  0  0  0  0  0  0  0  0  0
   16.3802   -5.2826   -8.5035 O   0  0  0  0  0  0  0  0  0  0  0  0
   16.9692   -4.5544   -7.6847 O   0  0  0  0  0  0  0  0  0  0  0  0
  1  2  1  0
  3  4  2  0
  3  2  1  0
  5  6  1  0
  6  8  1  0
  7  6  2  0
  8  9  1  0
  9 10  1  0
 10 11  1  0
 12 11  1  1
 12 13  1  0
 13  3  1  0
 14 12  1  0
 15 14  2  0
 17 16  1  6
 17 19  1  0
 18 17  1  0
 19 21  1  0
 19 20  1  1
 20 14  1  0
 21 23  1  0
 22 21  2  0
M  END
$$$$
