GRT.pdb
     RDKit          3D

 23 22  0  0  1  0  0  0  0  0999 V2000
   15.1637  -11.5102  -11.1376 N   0  0  0  0  0  0  0  0  0  0  0  0
   15.7437  -10.6776  -10.1073 C   0  0  0  0  0  0  0  0  0  0  0  0
   16.0906   -9.3634  -10.6948 C   0  0  0  0  0  0  0  0  0  0  0  0
   15.8346   -9.1393  -11.8819 O   0  0  0  0  0  0  0  0  0  0  0  0
   12.2959   -7.1749   -6.4933 N   0  0  0  0  0  0  0  0  0  0  0  0
   11.9041   -6.2145   -7.4373 C   0  0  0  0  0  0  0  0  0  0  0  0
   10.7456   -5.6178   -7.2910 N   0  0  0  0  0  0  0  0  0  0  0  0
   12.7367   -5.8805   -8.5415 N   0  0  0  0  0  0  0  0  0  0  0  0
   14.1397   -6.1626   -8.4286 C   0  0  0  0  0  0  0  0  0  0  0  0
   14.9322   -5.7248   -9.6252 C   0  0  0  0  0  0  0  0  0  0  0  0
   16.4077   -5.9423   -9.4740 C   0  0  0  0  0  0  0  0  0  0  0  0
   16.9410   -6.9964  -10.4167 C   0  0  2  0  0  0  0  0  0  0  0  0
   16.7242   -8.3342   -9.9069 N   0  0  0  0  0  0  0  0  0  0  0  0
   18.4075   -6.7506  -10.5442 C   0  0  0  0  0  0  0  0  0  0  0  0
   19.0953   -6.8905   -9.5051 O   0  0  0  0  0  0  0  0  0  0  0  0
   10.4310   -4.8928   -7.9685 C   0  0  0  0  0  0  0  0  0  0  0  0
   20.9420   -8.7036  -11.8866 C   0  0  2  0  0  0  0  0  0  0  0  0
   20.9635   -7.4901  -12.8084 O   0  0  0  0  0  0  0  0  0  0  0  0
   20.1090   -7.7005  -13.9069 C   0  0  2  0  0  0  0  0  0  0  0  0
   20.4160   -6.3343  -12.0468 N   0  0  0  0  0  0  0  0  0  0  0  0
   19.0164   -6.3765  -11.7695 C   0  0  0  0  0  0  0  0  0  0  0  0
   20.8010   -5.0058  -12.6022 O   0  0  0  0  0  0  0  0  0  0  0  0
   19.9087   -4.2058  -12.9358 O   0  0  0  0  0  0  0  0  0  0  0  0
  1  2  1  0
  3  4  2  0
  3  2  1  0
  5  6  1  0
  6  8  1  0
  7  6  2  0
  8  9  1  0
  9 10  1  0
 10 11  1  0
 12 11  1  1
 12 13  1  0
 13  3  1  0
 14 12  1  0
 15 14  2  0
 17 16  1  6
 17 19  1  0
 18 17  1  0
 19 21  1  0
 19 20  1  6
 20 14  1  0
 21 23  1  0
 22 21  2  0
M  END
$$$$
