GRT.pdb
     RDKit          3D

 23 22  0  0  1  0  0  0  0  0999 V2000
   32.2008  -31.5077  -16.3237 N   0  0  0  0  0  0  0  0  0  0  0  0
   31.0860  -32.1242  -17.0081 C   0  0  0  0  0  0  0  0  0  0  0  0
   30.0764  -32.5320  -16.0046 C   0  0  0  0  0  0  0  0  0  0  0  0
   30.2377  -32.2276  -14.8186 O   0  0  0  0  0  0  0  0  0  0  0  0
   22.7360  -34.6988  -14.9514 N   0  0  0  0  0  0  0  0  0  0  0  0
   22.4145  -33.5479  -14.2172 C   0  0  0  0  0  0  0  0  0  0  0  0
   21.4590  -33.6139  -13.3216 N   0  0  0  0  0  0  0  0  0  0  0  0
   23.1028  -32.3206  -14.4272 N   0  0  0  0  0  0  0  0  0  0  0  0
   24.1427  -32.2997  -15.4166 C   0  0  0  0  0  0  0  0  0  0  0  0
   25.4103  -32.9605  -14.9607 C   0  0  0  0  0  0  0  0  0  0  0  0
   26.5268  -32.8570  -15.9557 C   0  0  0  0  0  0  0  0  0  0  0  0
   27.8026  -33.5052  -15.4697 C   0  0  2  0  0  0  0  0  0  0  0  0
   28.9029  -33.2807  -16.3838 N   0  0  0  0  0  0  0  0  0  0  0  0
   27.5288  -34.9695  -15.3804 C   0  0  0  0  0  0  0  0  0  0  0  0
   27.1896  -35.5457  -16.4412 O   0  0  0  0  0  0  0  0  0  0  0  0
   21.2153  -32.7849  -12.7410 C   0  0  0  0  0  0  0  0  0  0  0  0
   29.8080  -37.5814  -14.6096 C   0  0  2  0  0  0  0  0  0  0  0  0
   28.7242  -37.8351  -13.5687 O   0  0  0  0  0  0  0  0  0  0  0  0
   29.1070  -37.2919  -12.3279 C   0  0  2  0  0  0  0  0  0  0  0  0
   27.5009  -37.1067  -14.0032 N   0  0  0  0  0  0  0  0  0  0  0  0
   27.6400  -35.6956  -14.1669 C   0  0  0  0  0  0  0  0  0  0  0  0
   26.2882  -37.4244  -13.1969 O   0  0  0  0  0  0  0  0  0  0  0  0
   25.6377  -36.4946  -12.6870 O   0  0  0  0  0  0  0  0  0  0  0  0
  1  2  1  0
  3  4  2  0
  3  2  1  0
  5  6  1  0
  6  8  1  0
  7  6  2  0
  8  9  1  0
  9 10  1  0
 10 11  1  0
 12 11  1  6
 12 13  1  0
 13  3  1  0
 14 12  1  0
 15 14  2  0
 17 16  1  1
 17 19  1  0
 18 17  1  0
 19 21  1  0
 19 20  1  6
 20 14  1  0
 21 23  1  0
 22 21  2  0
M  END
$$$$
