GRT.pdb
     RDKit          3D

 23 22  0  0  1  0  0  0  0  0999 V2000
   27.6024  -17.5315  -19.4621 N   0  0  0  0  0  0  0  0  0  0  0  0
   27.5567  -17.0048  -18.1161 C   0  0  0  0  0  0  0  0  0  0  0  0
   26.9297  -18.0125  -17.2305 C   0  0  0  0  0  0  0  0  0  0  0  0
   26.4100  -19.0185  -17.7233 O   0  0  0  0  0  0  0  0  0  0  0  0
   26.0631  -21.9355  -11.1236 N   0  0  0  0  0  0  0  0  0  0  0  0
   25.4978  -21.1089  -10.1417 C   0  0  0  0  0  0  0  0  0  0  0  0
   24.6502  -21.6288   -9.2868 N   0  0  0  0  0  0  0  0  0  0  0  0
   25.8268  -19.7272  -10.0594 N   0  0  0  0  0  0  0  0  0  0  0  0
   26.6691  -19.1796  -11.0847 C   0  0  0  0  0  0  0  0  0  0  0  0
   26.0902  -19.3113  -12.4628 C   0  0  0  0  0  0  0  0  0  0  0  0
   26.9958  -18.7961  -13.5406 C   0  0  0  0  0  0  0  0  0  0  0  0
   26.3582  -18.8444  -14.9100 C   0  0  2  0  0  0  0  0  0  0  0  0
   26.9125  -17.8438  -15.7978 N   0  0  0  0  0  0  0  0  0  0  0  0
   24.9039  -18.5743  -14.7121 C   0  0  0  0  0  0  0  0  0  0  0  0
   24.5945  -17.4371  -14.2839 O   0  0  0  0  0  0  0  0  0  0  0  0
   24.1870  -21.0347   -8.5683 C   0  0  0  0  0  0  0  0  0  0  0  0
   22.2793  -18.2531  -17.0513 C   0  0  2  0  0  0  0  0  0  0  0  0
   21.7422  -19.3816  -16.1791 O   0  0  0  0  0  0  0  0  0  0  0  0
   22.0052  -20.6265  -16.7808 C   0  0  2  0  0  0  0  0  0  0  0  0
   22.4904  -19.3538  -14.8926 N   0  0  0  0  0  0  0  0  0  0  0  0
   23.9023  -19.5403  -14.9878 C   0  0  0  0  0  0  0  0  0  0  0  0
   21.9146  -20.2357  -13.8379 O   0  0  0  0  0  0  0  0  0  0  0  0
   22.6248  -21.1256  -13.3366 O   0  0  0  0  0  0  0  0  0  0  0  0
  1  2  1  0
  3  4  2  0
  3  2  1  0
  5  6  1  0
  6  8  1  0
  7  6  2  0
  8  9  1  0
  9 10  1  0
 10 11  1  0
 12 11  1  1
 12 13  1  0
 13  3  1  0
 14 12  1  0
 15 14  2  0
 17 16  1  6
 17 19  1  0
 18 17  1  0
 19 21  1  0
 19 20  1  1
 20 14  1  0
 21 23  1  0
 22 21  2  0
M  END
$$$$
