GRT.pdb
     RDKit          3D

 23 22  0  0  1  0  0  0  0  0999 V2000
   28.4802  -23.6717  -16.8167 N   0  0  0  0  0  0  0  0  0  0  0  0
   28.3358  -22.4934  -15.9909 C   0  0  0  0  0  0  0  0  0  0  0  0
   26.8963  -22.2711  -15.7241 C   0  0  0  0  0  0  0  0  0  0  0  0
   26.0516  -22.8528  -16.4121 O   0  0  0  0  0  0  0  0  0  0  0  0
   25.2159  -20.9590   -7.7872 N   0  0  0  0  0  0  0  0  0  0  0  0
   24.1719  -20.9409   -8.7235 C   0  0  0  0  0  0  0  0  0  0  0  0
   22.9336  -20.9578   -8.2923 N   0  0  0  0  0  0  0  0  0  0  0  0
   24.4331  -20.9048  -10.1215 N   0  0  0  0  0  0  0  0  0  0  0  0
   25.8048  -20.8689  -10.5433 C   0  0  0  0  0  0  0  0  0  0  0  0
   25.9665  -20.7287  -12.0285 C   0  0  0  0  0  0  0  0  0  0  0  0
   24.8631  -21.3748  -12.8110 C   0  0  0  0  0  0  0  0  0  0  0  0
   25.0625  -21.2586  -14.3045 C   0  0  2  0  0  0  0  0  0  0  0  0
   26.4569  -21.3857  -14.6732 N   0  0  0  0  0  0  0  0  0  0  0  0
   24.5723  -19.9043  -14.6953 C   0  0  0  0  0  0  0  0  0  0  0  0
   25.2271  -18.9230  -14.2702 O   0  0  0  0  0  0  0  0  0  0  0  0
   22.1367  -20.9611   -8.9622 C   0  0  0  0  0  0  0  0  0  0  0  0
   24.6926  -17.9019  -17.4574 C   0  0  2  0  0  0  0  0  0  0  0  0
   23.1823  -18.0648  -17.3347 O   0  0  0  0  0  0  0  0  0  0  0  0
   22.7390  -19.1142  -18.1612 C   0  0  2  0  0  0  0  0  0  0  0  0
   22.8830  -18.4607  -15.9312 N   0  0  0  0  0  0  0  0  0  0  0  0
   23.4248  -19.7111  -15.5067 C   0  0  0  0  0  0  0  0  0  0  0  0
   21.4404  -18.3639  -15.5691 O   0  0  0  0  0  0  0  0  0  0  0  0
   20.8865  -19.3324  -15.0190 O   0  0  0  0  0  0  0  0  0  0  0  0
  1  2  1  0
  3  4  2  0
  3  2  1  0
  5  6  1  0
  6  8  1  0
  7  6  2  0
  8  9  1  0
  9 10  1  0
 10 11  1  0
 12 11  1  1
 12 13  1  0
 13  3  1  0
 14 12  1  0
 15 14  2  0
 17 16  1  6
 17 19  1  0
 18 17  1  0
 19 21  1  0
 19 20  1  1
 20 14  1  0
 21 23  1  0
 22 21  2  0
M  END
$$$$
