GRT.pdb
     RDKit          3D

 23 22  0  0  1  0  0  0  0  0999 V2000
   13.0138  -12.1532  -19.0533 N   0  0  0  0  0  0  0  0  0  0  0  0
   13.3240  -10.7422  -18.9874 C   0  0  0  0  0  0  0  0  0  0  0  0
   14.3112  -10.5206  -17.9062 C   0  0  0  0  0  0  0  0  0  0  0  0
   13.9995   -9.8363  -16.9266 O   0  0  0  0  0  0  0  0  0  0  0  0
   19.7382  -16.7601  -16.7956 N   0  0  0  0  0  0  0  0  0  0  0  0
   19.3122  -16.1659  -15.5988 C   0  0  0  0  0  0  0  0  0  0  0  0
   19.7353  -16.6601  -14.4602 N   0  0  0  0  0  0  0  0  0  0  0  0
   18.4359  -15.0452  -15.6006 N   0  0  0  0  0  0  0  0  0  0  0  0
   17.9881  -14.5505  -16.8717 C   0  0  0  0  0  0  0  0  0  0  0  0
   16.9951  -13.4314  -16.7576 C   0  0  0  0  0  0  0  0  0  0  0  0
   17.6105  -12.0723  -16.9041 C   0  0  0  0  0  0  0  0  0  0  0  0
   16.5844  -10.9629  -16.8862 C   0  0  2  0  0  0  0  0  0  0  0  0
   15.6354  -11.0894  -17.9725 N   0  0  0  0  0  0  0  0  0  0  0  0
   17.3379   -9.6837  -17.0383 C   0  0  0  0  0  0  0  0  0  0  0  0
   18.1435   -9.6141  -17.9967 O   0  0  0  0  0  0  0  0  0  0  0  0
   19.3879  -16.2828  -13.5542 C   0  0  0  0  0  0  0  0  0  0  0  0
   16.3559   -6.5695  -18.1049 C   0  0  2  0  0  0  0  0  0  0  0  0
   16.8833   -6.1980  -16.7242 O   0  0  0  0  0  0  0  0  0  0  0  0
   15.8212   -6.1225  -15.8037 C   0  0  2  0  0  0  0  0  0  0  0  0
   17.7751   -7.2998  -16.2695 N   0  0  0  0  0  0  0  0  0  0  0  0
   17.1683   -8.5867  -16.1551 C   0  0  0  0  0  0  0  0  0  0  0  0
   18.5583   -6.9780  -15.0428 O   0  0  0  0  0  0  0  0  0  0  0  0
   18.4707   -7.7266  -14.0532 O   0  0  0  0  0  0  0  0  0  0  0  0
  1  2  1  0
  3  4  2  0
  3  2  1  0
  5  6  1  0
  6  8  1  0
  7  6  2  0
  8  9  1  0
  9 10  1  0
 10 11  1  0
 12 11  1  6
 12 13  1  0
 13  3  1  0
 14 12  1  0
 15 14  2  0
 17 16  1  6
 17 19  1  0
 18 17  1  0
 19 21  1  0
 19 20  1  1
 20 14  1  0
 21 23  1  0
 22 21  2  0
M  END
$$$$
