FCK.pdb
     RDKit          3D

 27 27  0  0  1  0  0  0  0  0999 V2000
   27.1641   -8.3498  -17.4594 N   0  0  0  0  0  0  0  0  0  0  0  0
   27.1928   -9.7157  -17.0264 C   0  0  1  0  0  0  0  0  0  0  0  0
   25.7971  -10.3014  -17.0406 C   0  0  0  0  0  0  0  0  0  0  0  0
   25.0287   -9.6671  -15.9427 C   0  0  0  0  0  0  0  0  0  0  0  0
   24.0584   -8.7286  -16.2157 C   0  0  0  0  0  0  0  0  0  0  0  0
   23.3372   -8.1294  -15.1982 C   0  0  0  0  0  0  0  0  0  0  0  0
   23.5862   -8.4718  -13.8643 C   0  0  0  0  0  0  0  0  0  0  0  0
   24.5530   -9.4051  -13.6141 C   0  0  0  0  0  0  0  0  0  0  0  0
   25.2750  -10.0041  -14.6444 C   0  0  0  0  0  0  0  0  0  0  0  0
   28.1098  -10.4949  -17.9103 C   0  0  0  0  0  0  0  0  0  0  0  0
   28.1709  -10.3029  -19.1511 O   0  0  0  0  0  0  0  0  0  0  0  0
   28.9851  -11.5184  -17.3916 N   0  0  0  0  0  0  0  0  0  0  0  0
   29.7352  -12.3847  -18.2753 C   0  0  1  0  0  0  0  0  0  0  0  0
   31.2072  -12.4075  -17.9101 C   0  0  0  0  0  0  0  0  0  0  0  0
   32.0900  -13.6851  -18.8626 S   0  0  0  0  0  0  0  0  0  0  0  0
   29.1532  -13.7244  -18.3959 C   0  0  0  0  0  0  0  0  0  0  0  0
   28.6884  -14.3086  -17.3621 O   0  0  0  0  0  0  0  0  0  0  0  0
   29.0484  -14.4657  -19.5829 N   0  0  0  0  0  0  0  0  0  0  0  0
   28.4808  -15.7300  -19.8110 C   0  0  1  0  0  0  0  0  0  0  0  0
   26.9973  -15.8178  -19.8901 C   0  0  0  0  0  0  0  0  0  0  0  0
   26.4701  -17.2123  -20.1221 C   0  0  0  0  0  0  0  0  0  0  0  0
   24.9688  -17.2022  -20.2268 C   0  0  0  0  0  0  0  0  0  0  0  0
   24.3594  -18.5648  -20.4427 C   0  0  0  0  0  0  0  0  0  0  0  0
   22.9121  -18.4635  -20.5661 N   0  0  0  0  0  0  0  0  0  0  0  0
   29.0181  -16.3034  -21.0723 C   0  0  0  0  0  0  0  0  0  0  0  0
   29.6312  -15.5628  -21.8555 O   0  0  0  0  0  0  0  0  0  0  0  0
   28.8308  -17.6414  -21.3551 O   0  0  0  0  0  0  0  0  0  0  0  0
  2  1  1  6
  2 10  1  0
  2  3  1  0
  3  4  1  0
  4  5  2  0
  4  9  1  0
  5  6  1  0
  6  7  2  0
  8  7  1  0
  9  8  2  0
 10 12  1  0
 11 10  2  0
 13 12  1  0
 13 14  1  1
 13 16  1  0
 14 15  1  0
 16 18  1  0
 16 17  2  0
 18 19  1  0
 19 25  1  0
 19 20  1  6
 21 20  1  0
 22 21  1  0
 23 22  1  0
 24 23  1  0
 25 26  2  0
 25 27  1  0
M  END
$$$$
