FCK.pdb
     RDKit          3D

 27 27  0  0  1  0  0  0  0  0999 V2000
   20.7814  -10.6590  -16.1415 N   0  0  0  0  0  0  0  0  0  0  0  0
   21.0659   -9.4240  -16.8106 C   0  0  1  0  0  0  0  0  0  0  0  0
   20.2089   -9.2881  -18.0509 C   0  0  0  0  0  0  0  0  0  0  0  0
   20.7663  -10.1896  -19.0875 C   0  0  0  0  0  0  0  0  0  0  0  0
   21.8265   -9.7892  -19.8701 C   0  0  0  0  0  0  0  0  0  0  0  0
   22.3526  -10.6222  -20.8415 C   0  0  0  0  0  0  0  0  0  0  0  0
   21.8095  -11.8959  -21.0445 C   0  0  0  0  0  0  0  0  0  0  0  0
   20.7578  -12.2748  -20.2579 C   0  0  0  0  0  0  0  0  0  0  0  0
   20.2336  -11.4299  -19.2816 C   0  0  0  0  0  0  0  0  0  0  0  0
   20.8320   -8.2877  -15.8706 C   0  0  0  0  0  0  0  0  0  0  0  0
   19.9927   -8.3500  -14.9370 O   0  0  0  0  0  0  0  0  0  0  0  0
   21.5586   -7.0454  -15.9771 N   0  0  0  0  0  0  0  0  0  0  0  0
   21.3249   -5.9564  -15.0532 C   0  0  1  0  0  0  0  0  0  0  0  0
   22.5914   -5.5814  -14.3076 C   0  0  0  0  0  0  0  0  0  0  0  0
   22.2891   -4.1801  -13.1834 S   0  0  0  0  0  0  0  0  0  0  0  0
   20.6646   -4.8062  -15.6771 C   0  0  0  0  0  0  0  0  0  0  0  0
   21.2318   -4.1976  -16.6436 O   0  0  0  0  0  0  0  0  0  0  0  0
   19.4175   -4.2801  -15.3066 N   0  0  0  0  0  0  0  0  0  0  0  0
   18.7318   -3.1544  -15.7917 C   0  0  1  0  0  0  0  0  0  0  0  0
   17.2499   -3.1360  -15.6560 C   0  0  0  0  0  0  0  0  0  0  0  0
   16.5405   -4.1983  -16.4589 C   0  0  0  0  0  0  0  0  0  0  0  0
   15.5679   -4.9560  -15.5958 C   0  0  0  0  0  0  0  0  0  0  0  0
   14.8087   -6.0343  -16.3275 C   0  0  0  0  0  0  0  0  0  0  0  0
   13.8305   -6.6575  -15.4472 N   0  0  0  0  0  0  0  0  0  0  0  0
   19.2444   -1.9275  -15.1281 C   0  0  0  0  0  0  0  0  0  0  0  0
   18.7057   -0.8391  -15.3792 O   0  0  0  0  0  0  0  0  0  0  0  0
   20.3042   -2.0124  -14.2478 O   0  0  0  0  0  0  0  0  0  0  0  0
  2  1  1  1
  2 10  1  0
  2  3  1  0
  3  4  1  0
  4  5  2  0
  4  9  1  0
  5  6  1  0
  6  7  2  0
  8  7  1  0
  9  8  2  0
 10 12  1  0
 11 10  2  0
 13 12  1  0
 13 14  1  6
 13 16  1  0
 14 15  1  0
 16 18  1  0
 16 17  2  0
 18 19  1  0
 19 25  1  0
 19 20  1  1
 21 20  1  0
 22 21  1  0
 23 22  1  0
 24 23  1  0
 25 26  2  0
 25 27  1  0
M  END
$$$$
