FCK.pdb
     RDKit          3D

 27 27  0  0  1  0  0  0  0  0999 V2000
   27.9690  -22.0100   -8.1816 N   0  0  0  0  0  0  0  0  0  0  0  0
   27.3857  -20.7385   -8.4931 C   0  0  1  0  0  0  0  0  0  0  0  0
   28.3591  -19.6224   -8.1803 C   0  0  0  0  0  0  0  0  0  0  0  0
   28.4895  -19.5352   -6.7060 C   0  0  0  0  0  0  0  0  0  0  0  0
   27.4555  -19.0490   -5.9370 C   0  0  0  0  0  0  0  0  0  0  0  0
   27.5680  -18.9618   -4.5608 C   0  0  0  0  0  0  0  0  0  0  0  0
   28.7457  -19.3701   -3.9246 C   0  0  0  0  0  0  0  0  0  0  0  0
   29.7603  -19.8495   -4.7050 C   0  0  0  0  0  0  0  0  0  0  0  0
   29.6392  -19.9343   -6.0906 C   0  0  0  0  0  0  0  0  0  0  0  0
   26.9896  -20.7162   -9.9326 C   0  0  0  0  0  0  0  0  0  0  0  0
   27.8308  -20.8056  -10.8623 O   0  0  0  0  0  0  0  0  0  0  0  0
   25.6122  -20.5910  -10.3447 N   0  0  0  0  0  0  0  0  0  0  0  0
   25.2182  -20.7957  -11.7220 C   0  0  1  0  0  0  0  0  0  0  0  0
   25.6268  -22.1702  -12.2164 C   0  0  0  0  0  0  0  0  0  0  0  0
   25.0675  -22.4336  -13.9301 S   0  0  0  0  0  0  0  0  0  0  0  0
   23.8044  -20.4955  -11.9652 C   0  0  0  0  0  0  0  0  0  0  0  0
   22.9147  -20.9516  -11.1735 O   0  0  0  0  0  0  0  0  0  0  0  0
   23.3036  -19.7239  -13.0250 N   0  0  0  0  0  0  0  0  0  0  0  0
   21.9823  -19.3585  -13.3307 C   0  0  1  0  0  0  0  0  0  0  0  0
   21.7505  -18.5850  -14.5808 C   0  0  0  0  0  0  0  0  0  0  0  0
   20.3122  -18.1898  -14.8078 C   0  0  0  0  0  0  0  0  0  0  0  0
   20.1828  -17.3427  -16.0450 C   0  0  0  0  0  0  0  0  0  0  0  0
   18.7620  -16.9714  -16.3888 C   0  0  0  0  0  0  0  0  0  0  0  0
   18.7337  -16.0414  -17.5088 N   0  0  0  0  0  0  0  0  0  0  0  0
   21.1282  -20.5723  -13.4056 C   0  0  0  0  0  0  0  0  0  0  0  0
   21.5149  -21.5381  -14.0807 O   0  0  0  0  0  0  0  0  0  0  0  0
   19.9257  -20.6109  -12.7292 O   0  0  0  0  0  0  0  0  0  0  0  0
  2  1  1  6
  2 10  1  0
  2  3  1  0
  3  4  1  0
  4  5  2  0
  4  9  1  0
  5  6  1  0
  6  7  2  0
  8  7  1  0
  9  8  2  0
 10 12  1  0
 11 10  2  0
 13 12  1  0
 13 14  1  1
 13 16  1  0
 14 15  1  0
 16 18  1  0
 16 17  2  0
 18 19  1  0
 19 25  1  0
 19 20  1  6
 21 20  1  0
 22 21  1  0
 23 22  1  0
 24 23  1  0
 25 26  2  0
 25 27  1  0
M  END
$$$$
