FCK.pdb
     RDKit          3D

 27 27  0  0  1  0  0  0  0  0999 V2000
   28.2997  -20.4313  -15.1760 N   0  0  0  0  0  0  0  0  0  0  0  0
   27.4195  -19.6669  -14.3424 C   0  0  1  0  0  0  0  0  0  0  0  0
   26.4960  -18.8191  -15.1906 C   0  0  0  0  0  0  0  0  0  0  0  0
   27.3162  -17.7714  -15.8445 C   0  0  0  0  0  0  0  0  0  0  0  0
   27.6159  -16.6002  -15.1846 C   0  0  0  0  0  0  0  0  0  0  0  0
   28.3788  -15.6156  -15.7868 C   0  0  0  0  0  0  0  0  0  0  0  0
   28.8613  -15.7974  -17.0878 C   0  0  0  0  0  0  0  0  0  0  0  0
   28.5530  -16.9663  -17.7260 C   0  0  0  0  0  0  0  0  0  0  0  0
   27.7840  -17.9532  -17.1126 C   0  0  0  0  0  0  0  0  0  0  0  0
   26.6425  -20.5922  -13.4652 C   0  0  0  0  0  0  0  0  0  0  0  0
   27.0304  -21.7603  -13.2103 O   0  0  0  0  0  0  0  0  0  0  0  0
   25.3954  -20.1995  -12.8542 N   0  0  0  0  0  0  0  0  0  0  0  0
   24.7226  -21.0561  -11.9015 C   0  0  1  0  0  0  0  0  0  0  0  0
   25.6345  -21.4230  -10.7464 C   0  0  0  0  0  0  0  0  0  0  0  0
   25.7421  -20.0552   -9.5479 S   0  0  0  0  0  0  0  0  0  0  0  0
   23.4290  -20.5235  -11.4644 C   0  0  0  0  0  0  0  0  0  0  0  0
   23.3325  -19.3006  -11.1159 O   0  0  0  0  0  0  0  0  0  0  0  0
   22.2309  -21.2500  -11.3856 N   0  0  0  0  0  0  0  0  0  0  0  0
   20.9518  -20.9384  -11.8750 C   0  0  1  0  0  0  0  0  0  0  0  0
   20.7143  -21.0921  -13.3361 C   0  0  0  0  0  0  0  0  0  0  0  0
   20.7463  -22.5198  -13.8228 C   0  0  0  0  0  0  0  0  0  0  0  0
   20.7165  -22.5695  -15.3267 C   0  0  0  0  0  0  0  0  0  0  0  0
   20.7508  -23.9658  -15.8955 C   0  0  0  0  0  0  0  0  0  0  0  0
   20.6819  -23.9270  -17.3495 N   0  0  0  0  0  0  0  0  0  0  0  0
   19.9311  -21.7646  -11.1793 C   0  0  0  0  0  0  0  0  0  0  0  0
   20.2984  -22.7655  -10.5460 O   0  0  0  0  0  0  0  0  0  0  0  0
   18.5983  -21.4117  -11.2450 O   0  0  0  0  0  0  0  0  0  0  0  0
  2  1  1  6
  2 10  1  0
  2  3  1  0
  3  4  1  0
  4  5  2  0
  4  9  1  0
  5  6  1  0
  6  7  2  0
  8  7  1  0
  9  8  2  0
 10 12  1  0
 11 10  2  0
 13 12  1  0
 13 14  1  1
 13 16  1  0
 14 15  1  0
 16 18  1  0
 16 17  2  0
 18 19  1  0
 19 25  1  0
 19 20  1  6
 21 20  1  0
 22 21  1  0
 23 22  1  0
 24 23  1  0
 25 26  2  0
 25 27  1  0
M  END
$$$$
