FCK.pdb
     RDKit          3D

 27 27  0  0  1  0  0  0  0  0999 V2000
   28.5225  -21.2123  -16.3949 N   0  0  0  0  0  0  0  0  0  0  0  0
   27.9573  -20.1998  -15.5528 C   0  0  1  0  0  0  0  0  0  0  0  0
   27.2121  -19.1787  -16.3855 C   0  0  0  0  0  0  0  0  0  0  0  0
   28.2124  -18.4221  -17.1760 C   0  0  0  0  0  0  0  0  0  0  0  0
   28.3652  -18.6568  -18.5245 C   0  0  0  0  0  0  0  0  0  0  0  0
   29.2972  -17.9575  -19.2706 C   0  0  0  0  0  0  0  0  0  0  0  0
   30.1059  -16.9926  -18.6594 C   0  0  0  0  0  0  0  0  0  0  0  0
   29.9392  -16.7744  -17.3204 C   0  0  0  0  0  0  0  0  0  0  0  0
   28.9983  -17.4828  -16.5759 C   0  0  0  0  0  0  0  0  0  0  0  0
   27.0519  -20.8385  -14.5519 C   0  0  0  0  0  0  0  0  0  0  0  0
   26.1622  -21.6633  -14.8807 O   0  0  0  0  0  0  0  0  0  0  0  0
   27.1445  -20.5469  -13.1415 N   0  0  0  0  0  0  0  0  0  0  0  0
   26.1189  -20.9780  -12.2160 C   0  0  1  0  0  0  0  0  0  0  0  0
   26.4633  -20.5935  -10.7897 C   0  0  0  0  0  0  0  0  0  0  0  0
   25.0731  -20.9550   -9.6691 S   0  0  0  0  0  0  0  0  0  0  0  0
   24.7727  -20.5573  -12.6145 C   0  0  0  0  0  0  0  0  0  0  0  0
   24.5531  -19.3376  -12.9151 O   0  0  0  0  0  0  0  0  0  0  0  0
   23.6488  -21.3929  -12.7045 N   0  0  0  0  0  0  0  0  0  0  0  0
   22.3313  -21.0962  -13.0902 C   0  0  1  0  0  0  0  0  0  0  0  0
   21.7132  -21.9421  -14.1472 C   0  0  0  0  0  0  0  0  0  0  0  0
   20.2866  -21.5784  -14.4772 C   0  0  0  0  0  0  0  0  0  0  0  0
   20.2410  -20.5445  -15.5699 C   0  0  0  0  0  0  0  0  0  0  0  0
   18.8505  -20.0658  -15.9043 C   0  0  0  0  0  0  0  0  0  0  0  0
   18.9040  -18.9665  -16.8577 N   0  0  0  0  0  0  0  0  0  0  0  0
   21.4345  -21.1548  -11.9067 C   0  0  0  0  0  0  0  0  0  0  0  0
   21.7136  -21.9294  -10.9793 O   0  0  0  0  0  0  0  0  0  0  0  0
   20.3117  -20.3538  -11.8533 O   0  0  0  0  0  0  0  0  0  0  0  0
  2  1  1  6
  2 10  1  0
  2  3  1  0
  3  4  1  0
  4  5  2  0
  4  9  1  0
  5  6  1  0
  6  7  2  0
  8  7  1  0
  9  8  2  0
 10 12  1  0
 11 10  2  0
 13 12  1  0
 13 14  1  1
 13 16  1  0
 14 15  1  0
 16 18  1  0
 16 17  2  0
 18 19  1  0
 19 25  1  0
 19 20  1  6
 21 20  1  0
 22 21  1  0
 23 22  1  0
 24 23  1  0
 25 26  2  0
 25 27  1  0
M  END
$$$$
