FCK.pdb
     RDKit          3D

 27 27  0  0  1  0  0  0  0  0999 V2000
   21.9103  -21.3032  -13.7719 N   0  0  0  0  0  0  0  0  0  0  0  0
   21.1519  -20.7066  -12.7123 C   0  0  1  0  0  0  0  0  0  0  0  0
   19.7236  -20.4720  -13.1552 C   0  0  0  0  0  0  0  0  0  0  0  0
   19.7500  -19.4951  -14.2701 C   0  0  0  0  0  0  0  0  0  0  0  0
   19.4512  -19.8884  -15.5558 C   0  0  0  0  0  0  0  0  0  0  0  0
   19.4749  -18.9849  -16.6033 C   0  0  0  0  0  0  0  0  0  0  0  0
   19.8063  -17.6456  -16.3690 C   0  0  0  0  0  0  0  0  0  0  0  0
   20.0997  -17.2750  -15.0865 C   0  0  0  0  0  0  0  0  0  0  0  0
   20.0736  -18.1910  -14.0368 C   0  0  0  0  0  0  0  0  0  0  0  0
   21.2017  -21.5912  -11.5104 C   0  0  0  0  0  0  0  0  0  0  0  0
   21.3046  -22.8408  -11.5998 O   0  0  0  0  0  0  0  0  0  0  0  0
   21.1352  -21.0630  -10.1690 N   0  0  0  0  0  0  0  0  0  0  0  0
   21.2276  -21.9304   -9.0143 C   0  0  1  0  0  0  0  0  0  0  0  0
   22.4605  -21.6213   -8.1868 C   0  0  0  0  0  0  0  0  0  0  0  0
   22.9477  -19.8764   -8.3795 S   0  0  0  0  0  0  0  0  0  0  0  0
   19.9963  -21.9612   -8.2198 C   0  0  0  0  0  0  0  0  0  0  0  0
   19.1489  -21.0143   -8.3276 O   0  0  0  0  0  0  0  0  0  0  0  0
   19.6349  -22.9684   -7.3120 N   0  0  0  0  0  0  0  0  0  0  0  0
   18.4108  -23.6364   -7.1442 C   0  0  1  0  0  0  0  0  0  0  0  0
   18.0370  -24.6598   -8.1580 C   0  0  0  0  0  0  0  0  0  0  0  0
   16.8128  -24.3118   -8.9683 C   0  0  0  0  0  0  0  0  0  0  0  0
   16.5275  -25.3826   -9.9866 C   0  0  0  0  0  0  0  0  0  0  0  0
   15.3861  -25.0564  -10.9169 C   0  0  0  0  0  0  0  0  0  0  0  0
   15.1479  -26.1578  -11.8391 N   0  0  0  0  0  0  0  0  0  0  0  0
   18.3800  -24.3064   -5.8182 C   0  0  0  0  0  0  0  0  0  0  0  0
   19.3923  -24.9045   -5.4237 O   0  0  0  0  0  0  0  0  0  0  0  0
   17.2359  -24.2559   -5.0476 O   0  0  0  0  0  0  0  0  0  0  0  0
  2  1  1  6
  2 10  1  0
  2  3  1  0
  3  4  1  0
  4  5  2  0
  4  9  1  0
  5  6  1  0
  6  7  2  0
  8  7  1  0
  9  8  2  0
 10 12  1  0
 11 10  2  0
 13 12  1  0
 13 14  1  1
 13 16  1  0
 14 15  1  0
 16 18  1  0
 16 17  2  0
 18 19  1  0
 19 25  1  0
 19 20  1  6
 21 20  1  0
 22 21  1  0
 23 22  1  0
 24 23  1  0
 25 26  2  0
 25 27  1  0
M  END
$$$$
