FWE.pdb
     RDKit          3D

 35 37  0  0  1  0  0  0  0  0999 V2000
    7.5128  -17.4585   20.9799 N   0  0  0  0  0  0  0  0  0  0  0  0
    8.8915  -17.0882   21.0433 C   0  0  1  0  0  0  0  0  0  0  0  0
    9.2690  -16.0068   20.0786 C   0  0  0  0  0  0  0  0  0  0  0  0
    8.5642  -14.7362   20.3221 C   0  0  0  0  0  0  0  0  0  0  0  0
    7.1831  -14.7891   20.4457 C   0  0  0  0  0  0  0  0  0  0  0  0
    6.4557  -13.6403   20.6755 C   0  0  0  0  0  0  0  0  0  0  0  0
    7.1403  -12.4339   20.7798 C   0  0  0  0  0  0  0  0  0  0  0  0
    8.5141  -12.3917   20.6553 C   0  0  0  0  0  0  0  0  0  0  0  0
    9.2383  -13.5274   20.4276 C   0  0  0  0  0  0  0  0  0  0  0  0
    9.2558  -16.6298   22.4127 C   0  0  0  0  0  0  0  0  0  0  0  0
   10.0971  -15.6992   22.5929 O   0  0  0  0  0  0  0  0  0  0  0  0
    8.6923  -17.1979   23.6002 N   0  0  0  0  0  0  0  0  0  0  0  0
    9.2371  -16.9040   24.8809 C   0  0  1  0  0  0  0  0  0  0  0  0
    8.2148  -16.6908   25.9749 C   0  0  0  0  0  0  0  0  0  0  0  0
    7.3171  -15.5394   25.7131 C   0  0  0  0  0  0  0  0  0  0  0  0
    6.0026  -15.5739   25.2718 C   0  0  0  0  0  0  0  0  0  0  0  0
    5.5217  -14.3198   25.1778 N   0  0  0  0  0  0  0  0  0  0  0  0
    6.4727  -13.4385   25.5420 C   0  0  0  0  0  0  0  0  0  0  0  0
    6.5201  -12.0646   25.6260 C   0  0  0  0  0  0  0  0  0  0  0  0
    7.6388  -11.3756   26.0308 C   0  0  0  0  0  0  0  0  0  0  0  0
    8.7575  -12.1087   26.3646 C   0  0  0  0  0  0  0  0  0  0  0  0
    8.7178  -13.5026   26.2824 C   0  0  0  0  0  0  0  0  0  0  0  0
    7.5953  -14.1933   25.8770 C   0  0  0  0  0  0  0  0  0  0  0  0
   10.1970  -17.9233   25.3784 C   0  0  0  0  0  0  0  0  0  0  0  0
    9.9378  -19.1156   25.1318 O   0  0  0  0  0  0  0  0  0  0  0  0
   11.3670  -17.6324   26.1012 N   0  0  0  0  0  0  0  0  0  0  0  0
   12.5573  -18.5025   25.9485 C   0  0  1  0  0  0  0  0  0  0  0  0
   13.4285  -17.8595   24.9013 C   0  0  0  0  0  0  0  0  0  0  0  0
   14.7339  -18.5741   24.7791 C   0  0  0  0  0  0  0  0  0  0  0  0
   15.4973  -17.9006   23.6735 C   0  0  0  0  0  0  0  0  0  0  0  0
   15.2224  -18.1988   22.5029 O   0  0  0  0  0  0  0  0  0  0  0  0
   13.2236  -18.6691   27.2499 C   0  0  0  0  0  0  0  0  0  0  0  0
   12.8477  -18.0306   28.4084 O   0  0  0  0  0  0  0  0  0  0  0  0
   16.4799  -16.9738   23.9183 O   0  0  0  0  0  0  0  0  0  0  0  0
   14.2261  -19.4555   27.3395 O   0  0  0  0  0  0  0  0  0  0  0  0
  2  1  1  1
  2  3  1  0
  3  4  1  0
  4  9  2  0
  5  6  2  0
  5  4  1  0
  6  7  1  0
  7  8  2  0
  9  8  1  0
 10  2  1  0
 11 10  2  0
 12 10  1  0
 13 12  1  0
 14 15  1  0
 13 14  1  1
 15 23  1  0
 16 17  1  0
 16 15  2  0
 17 18  1  0
 18 23  2  0
 18 19  1  0
 19 20  2  0
 20 21  1  0
 22 21  2  0
 23 22  1  0
 24 13  1  0
 24 25  2  0
 26 24  1  0
 27 26  1  0
 27 28  1  6
 28 29  1  0
 29 30  1  0
 30 34  1  0
 30 31  2  0
 32 27  1  0
 33 32  1  0
 35 32  2  0
M  END
$$$$
