FWE.pdb
     RDKit          3D

 35 37  0  0  1  0  0  0  0  0999 V2000
    8.0577  -16.3602   21.2484 N   0  0  0  0  0  0  0  0  0  0  0  0
    9.3377  -15.7327   21.3483 C   0  0  1  0  0  0  0  0  0  0  0  0
    9.3069  -14.2583   21.0883 C   0  0  0  0  0  0  0  0  0  0  0  0
    8.1627  -13.8357   20.2619 C   0  0  0  0  0  0  0  0  0  0  0  0
    8.4449  -13.2808   19.0218 C   0  0  0  0  0  0  0  0  0  0  0  0
    7.4253  -12.8630   18.1927 C   0  0  0  0  0  0  0  0  0  0  0  0
    6.1135  -13.0126   18.6307 C   0  0  0  0  0  0  0  0  0  0  0  0
    5.8431  -13.5657   19.8659 C   0  0  0  0  0  0  0  0  0  0  0  0
    6.8504  -13.9806   20.6902 C   0  0  0  0  0  0  0  0  0  0  0  0
    9.9313  -15.9489   22.6969 C   0  0  0  0  0  0  0  0  0  0  0  0
   11.1370  -15.6446   22.9416 O   0  0  0  0  0  0  0  0  0  0  0  0
    9.1956  -16.5061   23.7919 N   0  0  0  0  0  0  0  0  0  0  0  0
    9.7470  -16.5368   25.1028 C   0  0  1  0  0  0  0  0  0  0  0  0
    8.7317  -16.6370   26.2193 C   0  0  0  0  0  0  0  0  0  0  0  0
    7.5970  -15.6956   26.0572 C   0  0  0  0  0  0  0  0  0  0  0  0
    6.3122  -15.9850   25.6222 C   0  0  0  0  0  0  0  0  0  0  0  0
    5.5654  -14.8648   25.6332 N   0  0  0  0  0  0  0  0  0  0  0  0
    6.3078  -13.8263   26.0623 C   0  0  0  0  0  0  0  0  0  0  0  0
    6.0542  -12.4868   26.2574 C   0  0  0  0  0  0  0  0  0  0  0  0
    7.0034  -11.6013   26.7103 C   0  0  0  0  0  0  0  0  0  0  0  0
    8.2634  -12.0929   26.9768 C   0  0  0  0  0  0  0  0  0  0  0  0
    8.5291  -13.4504   26.7819 C   0  0  0  0  0  0  0  0  0  0  0  0
    7.5764  -14.3383   26.3282 C   0  0  0  0  0  0  0  0  0  0  0  0
   10.7354  -17.6253   25.3179 C   0  0  0  0  0  0  0  0  0  0  0  0
   10.3986  -18.7740   24.9766 O   0  0  0  0  0  0  0  0  0  0  0  0
   12.0132  -17.4445   25.8753 N   0  0  0  0  0  0  0  0  0  0  0  0
   13.0811  -18.4333   25.5943 C   0  0  1  0  0  0  0  0  0  0  0  0
   14.1918  -17.6832   24.9068 C   0  0  0  0  0  0  0  0  0  0  0  0
   15.3836  -18.5595   24.7041 C   0  0  0  0  0  0  0  0  0  0  0  0
   16.4256  -17.7249   24.0136 C   0  0  0  0  0  0  0  0  0  0  0  0
   17.5193  -18.2460   23.7546 O   0  0  0  0  0  0  0  0  0  0  0  0
   13.4965  -19.0878   26.8450 C   0  0  0  0  0  0  0  0  0  0  0  0
   13.0026  -18.7789   28.0908 O   0  0  0  0  0  0  0  0  0  0  0  0
   16.2048  -16.4160   23.6640 O   0  0  0  0  0  0  0  0  0  0  0  0
   14.3779  -20.0112   26.8012 O   0  0  0  0  0  0  0  0  0  0  0  0
  2  1  1  1
  2  3  1  0
  3  4  1  0
  4  9  2  0
  5  6  2  0
  5  4  1  0
  6  7  1  0
  7  8  2  0
  9  8  1  0
 10  2  1  0
 11 10  2  0
 12 10  1  0
 13 12  1  0
 14 15  1  0
 13 14  1  1
 15 23  1  0
 16 17  1  0
 16 15  2  0
 17 18  1  0
 18 23  2  0
 18 19  1  0
 19 20  2  0
 20 21  1  0
 22 21  2  0
 23 22  1  0
 24 13  1  0
 24 25  2  0
 26 24  1  0
 27 26  1  0
 27 28  1  1
 28 29  1  0
 29 30  1  0
 30 34  1  0
 30 31  2  0
 32 27  1  0
 33 32  1  0
 35 32  2  0
M  END
$$$$
