FWE.pdb
     RDKit          3D

 35 37  0  0  1  0  0  0  0  0999 V2000
    8.3567  -16.3778   21.2651 N   0  0  0  0  0  0  0  0  0  0  0  0
    9.3258  -15.4046   21.6600 C   0  0  1  0  0  0  0  0  0  0  0  0
    8.7966  -14.0039   21.6843 C   0  0  0  0  0  0  0  0  0  0  0  0
    8.0250  -13.6512   20.4798 C   0  0  0  0  0  0  0  0  0  0  0  0
    6.7150  -14.1033   20.4092 C   0  0  0  0  0  0  0  0  0  0  0  0
    5.9312  -13.8114   19.3128 C   0  0  0  0  0  0  0  0  0  0  0  0
    6.4863  -13.0553   18.2855 C   0  0  0  0  0  0  0  0  0  0  0  0
    7.7902  -12.6103   18.3652 C   0  0  0  0  0  0  0  0  0  0  0  0
    8.5700  -12.8975   19.4495 C   0  0  0  0  0  0  0  0  0  0  0  0
    9.8686  -15.7140   23.0119 C   0  0  0  0  0  0  0  0  0  0  0  0
   10.8915  -15.1167   23.4627 O   0  0  0  0  0  0  0  0  0  0  0  0
    9.2844  -16.6903   23.8815 N   0  0  0  0  0  0  0  0  0  0  0  0
    9.6871  -16.7918   25.2420 C   0  0  1  0  0  0  0  0  0  0  0  0
    8.5527  -16.8279   26.2416 C   0  0  0  0  0  0  0  0  0  0  0  0
    7.5526  -15.7546   26.0226 C   0  0  0  0  0  0  0  0  0  0  0  0
    6.2344  -15.8961   25.6149 C   0  0  0  0  0  0  0  0  0  0  0  0
    5.6452  -14.6870   25.5545 N   0  0  0  0  0  0  0  0  0  0  0  0
    6.5264  -13.7322   25.9087 C   0  0  0  0  0  0  0  0  0  0  0  0
    6.4579  -12.3608   26.0146 C   0  0  0  0  0  0  0  0  0  0  0  0
    7.5238  -11.5837   26.4020 C   0  0  0  0  0  0  0  0  0  0  0  0
    8.7101  -12.2222   26.6943 C   0  0  0  0  0  0  0  0  0  0  0  0
    8.7881  -13.6131   26.5897 C   0  0  0  0  0  0  0  0  0  0  0  0
    7.7184  -14.3921   26.2018 C   0  0  0  0  0  0  0  0  0  0  0  0
   10.5552  -17.9628   25.5301 C   0  0  0  0  0  0  0  0  0  0  0  0
   10.0604  -19.0922   25.3593 O   0  0  0  0  0  0  0  0  0  0  0  0
   11.8851  -17.8798   25.9777 N   0  0  0  0  0  0  0  0  0  0  0  0
   12.6369  -19.1224   26.2740 C   0  0  1  0  0  0  0  0  0  0  0  0
   14.0991  -18.7748   26.1736 C   0  0  0  0  0  0  0  0  0  0  0  0
   14.6970  -19.3327   24.9243 C   0  0  0  0  0  0  0  0  0  0  0  0
   16.0522  -18.7012   24.7703 C   0  0  0  0  0  0  0  0  0  0  0  0
   17.0470  -19.3515   25.1201 O   0  0  0  0  0  0  0  0  0  0  0  0
   12.2426  -19.6415   27.5932 C   0  0  0  0  0  0  0  0  0  0  0  0
   12.4965  -20.9173   28.0394 O   0  0  0  0  0  0  0  0  0  0  0  0
   16.2202  -17.4387   24.2584 O   0  0  0  0  0  0  0  0  0  0  0  0
   11.6176  -18.8755   28.4019 O   0  0  0  0  0  0  0  0  0  0  0  0
  2  1  1  1
  2  3  1  0
  3  4  1  0
  4  9  2  0
  5  6  2  0
  5  4  1  0
  6  7  1  0
  7  8  2  0
  9  8  1  0
 10  2  1  0
 11 10  2  0
 12 10  1  0
 13 12  1  0
 14 15  1  0
 13 14  1  1
 15 23  1  0
 16 17  1  0
 16 15  2  0
 17 18  1  0
 18 23  2  0
 18 19  1  0
 19 20  2  0
 20 21  1  0
 22 21  2  0
 23 22  1  0
 24 13  1  0
 24 25  2  0
 26 24  1  0
 27 26  1  0
 27 28  1  1
 28 29  1  0
 29 30  1  0
 30 34  1  0
 30 31  2  0
 32 27  1  0
 33 32  1  0
 35 32  2  0
M  END
$$$$
