FWE.pdb
     RDKit          3D

 35 37  0  0  1  0  0  0  0  0999 V2000
    8.3819  -16.2746   21.3279 N   0  0  0  0  0  0  0  0  0  0  0  0
    9.4004  -15.3564   21.7302 C   0  0  1  0  0  0  0  0  0  0  0  0
    8.9565  -13.9262   21.7269 C   0  0  0  0  0  0  0  0  0  0  0  0
    8.1588  -13.5659   20.5418 C   0  0  0  0  0  0  0  0  0  0  0  0
    8.8057  -12.8768   19.5259 C   0  0  0  0  0  0  0  0  0  0  0  0
    8.1240  -12.5069   18.3857 C   0  0  0  0  0  0  0  0  0  0  0  0
    6.7779  -12.8420   18.2820 C   0  0  0  0  0  0  0  0  0  0  0  0
    6.1434  -13.5275   19.2980 C   0  0  0  0  0  0  0  0  0  0  0  0
    6.8152  -13.8955   20.4292 C   0  0  0  0  0  0  0  0  0  0  0  0
    9.8975  -15.6799   23.0963 C   0  0  0  0  0  0  0  0  0  0  0  0
   10.9493  -15.1442   23.5577 O   0  0  0  0  0  0  0  0  0  0  0  0
    9.2348  -16.6023   23.9685 N   0  0  0  0  0  0  0  0  0  0  0  0
    9.6623  -16.7715   25.3146 C   0  0  1  0  0  0  0  0  0  0  0  0
    8.5521  -16.7656   26.3416 C   0  0  0  0  0  0  0  0  0  0  0  0
    7.5628  -15.6828   26.1197 C   0  0  0  0  0  0  0  0  0  0  0  0
    6.2440  -15.8117   25.7101 C   0  0  0  0  0  0  0  0  0  0  0  0
    5.6668  -14.5970   25.6474 N   0  0  0  0  0  0  0  0  0  0  0  0
    6.5568  -13.6506   26.0020 C   0  0  0  0  0  0  0  0  0  0  0  0
    6.5016  -12.2784   26.1063 C   0  0  0  0  0  0  0  0  0  0  0  0
    7.5745  -11.5114   26.4944 C   0  0  0  0  0  0  0  0  0  0  0  0
    8.7540  -12.1612   26.7893 C   0  0  0  0  0  0  0  0  0  0  0  0
    8.8185  -13.5528   26.6864 C   0  0  0  0  0  0  0  0  0  0  0  0
    7.7418  -14.3218   26.2977 C   0  0  0  0  0  0  0  0  0  0  0  0
   10.4590  -18.0043   25.5458 C   0  0  0  0  0  0  0  0  0  0  0  0
    9.8299  -19.0697   25.6829 O   0  0  0  0  0  0  0  0  0  0  0  0
   11.8622  -18.0461   25.6183 N   0  0  0  0  0  0  0  0  0  0  0  0
   12.5391  -19.3134   25.9828 C   0  0  1  0  0  0  0  0  0  0  0  0
   13.9717  -19.1793   25.5371 C   0  0  0  0  0  0  0  0  0  0  0  0
   14.0511  -18.6448   24.1452 C   0  0  0  0  0  0  0  0  0  0  0  0
   15.5032  -18.6527   23.7577 C   0  0  0  0  0  0  0  0  0  0  0  0
   16.3266  -19.0931   24.5719 O   0  0  0  0  0  0  0  0  0  0  0  0
   12.3903  -19.5614   27.4256 C   0  0  0  0  0  0  0  0  0  0  0  0
   11.8579  -18.6649   28.3224 O   0  0  0  0  0  0  0  0  0  0  0  0
   15.9411  -18.1921   22.5410 O   0  0  0  0  0  0  0  0  0  0  0  0
   12.7756  -20.6796   27.9077 O   0  0  0  0  0  0  0  0  0  0  0  0
  2  1  1  1
  2  3  1  0
  3  4  1  0
  4  9  2  0
  5  6  2  0
  5  4  1  0
  6  7  1  0
  7  8  2  0
  9  8  1  0
 10  2  1  0
 11 10  2  0
 12 10  1  0
 13 12  1  0
 14 15  1  0
 13 14  1  1
 15 23  1  0
 16 17  1  0
 16 15  2  0
 17 18  1  0
 18 23  2  0
 18 19  1  0
 19 20  2  0
 20 21  1  0
 22 21  2  0
 23 22  1  0
 24 13  1  0
 24 25  2  0
 26 24  1  0
 27 26  1  0
 27 28  1  1
 28 29  1  0
 29 30  1  0
 30 34  1  0
 30 31  2  0
 32 27  1  0
 33 32  1  0
 35 32  2  0
M  END
$$$$
