FWE.pdb
     RDKit          3D

 35 37  0  0  1  0  0  0  0  0999 V2000
    7.4653  -17.6738   19.5695 N   0  0  0  0  0  0  0  0  0  0  0  0
    8.7610  -17.0790   19.6668 C   0  0  1  0  0  0  0  0  0  0  0  0
    8.9784  -15.9499   18.7074 C   0  0  0  0  0  0  0  0  0  0  0  0
    8.2411  -14.7269   19.0694 C   0  0  0  0  0  0  0  0  0  0  0  0
    6.8795  -14.8523   19.3061 C   0  0  0  0  0  0  0  0  0  0  0  0
    6.1240  -13.7513   19.6507 C   0  0  0  0  0  0  0  0  0  0  0  0
    6.7603  -12.5187   19.7543 C   0  0  0  0  0  0  0  0  0  0  0  0
    8.1150  -12.4044   19.5168 C   0  0  0  0  0  0  0  0  0  0  0  0
    8.8669  -13.4925   19.1751 C   0  0  0  0  0  0  0  0  0  0  0  0
    9.0078  -16.5661   21.0431 C   0  0  0  0  0  0  0  0  0  0  0  0
   10.1070  -16.0169   21.3532 O   0  0  0  0  0  0  0  0  0  0  0  0
    8.0388  -16.6560   22.0936 N   0  0  0  0  0  0  0  0  0  0  0  0
    8.3459  -16.2162   23.4110 C   0  0  1  0  0  0  0  0  0  0  0  0
    7.1500  -16.0449   24.3209 C   0  0  0  0  0  0  0  0  0  0  0  0
    7.4882  -15.3828   25.6044 C   0  0  0  0  0  0  0  0  0  0  0  0
    7.9918  -15.9723   26.7544 C   0  0  0  0  0  0  0  0  0  0  0  0
    8.1888  -15.0325   27.6981 N   0  0  0  0  0  0  0  0  0  0  0  0
    7.8325  -13.8249   27.2201 C   0  0  0  0  0  0  0  0  0  0  0  0
    7.8244  -12.5530   27.7482 C   0  0  0  0  0  0  0  0  0  0  0  0
    7.3979  -11.4511   27.0452 C   0  0  0  0  0  0  0  0  0  0  0  0
    6.9606  -11.6453   25.7524 C   0  0  0  0  0  0  0  0  0  0  0  0
    6.9659  -12.9322   25.2090 C   0  0  0  0  0  0  0  0  0  0  0  0
    7.3944  -14.0369   25.9143 C   0  0  0  0  0  0  0  0  0  0  0  0
    9.3145  -17.0850   24.1285 C   0  0  0  0  0  0  0  0  0  0  0  0
    9.1965  -18.3147   23.9749 O   0  0  0  0  0  0  0  0  0  0  0  0
   10.3453  -16.6142   24.9602 N   0  0  0  0  0  0  0  0  0  0  0  0
   11.4672  -17.5149   25.3170 C   0  0  1  0  0  0  0  0  0  0  0  0
   12.6985  -16.9497   24.6587 C   0  0  0  0  0  0  0  0  0  0  0  0
   13.2195  -17.8785   23.6119 C   0  0  0  0  0  0  0  0  0  0  0  0
   14.6843  -17.5806   23.4553 C   0  0  0  0  0  0  0  0  0  0  0  0
   15.0167  -16.4512   23.0694 O   0  0  0  0  0  0  0  0  0  0  0  0
   11.5759  -17.6206   26.7807 C   0  0  0  0  0  0  0  0  0  0  0  0
   11.3578  -16.5841   27.6579 O   0  0  0  0  0  0  0  0  0  0  0  0
   15.6560  -18.5121   23.7247 O   0  0  0  0  0  0  0  0  0  0  0  0
   11.8952  -18.7423   27.3016 O   0  0  0  0  0  0  0  0  0  0  0  0
  2  1  1  1
  2  3  1  0
  3  4  1  0
  4  9  2  0
  5  6  2  0
  5  4  1  0
  6  7  1  0
  7  8  2  0
  9  8  1  0
 10  2  1  0
 11 10  2  0
 12 10  1  0
 13 12  1  0
 14 15  1  0
 13 14  1  1
 15 23  1  0
 16 17  1  0
 16 15  2  0
 17 18  1  0
 18 23  2  0
 18 19  1  0
 19 20  2  0
 20 21  1  0
 22 21  2  0
 23 22  1  0
 24 13  1  0
 24 25  2  0
 26 24  1  0
 27 26  1  0
 27 28  1  1
 28 29  1  0
 29 30  1  0
 30 34  1  0
 30 31  2  0
 32 27  1  0
 33 32  1  0
 35 32  2  0
M  END
$$$$
