FWE.pdb
     RDKit          3D

 35 37  0  0  1  0  0  0  0  0999 V2000
    6.8662  -14.4234   20.3748 N   0  0  0  0  0  0  0  0  0  0  0  0
    7.8126  -15.4878   20.4917 C   0  0  1  0  0  0  0  0  0  0  0  0
    8.6988  -15.6390   19.2941 C   0  0  0  0  0  0  0  0  0  0  0  0
    7.9592  -15.9371   18.0553 C   0  0  0  0  0  0  0  0  0  0  0  0
    7.9302  -14.9509   17.0795 C   0  0  0  0  0  0  0  0  0  0  0  0
    7.2584  -15.1586   15.8932 C   0  0  0  0  0  0  0  0  0  0  0  0
    6.6147  -16.3769   15.7022 C   0  0  0  0  0  0  0  0  0  0  0  0
    6.6493  -17.3514   16.6789 C   0  0  0  0  0  0  0  0  0  0  0  0
    7.3136  -17.1495   17.8554 C   0  0  0  0  0  0  0  0  0  0  0  0
    8.6823  -15.2963   21.6854 C   0  0  0  0  0  0  0  0  0  0  0  0
    9.5549  -14.3780   21.7232 O   0  0  0  0  0  0  0  0  0  0  0  0
    8.5961  -16.1213   22.8527 N   0  0  0  0  0  0  0  0  0  0  0  0
    9.4642  -15.9138   23.9603 C   0  0  1  0  0  0  0  0  0  0  0  0
    8.8225  -16.1008   25.3170 C   0  0  0  0  0  0  0  0  0  0  0  0
    7.6219  -15.2520   25.5125 C   0  0  0  0  0  0  0  0  0  0  0  0
    6.2929  -15.6158   25.3541 C   0  0  0  0  0  0  0  0  0  0  0  0
    5.4974  -14.5699   25.6471 N   0  0  0  0  0  0  0  0  0  0  0  0
    6.2496  -13.5094   25.9983 C   0  0  0  0  0  0  0  0  0  0  0  0
    5.9610  -12.2179   26.3795 C   0  0  0  0  0  0  0  0  0  0  0  0
    6.9295  -11.2933   26.6915 C   0  0  0  0  0  0  0  0  0  0  0  0
    8.2465  -11.6931   26.6139 C   0  0  0  0  0  0  0  0  0  0  0  0
    8.5478  -13.0015   26.2283 C   0  0  0  0  0  0  0  0  0  0  0  0
    7.5761  -13.9288   25.9161 C   0  0  0  0  0  0  0  0  0  0  0  0
   10.6852  -16.7603   23.9387 C   0  0  0  0  0  0  0  0  0  0  0  0
   10.5453  -17.9504   23.6019 O   0  0  0  0  0  0  0  0  0  0  0  0
   11.9749  -16.3096   24.2697 N   0  0  0  0  0  0  0  0  0  0  0  0
   13.1238  -17.2408   24.1702 C   0  0  1  0  0  0  0  0  0  0  0  0
   14.3101  -16.4162   23.7439 C   0  0  0  0  0  0  0  0  0  0  0  0
   15.5635  -17.2273   23.7725 C   0  0  0  0  0  0  0  0  0  0  0  0
   16.6808  -16.3178   23.3445 C   0  0  0  0  0  0  0  0  0  0  0  0
   16.7801  -16.0337   22.1427 O   0  0  0  0  0  0  0  0  0  0  0  0
   13.3170  -17.9337   25.4539 C   0  0  0  0  0  0  0  0  0  0  0  0
   14.0768  -19.0673   25.6241 O   0  0  0  0  0  0  0  0  0  0  0  0
   17.5857  -15.7966   24.2355 O   0  0  0  0  0  0  0  0  0  0  0  0
   12.7497  -17.4728   26.5013 O   0  0  0  0  0  0  0  0  0  0  0  0
  2  1  1  6
  2  3  1  0
  3  4  1  0
  4  9  2  0
  5  6  2  0
  5  4  1  0
  6  7  1  0
  7  8  2  0
  9  8  1  0
 10  2  1  0
 11 10  2  0
 12 10  1  0
 13 12  1  0
 14 15  1  0
 13 14  1  1
 15 23  1  0
 16 17  1  0
 16 15  2  0
 17 18  1  0
 18 23  2  0
 18 19  1  0
 19 20  2  0
 20 21  1  0
 22 21  2  0
 23 22  1  0
 24 13  1  0
 24 25  2  0
 26 24  1  0
 27 26  1  0
 27 28  1  1
 28 29  1  0
 29 30  1  0
 30 34  1  0
 30 31  2  0
 32 27  1  0
 33 32  1  0
 35 32  2  0
M  END
$$$$
