FWE.pdb
     RDKit          3D

 35 37  0  0  1  0  0  0  0  0999 V2000
    6.0315  -18.5576   24.9440 N   0  0  0  0  0  0  0  0  0  0  0  0
    6.6048  -17.2522   25.0423 C   0  0  1  0  0  0  0  0  0  0  0  0
    6.9473  -16.8495   26.4434 C   0  0  0  0  0  0  0  0  0  0  0  0
    7.2533  -15.4148   26.5794 C   0  0  0  0  0  0  0  0  0  0  0  0
    8.5442  -15.0733   26.9568 C   0  0  0  0  0  0  0  0  0  0  0  0
    8.9045  -13.7502   27.1032 C   0  0  0  0  0  0  0  0  0  0  0  0
    7.9442  -12.7729   26.8632 C   0  0  0  0  0  0  0  0  0  0  0  0
    6.6629  -13.1227   26.4883 C   0  0  0  0  0  0  0  0  0  0  0  0
    6.3020  -14.4322   26.3424 C   0  0  0  0  0  0  0  0  0  0  0  0
    7.8426  -17.1526   24.2202 C   0  0  0  0  0  0  0  0  0  0  0  0
    8.7116  -18.0751   24.2250 O   0  0  0  0  0  0  0  0  0  0  0  0
    8.1330  -16.0283   23.3822 N   0  0  0  0  0  0  0  0  0  0  0  0
    9.4051  -15.8888   22.7611 C   0  0  1  0  0  0  0  0  0  0  0  0
    9.7151  -14.5003   22.2478 C   0  0  0  0  0  0  0  0  0  0  0  0
    8.5818  -13.8876   21.5127 C   0  0  0  0  0  0  0  0  0  0  0  0
    7.3607  -13.4785   22.0277 C   0  0  0  0  0  0  0  0  0  0  0  0
    6.6069  -12.9504   21.0451 N   0  0  0  0  0  0  0  0  0  0  0  0
    7.2823  -12.9910   19.8807 C   0  0  0  0  0  0  0  0  0  0  0  0
    6.9905  -12.5995   18.5929 C   0  0  0  0  0  0  0  0  0  0  0  0
    7.8661  -12.7551   17.5445 C   0  0  0  0  0  0  0  0  0  0  0  0
    9.0894  -13.3320   17.8110 C   0  0  0  0  0  0  0  0  0  0  0  0
    9.3935  -13.7317   19.1145 C   0  0  0  0  0  0  0  0  0  0  0  0
    8.5152  -13.5748   20.1659 C   0  0  0  0  0  0  0  0  0  0  0  0
   10.5462  -16.2968   23.6211 C   0  0  0  0  0  0  0  0  0  0  0  0
   11.6439  -16.4741   23.0617 O   0  0  0  0  0  0  0  0  0  0  0  0
   10.4682  -16.4928   25.0108 N   0  0  0  0  0  0  0  0  0  0  0  0
   11.6976  -16.8105   25.7756 C   0  0  1  0  0  0  0  0  0  0  0  0
   11.3101  -16.8122   27.2312 C   0  0  0  0  0  0  0  0  0  0  0  0
   12.4913  -17.0982   28.0988 C   0  0  0  0  0  0  0  0  0  0  0  0
   12.0040  -17.0727   29.5203 C   0  0  0  0  0  0  0  0  0  0  0  0
   11.3152  -18.0206   29.9228 O   0  0  0  0  0  0  0  0  0  0  0  0
   12.2569  -18.0901   25.3119 C   0  0  0  0  0  0  0  0  0  0  0  0
   13.5993  -18.3843   25.2613 O   0  0  0  0  0  0  0  0  0  0  0  0
   12.2962  -16.0420   30.3785 O   0  0  0  0  0  0  0  0  0  0  0  0
   11.4628  -19.0112   24.9213 O   0  0  0  0  0  0  0  0  0  0  0  0
  2  1  1  1
  2  3  1  0
  3  4  1  0
  4  9  2  0
  5  6  2  0
  5  4  1  0
  6  7  1  0
  7  8  2  0
  9  8  1  0
 10  2  1  0
 11 10  2  0
 12 10  1  0
 13 12  1  0
 14 15  1  0
 13 14  1  1
 15 23  1  0
 16 17  1  0
 16 15  2  0
 17 18  1  0
 18 23  2  0
 18 19  1  0
 19 20  2  0
 20 21  1  0
 22 21  2  0
 23 22  1  0
 24 13  1  0
 24 25  2  0
 26 24  1  0
 27 26  1  0
 27 28  1  1
 28 29  1  0
 29 30  1  0
 30 34  1  0
 30 31  2  0
 32 27  1  0
 33 32  1  0
 35 32  2  0
M  END
$$$$
