FWE.pdb
     RDKit          3D

 35 37  0  0  1  0  0  0  0  0999 V2000
    7.8732  -18.2398   19.6553 N   0  0  0  0  0  0  0  0  0  0  0  0
    8.2767  -16.8722   19.7499 C   0  0  1  0  0  0  0  0  0  0  0  0
    7.2218  -15.9022   19.3152 C   0  0  0  0  0  0  0  0  0  0  0  0
    7.6464  -14.4950   19.4163 C   0  0  0  0  0  0  0  0  0  0  0  0
    7.1403  -13.7530   20.4740 C   0  0  0  0  0  0  0  0  0  0  0  0
    7.4939  -12.4297   20.6339 C   0  0  0  0  0  0  0  0  0  0  0  0
    8.3670  -11.8623   19.7116 C   0  0  0  0  0  0  0  0  0  0  0  0
    8.8648  -12.6087   18.6629 C   0  0  0  0  0  0  0  0  0  0  0  0
    8.5169  -13.9198   18.5010 C   0  0  0  0  0  0  0  0  0  0  0  0
    8.6687  -16.5296   21.1453 C   0  0  0  0  0  0  0  0  0  0  0  0
    9.7938  -16.0062   21.4028 O   0  0  0  0  0  0  0  0  0  0  0  0
    7.8182  -16.7635   22.2733 N   0  0  0  0  0  0  0  0  0  0  0  0
    8.1726  -16.2893   23.5668 C   0  0  1  0  0  0  0  0  0  0  0  0
    7.0397  -16.2624   24.5684 C   0  0  0  0  0  0  0  0  0  0  0  0
    7.4128  -15.6123   25.8484 C   0  0  0  0  0  0  0  0  0  0  0  0
    8.0146  -16.1987   26.9519 C   0  0  0  0  0  0  0  0  0  0  0  0
    8.2116  -15.2717   27.9082 N   0  0  0  0  0  0  0  0  0  0  0  0
    7.7602  -14.0759   27.4839 C   0  0  0  0  0  0  0  0  0  0  0  0
    7.7099  -12.8196   28.0458 C   0  0  0  0  0  0  0  0  0  0  0  0
    7.1815  -11.7281   27.3979 C   0  0  0  0  0  0  0  0  0  0  0  0
    6.6824  -11.9167   26.1268 C   0  0  0  0  0  0  0  0  0  0  0  0
    6.7297  -13.1878   25.5493 C   0  0  0  0  0  0  0  0  0  0  0  0
    7.2604  -14.2820   26.1993 C   0  0  0  0  0  0  0  0  0  0  0  0
    9.2914  -17.0353   24.1990 C   0  0  0  0  0  0  0  0  0  0  0  0
    9.1997  -18.2764   24.2316 O   0  0  0  0  0  0  0  0  0  0  0  0
   10.4351  -16.4377   24.7564 N   0  0  0  0  0  0  0  0  0  0  0  0
   11.6470  -17.2573   24.9949 C   0  0  1  0  0  0  0  0  0  0  0  0
   12.7641  -16.6086   24.2201 C   0  0  0  0  0  0  0  0  0  0  0  0
   14.0668  -17.2864   24.4911 C   0  0  0  0  0  0  0  0  0  0  0  0
   15.1069  -16.5740   23.6729 C   0  0  0  0  0  0  0  0  0  0  0  0
   16.2570  -17.0344   23.6541 O   0  0  0  0  0  0  0  0  0  0  0  0
   11.9082  -17.3527   26.4398 C   0  0  0  0  0  0  0  0  0  0  0  0
   12.6801  -18.3244   27.0324 O   0  0  0  0  0  0  0  0  0  0  0  0
   14.8247  -15.4403   22.9522 O   0  0  0  0  0  0  0  0  0  0  0  0
   11.3935  -16.4857   27.2238 O   0  0  0  0  0  0  0  0  0  0  0  0
  2  1  1  1
  2  3  1  0
  3  4  1  0
  4  9  2  0
  5  6  2  0
  5  4  1  0
  6  7  1  0
  7  8  2  0
  9  8  1  0
 10  2  1  0
 11 10  2  0
 12 10  1  0
 13 12  1  0
 14 15  1  0
 13 14  1  1
 15 23  1  0
 16 17  1  0
 16 15  2  0
 17 18  1  0
 18 23  2  0
 18 19  1  0
 19 20  2  0
 20 21  1  0
 22 21  2  0
 23 22  1  0
 24 13  1  0
 24 25  2  0
 26 24  1  0
 27 26  1  0
 27 28  1  6
 28 29  1  0
 29 30  1  0
 30 34  1  0
 30 31  2  0
 32 27  1  0
 33 32  1  0
 35 32  2  0
M  END
$$$$
