FPV.pdb
     RDKit          3D

 26 27  0  0  1  0  0  0  0  0999 V2000
   21.7294  -21.8333  -14.0276 N   0  0  0  0  0  0  0  0  0  0  0  0
   21.4305  -21.1168  -12.8396 C   0  0  1  0  0  0  0  0  0  0  0  0
   20.1927  -20.2711  -13.0640 C   0  0  0  0  0  0  0  0  0  0  0  0
   20.4212  -19.3656  -14.2189 C   0  0  0  0  0  0  0  0  0  0  0  0
   21.2586  -18.2738  -14.1794 C   0  0  0  0  0  0  0  0  0  0  0  0
   21.4534  -17.4371  -15.2782 C   0  0  0  0  0  0  0  0  0  0  0  0
   20.8074  -17.6790  -16.4506 C   0  0  0  0  0  0  0  0  0  0  0  0
   19.9560  -18.7700  -16.5273 C   0  0  0  0  0  0  0  0  0  0  0  0
   19.7684  -19.5931  -15.4360 C   0  0  0  0  0  0  0  0  0  0  0  0
   21.3841  -21.8751  -11.5936 C   0  0  0  0  0  0  0  0  0  0  0  0
   21.1460  -23.1313  -11.7336 O   0  0  0  0  0  0  0  0  0  0  0  0
   21.5651  -21.4067  -10.2756 N   0  0  0  0  0  0  0  0  0  0  0  0
   21.8593  -20.0913   -9.7509 C   0  0  0  0  0  0  0  0  0  0  0  0
   22.9624  -20.4202   -8.7351 C   0  0  0  0  0  0  0  0  0  0  0  0
   22.6853  -21.8428   -8.3119 C   0  0  0  0  0  0  0  0  0  0  0  0
   21.4721  -22.2542   -9.1025 C   0  0  1  0  0  0  0  0  0  0  0  0
   20.2607  -21.9627   -8.2770 C   0  0  0  0  0  0  0  0  0  0  0  0
   19.5703  -20.9134   -8.4129 O   0  0  0  0  0  0  0  0  0  0  0  0
   16.7964  -24.7123   -8.6411 C   0  0  0  0  0  0  0  0  0  0  0  0
   18.2212  -24.2357   -8.5494 C   0  0  2  0  0  0  0  0  0  0  0  0
   19.1284  -25.4209   -8.6667 C   0  0  0  0  0  0  0  0  0  0  0  0
   18.4792  -23.4193   -7.3094 C   0  0  2  0  0  0  0  0  0  0  0  0
   19.8057  -22.8589   -7.2766 N   0  0  0  0  0  0  0  0  0  0  0  0
   18.2327  -24.3009   -6.1245 C   0  0  0  0  0  0  0  0  0  0  0  0
   17.0733  -24.2042   -5.3740 O   0  0  0  0  0  0  0  0  0  0  0  0
   19.0734  -25.1681   -5.7626 O   0  0  0  0  0  0  0  0  0  0  0  0
  2 10  1  0
  2  1  1  6
  3  2  1  0
  4  3  1  0
  5  4  2  0
  6  5  1  0
  7  6  2  0
  7  8  1  0
  8  9  2  0
  9  4  1  0
 10 12  1  0
 11 10  2  0
 12 13  1  0
 12 16  1  0
 13 14  1  0
 14 15  1  0
 16 15  1  0
 17 18  2  0
 16 17  1  1
 20 19  1  1
 20 22  1  0
 21 20  1  0
 22 23  1  6
 23 17  1  0
 24 22  1  0
 25 24  1  0
 26 24  2  0
M  END
$$$$
