FPV.pdb
     RDKit          3D

 26 27  0  0  1  0  0  0  0  0999 V2000
   24.5198  -18.6868  -17.7428 N   0  0  0  0  0  0  0  0  0  0  0  0
   25.0422  -18.5437  -16.4311 C   0  0  1  0  0  0  0  0  0  0  0  0
   24.0030  -17.8809  -15.5488 C   0  0  0  0  0  0  0  0  0  0  0  0
   24.0206  -16.4152  -15.7882 C   0  0  0  0  0  0  0  0  0  0  0  0
   23.1417  -15.7677  -16.6268 C   0  0  0  0  0  0  0  0  0  0  0  0
   23.1816  -14.3894  -16.8364 C   0  0  0  0  0  0  0  0  0  0  0  0
   24.1115  -13.6237  -16.2044 C   0  0  0  0  0  0  0  0  0  0  0  0
   25.0131  -14.2416  -15.3522 C   0  0  0  0  0  0  0  0  0  0  0  0
   24.9673  -15.6057  -15.1499 C   0  0  0  0  0  0  0  0  0  0  0  0
   25.6424  -19.7236  -15.8166 C   0  0  0  0  0  0  0  0  0  0  0  0
   25.3827  -20.8342  -16.4111 O   0  0  0  0  0  0  0  0  0  0  0  0
   26.4589  -19.7941  -14.6688 N   0  0  0  0  0  0  0  0  0  0  0  0
   26.8762  -18.7870  -13.7181 C   0  0  0  0  0  0  0  0  0  0  0  0
   28.3742  -19.1004  -13.5968 C   0  0  0  0  0  0  0  0  0  0  0  0
   28.4862  -20.5742  -13.9053 C   0  0  0  0  0  0  0  0  0  0  0  0
   27.0778  -21.0182  -14.1978 C   0  0  1  0  0  0  0  0  0  0  0  0
   26.4746  -21.5142  -12.9234 C   0  0  0  0  0  0  0  0  0  0  0  0
   27.0185  -22.3966  -12.2012 O   0  0  0  0  0  0  0  0  0  0  0  0
   25.5776  -19.4687   -9.7545 C   0  0  0  0  0  0  0  0  0  0  0  0
   25.6466  -20.9485  -10.0209 C   0  0  2  0  0  0  0  0  0  0  0  0
   27.0764  -21.3235  -10.2586 C   0  0  0  0  0  0  0  0  0  0  0  0
   24.7333  -21.3779  -11.1400 C   0  0  2  0  0  0  0  0  0  0  0  0
   25.2372  -21.0178  -12.4404 N   0  0  0  0  0  0  0  0  0  0  0  0
   23.3891  -20.7673  -10.8903 C   0  0  0  0  0  0  0  0  0  0  0  0
   22.8409  -19.8356  -11.7553 O   0  0  0  0  0  0  0  0  0  0  0  0
   22.7019  -21.0783   -9.8799 O   0  0  0  0  0  0  0  0  0  0  0  0
  2 10  1  0
  2  1  1  6
  3  2  1  0
  4  3  1  0
  5  4  2  0
  6  5  1  0
  7  6  2  0
  7  8  1  0
  8  9  2  0
  9  4  1  0
 10 12  1  0
 11 10  2  0
 12 13  1  0
 12 16  1  0
 13 14  1  0
 14 15  1  0
 16 15  1  0
 17 18  2  0
 16 17  1  1
 20 19  1  6
 20 22  1  0
 21 20  1  0
 22 23  1  6
 23 17  1  0
 24 22  1  0
 25 24  1  0
 26 24  2  0
M  END
$$$$
