FPV.pdb
     RDKit          3D

 26 27  0  0  1  0  0  0  0  0999 V2000
   24.1839  -21.4505  -15.4491 N   0  0  0  0  0  0  0  0  0  0  0  0
   25.0425  -20.5347  -14.7875 C   0  0  1  0  0  0  0  0  0  0  0  0
   24.2663  -19.2777  -14.4479 C   0  0  0  0  0  0  0  0  0  0  0  0
   24.6700  -18.1881  -15.3730 C   0  0  0  0  0  0  0  0  0  0  0  0
   25.7207  -17.3320  -15.1323 C   0  0  0  0  0  0  0  0  0  0  0  0
   26.0774  -16.3143  -16.0169 C   0  0  0  0  0  0  0  0  0  0  0  0
   25.3825  -16.1314  -17.1719 C   0  0  0  0  0  0  0  0  0  0  0  0
   24.3180  -16.9749  -17.4476 C   0  0  0  0  0  0  0  0  0  0  0  0
   23.9711  -17.9794  -16.5676 C   0  0  0  0  0  0  0  0  0  0  0  0
   25.8254  -21.0414  -13.6649 C   0  0  0  0  0  0  0  0  0  0  0  0
   25.3174  -22.0612  -13.0680 O   0  0  0  0  0  0  0  0  0  0  0  0
   27.0510  -20.5575  -13.1621 N   0  0  0  0  0  0  0  0  0  0  0  0
   27.9379  -19.5121  -13.6235 C   0  0  0  0  0  0  0  0  0  0  0  0
   29.2995  -20.2128  -13.5145 C   0  0  0  0  0  0  0  0  0  0  0  0
   29.1217  -21.2326  -12.4154 C   0  0  0  0  0  0  0  0  0  0  0  0
   27.6919  -21.0790  -11.9702 C   0  0  1  0  0  0  0  0  0  0  0  0
   27.6627  -20.1115  -10.8314 C   0  0  0  0  0  0  0  0  0  0  0  0
   27.5702  -18.8617  -10.9911 O   0  0  0  0  0  0  0  0  0  0  0  0
   24.4284  -19.8446   -7.7741 C   0  0  0  0  0  0  0  0  0  0  0  0
   25.3886  -20.4133   -8.7841 C   0  0  2  0  0  0  0  0  0  0  0  0
   25.1586  -21.8895   -8.8814 C   0  0  0  0  0  0  0  0  0  0  0  0
   26.8222  -20.0612   -8.4814 C   0  0  2  0  0  0  0  0  0  0  0  0
   27.7383  -20.5435   -9.4829 N   0  0  0  0  0  0  0  0  0  0  0  0
   27.1521  -20.6171   -7.1309 C   0  0  0  0  0  0  0  0  0  0  0  0
   27.8025  -21.8303   -6.9822 O   0  0  0  0  0  0  0  0  0  0  0  0
   26.8498  -20.0009   -6.0732 O   0  0  0  0  0  0  0  0  0  0  0  0
  2 10  1  0
  2  1  1  1
  3  2  1  0
  4  3  1  0
  5  4  2  0
  6  5  1  0
  7  6  2  0
  7  8  1  0
  8  9  2  0
  9  4  1  0
 10 12  1  0
 11 10  2  0
 12 13  1  0
 12 16  1  0
 13 14  1  0
 14 15  1  0
 16 15  1  0
 17 18  2  0
 16 17  1  1
 20 19  1  1
 20 22  1  0
 21 20  1  0
 22 23  1  6
 23 17  1  0
 24 22  1  0
 25 24  1  0
 26 24  2  0
M  END
$$$$
