FPV.pdb
     RDKit          3D

 26 27  0  0  1  0  0  0  0  0999 V2000
   23.3102  -20.7807  -16.9491 N   0  0  0  0  0  0  0  0  0  0  0  0
   24.0466  -19.8606  -16.1586 C   0  0  1  0  0  0  0  0  0  0  0  0
   23.0992  -18.8281  -15.5804 C   0  0  0  0  0  0  0  0  0  0  0  0
   22.8455  -17.7740  -16.5954 C   0  0  0  0  0  0  0  0  0  0  0  0
   21.7334  -17.7463  -17.4062 C   0  0  0  0  0  0  0  0  0  0  0  0
   21.5204  -16.7456  -18.3542 C   0  0  0  0  0  0  0  0  0  0  0  0
   22.4255  -15.7424  -18.5112 C   0  0  0  0  0  0  0  0  0  0  0  0
   23.5576  -15.7377  -17.7118 C   0  0  0  0  0  0  0  0  0  0  0  0
   23.7614  -16.7311  -16.7762 C   0  0  0  0  0  0  0  0  0  0  0  0
   24.9619  -20.4133  -15.1653 C   0  0  0  0  0  0  0  0  0  0  0  0
   24.6426  -21.5789  -14.7251 O   0  0  0  0  0  0  0  0  0  0  0  0
   26.1347  -19.8350  -14.6369 N   0  0  0  0  0  0  0  0  0  0  0  0
   26.7895  -18.5717  -14.8972 C   0  0  0  0  0  0  0  0  0  0  0  0
   28.2515  -19.0208  -15.0308 C   0  0  0  0  0  0  0  0  0  0  0  0
   28.3507  -20.2682  -14.1860 C   0  0  0  0  0  0  0  0  0  0  0  0
   26.9650  -20.4759  -13.6354 C   0  0  1  0  0  0  0  0  0  0  0  0
   26.8887  -19.7980  -12.3055 C   0  0  0  0  0  0  0  0  0  0  0  0
   26.8500  -18.5422  -12.1734 O   0  0  0  0  0  0  0  0  0  0  0  0
   24.8310  -22.0425   -9.4549 C   0  0  0  0  0  0  0  0  0  0  0  0
   24.8365  -20.5568   -9.6963 C   0  0  2  0  0  0  0  0  0  0  0  0
   23.9109  -20.2556  -10.8338 C   0  0  0  0  0  0  0  0  0  0  0  0
   26.2248  -20.0106   -9.9085 C   0  0  2  0  0  0  0  0  0  0  0  0
   26.8548  -20.5336  -11.0936 N   0  0  0  0  0  0  0  0  0  0  0  0
   27.0285  -20.3214   -8.6841 C   0  0  0  0  0  0  0  0  0  0  0  0
   26.8683  -19.6087   -7.5080 O   0  0  0  0  0  0  0  0  0  0  0  0
   27.8849  -21.2468   -8.6758 O   0  0  0  0  0  0  0  0  0  0  0  0
  2 10  1  0
  2  1  1  1
  3  2  1  0
  4  3  1  0
  5  4  2  0
  6  5  1  0
  7  6  2  0
  7  8  1  0
  8  9  2  0
  9  4  1  0
 10 12  1  0
 11 10  2  0
 12 13  1  0
 12 16  1  0
 13 14  1  0
 14 15  1  0
 16 15  1  0
 17 18  2  0
 16 17  1  1
 20 19  1  6
 20 22  1  0
 21 20  1  0
 22 23  1  6
 23 17  1  0
 24 22  1  0
 25 24  1  0
 26 24  2  0
M  END
$$$$
