FPV.pdb
     RDKit          3D

 26 27  0  0  1  0  0  0  0  0999 V2000
   22.3361  -20.9750  -13.8488 N   0  0  0  0  0  0  0  0  0  0  0  0
   21.5170  -20.6215  -12.7453 C   0  0  1  0  0  0  0  0  0  0  0  0
   20.1407  -20.2336  -13.2482 C   0  0  0  0  0  0  0  0  0  0  0  0
   20.0276  -18.7529  -13.2720 C   0  0  0  0  0  0  0  0  0  0  0  0
   19.4143  -18.0178  -12.2828 C   0  0  0  0  0  0  0  0  0  0  0  0
   19.3189  -16.6272  -12.3309 C   0  0  0  0  0  0  0  0  0  0  0  0
   19.8409  -15.9373  -13.3806 C   0  0  0  0  0  0  0  0  0  0  0  0
   20.4661  -16.6445  -14.3955 C   0  0  0  0  0  0  0  0  0  0  0  0
   20.5565  -18.0202  -14.3409 C   0  0  0  0  0  0  0  0  0  0  0  0
   21.4716  -21.5498  -11.6200 C   0  0  0  0  0  0  0  0  0  0  0  0
   21.5759  -22.7915  -11.9389 O   0  0  0  0  0  0  0  0  0  0  0  0
   21.3291  -21.2570  -10.2478 N   0  0  0  0  0  0  0  0  0  0  0  0
   21.1609  -20.0065   -9.5404 C   0  0  0  0  0  0  0  0  0  0  0  0
   22.1620  -20.1831   -8.3899 C   0  0  0  0  0  0  0  0  0  0  0  0
   22.2472  -21.6756   -8.1782 C   0  0  0  0  0  0  0  0  0  0  0  0
   21.3220  -22.2676   -9.2077 C   0  0  1  0  0  0  0  0  0  0  0  0
   19.9766  -22.4363   -8.5789 C   0  0  0  0  0  0  0  0  0  0  0  0
   19.1205  -21.5088   -8.5238 O   0  0  0  0  0  0  0  0  0  0  0  0
   18.2388  -26.3600   -8.0781 C   0  0  0  0  0  0  0  0  0  0  0  0
   17.5698  -25.0393   -8.3496 C   0  0  2  0  0  0  0  0  0  0  0  0
   17.5393  -24.8161   -9.8296 C   0  0  0  0  0  0  0  0  0  0  0  0
   18.2098  -23.9013   -7.5973 C   0  0  2  0  0  0  0  0  0  0  0  0
   19.5732  -23.6651   -7.9974 N   0  0  0  0  0  0  0  0  0  0  0  0
   18.1192  -24.2136   -6.1357 C   0  0  0  0  0  0  0  0  0  0  0  0
   16.9547  -24.0028   -5.4172 O   0  0  0  0  0  0  0  0  0  0  0  0
   19.1023  -24.6821   -5.5002 O   0  0  0  0  0  0  0  0  0  0  0  0
  2 10  1  0
  2  1  1  6
  3  2  1  0
  4  3  1  0
  5  4  2  0
  6  5  1  0
  7  6  2  0
  7  8  1  0
  8  9  2  0
  9  4  1  0
 10 12  1  0
 11 10  2  0
 12 13  1  0
 12 16  1  0
 13 14  1  0
 14 15  1  0
 16 15  1  0
 17 18  2  0
 16 17  1  1
 20 19  1  6
 20 22  1  0
 21 20  1  0
 22 23  1  6
 23 17  1  0
 24 22  1  0
 25 24  1  0
 26 24  2  0
M  END
$$$$
