FPV.pdb
     RDKit          3D

 26 27  0  0  1  0  0  0  0  0999 V2000
   23.6816  -20.8067  -17.2499 N   0  0  0  0  0  0  0  0  0  0  0  0
   24.3857  -19.8946  -16.4216 C   0  0  1  0  0  0  0  0  0  0  0  0
   23.4404  -18.8006  -15.9663 C   0  0  0  0  0  0  0  0  0  0  0  0
   23.1830  -17.8737  -17.0978 C   0  0  0  0  0  0  0  0  0  0  0  0
   24.1711  -17.1700  -17.7486 C   0  0  0  0  0  0  0  0  0  0  0  0
   23.9019  -16.3030  -18.8074 C   0  0  0  0  0  0  0  0  0  0  0  0
   22.6253  -16.1211  -19.2405 C   0  0  0  0  0  0  0  0  0  0  0  0
   21.6043  -16.8134  -18.6088 C   0  0  0  0  0  0  0  0  0  0  0  0
   21.8785  -17.6694  -17.5620 C   0  0  0  0  0  0  0  0  0  0  0  0
   25.1773  -20.4540  -15.3306 C   0  0  0  0  0  0  0  0  0  0  0  0
   24.7770  -21.5996  -14.9043 O   0  0  0  0  0  0  0  0  0  0  0  0
   26.3091  -19.9012  -14.6963 N   0  0  0  0  0  0  0  0  0  0  0  0
   27.0270  -18.6637  -14.9103 C   0  0  0  0  0  0  0  0  0  0  0  0
   28.4798  -19.1595  -14.8881 C   0  0  0  0  0  0  0  0  0  0  0  0
   28.4535  -20.3923  -14.0167 C   0  0  0  0  0  0  0  0  0  0  0  0
   27.0136  -20.5468  -13.6055 C   0  0  1  0  0  0  0  0  0  0  0  0
   26.8260  -19.8406  -12.3016 C   0  0  0  0  0  0  0  0  0  0  0  0
   26.7257  -18.5848  -12.2063 O   0  0  0  0  0  0  0  0  0  0  0  0
   24.6069  -21.9245   -9.4649 C   0  0  0  0  0  0  0  0  0  0  0  0
   24.6974  -20.4455   -9.7290 C   0  0  2  0  0  0  0  0  0  0  0  0
   23.8194  -20.1154  -10.8959 C   0  0  0  0  0  0  0  0  0  0  0  0
   26.1177  -19.9765   -9.9118 C   0  0  2  0  0  0  0  0  0  0  0  0
   26.7482  -20.5470  -11.0745 N   0  0  0  0  0  0  0  0  0  0  0  0
   26.8729  -20.3144   -8.6638 C   0  0  0  0  0  0  0  0  0  0  0  0
   26.6924  -19.6044   -7.4891 O   0  0  0  0  0  0  0  0  0  0  0  0
   27.7050  -21.2612   -8.6336 O   0  0  0  0  0  0  0  0  0  0  0  0
  2 10  1  0
  2  1  1  1
  3  2  1  0
  4  3  1  0
  5  4  2  0
  6  5  1  0
  7  6  2  0
  7  8  1  0
  8  9  2  0
  9  4  1  0
 10 12  1  0
 11 10  2  0
 12 13  1  0
 12 16  1  0
 13 14  1  0
 14 15  1  0
 16 15  1  0
 17 18  2  0
 16 17  1  1
 20 19  1  6
 20 22  1  0
 21 20  1  0
 22 23  1  6
 23 17  1  0
 24 22  1  0
 25 24  1  0
 26 24  2  0
M  END
$$$$
