FPV.pdb
     RDKit          3D

 26 27  0  0  1  0  0  0  0  0999 V2000
   15.7554   -5.2441  -13.5965 N   0  0  0  0  0  0  0  0  0  0  0  0
   16.8818   -5.2883  -14.4586 C   0  0  1  0  0  0  0  0  0  0  0  0
   17.8973   -4.2573  -14.0074 C   0  0  0  0  0  0  0  0  0  0  0  0
   17.4746   -2.9143  -14.4800 C   0  0  0  0  0  0  0  0  0  0  0  0
   16.6658   -2.0689  -13.7546 C   0  0  0  0  0  0  0  0  0  0  0  0
   16.2808   -0.8129  -14.2233 C   0  0  0  0  0  0  0  0  0  0  0  0
   16.7020   -0.3734  -15.4397 C   0  0  0  0  0  0  0  0  0  0  0  0
   17.5179   -1.1979  -16.1982 C   0  0  0  0  0  0  0  0  0  0  0  0
   17.8945   -2.4391  -15.7278 C   0  0  0  0  0  0  0  0  0  0  0  0
   17.4749   -6.5959  -14.7196 C   0  0  0  0  0  0  0  0  0  0  0  0
   17.1820   -7.5043  -13.8574 O   0  0  0  0  0  0  0  0  0  0  0  0
   18.3169   -6.9794  -15.7841 N   0  0  0  0  0  0  0  0  0  0  0  0
   18.8567   -6.2379  -16.9026 C   0  0  0  0  0  0  0  0  0  0  0  0
   18.5964   -7.2164  -18.0566 C   0  0  0  0  0  0  0  0  0  0  0  0
   18.6000   -8.5821  -17.4127 C   0  0  0  0  0  0  0  0  0  0  0  0
   18.8410   -8.3214  -15.9498 C   0  0  1  0  0  0  0  0  0  0  0  0
   20.3129   -8.3986  -15.7020 C   0  0  0  0  0  0  0  0  0  0  0  0
   21.0739   -7.3913  -15.7512 O   0  0  0  0  0  0  0  0  0  0  0  0
   23.8563  -10.3572  -13.0666 C   0  0  0  0  0  0  0  0  0  0  0  0
   22.4442  -10.3667  -13.5875 C   0  0  2  0  0  0  0  0  0  0  0  0
   21.9587  -11.7825  -13.6221 C   0  0  0  0  0  0  0  0  0  0  0  0
   22.3133   -9.6686  -14.9166 C   0  0  2  0  0  0  0  0  0  0  0  0
   20.9544   -9.6247  -15.3921 N   0  0  0  0  0  0  0  0  0  0  0  0
   23.2070  -10.3723  -15.8904 C   0  0  0  0  0  0  0  0  0  0  0  0
   24.5054   -9.9514  -16.1221 O   0  0  0  0  0  0  0  0  0  0  0  0
   22.8112  -11.3783  -16.5392 O   0  0  0  0  0  0  0  0  0  0  0  0
  2 10  1  0
  2  1  1  1
  3  2  1  0
  4  3  1  0
  5  4  2  0
  6  5  1  0
  7  6  2  0
  7  8  1  0
  8  9  2  0
  9  4  1  0
 10 12  1  0
 11 10  2  0
 12 13  1  0
 12 16  1  0
 13 14  1  0
 14 15  1  0
 16 15  1  0
 17 18  2  0
 16 17  1  6
 20 19  1  6
 20 22  1  0
 21 20  1  0
 22 23  1  6
 23 17  1  0
 24 22  1  0
 25 24  1  0
 26 24  2  0
M  END
$$$$
