FPV.pdb
     RDKit          3D

 26 27  0  0  1  0  0  0  0  0999 V2000
   27.2699  -19.8792  -10.1730 N   0  0  0  0  0  0  0  0  0  0  0  0
   27.0188  -20.0677   -8.7891 C   0  0  1  0  0  0  0  0  0  0  0  0
   26.9758  -18.7180   -8.1005 C   0  0  0  0  0  0  0  0  0  0  0  0
   27.6720  -18.8135   -6.7921 C   0  0  0  0  0  0  0  0  0  0  0  0
   27.0445  -18.6434   -5.5788 C   0  0  0  0  0  0  0  0  0  0  0  0
   27.7228  -18.7354   -4.3636 C   0  0  0  0  0  0  0  0  0  0  0  0
   29.0564  -19.0024   -4.3382 C   0  0  0  0  0  0  0  0  0  0  0  0
   29.7216  -19.1798   -5.5411 C   0  0  0  0  0  0  0  0  0  0  0  0
   29.0437  -19.0872   -6.7392 C   0  0  0  0  0  0  0  0  0  0  0  0
   25.9001  -20.9303   -8.4225 C   0  0  0  0  0  0  0  0  0  0  0  0
   25.0930  -21.2074   -9.3849 O   0  0  0  0  0  0  0  0  0  0  0  0
   25.6001  -21.4879   -7.1624 N   0  0  0  0  0  0  0  0  0  0  0  0
   26.0638  -21.1675   -5.8302 C   0  0  0  0  0  0  0  0  0  0  0  0
   26.3660  -22.5684   -5.2796 C   0  0  0  0  0  0  0  0  0  0  0  0
   25.4363  -23.4883   -6.0340 C   0  0  0  0  0  0  0  0  0  0  0  0
   24.6754  -22.5887   -6.9711 C   0  0  1  0  0  0  0  0  0  0  0  0
   23.4144  -22.1684   -6.2878 C   0  0  0  0  0  0  0  0  0  0  0  0
   23.3752  -21.2578   -5.4128 O   0  0  0  0  0  0  0  0  0  0  0  0
   21.2972  -21.1392   -8.9369 C   0  0  0  0  0  0  0  0  0  0  0  0
   20.3764  -21.8802   -8.0050 C   0  0  2  0  0  0  0  0  0  0  0  0
   19.0377  -21.2103   -8.0257 C   0  0  0  0  0  0  0  0  0  0  0  0
   20.9446  -22.0138   -6.6157 C   0  0  2  0  0  0  0  0  0  0  0  0
   22.1671  -22.7747   -6.5839 N   0  0  0  0  0  0  0  0  0  0  0  0
   19.8932  -22.6389   -5.7520 C   0  0  0  0  0  0  0  0  0  0  0  0
   18.9822  -21.8729   -5.0448 O   0  0  0  0  0  0  0  0  0  0  0  0
   19.7961  -23.8905   -5.6345 O   0  0  0  0  0  0  0  0  0  0  0  0
  2 10  1  0
  2  1  1  6
  3  2  1  0
  4  3  1  0
  5  4  2  0
  6  5  1  0
  7  6  2  0
  7  8  1  0
  8  9  2  0
  9  4  1  0
 10 12  1  0
 11 10  2  0
 12 13  1  0
 12 16  1  0
 13 14  1  0
 14 15  1  0
 16 15  1  0
 17 18  2  0
 16 17  1  1
 20 19  1  6
 20 22  1  0
 21 20  1  0
 22 23  1  6
 23 17  1  0
 24 22  1  0
 25 24  1  0
 26 24  2  0
M  END
$$$$
