FPV.pdb
     RDKit          3D

 26 27  0  0  1  0  0  0  0  0999 V2000
   23.6736  -18.3729  -16.4990 N   0  0  0  0  0  0  0  0  0  0  0  0
   24.8486  -18.2316  -15.7159 C   0  0  1  0  0  0  0  0  0  0  0  0
   24.8963  -16.8328  -15.1340 C   0  0  0  0  0  0  0  0  0  0  0  0
   25.8021  -15.9910  -15.9566 C   0  0  0  0  0  0  0  0  0  0  0  0
   27.1729  -16.1167  -15.9548 C   0  0  0  0  0  0  0  0  0  0  0  0
   28.0016  -15.3107  -16.7352 C   0  0  0  0  0  0  0  0  0  0  0  0
   27.4694  -14.3531  -17.5415 C   0  0  0  0  0  0  0  0  0  0  0  0
   26.0924  -14.1979  -17.5692 C   0  0  0  0  0  0  0  0  0  0  0  0
   25.2792  -14.9989  -16.7942 C   0  0  0  0  0  0  0  0  0  0  0  0
   25.1239  -19.2695  -14.7275 C   0  0  0  0  0  0  0  0  0  0  0  0
   24.0816  -19.8590  -14.2579 O   0  0  0  0  0  0  0  0  0  0  0  0
   26.3727  -19.6982  -14.2317 N   0  0  0  0  0  0  0  0  0  0  0  0
   27.7231  -19.2615  -14.5108 C   0  0  0  0  0  0  0  0  0  0  0  0
   28.4377  -20.6092  -14.6837 C   0  0  0  0  0  0  0  0  0  0  0  0
   27.6435  -21.5779  -13.8408 C   0  0  0  0  0  0  0  0  0  0  0  0
   26.5273  -20.7568  -13.2526 C   0  0  1  0  0  0  0  0  0  0  0  0
   26.9785  -20.2478  -11.9217 C   0  0  0  0  0  0  0  0  0  0  0  0
   27.7597  -19.2638  -11.7889 O   0  0  0  0  0  0  0  0  0  0  0  0
   25.1683  -19.4315   -7.4769 C   0  0  0  0  0  0  0  0  0  0  0  0
   25.2130  -20.2481   -8.7406 C   0  0  2  0  0  0  0  0  0  0  0  0
   24.8781  -21.6676   -8.4025 C   0  0  0  0  0  0  0  0  0  0  0  0
   26.5241  -20.1122   -9.4709 C   0  0  2  0  0  0  0  0  0  0  0  0
   26.5513  -20.8469  -10.7095 N   0  0  0  0  0  0  0  0  0  0  0  0
   27.6099  -20.5671   -8.5456 C   0  0  0  0  0  0  0  0  0  0  0  0
   28.1014  -19.7493   -7.5425 O   0  0  0  0  0  0  0  0  0  0  0  0
   28.1205  -21.7158   -8.6439 O   0  0  0  0  0  0  0  0  0  0  0  0
  2 10  1  0
  2  1  1  1
  3  2  1  0
  4  3  1  0
  5  4  2  0
  6  5  1  0
  7  6  2  0
  7  8  1  0
  8  9  2  0
  9  4  1  0
 10 12  1  0
 11 10  2  0
 12 13  1  0
 12 16  1  0
 13 14  1  0
 14 15  1  0
 16 15  1  0
 17 18  2  0
 16 17  1  1
 20 19  1  1
 20 22  1  0
 21 20  1  0
 22 23  1  6
 23 17  1  0
 24 22  1  0
 25 24  1  0
 26 24  2  0
M  END
$$$$
