FPV.pdb
     RDKit          3D

 26 27  0  0  1  0  0  0  0  0999 V2000
   19.2168   -3.2865  -15.6900 N   0  0  0  0  0  0  0  0  0  0  0  0
   19.9023   -4.3049  -14.9782 C   0  0  1  0  0  0  0  0  0  0  0  0
   20.5503   -3.7044  -13.7465 C   0  0  0  0  0  0  0  0  0  0  0  0
   21.4831   -2.6255  -14.1607 C   0  0  0  0  0  0  0  0  0  0  0  0
   21.2298   -1.2849  -13.9777 C   0  0  0  0  0  0  0  0  0  0  0  0
   22.1221   -0.2909  -14.3790 C   0  0  0  0  0  0  0  0  0  0  0  0
   23.2978   -0.6221  -14.9775 C   0  0  0  0  0  0  0  0  0  0  0  0
   23.5867   -1.9627  -15.1782 C   0  0  0  0  0  0  0  0  0  0  0  0
   22.6990   -2.9404  -14.7785 C   0  0  0  0  0  0  0  0  0  0  0  0
   19.1683   -5.5339  -14.6940 C   0  0  0  0  0  0  0  0  0  0  0  0
   17.9151   -5.4939  -14.9810 O   0  0  0  0  0  0  0  0  0  0  0  0
   19.6567   -6.7406  -14.1515 N   0  0  0  0  0  0  0  0  0  0  0  0
   20.9526   -7.1063  -13.6231 C   0  0  0  0  0  0  0  0  0  0  0  0
   21.1709   -8.4682  -14.2972 C   0  0  0  0  0  0  0  0  0  0  0  0
   19.7810   -9.0071  -14.5371 C   0  0  0  0  0  0  0  0  0  0  0  0
   18.8553   -7.9415  -14.0139 C   0  0  1  0  0  0  0  0  0  0  0  0
   18.5390   -8.2617  -12.5887 C   0  0  0  0  0  0  0  0  0  0  0  0
   19.3522   -8.0667  -11.6417 O   0  0  0  0  0  0  0  0  0  0  0  0
   14.4647   -8.4807  -11.3838 C   0  0  0  0  0  0  0  0  0  0  0  0
   15.6431   -8.0478  -10.5535 C   0  0  2  0  0  0  0  0  0  0  0  0
   15.8600   -6.5812  -10.7625 C   0  0  0  0  0  0  0  0  0  0  0  0
   16.8768   -8.8686  -10.8280 C   0  0  2  0  0  0  0  0  0  0  0  0
   17.2890   -8.8118  -12.2070 N   0  0  0  0  0  0  0  0  0  0  0  0
   16.5909  -10.2759  -10.4042 C   0  0  0  0  0  0  0  0  0  0  0  0
   16.7754  -10.6942   -9.0973 O   0  0  0  0  0  0  0  0  0  0  0  0
   16.1697  -11.1375  -11.2227 O   0  0  0  0  0  0  0  0  0  0  0  0
  2 10  1  0
  2  1  1  1
  3  2  1  0
  4  3  1  0
  5  4  2  0
  6  5  1  0
  7  6  2  0
  7  8  1  0
  8  9  2  0
  9  4  1  0
 10 12  1  0
 11 10  2  0
 12 13  1  0
 12 16  1  0
 13 14  1  0
 14 15  1  0
 16 15  1  0
 17 18  2  0
 16 17  1  1
 20 19  1  6
 20 22  1  0
 21 20  1  0
 22 23  1  6
 23 17  1  0
 24 22  1  0
 25 24  1  0
 26 24  2  0
M  END
$$$$
