GCH.pdb
     RDKit          3D

 21 21  0  0  1  0  0  0  0  0999 V2000
    5.6616  -18.7447   21.9426 N   0  0  0  0  0  0  0  0  0  0  0  0
    5.3672  -17.7433   22.9157 C   0  0  0  0  0  0  0  0  0  0  0  0
    6.5644  -16.9529   23.3120 C   0  0  0  0  0  0  0  0  0  0  0  0
    7.7062  -17.3175   22.9308 O   0  0  0  0  0  0  0  0  0  0  0  0
    6.4966  -15.7811   24.1152 N   0  0  0  0  0  0  0  0  0  0  0  0
    7.6832  -15.1476   24.6532 C   0  0  1  0  0  0  0  0  0  0  0  0
    7.2906  -13.8082   25.2629 C   0  0  0  0  0  0  0  0  0  0  0  0
    5.8619  -14.0378   26.3571 S   0  0  0  0  0  0  0  0  0  0  0  0
    8.3917  -16.0012   25.6219 C   0  0  0  0  0  0  0  0  0  0  0  0
    7.8810  -16.1790   26.7576 O   0  0  0  0  0  0  0  0  0  0  0  0
    9.6276  -16.6446   25.3566 N   0  0  0  0  0  0  0  0  0  0  0  0
   10.3412  -17.4459   26.3190 C   0  0  1  0  0  0  0  0  0  0  0  0
   10.3685  -18.8650   25.8503 C   0  0  0  0  0  0  0  0  0  0  0  0
    9.0572  -19.5302   25.9294 C   0  0  0  0  0  0  0  0  0  0  0  0
    8.0077  -19.0493   26.6840 C   0  0  0  0  0  0  0  0  0  0  0  0
    6.9554  -19.8619   26.5572 N   0  0  0  0  0  0  0  0  0  0  0  0
    7.3224  -20.8513   25.7330 C   0  0  0  0  0  0  0  0  0  0  0  0
    8.5928  -20.6465   25.3565 N   0  0  0  0  0  0  0  0  0  0  0  0
   11.6804  -16.9049   26.6282 C   0  0  0  0  0  0  0  0  0  0  0  0
   12.4083  -17.5312   27.6308 O   0  0  0  0  0  0  0  0  0  0  0  0
   12.2072  -15.9278   26.0567 O   0  0  0  0  0  0  0  0  0  0  0  0
  1  2  1  0
  3  4  2  0
  3  2  1  0
  5  3  1  0
  6  5  1  0
  6  7  1  1
  8  7  1  0
  9  6  1  0
  9 11  1  0
 10  9  2  0
 12 19  1  0
 12 11  1  0
 13 14  1  0
 12 13  1  6
 14 18  1  0
 15 14  2  0
 15 16  1  0
 16 17  1  0
 18 17  2  0
 19 20  1  0
 21 19  2  0
M  END
$$$$
