GCH.pdb
     RDKit          3D

 21 21  0  0  1  0  0  0  0  0999 V2000
    8.4442  -13.3686   16.1228 N   0  0  0  0  0  0  0  0  0  0  0  0
    7.5363  -13.7930   17.1388 C   0  0  0  0  0  0  0  0  0  0  0  0
    8.1594  -13.8352   18.4898 C   0  0  0  0  0  0  0  0  0  0  0  0
    9.4124  -13.8483   18.5982 O   0  0  0  0  0  0  0  0  0  0  0  0
    7.4076  -13.8623   19.6968 N   0  0  0  0  0  0  0  0  0  0  0  0
    8.0323  -14.0671   20.9877 C   0  0  1  0  0  0  0  0  0  0  0  0
    6.9648  -13.9712   22.0700 C   0  0  0  0  0  0  0  0  0  0  0  0
    7.7139  -14.3028   23.6887 S   0  0  0  0  0  0  0  0  0  0  0  0
    8.7734  -15.3374   21.0635 C   0  0  0  0  0  0  0  0  0  0  0  0
    8.3082  -16.3449   20.4713 O   0  0  0  0  0  0  0  0  0  0  0  0
    9.9928  -15.5032   21.7689 N   0  0  0  0  0  0  0  0  0  0  0  0
   10.7496  -16.7296   21.7917 C   0  0  1  0  0  0  0  0  0  0  0  0
   11.1161  -17.1047   20.3919 C   0  0  0  0  0  0  0  0  0  0  0  0
   12.1877  -16.2683   19.8260 C   0  0  0  0  0  0  0  0  0  0  0  0
   12.2511  -14.9010   19.9949 C   0  0  0  0  0  0  0  0  0  0  0  0
   13.3296  -14.4219   19.3697 N   0  0  0  0  0  0  0  0  0  0  0  0
   13.9512  -15.4656   18.8066 C   0  0  0  0  0  0  0  0  0  0  0  0
   13.2576  -16.5787   19.0851 N   0  0  0  0  0  0  0  0  0  0  0  0
   11.9095  -16.6655   22.7040 C   0  0  0  0  0  0  0  0  0  0  0  0
   12.1098  -15.4829   23.4031 O   0  0  0  0  0  0  0  0  0  0  0  0
   12.7230  -17.5933   22.8940 O   0  0  0  0  0  0  0  0  0  0  0  0
  1  2  1  0
  3  4  2  0
  3  2  1  0
  5  3  1  0
  6  5  1  0
  6  7  1  1
  8  7  1  0
  9  6  1  0
  9 11  1  0
 10  9  2  0
 12 19  1  0
 12 11  1  0
 13 14  1  0
 12 13  1  6
 14 18  1  0
 15 14  2  0
 15 16  1  0
 16 17  1  0
 18 17  2  0
 19 20  1  0
 21 19  2  0
M  END
$$$$
