GCH.pdb
     RDKit          3D

 21 21  0  0  1  0  0  0  0  0999 V2000
    9.9379  -16.3124   13.6856 N   0  0  0  0  0  0  0  0  0  0  0  0
   10.9873  -16.2669   14.6515 C   0  0  0  0  0  0  0  0  0  0  0  0
   10.5524  -16.7242   15.9994 C   0  0  0  0  0  0  0  0  0  0  0  0
    9.4055  -16.4242   16.4195 O   0  0  0  0  0  0  0  0  0  0  0  0
   11.3734  -17.4992   16.8645 N   0  0  0  0  0  0  0  0  0  0  0  0
   10.9010  -17.9799   18.1469 C   0  0  1  0  0  0  0  0  0  0  0  0
   11.5665  -19.3172   18.4448 C   0  0  0  0  0  0  0  0  0  0  0  0
   10.4395  -20.6663   17.9962 S   0  0  0  0  0  0  0  0  0  0  0  0
   11.1192  -17.0083   19.2318 C   0  0  0  0  0  0  0  0  0  0  0  0
   12.1559  -16.2964   19.2062 O   0  0  0  0  0  0  0  0  0  0  0  0
   10.2269  -16.8189   20.3180 N   0  0  0  0  0  0  0  0  0  0  0  0
   10.4166  -15.8347   21.3538 C   0  0  1  0  0  0  0  0  0  0  0  0
    9.1066  -15.1799   21.6526 C   0  0  0  0  0  0  0  0  0  0  0  0
    8.5904  -14.3721   20.5349 C   0  0  0  0  0  0  0  0  0  0  0  0
    9.2683  -14.2026   19.3458 C   0  0  0  0  0  0  0  0  0  0  0  0
    8.5538  -13.4231   18.5300 N   0  0  0  0  0  0  0  0  0  0  0  0
    7.4326  -13.0958   19.1845 C   0  0  0  0  0  0  0  0  0  0  0  0
    7.4593  -13.6714   20.3951 N   0  0  0  0  0  0  0  0  0  0  0  0
   11.0811  -16.3894   22.5506 C   0  0  0  0  0  0  0  0  0  0  0  0
   11.4993  -15.4927   23.5244 O   0  0  0  0  0  0  0  0  0  0  0  0
   11.2951  -17.6027   22.7530 O   0  0  0  0  0  0  0  0  0  0  0  0
  1  2  1  0
  3  4  2  0
  3  2  1  0
  5  3  1  0
  6  5  1  0
  6  7  1  1
  8  7  1  0
  9  6  1  0
  9 11  1  0
 10  9  2  0
 12 19  1  0
 12 11  1  0
 13 14  1  0
 12 13  1  1
 14 18  1  0
 15 14  2  0
 15 16  1  0
 16 17  1  0
 18 17  2  0
 19 20  1  0
 21 19  2  0
M  END
$$$$
