GCH.pdb
     RDKit          3D

 21 21  0  0  1  0  0  0  0  0999 V2000
    9.1550  -15.0340   14.5478 N   0  0  0  0  0  0  0  0  0  0  0  0
    8.2913  -15.3481   15.6396 C   0  0  0  0  0  0  0  0  0  0  0  0
    8.7810  -14.8089   16.9375 C   0  0  0  0  0  0  0  0  0  0  0  0
    9.9684  -14.4064   17.0371 O   0  0  0  0  0  0  0  0  0  0  0  0
    7.9697  -14.7180   18.1021 N   0  0  0  0  0  0  0  0  0  0  0  0
    8.4771  -14.1949   19.3542 C   0  0  1  0  0  0  0  0  0  0  0  0
    7.3029  -13.9330   20.2882 C   0  0  0  0  0  0  0  0  0  0  0  0
    7.9239  -13.3610   21.8940 S   0  0  0  0  0  0  0  0  0  0  0  0
    9.4797  -15.0786   19.9729 C   0  0  0  0  0  0  0  0  0  0  0  0
    9.2884  -16.3215   19.9463 O   0  0  0  0  0  0  0  0  0  0  0  0
   10.6622  -14.6160   20.6050 N   0  0  0  0  0  0  0  0  0  0  0  0
   11.5932  -15.4718   21.2965 C   0  0  1  0  0  0  0  0  0  0  0  0
   12.9613  -14.8752   21.2130 C   0  0  0  0  0  0  0  0  0  0  0  0
   13.5365  -14.9237   19.8584 C   0  0  0  0  0  0  0  0  0  0  0  0
   13.2771  -15.9380   18.9607 C   0  0  0  0  0  0  0  0  0  0  0  0
   13.9368  -15.7084   17.8224 N   0  0  0  0  0  0  0  0  0  0  0  0
   14.6108  -14.5630   17.9852 C   0  0  0  0  0  0  0  0  0  0  0  0
   14.3658  -14.0928   19.2167 N   0  0  0  0  0  0  0  0  0  0  0  0
   11.1692  -15.7744   22.6786 C   0  0  0  0  0  0  0  0  0  0  0  0
   11.9907  -16.5998   23.4344 O   0  0  0  0  0  0  0  0  0  0  0  0
   10.1287  -15.3447   23.2185 O   0  0  0  0  0  0  0  0  0  0  0  0
  1  2  1  0
  3  4  2  0
  3  2  1  0
  5  3  1  0
  6  5  1  0
  6  7  1  1
  8  7  1  0
  9  6  1  0
  9 11  1  0
 10  9  2  0
 12 19  1  0
 12 11  1  0
 13 14  1  0
 12 13  1  1
 14 18  1  0
 15 14  2  0
 15 16  1  0
 16 17  1  0
 18 17  2  0
 19 20  1  0
 21 19  2  0
M  END
$$$$
