GCH.pdb
     RDKit          3D

 21 21  0  0  1  0  0  0  0  0999 V2000
    7.0621  -15.0376   18.6226 N   0  0  0  0  0  0  0  0  0  0  0  0
    7.9374  -15.8129   19.4408 C   0  0  0  0  0  0  0  0  0  0  0  0
    7.4015  -16.0352   20.8114 C   0  0  0  0  0  0  0  0  0  0  0  0
    6.3597  -15.4337   21.1786 O   0  0  0  0  0  0  0  0  0  0  0  0
    8.0091  -16.9076   21.7562 N   0  0  0  0  0  0  0  0  0  0  0  0
    7.4421  -17.1338   23.0700 C   0  0  1  0  0  0  0  0  0  0  0  0
    7.1093  -18.6133   23.2125 C   0  0  0  0  0  0  0  0  0  0  0  0
    6.4104  -18.9196   24.8585 S   0  0  0  0  0  0  0  0  0  0  0  0
    8.3208  -16.6653   24.1550 C   0  0  0  0  0  0  0  0  0  0  0  0
    9.5640  -16.8116   24.0317 O   0  0  0  0  0  0  0  0  0  0  0  0
    7.8530  -16.0521   25.3454 N   0  0  0  0  0  0  0  0  0  0  0  0
    8.7090  -15.6424   26.4302 C   0  0  1  0  0  0  0  0  0  0  0  0
    7.9241  -14.7968   27.3806 C   0  0  0  0  0  0  0  0  0  0  0  0
    7.3026  -13.6249   26.7412 C   0  0  0  0  0  0  0  0  0  0  0  0
    7.6331  -13.1878   25.4756 C   0  0  0  0  0  0  0  0  0  0  0  0
    6.9066  -12.1097   25.1700 N   0  0  0  0  0  0  0  0  0  0  0  0
    6.1201  -11.8566   26.2237 C   0  0  0  0  0  0  0  0  0  0  0  0
    6.3630  -12.7746   27.1702 N   0  0  0  0  0  0  0  0  0  0  0  0
    9.3865  -16.7817   27.0817 C   0  0  0  0  0  0  0  0  0  0  0  0
   10.2220  -16.5018   28.1546 O   0  0  0  0  0  0  0  0  0  0  0  0
    9.2651  -17.9767   26.7411 O   0  0  0  0  0  0  0  0  0  0  0  0
  1  2  1  0
  3  4  2  0
  3  2  1  0
  5  3  1  0
  6  5  1  0
  6  7  1  1
  8  7  1  0
  9  6  1  0
  9 11  1  0
 10  9  2  0
 12 19  1  0
 12 11  1  0
 13 14  1  0
 12 13  1  1
 14 18  1  0
 15 14  2  0
 15 16  1  0
 16 17  1  0
 18 17  2  0
 19 20  1  0
 21 19  2  0
M  END
$$$$
