GCH.pdb
     RDKit          3D

 21 21  0  0  1  0  0  0  0  0999 V2000
    4.1930  -19.1873   21.9500 N   0  0  0  0  0  0  0  0  0  0  0  0
    4.3818  -17.8218   21.5805 C   0  0  0  0  0  0  0  0  0  0  0  0
    5.8177  -17.4423   21.4845 C   0  0  0  0  0  0  0  0  0  0  0  0
    6.7063  -18.3136   21.6666 O   0  0  0  0  0  0  0  0  0  0  0  0
    6.2595  -16.1223   21.1923 N   0  0  0  0  0  0  0  0  0  0  0  0
    7.6592  -15.7518   21.2381 C   0  0  1  0  0  0  0  0  0  0  0  0
    7.8956  -14.6064   20.2623 C   0  0  0  0  0  0  0  0  0  0  0  0
    9.6778  -14.3076   20.1015 S   0  0  0  0  0  0  0  0  0  0  0  0
    8.1114  -15.4122   22.5979 C   0  0  0  0  0  0  0  0  0  0  0  0
    7.6147  -14.4061   23.1663 O   0  0  0  0  0  0  0  0  0  0  0  0
    9.0823  -16.1533   23.3189 N   0  0  0  0  0  0  0  0  0  0  0  0
    9.4077  -15.9209   24.7037 C   0  0  1  0  0  0  0  0  0  0  0  0
    8.1683  -16.0593   25.5276 C   0  0  0  0  0  0  0  0  0  0  0  0
    7.4424  -14.7907   25.7062 C   0  0  0  0  0  0  0  0  0  0  0  0
    7.8680  -13.5923   25.1723 C   0  0  0  0  0  0  0  0  0  0  0  0
    7.0086  -12.6247   25.5017 N   0  0  0  0  0  0  0  0  0  0  0  0
    6.0439  -13.1919   26.2369 C   0  0  0  0  0  0  0  0  0  0  0  0
    6.3104  -14.5004   26.3576 N   0  0  0  0  0  0  0  0  0  0  0  0
   10.5228  -16.7668   25.1757 C   0  0  0  0  0  0  0  0  0  0  0  0
   10.9822  -16.5579   26.4690 O   0  0  0  0  0  0  0  0  0  0  0  0
   11.0832  -17.6549   24.5004 O   0  0  0  0  0  0  0  0  0  0  0  0
  1  2  1  0
  3  4  2  0
  3  2  1  0
  5  3  1  0
  6  5  1  0
  6  7  1  6
  8  7  1  0
  9  6  1  0
  9 11  1  0
 10  9  2  0
 12 19  1  0
 12 11  1  0
 13 14  1  0
 12 13  1  1
 14 18  1  0
 15 14  2  0
 15 16  1  0
 16 17  1  0
 18 17  2  0
 19 20  1  0
 21 19  2  0
M  END
$$$$
