GCH.pdb
     RDKit          3D

 21 21  0  0  1  0  0  0  0  0999 V2000
    7.3784  -13.4339   13.6813 N   0  0  0  0  0  0  0  0  0  0  0  0
    7.1106  -14.3224   14.7655 C   0  0  0  0  0  0  0  0  0  0  0  0
    7.8196  -13.9380   16.0163 C   0  0  0  0  0  0  0  0  0  0  0  0
    8.8793  -13.2638   15.9502 O   0  0  0  0  0  0  0  0  0  0  0  0
    7.3622  -14.2943   17.3151 N   0  0  0  0  0  0  0  0  0  0  0  0
    8.1316  -14.0046   18.5079 C   0  0  1  0  0  0  0  0  0  0  0  0
    7.2850  -14.3356   19.7301 C   0  0  0  0  0  0  0  0  0  0  0  0
    8.2760  -14.1051   21.2321 S   0  0  0  0  0  0  0  0  0  0  0  0
    9.4248  -14.7086   18.5331 C   0  0  0  0  0  0  0  0  0  0  0  0
    9.4785  -15.8896   18.1036 O   0  0  0  0  0  0  0  0  0  0  0  0
   10.6297  -14.1367   19.0157 N   0  0  0  0  0  0  0  0  0  0  0  0
   11.9061  -14.8058   18.9887 C   0  0  1  0  0  0  0  0  0  0  0  0
   12.9808  -13.7996   18.7305 C   0  0  0  0  0  0  0  0  0  0  0  0
   14.3298  -14.3877   18.6801 C   0  0  0  0  0  0  0  0  0  0  0  0
   14.9717  -14.9079   19.7844 C   0  0  0  0  0  0  0  0  0  0  0  0
   16.1746  -15.3662   19.4289 N   0  0  0  0  0  0  0  0  0  0  0  0
   16.3051  -15.1443   18.1150 C   0  0  0  0  0  0  0  0  0  0  0  0
   15.1882  -14.5530   17.6672 N   0  0  0  0  0  0  0  0  0  0  0  0
   12.1458  -15.6227   20.1958 C   0  0  0  0  0  0  0  0  0  0  0  0
   12.8350  -16.8169   20.0344 O   0  0  0  0  0  0  0  0  0  0  0  0
   11.7759  -15.3210   21.3494 O   0  0  0  0  0  0  0  0  0  0  0  0
  1  2  1  0
  3  4  2  0
  3  2  1  0
  5  3  1  0
  6  5  1  0
  6  7  1  1
  8  7  1  0
  9  6  1  0
  9 11  1  0
 10  9  2  0
 12 19  1  0
 12 11  1  0
 13 14  1  0
 12 13  1  1
 14 18  1  0
 15 14  2  0
 15 16  1  0
 16 17  1  0
 18 17  2  0
 19 20  1  0
 21 19  2  0
M  END
$$$$
