GCH.pdb
     RDKit          3D

 21 21  0  0  1  0  0  0  0  0999 V2000
    3.9751  -18.6827   20.8178 N   0  0  0  0  0  0  0  0  0  0  0  0
    4.2898  -17.5049   21.5597 C   0  0  0  0  0  0  0  0  0  0  0  0
    5.6581  -16.9922   21.2771 C   0  0  0  0  0  0  0  0  0  0  0  0
    6.6529  -17.7419   21.4512 O   0  0  0  0  0  0  0  0  0  0  0  0
    5.9181  -15.6740   20.8107 N   0  0  0  0  0  0  0  0  0  0  0  0
    7.2654  -15.1635   20.6590 C   0  0  1  0  0  0  0  0  0  0  0  0
    7.2129  -13.8731   19.8514 C   0  0  0  0  0  0  0  0  0  0  0  0
    8.8983  -13.3685   19.4084 S   0  0  0  0  0  0  0  0  0  0  0  0
    7.9476  -14.9718   21.9500 C   0  0  0  0  0  0  0  0  0  0  0  0
    7.5968  -14.0110   22.6821 O   0  0  0  0  0  0  0  0  0  0  0  0
    8.9874  -15.8090   22.4294 N   0  0  0  0  0  0  0  0  0  0  0  0
    9.6715  -15.6064   23.6817 C   0  0  1  0  0  0  0  0  0  0  0  0
    8.7739  -16.0218   24.8025 C   0  0  0  0  0  0  0  0  0  0  0  0
    7.8672  -14.9514   25.2503 C   0  0  0  0  0  0  0  0  0  0  0  0
    7.9412  -13.6534   24.7900 C   0  0  0  0  0  0  0  0  0  0  0  0
    6.9936  -12.9160   25.3746 N   0  0  0  0  0  0  0  0  0  0  0  0
    6.3195  -13.7275   26.1991 C   0  0  0  0  0  0  0  0  0  0  0  0
    6.8510  -14.9560   26.1205 N   0  0  0  0  0  0  0  0  0  0  0  0
   10.9957  -16.2595   23.7186 C   0  0  0  0  0  0  0  0  0  0  0  0
   11.8697  -15.8789   24.7280 O   0  0  0  0  0  0  0  0  0  0  0  0
   11.3887  -17.1273   22.9116 O   0  0  0  0  0  0  0  0  0  0  0  0
  1  2  1  0
  3  4  2  0
  3  2  1  0
  5  3  1  0
  6  5  1  0
  6  7  1  1
  8  7  1  0
  9  6  1  0
  9 11  1  0
 10  9  2  0
 12 19  1  0
 12 11  1  0
 13 14  1  0
 12 13  1  1
 14 18  1  0
 15 14  2  0
 15 16  1  0
 16 17  1  0
 18 17  2  0
 19 20  1  0
 21 19  2  0
M  END
$$$$
