GCH.pdb
     RDKit          3D

 21 21  0  0  1  0  0  0  0  0999 V2000
    8.6422  -15.7761   14.1121 N   0  0  0  0  0  0  0  0  0  0  0  0
    8.5139  -16.2614   15.4480 C   0  0  0  0  0  0  0  0  0  0  0  0
    9.2427  -15.4242   16.4395 C   0  0  0  0  0  0  0  0  0  0  0  0
   10.3914  -14.9915   16.1654 O   0  0  0  0  0  0  0  0  0  0  0  0
    8.7079  -15.0738   17.7099 N   0  0  0  0  0  0  0  0  0  0  0  0
    9.4649  -14.3067   18.6781 C   0  0  1  0  0  0  0  0  0  0  0  0
    8.5246  -13.8512   19.7864 C   0  0  0  0  0  0  0  0  0  0  0  0
    7.2344  -12.7862   19.0846 S   0  0  0  0  0  0  0  0  0  0  0  0
   10.6188  -15.0494   19.2126 C   0  0  0  0  0  0  0  0  0  0  0  0
   10.4813  -16.2716   19.4762 O   0  0  0  0  0  0  0  0  0  0  0  0
   11.8915  -14.4714   19.4531 N   0  0  0  0  0  0  0  0  0  0  0  0
   13.0093  -15.1893   20.0122 C   0  0  1  0  0  0  0  0  0  0  0  0
   14.2735  -14.4671   19.6737 C   0  0  0  0  0  0  0  0  0  0  0  0
   14.7104  -14.6774   18.2833 C   0  0  0  0  0  0  0  0  0  0  0  0
   14.1232  -15.5921   17.4344 C   0  0  0  0  0  0  0  0  0  0  0  0
   14.7316  -15.5554   16.2461 N   0  0  0  0  0  0  0  0  0  0  0  0
   15.6962  -14.6306   16.3290 C   0  0  0  0  0  0  0  0  0  0  0  0
   15.6795  -14.1030   17.5615 N   0  0  0  0  0  0  0  0  0  0  0  0
   12.8524  -15.4501   21.4575 C   0  0  0  0  0  0  0  0  0  0  0  0
   13.8469  -16.1862   22.0872 O   0  0  0  0  0  0  0  0  0  0  0  0
   11.8939  -15.0592   22.1556 O   0  0  0  0  0  0  0  0  0  0  0  0
  1  2  1  0
  3  4  2  0
  3  2  1  0
  5  3  1  0
  6  5  1  0
  6  7  1  1
  8  7  1  0
  9  6  1  0
  9 11  1  0
 10  9  2  0
 12 19  1  0
 12 11  1  0
 13 14  1  0
 12 13  1  1
 14 18  1  0
 15 14  2  0
 15 16  1  0
 16 17  1  0
 18 17  2  0
 19 20  1  0
 21 19  2  0
M  END
$$$$
