MEE.pdb
     RDKit          3D

 27 26  0  0  1  0  0  0  0  0999 V2000
   29.8635  -10.5729  -17.8397 C   0  0  0  0  0  0  0  0  0  0  0  0
   29.5000  -11.6982  -16.4668 S   0  0  0  0  0  0  0  0  0  0  0  0
   28.3727  -13.0228  -17.0465 C   0  0  0  0  0  0  0  0  0  0  0  0
   27.0944  -12.3712  -17.5205 C   0  0  0  0  0  0  0  0  0  0  0  0
   26.2988  -11.7262  -16.4495 C   0  0  2  0  0  0  0  0  0  0  0  0
   25.7944  -12.7665  -15.5386 N   0  0  0  0  0  0  0  0  0  0  0  0
   25.1622  -10.9081  -16.8706 C   0  0  0  0  0  0  0  0  0  0  0  0
   25.3571   -9.8390  -17.5579 O   0  0  0  0  0  0  0  0  0  0  0  0
   23.7882  -11.1608  -16.6006 N   0  0  0  0  0  0  0  0  0  0  0  0
   22.7502  -10.2035  -17.0118 C   0  0  1  0  0  0  0  0  0  0  0  0
   21.4667  -10.9650  -16.9348 C   0  0  0  0  0  0  0  0  0  0  0  0
   21.2169  -11.7415  -15.6976 C   0  0  0  0  0  0  0  0  0  0  0  0
   19.9367  -12.4708  -15.6572 C   0  0  0  0  0  0  0  0  0  0  0  0
   18.9288  -12.0637  -15.0345 O   0  0  0  0  0  0  0  0  0  0  0  0
   22.7193   -9.0337  -16.0915 C   0  0  0  0  0  0  0  0  0  0  0  0
   22.9351   -9.2131  -14.8712 O   0  0  0  0  0  0  0  0  0  0  0  0
   19.7997  -13.6950  -16.3452 O   0  0  0  0  0  0  0  0  0  0  0  0
   22.4608   -7.7046  -16.5060 N   0  0  0  0  0  0  0  0  0  0  0  0
   22.3898   -6.5694  -15.5842 C   0  0  1  0  0  0  0  0  0  0  0  0
   22.3180   -5.2703  -16.2830 C   0  0  0  0  0  0  0  0  0  0  0  0
   21.0233   -5.0583  -17.0149 C   0  0  0  0  0  0  0  0  0  0  0  0
   20.9932   -3.7318  -17.7028 C   0  0  0  0  0  0  0  0  0  0  0  0
   21.3600   -3.6597  -18.8907 O   0  0  0  0  0  0  0  0  0  0  0  0
   21.2466   -6.7675  -14.6859 C   0  0  0  0  0  0  0  0  0  0  0  0
   21.1285   -6.0965  -13.4592 O   0  0  0  0  0  0  0  0  0  0  0  0
   20.5648   -2.6172  -17.0296 O   0  0  0  0  0  0  0  0  0  0  0  0
   20.2939   -7.5436  -14.9398 O   0  0  0  0  0  0  0  0  0  0  0  0
  2  1  1  0
  3  2  1  0
  4  3  1  0
  4  5  1  0
  5  7  1  0
  5  6  1  1
  7  8  2  0
  9 10  1  0
  9  7  1  0
 10 11  1  1
 11 12  1  0
 13 14  2  0
 13 12  1  0
 15 16  2  0
 15 10  1  0
 17 13  1  0
 18 15  1  0
 19 18  1  0
 19 24  1  0
 19 20  1  6
 21 22  1  0
 21 20  1  0
 22 26  1  0
 23 22  2  0
 24 25  1  0
 27 24  2  0
M  END
$$$$
