MEE.pdb
     RDKit          3D

 27 26  0  0  1  0  0  0  0  0999 V2000
   26.9525  -17.4421  -19.4397 C   0  0  0  0  0  0  0  0  0  0  0  0
   27.8534  -16.9378  -17.9506 S   0  0  0  0  0  0  0  0  0  0  0  0
   28.5873  -18.4160  -17.1521 C   0  0  0  0  0  0  0  0  0  0  0  0
   27.5142  -19.0741  -16.3162 C   0  0  0  0  0  0  0  0  0  0  0  0
   27.9514  -20.3000  -15.6077 C   0  0  2  0  0  0  0  0  0  0  0  0
   28.3257  -21.3176  -16.6030 N   0  0  0  0  0  0  0  0  0  0  0  0
   26.9951  -20.9066  -14.6826 C   0  0  0  0  0  0  0  0  0  0  0  0
   26.2181  -21.8490  -15.0849 O   0  0  0  0  0  0  0  0  0  0  0  0
   26.8052  -20.5664  -13.3141 N   0  0  0  0  0  0  0  0  0  0  0  0
   25.6634  -21.0995  -12.5558 C   0  0  1  0  0  0  0  0  0  0  0  0
   25.9777  -20.8082  -11.1241 C   0  0  0  0  0  0  0  0  0  0  0  0
   24.9452  -21.1623  -10.1217 C   0  0  0  0  0  0  0  0  0  0  0  0
   25.3269  -20.9389   -8.7157 C   0  0  0  0  0  0  0  0  0  0  0  0
   24.5541  -21.1377   -7.7500 O   0  0  0  0  0  0  0  0  0  0  0  0
   24.4008  -20.4230  -12.9612 C   0  0  0  0  0  0  0  0  0  0  0  0
   24.4052  -19.1842  -13.1438 O   0  0  0  0  0  0  0  0  0  0  0  0
   26.6230  -20.4789   -8.4007 O   0  0  0  0  0  0  0  0  0  0  0  0
   23.1701  -21.0940  -13.1622 N   0  0  0  0  0  0  0  0  0  0  0  0
   21.9617  -20.4350  -13.6611 C   0  0  1  0  0  0  0  0  0  0  0  0
   21.6432  -20.8059  -15.0546 C   0  0  0  0  0  0  0  0  0  0  0  0
   20.3731  -20.1838  -15.5612 C   0  0  0  0  0  0  0  0  0  0  0  0
   20.0962  -20.5773  -16.9762 C   0  0  0  0  0  0  0  0  0  0  0  0
   18.9351  -20.4756  -17.4146 O   0  0  0  0  0  0  0  0  0  0  0  0
   20.8528  -20.7404  -12.7501 C   0  0  0  0  0  0  0  0  0  0  0  0
   20.6935  -22.0011  -12.1548 O   0  0  0  0  0  0  0  0  0  0  0  0
   21.1113  -21.0400  -17.7729 O   0  0  0  0  0  0  0  0  0  0  0  0
   19.9685  -19.9085  -12.4336 O   0  0  0  0  0  0  0  0  0  0  0  0
  2  1  1  0
  3  2  1  0
  4  3  1  0
  4  5  1  0
  5  7  1  0
  5  6  1  6
  7  8  2  0
  9 10  1  0
  9  7  1  0
 10 11  1  1
 11 12  1  0
 13 14  2  0
 13 12  1  0
 15 16  2  0
 15 10  1  0
 17 13  1  0
 18 15  1  0
 19 18  1  0
 19 24  1  0
 19 20  1  6
 21 22  1  0
 21 20  1  0
 22 26  1  0
 23 22  2  0
 24 25  1  0
 27 24  2  0
M  END
$$$$
