MEE.pdb
     RDKit          3D

 27 26  0  0  1  0  0  0  0  0999 V2000
   28.0435  -17.7790   -6.1295 C   0  0  0  0  0  0  0  0  0  0  0  0
   27.5882  -19.5220   -6.3250 S   0  0  0  0  0  0  0  0  0  0  0  0
   28.3858  -20.1949   -7.8325 C   0  0  0  0  0  0  0  0  0  0  0  0
   27.6112  -19.6966   -9.0304 C   0  0  0  0  0  0  0  0  0  0  0  0
   26.4458  -20.5335   -9.4011 C   0  0  2  0  0  0  0  0  0  0  0  0
   26.8790  -21.9367   -9.4994 N   0  0  0  0  0  0  0  0  0  0  0  0
   25.7515  -20.1896  -10.6413 C   0  0  0  0  0  0  0  0  0  0  0  0
   25.1901  -19.0397  -10.7681 O   0  0  0  0  0  0  0  0  0  0  0  0
   25.6111  -21.0143  -11.7922 N   0  0  0  0  0  0  0  0  0  0  0  0
   24.9407  -20.5137  -13.0017 C   0  0  1  0  0  0  0  0  0  0  0  0
   25.5921  -21.2380  -14.1351 C   0  0  0  0  0  0  0  0  0  0  0  0
   26.9879  -20.8621  -14.4619 C   0  0  0  0  0  0  0  0  0  0  0  0
   27.5762  -21.5617  -15.6181 C   0  0  0  0  0  0  0  0  0  0  0  0
   28.7516  -21.3792  -16.0113 O   0  0  0  0  0  0  0  0  0  0  0  0
   23.4835  -20.8150  -12.9583 C   0  0  0  0  0  0  0  0  0  0  0  0
   23.1047  -21.9304  -12.5337 O   0  0  0  0  0  0  0  0  0  0  0  0
   26.8068  -22.4947  -16.3449 O   0  0  0  0  0  0  0  0  0  0  0  0
   22.4737  -19.9110  -13.3685 N   0  0  0  0  0  0  0  0  0  0  0  0
   21.0417  -20.1755  -13.2177 C   0  0  1  0  0  0  0  0  0  0  0  0
   20.2167  -18.9615  -13.3816 C   0  0  0  0  0  0  0  0  0  0  0  0
   18.7405  -19.2298  -13.3063 C   0  0  0  0  0  0  0  0  0  0  0  0
   17.9453  -17.9790  -13.4982 C   0  0  0  0  0  0  0  0  0  0  0  0
   16.9090  -18.0225  -14.1873 O   0  0  0  0  0  0  0  0  0  0  0  0
   20.6579  -21.2260  -14.1673 C   0  0  0  0  0  0  0  0  0  0  0  0
   21.2534  -21.3516  -15.4317 O   0  0  0  0  0  0  0  0  0  0  0  0
   18.3567  -16.8066  -12.9190 O   0  0  0  0  0  0  0  0  0  0  0  0
   19.7768  -22.0867  -13.9278 O   0  0  0  0  0  0  0  0  0  0  0  0
  2  1  1  0
  3  2  1  0
  4  3  1  0
  4  5  1  0
  5  7  1  0
  5  6  1  6
  7  8  2  0
  9 10  1  0
  9  7  1  0
 10 11  1  6
 11 12  1  0
 13 14  2  0
 13 12  1  0
 15 16  2  0
 15 10  1  0
 17 13  1  0
 18 15  1  0
 19 18  1  0
 19 24  1  0
 19 20  1  6
 21 22  1  0
 21 20  1  0
 22 26  1  0
 23 22  2  0
 24 25  1  0
 27 24  2  0
M  END
$$$$
