MEE.pdb
     RDKit          3D

 27 26  0  0  1  0  0  0  0  0999 V2000
   24.2944  -20.8532   -8.4448 C   0  0  0  0  0  0  0  0  0  0  0  0
   26.0884  -20.9240   -8.2001 S   0  0  0  0  0  0  0  0  0  0  0  0
   26.9282  -20.0952   -9.6035 C   0  0  0  0  0  0  0  0  0  0  0  0
   25.9983  -20.1396  -10.7937 C   0  0  0  0  0  0  0  0  0  0  0  0
   26.4070  -21.0853  -11.8589 C   0  0  2  0  0  0  0  0  0  0  0  0
   27.7043  -20.6554  -12.4055 N   0  0  0  0  0  0  0  0  0  0  0  0
   25.4832  -21.2604  -12.9789 C   0  0  0  0  0  0  0  0  0  0  0  0
   25.5212  -20.4519  -13.9781 O   0  0  0  0  0  0  0  0  0  0  0  0
   24.4907  -22.2713  -13.1104 N   0  0  0  0  0  0  0  0  0  0  0  0
   23.7021  -22.3980  -14.3454 C   0  0  1  0  0  0  0  0  0  0  0  0
   23.7302  -23.8551  -14.6765 C   0  0  0  0  0  0  0  0  0  0  0  0
   24.2608  -24.2338  -16.0074 C   0  0  0  0  0  0  0  0  0  0  0  0
   24.2901  -25.6806  -16.2874 C   0  0  0  0  0  0  0  0  0  0  0  0
   23.2648  -26.3584  -16.5295 O   0  0  0  0  0  0  0  0  0  0  0  0
   22.3030  -21.9394  -14.1254 C   0  0  0  0  0  0  0  0  0  0  0  0
   21.7890  -22.0746  -12.9917 O   0  0  0  0  0  0  0  0  0  0  0  0
   25.5191  -26.3735  -16.2936 O   0  0  0  0  0  0  0  0  0  0  0  0
   21.4957  -21.3463  -15.1263 N   0  0  0  0  0  0  0  0  0  0  0  0
   20.1501  -20.8264  -14.8769 C   0  0  1  0  0  0  0  0  0  0  0  0
   19.6719  -19.9390  -15.9563 C   0  0  0  0  0  0  0  0  0  0  0  0
   20.4231  -18.6405  -16.0368 C   0  0  0  0  0  0  0  0  0  0  0  0
   19.8892  -17.7646  -17.1237 C   0  0  0  0  0  0  0  0  0  0  0  0
   20.4475  -17.7759  -18.2367 O   0  0  0  0  0  0  0  0  0  0  0  0
   19.2432  -21.9599  -14.6630 C   0  0  0  0  0  0  0  0  0  0  0  0
   18.1173  -21.8758  -13.8298 O   0  0  0  0  0  0  0  0  0  0  0  0
   18.7997  -16.9658  -16.8908 O   0  0  0  0  0  0  0  0  0  0  0  0
   19.3997  -23.0821  -15.2020 O   0  0  0  0  0  0  0  0  0  0  0  0
  2  1  1  0
  3  2  1  0
  4  3  1  0
  4  5  1  0
  5  7  1  0
  5  6  1  6
  7  8  2  0
  9 10  1  0
  9  7  1  0
 10 11  1  1
 11 12  1  0
 13 14  2  0
 13 12  1  0
 15 16  2  0
 15 10  1  0
 17 13  1  0
 18 15  1  0
 19 18  1  0
 19 24  1  0
 19 20  1  6
 21 22  1  0
 21 20  1  0
 22 26  1  0
 23 22  2  0
 24 25  1  0
 27 24  2  0
M  END
$$$$
