MEE.pdb
     RDKit          3D

 27 26  0  0  1  0  0  0  0  0999 V2000
   29.4712  -13.3541  -16.2793 C   0  0  0  0  0  0  0  0  0  0  0  0
   28.2847  -11.9989  -16.0822 S   0  0  0  0  0  0  0  0  0  0  0  0
   26.5827  -12.6405  -16.3126 C   0  0  0  0  0  0  0  0  0  0  0  0
   25.6269  -11.4759  -16.1954 C   0  0  0  0  0  0  0  0  0  0  0  0
   24.2173  -11.8023  -16.5155 C   0  0  2  0  0  0  0  0  0  0  0  0
   24.1725  -12.5028  -17.8091 N   0  0  0  0  0  0  0  0  0  0  0  0
   23.2765  -10.6844  -16.5769 C   0  0  0  0  0  0  0  0  0  0  0  0
   23.0610  -10.0841  -17.6935 O   0  0  0  0  0  0  0  0  0  0  0  0
   22.5257  -10.1464  -15.4947 N   0  0  0  0  0  0  0  0  0  0  0  0
   21.5455   -9.0727  -15.7168 C   0  0  1  0  0  0  0  0  0  0  0  0
   20.2795   -9.5676  -15.0958 C   0  0  0  0  0  0  0  0  0  0  0  0
   19.4678  -10.5211  -15.8883 C   0  0  0  0  0  0  0  0  0  0  0  0
   18.2033  -10.9468  -15.2621 C   0  0  0  0  0  0  0  0  0  0  0  0
   17.1261  -10.3191  -15.3842 O   0  0  0  0  0  0  0  0  0  0  0  0
   21.9897   -7.8115  -15.0625 C   0  0  0  0  0  0  0  0  0  0  0  0
   22.5750   -7.8722  -13.9572 O   0  0  0  0  0  0  0  0  0  0  0  0
   18.1636  -12.1189  -14.4777 O   0  0  0  0  0  0  0  0  0  0  0  0
   21.7965   -6.5212  -15.6130 N   0  0  0  0  0  0  0  0  0  0  0  0
   22.2534   -5.2895  -14.9668 C   0  0  1  0  0  0  0  0  0  0  0  0
   21.9169   -4.0789  -15.7429 C   0  0  0  0  0  0  0  0  0  0  0  0
   22.4140   -2.8094  -15.1120 C   0  0  0  0  0  0  0  0  0  0  0  0
   22.0067   -1.6082  -15.9025 C   0  0  0  0  0  0  0  0  0  0  0  0
   21.5642   -0.6117  -15.3010 O   0  0  0  0  0  0  0  0  0  0  0  0
   21.6957   -5.2385  -13.6106 C   0  0  0  0  0  0  0  0  0  0  0  0
   20.4101   -5.7123  -13.3075 O   0  0  0  0  0  0  0  0  0  0  0  0
   22.1240   -1.6112  -17.2683 O   0  0  0  0  0  0  0  0  0  0  0  0
   22.3164   -4.7729  -12.6245 O   0  0  0  0  0  0  0  0  0  0  0  0
  2  1  1  0
  3  2  1  0
  4  3  1  0
  4  5  1  0
  5  7  1  0
  5  6  1  6
  7  8  2  0
  9 10  1  0
  9  7  1  0
 10 11  1  1
 11 12  1  0
 13 14  2  0
 13 12  1  0
 15 16  2  0
 15 10  1  0
 17 13  1  0
 18 15  1  0
 19 18  1  0
 19 24  1  0
 19 20  1  6
 21 22  1  0
 21 20  1  0
 22 26  1  0
 23 22  2  0
 24 25  1  0
 27 24  2  0
M  END
$$$$
