MEE.pdb
     RDKit          3D

 27 26  0  0  1  0  0  0  0  0999 V2000
   28.1755  -12.3505  -14.9877 C   0  0  0  0  0  0  0  0  0  0  0  0
   27.7777  -13.3060  -16.4750 S   0  0  0  0  0  0  0  0  0  0  0  0
   26.0249  -13.8393  -16.4061 C   0  0  0  0  0  0  0  0  0  0  0  0
   25.1614  -12.6411  -16.7253 C   0  0  0  0  0  0  0  0  0  0  0  0
   23.7043  -12.9104  -16.7069 C   0  0  2  0  0  0  0  0  0  0  0  0
   23.3838  -13.8706  -17.7754 N   0  0  0  0  0  0  0  0  0  0  0  0
   22.8162  -11.7583  -16.8568 C   0  0  0  0  0  0  0  0  0  0  0  0
   22.5256  -11.3168  -18.0291 O   0  0  0  0  0  0  0  0  0  0  0  0
   22.1968  -11.0220  -15.8087 N   0  0  0  0  0  0  0  0  0  0  0  0
   21.3160   -9.8823  -16.1059 C   0  0  1  0  0  0  0  0  0  0  0  0
   20.0167  -10.2129  -15.4456 C   0  0  0  0  0  0  0  0  0  0  0  0
   18.9269   -9.2158  -15.5652 C   0  0  0  0  0  0  0  0  0  0  0  0
   17.6508   -9.5958  -14.9332 C   0  0  0  0  0  0  0  0  0  0  0  0
   17.4913  -10.6523  -14.2792 O   0  0  0  0  0  0  0  0  0  0  0  0
   21.8796   -8.6225  -15.5479 C   0  0  0  0  0  0  0  0  0  0  0  0
   22.4987   -8.6617  -14.4601 O   0  0  0  0  0  0  0  0  0  0  0  0
   16.5273   -8.7501  -15.0471 O   0  0  0  0  0  0  0  0  0  0  0  0
   21.7661   -7.3571  -16.1731 N   0  0  0  0  0  0  0  0  0  0  0  0
   22.1836   -6.1033  -15.5429 C   0  0  1  0  0  0  0  0  0  0  0  0
   22.1277   -4.9533  -16.4678 C   0  0  0  0  0  0  0  0  0  0  0  0
   22.5850   -3.6650  -15.8449 C   0  0  0  0  0  0  0  0  0  0  0  0
   22.4533   -2.5192  -16.7954 C   0  0  0  0  0  0  0  0  0  0  0  0
   22.0559   -2.7396  -17.9548 O   0  0  0  0  0  0  0  0  0  0  0  0
   21.3583   -5.8823  -14.3500 C   0  0  0  0  0  0  0  0  0  0  0  0
   21.8523   -5.2468  -13.2006 O   0  0  0  0  0  0  0  0  0  0  0  0
   22.7652   -1.2480  -16.3881 O   0  0  0  0  0  0  0  0  0  0  0  0
   20.1586   -6.2394  -14.2631 O   0  0  0  0  0  0  0  0  0  0  0  0
  2  1  1  0
  3  2  1  0
  4  3  1  0
  4  5  1  0
  5  7  1  0
  5  6  1  6
  7  8  2  0
  9 10  1  0
  9  7  1  0
 10 11  1  1
 11 12  1  0
 13 14  2  0
 13 12  1  0
 15 16  2  0
 15 10  1  0
 17 13  1  0
 18 15  1  0
 19 18  1  0
 19 24  1  0
 19 20  1  6
 21 22  1  0
 21 20  1  0
 22 26  1  0
 23 22  2  0
 24 25  1  0
 27 24  2  0
M  END
$$$$
