YMK.pdb
     RDKit          3D

 30 30  0  0  1  0  0  0  0  0999 V2000
    4.2610  -26.6603   31.1990 O   0  0  0  0  0  0  0  0  0  0  0  0
    2.9492  -26.3421   31.4469 C   0  0  0  0  0  0  0  0  0  0  0  0
    2.0327  -26.5285   30.4481 C   0  0  0  0  0  0  0  0  0  0  0  0
    0.7064  -26.2016   30.7139 C   0  0  0  0  0  0  0  0  0  0  0  0
    0.3139  -25.7084   31.9296 C   0  0  0  0  0  0  0  0  0  0  0  0
   -1.0884  -25.3701   32.1944 C   0  0  0  0  0  0  0  0  0  0  0  0
   -1.6316  -26.3570   33.1975 C   0  0  2  0  0  0  0  0  0  0  0  0
   -1.4598  -27.7159   32.8023 N   0  0  0  0  0  0  0  0  0  0  0  0
   -3.0705  -26.0277   33.4829 C   0  0  0  0  0  0  0  0  0  0  0  0
   -3.3605  -24.8641   33.8682 O   0  0  0  0  0  0  0  0  0  0  0  0
    1.2599  -25.5350   32.9061 C   0  0  0  0  0  0  0  0  0  0  0  0
    2.5965  -25.8431   32.6992 C   0  0  0  0  0  0  0  0  0  0  0  0
   -8.0650  -26.7027   29.3953 C   0  0  0  0  0  0  0  0  0  0  0  0
   -8.5436  -27.2408   31.0293 S   0  0  0  0  0  0  0  0  0  0  0  0
   -7.6929  -26.3591   32.3485 C   0  0  0  0  0  0  0  0  0  0  0  0
   -6.2352  -26.5385   32.3944 C   0  0  0  0  0  0  0  0  0  0  0  0
   -5.5237  -26.6329   33.6752 C   0  0  2  0  0  0  0  0  0  0  0  0
   -4.1094  -26.9539   33.3410 N   0  0  0  0  0  0  0  0  0  0  0  0
   -6.0176  -27.5018   34.7230 C   0  0  0  0  0  0  0  0  0  0  0  0
   -5.9233  -28.7384   34.7942 O   0  0  0  0  0  0  0  0  0  0  0  0
   -6.7059  -26.8892   35.8292 N   0  0  0  0  0  0  0  0  0  0  0  0
   -7.3169  -27.7230   36.8814 C   0  0  1  0  0  0  0  0  0  0  0  0
   -7.3721  -26.8508   38.1286 C   0  0  0  0  0  0  0  0  0  0  0  0
   -8.0409  -27.4897   39.2900 C   0  0  0  0  0  0  0  0  0  0  0  0
   -8.1458  -26.5181   40.4340 C   0  0  0  0  0  0  0  0  0  0  0  0
   -8.8096  -27.1199   41.6295 C   0  0  0  0  0  0  0  0  0  0  0  0
   -9.0508  -26.0877   42.6380 N   0  0  0  0  0  0  0  0  0  0  0  0
   -8.6831  -28.1183   36.4747 C   0  0  0  0  0  0  0  0  0  0  0  0
   -9.1950  -29.3432   36.8886 O   0  0  0  0  0  0  0  0  0  0  0  0
   -9.4385  -27.4166   35.7656 O   0  0  0  0  0  0  0  0  0  0  0  0
  2  1  1  0
  3  2  2  0
  4  3  1  0
  5  4  2  0
  5 11  1  0
  6  7  1  0
  6  5  1  0
  7  8  1  6
  9  7  1  0
 10  9  2  0
 11 12  2  0
 12  2  1  0
 14 13  1  0
 14 15  1  0
 16 15  1  0
 17 16  1  6
 17 18  1  0
 18  9  1  0
 19 21  1  0
 19 17  1  0
 20 19  2  0
 22 21  1  0
 22 28  1  0
 22 23  1  1
 24 25  1  0
 24 23  1  0
 25 26  1  0
 27 26  1  0
 28 29  1  0
 30 28  2  0
M  END
$$$$
