YMK.pdb
     RDKit          3D

 30 30  0  0  1  0  0  0  0  0999 V2000
    7.0429  -13.8723   15.3052 O   0  0  0  0  0  0  0  0  0  0  0  0
    7.6610  -13.9814   16.5257 C   0  0  0  0  0  0  0  0  0  0  0  0
    7.3339  -13.0836   17.5052 C   0  0  0  0  0  0  0  0  0  0  0  0
    7.9685  -13.2065   18.7375 C   0  0  0  0  0  0  0  0  0  0  0  0
    8.8925  -14.1879   18.9792 C   0  0  0  0  0  0  0  0  0  0  0  0
    9.5514  -14.3048   20.2843 C   0  0  0  0  0  0  0  0  0  0  0  0
    8.9707  -15.4977   21.0020 C   0  0  2  0  0  0  0  0  0  0  0  0
    7.6309  -15.7925   20.6141 N   0  0  0  0  0  0  0  0  0  0  0  0
    9.0981  -15.2901   22.4855 C   0  0  0  0  0  0  0  0  0  0  0  0
   10.2413  -15.0822   22.9718 O   0  0  0  0  0  0  0  0  0  0  0  0
    9.1948  -15.0692   17.9742 C   0  0  0  0  0  0  0  0  0  0  0  0
    8.5949  -14.9960   16.7256 C   0  0  0  0  0  0  0  0  0  0  0  0
    6.7030  -10.7646   26.8498 C   0  0  0  0  0  0  0  0  0  0  0  0
    7.7166  -12.2186   27.0672 S   0  0  0  0  0  0  0  0  0  0  0  0
    6.8860  -13.7445   26.5947 C   0  0  0  0  0  0  0  0  0  0  0  0
    7.0725  -14.1623   25.1983 C   0  0  0  0  0  0  0  0  0  0  0  0
    8.1405  -15.0975   24.8237 C   0  0  2  0  0  0  0  0  0  0  0  0
    8.0047  -15.3162   23.3578 N   0  0  0  0  0  0  0  0  0  0  0  0
    8.2873  -16.3569   25.5231 C   0  0  0  0  0  0  0  0  0  0  0  0
    7.4090  -17.2025   25.7610 O   0  0  0  0  0  0  0  0  0  0  0  0
    9.5965  -16.6988   26.0150 N   0  0  0  0  0  0  0  0  0  0  0  0
    9.8189  -17.9761   26.7183 C   0  0  1  0  0  0  0  0  0  0  0  0
   10.9773  -18.6546   25.9995 C   0  0  0  0  0  0  0  0  0  0  0  0
   10.5707  -19.7637   25.1001 C   0  0  0  0  0  0  0  0  0  0  0  0
   11.7566  -20.2725   24.3264 C   0  0  0  0  0  0  0  0  0  0  0  0
   11.3670  -21.2660   23.2806 C   0  0  0  0  0  0  0  0  0  0  0  0
   12.5355  -21.6297   22.4789 N   0  0  0  0  0  0  0  0  0  0  0  0
   10.1777  -17.7134   28.1291 C   0  0  0  0  0  0  0  0  0  0  0  0
   10.0539  -18.7302   29.0696 O   0  0  0  0  0  0  0  0  0  0  0  0
   10.5968  -16.6148   28.5572 O   0  0  0  0  0  0  0  0  0  0  0  0
  2  1  1  0
  3  2  2  0
  4  3  1  0
  5  4  2  0
  5 11  1  0
  6  7  1  0
  6  5  1  0
  7  8  1  1
  9  7  1  0
 10  9  2  0
 11 12  2  0
 12  2  1  0
 14 13  1  0
 14 15  1  0
 16 15  1  0
 17 16  1  1
 17 18  1  0
 18  9  1  0
 19 21  1  0
 19 17  1  0
 20 19  2  0
 22 21  1  0
 22 28  1  0
 22 23  1  6
 24 25  1  0
 24 23  1  0
 25 26  1  0
 27 26  1  0
 28 29  1  0
 30 28  2  0
M  END
$$$$
