YMK.pdb
     RDKit          3D

 30 30  0  0  1  0  0  0  0  0999 V2000
    7.6239  -13.7411   15.8316 O   0  0  0  0  0  0  0  0  0  0  0  0
    7.6791  -14.1006   17.1550 C   0  0  0  0  0  0  0  0  0  0  0  0
    7.4093  -15.3996   17.4900 C   0  0  0  0  0  0  0  0  0  0  0  0
    7.4693  -15.7496   18.8355 C   0  0  0  0  0  0  0  0  0  0  0  0
    7.7863  -14.8367   19.8057 C   0  0  0  0  0  0  0  0  0  0  0  0
    7.8466  -15.2220   21.2195 C   0  0  0  0  0  0  0  0  0  0  0  0
    9.2602  -15.0187   21.7050 C   0  0  2  0  0  0  0  0  0  0  0  0
   10.2065  -15.8664   21.0583 N   0  0  0  0  0  0  0  0  0  0  0  0
    9.2939  -15.1694   23.2004 C   0  0  0  0  0  0  0  0  0  0  0  0
   10.0528  -16.0393   23.7044 O   0  0  0  0  0  0  0  0  0  0  0  0
    8.0503  -13.5446   19.4326 C   0  0  0  0  0  0  0  0  0  0  0  0
    8.0059  -13.1373   18.1074 C   0  0  0  0  0  0  0  0  0  0  0  0
    6.9032  -10.6568   27.5340 C   0  0  0  0  0  0  0  0  0  0  0  0
    5.7247  -11.7707   26.7863 S   0  0  0  0  0  0  0  0  0  0  0  0
    6.4650  -13.3028   26.1979 C   0  0  0  0  0  0  0  0  0  0  0  0
    7.9293  -13.2940   26.0757 C   0  0  0  0  0  0  0  0  0  0  0  0
    8.6522  -14.4570   25.5461 C   0  0  2  0  0  0  0  0  0  0  0  0
    8.5205  -14.3877   24.0652 N   0  0  0  0  0  0  0  0  0  0  0  0
    8.3500  -15.7877   26.0305 C   0  0  0  0  0  0  0  0  0  0  0  0
    8.3761  -16.1950   27.2038 O   0  0  0  0  0  0  0  0  0  0  0  0
    7.9709  -16.7814   25.0601 N   0  0  0  0  0  0  0  0  0  0  0  0
    7.5868  -18.1382   25.4930 C   0  0  1  0  0  0  0  0  0  0  0  0
    6.9575  -18.8041   24.2766 C   0  0  0  0  0  0  0  0  0  0  0  0
    6.6257  -20.2382   24.4703 C   0  0  0  0  0  0  0  0  0  0  0  0
    6.1660  -20.8494   23.1746 C   0  0  0  0  0  0  0  0  0  0  0  0
    5.8757  -22.3090   23.3081 C   0  0  0  0  0  0  0  0  0  0  0  0
    5.4584  -22.8542   22.0162 N   0  0  0  0  0  0  0  0  0  0  0  0
    8.7901  -18.8859   25.9183 C   0  0  0  0  0  0  0  0  0  0  0  0
    8.6860  -19.8368   26.9277 O   0  0  0  0  0  0  0  0  0  0  0  0
    9.9298  -18.7261   25.4272 O   0  0  0  0  0  0  0  0  0  0  0  0
  2  1  1  0
  3  2  2  0
  4  3  1  0
  5  4  2  0
  5 11  1  0
  6  7  1  0
  6  5  1  0
  7  8  1  6
  9  7  1  0
 10  9  2  0
 11 12  2  0
 12  2  1  0
 14 13  1  0
 14 15  1  0
 16 15  1  0
 17 16  1  1
 17 18  1  0
 18  9  1  0
 19 21  1  0
 19 17  1  0
 20 19  2  0
 22 21  1  0
 22 28  1  0
 22 23  1  6
 24 25  1  0
 24 23  1  0
 25 26  1  0
 27 26  1  0
 28 29  1  0
 30 28  2  0
M  END
$$$$
