YMK.pdb
     RDKit          3D

 30 30  0  0  1  0  0  0  0  0999 V2000
    6.4941  -23.0582   29.8540 O   0  0  0  0  0  0  0  0  0  0  0  0
    6.8128  -22.1871   28.8425 C   0  0  0  0  0  0  0  0  0  0  0  0
    6.5968  -20.8505   29.0403 C   0  0  0  0  0  0  0  0  0  0  0  0
    6.9249  -19.9792   28.0061 C   0  0  0  0  0  0  0  0  0  0  0  0
    7.4476  -20.4276   26.8225 C   0  0  0  0  0  0  0  0  0  0  0  0
    7.7894  -19.4959   25.7426 C   0  0  0  0  0  0  0  0  0  0  0  0
    6.5137  -18.8700   25.2366 C   0  0  2  0  0  0  0  0  0  0  0  0
    5.6636  -19.7915   24.5578 N   0  0  0  0  0  0  0  0  0  0  0  0
    6.8536  -17.6794   24.3840 C   0  0  0  0  0  0  0  0  0  0  0  0
    6.9064  -17.8249   23.1339 O   0  0  0  0  0  0  0  0  0  0  0  0
    7.6500  -21.7734   26.6602 C   0  0  0  0  0  0  0  0  0  0  0  0
    7.3422  -22.6894   27.6554 C   0  0  0  0  0  0  0  0  0  0  0  0
    5.0812  -11.6305   26.8066 C   0  0  0  0  0  0  0  0  0  0  0  0
    6.7133  -12.3053   26.5431 S   0  0  0  0  0  0  0  0  0  0  0  0
    6.7455  -13.6467   25.3426 C   0  0  0  0  0  0  0  0  0  0  0  0
    8.0625  -14.2532   25.1040 C   0  0  0  0  0  0  0  0  0  0  0  0
    8.1907  -15.5268   24.3847 C   0  0  2  0  0  0  0  0  0  0  0  0
    7.1157  -16.4107   24.9122 N   0  0  0  0  0  0  0  0  0  0  0  0
    9.4608  -16.2214   24.3497 C   0  0  0  0  0  0  0  0  0  0  0  0
    9.7756  -17.2631   24.9488 O   0  0  0  0  0  0  0  0  0  0  0  0
   10.5052  -15.6621   23.5317 N   0  0  0  0  0  0  0  0  0  0  0  0
   11.5755  -16.5243   22.9962 C   0  0  1  0  0  0  0  0  0  0  0  0
   11.4926  -16.4032   21.4804 C   0  0  0  0  0  0  0  0  0  0  0  0
   11.4869  -17.7039   20.7644 C   0  0  0  0  0  0  0  0  0  0  0  0
   11.3626  -17.4851   19.2811 C   0  0  0  0  0  0  0  0  0  0  0  0
   11.4749  -18.7593   18.5090 C   0  0  0  0  0  0  0  0  0  0  0  0
   11.2067  -18.5090   17.0926 N   0  0  0  0  0  0  0  0  0  0  0  0
   12.8900  -16.0441   23.4750 C   0  0  0  0  0  0  0  0  0  0  0  0
   14.0332  -16.7877   23.2027 O   0  0  0  0  0  0  0  0  0  0  0  0
   13.0610  -14.9893   24.1261 O   0  0  0  0  0  0  0  0  0  0  0  0
  2  1  1  0
  3  2  2  0
  4  3  1  0
  5  4  2  0
  5 11  1  0
  6  7  1  0
  6  5  1  0
  7  8  1  6
  9  7  1  0
 10  9  2  0
 11 12  2  0
 12  2  1  0
 14 13  1  0
 14 15  1  0
 16 15  1  0
 17 16  1  1
 17 18  1  0
 18  9  1  0
 19 21  1  0
 19 17  1  0
 20 19  2  0
 22 21  1  0
 22 28  1  0
 22 23  1  6
 24 25  1  0
 24 23  1  0
 25 26  1  0
 27 26  1  0
 28 29  1  0
 30 28  2  0
M  END
$$$$
