YMK.pdb
     RDKit          3D

 30 30  0  0  1  0  0  0  0  0999 V2000
    7.3198  -13.7988   15.6686 O   0  0  0  0  0  0  0  0  0  0  0  0
    7.8719  -13.8947   16.9215 C   0  0  0  0  0  0  0  0  0  0  0  0
    7.5189  -12.9663   17.8627 C   0  0  0  0  0  0  0  0  0  0  0  0
    8.0864  -13.0762   19.1286 C   0  0  0  0  0  0  0  0  0  0  0  0
    8.9708  -14.0744   19.4393 C   0  0  0  0  0  0  0  0  0  0  0  0
    9.5591  -14.1772   20.7789 C   0  0  0  0  0  0  0  0  0  0  0  0
    8.9712  -15.3869   21.4618 C   0  0  2  0  0  0  0  0  0  0  0  0
    7.5674  -15.5250   21.2554 N   0  0  0  0  0  0  0  0  0  0  0  0
    9.3281  -15.3502   22.9218 C   0  0  0  0  0  0  0  0  0  0  0  0
   10.5404  -15.4414   23.2513 O   0  0  0  0  0  0  0  0  0  0  0  0
    9.3008  -14.9864   18.4709 C   0  0  0  0  0  0  0  0  0  0  0  0
    8.7674  -14.9275   17.1917 C   0  0  0  0  0  0  0  0  0  0  0  0
    5.3967  -12.1106   26.8451 C   0  0  0  0  0  0  0  0  0  0  0  0
    7.0800  -11.5652   26.6047 S   0  0  0  0  0  0  0  0  0  0  0  0
    8.0757  -12.7230   25.6510 C   0  0  0  0  0  0  0  0  0  0  0  0
    7.8948  -14.1420   25.9869 C   0  0  0  0  0  0  0  0  0  0  0  0
    8.7408  -15.1777   25.3808 C   0  0  2  0  0  0  0  0  0  0  0  0
    8.3760  -15.2191   23.9385 N   0  0  0  0  0  0  0  0  0  0  0  0
    8.7788  -16.5115   25.9432 C   0  0  0  0  0  0  0  0  0  0  0  0
    7.8701  -17.3585   25.9562 O   0  0  0  0  0  0  0  0  0  0  0  0
   10.0028  -16.9369   26.5706 N   0  0  0  0  0  0  0  0  0  0  0  0
   10.0811  -18.2491   27.2396 C   0  0  1  0  0  0  0  0  0  0  0  0
   10.8951  -19.1438   26.3143 C   0  0  0  0  0  0  0  0  0  0  0  0
   11.2293  -20.4714   26.8890 C   0  0  0  0  0  0  0  0  0  0  0  0
   12.1395  -21.2297   25.9615 C   0  0  0  0  0  0  0  0  0  0  0  0
   12.5336  -22.5597   26.5166 C   0  0  0  0  0  0  0  0  0  0  0  0
   13.4896  -23.2103   25.6202 N   0  0  0  0  0  0  0  0  0  0  0  0
   10.7664  -18.1051   28.5426 C   0  0  0  0  0  0  0  0  0  0  0  0
   10.5672  -19.0616   29.5322 O   0  0  0  0  0  0  0  0  0  0  0  0
   11.5348  -17.1617   28.8347 O   0  0  0  0  0  0  0  0  0  0  0  0
  2  1  1  0
  3  2  2  0
  4  3  1  0
  5  4  2  0
  5 11  1  0
  6  7  1  0
  6  5  1  0
  7  8  1  1
  9  7  1  0
 10  9  2  0
 11 12  2  0
 12  2  1  0
 14 13  1  0
 14 15  1  0
 16 15  1  0
 17 16  1  1
 17 18  1  0
 18  9  1  0
 19 21  1  0
 19 17  1  0
 20 19  2  0
 22 21  1  0
 22 28  1  0
 22 23  1  6
 24 25  1  0
 24 23  1  0
 25 26  1  0
 27 26  1  0
 28 29  1  0
 30 28  2  0
M  END
$$$$
