YMK.pdb
     RDKit          3D

 30 30  0  0  1  0  0  0  0  0999 V2000
   11.2046  -14.6535   29.2125 O   0  0  0  0  0  0  0  0  0  0  0  0
   10.1028  -14.8810   28.4265 C   0  0  0  0  0  0  0  0  0  0  0  0
    9.2765  -13.8283   28.1410 C   0  0  0  0  0  0  0  0  0  0  0  0
    8.1634  -14.0738   27.3427 C   0  0  0  0  0  0  0  0  0  0  0  0
    7.8889  -15.3219   26.8505 C   0  0  0  0  0  0  0  0  0  0  0  0
    6.7121  -15.5638   26.0092 C   0  0  0  0  0  0  0  0  0  0  0  0
    6.7966  -16.9706   25.4714 C   0  0  2  0  0  0  0  0  0  0  0  0
    7.2305  -17.9206   26.4418 N   0  0  0  0  0  0  0  0  0  0  0  0
    7.6650  -16.9775   24.2443 C   0  0  0  0  0  0  0  0  0  0  0  0
    8.1351  -18.0743   23.8412 O   0  0  0  0  0  0  0  0  0  0  0  0
    8.7391  -16.3521   27.1574 C   0  0  0  0  0  0  0  0  0  0  0  0
    9.8637  -16.1678   27.9482 C   0  0  0  0  0  0  0  0  0  0  0  0
    8.2486  -12.1966   19.5482 C   0  0  0  0  0  0  0  0  0  0  0  0
    6.7697  -13.1180   19.9389 S   0  0  0  0  0  0  0  0  0  0  0  0
    7.0804  -14.5636   20.9661 C   0  0  0  0  0  0  0  0  0  0  0  0
    8.4420  -14.6772   21.5068 C   0  0  0  0  0  0  0  0  0  0  0  0
    8.8430  -15.8378   22.3117 C   0  0  2  0  0  0  0  0  0  0  0  0
    7.9789  -15.8203   23.5233 N   0  0  0  0  0  0  0  0  0  0  0  0
   10.2323  -16.0335   22.6699 C   0  0  0  0  0  0  0  0  0  0  0  0
   10.9014  -15.3967   23.5006 O   0  0  0  0  0  0  0  0  0  0  0  0
   10.9529  -17.0845   21.9999 N   0  0  0  0  0  0  0  0  0  0  0  0
   12.3934  -17.2784   22.2508 C   0  0  1  0  0  0  0  0  0  0  0  0
   12.5528  -18.7313   22.6785 C   0  0  0  0  0  0  0  0  0  0  0  0
   13.9609  -19.1554   22.8831 C   0  0  0  0  0  0  0  0  0  0  0  0
   14.0182  -20.6017   23.2939 C   0  0  0  0  0  0  0  0  0  0  0  0
   15.4181  -21.0705   23.5234 C   0  0  0  0  0  0  0  0  0  0  0  0
   15.4239  -22.5082   23.7950 N   0  0  0  0  0  0  0  0  0  0  0  0
   13.1550  -17.0262   21.0080 C   0  0  0  0  0  0  0  0  0  0  0  0
   14.4230  -16.4601   21.0831 O   0  0  0  0  0  0  0  0  0  0  0  0
   12.7363  -17.2896   19.8587 O   0  0  0  0  0  0  0  0  0  0  0  0
  2  1  1  0
  3  2  2  0
  4  3  1  0
  5  4  2  0
  5 11  1  0
  6  7  1  0
  6  5  1  0
  7  8  1  1
  9  7  1  0
 10  9  2  0
 11 12  2  0
 12  2  1  0
 14 13  1  0
 14 15  1  0
 16 15  1  0
 17 16  1  1
 17 18  1  0
 18  9  1  0
 19 21  1  0
 19 17  1  0
 20 19  2  0
 22 21  1  0
 22 28  1  0
 22 23  1  6
 24 25  1  0
 24 23  1  0
 25 26  1  0
 27 26  1  0
 28 29  1  0
 30 28  2  0
M  END
$$$$
