YMK.pdb
     RDKit          3D

 30 30  0  0  1  0  0  0  0  0999 V2000
   11.7686  -14.3187   31.0964 O   0  0  0  0  0  0  0  0  0  0  0  0
   11.3405  -15.0452   30.0136 C   0  0  0  0  0  0  0  0  0  0  0  0
   10.5921  -14.4130   29.0583 C   0  0  0  0  0  0  0  0  0  0  0  0
   10.1653  -15.1623   27.9660 C   0  0  0  0  0  0  0  0  0  0  0  0
   10.4750  -16.4898   27.8356 C   0  0  0  0  0  0  0  0  0  0  0  0
   10.0186  -17.2652   26.6773 C   0  0  0  0  0  0  0  0  0  0  0  0
    8.5555  -17.5800   26.8660 C   0  0  2  0  0  0  0  0  0  0  0  0
    8.3006  -18.9644   27.0913 N   0  0  0  0  0  0  0  0  0  0  0  0
    7.7815  -17.0451   25.6934 C   0  0  0  0  0  0  0  0  0  0  0  0
    7.2621  -17.8618   24.8873 O   0  0  0  0  0  0  0  0  0  0  0  0
   11.2266  -17.0894   28.8123 C   0  0  0  0  0  0  0  0  0  0  0  0
   11.6801  -16.3937   29.9234 C   0  0  0  0  0  0  0  0  0  0  0  0
    5.8582  -10.7262   27.5646 C   0  0  0  0  0  0  0  0  0  0  0  0
    6.2906  -11.3423   25.9453 S   0  0  0  0  0  0  0  0  0  0  0  0
    6.1934  -13.1353   25.8148 C   0  0  0  0  0  0  0  0  0  0  0  0
    6.6695  -13.7060   24.5471 C   0  0  0  0  0  0  0  0  0  0  0  0
    6.7481  -15.1592   24.3529 C   0  0  2  0  0  0  0  0  0  0  0  0
    7.6080  -15.6782   25.4512 N   0  0  0  0  0  0  0  0  0  0  0  0
    7.1561  -15.7044   23.0750 C   0  0  0  0  0  0  0  0  0  0  0  0
    6.4292  -16.1288   22.1613 O   0  0  0  0  0  0  0  0  0  0  0  0
    8.5674  -15.7776   22.8002 N   0  0  0  0  0  0  0  0  0  0  0  0
    9.0478  -16.0477   21.4320 C   0  0  1  0  0  0  0  0  0  0  0  0
    8.7045  -14.8094   20.6147 C   0  0  0  0  0  0  0  0  0  0  0  0
    9.2329  -14.8290   19.2273 C   0  0  0  0  0  0  0  0  0  0  0  0
    8.7424  -13.6297   18.4628 C   0  0  0  0  0  0  0  0  0  0  0  0
    9.1704  -13.6562   17.0315 C   0  0  0  0  0  0  0  0  0  0  0  0
    8.7078  -12.4466   16.3506 N   0  0  0  0  0  0  0  0  0  0  0  0
   10.5119  -16.2576   21.4493 C   0  0  0  0  0  0  0  0  0  0  0  0
   11.2113  -16.1168   22.6429 O   0  0  0  0  0  0  0  0  0  0  0  0
   11.1927  -16.5610   20.4442 O   0  0  0  0  0  0  0  0  0  0  0  0
  2  1  1  0
  3  2  2  0
  4  3  1  0
  5  4  2  0
  5 11  1  0
  6  7  1  0
  6  5  1  0
  7  8  1  6
  9  7  1  0
 10  9  2  0
 11 12  2  0
 12  2  1  0
 14 13  1  0
 14 15  1  0
 16 15  1  0
 17 16  1  6
 17 18  1  0
 18  9  1  0
 19 21  1  0
 19 17  1  0
 20 19  2  0
 22 21  1  0
 22 28  1  0
 22 23  1  6
 24 25  1  0
 24 23  1  0
 25 26  1  0
 27 26  1  0
 28 29  1  0
 30 28  2  0
M  END
$$$$
