YMK.pdb
     RDKit          3D

 30 30  0  0  1  0  0  0  0  0999 V2000
    7.4210  -13.4010   15.9029 O   0  0  0  0  0  0  0  0  0  0  0  0
    7.9280  -13.5797   17.1657 C   0  0  0  0  0  0  0  0  0  0  0  0
    7.4756  -12.7692   18.1711 C   0  0  0  0  0  0  0  0  0  0  0  0
    7.9984  -12.9620   19.4462 C   0  0  0  0  0  0  0  0  0  0  0  0
    8.9356  -13.9265   19.7041 C   0  0  0  0  0  0  0  0  0  0  0  0
    9.4758  -14.1179   21.0542 C   0  0  0  0  0  0  0  0  0  0  0  0
    8.9699  -15.4368   21.5832 C   0  0  2  0  0  0  0  0  0  0  0  0
    7.7014  -15.8096   21.0501 N   0  0  0  0  0  0  0  0  0  0  0  0
    8.9624  -15.3945   23.0860 C   0  0  0  0  0  0  0  0  0  0  0  0
   10.0322  -15.1153   23.6893 O   0  0  0  0  0  0  0  0  0  0  0  0
    9.3652  -14.7196   18.6722 C   0  0  0  0  0  0  0  0  0  0  0  0
    8.8803  -14.5740   17.3807 C   0  0  0  0  0  0  0  0  0  0  0  0
    6.8105  -10.8705   26.9063 C   0  0  0  0  0  0  0  0  0  0  0  0
    7.1491  -12.6203   27.0176 S   0  0  0  0  0  0  0  0  0  0  0  0
    6.4081  -13.5767   25.6843 C   0  0  0  0  0  0  0  0  0  0  0  0
    6.5875  -15.0325   25.7720 C   0  0  0  0  0  0  0  0  0  0  0  0
    7.8383  -15.6689   25.3404 C   0  0  2  0  0  0  0  0  0  0  0  0
    7.8203  -15.6509   23.8523 N   0  0  0  0  0  0  0  0  0  0  0  0
    8.2004  -16.9798   25.8376 C   0  0  0  0  0  0  0  0  0  0  0  0
    7.4477  -17.9399   26.0718 O   0  0  0  0  0  0  0  0  0  0  0  0
    9.5928  -17.2320   26.1028 N   0  0  0  0  0  0  0  0  0  0  0  0
   10.0177  -18.5093   26.7059 C   0  0  1  0  0  0  0  0  0  0  0  0
   11.2428  -18.9572   25.9201 C   0  0  0  0  0  0  0  0  0  0  0  0
   11.0209  -19.0680   24.4562 C   0  0  0  0  0  0  0  0  0  0  0  0
   12.2538  -19.6005   23.7781 C   0  0  0  0  0  0  0  0  0  0  0  0
   12.1397  -19.5690   22.2887 C   0  0  0  0  0  0  0  0  0  0  0  0
   13.3556  -20.1138   21.6842 N   0  0  0  0  0  0  0  0  0  0  0  0
   10.3723  -18.2972   28.1262 C   0  0  0  0  0  0  0  0  0  0  0  0
   10.5063  -19.3935   28.9713 O   0  0  0  0  0  0  0  0  0  0  0  0
   10.5674  -17.1750   28.6444 O   0  0  0  0  0  0  0  0  0  0  0  0
  2  1  1  0
  3  2  2  0
  4  3  1  0
  5  4  2  0
  5 11  1  0
  6  7  1  0
  6  5  1  0
  7  8  1  6
  9  7  1  0
 10  9  2  0
 11 12  2  0
 12  2  1  0
 14 13  1  0
 14 15  1  0
 16 15  1  0
 17 16  1  1
 17 18  1  0
 18  9  1  0
 19 21  1  0
 19 17  1  0
 20 19  2  0
 22 21  1  0
 22 28  1  0
 22 23  1  6
 24 25  1  0
 24 23  1  0
 25 26  1  0
 27 26  1  0
 28 29  1  0
 30 28  2  0
M  END
$$$$
