VEQ.pdb
     RDKit          3D

 26 25  0  0  1  0  0  0  0  0999 V2000
    6.0763  -11.0407   26.0914 C   0  0  0  0  0  0  0  0  0  0  0  0
    6.9360  -12.2248   25.7225 C   0  0  1  0  0  0  0  0  0  0  0  0
    7.7398  -12.6086   26.9687 C   0  0  0  0  0  0  0  0  0  0  0  0
    6.1431  -13.4248   25.2877 C   0  0  2  0  0  0  0  0  0  0  0  0
    5.3440  -13.8322   26.4375 N   0  0  0  0  0  0  0  0  0  0  0  0
    7.0659  -14.5458   24.9674 C   0  0  0  0  0  0  0  0  0  0  0  0
    7.4732  -15.3486   25.8700 O   0  0  0  0  0  0  0  0  0  0  0  0
    7.5366  -14.7811   23.6632 N   0  0  0  0  0  0  0  0  0  0  0  0
    8.5140  -15.8518   23.3685 C   0  0  1  0  0  0  0  0  0  0  0  0
    8.5338  -15.9660   21.8625 C   0  0  0  0  0  0  0  0  0  0  0  0
    9.4360  -17.0081   21.3320 C   0  0  0  0  0  0  0  0  0  0  0  0
    9.4335  -17.1530   19.8674 C   0  0  0  0  0  0  0  0  0  0  0  0
    8.9627  -18.1598   19.2941 O   0  0  0  0  0  0  0  0  0  0  0  0
    9.8259  -15.4728   23.9490 C   0  0  0  0  0  0  0  0  0  0  0  0
    9.8988  -14.3329   24.5115 O   0  0  0  0  0  0  0  0  0  0  0  0
    9.9628  -16.1610   19.0557 O   0  0  0  0  0  0  0  0  0  0  0  0
   10.9902  -16.9963   29.1275 N   0  0  0  0  0  0  0  0  0  0  0  0
   10.8007  -15.6643   28.6450 C   0  0  0  0  0  0  0  0  0  0  0  0
   10.6122  -14.7988   29.5423 O   0  0  0  0  0  0  0  0  0  0  0  0
   10.8275  -15.3523   27.2087 C   0  0  0  0  0  0  0  0  0  0  0  0
   11.0493  -16.5025   26.2999 C   0  0  0  0  0  0  0  0  0  0  0  0
   11.8590  -16.2712   25.0910 C   0  0  2  0  0  0  0  0  0  0  0  0
   10.9744  -16.2919   23.9160 N   0  0  0  0  0  0  0  0  0  0  0  0
   13.0064  -17.1490   24.8778 C   0  0  0  0  0  0  0  0  0  0  0  0
   12.9414  -18.4033   24.3000 O   0  0  0  0  0  0  0  0  0  0  0  0
   14.1510  -16.7685   25.2332 O   0  0  0  0  0  0  0  0  0  0  0  0
  2  4  1  0
  2  1  1  1
  3  2  1  0
  4  6  1  0
  4  5  1  1
  6  7  2  0
  8  9  1  0
  8  6  1  0
  9 10  1  6
 11 10  1  0
 12 11  1  0
 12 13  2  0
 14 23  1  0
 14  9  1  0
 15 14  2  0
 16 12  1  0
 17 18  1  0
 18 19  2  0
 18 20  1  0
 20 21  1  0
 22 21  1  1
 22 23  1  0
 22 24  1  0
 24 25  1  0
 26 24  2  0
M  END
$$$$
