VEQ.pdb
     RDKit          3D

 26 25  0  0  1  0  0  0  0  0999 V2000
    7.4656  -12.5719   20.7751 C   0  0  0  0  0  0  0  0  0  0  0  0
    8.2520  -13.6025   21.5476 C   0  0  1  0  0  0  0  0  0  0  0  0
    7.6109  -13.7179   22.9340 C   0  0  0  0  0  0  0  0  0  0  0  0
    8.2391  -14.9631   20.9101 C   0  0  2  0  0  0  0  0  0  0  0  0
    6.8427  -15.3791   20.8497 N   0  0  0  0  0  0  0  0  0  0  0  0
    8.9548  -15.9318   21.7820 C   0  0  0  0  0  0  0  0  0  0  0  0
    8.3392  -16.6004   22.6759 O   0  0  0  0  0  0  0  0  0  0  0  0
   10.3376  -16.1625   21.6705 N   0  0  0  0  0  0  0  0  0  0  0  0
   11.0215  -17.2019   22.4708 C   0  0  1  0  0  0  0  0  0  0  0  0
   12.2737  -17.5379   21.6958 C   0  0  0  0  0  0  0  0  0  0  0  0
   13.1955  -18.4668   22.3804 C   0  0  0  0  0  0  0  0  0  0  0  0
   14.4640  -18.7217   21.6788 C   0  0  0  0  0  0  0  0  0  0  0  0
   15.4566  -19.2243   22.2497 O   0  0  0  0  0  0  0  0  0  0  0  0
   11.2932  -16.6593   23.8248 C   0  0  0  0  0  0  0  0  0  0  0  0
   11.8175  -15.5006   23.8861 O   0  0  0  0  0  0  0  0  0  0  0  0
   14.6069  -18.4080   20.3356 O   0  0  0  0  0  0  0  0  0  0  0  0
    9.2289  -12.7804   27.7451 N   0  0  0  0  0  0  0  0  0  0  0  0
    8.6444  -13.9028   27.0807 C   0  0  0  0  0  0  0  0  0  0  0  0
    7.5470  -13.6651   26.5071 O   0  0  0  0  0  0  0  0  0  0  0  0
    9.2916  -15.2227   27.0802 C   0  0  0  0  0  0  0  0  0  0  0  0
   10.5149  -15.3443   26.2515 C   0  0  0  0  0  0  0  0  0  0  0  0
   11.2403  -16.6261   26.2887 C   0  0  2  0  0  0  0  0  0  0  0  0
   11.0046  -17.3418   25.0256 N   0  0  0  0  0  0  0  0  0  0  0  0
   10.9838  -17.5057   27.4259 C   0  0  0  0  0  0  0  0  0  0  0  0
   10.4098  -18.7602   27.3370 O   0  0  0  0  0  0  0  0  0  0  0  0
   11.2950  -17.1267   28.5838 O   0  0  0  0  0  0  0  0  0  0  0  0
  2  4  1  0
  2  1  1  6
  3  2  1  0
  4  6  1  0
  4  5  1  1
  6  7  2  0
  8  9  1  0
  8  6  1  0
  9 10  1  6
 11 10  1  0
 12 11  1  0
 12 13  2  0
 14 23  1  0
 14  9  1  0
 15 14  2  0
 16 12  1  0
 17 18  1  0
 18 19  2  0
 18 20  1  0
 20 21  1  0
 22 21  1  1
 22 23  1  0
 22 24  1  0
 24 25  1  0
 26 24  2  0
M  END
$$$$
