VEQ.pdb
     RDKit          3D

 26 25  0  0  1  0  0  0  0  0999 V2000
    7.0375  -12.8916   20.1553 C   0  0  0  0  0  0  0  0  0  0  0  0
    7.9041  -13.7287   19.2468 C   0  0  1  0  0  0  0  0  0  0  0  0
    8.2858  -12.8531   18.0492 C   0  0  0  0  0  0  0  0  0  0  0  0
    9.1697  -14.2046   19.9021 C   0  0  2  0  0  0  0  0  0  0  0  0
    9.8334  -15.0748   18.9384 N   0  0  0  0  0  0  0  0  0  0  0  0
    8.8375  -15.0307   21.0928 C   0  0  0  0  0  0  0  0  0  0  0  0
    8.1688  -14.5521   22.0669 O   0  0  0  0  0  0  0  0  0  0  0  0
    9.2386  -16.3736   21.2102 N   0  0  0  0  0  0  0  0  0  0  0  0
    8.9421  -17.1728   22.4193 C   0  0  1  0  0  0  0  0  0  0  0  0
    9.5769  -18.5203   22.1684 C   0  0  0  0  0  0  0  0  0  0  0  0
   11.0345  -18.4843   21.9334 C   0  0  0  0  0  0  0  0  0  0  0  0
   11.6634  -19.7933   21.6939 C   0  0  0  0  0  0  0  0  0  0  0  0
   11.6017  -20.7282   22.5221 O   0  0  0  0  0  0  0  0  0  0  0  0
    9.4965  -16.4705   23.6029 C   0  0  0  0  0  0  0  0  0  0  0  0
   10.6699  -15.9893   23.4895 O   0  0  0  0  0  0  0  0  0  0  0  0
   12.3595  -20.0415   20.5206 O   0  0  0  0  0  0  0  0  0  0  0  0
    5.7031  -12.4689   25.9447 N   0  0  0  0  0  0  0  0  0  0  0  0
    6.8258  -12.9440   26.6909 C   0  0  0  0  0  0  0  0  0  0  0  0
    7.2575  -12.1433   27.5640 O   0  0  0  0  0  0  0  0  0  0  0  0
    7.4144  -14.2677   26.4412 C   0  0  0  0  0  0  0  0  0  0  0  0
    8.8570  -14.2814   26.0998 C   0  0  0  0  0  0  0  0  0  0  0  0
    9.5005  -15.5924   25.9060 C   0  0  2  0  0  0  0  0  0  0  0  0
    8.8068  -16.3061   24.8229 N   0  0  0  0  0  0  0  0  0  0  0  0
    9.6301  -16.4527   27.0789 C   0  0  0  0  0  0  0  0  0  0  0  0
    9.1207  -17.7343   27.1754 O   0  0  0  0  0  0  0  0  0  0  0  0
   10.2430  -16.0293   28.0920 O   0  0  0  0  0  0  0  0  0  0  0  0
  2  4  1  0
  2  1  1  1
  3  2  1  0
  4  6  1  0
  4  5  1  6
  6  7  2  0
  8  9  1  0
  8  6  1  0
  9 10  1  6
 11 10  1  0
 12 11  1  0
 12 13  2  0
 14 23  1  0
 14  9  1  0
 15 14  2  0
 16 12  1  0
 17 18  1  0
 18 19  2  0
 18 20  1  0
 20 21  1  0
 22 21  1  1
 22 23  1  0
 22 24  1  0
 24 25  1  0
 26 24  2  0
M  END
$$$$
