VEQ.pdb
     RDKit          3D

 26 25  0  0  1  0  0  0  0  0999 V2000
    9.6404  -12.5542   19.8743 C   0  0  0  0  0  0  0  0  0  0  0  0
    8.3751  -13.2536   19.4417 C   0  0  1  0  0  0  0  0  0  0  0  0
    7.4353  -12.1842   18.8763 C   0  0  0  0  0  0  0  0  0  0  0  0
    8.6008  -14.2898   18.3772 C   0  0  2  0  0  0  0  0  0  0  0  0
    7.3191  -14.9524   18.1657 N   0  0  0  0  0  0  0  0  0  0  0  0
    9.5563  -15.3161   18.8715 C   0  0  0  0  0  0  0  0  0  0  0  0
    9.2085  -16.1836   19.7385 O   0  0  0  0  0  0  0  0  0  0  0  0
   10.8845  -15.3868   18.4147 N   0  0  0  0  0  0  0  0  0  0  0  0
   11.8276  -16.4109   18.9154 C   0  0  1  0  0  0  0  0  0  0  0  0
   13.0033  -16.3628   17.9684 C   0  0  0  0  0  0  0  0  0  0  0  0
   14.1104  -17.2793   18.3083 C   0  0  0  0  0  0  0  0  0  0  0  0
   15.2878  -17.1931   17.4294 C   0  0  0  0  0  0  0  0  0  0  0  0
   16.0715  -16.2188   17.4521 O   0  0  0  0  0  0  0  0  0  0  0  0
   12.1856  -16.0843   20.3178 C   0  0  0  0  0  0  0  0  0  0  0  0
   12.3909  -14.8572   20.5888 O   0  0  0  0  0  0  0  0  0  0  0  0
   15.5757  -18.2069   16.5281 O   0  0  0  0  0  0  0  0  0  0  0  0
    9.1256  -15.7078   24.6653 N   0  0  0  0  0  0  0  0  0  0  0  0
   10.2263  -16.0711   25.5016 C   0  0  0  0  0  0  0  0  0  0  0  0
   10.1529  -15.6461   26.6864 O   0  0  0  0  0  0  0  0  0  0  0  0
   11.3461  -16.8784   24.9965 C   0  0  0  0  0  0  0  0  0  0  0  0
   11.3434  -17.1502   23.5390 C   0  0  0  0  0  0  0  0  0  0  0  0
   12.4132  -16.5420   22.7290 C   0  0  2  0  0  0  0  0  0  0  0  0
   12.3051  -17.0399   21.3492 N   0  0  0  0  0  0  0  0  0  0  0  0
   13.7828  -16.6866   23.2148 C   0  0  0  0  0  0  0  0  0  0  0  0
   14.7764  -17.3981   22.5684 O   0  0  0  0  0  0  0  0  0  0  0  0
   14.1172  -16.1374   24.2955 O   0  0  0  0  0  0  0  0  0  0  0  0
  2  4  1  0
  2  1  1  6
  3  2  1  0
  4  6  1  0
  4  5  1  1
  6  7  2  0
  8  9  1  0
  8  6  1  0
  9 10  1  6
 11 10  1  0
 12 11  1  0
 12 13  2  0
 14 23  1  0
 14  9  1  0
 15 14  2  0
 16 12  1  0
 17 18  1  0
 18 19  2  0
 18 20  1  0
 20 21  1  0
 22 21  1  1
 22 23  1  0
 22 24  1  0
 24 25  1  0
 26 24  2  0
M  END
$$$$
