VEQ.pdb
     RDKit          3D

 26 25  0  0  1  0  0  0  0  0999 V2000
    8.9134  -12.8443   21.6533 C   0  0  0  0  0  0  0  0  0  0  0  0
    7.8006  -13.5544   20.9222 C   0  0  1  0  0  0  0  0  0  0  0  0
    7.2344  -12.5722   19.8921 C   0  0  0  0  0  0  0  0  0  0  0  0
    8.2570  -14.7868   20.1938 C   0  0  2  0  0  0  0  0  0  0  0  0
    7.0871  -15.3172   19.5035 N   0  0  0  0  0  0  0  0  0  0  0  0
    8.6989  -15.8136   21.1742 C   0  0  0  0  0  0  0  0  0  0  0  0
    7.8635  -16.4190   21.9230 O   0  0  0  0  0  0  0  0  0  0  0  0
   10.0502  -16.1710   21.3289 N   0  0  0  0  0  0  0  0  0  0  0  0
   10.4765  -17.2091   22.2931 C   0  0  1  0  0  0  0  0  0  0  0  0
   11.6609  -17.8874   21.6462 C   0  0  0  0  0  0  0  0  0  0  0  0
   12.3719  -18.8505   22.5113 C   0  0  0  0  0  0  0  0  0  0  0  0
   13.5162  -19.5308   21.8836 C   0  0  0  0  0  0  0  0  0  0  0  0
   14.5177  -18.9100   21.4647 O   0  0  0  0  0  0  0  0  0  0  0  0
   10.8035  -16.5552   23.5842 C   0  0  0  0  0  0  0  0  0  0  0  0
   11.4210  -15.4431   23.5262 O   0  0  0  0  0  0  0  0  0  0  0  0
   13.5253  -20.9090   21.7312 O   0  0  0  0  0  0  0  0  0  0  0  0
    8.4789  -13.1212   29.1821 N   0  0  0  0  0  0  0  0  0  0  0  0
    8.6284  -13.7342   27.8996 C   0  0  0  0  0  0  0  0  0  0  0  0
    7.6791  -13.5211   27.0978 O   0  0  0  0  0  0  0  0  0  0  0  0
    9.8071  -14.5463   27.5648 C   0  0  0  0  0  0  0  0  0  0  0  0
    9.6683  -15.4349   26.3862 C   0  0  0  0  0  0  0  0  0  0  0  0
   10.8175  -16.2870   26.0343 C   0  0  2  0  0  0  0  0  0  0  0  0
   10.4708  -17.0856   24.8487 N   0  0  0  0  0  0  0  0  0  0  0  0
   11.3583  -17.1459   27.0842 C   0  0  0  0  0  0  0  0  0  0  0  0
   11.3829  -18.5273   27.0364 O   0  0  0  0  0  0  0  0  0  0  0  0
   11.8447  -16.6250   28.1203 O   0  0  0  0  0  0  0  0  0  0  0  0
  2  4  1  0
  2  1  1  6
  3  2  1  0
  4  6  1  0
  4  5  1  1
  6  7  2  0
  8  9  1  0
  8  6  1  0
  9 10  1  6
 11 10  1  0
 12 11  1  0
 12 13  2  0
 14 23  1  0
 14  9  1  0
 15 14  2  0
 16 12  1  0
 17 18  1  0
 18 19  2  0
 18 20  1  0
 20 21  1  0
 22 21  1  1
 22 23  1  0
 22 24  1  0
 24 25  1  0
 26 24  2  0
M  END
$$$$
