VEQ.pdb
     RDKit          3D

 26 25  0  0  1  0  0  0  0  0999 V2000
    7.9279  -12.4000   20.2221 C   0  0  0  0  0  0  0  0  0  0  0  0
    8.3789  -13.4558   21.2015 C   0  0  1  0  0  0  0  0  0  0  0  0
    7.3242  -13.5276   22.3100 C   0  0  0  0  0  0  0  0  0  0  0  0
    8.5087  -14.8214   20.5882 C   0  0  2  0  0  0  0  0  0  0  0  0
    7.1648  -15.2281   20.1945 N   0  0  0  0  0  0  0  0  0  0  0  0
    8.9839  -15.7879   21.6133 C   0  0  0  0  0  0  0  0  0  0  0  0
    8.1671  -16.4015   22.3758 O   0  0  0  0  0  0  0  0  0  0  0  0
   10.3479  -16.0766   21.7973 N   0  0  0  0  0  0  0  0  0  0  0  0
   10.8050  -17.0967   22.7665 C   0  0  1  0  0  0  0  0  0  0  0  0
   12.1500  -17.5547   22.2541 C   0  0  0  0  0  0  0  0  0  0  0  0
   12.1064  -18.3008   20.9802 C   0  0  0  0  0  0  0  0  0  0  0  0
   13.4173  -18.6937   20.4386 C   0  0  0  0  0  0  0  0  0  0  0  0
   13.5398  -19.2921   19.3474 O   0  0  0  0  0  0  0  0  0  0  0  0
   10.8657  -16.4801   24.1147 C   0  0  0  0  0  0  0  0  0  0  0  0
   11.6069  -15.4530   24.2452 O   0  0  0  0  0  0  0  0  0  0  0  0
   14.5846  -18.4098   21.1312 O   0  0  0  0  0  0  0  0  0  0  0  0
    7.9693  -11.7806   26.4051 N   0  0  0  0  0  0  0  0  0  0  0  0
    7.9146  -13.2081   26.3570 C   0  0  0  0  0  0  0  0  0  0  0  0
    6.7677  -13.6996   26.5377 O   0  0  0  0  0  0  0  0  0  0  0  0
    9.1165  -14.0189   26.1143 C   0  0  0  0  0  0  0  0  0  0  0  0
    9.1095  -15.3799   26.7021 C   0  0  0  0  0  0  0  0  0  0  0  0
   10.3048  -16.2171   26.5003 C   0  0  2  0  0  0  0  0  0  0  0  0
   10.1580  -16.9578   25.2381 N   0  0  0  0  0  0  0  0  0  0  0  0
   10.6739  -17.1261   27.5821 C   0  0  0  0  0  0  0  0  0  0  0  0
   11.1451  -16.7274   28.8191 O   0  0  0  0  0  0  0  0  0  0  0  0
   10.5680  -18.3673   27.4104 O   0  0  0  0  0  0  0  0  0  0  0  0
  2  4  1  0
  2  1  1  6
  3  2  1  0
  4  6  1  0
  4  5  1  1
  6  7  2  0
  8  9  1  0
  8  6  1  0
  9 10  1  6
 11 10  1  0
 12 11  1  0
 12 13  2  0
 14 23  1  0
 14  9  1  0
 15 14  2  0
 16 12  1  0
 17 18  1  0
 18 19  2  0
 18 20  1  0
 20 21  1  0
 22 21  1  1
 22 23  1  0
 22 24  1  0
 24 25  1  0
 26 24  2  0
M  END
$$$$
