ALD.pdb
     RDKit          3D

 22 21  0  0  1  0  0  0  0  0999 V2000
    6.4560  -16.3135   20.8215 C   0  0  0  0  0  0  0  0  0  0  0  0
    6.8531  -14.8696   21.0314 C   0  0  2  0  0  0  0  0  0  0  0  0
    7.6238  -14.3759   19.8797 N   0  0  0  0  0  0  0  0  0  0  0  0
    7.7007  -14.7261   22.2322 C   0  0  0  0  0  0  0  0  0  0  0  0
    8.9475  -14.8271   22.1303 O   0  0  0  0  0  0  0  0  0  0  0  0
    5.7709  -11.9244   26.7105 C   0  0  0  0  0  0  0  0  0  0  0  0
    6.6545  -12.3598   25.5293 C   0  0  1  0  0  0  0  0  0  0  0  0
    7.8568  -11.4081   25.5468 C   0  0  0  0  0  0  0  0  0  0  0  0
    7.2127  -13.7186   25.8381 C   0  0  0  0  0  0  0  0  0  0  0  0
    7.9311  -14.2969   24.7113 C   0  0  2  0  0  0  0  0  0  0  0  0
    7.1634  -14.4779   23.5010 N   0  0  0  0  0  0  0  0  0  0  0  0
    8.4554  -15.6449   25.0598 C   0  0  0  0  0  0  0  0  0  0  0  0
    7.7881  -16.7054   25.0659 O   0  0  0  0  0  0  0  0  0  0  0  0
    9.8366  -15.8133   25.4297 N   0  0  0  0  0  0  0  0  0  0  0  0
   10.3574  -17.1522   25.6863 C   0  0  1  0  0  0  0  0  0  0  0  0
   11.6664  -17.2274   24.9623 C   0  0  0  0  0  0  0  0  0  0  0  0
   12.4459  -18.4440   25.1761 C   0  0  0  0  0  0  0  0  0  0  0  0
   11.8523  -19.4031   25.7517 O   0  0  0  0  0  0  0  0  0  0  0  0
   10.5232  -17.3432   27.1534 C   0  0  0  0  0  0  0  0  0  0  0  0
   10.8927  -18.6143   27.5952 O   0  0  0  0  0  0  0  0  0  0  0  0
   13.7536  -18.6716   24.8256 O   0  0  0  0  0  0  0  0  0  0  0  0
   10.3535  -16.4453   27.9985 O   0  0  0  0  0  0  0  0  0  0  0  0
  2  1  1  6
  2  4  1  0
  2  3  1  0
  4  5  2  0
  7  6  1  1
  7  9  1  0
  8  7  1  0
 10  9  1  1
 10 11  1  0
 10 12  1  0
 11  4  1  0
 12 14  1  0
 13 12  2  0
 14 15  1  0
 15 19  1  0
 16 17  1  0
 15 16  1  6
 17 18  2  0
 19 22  2  0
 19 20  1  0
 21 17  1  0
M  END
$$$$
