ALD.pdb
     RDKit          3D

 22 21  0  0  1  0  0  0  0  0999 V2000
    7.1700  -19.9109   24.9442 C   0  0  0  0  0  0  0  0  0  0  0  0
    6.0011  -18.9557   24.8561 C   0  0  2  0  0  0  0  0  0  0  0  0
    5.0576  -19.3928   23.8154 N   0  0  0  0  0  0  0  0  0  0  0  0
    6.4579  -17.5962   24.5041 C   0  0  0  0  0  0  0  0  0  0  0  0
    6.6033  -17.2806   23.2981 O   0  0  0  0  0  0  0  0  0  0  0  0
    6.3017  -12.2318   25.3413 C   0  0  0  0  0  0  0  0  0  0  0  0
    7.4935  -12.9577   25.9879 C   0  0  1  0  0  0  0  0  0  0  0  0
    7.7261  -12.2472   27.3268 C   0  0  0  0  0  0  0  0  0  0  0  0
    7.0577  -14.3499   26.3418 C   0  0  0  0  0  0  0  0  0  0  0  0
    7.1081  -15.2574   25.2042 C   0  0  2  0  0  0  0  0  0  0  0  0
    6.7403  -16.6278   25.4750 N   0  0  0  0  0  0  0  0  0  0  0  0
    8.4836  -15.3147   24.6398 C   0  0  0  0  0  0  0  0  0  0  0  0
    9.1087  -14.3466   24.1480 O   0  0  0  0  0  0  0  0  0  0  0  0
    9.2122  -16.5564   24.6281 N   0  0  0  0  0  0  0  0  0  0  0  0
   10.4863  -16.6393   23.9212 C   0  0  1  0  0  0  0  0  0  0  0  0
   11.3971  -15.6663   24.6046 C   0  0  0  0  0  0  0  0  0  0  0  0
   12.7677  -15.6129   24.1025 C   0  0  0  0  0  0  0  0  0  0  0  0
   13.0349  -16.3480   23.1066 O   0  0  0  0  0  0  0  0  0  0  0  0
   11.0035  -18.0331   24.0006 C   0  0  0  0  0  0  0  0  0  0  0  0
   12.1449  -18.3351   23.2567 O   0  0  0  0  0  0  0  0  0  0  0  0
   13.8064  -14.8565   24.5858 O   0  0  0  0  0  0  0  0  0  0  0  0
   10.4830  -18.9337   24.6842 O   0  0  0  0  0  0  0  0  0  0  0  0
  2  1  1  6
  2  4  1  0
  2  3  1  0
  4  5  2  0
  7  6  1  1
  7  9  1  0
  8  7  1  0
 10  9  1  1
 10 11  1  0
 10 12  1  0
 11  4  1  0
 12 14  1  0
 13 12  2  0
 14 15  1  0
 15 19  1  0
 16 17  1  0
 15 16  1  1
 17 18  2  0
 19 22  2  0
 19 20  1  0
 21 17  1  0
M  END
$$$$
