ALD.pdb
     RDKit          3D

 22 21  0  0  1  0  0  0  0  0999 V2000
    7.6050  -17.1427   21.6321 C   0  0  0  0  0  0  0  0  0  0  0  0
    7.3912  -15.6524   21.7738 C   0  0  2  0  0  0  0  0  0  0  0  0
    7.8788  -14.9474   20.5782 N   0  0  0  0  0  0  0  0  0  0  0  0
    8.1296  -15.1233   22.9381 C   0  0  0  0  0  0  0  0  0  0  0  0
    9.3641  -14.9146   22.8505 O   0  0  0  0  0  0  0  0  0  0  0  0
    5.5599  -11.8380   26.5869 C   0  0  0  0  0  0  0  0  0  0  0  0
    6.5568  -12.4278   25.5751 C   0  0  1  0  0  0  0  0  0  0  0  0
    7.6071  -11.3330   25.3518 C   0  0  0  0  0  0  0  0  0  0  0  0
    7.2881  -13.5566   26.2418 C   0  0  0  0  0  0  0  0  0  0  0  0
    8.1497  -14.2850   25.3214 C   0  0  2  0  0  0  0  0  0  0  0  0
    7.5004  -14.8396   24.1562 N   0  0  0  0  0  0  0  0  0  0  0  0
    8.7952  -15.4365   26.0077 C   0  0  0  0  0  0  0  0  0  0  0  0
    8.2434  -16.5313   26.2664 O   0  0  0  0  0  0  0  0  0  0  0  0
   10.1671  -15.3502   26.4357 N   0  0  0  0  0  0  0  0  0  0  0  0
   10.7774  -16.4761   27.1355 C   0  0  1  0  0  0  0  0  0  0  0  0
   12.2409  -16.4058   26.8249 C   0  0  0  0  0  0  0  0  0  0  0  0
   12.5959  -16.4379   25.4084 C   0  0  0  0  0  0  0  0  0  0  0  0
   13.6536  -15.8264   25.0757 O   0  0  0  0  0  0  0  0  0  0  0  0
   10.5135  -16.3500   28.5952 C   0  0  0  0  0  0  0  0  0  0  0  0
   10.9750  -17.3770   29.4197 O   0  0  0  0  0  0  0  0  0  0  0  0
   11.9140  -17.0553   24.3893 O   0  0  0  0  0  0  0  0  0  0  0  0
    9.9124  -15.3928   29.1165 O   0  0  0  0  0  0  0  0  0  0  0  0
  2  1  1  6
  2  4  1  0
  2  3  1  0
  4  5  2  0
  7  6  1  1
  7  9  1  0
  8  7  1  0
 10  9  1  1
 10 11  1  0
 10 12  1  0
 11  4  1  0
 12 14  1  0
 13 12  2  0
 14 15  1  0
 15 19  1  0
 16 17  1  0
 15 16  1  1
 17 18  2  0
 19 22  2  0
 19 20  1  0
 21 17  1  0
M  END
$$$$
