ALD.pdb
     RDKit          3D

 22 21  0  0  1  0  0  0  0  0999 V2000
    6.8065  -14.2638   20.5888 C   0  0  0  0  0  0  0  0  0  0  0  0
    7.4651  -15.3184   21.4494 C   0  0  2  0  0  0  0  0  0  0  0  0
    6.4570  -16.2431   21.9906 N   0  0  0  0  0  0  0  0  0  0  0  0
    8.1669  -14.7015   22.5930 C   0  0  0  0  0  0  0  0  0  0  0  0
    9.1629  -13.9656   22.3892 O   0  0  0  0  0  0  0  0  0  0  0  0
    5.4921  -12.4905   26.8357 C   0  0  0  0  0  0  0  0  0  0  0  0
    6.4784  -12.7688   25.6889 C   0  0  1  0  0  0  0  0  0  0  0  0
    7.3600  -11.5174   25.5964 C   0  0  0  0  0  0  0  0  0  0  0  0
    7.3961  -13.8762   26.1189 C   0  0  0  0  0  0  0  0  0  0  0  0
    8.3357  -14.2603   25.0749 C   0  0  2  0  0  0  0  0  0  0  0  0
    7.7614  -14.9061   23.9173 N   0  0  0  0  0  0  0  0  0  0  0  0
    9.3481  -15.2129   25.6053 C   0  0  0  0  0  0  0  0  0  0  0  0
    9.9730  -15.0841   26.6836 O   0  0  0  0  0  0  0  0  0  0  0  0
    9.6831  -16.4021   24.8662 N   0  0  0  0  0  0  0  0  0  0  0  0
   10.7520  -17.2728   25.3449 C   0  0  1  0  0  0  0  0  0  0  0  0
   10.1863  -18.6595   25.3323 C   0  0  0  0  0  0  0  0  0  0  0  0
    9.6494  -19.1422   26.6021 C   0  0  0  0  0  0  0  0  0  0  0  0
   10.3487  -18.9192   27.6339 O   0  0  0  0  0  0  0  0  0  0  0  0
   11.9306  -17.1463   24.4442 C   0  0  0  0  0  0  0  0  0  0  0  0
   11.7582  -16.4236   23.2629 O   0  0  0  0  0  0  0  0  0  0  0  0
    8.4701  -19.8137   26.8101 O   0  0  0  0  0  0  0  0  0  0  0  0
   13.0476  -17.6419   24.6812 O   0  0  0  0  0  0  0  0  0  0  0  0
  2  1  1  1
  2  4  1  0
  2  3  1  0
  4  5  2  0
  7  6  1  1
  7  9  1  0
  8  7  1  0
 10  9  1  1
 10 11  1  0
 10 12  1  0
 11  4  1  0
 12 14  1  0
 13 12  2  0
 14 15  1  0
 15 19  1  0
 16 17  1  0
 15 16  1  6
 17 18  2  0
 19 22  2  0
 19 20  1  0
 21 17  1  0
M  END
$$$$
