ALD.pdb
     RDKit          3D

 22 21  0  0  1  0  0  0  0  0999 V2000
    7.4220  -15.7054   20.0161 C   0  0  0  0  0  0  0  0  0  0  0  0
    8.0321  -16.2431   21.2909 C   0  0  2  0  0  0  0  0  0  0  0  0
    7.1071  -17.1794   21.9482 N   0  0  0  0  0  0  0  0  0  0  0  0
    8.3128  -15.1490   22.2422 C   0  0  0  0  0  0  0  0  0  0  0  0
    9.1606  -14.2711   21.9494 O   0  0  0  0  0  0  0  0  0  0  0  0
    7.6008  -11.3717   25.7029 C   0  0  0  0  0  0  0  0  0  0  0  0
    7.1841  -12.6833   26.3895 C   0  0  1  0  0  0  0  0  0  0  0  0
    5.8820  -12.3592   27.1318 C   0  0  0  0  0  0  0  0  0  0  0  0
    6.8045  -13.6698   25.3236 C   0  0  0  0  0  0  0  0  0  0  0  0
    7.9325  -14.0458   24.4831 C   0  0  2  0  0  0  0  0  0  0  0  0
    7.6624  -15.0475   23.4778 N   0  0  0  0  0  0  0  0  0  0  0  0
    9.0417  -14.5945   25.3090 C   0  0  0  0  0  0  0  0  0  0  0  0
    9.4104  -14.1484   26.4202 O   0  0  0  0  0  0  0  0  0  0  0  0
    9.7941  -15.7329   24.8497 N   0  0  0  0  0  0  0  0  0  0  0  0
   10.4949  -16.5728   25.8159 C   0  0  1  0  0  0  0  0  0  0  0  0
    9.4314  -17.1736   26.6826 C   0  0  0  0  0  0  0  0  0  0  0  0
    9.8992  -18.0491   27.7541 C   0  0  0  0  0  0  0  0  0  0  0  0
   11.1337  -17.9955   28.0308 O   0  0  0  0  0  0  0  0  0  0  0  0
   11.2728  -17.6141   25.0900 C   0  0  0  0  0  0  0  0  0  0  0  0
   11.2056  -17.6071   23.6961 O   0  0  0  0  0  0  0  0  0  0  0  0
    9.1548  -18.9288   28.5002 O   0  0  0  0  0  0  0  0  0  0  0  0
   11.9715  -18.4800   25.6479 O   0  0  0  0  0  0  0  0  0  0  0  0
  2  1  1  6
  2  4  1  0
  2  3  1  0
  4  5  2  0
  7  6  1  6
  7  9  1  0
  8  7  1  0
 10  9  1  1
 10 11  1  0
 10 12  1  0
 11  4  1  0
 12 14  1  0
 13 12  2  0
 14 15  1  0
 15 19  1  0
 16 17  1  0
 15 16  1  1
 17 18  2  0
 19 22  2  0
 19 20  1  0
 21 17  1  0
M  END
$$$$
