ALD.pdb
     RDKit          3D

 22 21  0  0  1  0  0  0  0  0999 V2000
    7.1674  -16.7490   20.9039 C   0  0  0  0  0  0  0  0  0  0  0  0
    7.3984  -15.2707   21.1227 C   0  0  2  0  0  0  0  0  0  0  0  0
    8.2681  -14.7251   20.0691 N   0  0  0  0  0  0  0  0  0  0  0  0
    8.0604  -15.0280   22.4203 C   0  0  0  0  0  0  0  0  0  0  0  0
    9.3108  -15.0950   22.5039 O   0  0  0  0  0  0  0  0  0  0  0  0
    5.5869  -11.9615   26.4315 C   0  0  0  0  0  0  0  0  0  0  0  0
    6.6536  -12.4700   25.4471 C   0  0  1  0  0  0  0  0  0  0  0  0
    7.8882  -11.5951   25.6958 C   0  0  0  0  0  0  0  0  0  0  0  0
    7.0524  -13.8560   25.8635 C   0  0  0  0  0  0  0  0  0  0  0  0
    7.9164  -14.5056   24.8880 C   0  0  2  0  0  0  0  0  0  0  0  0
    7.3402  -14.7209   23.5809 N   0  0  0  0  0  0  0  0  0  0  0  0
    8.3329  -15.8502   25.3698 C   0  0  0  0  0  0  0  0  0  0  0  0
    7.6337  -16.8888   25.3212 O   0  0  0  0  0  0  0  0  0  0  0  0
    9.6362  -16.0416   25.9507 N   0  0  0  0  0  0  0  0  0  0  0  0
   10.0581  -17.3794   26.3532 C   0  0  1  0  0  0  0  0  0  0  0  0
   11.1664  -17.7569   25.4191 C   0  0  0  0  0  0  0  0  0  0  0  0
   11.8018  -19.0480   25.6701 C   0  0  0  0  0  0  0  0  0  0  0  0
   11.2838  -19.7678   26.5740 O   0  0  0  0  0  0  0  0  0  0  0  0
   10.5138  -17.3465   27.7701 C   0  0  0  0  0  0  0  0  0  0  0  0
   10.8532  -18.5642   28.3612 O   0  0  0  0  0  0  0  0  0  0  0  0
   12.9009  -19.5758   25.0391 O   0  0  0  0  0  0  0  0  0  0  0  0
   10.6087  -16.3080   28.4496 O   0  0  0  0  0  0  0  0  0  0  0  0
  2  1  1  6
  2  4  1  0
  2  3  1  0
  4  5  2  0
  7  6  1  1
  7  9  1  0
  8  7  1  0
 10  9  1  1
 10 11  1  0
 10 12  1  0
 11  4  1  0
 12 14  1  0
 13 12  2  0
 14 15  1  0
 15 19  1  0
 16 17  1  0
 15 16  1  6
 17 18  2  0
 19 22  2  0
 19 20  1  0
 21 17  1  0
M  END
$$$$
