ALD.pdb
     RDKit          3D

 22 21  0  0  1  0  0  0  0  0999 V2000
    6.4022  -19.2307   23.5276 C   0  0  0  0  0  0  0  0  0  0  0  0
    5.8375  -17.9766   22.8993 C   0  0  2  0  0  0  0  0  0  0  0  0
    5.8251  -18.0970   21.4332 N   0  0  0  0  0  0  0  0  0  0  0  0
    6.6590  -16.7990   23.2450 C   0  0  0  0  0  0  0  0  0  0  0  0
    7.5091  -16.3707   22.4271 O   0  0  0  0  0  0  0  0  0  0  0  0
    6.2446  -11.8003   26.7867 C   0  0  0  0  0  0  0  0  0  0  0  0
    7.1317  -12.6757   25.8856 C   0  0  1  0  0  0  0  0  0  0  0  0
    8.3267  -13.0791   26.7579 C   0  0  0  0  0  0  0  0  0  0  0  0
    6.3940  -13.9514   25.5994 C   0  0  0  0  0  0  0  0  0  0  0  0
    7.1834  -14.8891   24.8136 C   0  0  2  0  0  0  0  0  0  0  0  0
    6.5276  -16.1288   24.4672 N   0  0  0  0  0  0  0  0  0  0  0  0
    8.4176  -15.2790   25.5473 C   0  0  0  0  0  0  0  0  0  0  0  0
    9.2622  -14.4852   26.0230 O   0  0  0  0  0  0  0  0  0  0  0  0
    8.7255  -16.6688   25.7628 N   0  0  0  0  0  0  0  0  0  0  0  0
   10.0962  -17.1397   25.5923 C   0  0  1  0  0  0  0  0  0  0  0  0
   10.6800  -16.3086   24.4915 C   0  0  0  0  0  0  0  0  0  0  0  0
   12.0806  -16.5688   24.1683 C   0  0  0  0  0  0  0  0  0  0  0  0
   12.6362  -17.5244   24.7861 O   0  0  0  0  0  0  0  0  0  0  0  0
   10.8388  -16.9671   26.8711 C   0  0  0  0  0  0  0  0  0  0  0  0
   10.2766  -16.1209   27.8279 O   0  0  0  0  0  0  0  0  0  0  0  0
   12.8704  -15.8954   23.2697 O   0  0  0  0  0  0  0  0  0  0  0  0
   11.9189  -17.5273   27.1330 O   0  0  0  0  0  0  0  0  0  0  0  0
  2  1  1  1
  2  4  1  0
  2  3  1  0
  4  5  2  0
  7  6  1  1
  7  9  1  0
  8  7  1  0
 10  9  1  1
 10 11  1  0
 10 12  1  0
 11  4  1  0
 12 14  1  0
 13 12  2  0
 14 15  1  0
 15 19  1  0
 16 17  1  0
 15 16  1  6
 17 18  2  0
 19 22  2  0
 19 20  1  0
 21 17  1  0
M  END
$$$$
