ALD.pdb
     RDKit          3D

 22 21  0  0  1  0  0  0  0  0999 V2000
    7.3294  -14.7317   20.7756 C   0  0  0  0  0  0  0  0  0  0  0  0
    7.8394  -15.7046   21.8148 C   0  0  2  0  0  0  0  0  0  0  0  0
    6.7240  -16.4682   22.3951 N   0  0  0  0  0  0  0  0  0  0  0  0
    8.5150  -14.9909   22.9171 C   0  0  0  0  0  0  0  0  0  0  0  0
    9.6127  -14.4192   22.7087 O   0  0  0  0  0  0  0  0  0  0  0  0
    5.4458  -12.3356   26.5509 C   0  0  0  0  0  0  0  0  0  0  0  0
    6.5326  -12.7137   25.5304 C   0  0  1  0  0  0  0  0  0  0  0  0
    7.2674  -11.4056   25.2136 C   0  0  0  0  0  0  0  0  0  0  0  0
    7.5414  -13.5844   26.2216 C   0  0  0  0  0  0  0  0  0  0  0  0
    8.5161  -14.1503   25.2996 C   0  0  2  0  0  0  0  0  0  0  0  0
    7.9739  -14.9237   24.2066 N   0  0  0  0  0  0  0  0  0  0  0  0
    9.4461  -15.0644   26.0159 C   0  0  0  0  0  0  0  0  0  0  0  0
   10.1011  -14.7758   27.0443 O   0  0  0  0  0  0  0  0  0  0  0  0
    9.6552  -16.4067   25.5391 N   0  0  0  0  0  0  0  0  0  0  0  0
   10.5238  -17.3111   26.2857 C   0  0  1  0  0  0  0  0  0  0  0  0
    9.6475  -18.4376   26.7399 C   0  0  0  0  0  0  0  0  0  0  0  0
   10.2741  -19.4193   27.6215 C   0  0  0  0  0  0  0  0  0  0  0  0
   11.4220  -19.1271   28.0692 O   0  0  0  0  0  0  0  0  0  0  0  0
   11.6208  -17.7851   25.3976 C   0  0  0  0  0  0  0  0  0  0  0  0
   11.6330  -17.3084   24.0861 O   0  0  0  0  0  0  0  0  0  0  0  0
    9.7631  -20.6284   28.0238 O   0  0  0  0  0  0  0  0  0  0  0  0
   12.5169  -18.5723   25.7533 O   0  0  0  0  0  0  0  0  0  0  0  0
  2  1  1  6
  2  4  1  0
  2  3  1  0
  4  5  2  0
  7  6  1  1
  7  9  1  0
  8  7  1  0
 10  9  1  1
 10 11  1  0
 10 12  1  0
 11  4  1  0
 12 14  1  0
 13 12  2  0
 14 15  1  0
 15 19  1  0
 16 17  1  0
 15 16  1  6
 17 18  2  0
 19 22  2  0
 19 20  1  0
 21 17  1  0
M  END
$$$$
