ALD.pdb
     RDKit          3D

 22 21  0  0  1  0  0  0  0  0999 V2000
    7.5910  -13.5195   20.2548 C   0  0  0  0  0  0  0  0  0  0  0  0
    7.8304  -14.7973   21.0271 C   0  0  2  0  0  0  0  0  0  0  0  0
    6.5731  -15.5442   21.1871 N   0  0  0  0  0  0  0  0  0  0  0  0
    8.3533  -14.5061   22.3772 C   0  0  0  0  0  0  0  0  0  0  0  0
    9.4998  -14.0127   22.5081 O   0  0  0  0  0  0  0  0  0  0  0  0
    5.6964  -12.3512   26.7366 C   0  0  0  0  0  0  0  0  0  0  0  0
    6.8036  -12.6992   25.7274 C   0  0  1  0  0  0  0  0  0  0  0  0
    8.0511  -11.9542   26.2176 C   0  0  0  0  0  0  0  0  0  0  0  0
    7.1250  -14.1586   25.8695 C   0  0  0  0  0  0  0  0  0  0  0  0
    8.0999  -14.6142   24.8886 C   0  0  2  0  0  0  0  0  0  0  0  0
    7.6118  -14.7614   23.5369 N   0  0  0  0  0  0  0  0  0  0  0  0
    8.6413  -15.9472   25.2675 C   0  0  0  0  0  0  0  0  0  0  0  0
    7.9809  -17.0103   25.3264 O   0  0  0  0  0  0  0  0  0  0  0  0
   10.0327  -16.0961   25.6060 N   0  0  0  0  0  0  0  0  0  0  0  0
   10.5263  -17.3843   26.0820 C   0  0  1  0  0  0  0  0  0  0  0  0
   11.9252  -17.5042   25.5605 C   0  0  0  0  0  0  0  0  0  0  0  0
   12.0546  -17.7168   24.1212 C   0  0  0  0  0  0  0  0  0  0  0  0
   11.0008  -18.0446   23.5002 O   0  0  0  0  0  0  0  0  0  0  0  0
   10.4851  -17.4080   27.5700 C   0  0  0  0  0  0  0  0  0  0  0  0
   10.7732  -18.6202   28.1986 O   0  0  0  0  0  0  0  0  0  0  0  0
   13.1901  -17.6035   23.3580 O   0  0  0  0  0  0  0  0  0  0  0  0
   10.2121  -16.4209   28.2773 O   0  0  0  0  0  0  0  0  0  0  0  0
  2  1  1  1
  2  4  1  0
  2  3  1  0
  4  5  2  0
  7  6  1  1
  7  9  1  0
  8  7  1  0
 10  9  1  1
 10 11  1  0
 10 12  1  0
 11  4  1  0
 12 14  1  0
 13 12  2  0
 14 15  1  0
 15 19  1  0
 16 17  1  0
 15 16  1  1
 17 18  2  0
 19 22  2  0
 19 20  1  0
 21 17  1  0
M  END
$$$$
