ALD.pdb
     RDKit          3D

 22 21  0  0  1  0  0  0  0  0999 V2000
    5.4430  -19.1087   21.2690 C   0  0  0  0  0  0  0  0  0  0  0  0
    6.8547  -18.8003   21.7146 C   0  0  2  0  0  0  0  0  0  0  0  0
    6.8501  -18.2006   23.0579 N   0  0  0  0  0  0  0  0  0  0  0  0
    7.4979  -17.8386   20.7968 C   0  0  0  0  0  0  0  0  0  0  0  0
    7.5739  -18.1016   19.5720 O   0  0  0  0  0  0  0  0  0  0  0  0
    7.3214  -12.5015   21.9074 C   0  0  0  0  0  0  0  0  0  0  0  0
    7.3279  -13.6661   20.9029 C   0  0  1  0  0  0  0  0  0  0  0  0
    7.1760  -13.0151   19.5228 C   0  0  0  0  0  0  0  0  0  0  0  0
    8.6970  -14.2817   20.9086 C   0  0  0  0  0  0  0  0  0  0  0  0
    8.6969  -15.6490   20.4079 C   0  0  2  0  0  0  0  0  0  0  0  0
    8.0356  -16.6252   21.2426 N   0  0  0  0  0  0  0  0  0  0  0  0
   10.0893  -16.1446   20.2364 C   0  0  0  0  0  0  0  0  0  0  0  0
   10.6458  -16.3844   19.1397 O   0  0  0  0  0  0  0  0  0  0  0  0
   10.9197  -16.3890   21.3868 N   0  0  0  0  0  0  0  0  0  0  0  0
   12.3361  -16.6893   21.2042 C   0  0  1  0  0  0  0  0  0  0  0  0
   12.9360  -15.4671   20.5799 C   0  0  0  0  0  0  0  0  0  0  0  0
   14.3782  -15.5083   20.3517 C   0  0  0  0  0  0  0  0  0  0  0  0
   14.8852  -16.6488   20.1377 O   0  0  0  0  0  0  0  0  0  0  0  0
   12.9491  -16.9945   22.5262 C   0  0  0  0  0  0  0  0  0  0  0  0
   14.2227  -17.5649   22.5242 O   0  0  0  0  0  0  0  0  0  0  0  0
   15.2539  -14.4511   20.3427 O   0  0  0  0  0  0  0  0  0  0  0  0
   12.3978  -16.7728   23.6199 O   0  0  0  0  0  0  0  0  0  0  0  0
  2  1  1  6
  2  4  1  0
  2  3  1  0
  4  5  2  0
  7  6  1  1
  7  9  1  0
  8  7  1  0
 10  9  1  1
 10 11  1  0
 10 12  1  0
 11  4  1  0
 12 14  1  0
 13 12  2  0
 14 15  1  0
 15 19  1  0
 16 17  1  0
 15 16  1  1
 17 18  2  0
 19 22  2  0
 19 20  1  0
 21 17  1  0
M  END
$$$$
