LKL.pdb
     RDKit          3D

 26 25  0  0  1  0  0  0  0  0999 V2000
    7.8367  -11.8595   19.5492 C   0  0  0  0  0  0  0  0  0  0  0  0
    8.0745  -13.3144   19.2414 C   0  0  1  0  0  0  0  0  0  0  0  0
    9.1886  -13.5319   18.2439 C   0  0  0  0  0  0  0  0  0  0  0  0
    8.1487  -14.1940   20.4245 C   0  0  0  0  0  0  0  0  0  0  0  0
    8.3770  -15.6424   20.2035 C   0  0  2  0  0  0  0  0  0  0  0  0
    7.3527  -16.3412   19.5075 N   0  0  0  0  0  0  0  0  0  0  0  0
    8.6097  -16.3067   21.4967 C   0  0  0  0  0  0  0  0  0  0  0  0
    7.7004  -16.3149   22.3637 O   0  0  0  0  0  0  0  0  0  0  0  0
    9.8216  -16.9578   21.8470 N   0  0  0  0  0  0  0  0  0  0  0  0
    9.9906  -17.5817   23.1362 C   0  0  1  0  0  0  0  0  0  0  0  0
   11.1694  -18.5434   23.1476 C   0  0  0  0  0  0  0  0  0  0  0  0
   11.4148  -19.1639   24.4826 C   0  0  0  0  0  0  0  0  0  0  0  0
   11.3154  -20.6472   24.3673 C   0  0  0  0  0  0  0  0  0  0  0  0
   11.4466  -21.3654   25.6818 C   0  0  0  0  0  0  0  0  0  0  0  0
   11.3270  -22.8024   25.4420 N   0  0  0  0  0  0  0  0  0  0  0  0
   10.2621  -16.5883   24.2048 C   0  0  0  0  0  0  0  0  0  0  0  0
   11.0370  -15.6308   23.9559 O   0  0  0  0  0  0  0  0  0  0  0  0
    9.4390  -12.7934   27.9428 C   0  0  0  0  0  0  0  0  0  0  0  0
    8.5617  -13.9943   27.8947 C   0  0  1  0  0  0  0  0  0  0  0  0
    7.1278  -13.4851   28.0415 C   0  0  0  0  0  0  0  0  0  0  0  0
    8.7208  -14.9664   26.8161 C   0  0  0  0  0  0  0  0  0  0  0  0
   10.0093  -15.6320   26.5425 C   0  0  2  0  0  0  0  0  0  0  0  0
    9.6907  -16.6617   25.4985 N   0  0  0  0  0  0  0  0  0  0  0  0
   10.5210  -16.3989   27.6653 C   0  0  0  0  0  0  0  0  0  0  0  0
   11.5597  -15.9597   28.2838 O   0  0  0  0  0  0  0  0  0  0  0  0
   10.0289  -17.5778   28.1899 O   0  0  0  0  0  0  0  0  0  0  0  0
  2  4  1  0
  2  1  1  1
  3  2  1  0
  4  5  1  0
  5  6  1  1
  7  5  1  0
  7  8  2  0
  9  7  1  0
 10  9  1  0
 10 11  1  6
 12 11  1  0
 13 14  1  0
 13 12  1  0
 15 14  1  0
 16 23  1  0
 16 10  1  0
 17 16  2  0
 19 18  1  6
 19 21  1  0
 20 19  1  0
 22 21  1  1
 22 23  1  0
 24 26  1  0
 24 22  1  0
 25 24  2  0
M  END
$$$$
