LKL.pdb
     RDKit          3D

 26 25  0  0  1  0  0  0  0  0999 V2000
    6.5229  -12.5766   18.5562 C   0  0  0  0  0  0  0  0  0  0  0  0
    7.7285  -13.4562   18.7583 C   0  0  1  0  0  0  0  0  0  0  0  0
    9.0332  -12.7350   18.5106 C   0  0  0  0  0  0  0  0  0  0  0  0
    7.7114  -14.2556   19.9991 C   0  0  0  0  0  0  0  0  0  0  0  0
    8.9356  -15.0108   20.3592 C   0  0  2  0  0  0  0  0  0  0  0  0
    9.3548  -16.0063   19.4345 N   0  0  0  0  0  0  0  0  0  0  0  0
    8.7575  -15.6356   21.6804 C   0  0  0  0  0  0  0  0  0  0  0  0
    7.8588  -15.2145   22.4509 O   0  0  0  0  0  0  0  0  0  0  0  0
    9.5496  -16.7104   22.1626 N   0  0  0  0  0  0  0  0  0  0  0  0
    9.3231  -17.2803   23.4679 C   0  0  1  0  0  0  0  0  0  0  0  0
   10.1786  -18.5169   23.7000 C   0  0  0  0  0  0  0  0  0  0  0  0
    9.8918  -19.2010   24.9950 C   0  0  0  0  0  0  0  0  0  0  0  0
   10.7781  -20.3919   25.1352 C   0  0  0  0  0  0  0  0  0  0  0  0
   10.4878  -21.2207   26.3558 C   0  0  0  0  0  0  0  0  0  0  0  0
   11.2618  -22.4580   26.2741 N   0  0  0  0  0  0  0  0  0  0  0  0
    9.6681  -16.3332   24.5571 C   0  0  0  0  0  0  0  0  0  0  0  0
   10.7646  -15.7217   24.5003 O   0  0  0  0  0  0  0  0  0  0  0  0
    6.0499  -12.8509   27.0103 C   0  0  0  0  0  0  0  0  0  0  0  0
    7.3914  -13.3347   26.5854 C   0  0  1  0  0  0  0  0  0  0  0  0
    8.3195  -12.1206   26.6286 C   0  0  0  0  0  0  0  0  0  0  0  0
    7.9664  -14.5225   27.2115 C   0  0  0  0  0  0  0  0  0  0  0  0
    9.2317  -15.1219   26.7446 C   0  0  2  0  0  0  0  0  0  0  0  0
    8.8224  -16.0796   25.6643 N   0  0  0  0  0  0  0  0  0  0  0  0
    9.8861  -15.9542   27.7394 C   0  0  0  0  0  0  0  0  0  0  0  0
   10.4854  -15.3780   28.7209 O   0  0  0  0  0  0  0  0  0  0  0  0
    9.9555  -17.3326   27.7884 O   0  0  0  0  0  0  0  0  0  0  0  0
  2  4  1  0
  2  1  1  1
  3  2  1  0
  4  5  1  0
  5  6  1  6
  7  5  1  0
  7  8  2  0
  9  7  1  0
 10  9  1  0
 10 11  1  1
 12 11  1  0
 13 14  1  0
 13 12  1  0
 15 14  1  0
 16 23  1  0
 16 10  1  0
 17 16  2  0
 19 18  1  1
 19 21  1  0
 20 19  1  0
 22 21  1  1
 22 23  1  0
 24 26  1  0
 24 22  1  0
 25 24  2  0
M  END
$$$$
