LKL.pdb
     RDKit          3D

 26 25  0  0  1  0  0  0  0  0999 V2000
    6.5547  -12.8222   17.8251 C   0  0  0  0  0  0  0  0  0  0  0  0
    7.8753  -13.4337   18.2127 C   0  0  1  0  0  0  0  0  0  0  0  0
    9.0083  -12.4338   18.2223 C   0  0  0  0  0  0  0  0  0  0  0  0
    7.8303  -14.3004   19.4068 C   0  0  0  0  0  0  0  0  0  0  0  0
    9.1121  -14.8235   19.9377 C   0  0  2  0  0  0  0  0  0  0  0  0
    9.8539  -15.6697   19.0685 N   0  0  0  0  0  0  0  0  0  0  0  0
    8.8662  -15.5393   21.2005 C   0  0  0  0  0  0  0  0  0  0  0  0
    7.9042  -15.1960   21.9322 O   0  0  0  0  0  0  0  0  0  0  0  0
    9.6591  -16.6207   21.6666 N   0  0  0  0  0  0  0  0  0  0  0  0
    9.3877  -17.2568   22.9322 C   0  0  1  0  0  0  0  0  0  0  0  0
   10.2876  -18.4617   23.1626 C   0  0  0  0  0  0  0  0  0  0  0  0
   10.1048  -19.5404   22.1476 C   0  0  0  0  0  0  0  0  0  0  0  0
   11.0936  -20.6287   22.3950 C   0  0  0  0  0  0  0  0  0  0  0  0
   10.9550  -21.7955   21.4567 C   0  0  0  0  0  0  0  0  0  0  0  0
   11.9935  -21.6963   20.4328 N   0  0  0  0  0  0  0  0  0  0  0  0
    9.6252  -16.3432   24.0773 C   0  0  0  0  0  0  0  0  0  0  0  0
   10.7766  -15.8669   24.2408 O   0  0  0  0  0  0  0  0  0  0  0  0
    8.5750  -12.0662   27.3839 C   0  0  0  0  0  0  0  0  0  0  0  0
    7.5570  -13.1412   27.2346 C   0  0  1  0  0  0  0  0  0  0  0  0
    6.1978  -12.4428   27.1906 C   0  0  0  0  0  0  0  0  0  0  0  0
    7.7186  -14.1544   26.1949 C   0  0  0  0  0  0  0  0  0  0  0  0
    8.9087  -15.0244   26.1244 C   0  0  2  0  0  0  0  0  0  0  0  0
    8.6170  -15.9766   25.0019 N   0  0  0  0  0  0  0  0  0  0  0  0
    9.0794  -15.8765   27.2887 C   0  0  0  0  0  0  0  0  0  0  0  0
    9.8863  -15.4934   28.2144 O   0  0  0  0  0  0  0  0  0  0  0  0
    8.4707  -17.0862   27.5589 O   0  0  0  0  0  0  0  0  0  0  0  0
  2  4  1  0
  2  1  1  1
  3  2  1  0
  4  5  1  0
  5  6  1  6
  7  5  1  0
  7  8  2  0
  9  7  1  0
 10  9  1  0
 10 11  1  1
 12 11  1  0
 13 14  1  0
 13 12  1  0
 15 14  1  0
 16 23  1  0
 16 10  1  0
 17 16  2  0
 19 18  1  6
 19 21  1  0
 20 19  1  0
 22 21  1  1
 22 23  1  0
 24 26  1  0
 24 22  1  0
 25 24  2  0
M  END
$$$$
