LKL.pdb
     RDKit          3D

 26 25  0  0  1  0  0  0  0  0999 V2000
    8.5891  -20.0329   18.2873 C   0  0  0  0  0  0  0  0  0  0  0  0
    9.8583  -20.0869   19.0962 C   0  0  1  0  0  0  0  0  0  0  0  0
   11.0181  -20.6860   18.3349 C   0  0  0  0  0  0  0  0  0  0  0  0
   10.1910  -18.8391   19.8113 C   0  0  0  0  0  0  0  0  0  0  0  0
    9.2583  -18.3683   20.8635 C   0  0  2  0  0  0  0  0  0  0  0  0
    7.8754  -18.5996   20.6272 N   0  0  0  0  0  0  0  0  0  0  0  0
    9.4654  -16.9294   21.0967 C   0  0  0  0  0  0  0  0  0  0  0  0
   10.6316  -16.4850   21.2426 O   0  0  0  0  0  0  0  0  0  0  0  0
    8.4138  -15.9787   21.1712 N   0  0  0  0  0  0  0  0  0  0  0  0
    8.6865  -14.5727   21.3412 C   0  0  1  0  0  0  0  0  0  0  0  0
    7.5195  -13.7118   20.8812 C   0  0  0  0  0  0  0  0  0  0  0  0
    7.1165  -13.9670   19.4670 C   0  0  0  0  0  0  0  0  0  0  0  0
    8.2876  -13.7510   18.5696 C   0  0  0  0  0  0  0  0  0  0  0  0
    7.9796  -13.9626   17.1131 C   0  0  0  0  0  0  0  0  0  0  0  0
    9.2025  -13.7472   16.3418 N   0  0  0  0  0  0  0  0  0  0  0  0
    8.9214  -14.2185   22.7631 C   0  0  0  0  0  0  0  0  0  0  0  0
    9.4890  -13.1290   23.0279 O   0  0  0  0  0  0  0  0  0  0  0  0
    7.8020  -12.0874   27.2721 C   0  0  0  0  0  0  0  0  0  0  0  0
    6.9848  -13.2106   26.7384 C   0  0  1  0  0  0  0  0  0  0  0  0
    5.5279  -12.7528   26.8079 C   0  0  0  0  0  0  0  0  0  0  0  0
    7.3372  -13.8204   25.4588 C   0  0  0  0  0  0  0  0  0  0  0  0
    8.6039  -14.5512   25.2594 C   0  0  2  0  0  0  0  0  0  0  0  0
    8.5373  -15.0477   23.8449 N   0  0  0  0  0  0  0  0  0  0  0  0
    8.7159  -15.7564   26.0629 C   0  0  0  0  0  0  0  0  0  0  0  0
    7.9819  -16.7671   25.7558 O   0  0  0  0  0  0  0  0  0  0  0  0
    9.5353  -15.9850   27.1507 O   0  0  0  0  0  0  0  0  0  0  0  0
  2  4  1  0
  2  1  1  6
  3  2  1  0
  4  5  1  0
  5  6  1  6
  7  5  1  0
  7  8  2  0
  9  7  1  0
 10  9  1  0
 10 11  1  1
 12 11  1  0
 13 14  1  0
 13 12  1  0
 15 14  1  0
 16 23  1  0
 16 10  1  0
 17 16  2  0
 19 18  1  6
 19 21  1  0
 20 19  1  0
 22 21  1  1
 22 23  1  0
 24 26  1  0
 24 22  1  0
 25 24  2  0
M  END
$$$$
