LKL.pdb
     RDKit          3D

 26 25  0  0  1  0  0  0  0  0999 V2000
    5.4810  -11.6558   26.3558 C   0  0  0  0  0  0  0  0  0  0  0  0
    6.1743  -12.0494   25.0781 C   0  0  1  0  0  0  0  0  0  0  0  0
    7.0055  -10.9330   24.4898 C   0  0  0  0  0  0  0  0  0  0  0  0
    6.8670  -13.3521   25.1249 C   0  0  0  0  0  0  0  0  0  0  0  0
    7.5861  -13.8037   23.9093 C   0  0  2  0  0  0  0  0  0  0  0  0
    6.8322  -13.8237   22.7039 N   0  0  0  0  0  0  0  0  0  0  0  0
    8.1476  -15.1451   24.1397 C   0  0  0  0  0  0  0  0  0  0  0  0
    7.9655  -15.7135   25.2453 O   0  0  0  0  0  0  0  0  0  0  0  0
    8.9021  -15.8651   23.1765 N   0  0  0  0  0  0  0  0  0  0  0  0
    9.5759  -17.0933   23.5192 C   0  0  1  0  0  0  0  0  0  0  0  0
   10.2662  -17.7137   22.3138 C   0  0  0  0  0  0  0  0  0  0  0  0
   10.8904  -19.0377   22.6049 C   0  0  0  0  0  0  0  0  0  0  0  0
   11.4949  -19.5874   21.3576 C   0  0  0  0  0  0  0  0  0  0  0  0
   12.1518  -20.9271   21.5443 C   0  0  0  0  0  0  0  0  0  0  0  0
   12.6543  -21.3845   20.2500 N   0  0  0  0  0  0  0  0  0  0  0  0
   10.6369  -16.8822   24.5352 C   0  0  0  0  0  0  0  0  0  0  0  0
   11.5152  -16.0099   24.3183 O   0  0  0  0  0  0  0  0  0  0  0  0
   12.0225  -14.4872   28.7369 C   0  0  0  0  0  0  0  0  0  0  0  0
   11.0916  -15.6340   28.9171 C   0  0  1  0  0  0  0  0  0  0  0  0
    9.9490  -15.1258   29.7964 C   0  0  0  0  0  0  0  0  0  0  0  0
   10.6322  -16.3857   27.7520 C   0  0  0  0  0  0  0  0  0  0  0  0
   11.5615  -17.1365   26.8854 C   0  0  2  0  0  0  0  0  0  0  0  0
   10.7131  -17.6158   25.7442 N   0  0  0  0  0  0  0  0  0  0  0  0
   12.0739  -18.3525   27.4931 C   0  0  0  0  0  0  0  0  0  0  0  0
   13.3223  -18.4048   27.7989 O   0  0  0  0  0  0  0  0  0  0  0  0
   11.3840  -19.5066   27.8084 O   0  0  0  0  0  0  0  0  0  0  0  0
  2  4  1  0
  2  1  1  1
  3  2  1  0
  4  5  1  0
  5  6  1  6
  7  5  1  0
  7  8  2  0
  9  7  1  0
 10  9  1  0
 10 11  1  6
 12 11  1  0
 13 14  1  0
 13 12  1  0
 15 14  1  0
 16 23  1  0
 16 10  1  0
 17 16  2  0
 19 18  1  6
 19 21  1  0
 20 19  1  0
 22 21  1  1
 22 23  1  0
 24 26  1  0
 24 22  1  0
 25 24  2  0
M  END
$$$$
