LKL.pdb
     RDKit          3D

 26 25  0  0  1  0  0  0  0  0999 V2000
    7.6070  -12.4051   18.0859 C   0  0  0  0  0  0  0  0  0  0  0  0
    8.1310  -13.7600   18.4831 C   0  0  1  0  0  0  0  0  0  0  0  0
    9.6403  -13.8337   18.4776 C   0  0  0  0  0  0  0  0  0  0  0  0
    7.5069  -14.3362   19.6904 C   0  0  0  0  0  0  0  0  0  0  0  0
    8.0282  -15.6291   20.1956 C   0  0  2  0  0  0  0  0  0  0  0  0
    7.7715  -16.7698   19.3863 N   0  0  0  0  0  0  0  0  0  0  0  0
    7.5003  -15.8781   21.5473 C   0  0  0  0  0  0  0  0  0  0  0  0
    6.6827  -15.0697   22.0537 O   0  0  0  0  0  0  0  0  0  0  0  0
    7.8575  -16.9972   22.3444 N   0  0  0  0  0  0  0  0  0  0  0  0
    7.3152  -17.1765   23.6687 C   0  0  1  0  0  0  0  0  0  0  0  0
    7.4390  -18.6181   24.1389 C   0  0  0  0  0  0  0  0  0  0  0  0
    6.5048  -19.5506   23.4425 C   0  0  0  0  0  0  0  0  0  0  0  0
    6.8171  -20.9541   23.8374 C   0  0  0  0  0  0  0  0  0  0  0  0
    5.8686  -21.9690   23.2616 C   0  0  0  0  0  0  0  0  0  0  0  0
    6.2401  -23.2911   23.7623 N   0  0  0  0  0  0  0  0  0  0  0  0
    8.0266  -16.3538   24.6784 C   0  0  0  0  0  0  0  0  0  0  0  0
    9.2818  -16.4006   24.7192 O   0  0  0  0  0  0  0  0  0  0  0  0
    8.3579  -11.6436   25.8737 C   0  0  0  0  0  0  0  0  0  0  0  0
    7.6412  -12.2272   27.0399 C   0  0  1  0  0  0  0  0  0  0  0  0
    6.5042  -11.2611   27.3728 C   0  0  0  0  0  0  0  0  0  0  0  0
    7.2190  -13.6251   27.0068 C   0  0  0  0  0  0  0  0  0  0  0  0
    8.1349  -14.7130   26.6121 C   0  0  2  0  0  0  0  0  0  0  0  0
    7.3626  -15.5129   25.6043 N   0  0  0  0  0  0  0  0  0  0  0  0
    8.4200  -15.6539   27.6817 C   0  0  0  0  0  0  0  0  0  0  0  0
    7.5923  -16.6171   27.8862 O   0  0  0  0  0  0  0  0  0  0  0  0
    9.4995  -15.6672   28.5429 O   0  0  0  0  0  0  0  0  0  0  0  0
  2  4  1  0
  2  1  1  1
  3  2  1  0
  4  5  1  0
  5  6  1  6
  7  5  1  0
  7  8  2  0
  9  7  1  0
 10  9  1  0
 10 11  1  1
 12 11  1  0
 13 14  1  0
 13 12  1  0
 15 14  1  0
 16 23  1  0
 16 10  1  0
 17 16  2  0
 19 18  1  6
 19 21  1  0
 20 19  1  0
 22 21  1  1
 22 23  1  0
 24 26  1  0
 24 22  1  0
 25 24  2  0
M  END
$$$$
