LKL.pdb
     RDKit          3D

 26 25  0  0  1  0  0  0  0  0999 V2000
    7.1067  -12.3104   17.8757 C   0  0  0  0  0  0  0  0  0  0  0  0
    8.0278  -13.3551   18.4487 C   0  0  1  0  0  0  0  0  0  0  0  0
    9.4468  -12.8628   18.6158 C   0  0  0  0  0  0  0  0  0  0  0  0
    7.4982  -14.0692   19.6270 C   0  0  0  0  0  0  0  0  0  0  0  0
    8.3987  -15.0108   20.3349 C   0  0  2  0  0  0  0  0  0  0  0  0
    8.8369  -16.1407   19.5912 N   0  0  0  0  0  0  0  0  0  0  0  0
    7.7483  -15.4791   21.5700 C   0  0  0  0  0  0  0  0  0  0  0  0
    6.9549  -14.7202   22.1807 O   0  0  0  0  0  0  0  0  0  0  0  0
    7.9577  -16.7629   22.1388 N   0  0  0  0  0  0  0  0  0  0  0  0
    7.3495  -17.1342   23.3927 C   0  0  1  0  0  0  0  0  0  0  0  0
    7.2880  -18.6445   23.5647 C   0  0  0  0  0  0  0  0  0  0  0  0
    6.3268  -19.3079   22.6355 C   0  0  0  0  0  0  0  0  0  0  0  0
    6.4101  -20.7868   22.8066 C   0  0  0  0  0  0  0  0  0  0  0  0
    5.4983  -21.5534   21.8890 C   0  0  0  0  0  0  0  0  0  0  0  0
    5.6493  -22.9805   22.1670 N   0  0  0  0  0  0  0  0  0  0  0  0
    8.1136  -16.6201   24.5564 C   0  0  0  0  0  0  0  0  0  0  0  0
    9.3560  -16.8057   24.5923 O   0  0  0  0  0  0  0  0  0  0  0  0
    6.3218  -12.0707   26.9679 C   0  0  0  0  0  0  0  0  0  0  0  0
    7.2629  -13.1074   26.4642 C   0  0  1  0  0  0  0  0  0  0  0  0
    8.4980  -12.3592   25.9625 C   0  0  0  0  0  0  0  0  0  0  0  0
    7.5873  -14.2606   27.2999 C   0  0  0  0  0  0  0  0  0  0  0  0
    8.3397  -15.4195   26.7814 C   0  0  2  0  0  0  0  0  0  0  0  0
    7.5138  -15.9268   25.6358 N   0  0  0  0  0  0  0  0  0  0  0  0
    8.4025  -16.5373   27.7073 C   0  0  0  0  0  0  0  0  0  0  0  0
    7.5059  -17.4554   27.6200 O   0  0  0  0  0  0  0  0  0  0  0  0
    9.3281  -16.7689   28.7057 O   0  0  0  0  0  0  0  0  0  0  0  0
  2  4  1  0
  2  1  1  1
  3  2  1  0
  4  5  1  0
  5  6  1  6
  7  5  1  0
  7  8  2  0
  9  7  1  0
 10  9  1  0
 10 11  1  1
 12 11  1  0
 13 14  1  0
 13 12  1  0
 15 14  1  0
 16 23  1  0
 16 10  1  0
 17 16  2  0
 19 18  1  1
 19 21  1  0
 20 19  1  0
 22 21  1  1
 22 23  1  0
 24 26  1  0
 24 22  1  0
 25 24  2  0
M  END
$$$$
