LKL.pdb
     RDKit          3D

 26 25  0  0  1  0  0  0  0  0999 V2000
    6.9246  -10.9903   27.0357 C   0  0  0  0  0  0  0  0  0  0  0  0
    6.1403  -12.0205   26.2666 C   0  0  1  0  0  0  0  0  0  0  0  0
    5.3759  -11.4325   25.1031 C   0  0  0  0  0  0  0  0  0  0  0  0
    6.8895  -13.2478   25.9329 C   0  0  0  0  0  0  0  0  0  0  0  0
    6.1711  -14.3315   25.2200 C   0  0  2  0  0  0  0  0  0  0  0  0
    5.1105  -14.9565   25.9314 N   0  0  0  0  0  0  0  0  0  0  0  0
    7.1321  -15.3640   24.7977 C   0  0  0  0  0  0  0  0  0  0  0  0
    7.4353  -16.2915   25.5891 O   0  0  0  0  0  0  0  0  0  0  0  0
    7.7601  -15.3897   23.5248 N   0  0  0  0  0  0  0  0  0  0  0  0
    8.8443  -16.2982   23.2434 C   0  0  1  0  0  0  0  0  0  0  0  0
    9.2748  -16.2288   21.7858 C   0  0  0  0  0  0  0  0  0  0  0  0
   10.2877  -17.2611   21.4175 C   0  0  0  0  0  0  0  0  0  0  0  0
   10.0948  -17.6614   19.9941 C   0  0  0  0  0  0  0  0  0  0  0  0
   11.0553  -18.7207   19.5290 C   0  0  0  0  0  0  0  0  0  0  0  0
   10.7163  -19.0868   18.1551 N   0  0  0  0  0  0  0  0  0  0  0  0
   10.0548  -15.9861   24.0433 C   0  0  0  0  0  0  0  0  0  0  0  0
   10.7309  -14.9700   23.7435 O   0  0  0  0  0  0  0  0  0  0  0  0
    9.6931  -15.3607   29.1920 C   0  0  0  0  0  0  0  0  0  0  0  0
   10.1625  -15.3573   27.7799 C   0  0  1  0  0  0  0  0  0  0  0  0
   10.5413  -13.9120   27.4565 C   0  0  0  0  0  0  0  0  0  0  0  0
   11.1651  -16.3270   27.3462 C   0  0  0  0  0  0  0  0  0  0  0  0
   11.6737  -16.3648   25.9613 C   0  0  2  0  0  0  0  0  0  0  0  0
   10.4917  -16.7770   25.1338 N   0  0  0  0  0  0  0  0  0  0  0  0
   12.6605  -17.4055   25.7293 C   0  0  0  0  0  0  0  0  0  0  0  0
   12.2545  -18.5508   25.3072 O   0  0  0  0  0  0  0  0  0  0  0  0
   14.0295  -17.3379   25.8980 O   0  0  0  0  0  0  0  0  0  0  0  0
  2  4  1  0
  2  1  1  6
  3  2  1  0
  4  5  1  0
  5  6  1  1
  7  5  1  0
  7  8  2  0
  9  7  1  0
 10  9  1  0
 10 11  1  6
 12 11  1  0
 13 14  1  0
 13 12  1  0
 15 14  1  0
 16 23  1  0
 16 10  1  0
 17 16  2  0
 19 18  1  1
 19 21  1  0
 20 19  1  0
 22 21  1  1
 22 23  1  0
 24 26  1  0
 24 22  1  0
 25 24  2  0
M  END
$$$$
