VHR.pdb
     RDKit          3D

 29 29  0  0  1  0  0  0  0  0999 V2000
   22.2695  -17.9912  -16.6829 C   0  0  0  0  0  0  0  0  0  0  0  0
   23.4350  -18.3990  -15.8553 C   0  0  2  0  0  0  0  0  0  0  0  0
   24.6942  -18.2651  -16.7199 C   0  0  0  0  0  0  0  0  0  0  0  0
   23.3420  -19.7852  -15.2647 C   0  0  2  0  0  0  0  0  0  0  0  0
   23.1128  -20.7354  -16.3059 N   0  0  0  0  0  0  0  0  0  0  0  0
   22.2260  -19.8158  -14.2887 C   0  0  0  0  0  0  0  0  0  0  0  0
   22.3253  -19.1682  -13.2398 O   0  0  0  0  0  0  0  0  0  0  0  0
   21.0318  -20.5358  -14.4562 N   0  0  0  0  0  0  0  0  0  0  0  0
   19.9421  -20.5435  -13.5894 C   0  0  1  0  0  0  0  0  0  0  0  0
   18.7494  -19.7005  -13.7993 C   0  0  0  0  0  0  0  0  0  0  0  0
   19.0058  -18.2835  -13.4831 C   0  0  0  0  0  0  0  0  0  0  0  0
   20.1516  -17.7104  -13.0240 C   0  0  0  0  0  0  0  0  0  0  0  0
   19.9896  -16.3769  -12.8766 N   0  0  0  0  0  0  0  0  0  0  0  0
   18.7442  -16.0954  -13.2404 C   0  0  0  0  0  0  0  0  0  0  0  0
   18.1338  -17.2335  -13.6100 N   0  0  0  0  0  0  0  0  0  0  0  0
   19.5302  -21.9307  -13.2892 C   0  0  0  0  0  0  0  0  0  0  0  0
   19.6081  -22.8486  -14.1858 O   0  0  0  0  0  0  0  0  0  0  0  0
   17.1481  -26.7666   -6.5326 N   0  0  0  0  0  0  0  0  0  0  0  0
   18.0512  -25.6694   -6.4369 C   0  0  0  0  0  0  0  0  0  0  0  0
   18.6950  -25.4709   -5.3362 N   0  0  0  0  0  0  0  0  0  0  0  0
   18.2584  -24.7881   -7.5292 N   0  0  0  0  0  0  0  0  0  0  0  0
   17.2231  -24.5156   -8.5103 C   0  0  0  0  0  0  0  0  0  0  0  0
   17.6850  -23.4802   -9.5173 C   0  0  0  0  0  0  0  0  0  0  0  0
   18.7860  -24.1090  -10.3289 C   0  0  0  0  0  0  0  0  0  0  0  0
   18.6454  -23.7637  -11.8137 C   0  0  2  0  0  0  0  0  0  0  0  0
   19.0298  -22.3859  -12.0474 N   0  0  0  0  0  0  0  0  0  0  0  0
   17.2098  -23.8992  -12.1342 C   0  0  0  0  0  0  0  0  0  0  0  0
   16.7007  -24.9742  -12.5644 O   0  0  0  0  0  0  0  0  0  0  0  0
   16.3808  -22.8085  -11.9588 O   0  0  0  0  0  0  0  0  0  0  0  0
  2  1  1  6
  2  4  1  0
  2  3  1  0
  4  5  1  6
  6  4  1  0
  7  6  2  0
  8  6  1  0
  9  8  1  0
  9 10  1  6
 10 11  1  0
 11 12  2  0
 11 15  1  0
 12 13  1  0
 13 14  1  0
 15 14  2  0
 16 26  1  0
 16  9  1  0
 17 16  2  0
 18 19  1  0
 19 21  1  0
 19 20  2  0
 21 22  1  0
 22 23  1  0
 23 24  1  0
 25 24  1  1
 25 26  1  0
 25 27  1  0
 27 29  1  0
 28 27  2  0
M  END
$$$$
