VHR.pdb
     RDKit          3D

 29 29  0  0  1  0  0  0  0  0999 V2000
   26.6228  -22.7065  -16.2585 C   0  0  0  0  0  0  0  0  0  0  0  0
   25.2220  -22.3077  -15.9613 C   0  0  2  0  0  0  0  0  0  0  0  0
   24.3082  -23.4734  -16.3575 C   0  0  0  0  0  0  0  0  0  0  0  0
   24.7698  -21.0297  -16.6257 C   0  0  2  0  0  0  0  0  0  0  0  0
   25.7518  -20.0122  -16.4257 N   0  0  0  0  0  0  0  0  0  0  0  0
   23.4748  -20.6151  -16.0343 C   0  0  0  0  0  0  0  0  0  0  0  0
   23.3689  -20.5464  -14.8041 O   0  0  0  0  0  0  0  0  0  0  0  0
   22.3252  -20.2833  -16.7699 N   0  0  0  0  0  0  0  0  0  0  0  0
   21.1158  -19.8264  -16.2530 C   0  0  1  0  0  0  0  0  0  0  0  0
   20.2971  -18.7997  -16.9260 C   0  0  0  0  0  0  0  0  0  0  0  0
   19.1694  -18.3498  -16.0897 C   0  0  0  0  0  0  0  0  0  0  0  0
   17.8487  -18.6552  -16.2104 C   0  0  0  0  0  0  0  0  0  0  0  0
   17.1318  -18.0580  -15.2329 N   0  0  0  0  0  0  0  0  0  0  0  0
   17.9897  -17.3720  -14.4873 C   0  0  0  0  0  0  0  0  0  0  0  0
   19.2253  -17.5355  -14.9884 N   0  0  0  0  0  0  0  0  0  0  0  0
   20.2629  -20.9643  -15.8504 C   0  0  0  0  0  0  0  0  0  0  0  0
   20.2271  -22.0403  -16.5527 O   0  0  0  0  0  0  0  0  0  0  0  0
   18.7691  -24.1819   -7.9201 N   0  0  0  0  0  0  0  0  0  0  0  0
   18.8092  -25.2263   -8.8877 C   0  0  0  0  0  0  0  0  0  0  0  0
   19.0434  -26.4367   -8.5062 N   0  0  0  0  0  0  0  0  0  0  0  0
   18.5966  -24.9630  -10.2654 N   0  0  0  0  0  0  0  0  0  0  0  0
   18.2943  -23.6320  -10.7608 C   0  0  0  0  0  0  0  0  0  0  0  0
   18.2094  -23.6199  -12.2749 C   0  0  0  0  0  0  0  0  0  0  0  0
   18.8306  -22.3318  -12.7451 C   0  0  0  0  0  0  0  0  0  0  0  0
   18.7519  -22.2032  -14.2686 C   0  0  2  0  0  0  0  0  0  0  0  0
   19.4319  -21.0006  -14.7068 N   0  0  0  0  0  0  0  0  0  0  0  0
   17.3184  -22.0642  -14.5969 C   0  0  0  0  0  0  0  0  0  0  0  0
   16.7068  -20.9581  -14.5483 O   0  0  0  0  0  0  0  0  0  0  0  0
   16.6082  -23.1870  -14.9744 O   0  0  0  0  0  0  0  0  0  0  0  0
  2  1  1  6
  2  4  1  0
  2  3  1  0
  4  5  1  1
  6  4  1  0
  7  6  2  0
  8  6  1  0
  9  8  1  0
  9 10  1  6
 10 11  1  0
 11 12  2  0
 11 15  1  0
 12 13  1  0
 13 14  1  0
 15 14  2  0
 16 26  1  0
 16  9  1  0
 17 16  2  0
 18 19  1  0
 19 21  1  0
 19 20  2  0
 21 22  1  0
 22 23  1  0
 23 24  1  0
 25 24  1  1
 25 26  1  0
 25 27  1  0
 27 29  1  0
 28 27  2  0
M  END
$$$$
