VHR.pdb
     RDKit          3D

 29 29  0  0  1  0  0  0  0  0999 V2000
   22.2515  -20.7293  -13.9349 C   0  0  0  0  0  0  0  0  0  0  0  0
   21.7876  -19.3901  -14.3830 C   0  0  2  0  0  0  0  0  0  0  0  0
   20.2678  -19.4594  -14.5734 C   0  0  0  0  0  0  0  0  0  0  0  0
   22.4557  -18.8710  -15.6334 C   0  0  2  0  0  0  0  0  0  0  0  0
   22.3018  -19.8209  -16.6886 N   0  0  0  0  0  0  0  0  0  0  0  0
   23.8942  -18.6486  -15.3503 C   0  0  0  0  0  0  0  0  0  0  0  0
   24.2210  -17.7628  -14.5516 O   0  0  0  0  0  0  0  0  0  0  0  0
   24.9482  -19.3770  -15.9258 N   0  0  0  0  0  0  0  0  0  0  0  0
   26.3077  -19.1929  -15.6877 C   0  0  1  0  0  0  0  0  0  0  0  0
   27.1606  -20.2348  -15.0844 C   0  0  0  0  0  0  0  0  0  0  0  0
   26.7217  -20.5956  -13.7239 C   0  0  0  0  0  0  0  0  0  0  0  0
   25.7205  -20.0482  -12.9822 C   0  0  0  0  0  0  0  0  0  0  0  0
   25.6183  -20.6726  -11.7881 N   0  0  0  0  0  0  0  0  0  0  0  0
   26.5504  -21.6176  -11.7639 C   0  0  0  0  0  0  0  0  0  0  0  0
   27.2272  -21.5872  -12.9239 N   0  0  0  0  0  0  0  0  0  0  0  0
   26.9705  -18.6314  -16.8834 C   0  0  0  0  0  0  0  0  0  0  0  0
   26.4396  -18.7529  -18.0477 O   0  0  0  0  0  0  0  0  0  0  0  0
   34.6924  -16.8764  -19.3147 N   0  0  0  0  0  0  0  0  0  0  0  0
   34.1336  -15.8256  -20.0971 C   0  0  0  0  0  0  0  0  0  0  0  0
   34.7393  -15.4414  -21.1699 N   0  0  0  0  0  0  0  0  0  0  0  0
   32.9219  -15.1910  -19.7206 N   0  0  0  0  0  0  0  0  0  0  0  0
   32.1431  -15.6280  -18.5756 C   0  0  0  0  0  0  0  0  0  0  0  0
   30.8761  -16.3355  -19.0159 C   0  0  0  0  0  0  0  0  0  0  0  0
   30.0970  -16.6681  -17.7715 C   0  0  0  0  0  0  0  0  0  0  0  0
   28.8450  -17.4840  -18.1039 C   0  0  2  0  0  0  0  0  0  0  0  0
   28.1996  -17.9322  -16.8860 N   0  0  0  0  0  0  0  0  0  0  0  0
   29.3134  -18.6763  -18.8394 C   0  0  0  0  0  0  0  0  0  0  0  0
   29.7553  -19.7106  -18.2607 O   0  0  0  0  0  0  0  0  0  0  0  0
   29.2702  -18.6687  -20.2199 O   0  0  0  0  0  0  0  0  0  0  0  0
  2  1  1  6
  2  4  1  0
  2  3  1  0
  4  5  1  6
  6  4  1  0
  7  6  2  0
  8  6  1  0
  9  8  1  0
  9 10  1  6
 10 11  1  0
 11 12  2  0
 11 15  1  0
 12 13  1  0
 13 14  1  0
 15 14  2  0
 16 26  1  0
 16  9  1  0
 17 16  2  0
 18 19  1  0
 19 21  1  0
 19 20  2  0
 21 22  1  0
 22 23  1  0
 23 24  1  0
 25 24  1  1
 25 26  1  0
 25 27  1  0
 27 29  1  0
 28 27  2  0
M  END
$$$$
