VHR.pdb
     RDKit          3D

 29 29  0  0  1  0  0  0  0  0999 V2000
   18.9994  -11.6930    5.1338 C   0  0  0  0  0  0  0  0  0  0  0  0
   18.8656  -12.8767    6.0230 C   0  0  2  0  0  0  0  0  0  0  0  0
   20.2092  -13.0856    6.7316 C   0  0  0  0  0  0  0  0  0  0  0  0
   18.4275  -14.1453    5.3318 C   0  0  2  0  0  0  0  0  0  0  0  0
   17.1981  -13.9155    4.6425 N   0  0  0  0  0  0  0  0  0  0  0  0
   18.2528  -15.2092    6.3499 C   0  0  0  0  0  0  0  0  0  0  0  0
   18.1838  -14.8949    7.5439 O   0  0  0  0  0  0  0  0  0  0  0  0
   18.1554  -16.5819    6.0688 N   0  0  0  0  0  0  0  0  0  0  0  0
   17.9754  -17.6053    6.9956 C   0  0  1  0  0  0  0  0  0  0  0  0
   17.1732  -18.8100    6.7087 C   0  0  0  0  0  0  0  0  0  0  0  0
   15.7275  -18.5226    6.6778 C   0  0  0  0  0  0  0  0  0  0  0  0
   15.0944  -17.3334    6.8705 C   0  0  0  0  0  0  0  0  0  0  0  0
   13.7574  -17.4806    6.7407 N   0  0  0  0  0  0  0  0  0  0  0  0
   13.5335  -18.7598    6.4652 C   0  0  0  0  0  0  0  0  0  0  0  0
   14.7106  -19.4056    6.4228 N   0  0  0  0  0  0  0  0  0  0  0  0
   19.2696  -17.9944    7.5939 C   0  0  0  0  0  0  0  0  0  0  0  0
   20.3512  -17.9620    6.9001 O   0  0  0  0  0  0  0  0  0  0  0  0
   23.0548  -16.7070   15.4260 N   0  0  0  0  0  0  0  0  0  0  0  0
   23.9413  -17.5819   14.7350 C   0  0  0  0  0  0  0  0  0  0  0  0
   25.0588  -17.9184   15.2857 N   0  0  0  0  0  0  0  0  0  0  0  0
   23.6203  -18.0926   13.4509 N   0  0  0  0  0  0  0  0  0  0  0  0
   22.3804  -17.7579   12.7732 C   0  0  0  0  0  0  0  0  0  0  0  0
   22.3002  -18.4335   11.4179 C   0  0  0  0  0  0  0  0  0  0  0  0
   20.9789  -18.0498   10.8071 C   0  0  0  0  0  0  0  0  0  0  0  0
   20.7622  -18.7579    9.4671 C   0  0  2  0  0  0  0  0  0  0  0  0
   19.4590  -18.4241    8.9278 N   0  0  0  0  0  0  0  0  0  0  0  0
   20.7799  -20.2059    9.7587 C   0  0  0  0  0  0  0  0  0  0  0  0
   19.7296  -20.9086    9.8119 O   0  0  0  0  0  0  0  0  0  0  0  0
   21.9930  -20.8266    9.9841 O   0  0  0  0  0  0  0  0  0  0  0  0
  2  1  1  6
  2  4  1  0
  2  3  1  0
  4  5  1  1
  6  4  1  0
  7  6  2  0
  8  6  1  0
  9  8  1  0
  9 10  1  6
 10 11  1  0
 11 12  2  0
 11 15  1  0
 12 13  1  0
 13 14  1  0
 15 14  2  0
 16 26  1  0
 16  9  1  0
 17 16  2  0
 18 19  1  0
 19 21  1  0
 19 20  2  0
 21 22  1  0
 22 23  1  0
 23 24  1  0
 25 24  1  1
 25 26  1  0
 25 27  1  0
 27 29  1  0
 28 27  2  0
M  END
$$$$
