VHR.pdb
     RDKit          3D

 29 29  0  0  1  0  0  0  0  0999 V2000
   20.2682  -10.4812  -22.1581 C   0  0  0  0  0  0  0  0  0  0  0  0
   19.7411   -9.7254  -20.9917 C   0  0  2  0  0  0  0  0  0  0  0  0
   18.6110   -8.8181  -21.4923 C   0  0  0  0  0  0  0  0  0  0  0  0
   20.7717   -8.9214  -20.2363 C   0  0  2  0  0  0  0  0  0  0  0  0
   21.7984   -9.7897  -19.7551 N   0  0  0  0  0  0  0  0  0  0  0  0
   20.1068   -8.2363  -19.1017 C   0  0  0  0  0  0  0  0  0  0  0  0
   19.8833   -8.8695  -18.0632 O   0  0  0  0  0  0  0  0  0  0  0  0
   19.6975   -6.8928  -19.1028 N   0  0  0  0  0  0  0  0  0  0  0  0
   19.1553   -6.1924  -18.0285 C   0  0  1  0  0  0  0  0  0  0  0  0
   19.7655   -4.9625  -17.4879 C   0  0  0  0  0  0  0  0  0  0  0  0
   21.0314   -5.2323  -16.7818 C   0  0  0  0  0  0  0  0  0  0  0  0
   21.5610   -6.4319  -16.4178 C   0  0  0  0  0  0  0  0  0  0  0  0
   22.7522   -6.2585  -15.8039 N   0  0  0  0  0  0  0  0  0  0  0  0
   22.9863   -4.9520  -15.7744 C   0  0  0  0  0  0  0  0  0  0  0  0
   21.9588   -4.3152  -16.3602 N   0  0  0  0  0  0  0  0  0  0  0  0
   17.7043   -5.9894  -18.2230 C   0  0  0  0  0  0  0  0  0  0  0  0
   17.2405   -5.6037  -19.3581 O   0  0  0  0  0  0  0  0  0  0  0  0
   10.3197   -7.5607  -13.3217 N   0  0  0  0  0  0  0  0  0  0  0  0
    9.8849   -7.0235  -14.5671 C   0  0  0  0  0  0  0  0  0  0  0  0
    8.6245   -6.9999  -14.8432 N   0  0  0  0  0  0  0  0  0  0  0  0
   10.8109   -6.5124  -15.5127 N   0  0  0  0  0  0  0  0  0  0  0  0
   12.2467   -6.6000  -15.3144 C   0  0  0  0  0  0  0  0  0  0  0  0
   12.9968   -6.1410  -16.5499 C   0  0  0  0  0  0  0  0  0  0  0  0
   14.4613   -6.3787  -16.2950 C   0  0  0  0  0  0  0  0  0  0  0  0
   15.3170   -5.8479  -17.4482 C   0  0  2  0  0  0  0  0  0  0  0  0
   16.7104   -6.1860  -17.2366 N   0  0  0  0  0  0  0  0  0  0  0  0
   15.1920   -4.3765  -17.4107 C   0  0  0  0  0  0  0  0  0  0  0  0
   14.2742   -3.7496  -18.0143 O   0  0  0  0  0  0  0  0  0  0  0  0
   16.1143   -3.6465  -16.6866 O   0  0  0  0  0  0  0  0  0  0  0  0
  2  1  1  6
  2  4  1  0
  2  3  1  0
  4  5  1  1
  6  4  1  0
  7  6  2  0
  8  6  1  0
  9  8  1  0
  9 10  1  6
 10 11  1  0
 11 12  2  0
 11 15  1  0
 12 13  1  0
 13 14  1  0
 15 14  2  0
 16 26  1  0
 16  9  1  0
 17 16  2  0
 18 19  1  0
 19 21  1  0
 19 20  2  0
 21 22  1  0
 22 23  1  0
 23 24  1  0
 25 24  1  1
 25 26  1  0
 25 27  1  0
 27 29  1  0
 28 27  2  0
M  END
$$$$
