VHR.pdb
     RDKit          3D

 29 29  0  0  1  0  0  0  0  0999 V2000
   18.6342  -25.4127  -12.4973 C   0  0  0  0  0  0  0  0  0  0  0  0
   18.1665  -24.9306  -11.1712 C   0  0  2  0  0  0  0  0  0  0  0  0
   18.4923  -23.4355  -11.0739 C   0  0  0  0  0  0  0  0  0  0  0  0
   18.7342  -25.6753   -9.9871 C   0  0  2  0  0  0  0  0  0  0  0  0
   18.5258  -27.0778  -10.1582 N   0  0  0  0  0  0  0  0  0  0  0  0
   18.0568  -25.2034   -8.7553 C   0  0  0  0  0  0  0  0  0  0  0  0
   18.2023  -24.0276   -8.4007 O   0  0  0  0  0  0  0  0  0  0  0  0
   17.2407  -25.9973   -7.9329 N   0  0  0  0  0  0  0  0  0  0  0  0
   16.6557  -25.6124   -6.7294 C   0  0  1  0  0  0  0  0  0  0  0  0
   15.1965  -25.6276   -6.5105 C   0  0  0  0  0  0  0  0  0  0  0  0
   14.5200  -24.5051   -7.1858 C   0  0  0  0  0  0  0  0  0  0  0  0
   15.0718  -23.4938   -7.9103 C   0  0  0  0  0  0  0  0  0  0  0  0
   14.1111  -22.6702   -8.3845 N   0  0  0  0  0  0  0  0  0  0  0  0
   12.9468  -23.1517   -7.9659 C   0  0  0  0  0  0  0  0  0  0  0  0
   13.1725  -24.2596   -7.2406 N   0  0  0  0  0  0  0  0  0  0  0  0
   17.3410  -26.2597   -5.5911 C   0  0  0  0  0  0  0  0  0  0  0  0
   18.0160  -27.3408   -5.7584 O   0  0  0  0  0  0  0  0  0  0  0  0
   15.8192  -24.1036    2.4895 N   0  0  0  0  0  0  0  0  0  0  0  0
   15.1610  -25.2436    1.9457 C   0  0  0  0  0  0  0  0  0  0  0  0
   14.0686  -25.6651    2.4882 N   0  0  0  0  0  0  0  0  0  0  0  0
   15.6825  -25.9270    0.8171 N   0  0  0  0  0  0  0  0  0  0  0  0
   17.0939  -25.8944    0.4773 C   0  0  0  0  0  0  0  0  0  0  0  0
   17.3746  -26.7156   -0.7663 C   0  0  0  0  0  0  0  0  0  0  0  0
   17.7785  -25.7545   -1.8522 C   0  0  0  0  0  0  0  0  0  0  0  0
   18.0104  -26.4835   -3.1784 C   0  0  2  0  0  0  0  0  0  0  0  0
   17.3351  -25.7903   -4.2573 N   0  0  0  0  0  0  0  0  0  0  0  0
   17.3895  -27.8156   -3.0304 C   0  0  0  0  0  0  0  0  0  0  0  0
   16.1633  -28.0305   -3.2546 O   0  0  0  0  0  0  0  0  0  0  0  0
   18.1760  -28.8780   -2.6298 O   0  0  0  0  0  0  0  0  0  0  0  0
  2  1  1  6
  2  4  1  0
  2  3  1  0
  4  5  1  6
  6  4  1  0
  7  6  2  0
  8  6  1  0
  9  8  1  0
  9 10  1  6
 10 11  1  0
 11 12  2  0
 11 15  1  0
 12 13  1  0
 13 14  1  0
 15 14  2  0
 16 26  1  0
 16  9  1  0
 17 16  2  0
 18 19  1  0
 19 21  1  0
 19 20  2  0
 21 22  1  0
 22 23  1  0
 23 24  1  0
 25 24  1  1
 25 26  1  0
 25 27  1  0
 27 29  1  0
 28 27  2  0
M  END
$$$$
