VHR.pdb
     RDKit          3D

 29 29  0  0  1  0  0  0  0  0999 V2000
   25.8716  -18.8471  -18.3890 C   0  0  0  0  0  0  0  0  0  0  0  0
   27.2209  -18.6046  -17.8143 C   0  0  2  0  0  0  0  0  0  0  0  0
   28.1324  -18.1163  -18.9465 C   0  0  0  0  0  0  0  0  0  0  0  0
   27.8360  -19.7912  -17.1124 C   0  0  2  0  0  0  0  0  0  0  0  0
   27.9066  -20.8971  -18.0133 N   0  0  0  0  0  0  0  0  0  0  0  0
   26.9996  -20.1394  -15.9386 C   0  0  0  0  0  0  0  0  0  0  0  0
   25.9132  -20.7023  -16.1188 O   0  0  0  0  0  0  0  0  0  0  0  0
   27.3430  -19.8792  -14.6018 N   0  0  0  0  0  0  0  0  0  0  0  0
   26.5791  -20.1816  -13.4776 C   0  0  1  0  0  0  0  0  0  0  0  0
   27.0642  -19.9646  -12.1011 C   0  0  0  0  0  0  0  0  0  0  0  0
   26.1162  -20.4676  -11.0902 C   0  0  0  0  0  0  0  0  0  0  0  0
   24.9005  -21.0487  -11.2819 C   0  0  0  0  0  0  0  0  0  0  0  0
   24.3461  -21.3915  -10.0982 N   0  0  0  0  0  0  0  0  0  0  0  0
   25.2032  -21.0318   -9.1503 C   0  0  0  0  0  0  0  0  0  0  0  0
   26.2785  -20.4722   -9.7292 N   0  0  0  0  0  0  0  0  0  0  0  0
   25.2122  -19.6380  -13.6199 C   0  0  0  0  0  0  0  0  0  0  0  0
   25.0201  -18.3796  -13.7988 O   0  0  0  0  0  0  0  0  0  0  0  0
   20.0523  -20.4136  -19.6515 N   0  0  0  0  0  0  0  0  0  0  0  0
   20.4025  -21.3434  -18.6309 C   0  0  0  0  0  0  0  0  0  0  0  0
   20.4470  -22.6031  -18.9075 N   0  0  0  0  0  0  0  0  0  0  0  0
   20.7044  -20.9124  -17.3134 N   0  0  0  0  0  0  0  0  0  0  0  0
   20.5546  -19.5288  -16.8989 C   0  0  0  0  0  0  0  0  0  0  0  0
   20.8945  -19.3595  -15.4307 C   0  0  0  0  0  0  0  0  0  0  0  0
   22.2563  -19.9644  -15.2168 C   0  0  0  0  0  0  0  0  0  0  0  0
   22.7082  -19.8100  -13.7622 C   0  0  2  0  0  0  0  0  0  0  0  0
   24.0203  -20.3978  -13.5789 N   0  0  0  0  0  0  0  0  0  0  0  0
   21.7445  -20.5779  -12.9476 C   0  0  0  0  0  0  0  0  0  0  0  0
   20.5356  -20.2333  -12.8076 O   0  0  0  0  0  0  0  0  0  0  0  0
   22.1752  -21.7237  -12.3078 O   0  0  0  0  0  0  0  0  0  0  0  0
  2  1  1  6
  2  4  1  0
  2  3  1  0
  4  5  1  6
  6  4  1  0
  7  6  2  0
  8  6  1  0
  9  8  1  0
  9 10  1  1
 10 11  1  0
 11 12  2  0
 11 15  1  0
 12 13  1  0
 13 14  1  0
 15 14  2  0
 16 26  1  0
 16  9  1  0
 17 16  2  0
 18 19  1  0
 19 21  1  0
 19 20  2  0
 21 22  1  0
 22 23  1  0
 23 24  1  0
 25 24  1  6
 25 26  1  0
 25 27  1  0
 27 29  1  0
 28 27  2  0
M  END
$$$$
