MVW.pdb
     RDKit          3D

 30 31  0  0  1  0  0  0  0  0999 V2000
    6.5324  -19.4092   26.2567 C   0  0  0  0  0  0  0  0  0  0  0  0
    6.2833  -21.0052   25.4118 S   0  0  0  0  0  0  0  0  0  0  0  0
    6.1436  -20.6944   23.6009 C   0  0  0  0  0  0  0  0  0  0  0  0
    6.6753  -19.3369   23.3069 C   0  0  0  0  0  0  0  0  0  0  0  0
    6.4818  -18.9347   21.8908 C   0  0  2  0  0  0  0  0  0  0  0  0
    6.6980  -20.0521   20.9932 N   0  0  0  0  0  0  0  0  0  0  0  0
    7.3482  -17.8130   21.4366 C   0  0  0  0  0  0  0  0  0  0  0  0
    8.3631  -18.0184   20.7073 O   0  0  0  0  0  0  0  0  0  0  0  0
    5.9195  -14.2919   20.1035 C   0  0  0  0  0  0  0  0  0  0  0  0
    6.9383  -14.1191   21.2105 C   0  0  2  0  0  0  0  0  0  0  0  0
    7.7862  -12.8965   20.9255 C   0  0  0  0  0  0  0  0  0  0  0  0
    7.8056  -15.3135   21.3954 C   0  0  2  0  0  0  0  0  0  0  0  0
    7.0745  -16.4915   21.8030 N   0  0  0  0  0  0  0  0  0  0  0  0
    8.8836  -14.9739   22.3689 C   0  0  0  0  0  0  0  0  0  0  0  0
    9.7434  -14.0825   22.2019 O   0  0  0  0  0  0  0  0  0  0  0  0
    8.9041  -15.7367   23.5599 N   0  0  0  0  0  0  0  0  0  0  0  0
    9.8930  -15.4647   24.6094 C   0  0  1  0  0  0  0  0  0  0  0  0
    9.1742  -15.7756   25.9012 C   0  0  0  0  0  0  0  0  0  0  0  0
    7.9374  -14.9910   26.0177 C   0  0  0  0  0  0  0  0  0  0  0  0
    6.6713  -15.5717   25.8738 C   0  0  0  0  0  0  0  0  0  0  0  0
    5.7186  -14.6655   26.0725 N   0  0  0  0  0  0  0  0  0  0  0  0
    6.3250  -13.4919   26.3448 C   0  0  0  0  0  0  0  0  0  0  0  0
    5.8039  -12.2398   26.6142 C   0  0  0  0  0  0  0  0  0  0  0  0
    6.6491  -11.1659   26.8533 C   0  0  0  0  0  0  0  0  0  0  0  0
    7.9867  -11.3903   26.8124 C   0  0  0  0  0  0  0  0  0  0  0  0
    8.5508  -12.6292   26.5464 C   0  0  0  0  0  0  0  0  0  0  0  0
    7.6945  -13.6849   26.3121 C   0  0  0  0  0  0  0  0  0  0  0  0
   11.0693  -16.2911   24.3256 C   0  0  0  0  0  0  0  0  0  0  0  0
   11.0643  -17.2547   23.2980 O   0  0  0  0  0  0  0  0  0  0  0  0
   12.1432  -16.1974   24.9685 O   0  0  0  0  0  0  0  0  0  0  0  0
  1  2  1  0
  2  3  1  0
  4  3  1  0
  5  6  1  6
  5  4  1  0
  7  5  1  0
  8  7  2  0
 10  9  1  6
 10 12  1  0
 10 11  1  0
 12 13  1  1
 13  7  1  0
 14 15  2  0
 14 12  1  0
 16 14  1  0
 17 16  1  0
 17 18  1  1
 19 18  1  0
 20 19  2  0
 21 22  1  0
 21 20  1  0
 22 27  2  0
 23 22  1  0
 23 24  2  0
 24 25  1  0
 25 26  2  0
 27 19  1  0
 27 26  1  0
 28 29  1  0
 28 17  1  0
 30 28  2  0
M  END
$$$$
