MVW.pdb
     RDKit          3D

 30 31  0  0  1  0  0  0  0  0999 V2000
    5.4193  -10.6181   25.7943 C   0  0  0  0  0  0  0  0  0  0  0  0
    5.1241  -11.8287   27.1249 S   0  0  0  0  0  0  0  0  0  0  0  0
    4.7388  -13.4597   26.3587 C   0  0  0  0  0  0  0  0  0  0  0  0
    6.0081  -14.0820   25.8963 C   0  0  0  0  0  0  0  0  0  0  0  0
    5.7885  -15.2750   25.0402 C   0  0  2  0  0  0  0  0  0  0  0  0
    5.2500  -16.3803   25.8078 N   0  0  0  0  0  0  0  0  0  0  0  0
    7.0007  -15.7641   24.3286 C   0  0  0  0  0  0  0  0  0  0  0  0
    7.6873  -16.7268   24.7824 O   0  0  0  0  0  0  0  0  0  0  0  0
    7.4076  -14.6523   20.3402 C   0  0  0  0  0  0  0  0  0  0  0  0
    8.7169  -14.7712   21.0917 C   0  0  2  0  0  0  0  0  0  0  0  0
    9.7546  -15.4121   20.1932 C   0  0  0  0  0  0  0  0  0  0  0  0
    8.5927  -15.5378   22.3605 C   0  0  2  0  0  0  0  0  0  0  0  0
    7.4275  -15.1747   23.1344 N   0  0  0  0  0  0  0  0  0  0  0  0
    9.8482  -15.3648   23.1471 C   0  0  0  0  0  0  0  0  0  0  0  0
   10.2278  -14.2911   23.6615 O   0  0  0  0  0  0  0  0  0  0  0  0
   10.6444  -16.5235   23.3040 N   0  0  0  0  0  0  0  0  0  0  0  0
   11.9413  -16.4570   23.9872 C   0  0  1  0  0  0  0  0  0  0  0  0
   11.8291  -17.4535   25.1172 C   0  0  0  0  0  0  0  0  0  0  0  0
   10.9510  -16.9470   26.1807 C   0  0  0  0  0  0  0  0  0  0  0  0
    9.8309  -17.6611   26.6242 C   0  0  0  0  0  0  0  0  0  0  0  0
    9.2339  -17.0168   27.6226 N   0  0  0  0  0  0  0  0  0  0  0  0
    9.9334  -15.8866   27.8523 C   0  0  0  0  0  0  0  0  0  0  0  0
    9.7379  -14.8654   28.7637 C   0  0  0  0  0  0  0  0  0  0  0  0
   10.6027  -13.7811   28.7970 C   0  0  0  0  0  0  0  0  0  0  0  0
   11.6318  -13.7634   27.9128 C   0  0  0  0  0  0  0  0  0  0  0  0
   11.8642  -14.7662   26.9831 C   0  0  0  0  0  0  0  0  0  0  0  0
   10.9942  -15.8364   26.9659 C   0  0  0  0  0  0  0  0  0  0  0  0
   12.9754  -16.7457   22.9900 C   0  0  0  0  0  0  0  0  0  0  0  0
   12.6490  -17.2123   21.7015 O   0  0  0  0  0  0  0  0  0  0  0  0
   14.2018  -16.5986   23.2131 O   0  0  0  0  0  0  0  0  0  0  0  0
  1  2  1  0
  2  3  1  0
  4  3  1  0
  5  6  1  1
  5  4  1  0
  7  5  1  0
  8  7  2  0
 10  9  1  6
 10 12  1  0
 10 11  1  0
 12 13  1  1
 13  7  1  0
 14 15  2  0
 14 12  1  0
 16 14  1  0
 17 16  1  0
 17 18  1  1
 19 18  1  0
 20 19  2  0
 21 22  1  0
 21 20  1  0
 22 27  2  0
 23 22  1  0
 23 24  2  0
 24 25  1  0
 25 26  2  0
 27 19  1  0
 27 26  1  0
 28 29  1  0
 28 17  1  0
 30 28  2  0
M  END
$$$$
