MVW.pdb
     RDKit          3D

 30 31  0  0  1  0  0  0  0  0999 V2000
    8.3325  -17.8765   28.6410 C   0  0  0  0  0  0  0  0  0  0  0  0
    8.1967  -19.6527   28.2542 S   0  0  0  0  0  0  0  0  0  0  0  0
    7.1045  -19.8506   26.7833 C   0  0  0  0  0  0  0  0  0  0  0  0
    7.3147  -18.6932   25.8732 C   0  0  0  0  0  0  0  0  0  0  0  0
    6.4405  -18.7351   24.6738 C   0  0  2  0  0  0  0  0  0  0  0  0
    6.0400  -20.0930   24.3629 N   0  0  0  0  0  0  0  0  0  0  0  0
    7.0384  -18.1452   23.4450 C   0  0  0  0  0  0  0  0  0  0  0  0
    7.6597  -18.8617   22.6057 O   0  0  0  0  0  0  0  0  0  0  0  0
    7.3725  -14.1089   20.5059 C   0  0  0  0  0  0  0  0  0  0  0  0
    6.7699  -14.8380   21.6885 C   0  0  2  0  0  0  0  0  0  0  0  0
    6.7041  -13.8995   22.8759 C   0  0  0  0  0  0  0  0  0  0  0  0
    7.5142  -16.0738   22.0516 C   0  0  2  0  0  0  0  0  0  0  0  0
    6.9386  -16.7766   23.1755 N   0  0  0  0  0  0  0  0  0  0  0  0
    8.9403  -15.7153   22.3020 C   0  0  0  0  0  0  0  0  0  0  0  0
    9.7296  -15.2757   21.4386 O   0  0  0  0  0  0  0  0  0  0  0  0
    9.4004  -15.8978   23.6271 N   0  0  0  0  0  0  0  0  0  0  0  0
   10.8110  -15.6817   23.9690 C   0  0  1  0  0  0  0  0  0  0  0  0
   10.8493  -14.2985   24.5753 C   0  0  0  0  0  0  0  0  0  0  0  0
    9.9713  -14.2140   25.7504 C   0  0  0  0  0  0  0  0  0  0  0  0
   10.2577  -14.8889   26.9435 C   0  0  0  0  0  0  0  0  0  0  0  0
    9.3410  -14.6120   27.8661 N   0  0  0  0  0  0  0  0  0  0  0  0
    8.4484  -13.7669   27.3108 C   0  0  0  0  0  0  0  0  0  0  0  0
    7.3051  -13.1844   27.8259 C   0  0  0  0  0  0  0  0  0  0  0  0
    6.5305  -12.3453   27.0380 C   0  0  0  0  0  0  0  0  0  0  0  0
    6.9337  -12.1231   25.7616 C   0  0  0  0  0  0  0  0  0  0  0  0
    8.0729  -12.6866   25.2059 C   0  0  0  0  0  0  0  0  0  0  0  0
    8.8306  -13.5172   26.0050 C   0  0  0  0  0  0  0  0  0  0  0  0
   11.2168  -16.7732   24.8583 C   0  0  0  0  0  0  0  0  0  0  0  0
   12.5722  -17.0226   25.1504 O   0  0  0  0  0  0  0  0  0  0  0  0
   10.3974  -17.5467   25.4111 O   0  0  0  0  0  0  0  0  0  0  0  0
  1  2  1  0
  2  3  1  0
  4  3  1  0
  5  6  1  6
  5  4  1  0
  7  5  1  0
  8  7  2  0
 10  9  1  6
 10 12  1  0
 10 11  1  0
 12 13  1  1
 13  7  1  0
 14 15  2  0
 14 12  1  0
 16 14  1  0
 17 16  1  0
 17 18  1  1
 19 18  1  0
 20 19  2  0
 21 22  1  0
 21 20  1  0
 22 27  2  0
 23 22  1  0
 23 24  2  0
 24 25  1  0
 25 26  2  0
 27 19  1  0
 27 26  1  0
 28 29  1  0
 28 17  1  0
 30 28  2  0
M  END
$$$$
