MVW.pdb
     RDKit          3D

 30 31  0  0  1  0  0  0  0  0999 V2000
    7.5652  -11.6934   20.0596 C   0  0  0  0  0  0  0  0  0  0  0  0
    7.2687  -12.4214   21.7044 S   0  0  0  0  0  0  0  0  0  0  0  0
    6.6752  -14.1516   21.4814 C   0  0  0  0  0  0  0  0  0  0  0  0
    7.5287  -14.8220   20.4644 C   0  0  0  0  0  0  0  0  0  0  0  0
    7.4529  -16.3032   20.5321 C   0  0  2  0  0  0  0  0  0  0  0  0
    6.0774  -16.7600   20.5179 N   0  0  0  0  0  0  0  0  0  0  0  0
    8.1203  -16.9087   21.7167 C   0  0  0  0  0  0  0  0  0  0  0  0
    7.4504  -17.4543   22.6427 O   0  0  0  0  0  0  0  0  0  0  0  0
   11.7102  -18.6864   21.1586 C   0  0  0  0  0  0  0  0  0  0  0  0
   11.6704  -17.8871   22.4442 C   0  0  2  0  0  0  0  0  0  0  0  0
   12.3880  -18.6554   23.5350 C   0  0  0  0  0  0  0  0  0  0  0  0
   10.2878  -17.5505   22.8781 C   0  0  2  0  0  0  0  0  0  0  0  0
    9.5122  -16.8928   21.8513 N   0  0  0  0  0  0  0  0  0  0  0  0
   10.3648  -16.7260   24.1188 C   0  0  0  0  0  0  0  0  0  0  0  0
   10.7805  -15.5487   24.1706 O   0  0  0  0  0  0  0  0  0  0  0  0
    9.9254  -17.3546   25.3073 N   0  0  0  0  0  0  0  0  0  0  0  0
   10.0996  -16.7029   26.6105 C   0  0  1  0  0  0  0  0  0  0  0  0
    8.7343  -16.7657   27.2543 C   0  0  0  0  0  0  0  0  0  0  0  0
    7.8149  -15.8019   26.6344 C   0  0  0  0  0  0  0  0  0  0  0  0
    6.7198  -16.2086   25.8621 C   0  0  0  0  0  0  0  0  0  0  0  0
    6.0183  -15.1537   25.4579 N   0  0  0  0  0  0  0  0  0  0  0  0
    6.6251  -14.0519   25.9445 C   0  0  0  0  0  0  0  0  0  0  0  0
    6.3166  -12.7105   25.8128 C   0  0  0  0  0  0  0  0  0  0  0  0
    7.1173  -11.7459   26.4071 C   0  0  0  0  0  0  0  0  0  0  0  0
    8.1985  -12.1653   27.1115 C   0  0  0  0  0  0  0  0  0  0  0  0
    8.5436  -13.4996   27.2686 C   0  0  0  0  0  0  0  0  0  0  0  0
    7.7350  -14.4440   26.6712 C   0  0  0  0  0  0  0  0  0  0  0  0
   11.1653  -17.4182   27.3173 C   0  0  0  0  0  0  0  0  0  0  0  0
   11.7856  -16.8770   28.4606 O   0  0  0  0  0  0  0  0  0  0  0  0
   11.5903  -18.5431   26.9577 O   0  0  0  0  0  0  0  0  0  0  0  0
  1  2  1  0
  2  3  1  0
  4  3  1  0
  5  6  1  1
  5  4  1  0
  7  5  1  0
  8  7  2  0
 10  9  1  6
 10 12  1  0
 10 11  1  0
 12 13  1  6
 13  7  1  0
 14 15  2  0
 14 12  1  0
 16 14  1  0
 17 16  1  0
 17 18  1  1
 19 18  1  0
 20 19  2  0
 21 22  1  0
 21 20  1  0
 22 27  2  0
 23 22  1  0
 23 24  2  0
 24 25  1  0
 25 26  2  0
 27 19  1  0
 27 26  1  0
 28 29  1  0
 28 17  1  0
 30 28  2  0
M  END
$$$$
