MVW.pdb
     RDKit          3D

 30 31  0  0  1  0  0  0  0  0999 V2000
    8.7926  -21.2737   24.6616 C   0  0  0  0  0  0  0  0  0  0  0  0
    6.9794  -21.2189   24.4811 S   0  0  0  0  0  0  0  0  0  0  0  0
    6.5768  -20.6224   22.7847 C   0  0  0  0  0  0  0  0  0  0  0  0
    7.5761  -19.5938   22.3904 C   0  0  0  0  0  0  0  0  0  0  0  0
    7.2894  -18.9874   21.0659 C   0  0  2  0  0  0  0  0  0  0  0  0
    7.4873  -19.9450   19.9959 N   0  0  0  0  0  0  0  0  0  0  0  0
    8.0940  -17.7767   20.7464 C   0  0  0  0  0  0  0  0  0  0  0  0
    9.1945  -17.8623   20.1256 O   0  0  0  0  0  0  0  0  0  0  0  0
    8.1566  -12.7785   20.5603 C   0  0  0  0  0  0  0  0  0  0  0  0
    7.4342  -14.1047   20.6723 C   0  0  2  0  0  0  0  0  0  0  0  0
    6.4184  -14.0295   21.7937 C   0  0  0  0  0  0  0  0  0  0  0  0
    8.3549  -15.2528   20.8900 C   0  0  2  0  0  0  0  0  0  0  0  0
    7.6647  -16.5006   21.1246 N   0  0  0  0  0  0  0  0  0  0  0  0
    9.2776  -14.9178   22.0131 C   0  0  0  0  0  0  0  0  0  0  0  0
   10.0613  -13.9445   22.0289 O   0  0  0  0  0  0  0  0  0  0  0  0
    9.2356  -15.7870   23.1283 N   0  0  0  0  0  0  0  0  0  0  0  0
   10.0691  -15.5346   24.3093 C   0  0  1  0  0  0  0  0  0  0  0  0
    9.2543  -16.0552   25.4700 C   0  0  0  0  0  0  0  0  0  0  0  0
    8.0163  -15.2810   25.6336 C   0  0  0  0  0  0  0  0  0  0  0  0
    6.7505  -15.8613   25.4856 C   0  0  0  0  0  0  0  0  0  0  0  0
    5.7973  -14.9674   25.7320 N   0  0  0  0  0  0  0  0  0  0  0  0
    6.4031  -13.8023   26.0401 C   0  0  0  0  0  0  0  0  0  0  0  0
    5.8811  -12.5637   26.3643 C   0  0  0  0  0  0  0  0  0  0  0  0
    6.7255  -11.4960   26.6320 C   0  0  0  0  0  0  0  0  0  0  0  0
    8.0632  -11.7128   26.5639 C   0  0  0  0  0  0  0  0  0  0  0  0
    8.6282  -12.9383   26.2430 C   0  0  0  0  0  0  0  0  0  0  0  0
    7.7726  -13.9880   25.9809 C   0  0  0  0  0  0  0  0  0  0  0  0
   11.3538  -16.2038   24.0882 C   0  0  0  0  0  0  0  0  0  0  0  0
   12.4549  -15.9887   24.9403 O   0  0  0  0  0  0  0  0  0  0  0  0
   11.5563  -17.0011   23.1402 O   0  0  0  0  0  0  0  0  0  0  0  0
  1  2  1  0
  2  3  1  0
  4  3  1  0
  5  6  1  6
  5  4  1  0
  7  5  1  0
  8  7  2  0
 10  9  1  1
 10 12  1  0
 10 11  1  0
 12 13  1  1
 13  7  1  0
 14 15  2  0
 14 12  1  0
 16 14  1  0
 17 16  1  0
 17 18  1  1
 19 18  1  0
 20 19  2  0
 21 22  1  0
 21 20  1  0
 22 27  2  0
 23 22  1  0
 23 24  2  0
 24 25  1  0
 25 26  2  0
 27 19  1  0
 27 26  1  0
 28 29  1  0
 28 17  1  0
 30 28  2  0
M  END
$$$$
