CPG.pdb
     RDKit          3D

 18 18  0  0  1  0  0  0  0  0999 V2000
    6.1228  -14.7453   27.0000 N   0  0  0  0  0  0  0  0  0  0  0  0
    6.7360  -14.0936   25.8424 C   0  0  1  0  0  0  0  0  0  0  0  0
    7.6991  -13.0550   26.4261 C   0  0  0  0  0  0  0  0  0  0  0  0
    6.6563  -11.6232   26.8887 S   0  0  0  0  0  0  0  0  0  0  0  0
    7.4327  -15.0793   24.9985 C   0  0  0  0  0  0  0  0  0  0  0  0
    7.8036  -16.1992   25.4865 O   0  0  0  0  0  0  0  0  0  0  0  0
    7.6929  -14.7881   23.6425 N   0  0  0  0  0  0  0  0  0  0  0  0
    7.4731  -13.5652   22.9362 C   0  0  0  0  0  0  0  0  0  0  0  0
    7.0287  -13.9888   21.5470 C   0  0  0  0  0  0  0  0  0  0  0  0
    7.7860  -15.2846   21.3196 C   0  0  0  0  0  0  0  0  0  0  0  0
    8.2584  -15.7199   22.6696 C   0  0  1  0  0  0  0  0  0  0  0  0
    9.7328  -15.6496   22.6923 C   0  0  0  0  0  0  0  0  0  0  0  0
   10.2843  -14.5616   22.9593 O   0  0  0  0  0  0  0  0  0  0  0  0
   10.5460  -16.7727   22.4220 N   0  0  0  0  0  0  0  0  0  0  0  0
   11.9576  -16.7598   22.7265 C   0  0  0  0  0  0  0  0  0  0  0  0
   12.5818  -18.0918   22.5202 C   0  0  0  0  0  0  0  0  0  0  0  0
   12.2373  -19.1207   23.3799 O   0  0  0  0  0  0  0  0  0  0  0  0
   13.4001  -18.2893   21.5949 O   0  0  0  0  0  0  0  0  0  0  0  0
  2  1  1  1
  2  3  1  0
  3  4  1  0
  5  6  2  0
  5  2  1  0
  7  5  1  0
  8  7  1  0
  9  8  1  0
 10  9  1  0
 10 11  1  0
 11 12  1  6
 11  7  1  0
 12 13  2  0
 14 12  1  0
 14 15  1  0
 15 16  1  0
 16 18  2  0
 16 17  1  0
M  END
$$$$
