CPG.pdb
     RDKit          3D

 18 18  0  0  1  0  0  0  0  0999 V2000
    6.8694  -17.6387   26.1945 N   0  0  0  0  0  0  0  0  0  0  0  0
    7.2135  -16.4709   25.3830 C   0  0  1  0  0  0  0  0  0  0  0  0
    8.3305  -15.7587   26.1524 C   0  0  0  0  0  0  0  0  0  0  0  0
    7.9545  -13.9718   26.0225 S   0  0  0  0  0  0  0  0  0  0  0  0
    7.6462  -16.8818   24.0364 C   0  0  0  0  0  0  0  0  0  0  0  0
    7.9306  -18.1026   23.7945 O   0  0  0  0  0  0  0  0  0  0  0  0
    7.7475  -15.9238   23.0054 N   0  0  0  0  0  0  0  0  0  0  0  0
    7.6206  -14.5029   23.0942 C   0  0  0  0  0  0  0  0  0  0  0  0
    6.9171  -14.0908   21.8129 C   0  0  0  0  0  0  0  0  0  0  0  0
    7.4211  -15.1018   20.7988 C   0  0  0  0  0  0  0  0  0  0  0  0
    8.0120  -16.2179   21.5989 C   0  0  1  0  0  0  0  0  0  0  0  0
    9.4665  -16.2512   21.3489 C   0  0  0  0  0  0  0  0  0  0  0  0
    9.8788  -16.3024   20.1714 O   0  0  0  0  0  0  0  0  0  0  0  0
   10.4131  -16.2271   22.3974 N   0  0  0  0  0  0  0  0  0  0  0  0
   11.8304  -16.2303   22.1204 C   0  0  0  0  0  0  0  0  0  0  0  0
   12.6389  -16.2645   23.3661 C   0  0  0  0  0  0  0  0  0  0  0  0
   12.2284  -17.0948   24.3950 O   0  0  0  0  0  0  0  0  0  0  0  0
   13.6674  -15.5639   23.4923 O   0  0  0  0  0  0  0  0  0  0  0  0
  2  1  1  1
  2  3  1  0
  3  4  1  0
  5  6  2  0
  5  2  1  0
  7  5  1  0
  8  7  1  0
  9  8  1  0
 10  9  1  0
 10 11  1  0
 11 12  1  1
 11  7  1  0
 12 13  2  0
 14 12  1  0
 14 15  1  0
 15 16  1  0
 16 18  2  0
 16 17  1  0
M  END
$$$$
