CPG.pdb
     RDKit          3D

 18 18  0  0  1  0  0  0  0  0999 V2000
    5.4354  -14.2358   26.5493 N   0  0  0  0  0  0  0  0  0  0  0  0
    6.3496  -13.6625   25.5612 C   0  0  1  0  0  0  0  0  0  0  0  0
    7.2142  -12.6664   26.3403 C   0  0  0  0  0  0  0  0  0  0  0  0
    6.1737  -11.1756   26.5553 S   0  0  0  0  0  0  0  0  0  0  0  0
    7.1585  -14.7172   24.9267 C   0  0  0  0  0  0  0  0  0  0  0  0
    7.3452  -15.8321   25.5200 O   0  0  0  0  0  0  0  0  0  0  0  0
    7.7314  -14.4981   23.6560 N   0  0  0  0  0  0  0  0  0  0  0  0
    7.8530  -13.2709   22.9334 C   0  0  0  0  0  0  0  0  0  0  0  0
    7.6404  -13.6496   21.4781 C   0  0  0  0  0  0  0  0  0  0  0  0
    8.2173  -15.0513   21.3957 C   0  0  0  0  0  0  0  0  0  0  0  0
    8.3313  -15.5261   22.8087 C   0  0  1  0  0  0  0  0  0  0  0  0
    9.7628  -15.6839   23.1331 C   0  0  0  0  0  0  0  0  0  0  0  0
   10.3837  -14.7183   23.6241 O   0  0  0  0  0  0  0  0  0  0  0  0
   10.4588  -16.8925   22.9076 N   0  0  0  0  0  0  0  0  0  0  0  0
   11.8278  -17.0541   23.3378 C   0  0  0  0  0  0  0  0  0  0  0  0
   11.9977  -18.2427   24.2124 C   0  0  0  0  0  0  0  0  0  0  0  0
   12.9301  -19.1994   23.8493 O   0  0  0  0  0  0  0  0  0  0  0  0
   11.3196  -18.3851   25.2538 O   0  0  0  0  0  0  0  0  0  0  0  0
  2  1  1  1
  2  3  1  0
  3  4  1  0
  5  6  2  0
  5  2  1  0
  7  5  1  0
  8  7  1  0
  9  8  1  0
 10  9  1  0
 10 11  1  0
 11 12  1  1
 11  7  1  0
 12 13  2  0
 14 12  1  0
 14 15  1  0
 15 16  1  0
 16 18  2  0
 16 17  1  0
M  END
$$$$
