CPG.pdb
     RDKit          3D

 18 18  0  0  1  0  0  0  0  0999 V2000
    5.6212  -14.4964   26.6596 N   0  0  0  0  0  0  0  0  0  0  0  0
    6.5154  -13.8462   25.7013 C   0  0  1  0  0  0  0  0  0  0  0  0
    7.4453  -12.9697   26.5462 C   0  0  0  0  0  0  0  0  0  0  0  0
    6.5701  -11.3742   26.7451 S   0  0  0  0  0  0  0  0  0  0  0  0
    7.2604  -14.8491   24.9212 C   0  0  0  0  0  0  0  0  0  0  0  0
    7.4807  -16.0097   25.4052 O   0  0  0  0  0  0  0  0  0  0  0  0
    7.7342  -14.5292   23.6311 N   0  0  0  0  0  0  0  0  0  0  0  0
    7.7805  -13.2523   22.9906 C   0  0  0  0  0  0  0  0  0  0  0  0
    7.4682  -13.5338   21.5312 C   0  0  0  0  0  0  0  0  0  0  0  0
    8.0621  -14.9129   21.3081 C   0  0  0  0  0  0  0  0  0  0  0  0
    8.2882  -15.4820   22.6719 C   0  0  1  0  0  0  0  0  0  0  0  0
    9.7422  -15.6293   22.8802 C   0  0  0  0  0  0  0  0  0  0  0  0
   10.3731  -14.7034   23.4314 O   0  0  0  0  0  0  0  0  0  0  0  0
   10.4490  -16.7842   22.4770 N   0  0  0  0  0  0  0  0  0  0  0  0
   11.8247  -16.9882   22.8661 C   0  0  0  0  0  0  0  0  0  0  0  0
   12.3287  -18.3203   22.4443 C   0  0  0  0  0  0  0  0  0  0  0  0
   11.7629  -19.4487   23.0126 O   0  0  0  0  0  0  0  0  0  0  0  0
   13.2420  -18.4306   21.5967 O   0  0  0  0  0  0  0  0  0  0  0  0
  2  1  1  1
  2  3  1  0
  3  4  1  0
  5  6  2  0
  5  2  1  0
  7  5  1  0
  8  7  1  0
  9  8  1  0
 10  9  1  0
 10 11  1  0
 11 12  1  1
 11  7  1  0
 12 13  2  0
 14 12  1  0
 14 15  1  0
 15 16  1  0
 16 18  2  0
 16 17  1  0
M  END
$$$$
