CPG.pdb
     RDKit          3D

 18 18  0  0  1  0  0  0  0  0999 V2000
    5.8142  -14.2549   26.3833 N   0  0  0  0  0  0  0  0  0  0  0  0
    6.6692  -13.6070   25.3883 C   0  0  1  0  0  0  0  0  0  0  0  0
    7.7750  -12.9170   26.1932 C   0  0  0  0  0  0  0  0  0  0  0  0
    7.0015  -11.4194   26.9074 S   0  0  0  0  0  0  0  0  0  0  0  0
    7.2110  -14.5980   24.4430 C   0  0  0  0  0  0  0  0  0  0  0  0
    7.2764  -15.8310   24.7676 O   0  0  0  0  0  0  0  0  0  0  0  0
    7.6609  -14.1862   23.1705 N   0  0  0  0  0  0  0  0  0  0  0  0
    7.7691  -12.8593   22.6506 C   0  0  0  0  0  0  0  0  0  0  0  0
    7.3897  -12.9799   21.1849 C   0  0  0  0  0  0  0  0  0  0  0  0
    7.8840  -14.3655   20.8106 C   0  0  0  0  0  0  0  0  0  0  0  0
    8.1183  -15.0754   22.1053 C   0  0  1  0  0  0  0  0  0  0  0  0
    9.5658  -15.3320   22.2406 C   0  0  0  0  0  0  0  0  0  0  0  0
   10.3206  -14.3925   22.5674 O   0  0  0  0  0  0  0  0  0  0  0  0
   10.1307  -16.6068   22.0130 N   0  0  0  0  0  0  0  0  0  0  0  0
   11.5154  -16.8732   22.3242 C   0  0  0  0  0  0  0  0  0  0  0  0
   11.8714  -18.2971   22.0951 C   0  0  0  0  0  0  0  0  0  0  0  0
   11.0912  -19.2746   22.6886 O   0  0  0  0  0  0  0  0  0  0  0  0
   12.8505  -18.6156   21.3848 O   0  0  0  0  0  0  0  0  0  0  0  0
  2  1  1  1
  2  3  1  0
  3  4  1  0
  5  6  2  0
  5  2  1  0
  7  5  1  0
  8  7  1  0
  9  8  1  0
 10  9  1  0
 10 11  1  0
 11 12  1  1
 11  7  1  0
 12 13  2  0
 14 12  1  0
 14 15  1  0
 15 16  1  0
 16 18  2  0
 16 17  1  0
M  END
$$$$
