CPG.pdb
     RDKit          3D

 18 18  0  0  1  0  0  0  0  0999 V2000
    5.6989  -14.6153   26.7417 N   0  0  0  0  0  0  0  0  0  0  0  0
    6.5004  -13.9525   25.7127 C   0  0  1  0  0  0  0  0  0  0  0  0
    7.5010  -13.0810   26.4783 C   0  0  0  0  0  0  0  0  0  0  0  0
    6.6769  -11.4606   26.6941 S   0  0  0  0  0  0  0  0  0  0  0  0
    7.1739  -14.9449   24.8578 C   0  0  0  0  0  0  0  0  0  0  0  0
    7.2849  -16.1576   25.2412 O   0  0  0  0  0  0  0  0  0  0  0  0
    7.7002  -14.5571   23.6073 N   0  0  0  0  0  0  0  0  0  0  0  0
    7.8087  -13.2431   23.0555 C   0  0  0  0  0  0  0  0  0  0  0  0
    7.5358  -13.4168   21.5716 C   0  0  0  0  0  0  0  0  0  0  0  0
    8.0921  -14.7978   21.2750 C   0  0  0  0  0  0  0  0  0  0  0  0
    8.2546  -15.4630   22.6040 C   0  0  1  0  0  0  0  0  0  0  0  0
    9.6954  -15.6735   22.8465 C   0  0  0  0  0  0  0  0  0  0  0  0
   10.3727  -14.7405   23.3262 O   0  0  0  0  0  0  0  0  0  0  0  0
   10.3389  -16.8969   22.5547 N   0  0  0  0  0  0  0  0  0  0  0  0
   11.7465  -17.0791   22.8208 C   0  0  0  0  0  0  0  0  0  0  0  0
   11.9823  -17.7477   24.1261 C   0  0  0  0  0  0  0  0  0  0  0  0
   12.2179  -19.1118   24.1342 O   0  0  0  0  0  0  0  0  0  0  0  0
   11.9703  -17.1027   25.1978 O   0  0  0  0  0  0  0  0  0  0  0  0
  2  1  1  1
  2  3  1  0
  3  4  1  0
  5  6  2  0
  5  2  1  0
  7  5  1  0
  8  7  1  0
  9  8  1  0
 10  9  1  0
 10 11  1  0
 11 12  1  1
 11  7  1  0
 12 13  2  0
 14 12  1  0
 14 15  1  0
 15 16  1  0
 16 18  2  0
 16 17  1  0
M  END
$$$$
