CPG.pdb
     RDKit          3D

 18 18  0  0  1  0  0  0  0  0999 V2000
    5.6542  -16.6778   25.4917 N   0  0  0  0  0  0  0  0  0  0  0  0
    6.7523  -15.8731   24.9558 C   0  0  1  0  0  0  0  0  0  0  0  0
    7.9354  -16.1265   25.8954 C   0  0  0  0  0  0  0  0  0  0  0  0
    9.2797  -15.0369   25.2977 S   0  0  0  0  0  0  0  0  0  0  0  0
    7.0557  -16.2644   23.5686 C   0  0  0  0  0  0  0  0  0  0  0  0
    6.7420  -17.4263   23.1425 O   0  0  0  0  0  0  0  0  0  0  0  0
    7.6958  -15.3525   22.7027 N   0  0  0  0  0  0  0  0  0  0  0  0
    8.2231  -14.0586   23.0037 C   0  0  0  0  0  0  0  0  0  0  0  0
    7.9309  -13.2194   21.7721 C   0  0  0  0  0  0  0  0  0  0  0  0
    8.0252  -14.2230   20.6370 C   0  0  0  0  0  0  0  0  0  0  0  0
    7.9492  -15.5704   21.2804 C   0  0  1  0  0  0  0  0  0  0  0  0
    9.2454  -16.2509   21.0909 C   0  0  0  0  0  0  0  0  0  0  0  0
    9.6672  -16.4410   19.9312 O   0  0  0  0  0  0  0  0  0  0  0  0
   10.0295  -16.6970   22.1783 N   0  0  0  0  0  0  0  0  0  0  0  0
   11.2470  -17.4426   21.9611 C   0  0  0  0  0  0  0  0  0  0  0  0
   12.4394  -16.5578   21.9204 C   0  0  0  0  0  0  0  0  0  0  0  0
   12.9728  -16.2279   20.6862 O   0  0  0  0  0  0  0  0  0  0  0  0
   12.9567  -16.1162   22.9702 O   0  0  0  0  0  0  0  0  0  0  0  0
  2  1  1  1
  2  3  1  0
  3  4  1  0
  5  6  2  0
  5  2  1  0
  7  5  1  0
  8  7  1  0
  9  8  1  0
 10  9  1  0
 10 11  1  0
 11 12  1  1
 11  7  1  0
 12 13  2  0
 14 12  1  0
 14 15  1  0
 15 16  1  0
 16 18  2  0
 16 17  1  0
M  END
$$$$
