CPG.pdb
     RDKit          3D

 18 18  0  0  1  0  0  0  0  0999 V2000
    6.9731  -15.7758   26.9723 N   0  0  0  0  0  0  0  0  0  0  0  0
    7.5243  -14.9167   25.9240 C   0  0  1  0  0  0  0  0  0  0  0  0
    8.7253  -14.2152   26.5660 C   0  0  0  0  0  0  0  0  0  0  0  0
    8.0534  -12.6958   27.3350 S   0  0  0  0  0  0  0  0  0  0  0  0
    7.9145  -15.7144   24.7489 C   0  0  0  0  0  0  0  0  0  0  0  0
    8.1333  -16.9670   24.8630 O   0  0  0  0  0  0  0  0  0  0  0  0
    8.0477  -15.0944   23.4884 N   0  0  0  0  0  0  0  0  0  0  0  0
    8.0434  -13.6994   23.1771 C   0  0  0  0  0  0  0  0  0  0  0  0
    7.3187  -13.5965   21.8464 C   0  0  0  0  0  0  0  0  0  0  0  0
    7.6901  -14.8916   21.1470 C   0  0  0  0  0  0  0  0  0  0  0  0
    8.2223  -15.7911   22.2160 C   0  0  1  0  0  0  0  0  0  0  0  0
    9.6560  -16.0269   21.9554 C   0  0  0  0  0  0  0  0  0  0  0  0
   10.0130  -16.3980   20.8179 O   0  0  0  0  0  0  0  0  0  0  0  0
   10.6432  -15.8475   22.9500 N   0  0  0  0  0  0  0  0  0  0  0  0
   12.0396  -16.0769   22.6622 C   0  0  0  0  0  0  0  0  0  0  0  0
   12.8984  -15.8302   23.8488 C   0  0  0  0  0  0  0  0  0  0  0  0
   12.7438  -16.6482   24.9550 O   0  0  0  0  0  0  0  0  0  0  0  0
   13.7438  -14.9083   23.8584 O   0  0  0  0  0  0  0  0  0  0  0  0
  2  1  1  1
  2  3  1  0
  3  4  1  0
  5  6  2  0
  5  2  1  0
  7  5  1  0
  8  7  1  0
  9  8  1  0
 10  9  1  0
 10 11  1  0
 11 12  1  6
 11  7  1  0
 12 13  2  0
 14 12  1  0
 14 15  1  0
 15 16  1  0
 16 18  2  0
 16 17  1  0
M  END
$$$$
