SMC.pdb
     RDKit          3D

 21 20  0  0  1  0  0  0  0  0999 V2000
   28.1746  -17.9172  -15.8003 O   0  0  0  0  0  0  0  0  0  0  0  0
   27.2711  -18.9437  -15.5154 C   0  0  0  0  0  0  0  0  0  0  0  0
   28.0068  -20.1406  -14.9268 C   0  0  2  0  0  0  0  0  0  0  0  0
   28.4371  -21.0110  -15.9782 N   0  0  0  0  0  0  0  0  0  0  0  0
   27.0749  -20.8093  -13.9767 C   0  0  0  0  0  0  0  0  0  0  0  0
   26.3503  -21.7810  -14.3652 O   0  0  0  0  0  0  0  0  0  0  0  0
   27.9047  -20.2221   -7.8301 C   0  0  0  0  0  0  0  0  0  0  0  0
   26.0968  -20.2766   -7.7127 S   0  0  0  0  0  0  0  0  0  0  0  0
   25.3796  -20.8679   -9.2866 C   0  0  0  0  0  0  0  0  0  0  0  0
   26.3278  -20.4610  -10.3773 C   0  0  0  0  0  0  0  0  0  0  0  0
   25.8758  -20.8905  -11.7331 C   0  0  2  0  0  0  0  0  0  0  0  0
   26.9507  -20.4136  -12.6409 N   0  0  0  0  0  0  0  0  0  0  0  0
   24.5780  -20.4396  -12.1963 C   0  0  0  0  0  0  0  0  0  0  0  0
   24.5693  -19.4343  -12.9917 O   0  0  0  0  0  0  0  0  0  0  0  0
   23.3025  -20.9567  -11.8972 N   0  0  0  0  0  0  0  0  0  0  0  0
   22.1147  -20.6769  -12.6834 C   0  0  1  0  0  0  0  0  0  0  0  0
   22.1305  -21.5032  -13.9491 C   0  0  0  0  0  0  0  0  0  0  0  0
   20.5863  -21.3573  -14.8623 S   0  0  0  0  0  0  0  0  0  0  0  0
   20.8732  -21.0181  -11.9424 C   0  0  0  0  0  0  0  0  0  0  0  0
   19.6644  -20.6591  -12.5187 O   0  0  0  0  0  0  0  0  0  0  0  0
   20.9577  -21.6049  -10.8473 O   0  0  0  0  0  0  0  0  0  0  0  0
  2  3  1  0
  2  1  1  0
  3  4  1  6
  3  5  1  0
  5 12  1  0
  5  6  2  0
  7  8  1  0
  8  9  1  0
  9 10  1  0
 11 10  1  1
 11 13  1  0
 12 11  1  0
 13 15  1  0
 13 14  2  0
 15 16  1  0
 16 19  1  0
 16 17  1  6
 18 17  1  0
 19 20  1  0
 21 19  2  0
M  END
$$$$
