SMC.pdb
     RDKit          3D

 21 20  0  0  1  0  0  0  0  0999 V2000
   16.4916   -8.7979  -20.9709 O   0  0  0  0  0  0  0  0  0  0  0  0
   16.7564   -8.8008  -19.5994 C   0  0  0  0  0  0  0  0  0  0  0  0
   17.8200   -9.8413  -19.2736 C   0  0  2  0  0  0  0  0  0  0  0  0
   17.2069  -11.1213  -19.0897 N   0  0  0  0  0  0  0  0  0  0  0  0
   18.5398   -9.3723  -18.0568 C   0  0  0  0  0  0  0  0  0  0  0  0
   17.9162   -9.2341  -16.9558 O   0  0  0  0  0  0  0  0  0  0  0  0
   23.4752  -10.0217  -13.0792 C   0  0  0  0  0  0  0  0  0  0  0  0
   22.4014  -10.2390  -14.5231 S   0  0  0  0  0  0  0  0  0  0  0  0
   22.9281   -9.1267  -15.8745 C   0  0  0  0  0  0  0  0  0  0  0  0
   21.9901   -9.3622  -17.0230 C   0  0  0  0  0  0  0  0  0  0  0  0
   20.6713   -8.6866  -16.8468 C   0  0  2  0  0  0  0  0  0  0  0  0
   19.9046   -9.0670  -18.0611 N   0  0  0  0  0  0  0  0  0  0  0  0
   20.6584   -7.2484  -16.6637 C   0  0  0  0  0  0  0  0  0  0  0  0
   20.9204   -6.5354  -17.6963 O   0  0  0  0  0  0  0  0  0  0  0  0
   20.3915   -6.5068  -15.4963 N   0  0  0  0  0  0  0  0  0  0  0  0
   20.5110   -5.0625  -15.4140 C   0  0  1  0  0  0  0  0  0  0  0  0
   19.3505   -4.4953  -14.6289 C   0  0  0  0  0  0  0  0  0  0  0  0
   19.5834   -2.7494  -14.2583 S   0  0  0  0  0  0  0  0  0  0  0  0
   21.7607   -4.6539  -14.7225 C   0  0  0  0  0  0  0  0  0  0  0  0
   22.4646   -3.5832  -15.2519 O   0  0  0  0  0  0  0  0  0  0  0  0
   22.1283   -5.2755  -13.7081 O   0  0  0  0  0  0  0  0  0  0  0  0
  2  3  1  0
  2  1  1  0
  3  4  1  1
  3  5  1  0
  5 12  1  0
  5  6  2  0
  7  8  1  0
  8  9  1  0
  9 10  1  0
 11 10  1  6
 11 13  1  0
 12 11  1  0
 13 15  1  0
 13 14  2  0
 15 16  1  0
 16 19  1  0
 16 17  1  1
 18 17  1  0
 19 20  1  0
 21 19  2  0
M  END
$$$$
