SMC.pdb
     RDKit          3D

 21 20  0  0  1  0  0  0  0  0999 V2000
   26.3677  -19.0242  -16.1625 O   0  0  0  0  0  0  0  0  0  0  0  0
   27.5014  -19.1430  -15.3553 C   0  0  0  0  0  0  0  0  0  0  0  0
   27.7428  -20.6052  -15.0032 C   0  0  2  0  0  0  0  0  0  0  0  0
   27.6880  -21.4054  -16.1883 N   0  0  0  0  0  0  0  0  0  0  0  0
   26.7112  -20.9952  -14.0020 C   0  0  0  0  0  0  0  0  0  0  0  0
   25.8095  -21.8406  -14.3058 O   0  0  0  0  0  0  0  0  0  0  0  0
   26.6862  -20.3146   -6.8946 C   0  0  0  0  0  0  0  0  0  0  0  0
   25.8710  -21.2518   -8.2145 S   0  0  0  0  0  0  0  0  0  0  0  0
   25.0387  -20.1124   -9.3764 C   0  0  0  0  0  0  0  0  0  0  0  0
   25.9701  -19.9179  -10.5379 C   0  0  0  0  0  0  0  0  0  0  0  0
   25.6031  -20.7452  -11.7244 C   0  0  2  0  0  0  0  0  0  0  0  0
   26.6809  -20.4656  -12.7079 N   0  0  0  0  0  0  0  0  0  0  0  0
   24.2987  -20.5413  -12.3236 C   0  0  0  0  0  0  0  0  0  0  0  0
   24.2545  -19.7913  -13.3623 O   0  0  0  0  0  0  0  0  0  0  0  0
   23.0508  -21.0595  -11.9259 N   0  0  0  0  0  0  0  0  0  0  0  0
   21.8101  -20.8074  -12.6360 C   0  0  1  0  0  0  0  0  0  0  0  0
   21.7548  -21.6516  -13.8886 C   0  0  0  0  0  0  0  0  0  0  0  0
   20.5589  -21.0137  -15.0729 S   0  0  0  0  0  0  0  0  0  0  0  0
   20.6250  -21.1548  -11.8102 C   0  0  0  0  0  0  0  0  0  0  0  0
   20.8558  -21.7049  -10.5587 O   0  0  0  0  0  0  0  0  0  0  0  0
   19.4837  -20.9441  -12.2613 O   0  0  0  0  0  0  0  0  0  0  0  0
  2  3  1  0
  2  1  1  0
  3  4  1  6
  3  5  1  0
  5 12  1  0
  5  6  2  0
  7  8  1  0
  8  9  1  0
  9 10  1  0
 11 10  1  1
 11 13  1  0
 12 11  1  0
 13 15  1  0
 13 14  2  0
 15 16  1  0
 16 19  1  0
 16 17  1  6
 18 17  1  0
 19 20  1  0
 21 19  2  0
M  END
$$$$
