SMC.pdb
     RDKit          3D

 21 20  0  0  1  0  0  0  0  0999 V2000
   16.6325  -11.9083  -11.9968 O   0  0  0  0  0  0  0  0  0  0  0  0
   16.5000  -11.8115  -10.6097 C   0  0  0  0  0  0  0  0  0  0  0  0
   15.2367  -11.0370  -10.2570 C   0  0  2  0  0  0  0  0  0  0  0  0
   14.1091  -11.6207  -10.9172 N   0  0  0  0  0  0  0  0  0  0  0  0
   15.4612   -9.6193  -10.6551 C   0  0  0  0  0  0  0  0  0  0  0  0
   14.9380   -9.1617  -11.7214 O   0  0  0  0  0  0  0  0  0  0  0  0
   15.5790   -2.4929   -7.8434 C   0  0  0  0  0  0  0  0  0  0  0  0
   15.2813   -4.2808   -7.8365 S   0  0  0  0  0  0  0  0  0  0  0  0
   16.1130   -5.0648   -9.2629 C   0  0  0  0  0  0  0  0  0  0  0  0
   15.8990   -6.5451   -9.1322 C   0  0  0  0  0  0  0  0  0  0  0  0
   16.4827   -7.3209  -10.2654 C   0  0  2  0  0  0  0  0  0  0  0  0
   16.2396   -8.7393   -9.8963 N   0  0  0  0  0  0  0  0  0  0  0  0
   17.8796   -7.1098  -10.5914 C   0  0  0  0  0  0  0  0  0  0  0  0
   18.7323   -7.8260   -9.9564 O   0  0  0  0  0  0  0  0  0  0  0  0
   18.4463   -6.2188  -11.5236 N   0  0  0  0  0  0  0  0  0  0  0  0
   19.8609   -6.1837  -11.8478 C   0  0  1  0  0  0  0  0  0  0  0  0
   20.2875   -7.5125  -12.4285 C   0  0  0  0  0  0  0  0  0  0  0  0
   21.9606   -7.4474  -13.0890 S   0  0  0  0  0  0  0  0  0  0  0  0
   20.1668   -5.1364  -12.8560 C   0  0  0  0  0  0  0  0  0  0  0  0
   21.4644   -4.6503  -12.9006 O   0  0  0  0  0  0  0  0  0  0  0  0
   19.2637   -4.7368  -13.6144 O   0  0  0  0  0  0  0  0  0  0  0  0
  2  3  1  0
  2  1  1  0
  3  4  1  6
  3  5  1  0
  5 12  1  0
  5  6  2  0
  7  8  1  0
  8  9  1  0
  9 10  1  0
 11 10  1  1
 11 13  1  0
 12 11  1  0
 13 15  1  0
 13 14  2  0
 15 16  1  0
 16 19  1  0
 16 17  1  6
 18 17  1  0
 19 20  1  0
 21 19  2  0
M  END
$$$$
