SMC.pdb
     RDKit          3D

 21 20  0  0  1  0  0  0  0  0999 V2000
   19.4412  -13.0484  -20.4175 O   0  0  0  0  0  0  0  0  0  0  0  0
   19.6811  -12.8443  -19.0567 C   0  0  0  0  0  0  0  0  0  0  0  0
   20.9149  -13.6234  -18.6198 C   0  0  2  0  0  0  0  0  0  0  0  0
   20.5188  -14.8334  -17.9662 N   0  0  0  0  0  0  0  0  0  0  0  0
   21.7118  -12.7298  -17.7339 C   0  0  0  0  0  0  0  0  0  0  0  0
   21.3474  -12.5277  -16.5311 O   0  0  0  0  0  0  0  0  0  0  0  0
   29.0751  -10.3222  -16.7185 C   0  0  0  0  0  0  0  0  0  0  0  0
   27.7675  -11.2779  -17.5322 S   0  0  0  0  0  0  0  0  0  0  0  0
   26.1289  -10.7715  -16.9000 C   0  0  0  0  0  0  0  0  0  0  0  0
   25.1067  -11.5890  -17.6354 C   0  0  0  0  0  0  0  0  0  0  0  0
   23.7036  -11.2053  -17.3020 C   0  0  2  0  0  0  0  0  0  0  0  0
   22.8733  -12.0823  -18.1672 N   0  0  0  0  0  0  0  0  0  0  0  0
   23.3178   -9.8169  -17.4612 C   0  0  0  0  0  0  0  0  0  0  0  0
   23.2773   -9.3657  -18.6604 O   0  0  0  0  0  0  0  0  0  0  0  0
   22.9711   -8.8754  -16.4726 N   0  0  0  0  0  0  0  0  0  0  0  0
   22.5546   -7.5159  -16.7651 C   0  0  1  0  0  0  0  0  0  0  0  0
   21.4747   -7.0903  -15.7968 C   0  0  0  0  0  0  0  0  0  0  0  0
   19.9529   -8.0198  -16.0414 S   0  0  0  0  0  0  0  0  0  0  0  0
   23.6802   -6.5560  -16.6292 C   0  0  0  0  0  0  0  0  0  0  0  0
   23.4413   -5.2356  -16.9778 O   0  0  0  0  0  0  0  0  0  0  0  0
   24.7818   -6.9618  -16.2141 O   0  0  0  0  0  0  0  0  0  0  0  0
  2  3  1  0
  2  1  1  0
  3  4  1  1
  3  5  1  0
  5 12  1  0
  5  6  2  0
  7  8  1  0
  8  9  1  0
  9 10  1  0
 11 10  1  6
 11 13  1  0
 12 11  1  0
 13 15  1  0
 13 14  2  0
 15 16  1  0
 16 19  1  0
 16 17  1  1
 18 17  1  0
 19 20  1  0
 21 19  2  0
M  END
$$$$
