SMC.pdb
     RDKit          3D

 21 20  0  0  1  0  0  0  0  0999 V2000
   18.7289  -10.6889  -13.0982 O   0  0  0  0  0  0  0  0  0  0  0  0
   18.3527  -11.6551  -12.1623 C   0  0  0  0  0  0  0  0  0  0  0  0
   16.8917  -12.0371  -12.3623 C   0  0  2  0  0  0  0  0  0  0  0  0
   16.6672  -12.3992  -13.7285 N   0  0  0  0  0  0  0  0  0  0  0  0
   16.0675  -10.8716  -11.9371 C   0  0  0  0  0  0  0  0  0  0  0  0
   15.7348   -9.9789  -12.7812 O   0  0  0  0  0  0  0  0  0  0  0  0
    9.7995   -9.3760   -7.9346 C   0  0  0  0  0  0  0  0  0  0  0  0
   11.3479  -10.2981   -8.1281 S   0  0  0  0  0  0  0  0  0  0  0  0
   12.4699   -9.4154   -9.2696 C   0  0  0  0  0  0  0  0  0  0  0  0
   13.7586  -10.1853   -9.2956 C   0  0  0  0  0  0  0  0  0  0  0  0
   14.7950   -9.5580  -10.1670 C   0  0  2  0  0  0  0  0  0  0  0  0
   15.6273  -10.7020  -10.6204 N   0  0  0  0  0  0  0  0  0  0  0  0
   15.6261   -8.5146   -9.5990 C   0  0  0  0  0  0  0  0  0  0  0  0
   16.6773   -8.8950   -8.9716 O   0  0  0  0  0  0  0  0  0  0  0  0
   15.4456   -7.1183   -9.6401 N   0  0  0  0  0  0  0  0  0  0  0  0
   16.3499   -6.1700   -9.0152 C   0  0  1  0  0  0  0  0  0  0  0  0
   17.6328   -6.0838   -9.8099 C   0  0  0  0  0  0  0  0  0  0  0  0
   17.3176   -5.8163  -11.5617 S   0  0  0  0  0  0  0  0  0  0  0  0
   15.7640   -4.8058   -8.9630 C   0  0  0  0  0  0  0  0  0  0  0  0
   14.5619   -4.5997   -9.6222 O   0  0  0  0  0  0  0  0  0  0  0  0
   16.3613   -3.9083   -8.3398 O   0  0  0  0  0  0  0  0  0  0  0  0
  2  3  1  0
  2  1  1  0
  3  4  1  6
  3  5  1  0
  5 12  1  0
  5  6  2  0
  7  8  1  0
  8  9  1  0
  9 10  1  0
 11 10  1  1
 11 13  1  0
 12 11  1  0
 13 15  1  0
 13 14  2  0
 15 16  1  0
 16 19  1  0
 16 17  1  6
 18 17  1  0
 19 20  1  0
 21 19  2  0
M  END
$$$$
