SMC.pdb
     RDKit          3D

 21 20  0  0  1  0  0  0  0  0999 V2000
   28.7672  -23.0219  -17.0264 O   0  0  0  0  0  0  0  0  0  0  0  0
   28.4042  -22.2377  -15.9291 C   0  0  0  0  0  0  0  0  0  0  0  0
   27.6022  -21.0283  -16.3920 C   0  0  2  0  0  0  0  0  0  0  0  0
   28.4566  -20.1178  -17.0913 N   0  0  0  0  0  0  0  0  0  0  0  0
   26.9843  -20.4177  -15.1821 C   0  0  0  0  0  0  0  0  0  0  0  0
   27.5855  -19.4877  -14.5545 O   0  0  0  0  0  0  0  0  0  0  0  0
   21.0101  -22.1677  -13.4564 C   0  0  0  0  0  0  0  0  0  0  0  0
   21.0031  -20.3805  -13.1547 S   0  0  0  0  0  0  0  0  0  0  0  0
   22.6960  -19.7951  -12.7906 C   0  0  0  0  0  0  0  0  0  0  0  0
   23.5971  -20.3938  -13.8318 C   0  0  0  0  0  0  0  0  0  0  0  0
   25.0446  -20.1592  -13.5547 C   0  0  2  0  0  0  0  0  0  0  0  0
   25.7420  -20.8246  -14.6851 N   0  0  0  0  0  0  0  0  0  0  0  0
   25.5804  -20.6120  -12.2858 C   0  0  0  0  0  0  0  0  0  0  0  0
   25.9266  -21.8442  -12.2152 O   0  0  0  0  0  0  0  0  0  0  0  0
   25.7831  -19.8811  -11.0989 N   0  0  0  0  0  0  0  0  0  0  0  0
   26.1262  -20.4895   -9.8264 C   0  0  1  0  0  0  0  0  0  0  0  0
   26.9721  -19.5365   -9.0133 C   0  0  0  0  0  0  0  0  0  0  0  0
   27.0621  -20.0303   -7.2848 S   0  0  0  0  0  0  0  0  0  0  0  0
   24.9157  -20.8069   -9.0259 C   0  0  0  0  0  0  0  0  0  0  0  0
   25.0236  -21.8061   -8.0709 O   0  0  0  0  0  0  0  0  0  0  0  0
   23.8626  -20.1762   -9.2353 O   0  0  0  0  0  0  0  0  0  0  0  0
  2  3  1  0
  2  1  1  0
  3  4  1  1
  3  5  1  0
  5 12  1  0
  5  6  2  0
  7  8  1  0
  8  9  1  0
  9 10  1  0
 11 10  1  1
 11 13  1  0
 12 11  1  0
 13 15  1  0
 13 14  2  0
 15 16  1  0
 16 19  1  0
 16 17  1  1
 18 17  1  0
 19 20  1  0
 21 19  2  0
M  END
$$$$
