SMC.pdb
     RDKit          3D

 21 20  0  0  1  0  0  0  0  0999 V2000
   24.3441  -20.3957  -13.3705 O   0  0  0  0  0  0  0  0  0  0  0  0
   25.2808  -19.5040  -12.8428 C   0  0  0  0  0  0  0  0  0  0  0  0
   26.5184  -20.2596  -12.3764 C   0  0  2  0  0  0  0  0  0  0  0  0
   26.9106  -21.2103  -13.3716 N   0  0  0  0  0  0  0  0  0  0  0  0
   26.1810  -20.9007  -11.0750 C   0  0  0  0  0  0  0  0  0  0  0  0
   25.8756  -22.1355  -11.0280 O   0  0  0  0  0  0  0  0  0  0  0  0
   28.7499  -18.6316   -6.0279 C   0  0  0  0  0  0  0  0  0  0  0  0
   27.3588  -19.3116   -5.0858 S   0  0  0  0  0  0  0  0  0  0  0  0
   26.3576  -20.4141   -6.1456 C   0  0  0  0  0  0  0  0  0  0  0  0
   26.5472  -19.9485   -7.5604 C   0  0  0  0  0  0  0  0  0  0  0  0
   25.8340  -20.8016   -8.5555 C   0  0  2  0  0  0  0  0  0  0  0  0
   26.1821  -20.1962   -9.8668 N   0  0  0  0  0  0  0  0  0  0  0  0
   24.3975  -20.9489   -8.4257 C   0  0  0  0  0  0  0  0  0  0  0  0
   23.6734  -20.2034   -9.1761 O   0  0  0  0  0  0  0  0  0  0  0  0
   23.6684  -21.8100   -7.5825 N   0  0  0  0  0  0  0  0  0  0  0  0
   22.2222  -21.9324   -7.6117 C   0  0  1  0  0  0  0  0  0  0  0  0
   21.8148  -23.3148   -7.1560 C   0  0  0  0  0  0  0  0  0  0  0  0
   20.0254  -23.4929   -7.0775 S   0  0  0  0  0  0  0  0  0  0  0  0
   21.5703  -20.9527   -6.7050 C   0  0  0  0  0  0  0  0  0  0  0  0
   22.0978  -20.8100   -5.4309 O   0  0  0  0  0  0  0  0  0  0  0  0
   20.5888  -20.3034   -7.1121 O   0  0  0  0  0  0  0  0  0  0  0  0
  2  3  1  0
  2  1  1  0
  3  4  1  6
  3  5  1  0
  5 12  1  0
  5  6  2  0
  7  8  1  0
  8  9  1  0
  9 10  1  0
 11 10  1  1
 11 13  1  0
 12 11  1  0
 13 15  1  0
 13 14  2  0
 15 16  1  0
 16 19  1  0
 16 17  1  1
 18 17  1  0
 19 20  1  0
 21 19  2  0
M  END
$$$$
