SMC.pdb
     RDKit          3D

 21 20  0  0  1  0  0  0  0  0999 V2000
   18.6837  -14.3793  -17.9781 O   0  0  0  0  0  0  0  0  0  0  0  0
   19.2191  -13.3358  -17.2195 C   0  0  0  0  0  0  0  0  0  0  0  0
   20.6392  -13.6774  -16.7874 C   0  0  2  0  0  0  0  0  0  0  0  0
   20.6209  -14.8069  -15.9088 N   0  0  0  0  0  0  0  0  0  0  0  0
   21.2103  -12.4617  -16.1436 C   0  0  0  0  0  0  0  0  0  0  0  0
   20.7205  -12.0225  -15.0540 O   0  0  0  0  0  0  0  0  0  0  0  0
   27.7610  -12.8203  -14.8193 C   0  0  0  0  0  0  0  0  0  0  0  0
   26.8283  -11.7047  -15.9013 S   0  0  0  0  0  0  0  0  0  0  0  0
   25.0680  -11.6741  -15.4097 C   0  0  0  0  0  0  0  0  0  0  0  0
   24.3709  -10.7291  -16.3454 C   0  0  0  0  0  0  0  0  0  0  0  0
   22.9174  -10.5766  -16.0440 C   0  0  2  0  0  0  0  0  0  0  0  0
   22.2880  -11.7573  -16.6897 N   0  0  0  0  0  0  0  0  0  0  0  0
   22.2572   -9.3544  -16.4591 C   0  0  0  0  0  0  0  0  0  0  0  0
   21.9980   -9.2374  -17.7091 O   0  0  0  0  0  0  0  0  0  0  0  0
   21.8483   -8.2584  -15.6745 N   0  0  0  0  0  0  0  0  0  0  0  0
   21.1908   -7.0819  -16.2136 C   0  0  1  0  0  0  0  0  0  0  0  0
   19.6914   -7.2320  -16.0947 C   0  0  0  0  0  0  0  0  0  0  0  0
   19.2211   -8.0581  -14.5663 S   0  0  0  0  0  0  0  0  0  0  0  0
   21.5767   -5.8514  -15.4761 C   0  0  0  0  0  0  0  0  0  0  0  0
   21.0897   -4.6424  -15.9487 O   0  0  0  0  0  0  0  0  0  0  0  0
   22.3118   -5.9447  -14.4753 O   0  0  0  0  0  0  0  0  0  0  0  0
  2  3  1  0
  2  1  1  0
  3  4  1  1
  3  5  1  0
  5 12  1  0
  5  6  2  0
  7  8  1  0
  8  9  1  0
  9 10  1  0
 11 10  1  6
 11 13  1  0
 12 11  1  0
 13 15  1  0
 13 14  2  0
 15 16  1  0
 16 19  1  0
 16 17  1  1
 18 17  1  0
 19 20  1  0
 21 19  2  0
M  END
$$$$
