MQV.pdb
     RDKit          3D

 25 24  0  0  1  0  0  0  0  0999 V2000
    7.8008  -11.5883   20.1073 C   0  0  0  0  0  0  0  0  0  0  0  0
    8.1314  -12.8180   18.8185 S   0  0  0  0  0  0  0  0  0  0  0  0
    7.1125  -14.2982   19.0109 C   0  0  0  0  0  0  0  0  0  0  0  0
    6.9313  -14.5612   20.4894 C   0  0  0  0  0  0  0  0  0  0  0  0
    7.5437  -15.9065   20.8287 C   0  0  2  0  0  0  0  0  0  0  0  0
    6.8638  -16.8902   20.0271 N   0  0  0  0  0  0  0  0  0  0  0  0
    7.3614  -16.2493   22.2552 C   0  0  0  0  0  0  0  0  0  0  0  0
    6.6185  -17.2097   22.5619 O   0  0  0  0  0  0  0  0  0  0  0  0
   11.8480  -18.7667   22.3449 N   0  0  0  0  0  0  0  0  0  0  0  0
   12.0040  -18.4382   23.7204 C   0  0  0  0  0  0  0  0  0  0  0  0
   13.0332  -18.8446   24.2942 O   0  0  0  0  0  0  0  0  0  0  0  0
   10.9813  -17.6422   24.4262 C   0  0  0  0  0  0  0  0  0  0  0  0
    9.9930  -16.9656   23.5599 C   0  0  0  0  0  0  0  0  0  0  0  0
    8.9368  -16.1432   24.2214 C   0  0  2  0  0  0  0  0  0  0  0  0
    7.9898  -15.5428   23.3320 N   0  0  0  0  0  0  0  0  0  0  0  0
    9.4665  -15.2178   25.2359 C   0  0  0  0  0  0  0  0  0  0  0  0
   10.4265  -15.5999   25.9444 O   0  0  0  0  0  0  0  0  0  0  0  0
    6.3224  -13.2280   27.0910 C   0  0  0  0  0  0  0  0  0  0  0  0
    7.5527  -12.3949   26.7519 C   0  0  2  0  0  0  0  0  0  0  0  0
    7.3364  -11.6925   25.4073 C   0  0  0  0  0  0  0  0  0  0  0  0
    8.7760  -13.2342   26.6465 C   0  0  2  0  0  0  0  0  0  0  0  0
    8.9006  -13.9326   25.3997 N   0  0  0  0  0  0  0  0  0  0  0  0
    8.8109  -14.1981   27.8025 C   0  0  0  0  0  0  0  0  0  0  0  0
    9.3120  -13.8650   29.0466 O   0  0  0  0  0  0  0  0  0  0  0  0
    8.3729  -15.3880   27.6868 O   0  0  0  0  0  0  0  0  0  0  0  0
  1  2  1  0
  3  2  1  0
  4  3  1  0
  5  4  1  0
  5  6  1  6
  7  5  1  0
  8  7  2  0
  9 10  1  0
 10 12  1  0
 11 10  2  0
 13 12  1  0
 14 13  1  6
 14 15  1  0
 15  7  1  0
 16 14  1  0
 16 17  2  0
 19 18  1  6
 19 21  1  0
 20 19  1  0
 21 22  1  6
 22 16  1  0
 23 21  1  0
 24 23  1  0
 25 23  2  0
M  END
$$$$
