MQV.pdb
     RDKit          3D

 25 24  0  0  1  0  0  0  0  0999 V2000
    8.5175  -11.3637   19.8684 C   0  0  0  0  0  0  0  0  0  0  0  0
    7.6932  -12.3872   18.6211 S   0  0  0  0  0  0  0  0  0  0  0  0
    8.1250  -14.1350   18.7796 C   0  0  0  0  0  0  0  0  0  0  0  0
    7.9242  -14.5450   20.2216 C   0  0  0  0  0  0  0  0  0  0  0  0
    8.2805  -16.0115   20.3706 C   0  0  2  0  0  0  0  0  0  0  0  0
    7.2652  -16.7615   19.6781 N   0  0  0  0  0  0  0  0  0  0  0  0
    8.2966  -16.4321   21.7878 C   0  0  0  0  0  0  0  0  0  0  0  0
    7.2100  -16.5881   22.3905 O   0  0  0  0  0  0  0  0  0  0  0  0
   12.9434  -18.8092   25.5164 N   0  0  0  0  0  0  0  0  0  0  0  0
   11.8500  -18.5599   26.3920 C   0  0  0  0  0  0  0  0  0  0  0  0
   12.0741  -18.6062   27.6173 O   0  0  0  0  0  0  0  0  0  0  0  0
   10.5093  -18.2548   25.8560 C   0  0  0  0  0  0  0  0  0  0  0  0
   10.4548  -17.9649   24.4076 C   0  0  0  0  0  0  0  0  0  0  0  0
    9.5119  -16.9029   23.9466 C   0  0  2  0  0  0  0  0  0  0  0  0
    9.4955  -16.6781   22.5332 N   0  0  0  0  0  0  0  0  0  0  0  0
    9.5892  -15.6671   24.7423 C   0  0  0  0  0  0  0  0  0  0  0  0
   10.5927  -14.9307   24.5993 O   0  0  0  0  0  0  0  0  0  0  0  0
    6.5072  -13.2950   25.1191 C   0  0  0  0  0  0  0  0  0  0  0  0
    7.1137  -13.5361   26.4963 C   0  0  2  0  0  0  0  0  0  0  0  0
    7.2059  -12.2059   27.2514 C   0  0  0  0  0  0  0  0  0  0  0  0
    8.4811  -14.1141   26.4040 C   0  0  2  0  0  0  0  0  0  0  0  0
    8.5530  -15.3275   25.6421 N   0  0  0  0  0  0  0  0  0  0  0  0
    9.0195  -14.3254   27.7939 C   0  0  0  0  0  0  0  0  0  0  0  0
    9.3442  -15.5718   28.2949 O   0  0  0  0  0  0  0  0  0  0  0  0
    9.2041  -13.3482   28.5889 O   0  0  0  0  0  0  0  0  0  0  0  0
  1  2  1  0
  3  2  1  0
  4  3  1  0
  5  4  1  0
  5  6  1  6
  7  5  1  0
  8  7  2  0
  9 10  1  0
 10 12  1  0
 11 10  2  0
 13 12  1  0
 14 13  1  6
 14 15  1  0
 15  7  1  0
 16 14  1  0
 16 17  2  0
 19 18  1  6
 19 21  1  0
 20 19  1  0
 21 22  1  1
 22 16  1  0
 23 21  1  0
 24 23  1  0
 25 23  2  0
M  END
$$$$
