MQV.pdb
     RDKit          3D

 25 24  0  0  1  0  0  0  0  0999 V2000
    7.6249  -12.4720   19.9201 C   0  0  0  0  0  0  0  0  0  0  0  0
    7.8015  -13.5923   18.5071 S   0  0  0  0  0  0  0  0  0  0  0  0
    7.2738  -15.2753   18.9011 C   0  0  0  0  0  0  0  0  0  0  0  0
    6.8085  -15.3025   20.3401 C   0  0  0  0  0  0  0  0  0  0  0  0
    6.5170  -16.7371   20.7361 C   0  0  2  0  0  0  0  0  0  0  0  0
    5.3103  -17.1233   20.0523 N   0  0  0  0  0  0  0  0  0  0  0  0
    6.3005  -16.8723   22.1923 C   0  0  0  0  0  0  0  0  0  0  0  0
    5.2674  -16.3829   22.7037 O   0  0  0  0  0  0  0  0  0  0  0  0
    7.8164  -21.1162   26.6714 N   0  0  0  0  0  0  0  0  0  0  0  0
    7.6583  -19.9124   27.4131 C   0  0  0  0  0  0  0  0  0  0  0  0
    7.7061  -19.9938   28.6560 O   0  0  0  0  0  0  0  0  0  0  0  0
    7.4514  -18.6239   26.7241 C   0  0  0  0  0  0  0  0  0  0  0  0
    7.4112  -18.6918   25.2480 C   0  0  0  0  0  0  0  0  0  0  0  0
    7.1505  -17.4256   24.5011 C   0  0  2  0  0  0  0  0  0  0  0  0
    7.2111  -17.5387   23.0756 N   0  0  0  0  0  0  0  0  0  0  0  0
    7.8875  -16.2692   25.0357 C   0  0  0  0  0  0  0  0  0  0  0  0
    9.0404  -16.0466   24.5989 O   0  0  0  0  0  0  0  0  0  0  0  0
    5.8717  -12.8905   26.4391 C   0  0  0  0  0  0  0  0  0  0  0  0
    6.9879  -13.3990   27.3435 C   0  0  2  0  0  0  0  0  0  0  0  0
    7.7841  -12.2081   27.8876 C   0  0  0  0  0  0  0  0  0  0  0  0
    7.9272  -14.2914   26.6130 C   0  0  2  0  0  0  0  0  0  0  0  0
    7.3018  -15.4364   26.0165 N   0  0  0  0  0  0  0  0  0  0  0  0
    9.0299  -14.7134   27.5470 C   0  0  0  0  0  0  0  0  0  0  0  0
   10.1487  -13.9394   27.7905 O   0  0  0  0  0  0  0  0  0  0  0  0
    8.9839  -15.8239   28.1681 O   0  0  0  0  0  0  0  0  0  0  0  0
  1  2  1  0
  3  2  1  0
  4  3  1  0
  5  4  1  0
  5  6  1  6
  7  5  1  0
  8  7  2  0
  9 10  1  0
 10 12  1  0
 11 10  2  0
 13 12  1  0
 14 13  1  1
 14 15  1  0
 15  7  1  0
 16 14  1  0
 16 17  2  0
 19 18  1  6
 19 21  1  0
 20 19  1  0
 21 22  1  1
 22 16  1  0
 23 21  1  0
 24 23  1  0
 25 23  2  0
M  END
$$$$
