MQV.pdb
     RDKit          3D

 25 24  0  0  1  0  0  0  0  0999 V2000
    8.7141  -12.3833   20.2320 C   0  0  0  0  0  0  0  0  0  0  0  0
    8.2819  -13.1026   18.6262 S   0  0  0  0  0  0  0  0  0  0  0  0
    8.0970  -14.8984   18.7111 C   0  0  0  0  0  0  0  0  0  0  0  0
    6.9041  -15.2122   19.5865 C   0  0  0  0  0  0  0  0  0  0  0  0
    7.1145  -16.5650   20.2388 C   0  0  2  0  0  0  0  0  0  0  0  0
    6.1527  -17.4645   19.6568 N   0  0  0  0  0  0  0  0  0  0  0  0
    6.8906  -16.5119   21.6992 C   0  0  0  0  0  0  0  0  0  0  0  0
    5.7528  -16.2180   22.1319 O   0  0  0  0  0  0  0  0  0  0  0  0
    8.5756  -20.4590   26.1577 N   0  0  0  0  0  0  0  0  0  0  0  0
    7.3790  -19.7668   26.4943 C   0  0  0  0  0  0  0  0  0  0  0  0
    6.6716  -20.2504   27.3996 O   0  0  0  0  0  0  0  0  0  0  0  0
    7.0050  -18.5230   25.7938 C   0  0  0  0  0  0  0  0  0  0  0  0
    7.9791  -18.0402   24.7922 C   0  0  0  0  0  0  0  0  0  0  0  0
    7.6717  -16.7623   24.0837 C   0  0  2  0  0  0  0  0  0  0  0  0
    7.9081  -16.7793   22.6723 N   0  0  0  0  0  0  0  0  0  0  0  0
    8.2137  -15.5734   24.7612 C   0  0  0  0  0  0  0  0  0  0  0  0
    9.3798  -15.2108   24.4815 O   0  0  0  0  0  0  0  0  0  0  0  0
    5.6919  -12.5152   26.1085 C   0  0  0  0  0  0  0  0  0  0  0  0
    6.7548  -12.9694   27.1018 C   0  0  2  0  0  0  0  0  0  0  0  0
    7.3522  -11.7449   27.8029 C   0  0  0  0  0  0  0  0  0  0  0  0
    7.8593  -13.7056   26.4305 C   0  0  2  0  0  0  0  0  0  0  0  0
    7.4314  -14.8648   25.7017 N   0  0  0  0  0  0  0  0  0  0  0  0
    8.8975  -14.0747   27.4563 C   0  0  0  0  0  0  0  0  0  0  0  0
    9.8807  -13.2015   27.8814 O   0  0  0  0  0  0  0  0  0  0  0  0
    8.9202  -15.2303   27.9903 O   0  0  0  0  0  0  0  0  0  0  0  0
  1  2  1  0
  3  2  1  0
  4  3  1  0
  5  4  1  0
  5  6  1  6
  7  5  1  0
  8  7  2  0
  9 10  1  0
 10 12  1  0
 11 10  2  0
 13 12  1  0
 14 13  1  1
 14 15  1  0
 15  7  1  0
 16 14  1  0
 16 17  2  0
 19 18  1  6
 19 21  1  0
 20 19  1  0
 21 22  1  1
 22 16  1  0
 23 21  1  0
 24 23  1  0
 25 23  2  0
M  END
$$$$
