MQV.pdb
     RDKit          3D

 25 24  0  0  1  0  0  0  0  0999 V2000
    7.2289  -11.0660   26.2345 C   0  0  0  0  0  0  0  0  0  0  0  0
    5.8026  -11.5134   25.2107 S   0  0  0  0  0  0  0  0  0  0  0  0
    6.2789  -12.4933   23.7687 C   0  0  0  0  0  0  0  0  0  0  0  0
    7.0917  -13.6763   24.2459 C   0  0  0  0  0  0  0  0  0  0  0  0
    7.4907  -14.5150   23.0470 C   0  0  2  0  0  0  0  0  0  0  0  0
    6.2738  -15.0144   22.4617 N   0  0  0  0  0  0  0  0  0  0  0  0
    8.3356  -15.6640   23.4367 C   0  0  0  0  0  0  0  0  0  0  0  0
    7.8256  -16.6024   24.0905 O   0  0  0  0  0  0  0  0  0  0  0  0
   11.5320  -20.2089   22.1836 N   0  0  0  0  0  0  0  0  0  0  0  0
   12.1036  -19.6989   23.3825 C   0  0  0  0  0  0  0  0  0  0  0  0
   12.1981  -20.4790   24.3501 O   0  0  0  0  0  0  0  0  0  0  0  0
   12.5669  -18.3000   23.4613 C   0  0  0  0  0  0  0  0  0  0  0  0
   11.6578  -17.2953   22.8705 C   0  0  0  0  0  0  0  0  0  0  0  0
   10.6133  -16.6982   23.7548 C   0  0  2  0  0  0  0  0  0  0  0  0
    9.7262  -15.7785   23.1101 N   0  0  0  0  0  0  0  0  0  0  0  0
   11.1434  -16.2097   25.0380 C   0  0  0  0  0  0  0  0  0  0  0  0
   12.0236  -15.3184   25.0160 O   0  0  0  0  0  0  0  0  0  0  0  0
    9.8399  -14.1363   27.3559 C   0  0  0  0  0  0  0  0  0  0  0  0
   10.1002  -15.3694   28.2129 C   0  0  2  0  0  0  0  0  0  0  0  0
   10.6842  -14.9371   29.5620 C   0  0  0  0  0  0  0  0  0  0  0  0
   11.0643  -16.2985   27.5652 C   0  0  2  0  0  0  0  0  0  0  0  0
   10.6657  -16.7381   26.2591 N   0  0  0  0  0  0  0  0  0  0  0  0
   11.2983  -17.4753   28.4746 C   0  0  0  0  0  0  0  0  0  0  0  0
   12.2095  -17.4553   29.5135 O   0  0  0  0  0  0  0  0  0  0  0  0
   10.6567  -18.5650   28.3269 O   0  0  0  0  0  0  0  0  0  0  0  0
  1  2  1  0
  3  2  1  0
  4  3  1  0
  5  4  1  0
  5  6  1  1
  7  5  1  0
  8  7  2  0
  9 10  1  0
 10 12  1  0
 11 10  2  0
 13 12  1  0
 14 13  1  6
 14 15  1  0
 15  7  1  0
 16 14  1  0
 16 17  2  0
 19 18  1  6
 19 21  1  0
 20 19  1  0
 21 22  1  6
 22 16  1  0
 23 21  1  0
 24 23  1  0
 25 23  2  0
M  END
$$$$
