MQV.pdb
     RDKit          3D

 25 24  0  0  1  0  0  0  0  0999 V2000
    8.8400  -11.7709   19.6610 C   0  0  0  0  0  0  0  0  0  0  0  0
    8.0620  -12.6795   18.3002 S   0  0  0  0  0  0  0  0  0  0  0  0
    8.0362  -14.4620   18.5974 C   0  0  0  0  0  0  0  0  0  0  0  0
    7.8466  -14.6937   20.0801 C   0  0  0  0  0  0  0  0  0  0  0  0
    7.9927  -16.1751   20.3694 C   0  0  2  0  0  0  0  0  0  0  0  0
    6.8503  -16.8301   19.7873 N   0  0  0  0  0  0  0  0  0  0  0  0
    8.0091  -16.4526   21.8215 C   0  0  0  0  0  0  0  0  0  0  0  0
    6.9231  -16.6084   22.4253 O   0  0  0  0  0  0  0  0  0  0  0  0
   11.8018  -19.8510   25.5167 N   0  0  0  0  0  0  0  0  0  0  0  0
   11.0982  -19.0475   26.4568 C   0  0  0  0  0  0  0  0  0  0  0  0
   11.2669  -19.2985   27.6660 O   0  0  0  0  0  0  0  0  0  0  0  0
   10.2103  -17.9594   26.0033 C   0  0  0  0  0  0  0  0  0  0  0  0
   10.1318  -17.7717   24.5392 C   0  0  0  0  0  0  0  0  0  0  0  0
    9.2114  -16.7157   24.0224 C   0  0  2  0  0  0  0  0  0  0  0  0
    9.2077  -16.5574   22.6000 N   0  0  0  0  0  0  0  0  0  0  0  0
    9.3066  -15.4455   24.7599 C   0  0  0  0  0  0  0  0  0  0  0  0
   10.3151  -14.7256   24.5746 O   0  0  0  0  0  0  0  0  0  0  0  0
    6.1950  -12.9537   25.4206 C   0  0  0  0  0  0  0  0  0  0  0  0
    6.9259  -13.3082   26.7101 C   0  0  2  0  0  0  0  0  0  0  0  0
    7.0810  -12.0491   27.5695 C   0  0  0  0  0  0  0  0  0  0  0  0
    8.2817  -13.8586   26.4428 C   0  0  2  0  0  0  0  0  0  0  0  0
    8.2816  -15.0555   25.6521 N   0  0  0  0  0  0  0  0  0  0  0  0
    8.9860  -14.0865   27.7537 C   0  0  0  0  0  0  0  0  0  0  0  0
    9.5333  -13.0625   28.5032 O   0  0  0  0  0  0  0  0  0  0  0  0
    9.1139  -15.2550   28.2430 O   0  0  0  0  0  0  0  0  0  0  0  0
  1  2  1  0
  3  2  1  0
  4  3  1  0
  5  4  1  0
  5  6  1  6
  7  5  1  0
  8  7  2  0
  9 10  1  0
 10 12  1  0
 11 10  2  0
 13 12  1  0
 14 13  1  6
 14 15  1  0
 15  7  1  0
 16 14  1  0
 16 17  2  0
 19 18  1  6
 19 21  1  0
 20 19  1  0
 21 22  1  1
 22 16  1  0
 23 21  1  0
 24 23  1  0
 25 23  2  0
M  END
$$$$
