MQV.pdb
     RDKit          3D

 25 24  0  0  1  0  0  0  0  0999 V2000
    7.8601  -11.7259   20.1893 C   0  0  0  0  0  0  0  0  0  0  0  0
    8.0502  -12.5475   18.5857 S   0  0  0  0  0  0  0  0  0  0  0  0
    8.2229  -14.3387   18.7535 C   0  0  0  0  0  0  0  0  0  0  0  0
    8.3943  -14.6640   20.2207 C   0  0  0  0  0  0  0  0  0  0  0  0
    8.6068  -16.1579   20.3721 C   0  0  2  0  0  0  0  0  0  0  0  0
    7.4494  -16.8044   19.8108 N   0  0  0  0  0  0  0  0  0  0  0  0
    8.7299  -16.5546   21.7909 C   0  0  0  0  0  0  0  0  0  0  0  0
    7.6912  -16.7206   22.4705 O   0  0  0  0  0  0  0  0  0  0  0  0
   13.3105  -19.3082   22.1185 N   0  0  0  0  0  0  0  0  0  0  0  0
   12.5688  -19.8169   23.2210 C   0  0  0  0  0  0  0  0  0  0  0  0
   13.1048  -20.7049   23.9123 O   0  0  0  0  0  0  0  0  0  0  0  0
   11.2204  -19.3001   23.5253 C   0  0  0  0  0  0  0  0  0  0  0  0
   11.1816  -17.9982   24.2243 C   0  0  0  0  0  0  0  0  0  0  0  0
   10.0956  -17.0429   23.8538 C   0  0  2  0  0  0  0  0  0  0  0  0
    9.9825  -16.7661   22.4542 N   0  0  0  0  0  0  0  0  0  0  0  0
   10.0617  -15.8395   24.7006 C   0  0  0  0  0  0  0  0  0  0  0  0
   10.8596  -14.9089   24.4417 O   0  0  0  0  0  0  0  0  0  0  0  0
    7.0074  -13.6940   25.7339 C   0  0  0  0  0  0  0  0  0  0  0  0
    7.7045  -14.1848   26.9972 C   0  0  2  0  0  0  0  0  0  0  0  0
    7.7919  -13.0369   28.0085 C   0  0  0  0  0  0  0  0  0  0  0  0
    9.0847  -14.6628   26.7160 C   0  0  2  0  0  0  0  0  0  0  0  0
    9.1489  -15.7445   25.7760 N   0  0  0  0  0  0  0  0  0  0  0  0
    9.7455  -15.0450   28.0135 C   0  0  0  0  0  0  0  0  0  0  0  0
   10.2867  -14.1190   28.8850 O   0  0  0  0  0  0  0  0  0  0  0  0
    9.8397  -16.2618   28.3762 O   0  0  0  0  0  0  0  0  0  0  0  0
  1  2  1  0
  3  2  1  0
  4  3  1  0
  5  4  1  0
  5  6  1  1
  7  5  1  0
  8  7  2  0
  9 10  1  0
 10 12  1  0
 11 10  2  0
 13 12  1  0
 14 13  1  6
 14 15  1  0
 15  7  1  0
 16 14  1  0
 16 17  2  0
 19 18  1  6
 19 21  1  0
 20 19  1  0
 21 22  1  6
 22 16  1  0
 23 21  1  0
 24 23  1  0
 25 23  2  0
M  END
$$$$
