MQV.pdb
     RDKit          3D

 25 24  0  0  1  0  0  0  0  0999 V2000
    7.4972  -11.9036   20.4839 C   0  0  0  0  0  0  0  0  0  0  0  0
    7.9258  -12.4326   18.8048 S   0  0  0  0  0  0  0  0  0  0  0  0
    8.5285  -14.1358   18.7595 C   0  0  0  0  0  0  0  0  0  0  0  0
    8.4241  -14.7138   20.1534 C   0  0  0  0  0  0  0  0  0  0  0  0
    9.1442  -16.0480   20.1882 C   0  0  2  0  0  0  0  0  0  0  0  0
    8.4627  -16.9159   19.2634 N   0  0  0  0  0  0  0  0  0  0  0  0
    9.1013  -16.6609   21.5329 C   0  0  0  0  0  0  0  0  0  0  0  0
    8.1457  -17.4138   21.8301 O   0  0  0  0  0  0  0  0  0  0  0  0
   11.9543  -20.6411   24.9954 N   0  0  0  0  0  0  0  0  0  0  0  0
   12.5830  -19.8322   24.0083 C   0  0  0  0  0  0  0  0  0  0  0  0
   13.7200  -20.1721   23.6269 O   0  0  0  0  0  0  0  0  0  0  0  0
   11.9015  -18.6424   23.4625 C   0  0  0  0  0  0  0  0  0  0  0  0
   10.5599  -18.3674   24.0190 C   0  0  0  0  0  0  0  0  0  0  0  0
   10.0120  -16.9874   23.8616 C   0  0  2  0  0  0  0  0  0  0  0  0
   10.0991  -16.4474   22.5391 N   0  0  0  0  0  0  0  0  0  0  0  0
   10.4584  -16.0579   24.9118 C   0  0  0  0  0  0  0  0  0  0  0  0
   11.4696  -15.3524   24.6895 O   0  0  0  0  0  0  0  0  0  0  0  0
    8.2398  -13.5130   26.6021 C   0  0  0  0  0  0  0  0  0  0  0  0
    8.9235  -14.2931   27.7187 C   0  0  2  0  0  0  0  0  0  0  0  0
    9.4354  -13.3159   28.7821 C   0  0  0  0  0  0  0  0  0  0  0  0
   10.0809  -15.0794   27.2142 C   0  0  2  0  0  0  0  0  0  0  0  0
    9.7581  -15.9698   26.1367 N   0  0  0  0  0  0  0  0  0  0  0  0
   10.6990  -15.8337   28.3612 C   0  0  0  0  0  0  0  0  0  0  0  0
   11.5327  -15.2412   29.2906 O   0  0  0  0  0  0  0  0  0  0  0  0
   10.4796  -17.0761   28.5324 O   0  0  0  0  0  0  0  0  0  0  0  0
  1  2  1  0
  3  2  1  0
  4  3  1  0
  5  4  1  0
  5  6  1  6
  7  5  1  0
  8  7  2  0
  9 10  1  0
 10 12  1  0
 11 10  2  0
 13 12  1  0
 14 13  1  6
 14 15  1  0
 15  7  1  0
 16 14  1  0
 16 17  2  0
 19 18  1  6
 19 21  1  0
 20 19  1  0
 21 22  1  6
 22 16  1  0
 23 21  1  0
 24 23  1  0
 25 23  2  0
M  END
$$$$
