MQV.pdb
     RDKit          3D

 25 24  0  0  1  0  0  0  0  0999 V2000
    6.1916  -11.2578   26.3341 C   0  0  0  0  0  0  0  0  0  0  0  0
    6.1620  -12.5175   25.0322 S   0  0  0  0  0  0  0  0  0  0  0  0
    5.4568  -14.0782   25.6094 C   0  0  0  0  0  0  0  0  0  0  0  0
    6.5779  -15.0843   25.7459 C   0  0  0  0  0  0  0  0  0  0  0  0
    6.8231  -15.7340   24.3976 C   0  0  2  0  0  0  0  0  0  0  0  0
    5.6949  -16.5885   24.1333 N   0  0  0  0  0  0  0  0  0  0  0  0
    8.0511  -16.5572   24.3993 C   0  0  0  0  0  0  0  0  0  0  0  0
    8.0363  -17.6740   24.9657 O   0  0  0  0  0  0  0  0  0  0  0  0
   13.2759  -16.8533   20.7272 N   0  0  0  0  0  0  0  0  0  0  0  0
   11.8774  -16.8632   20.4654 C   0  0  0  0  0  0  0  0  0  0  0  0
   11.5169  -16.8447   19.2724 O   0  0  0  0  0  0  0  0  0  0  0  0
   10.9033  -16.8993   21.5733 C   0  0  0  0  0  0  0  0  0  0  0  0
   11.4847  -16.8688   22.9321 C   0  0  0  0  0  0  0  0  0  0  0  0
   10.5456  -16.7543   24.0872 C   0  0  2  0  0  0  0  0  0  0  0  0
    9.2815  -16.1555   23.7843 N   0  0  0  0  0  0  0  0  0  0  0  0
   11.1782  -16.2199   25.3040 C   0  0  0  0  0  0  0  0  0  0  0  0
   11.8222  -15.1488   25.2168 O   0  0  0  0  0  0  0  0  0  0  0  0
   10.8498  -13.9767   27.1860 C   0  0  0  0  0  0  0  0  0  0  0  0
   10.5221  -15.1241   28.1341 C   0  0  2  0  0  0  0  0  0  0  0  0
   10.8306  -14.6985   29.5734 C   0  0  0  0  0  0  0  0  0  0  0  0
   11.3224  -16.3397   27.8271 C   0  0  2  0  0  0  0  0  0  0  0  0
   11.0568  -16.9040   26.5352 N   0  0  0  0  0  0  0  0  0  0  0  0
   11.0988  -17.3609   28.9104 C   0  0  0  0  0  0  0  0  0  0  0  0
   10.3204  -18.4891   28.7335 O   0  0  0  0  0  0  0  0  0  0  0  0
   11.6253  -17.2313   30.0624 O   0  0  0  0  0  0  0  0  0  0  0  0
  1  2  1  0
  3  2  1  0
  4  3  1  0
  5  4  1  0
  5  6  1  1
  7  5  1  0
  8  7  2  0
  9 10  1  0
 10 12  1  0
 11 10  2  0
 13 12  1  0
 14 13  1  6
 14 15  1  0
 15  7  1  0
 16 14  1  0
 16 17  2  0
 19 18  1  6
 19 21  1  0
 20 19  1  0
 21 22  1  6
 22 16  1  0
 23 21  1  0
 24 23  1  0
 25 23  2  0
M  END
$$$$
