RFA.pdb
     RDKit          3D

 28 28  0  0  1  0  0  0  0  0999 V2000
   24.6951  -27.3702  -17.9646 N   0  0  0  0  0  0  0  0  0  0  0  0
   24.1723  -26.2768  -17.2353 C   0  0  0  0  0  0  0  0  0  0  0  0
   22.9521  -26.2607  -16.8864 N   0  0  0  0  0  0  0  0  0  0  0  0
   24.9969  -25.1713  -16.8755 N   0  0  0  0  0  0  0  0  0  0  0  0
   26.4183  -25.2772  -16.8888 C   0  0  0  0  0  0  0  0  0  0  0  0
   27.0742  -24.4255  -17.9482 C   0  0  0  0  0  0  0  0  0  0  0  0
   27.0212  -22.9733  -17.4562 C   0  0  0  0  0  0  0  0  0  0  0  0
   27.9645  -22.7715  -16.3027 C   0  0  2  0  0  0  0  0  0  0  0  0
   28.8732  -23.8842  -16.1164 N   0  0  0  0  0  0  0  0  0  0  0  0
   27.1826  -22.5733  -15.0748 C   0  0  0  0  0  0  0  0  0  0  0  0
   26.8279  -23.5754  -14.3877 O   0  0  0  0  0  0  0  0  0  0  0  0
   22.5018  -25.4963  -16.3376 N   0  0  0  0  0  0  0  0  0  0  0  0
   26.8168  -21.2725  -14.6446 C   0  0  1  0  0  0  0  0  0  0  0  0
   26.1165  -21.0196  -13.4062 C   0  0  0  0  0  0  0  0  0  0  0  0
   26.7241  -19.8551  -12.6702 C   0  0  0  0  0  0  0  0  0  0  0  0
   27.2711  -20.2209  -11.3484 C   0  0  0  0  0  0  0  0  0  0  0  0
   28.5603  -20.6727  -11.2219 C   0  0  0  0  0  0  0  0  0  0  0  0
   29.0932  -21.0225   -9.9756 C   0  0  0  0  0  0  0  0  0  0  0  0
   28.3218  -20.9155   -8.8550 C   0  0  0  0  0  0  0  0  0  0  0  0
   27.0291  -20.4637   -8.9718 C   0  0  0  0  0  0  0  0  0  0  0  0
   26.5096  -20.1199  -10.2075 C   0  0  0  0  0  0  0  0  0  0  0  0
   24.7092  -20.6112  -13.7496 O   0  0  0  0  0  0  0  0  0  0  0  0
   24.4991  -19.7318  -14.6349 C   0  0  0  0  0  0  0  0  0  0  0  0
   21.4928  -22.0207  -13.8290 C   0  0  2  0  0  0  0  0  0  0  0  0
   22.2250  -20.7991  -13.3051 N   0  0  0  0  0  0  0  0  0  0  0  0
   23.6014  -21.1942  -13.0983 C   0  0  0  0  0  0  0  0  0  0  0  0
   21.6039  -20.3439  -12.0264 O   0  0  0  0  0  0  0  0  0  0  0  0
   22.2469  -20.4686  -10.9462 O   0  0  0  0  0  0  0  0  0  0  0  0
  2  1  1  0
  3  2  2  0
  4  2  1  0
  5  4  1  0
  6  5  1  0
  6  7  1  0
  8  7  1  0
  8  9  1  1
 10 12  1  0
 10  8  1  0
 11 10  2  0
 13 21  1  0
 13 12  1  0
 13 14  1  6
 15 16  2  0
 15 14  1  0
 17 16  1  0
 18 17  2  0
 19 18  1  0
 19 20  2  0
 20 15  1  0
 21 22  2  0
 24 23  1  6
 25 24  1  0
 25 21  1  0
 26 28  1  0
 26 24  1  0
 27 26  2  0
M  END
$$$$
