RFA.pdb
     RDKit          3D

 28 28  0  0  1  0  0  0  0  0999 V2000
   14.4826  -11.5090  -18.8641 N   0  0  0  0  0  0  0  0  0  0  0  0
   13.5829  -10.7446  -18.0851 C   0  0  0  0  0  0  0  0  0  0  0  0
   12.3342  -10.7988  -18.3059 N   0  0  0  0  0  0  0  0  0  0  0  0
   14.0520   -9.8986  -17.0383 N   0  0  0  0  0  0  0  0  0  0  0  0
   15.4393   -9.8192  -16.7211 C   0  0  0  0  0  0  0  0  0  0  0  0
   15.7469   -8.8435  -15.6114 C   0  0  0  0  0  0  0  0  0  0  0  0
   17.1965   -8.3805  -15.8067 C   0  0  0  0  0  0  0  0  0  0  0  0
   18.1337   -9.2148  -14.9779 C   0  0  2  0  0  0  0  0  0  0  0  0
   17.4491   -9.9994  -13.9708 N   0  0  0  0  0  0  0  0  0  0  0  0
   19.1088   -8.3315  -14.3242 C   0  0  0  0  0  0  0  0  0  0  0  0
   19.0783   -8.1836  -13.0674 O   0  0  0  0  0  0  0  0  0  0  0  0
   11.6131  -10.2685  -17.7701 N   0  0  0  0  0  0  0  0  0  0  0  0
   20.0880   -7.6388  -15.0807 C   0  0  2  0  0  0  0  0  0  0  0  0
   21.0932   -6.7913  -14.4812 C   0  0  0  0  0  0  0  0  0  0  0  0
   22.4703   -7.1625  -14.9639 C   0  0  0  0  0  0  0  0  0  0  0  0
   22.8266   -8.5685  -14.6875 C   0  0  0  0  0  0  0  0  0  0  0  0
   23.1971   -8.9649  -13.4275 C   0  0  0  0  0  0  0  0  0  0  0  0
   23.5369  -10.2942  -13.1498 C   0  0  0  0  0  0  0  0  0  0  0  0
   23.5022  -11.2247  -14.1473 C   0  0  0  0  0  0  0  0  0  0  0  0
   23.1322  -10.8370  -15.4129 C   0  0  0  0  0  0  0  0  0  0  0  0
   22.7977   -9.5209  -15.6794 C   0  0  0  0  0  0  0  0  0  0  0  0
   20.8481   -5.3835  -14.9536 O   0  0  0  0  0  0  0  0  0  0  0  0
   20.2867   -5.1740  -16.0681 C   0  0  0  0  0  0  0  0  0  0  0  0
   21.7257   -2.8359  -16.0027 C   0  0  1  0  0  0  0  0  0  0  0  0
   21.1477   -2.8954  -14.6008 N   0  0  0  0  0  0  0  0  0  0  0  0
   21.2350   -4.2744  -14.1715 C   0  0  0  0  0  0  0  0  0  0  0  0
   19.7291   -2.4313  -14.6157 O   0  0  0  0  0  0  0  0  0  0  0  0
   18.8082   -3.2433  -14.3190 O   0  0  0  0  0  0  0  0  0  0  0  0
  2  1  1  0
  3  2  2  0
  4  2  1  0
  5  4  1  0
  6  5  1  0
  6  7  1  0
  8  7  1  0
  8  9  1  1
 10 12  1  0
 10  8  1  0
 11 10  2  0
 13 21  1  0
 13 12  1  0
 13 14  1  1
 15 16  2  0
 15 14  1  0
 17 16  1  0
 18 17  2  0
 19 18  1  0
 19 20  2  0
 20 15  1  0
 21 22  2  0
 24 23  1  1
 25 24  1  0
 25 21  1  0
 26 28  1  0
 26 24  1  0
 27 26  2  0
M  END
$$$$
