RFA.pdb
     RDKit          3D

 28 28  0  0  1  0  0  0  0  0999 V2000
   26.6306  -21.6203  -16.7229 N   0  0  0  0  0  0  0  0  0  0  0  0
   26.8474  -20.4583  -17.4997 C   0  0  0  0  0  0  0  0  0  0  0  0
   26.0168  -20.1206  -18.3979 N   0  0  0  0  0  0  0  0  0  0  0  0
   27.9973  -19.6411  -17.2954 N   0  0  0  0  0  0  0  0  0  0  0  0
   28.7770  -19.7503  -16.1072 C   0  0  0  0  0  0  0  0  0  0  0  0
   28.2049  -18.9823  -14.9407 C   0  0  0  0  0  0  0  0  0  0  0  0
   27.2755  -19.9391  -14.1827 C   0  0  0  0  0  0  0  0  0  0  0  0
   27.9347  -20.4285  -12.9229 C   0  0  2  0  0  0  0  0  0  0  0  0
   28.9628  -21.4181  -13.1726 N   0  0  0  0  0  0  0  0  0  0  0  0
   26.9111  -21.0049  -12.0406 C   0  0  0  0  0  0  0  0  0  0  0  0
   26.5723  -22.2166  -12.1798 O   0  0  0  0  0  0  0  0  0  0  0  0
   26.0821  -19.2507  -18.9700 N   0  0  0  0  0  0  0  0  0  0  0  0
   26.2935  -20.2233  -11.0314 C   0  0  2  0  0  0  0  0  0  0  0  0
   25.3208  -20.7570  -10.1056 C   0  0  0  0  0  0  0  0  0  0  0  0
   25.2986  -19.9615   -8.8275 C   0  0  0  0  0  0  0  0  0  0  0  0
   26.5646  -20.0359   -8.0713 C   0  0  0  0  0  0  0  0  0  0  0  0
   27.3802  -21.1344   -8.1724 C   0  0  0  0  0  0  0  0  0  0  0  0
   28.5837  -21.2190   -7.4625 C   0  0  0  0  0  0  0  0  0  0  0  0
   28.9638  -20.1916   -6.6488 C   0  0  0  0  0  0  0  0  0  0  0  0
   28.1533  -19.0869   -6.5412 C   0  0  0  0  0  0  0  0  0  0  0  0
   26.9650  -19.0108   -7.2462 C   0  0  0  0  0  0  0  0  0  0  0  0
   23.9591  -20.5937  -10.7255 O   0  0  0  0  0  0  0  0  0  0  0  0
   22.9183  -20.6954  -10.0130 C   0  0  0  0  0  0  0  0  0  0  0  0
   22.8442  -19.6270  -14.1617 C   0  0  2  0  0  0  0  0  0  0  0  0
   22.5431  -20.1835  -12.7824 N   0  0  0  0  0  0  0  0  0  0  0  0
   23.8127  -20.3255  -12.1032 C   0  0  0  0  0  0  0  0  0  0  0  0
   21.8547  -21.5022  -12.9055 O   0  0  0  0  0  0  0  0  0  0  0  0
   20.6348  -21.5364  -13.2318 O   0  0  0  0  0  0  0  0  0  0  0  0
  2  1  1  0
  3  2  2  0
  4  2  1  0
  5  4  1  0
  6  5  1  0
  6  7  1  0
  8  7  1  0
  8  9  1  6
 10 12  1  0
 10  8  1  0
 11 10  2  0
 13 21  1  0
 13 12  1  0
 13 14  1  6
 15 16  2  0
 15 14  1  0
 17 16  1  0
 18 17  2  0
 19 18  1  0
 19 20  2  0
 20 15  1  0
 21 22  2  0
 24 23  1  1
 25 24  1  0
 25 21  1  0
 26 28  1  0
 26 24  1  0
 27 26  2  0
M  END
$$$$
