RFA.pdb
     RDKit          3D

 28 28  0  0  1  0  0  0  0  0999 V2000
   21.5624  -23.1648  -14.3620 N   0  0  0  0  0  0  0  0  0  0  0  0
   21.3487  -24.5600  -14.2709 C   0  0  0  0  0  0  0  0  0  0  0  0
   20.2537  -25.0699  -14.6603 N   0  0  0  0  0  0  0  0  0  0  0  0
   22.3512  -25.4245  -13.7425 N   0  0  0  0  0  0  0  0  0  0  0  0
   23.7315  -25.0733  -13.7993 C   0  0  0  0  0  0  0  0  0  0  0  0
   24.2579  -24.9322  -15.2068 C   0  0  0  0  0  0  0  0  0  0  0  0
   25.3455  -23.8505  -15.1754 C   0  0  0  0  0  0  0  0  0  0  0  0
   24.7288  -22.4798  -15.2196 C   0  0  2  0  0  0  0  0  0  0  0  0
   24.2390  -22.1244  -16.5358 N   0  0  0  0  0  0  0  0  0  0  0  0
   25.7282  -21.4919  -14.7912 C   0  0  0  0  0  0  0  0  0  0  0  0
   26.4874  -20.9540  -15.6495 O   0  0  0  0  0  0  0  0  0  0  0  0
   20.0172  -26.0843  -14.6015 N   0  0  0  0  0  0  0  0  0  0  0  0
   25.8574  -21.1292  -13.4264 C   0  0  2  0  0  0  0  0  0  0  0  0
   26.8834  -20.2343  -12.9422 C   0  0  0  0  0  0  0  0  0  0  0  0
   26.3401  -19.3124  -11.8831 C   0  0  0  0  0  0  0  0  0  0  0  0
   25.3466  -19.9572  -11.0014 C   0  0  0  0  0  0  0  0  0  0  0  0
   24.0785  -20.2265  -11.4502 C   0  0  0  0  0  0  0  0  0  0  0  0
   23.1261  -20.8380  -10.6265 C   0  0  0  0  0  0  0  0  0  0  0  0
   23.4558  -21.1780   -9.3467 C   0  0  0  0  0  0  0  0  0  0  0  0
   24.7238  -20.9122   -8.8881 C   0  0  0  0  0  0  0  0  0  0  0  0
   25.6597  -20.3074   -9.7087 C   0  0  0  0  0  0  0  0  0  0  0  0
   27.9408  -21.0686  -12.2705 O   0  0  0  0  0  0  0  0  0  0  0  0
   27.6556  -22.2156  -11.8186 C   0  0  0  0  0  0  0  0  0  0  0  0
   31.5542  -20.4236  -11.5111 C   0  0  1  0  0  0  0  0  0  0  0  0
   30.3285  -21.3173  -11.4697 N   0  0  0  0  0  0  0  0  0  0  0  0
   29.2629  -20.5954  -12.1305 C   0  0  0  0  0  0  0  0  0  0  0  0
   29.9679  -21.6201  -10.0533 O   0  0  0  0  0  0  0  0  0  0  0  0
   29.0012  -21.0100   -9.5158 O   0  0  0  0  0  0  0  0  0  0  0  0
  2  1  1  0
  3  2  2  0
  4  2  1  0
  5  4  1  0
  6  5  1  0
  6  7  1  0
  8  7  1  0
  8  9  1  6
 10 12  1  0
 10  8  1  0
 11 10  2  0
 13 21  1  0
 13 12  1  0
 13 14  1  6
 15 16  2  0
 15 14  1  0
 17 16  1  0
 18 17  2  0
 19 18  1  0
 19 20  2  0
 20 15  1  0
 21 22  2  0
 24 23  1  6
 25 24  1  0
 25 21  1  0
 26 28  1  0
 26 24  1  0
 27 26  2  0
M  END
$$$$
