RFA.pdb
     RDKit          3D

 28 28  0  0  1  0  0  0  0  0999 V2000
   27.4731  -21.3409  -22.1377 N   0  0  0  0  0  0  0  0  0  0  0  0
   28.5724  -21.9339  -21.4740 C   0  0  0  0  0  0  0  0  0  0  0  0
   29.7603  -21.6710  -21.8356 N   0  0  0  0  0  0  0  0  0  0  0  0
   28.3763  -22.8367  -20.3886 N   0  0  0  0  0  0  0  0  0  0  0  0
   27.1503  -22.8598  -19.6619 C   0  0  0  0  0  0  0  0  0  0  0  0
   26.7330  -21.5048  -19.1446 C   0  0  0  0  0  0  0  0  0  0  0  0
   26.0049  -21.7345  -17.8138 C   0  0  0  0  0  0  0  0  0  0  0  0
   26.9607  -22.2405  -16.7691 C   0  0  2  0  0  0  0  0  0  0  0  0
   27.4869  -23.5548  -17.0758 N   0  0  0  0  0  0  0  0  0  0  0  0
   26.2719  -22.2846  -15.4722 C   0  0  0  0  0  0  0  0  0  0  0  0
   25.4594  -23.2230  -15.2244 O   0  0  0  0  0  0  0  0  0  0  0  0
   30.6171  -22.0704  -21.3944 N   0  0  0  0  0  0  0  0  0  0  0  0
   26.5029  -21.2892  -14.4890 C   0  0  1  0  0  0  0  0  0  0  0  0
   25.8891  -21.3156  -13.1811 C   0  0  0  0  0  0  0  0  0  0  0  0
   26.6674  -20.4770  -12.2023 C   0  0  0  0  0  0  0  0  0  0  0  0
   26.0902  -20.4792  -10.8432 C   0  0  0  0  0  0  0  0  0  0  0  0
   25.2932  -19.4473  -10.4165 C   0  0  0  0  0  0  0  0  0  0  0  0
   24.7382  -19.4357   -9.1315 C   0  0  0  0  0  0  0  0  0  0  0  0
   24.9891  -20.4688   -8.2759 C   0  0  0  0  0  0  0  0  0  0  0  0
   25.7864  -21.5070   -8.6945 C   0  0  0  0  0  0  0  0  0  0  0  0
   26.3314  -21.5111   -9.9665 C   0  0  0  0  0  0  0  0  0  0  0  0
   24.5324  -20.6744  -13.2975 O   0  0  0  0  0  0  0  0  0  0  0  0
   24.4285  -19.4612  -13.6417 C   0  0  0  0  0  0  0  0  0  0  0  0
   21.1316  -21.9582  -13.6699 C   0  0  2  0  0  0  0  0  0  0  0  0
   22.0161  -20.8626  -13.1043 N   0  0  0  0  0  0  0  0  0  0  0  0
   23.3554  -21.4048  -13.0282 C   0  0  0  0  0  0  0  0  0  0  0  0
   21.5267  -20.4612  -11.7525 O   0  0  0  0  0  0  0  0  0  0  0  0
   21.8925  -21.1214  -10.7397 O   0  0  0  0  0  0  0  0  0  0  0  0
  2  1  1  0
  3  2  2  0
  4  2  1  0
  5  4  1  0
  6  5  1  0
  6  7  1  0
  8  7  1  0
  8  9  1  6
 10 12  1  0
 10  8  1  0
 11 10  2  0
 13 21  1  0
 13 12  1  0
 13 14  1  6
 15 16  2  0
 15 14  1  0
 17 16  1  0
 18 17  2  0
 19 18  1  0
 19 20  2  0
 20 15  1  0
 21 22  2  0
 24 23  1  6
 25 24  1  0
 25 21  1  0
 26 28  1  0
 26 24  1  0
 27 26  2  0
M  END
$$$$
