RFA.pdb
     RDKit          3D

 28 28  0  0  1  0  0  0  0  0999 V2000
   27.4940  -22.1272  -19.3152 N   0  0  0  0  0  0  0  0  0  0  0  0
   27.3342  -20.7308  -19.1577 C   0  0  0  0  0  0  0  0  0  0  0  0
   26.8151  -20.0342  -20.0830 N   0  0  0  0  0  0  0  0  0  0  0  0
   27.7494  -20.0732  -17.9632 N   0  0  0  0  0  0  0  0  0  0  0  0
   28.3545  -20.7980  -16.8954 C   0  0  0  0  0  0  0  0  0  0  0  0
   27.3567  -21.4749  -15.9877 C   0  0  0  0  0  0  0  0  0  0  0  0
   27.1145  -20.5329  -14.8012 C   0  0  0  0  0  0  0  0  0  0  0  0
   27.4662  -21.2124  -13.5067 C   0  0  2  0  0  0  0  0  0  0  0  0
   28.1425  -22.4787  -13.7006 N   0  0  0  0  0  0  0  0  0  0  0  0
   26.2369  -21.4327  -12.7330 C   0  0  0  0  0  0  0  0  0  0  0  0
   25.5908  -22.5119  -12.8747 O   0  0  0  0  0  0  0  0  0  0  0  0
   26.7369  -18.9940  -20.0702 N   0  0  0  0  0  0  0  0  0  0  0  0
   25.7598  -20.4523  -11.8263 C   0  0  1  0  0  0  0  0  0  0  0  0
   24.6031  -20.6540  -10.9839 C   0  0  0  0  0  0  0  0  0  0  0  0
   24.6327  -19.7299   -9.7956 C   0  0  0  0  0  0  0  0  0  0  0  0
   25.7951  -19.9513   -8.9125 C   0  0  0  0  0  0  0  0  0  0  0  0
   26.4614  -18.8927   -8.3490 C   0  0  0  0  0  0  0  0  0  0  0  0
   27.5643  -19.0867   -7.5092 C   0  0  0  0  0  0  0  0  0  0  0  0
   27.9950  -20.3530   -7.2383 C   0  0  0  0  0  0  0  0  0  0  0  0
   27.3339  -21.4198   -7.7983 C   0  0  0  0  0  0  0  0  0  0  0  0
   26.2442  -21.2197   -8.6275 C   0  0  0  0  0  0  0  0  0  0  0  0
   23.3835  -20.2751  -11.7802 O   0  0  0  0  0  0  0  0  0  0  0  0
   23.5077  -19.7204  -12.9108 C   0  0  0  0  0  0  0  0  0  0  0  0
   21.3012  -20.1196  -13.4989 C   0  0  2  0  0  0  0  0  0  0  0  0
   20.8875  -20.5420  -12.1013 N   0  0  0  0  0  0  0  0  0  0  0  0
   22.0848  -20.5276  -11.2892 C   0  0  0  0  0  0  0  0  0  0  0  0
   20.2869  -21.9080  -12.1400 O   0  0  0  0  0  0  0  0  0  0  0  0
   21.0112  -22.8948  -12.4519 O   0  0  0  0  0  0  0  0  0  0  0  0
  2  1  1  0
  3  2  2  0
  4  2  1  0
  5  4  1  0
  6  5  1  0
  6  7  1  0
  8  7  1  0
  8  9  1  6
 10 12  1  0
 10  8  1  0
 11 10  2  0
 13 21  1  0
 13 12  1  0
 13 14  1  6
 15 16  2  0
 15 14  1  0
 17 16  1  0
 18 17  2  0
 19 18  1  0
 19 20  2  0
 20 15  1  0
 21 22  2  0
 24 23  1  1
 25 24  1  0
 25 21  1  0
 26 28  1  0
 26 24  1  0
 27 26  2  0
M  END
$$$$
