RFA.pdb
     RDKit          3D

 28 28  0  0  1  0  0  0  0  0999 V2000
   30.9767  -20.7338  -19.6799 N   0  0  0  0  0  0  0  0  0  0  0  0
   30.8381  -21.9763  -19.0186 C   0  0  0  0  0  0  0  0  0  0  0  0
   31.8630  -22.6563  -18.7054 N   0  0  0  0  0  0  0  0  0  0  0  0
   29.5519  -22.4943  -18.6886 N   0  0  0  0  0  0  0  0  0  0  0  0
   28.3644  -21.7677  -18.9944 C   0  0  0  0  0  0  0  0  0  0  0  0
   28.1326  -20.5855  -18.0852 C   0  0  0  0  0  0  0  0  0  0  0  0
   26.8424  -20.8640  -17.3031 C   0  0  0  0  0  0  0  0  0  0  0  0
   26.9008  -22.2186  -16.6527 C   0  0  2  0  0  0  0  0  0  0  0  0
   26.3357  -23.2655  -17.4793 N   0  0  0  0  0  0  0  0  0  0  0  0
   26.1783  -22.1668  -15.3746 C   0  0  0  0  0  0  0  0  0  0  0  0
   25.0649  -22.7577  -15.2585 O   0  0  0  0  0  0  0  0  0  0  0  0
   31.8366  -23.5904  -18.2417 N   0  0  0  0  0  0  0  0  0  0  0  0
   26.7093  -21.4628  -14.2641 C   0  0  1  0  0  0  0  0  0  0  0  0
   26.0359  -21.3793  -12.9883 C   0  0  0  0  0  0  0  0  0  0  0  0
   26.9242  -20.7487  -11.9490 C   0  0  0  0  0  0  0  0  0  0  0  0
   26.2711  -20.6040  -10.6327 C   0  0  0  0  0  0  0  0  0  0  0  0
   25.9440  -19.3650  -10.1429 C   0  0  0  0  0  0  0  0  0  0  0  0
   25.3239  -19.2118   -8.8973 C   0  0  0  0  0  0  0  0  0  0  0  0
   25.0338  -20.3129   -8.1451 C   0  0  0  0  0  0  0  0  0  0  0  0
   25.3576  -21.5584   -8.6276 C   0  0  0  0  0  0  0  0  0  0  0  0
   25.9706  -21.7014   -9.8600 C   0  0  0  0  0  0  0  0  0  0  0  0
   24.8583  -20.4561  -13.1503 O   0  0  0  0  0  0  0  0  0  0  0  0
   25.0036  -19.3299  -13.7086 C   0  0  0  0  0  0  0  0  0  0  0  0
   22.0813  -19.8732  -14.2778 C   0  0  2  0  0  0  0  0  0  0  0  0
   22.3954  -19.9930  -12.7980 N   0  0  0  0  0  0  0  0  0  0  0  0
   23.5762  -20.8218  -12.6876 C   0  0  0  0  0  0  0  0  0  0  0  0
   21.2415  -20.6124  -12.0819 O   0  0  0  0  0  0  0  0  0  0  0  0
   20.1415  -19.9937  -12.0274 O   0  0  0  0  0  0  0  0  0  0  0  0
  2  1  1  0
  3  2  2  0
  4  2  1  0
  5  4  1  0
  6  5  1  0
  6  7  1  0
  8  7  1  0
  8  9  1  6
 10 12  1  0
 10  8  1  0
 11 10  2  0
 13 21  1  0
 13 12  1  0
 13 14  1  6
 15 16  2  0
 15 14  1  0
 17 16  1  0
 18 17  2  0
 19 18  1  0
 19 20  2  0
 20 15  1  0
 21 22  2  0
 24 23  1  6
 25 24  1  0
 25 21  1  0
 26 28  1  0
 26 24  1  0
 27 26  2  0
M  END
$$$$
