RFA.pdb
     RDKit          3D

 28 28  0  0  1  0  0  0  0  0999 V2000
   27.5983  -26.9973  -18.5482 N   0  0  0  0  0  0  0  0  0  0  0  0
   28.6887  -27.0020  -17.6473 C   0  0  0  0  0  0  0  0  0  0  0  0
   29.3321  -28.0725  -17.4216 N   0  0  0  0  0  0  0  0  0  0  0  0
   29.0909  -25.8122  -16.9734 N   0  0  0  0  0  0  0  0  0  0  0  0
   28.1296  -24.9274  -16.4036 C   0  0  0  0  0  0  0  0  0  0  0  0
   26.7253  -25.1633  -16.9039 C   0  0  0  0  0  0  0  0  0  0  0  0
   25.7687  -24.7115  -15.7927 C   0  0  0  0  0  0  0  0  0  0  0  0
   25.8675  -23.2259  -15.5822 C   0  0  2  0  0  0  0  0  0  0  0  0
   27.1131  -22.8265  -14.9598 N   0  0  0  0  0  0  0  0  0  0  0  0
   24.7439  -22.7861  -14.7441 C   0  0  0  0  0  0  0  0  0  0  0  0
   24.2131  -23.5968  -13.9297 O   0  0  0  0  0  0  0  0  0  0  0  0
   30.1291  -28.1563  -16.7538 N   0  0  0  0  0  0  0  0  0  0  0  0
   24.2417  -21.4629  -14.8326 C   0  0  1  0  0  0  0  0  0  0  0  0
   23.2326  -20.9413  -13.9394 C   0  0  0  0  0  0  0  0  0  0  0  0
   23.7767  -19.8055  -13.1143 C   0  0  0  0  0  0  0  0  0  0  0  0
   24.4954  -20.2541  -11.9051 C   0  0  0  0  0  0  0  0  0  0  0  0
   23.8591  -20.3147  -10.6912 C   0  0  0  0  0  0  0  0  0  0  0  0
   24.5269  -20.7387   -9.5363 C   0  0  0  0  0  0  0  0  0  0  0  0
   25.8402  -21.1022   -9.6081 C   0  0  0  0  0  0  0  0  0  0  0  0
   26.4861  -21.0448  -10.8199 C   0  0  0  0  0  0  0  0  0  0  0  0
   25.8190  -20.6245  -11.9572 C   0  0  0  0  0  0  0  0  0  0  0  0
   22.1306  -20.3578  -14.7822 O   0  0  0  0  0  0  0  0  0  0  0  0
   22.3931  -19.4816  -15.6566 C   0  0  0  0  0  0  0  0  0  0  0  0
   18.8311  -21.3094  -15.8561 C   0  0  2  0  0  0  0  0  0  0  0  0
   19.6583  -20.1705  -15.2892 N   0  0  0  0  0  0  0  0  0  0  0  0
   20.7911  -20.7707  -14.6185 C   0  0  0  0  0  0  0  0  0  0  0  0
   18.8358  -19.3716  -14.3335 O   0  0  0  0  0  0  0  0  0  0  0  0
   18.9412  -19.5885  -13.0935 O   0  0  0  0  0  0  0  0  0  0  0  0
  2  1  1  0
  3  2  2  0
  4  2  1  0
  5  4  1  0
  6  5  1  0
  6  7  1  0
  8  7  1  0
  8  9  1  1
 10 12  1  0
 10  8  1  0
 11 10  2  0
 13 21  1  0
 13 12  1  0
 13 14  1  1
 15 16  2  0
 15 14  1  0
 17 16  1  0
 18 17  2  0
 19 18  1  0
 19 20  2  0
 20 15  1  0
 21 22  2  0
 24 23  1  6
 25 24  1  0
 25 21  1  0
 26 28  1  0
 26 24  1  0
 27 26  2  0
M  END
$$$$
