RFA.pdb
     RDKit          3D

 28 28  0  0  1  0  0  0  0  0999 V2000
   29.3137  -22.2416  -18.7143 N   0  0  0  0  0  0  0  0  0  0  0  0
   29.0001  -21.2594  -19.6826 C   0  0  0  0  0  0  0  0  0  0  0  0
   29.4686  -21.3433  -20.8592 N   0  0  0  0  0  0  0  0  0  0  0  0
   28.1551  -20.1566  -19.3645 N   0  0  0  0  0  0  0  0  0  0  0  0
   27.5241  -20.0554  -18.0904 C   0  0  0  0  0  0  0  0  0  0  0  0
   26.3114  -20.9425  -17.9486 C   0  0  0  0  0  0  0  0  0  0  0  0
   25.8609  -20.8604  -16.4843 C   0  0  0  0  0  0  0  0  0  0  0  0
   26.6077  -21.8599  -15.6450 C   0  0  2  0  0  0  0  0  0  0  0  0
   26.6028  -23.1911  -16.2164 N   0  0  0  0  0  0  0  0  0  0  0  0
   26.0050  -21.9049  -14.3059 C   0  0  0  0  0  0  0  0  0  0  0  0
   24.8438  -22.3858  -14.1559 O   0  0  0  0  0  0  0  0  0  0  0  0
   29.4111  -20.5878  -21.5763 N   0  0  0  0  0  0  0  0  0  0  0  0
   26.7053  -21.4165  -13.1737 C   0  0  2  0  0  0  0  0  0  0  0  0
   26.1134  -21.3279  -11.8585 C   0  0  0  0  0  0  0  0  0  0  0  0
   27.0841  -20.7421  -10.8678 C   0  0  0  0  0  0  0  0  0  0  0  0
   26.4810  -20.4764   -9.5465 C   0  0  0  0  0  0  0  0  0  0  0  0
   25.5090  -21.3008   -9.0390 C   0  0  0  0  0  0  0  0  0  0  0  0
   24.9285  -21.0624   -7.7877 C   0  0  0  0  0  0  0  0  0  0  0  0
   25.3309  -19.9887   -7.0478 C   0  0  0  0  0  0  0  0  0  0  0  0
   26.3042  -19.1571   -7.5480 C   0  0  0  0  0  0  0  0  0  0  0  0
   26.8732  -19.3996   -8.7859 C   0  0  0  0  0  0  0  0  0  0  0  0
   24.9608  -20.3633  -11.9375 O   0  0  0  0  0  0  0  0  0  0  0  0
   25.1535  -19.1694  -12.3099 C   0  0  0  0  0  0  0  0  0  0  0  0
   22.2468  -19.7120  -13.2099 C   0  0  2  0  0  0  0  0  0  0  0  0
   22.4771  -19.9265  -11.7253 N   0  0  0  0  0  0  0  0  0  0  0  0
   23.6502  -20.7644  -11.6016 C   0  0  0  0  0  0  0  0  0  0  0  0
   21.2849  -20.5863  -11.1161 O   0  0  0  0  0  0  0  0  0  0  0  0
   20.1796  -19.9751  -11.0987 O   0  0  0  0  0  0  0  0  0  0  0  0
  2  1  1  0
  3  2  2  0
  4  2  1  0
  5  4  1  0
  6  5  1  0
  6  7  1  0
  8  7  1  0
  8  9  1  6
 10 12  1  0
 10  8  1  0
 11 10  2  0
 13 21  1  0
 13 12  1  0
 13 14  1  1
 15 16  2  0
 15 14  1  0
 17 16  1  0
 18 17  2  0
 19 18  1  0
 19 20  2  0
 20 15  1  0
 21 22  2  0
 24 23  1  1
 25 24  1  0
 25 21  1  0
 26 28  1  0
 26 24  1  0
 27 26  2  0
M  END
$$$$
