YSC.pdb
     RDKit          3D

 25 25  0  0  1  0  0  0  0  0999 V2000
   20.8495  -15.8550  -22.1529 O   0  0  0  0  0  0  0  0  0  0  0  0
   20.4094  -14.8038  -21.3460 C   0  0  0  0  0  0  0  0  0  0  0  0
   21.3000  -13.8586  -20.8830 C   0  0  0  0  0  0  0  0  0  0  0  0
   20.8846  -12.8130  -20.0848 C   0  0  0  0  0  0  0  0  0  0  0  0
   19.5603  -12.6647  -19.7132 C   0  0  0  0  0  0  0  0  0  0  0  0
   19.1242  -11.5326  -18.8522 C   0  0  0  0  0  0  0  0  0  0  0  0
   19.6274  -11.7742  -17.4702 C   0  0  2  0  0  0  0  0  0  0  0  0
   18.9654  -12.9117  -16.9052 N   0  0  0  0  0  0  0  0  0  0  0  0
   19.5711  -10.5826  -16.6004 C   0  0  0  0  0  0  0  0  0  0  0  0
   18.4328  -10.2842  -16.1208 O   0  0  0  0  0  0  0  0  0  0  0  0
   18.6770  -13.6160  -20.1819 C   0  0  0  0  0  0  0  0  0  0  0  0
   19.0867  -14.6652  -20.9813 C   0  0  0  0  0  0  0  0  0  0  0  0
   22.7860   -8.0421  -15.6577 O   0  0  0  0  0  0  0  0  0  0  0  0
   21.8151   -8.2983  -14.7024 C   0  0  0  0  0  0  0  0  0  0  0  0
   20.4818   -8.6833  -15.3374 C   0  0  2  0  0  0  0  0  0  0  0  0
   20.6720   -9.7758  -16.2768 N   0  0  0  0  0  0  0  0  0  0  0  0
   19.8992   -7.4935  -16.0179 C   0  0  0  0  0  0  0  0  0  0  0  0
   20.1328   -7.2754  -17.2576 O   0  0  0  0  0  0  0  0  0  0  0  0
   19.0687   -6.5350  -15.3868 N   0  0  0  0  0  0  0  0  0  0  0  0
   18.4902   -5.4077  -16.1257 C   0  0  1  0  0  0  0  0  0  0  0  0
   16.9890   -5.3454  -15.8941 C   0  0  0  0  0  0  0  0  0  0  0  0
   16.1828   -6.9057  -16.2424 S   0  0  0  0  0  0  0  0  0  0  0  0
   19.1415   -4.1425  -15.7712 C   0  0  0  0  0  0  0  0  0  0  0  0
   20.0322   -4.1088  -14.8927 O   0  0  0  0  0  0  0  0  0  0  0  0
   18.7780   -2.9799  -16.4028 O   0  0  0  0  0  0  0  0  0  0  0  0
  2  1  1  0
  3  2  2  0
  4  5  2  0
  4  3  1  0
  5 11  1  0
  6  5  1  0
  6  7  1  0
  7  9  1  0
  7  8  1  1
  9 10  2  0
 11 12  2  0
 12  2  1  0
 13 14  1  0
 15 14  1  6
 16 15  1  0
 16  9  1  0
 17 19  1  0
 17 15  1  0
 18 17  2  0
 20 19  1  0
 20 21  1  1
 21 22  1  0
 23 25  1  0
 23 20  1  0
 24 23  2  0
M  END
$$$$
