YSC.pdb
     RDKit          3D

 25 25  0  0  1  0  0  0  0  0999 V2000
   18.9120  -17.1553  -18.2922 O   0  0  0  0  0  0  0  0  0  0  0  0
   18.7275  -15.7862  -18.0893 C   0  0  0  0  0  0  0  0  0  0  0  0
   19.5513  -15.0903  -17.2302 C   0  0  0  0  0  0  0  0  0  0  0  0
   19.3849  -13.7375  -17.0166 C   0  0  0  0  0  0  0  0  0  0  0  0
   18.3878  -13.0192  -17.6518 C   0  0  0  0  0  0  0  0  0  0  0  0
   18.2183  -11.5606  -17.4136 C   0  0  0  0  0  0  0  0  0  0  0  0
   17.6592  -11.3712  -16.0451 C   0  0  2  0  0  0  0  0  0  0  0  0
   16.3477  -11.9425  -15.9740 N   0  0  0  0  0  0  0  0  0  0  0  0
   17.7064   -9.9736  -15.5719 C   0  0  0  0  0  0  0  0  0  0  0  0
   17.0727   -9.1184  -16.2660 O   0  0  0  0  0  0  0  0  0  0  0  0
   17.5687  -13.7252  -18.5096 C   0  0  0  0  0  0  0  0  0  0  0  0
   17.7302  -15.0795  -18.7277 C   0  0  0  0  0  0  0  0  0  0  0  0
   18.2737   -8.8061  -11.7795 O   0  0  0  0  0  0  0  0  0  0  0  0
   17.7447   -7.9267  -12.7110 C   0  0  0  0  0  0  0  0  0  0  0  0
   18.3611   -8.1253  -14.0930 C   0  0  2  0  0  0  0  0  0  0  0  0
   18.3927   -9.5391  -14.4282 N   0  0  0  0  0  0  0  0  0  0  0  0
   19.7329   -7.5455  -14.1077 C   0  0  0  0  0  0  0  0  0  0  0  0
   20.7603   -8.3091  -14.1281 O   0  0  0  0  0  0  0  0  0  0  0  0
   20.0175   -6.1578  -14.1018 N   0  0  0  0  0  0  0  0  0  0  0  0
   21.3936   -5.6513  -14.0680 C   0  0  1  0  0  0  0  0  0  0  0  0
   22.0757   -5.9000  -15.4036 C   0  0  0  0  0  0  0  0  0  0  0  0
   23.6575   -5.0699  -15.5233 S   0  0  0  0  0  0  0  0  0  0  0  0
   21.4346   -4.2325  -13.6996 C   0  0  0  0  0  0  0  0  0  0  0  0
   22.4554   -3.7418  -13.1672 O   0  0  0  0  0  0  0  0  0  0  0  0
   20.3490   -3.4275  -13.9367 O   0  0  0  0  0  0  0  0  0  0  0  0
  2  1  1  0
  3  2  2  0
  4  5  2  0
  4  3  1  0
  5 11  1  0
  6  5  1  0
  6  7  1  0
  7  9  1  0
  7  8  1  6
  9 10  2  0
 11 12  2  0
 12  2  1  0
 13 14  1  0
 15 14  1  1
 16 15  1  0
 16  9  1  0
 17 19  1  0
 17 15  1  0
 18 17  2  0
 20 19  1  0
 20 21  1  6
 21 22  1  0
 23 25  1  0
 23 20  1  0
 24 23  2  0
M  END
$$$$
