YSC.pdb
     RDKit          3D

 25 25  0  0  1  0  0  0  0  0999 V2000
   21.5711  -11.2097  -21.0402 O   0  0  0  0  0  0  0  0  0  0  0  0
   21.2259  -12.4278  -20.4512 C   0  0  0  0  0  0  0  0  0  0  0  0
   20.9458  -12.4971  -19.1030 C   0  0  0  0  0  0  0  0  0  0  0  0
   20.6030  -13.6911  -18.5029 C   0  0  0  0  0  0  0  0  0  0  0  0
   20.5246  -14.8696  -19.2230 C   0  0  0  0  0  0  0  0  0  0  0  0
   20.1536  -16.1511  -18.5648 C   0  0  0  0  0  0  0  0  0  0  0  0
   21.2425  -16.5240  -17.6179 C   0  0  2  0  0  0  0  0  0  0  0  0
   22.4315  -16.8455  -18.3491 N   0  0  0  0  0  0  0  0  0  0  0  0
   20.8575  -17.5722  -16.6523 C   0  0  0  0  0  0  0  0  0  0  0  0
   20.9303  -18.7734  -17.0605 O   0  0  0  0  0  0  0  0  0  0  0  0
   20.8068  -14.7894  -20.5717 C   0  0  0  0  0  0  0  0  0  0  0  0
   21.1506  -13.5971  -21.1783 C   0  0  0  0  0  0  0  0  0  0  0  0
   19.2348  -17.0043  -12.7770 O   0  0  0  0  0  0  0  0  0  0  0  0
   20.0976  -18.0589  -13.0309 C   0  0  0  0  0  0  0  0  0  0  0  0
   20.0785  -18.4663  -14.5016 C   0  0  2  0  0  0  0  0  0  0  0  0
   20.4251  -17.3308  -15.3398 N   0  0  0  0  0  0  0  0  0  0  0  0
   18.7284  -18.9902  -14.8493 C   0  0  0  0  0  0  0  0  0  0  0  0
   17.8624  -18.2321  -15.4100 O   0  0  0  0  0  0  0  0  0  0  0  0
   18.2951  -20.3165  -14.6046 N   0  0  0  0  0  0  0  0  0  0  0  0
   16.9497  -20.7702  -14.9729 C   0  0  1  0  0  0  0  0  0  0  0  0
   16.8621  -22.2845  -14.8710 C   0  0  0  0  0  0  0  0  0  0  0  0
   15.2452  -22.9034  -15.3274 S   0  0  0  0  0  0  0  0  0  0  0  0
   15.9207  -20.1163  -14.1580 C   0  0  0  0  0  0  0  0  0  0  0  0
   16.1261  -19.8728  -12.9477 O   0  0  0  0  0  0  0  0  0  0  0  0
   14.7187  -19.7645  -14.7183 O   0  0  0  0  0  0  0  0  0  0  0  0
  2  1  1  0
  3  2  2  0
  4  5  2  0
  4  3  1  0
  5 11  1  0
  6  5  1  0
  6  7  1  0
  7  9  1  0
  7  8  1  6
  9 10  2  0
 11 12  2  0
 12  2  1  0
 13 14  1  0
 15 14  1  1
 16 15  1  0
 16  9  1  0
 17 19  1  0
 17 15  1  0
 18 17  2  0
 20 19  1  0
 20 21  1  1
 21 22  1  0
 23 25  1  0
 23 20  1  0
 24 23  2  0
M  END
$$$$
