YSC.pdb
     RDKit          3D

 25 25  0  0  1  0  0  0  0  0999 V2000
   25.0275  -21.2077   -8.9759 O   0  0  0  0  0  0  0  0  0  0  0  0
   25.2982  -21.0364  -10.3350 C   0  0  0  0  0  0  0  0  0  0  0  0
   24.3754  -20.4287  -11.1598 C   0  0  0  0  0  0  0  0  0  0  0  0
   24.6245  -20.2505  -12.5049 C   0  0  0  0  0  0  0  0  0  0  0  0
   25.8070  -20.6714  -13.0865 C   0  0  0  0  0  0  0  0  0  0  0  0
   26.0643  -20.4733  -14.5383 C   0  0  0  0  0  0  0  0  0  0  0  0
   27.0970  -19.4094  -14.6902 C   0  0  2  0  0  0  0  0  0  0  0  0
   26.6310  -18.1931  -14.0944 N   0  0  0  0  0  0  0  0  0  0  0  0
   27.5652  -19.2295  -16.0787 C   0  0  0  0  0  0  0  0  0  0  0  0
   27.0380  -18.2783  -16.7360 O   0  0  0  0  0  0  0  0  0  0  0  0
   26.7239  -21.2783  -12.2523 C   0  0  0  0  0  0  0  0  0  0  0  0
   26.4804  -21.4597  -10.9049 C   0  0  0  0  0  0  0  0  0  0  0  0
   30.0936  -21.8130  -18.2442 O   0  0  0  0  0  0  0  0  0  0  0  0
   30.2003  -20.4455  -18.4430 C   0  0  0  0  0  0  0  0  0  0  0  0
   28.9113  -19.7162  -18.0745 C   0  0  2  0  0  0  0  0  0  0  0  0
   28.5352  -20.0260  -16.7053 N   0  0  0  0  0  0  0  0  0  0  0  0
   27.8337  -20.1119  -19.0234 C   0  0  0  0  0  0  0  0  0  0  0  0
   26.9656  -20.9918  -18.6898 O   0  0  0  0  0  0  0  0  0  0  0  0
   27.6741  -19.5757  -20.3248 N   0  0  0  0  0  0  0  0  0  0  0  0
   26.5719  -19.9878  -21.2006 C   0  0  1  0  0  0  0  0  0  0  0  0
   25.2387  -19.6004  -20.5814 C   0  0  0  0  0  0  0  0  0  0  0  0
   23.8589  -19.9460  -21.6687 S   0  0  0  0  0  0  0  0  0  0  0  0
   26.7204  -19.4306  -22.5489 C   0  0  0  0  0  0  0  0  0  0  0  0
   27.1825  -18.2795  -22.7152 O   0  0  0  0  0  0  0  0  0  0  0  0
   26.3522  -20.1702  -23.6444 O   0  0  0  0  0  0  0  0  0  0  0  0
  2  1  1  0
  3  2  2  0
  4  5  2  0
  4  3  1  0
  5 11  1  0
  6  5  1  0
  6  7  1  0
  7  9  1  0
  7  8  1  6
  9 10  2  0
 11 12  2  0
 12  2  1  0
 13 14  1  0
 15 14  1  6
 16 15  1  0
 16  9  1  0
 17 19  1  0
 17 15  1  0
 18 17  2  0
 20 19  1  0
 20 21  1  1
 21 22  1  0
 23 25  1  0
 23 20  1  0
 24 23  2  0
M  END
$$$$
