YSC.pdb
     RDKit          3D

 25 25  0  0  1  0  0  0  0  0999 V2000
   24.5970  -15.4181  -21.5656 O   0  0  0  0  0  0  0  0  0  0  0  0
   23.8732  -14.2814  -21.2001 C   0  0  0  0  0  0  0  0  0  0  0  0
   22.5993  -14.0782  -21.6867 C   0  0  0  0  0  0  0  0  0  0  0  0
   21.8684  -12.9615  -21.3373 C   0  0  0  0  0  0  0  0  0  0  0  0
   22.3777  -11.9975  -20.4857 C   0  0  0  0  0  0  0  0  0  0  0  0
   21.5798  -10.7976  -20.1159 C   0  0  0  0  0  0  0  0  0  0  0  0
   20.9980  -11.0209  -18.7620 C   0  0  2  0  0  0  0  0  0  0  0  0
   20.1227  -12.1542  -18.7915 N   0  0  0  0  0  0  0  0  0  0  0  0
   20.3672   -9.8194  -18.1806 C   0  0  0  0  0  0  0  0  0  0  0  0
   19.1651   -9.5888  -18.5221 O   0  0  0  0  0  0  0  0  0  0  0  0
   23.6535  -12.2104  -20.0042 C   0  0  0  0  0  0  0  0  0  0  0  0
   24.3902  -13.3263  -20.3503 C   0  0  0  0  0  0  0  0  0  0  0  0
   21.6637   -7.8978  -14.8292 O   0  0  0  0  0  0  0  0  0  0  0  0
   20.3516   -7.7571  -15.2530 C   0  0  0  0  0  0  0  0  0  0  0  0
   20.2377   -7.8103  -16.7740 C   0  0  2  0  0  0  0  0  0  0  0  0
   20.9981   -8.9345  -17.2937 N   0  0  0  0  0  0  0  0  0  0  0  0
   20.7278   -6.5268  -17.3491 C   0  0  0  0  0  0  0  0  0  0  0  0
   21.9827   -6.3152  -17.4891 O   0  0  0  0  0  0  0  0  0  0  0  0
   19.8900   -5.4677  -17.7770 N   0  0  0  0  0  0  0  0  0  0  0  0
   20.4373   -4.2268  -18.3355 C   0  0  1  0  0  0  0  0  0  0  0  0
   19.4076   -3.5573  -19.2313 C   0  0  0  0  0  0  0  0  0  0  0  0
   18.7286   -4.6843  -20.4455 S   0  0  0  0  0  0  0  0  0  0  0  0
   20.9006   -3.3211  -17.2792 C   0  0  0  0  0  0  0  0  0  0  0  0
   20.7472   -3.6178  -16.0731 O   0  0  0  0  0  0  0  0  0  0  0  0
   21.5090   -2.1355  -17.6061 O   0  0  0  0  0  0  0  0  0  0  0  0
  2  1  1  0
  3  2  2  0
  4  5  2  0
  4  3  1  0
  5 11  1  0
  6  5  1  0
  6  7  1  0
  7  9  1  0
  7  8  1  6
  9 10  2  0
 11 12  2  0
 12  2  1  0
 13 14  1  0
 15 14  1  1
 16 15  1  0
 16  9  1  0
 17 19  1  0
 17 15  1  0
 18 17  2  0
 20 19  1  0
 20 21  1  1
 21 22  1  0
 23 25  1  0
 23 20  1  0
 24 23  2  0
M  END
$$$$
