YSC.pdb
     RDKit          3D

 25 25  0  0  1  0  0  0  0  0999 V2000
   23.6644  -21.4623   -6.9629 O   0  0  0  0  0  0  0  0  0  0  0  0
   24.1038  -21.1379   -8.2480 C   0  0  0  0  0  0  0  0  0  0  0  0
   25.4394  -20.8956   -8.4891 C   0  0  0  0  0  0  0  0  0  0  0  0
   25.8928  -20.5738   -9.7517 C   0  0  0  0  0  0  0  0  0  0  0  0
   25.0317  -20.4795  -10.8303 C   0  0  0  0  0  0  0  0  0  0  0  0
   25.5325  -20.1318  -12.1874 C   0  0  0  0  0  0  0  0  0  0  0  0
   24.8600  -21.0206  -13.1769 C   0  0  2  0  0  0  0  0  0  0  0  0
   25.4851  -22.3093  -13.1742 N   0  0  0  0  0  0  0  0  0  0  0  0
   24.7535  -20.4335  -14.5272 C   0  0  0  0  0  0  0  0  0  0  0  0
   25.7768  -20.5387  -15.2733 O   0  0  0  0  0  0  0  0  0  0  0  0
   23.6969  -20.7239  -10.5784 C   0  0  0  0  0  0  0  0  0  0  0  0
   23.2369  -21.0465   -9.3166 C   0  0  0  0  0  0  0  0  0  0  0  0
   21.6943  -17.9502  -15.9194 O   0  0  0  0  0  0  0  0  0  0  0  0
   22.2466  -18.8460  -16.8214 C   0  0  0  0  0  0  0  0  0  0  0  0
   23.6433  -19.2909  -16.3963 C   0  0  2  0  0  0  0  0  0  0  0  0
   23.6177  -19.7801  -15.0281 N   0  0  0  0  0  0  0  0  0  0  0  0
   24.5869  -18.1468  -16.5333 C   0  0  0  0  0  0  0  0  0  0  0  0
   24.3358  -17.0265  -15.9667 O   0  0  0  0  0  0  0  0  0  0  0  0
   25.7968  -18.1884  -17.2691 N   0  0  0  0  0  0  0  0  0  0  0  0
   26.6929  -17.0299  -17.3489 C   0  0  1  0  0  0  0  0  0  0  0  0
   27.9513  -17.2847  -16.5349 C   0  0  0  0  0  0  0  0  0  0  0  0
   27.5970  -17.5373  -14.7981 S   0  0  0  0  0  0  0  0  0  0  0  0
   27.0119  -16.6928  -18.7400 C   0  0  0  0  0  0  0  0  0  0  0  0
   26.5108  -17.3436  -19.6843 O   0  0  0  0  0  0  0  0  0  0  0  0
   27.8664  -15.6561  -19.0191 O   0  0  0  0  0  0  0  0  0  0  0  0
  2  1  1  0
  3  2  2  0
  4  5  2  0
  4  3  1  0
  5 11  1  0
  6  5  1  0
  6  7  1  0
  7  9  1  0
  7  8  1  6
  9 10  2  0
 11 12  2  0
 12  2  1  0
 13 14  1  0
 15 14  1  1
 16 15  1  0
 16  9  1  0
 17 19  1  0
 17 15  1  0
 18 17  2  0
 20 19  1  0
 20 21  1  1
 21 22  1  0
 23 25  1  0
 23 20  1  0
 24 23  2  0
M  END
$$$$
