YSC.pdb
     RDKit          3D

 25 25  0  0  1  0  0  0  0  0999 V2000
   27.1103  -20.2167   -5.6414 O   0  0  0  0  0  0  0  0  0  0  0  0
   26.7735  -20.1009   -6.9915 C   0  0  0  0  0  0  0  0  0  0  0  0
   26.0712  -21.1043   -7.6247 C   0  0  0  0  0  0  0  0  0  0  0  0
   25.7292  -21.0083   -8.9577 C   0  0  0  0  0  0  0  0  0  0  0  0
   26.0735  -19.9051   -9.7182 C   0  0  0  0  0  0  0  0  0  0  0  0
   25.6988  -19.8128  -11.1549 C   0  0  0  0  0  0  0  0  0  0  0  0
   25.6335  -21.1938  -11.7118 C   0  0  2  0  0  0  0  0  0  0  0  0
   26.9278  -21.5888  -12.1813 N   0  0  0  0  0  0  0  0  0  0  0  0
   24.5722  -21.3780  -12.7214 C   0  0  0  0  0  0  0  0  0  0  0  0
   24.9329  -21.3267  -13.9388 O   0  0  0  0  0  0  0  0  0  0  0  0
   26.7762  -18.9064   -9.0750 C   0  0  0  0  0  0  0  0  0  0  0  0
   27.1217  -18.9967   -7.7407 C   0  0  0  0  0  0  0  0  0  0  0  0
   20.4706  -21.5444  -11.9818 O   0  0  0  0  0  0  0  0  0  0  0  0
   20.9646  -22.3563  -12.9906 C   0  0  0  0  0  0  0  0  0  0  0  0
   22.2998  -21.8469  -13.5264 C   0  0  2  0  0  0  0  0  0  0  0  0
   23.2189  -21.6014  -12.4276 N   0  0  0  0  0  0  0  0  0  0  0  0
   22.0715  -20.6044  -14.3151 C   0  0  0  0  0  0  0  0  0  0  0  0
   22.0323  -19.4643  -13.7339 O   0  0  0  0  0  0  0  0  0  0  0  0
   21.8856  -20.5681  -15.7190 N   0  0  0  0  0  0  0  0  0  0  0  0
   21.6419  -19.3108  -16.4340 C   0  0  1  0  0  0  0  0  0  0  0  0
   22.3246  -19.3403  -17.7920 C   0  0  0  0  0  0  0  0  0  0  0  0
   24.1093  -19.3766  -17.6542 S   0  0  0  0  0  0  0  0  0  0  0  0
   20.2073  -19.0339  -16.5596 C   0  0  0  0  0  0  0  0  0  0  0  0
   19.3607  -19.8689  -16.1691 O   0  0  0  0  0  0  0  0  0  0  0  0
   19.7793  -17.8516  -17.1089 O   0  0  0  0  0  0  0  0  0  0  0  0
  2  1  1  0
  3  2  2  0
  4  5  2  0
  4  3  1  0
  5 11  1  0
  6  5  1  0
  6  7  1  0
  7  9  1  0
  7  8  1  6
  9 10  2  0
 11 12  2  0
 12  2  1  0
 13 14  1  0
 15 14  1  1
 16 15  1  0
 16  9  1  0
 17 19  1  0
 17 15  1  0
 18 17  2  0
 20 19  1  0
 20 21  1  6
 21 22  1  0
 23 25  1  0
 23 20  1  0
 24 23  2  0
M  END
$$$$
