YSC.pdb
     RDKit          3D

 25 25  0  0  1  0  0  0  0  0999 V2000
   29.7238  -12.1635  -16.5639 O   0  0  0  0  0  0  0  0  0  0  0  0
   28.5253  -11.4531  -16.6578 C   0  0  0  0  0  0  0  0  0  0  0  0
   27.8964  -11.3023  -17.8754 C   0  0  0  0  0  0  0  0  0  0  0  0
   26.7120  -10.6040  -17.9885 C   0  0  0  0  0  0  0  0  0  0  0  0
   26.1027  -10.0249  -16.8898 C   0  0  0  0  0  0  0  0  0  0  0  0
   24.8253   -9.2744  -17.0242 C   0  0  0  0  0  0  0  0  0  0  0  0
   23.7194  -10.1378  -16.5212 C   0  0  2  0  0  0  0  0  0  0  0  0
   23.6993  -11.3720  -17.2478 N   0  0  0  0  0  0  0  0  0  0  0  0
   22.4061   -9.4643  -16.4911 C   0  0  0  0  0  0  0  0  0  0  0  0
   21.7589   -9.4350  -17.5843 O   0  0  0  0  0  0  0  0  0  0  0  0
   26.7403  -10.1816  -15.6758 C   0  0  0  0  0  0  0  0  0  0  0  0
   27.9262  -10.8796  -15.5561 C   0  0  0  0  0  0  0  0  0  0  0  0
   18.4012   -8.1543  -14.2805 O   0  0  0  0  0  0  0  0  0  0  0  0
   19.7060   -8.6135  -14.1924 C   0  0  0  0  0  0  0  0  0  0  0  0
   20.5021   -8.3071  -15.4579 C   0  0  2  0  0  0  0  0  0  0  0  0
   21.8394   -8.8669  -15.3555 N   0  0  0  0  0  0  0  0  0  0  0  0
   20.5579   -6.8325  -15.6590 C   0  0  0  0  0  0  0  0  0  0  0  0
   21.4216   -6.1240  -15.0334 O   0  0  0  0  0  0  0  0  0  0  0  0
   19.7005   -6.1076  -16.5228 N   0  0  0  0  0  0  0  0  0  0  0  0
   19.7711   -4.6467  -16.6343 C   0  0  1  0  0  0  0  0  0  0  0  0
   19.6444   -4.2263  -18.0897 C   0  0  0  0  0  0  0  0  0  0  0  0
   20.9159   -4.9529  -19.1197 S   0  0  0  0  0  0  0  0  0  0  0  0
   18.7594   -3.9948  -15.7965 C   0  0  0  0  0  0  0  0  0  0  0  0
   18.7378   -2.7492  -15.6767 O   0  0  0  0  0  0  0  0  0  0  0  0
   17.8237   -4.7486  -15.1340 O   0  0  0  0  0  0  0  0  0  0  0  0
  2  1  1  0
  3  2  2  0
  4  5  2  0
  4  3  1  0
  5 11  1  0
  6  5  1  0
  6  7  1  0
  7  9  1  0
  7  8  1  6
  9 10  2  0
 11 12  2  0
 12  2  1  0
 13 14  1  0
 15 14  1  1
 16 15  1  0
 16  9  1  0
 17 19  1  0
 17 15  1  0
 18 17  2  0
 20 19  1  0
 20 21  1  6
 21 22  1  0
 23 25  1  0
 23 20  1  0
 24 23  2  0
M  END
$$$$
