YSC.pdb
     RDKit          3D

 25 25  0  0  1  0  0  0  0  0999 V2000
   24.6563  -14.4853  -20.2954 O   0  0  0  0  0  0  0  0  0  0  0  0
   23.9419  -15.4665  -19.6051 C   0  0  0  0  0  0  0  0  0  0  0  0
   24.0168  -15.5482  -18.2309 C   0  0  0  0  0  0  0  0  0  0  0  0
   23.3185  -16.5105  -17.5311 C   0  0  0  0  0  0  0  0  0  0  0  0
   22.5138  -17.4345  -18.1732 C   0  0  0  0  0  0  0  0  0  0  0  0
   21.7653  -18.4675  -17.4078 C   0  0  0  0  0  0  0  0  0  0  0  0
   22.7474  -19.4384  -16.8471 C   0  0  2  0  0  0  0  0  0  0  0  0
   23.4676  -20.0691  -17.9124 N   0  0  0  0  0  0  0  0  0  0  0  0
   22.1546  -20.4037  -15.9003 C   0  0  0  0  0  0  0  0  0  0  0  0
   21.5816  -21.4175  -16.4089 O   0  0  0  0  0  0  0  0  0  0  0  0
   22.4456  -17.3442  -19.5488 C   0  0  0  0  0  0  0  0  0  0  0  0
   23.1423  -16.3831  -20.2550 C   0  0  0  0  0  0  0  0  0  0  0  0
   21.4216  -19.9308  -11.7232 O   0  0  0  0  0  0  0  0  0  0  0  0
   21.9249  -21.1202  -12.2263 C   0  0  0  0  0  0  0  0  0  0  0  0
   21.5636  -21.3124  -13.6966 C   0  0  2  0  0  0  0  0  0  0  0  0
   22.1833  -20.2749  -14.5038 N   0  0  0  0  0  0  0  0  0  0  0  0
   20.0820  -21.2875  -13.8463 C   0  0  0  0  0  0  0  0  0  0  0  0
   19.4785  -20.2007  -14.1523 O   0  0  0  0  0  0  0  0  0  0  0  0
   19.2392  -22.4129  -13.6733 N   0  0  0  0  0  0  0  0  0  0  0  0
   17.7775  -22.2961  -13.7075 C   0  0  1  0  0  0  0  0  0  0  0  0
   17.2321  -22.9229  -14.9806 C   0  0  0  0  0  0  0  0  0  0  0  0
   15.4513  -23.1036  -14.9396 S   0  0  0  0  0  0  0  0  0  0  0  0
   17.1637  -22.8851  -12.5129 C   0  0  0  0  0  0  0  0  0  0  0  0
   16.0301  -22.5166  -12.1316 O   0  0  0  0  0  0  0  0  0  0  0  0
   17.8305  -23.8495  -11.8001 O   0  0  0  0  0  0  0  0  0  0  0  0
  2  1  1  0
  3  2  2  0
  4  5  2  0
  4  3  1  0
  5 11  1  0
  6  5  1  0
  6  7  1  0
  7  9  1  0
  7  8  1  6
  9 10  2  0
 11 12  2  0
 12  2  1  0
 13 14  1  0
 15 14  1  1
 16 15  1  0
 16  9  1  0
 17 19  1  0
 17 15  1  0
 18 17  2  0
 20 19  1  0
 20 21  1  6
 21 22  1  0
 23 25  1  0
 23 20  1  0
 24 23  2  0
M  END
$$$$
