SEY.pdb
     RDKit          3D

 28 28  0  0  1  0  0  0  0  0999 V2000
    8.5710  -14.7906   18.9285 O   0  0  0  0  0  0  0  0  0  0  0  0
    7.4195  -15.5732   19.0000 C   0  0  0  0  0  0  0  0  0  0  0  0
    7.8461  -17.0192   18.8802 C   0  0  2  0  0  0  0  0  0  0  0  0
    6.6417  -17.8193   18.7589 N   0  0  0  0  0  0  0  0  0  0  0  0
    8.6448  -17.4578   20.0527 C   0  0  0  0  0  0  0  0  0  0  0  0
    8.0463  -17.8036   21.0991 O   0  0  0  0  0  0  0  0  0  0  0  0
   10.0754  -17.4911   20.0055 N   0  0  0  0  0  0  0  0  0  0  0  0
   10.9246  -17.9222   21.0548 C   0  0  1  0  0  0  0  0  0  0  0  0
   12.2863  -18.3758   20.6843 C   0  0  0  0  0  0  0  0  0  0  0  0
   13.1001  -19.0070   21.7556 C   0  0  0  0  0  0  0  0  0  0  0  0
   14.4614  -19.3063   21.2228 C   0  0  0  0  0  0  0  0  0  0  0  0
   14.8120  -20.4878   21.0710 O   0  0  0  0  0  0  0  0  0  0  0  0
   10.9196  -17.0563   22.2732 C   0  0  0  0  0  0  0  0  0  0  0  0
   11.3302  -15.8805   22.1229 O   0  0  0  0  0  0  0  0  0  0  0  0
   15.3627  -18.3100   20.8856 O   0  0  0  0  0  0  0  0  0  0  0  0
   10.0993  -13.7257   30.3739 O   0  0  0  0  0  0  0  0  0  0  0  0
    9.9113  -14.4598   29.2012 C   0  0  0  0  0  0  0  0  0  0  0  0
   10.2942  -15.7826   29.1365 C   0  0  0  0  0  0  0  0  0  0  0  0
   10.1071  -16.5042   27.9778 C   0  0  0  0  0  0  0  0  0  0  0  0
    9.5317  -15.9507   26.8274 C   0  0  0  0  0  0  0  0  0  0  0  0
    9.3698  -16.7648   25.6026 C   0  0  0  0  0  0  0  0  0  0  0  0
   10.5623  -16.5735   24.7246 C   0  0  2  0  0  0  0  0  0  0  0  0
   10.4958  -17.4689   23.5523 N   0  0  0  0  0  0  0  0  0  0  0  0
   11.8691  -16.7354   25.3911 C   0  0  0  0  0  0  0  0  0  0  0  0
   12.3781  -17.8535   25.6219 O   0  0  0  0  0  0  0  0  0  0  0  0
    9.1534  -14.6270   26.9050 C   0  0  0  0  0  0  0  0  0  0  0  0
    9.3440  -13.9048   28.0746 C   0  0  0  0  0  0  0  0  0  0  0  0
   12.5742  -15.6090   25.7838 O   0  0  0  0  0  0  0  0  0  0  0  0
  2  1  1  0
  2  3  1  0
  3  5  1  0
  3  4  1  1
  5  6  2  0
  7  8  1  0
  7  5  1  0
  8  9  1  6
 10  9  1  0
 11 10  1  0
 11 15  1  0
 12 11  2  0
 13 14  2  0
 13  8  1  0
 16 17  1  0
 17 18  2  0
 17 27  1  0
 18 19  1  0
 19 20  2  0
 20 21  1  0
 22 21  1  1
 22 24  1  0
 22 23  1  0
 23 13  1  0
 24 28  1  0
 25 24  2  0
 26 20  1  0
 27 26  2  0
M  END
$$$$
