SEY.pdb
     RDKit          3D

 28 28  0  0  1  0  0  0  0  0999 V2000
    7.0588  -14.4262   20.1333 O   0  0  0  0  0  0  0  0  0  0  0  0
    7.4582  -15.0727   18.9645 C   0  0  0  0  0  0  0  0  0  0  0  0
    7.4257  -16.5602   19.2357 C   0  0  2  0  0  0  0  0  0  0  0  0
    6.0471  -16.9229   19.5065 N   0  0  0  0  0  0  0  0  0  0  0  0
    8.2947  -16.9314   20.3813 C   0  0  0  0  0  0  0  0  0  0  0  0
    7.7602  -17.3258   21.4450 O   0  0  0  0  0  0  0  0  0  0  0  0
    9.7209  -16.8459   20.2890 N   0  0  0  0  0  0  0  0  0  0  0  0
   10.6366  -17.2341   21.2984 C   0  0  1  0  0  0  0  0  0  0  0  0
   11.8598  -17.9517   20.8669 C   0  0  0  0  0  0  0  0  0  0  0  0
   11.6689  -19.1574   20.0194 C   0  0  0  0  0  0  0  0  0  0  0  0
   12.7959  -19.2537   19.0461 C   0  0  0  0  0  0  0  0  0  0  0  0
   12.5824  -19.6972   17.9061 O   0  0  0  0  0  0  0  0  0  0  0  0
   10.9162  -16.1959   22.3366 C   0  0  0  0  0  0  0  0  0  0  0  0
   12.0328  -15.6279   22.2702 O   0  0  0  0  0  0  0  0  0  0  0  0
   14.0869  -18.8647   19.3635 O   0  0  0  0  0  0  0  0  0  0  0  0
   10.9435  -14.3562   30.9711 O   0  0  0  0  0  0  0  0  0  0  0  0
   10.5536  -14.7297   29.6835 C   0  0  0  0  0  0  0  0  0  0  0  0
   10.1461  -13.7776   28.7735 C   0  0  0  0  0  0  0  0  0  0  0  0
    9.7622  -14.1495   27.5037 C   0  0  0  0  0  0  0  0  0  0  0  0
    9.7633  -15.4822   27.0737 C   0  0  0  0  0  0  0  0  0  0  0  0
    9.3239  -15.8298   25.7043 C   0  0  0  0  0  0  0  0  0  0  0  0
   10.4714  -15.6638   24.7634 C   0  0  2  0  0  0  0  0  0  0  0  0
   10.0264  -15.8253   23.3648 N   0  0  0  0  0  0  0  0  0  0  0  0
   11.6267  -16.5469   25.0151 C   0  0  0  0  0  0  0  0  0  0  0  0
   12.7618  -16.1114   25.3056 O   0  0  0  0  0  0  0  0  0  0  0  0
   10.1725  -16.4246   27.9933 C   0  0  0  0  0  0  0  0  0  0  0  0
   10.5584  -16.0446   29.2710 C   0  0  0  0  0  0  0  0  0  0  0  0
   11.4619  -17.9201   24.9296 O   0  0  0  0  0  0  0  0  0  0  0  0
  2  1  1  0
  2  3  1  0
  3  5  1  0
  3  4  1  1
  5  6  2  0
  7  8  1  0
  7  5  1  0
  8  9  1  6
 10  9  1  0
 11 10  1  0
 11 15  1  0
 12 11  2  0
 13 14  2  0
 13  8  1  0
 16 17  1  0
 17 18  2  0
 17 27  1  0
 18 19  1  0
 19 20  2  0
 20 21  1  0
 22 21  1  1
 22 24  1  0
 22 23  1  0
 23 13  1  0
 24 28  1  0
 25 24  2  0
 26 20  1  0
 27 26  2  0
M  END
$$$$
