SEY.pdb
     RDKit          3D

 28 28  0  0  1  0  0  0  0  0999 V2000
   10.3484  -12.8356   20.0512 O   0  0  0  0  0  0  0  0  0  0  0  0
    9.7400  -13.4499   18.9576 C   0  0  0  0  0  0  0  0  0  0  0  0
    8.2540  -13.4990   19.2343 C   0  0  2  0  0  0  0  0  0  0  0  0
    7.8029  -12.1339   19.4306 N   0  0  0  0  0  0  0  0  0  0  0  0
    7.9419  -14.3256   20.4278 C   0  0  0  0  0  0  0  0  0  0  0  0
    7.4176  -13.7761   21.4258 O   0  0  0  0  0  0  0  0  0  0  0  0
    8.2285  -15.7281   20.4546 N   0  0  0  0  0  0  0  0  0  0  0  0
    8.0272  -16.5891   21.5620 C   0  0  1  0  0  0  0  0  0  0  0  0
    7.9879  -18.0461   21.2916 C   0  0  0  0  0  0  0  0  0  0  0  0
    7.6714  -18.9352   22.4396 C   0  0  0  0  0  0  0  0  0  0  0  0
    7.5798  -20.3437   21.9556 C   0  0  0  0  0  0  0  0  0  0  0  0
    7.3174  -21.2509   22.7619 O   0  0  0  0  0  0  0  0  0  0  0  0
    8.8229  -16.2528   22.7817 C   0  0  0  0  0  0  0  0  0  0  0  0
   10.0106  -15.8964   22.5916 O   0  0  0  0  0  0  0  0  0  0  0  0
    7.7774  -20.6876   20.6285 O   0  0  0  0  0  0  0  0  0  0  0  0
    5.9331  -10.7338   25.8602 O   0  0  0  0  0  0  0  0  0  0  0  0
    6.5272  -11.9874   26.0180 C   0  0  0  0  0  0  0  0  0  0  0  0
    7.8761  -12.0926   26.2821 C   0  0  0  0  0  0  0  0  0  0  0  0
    8.4592  -13.3312   26.4374 C   0  0  0  0  0  0  0  0  0  0  0  0
    7.7345  -14.5253   26.3388 C   0  0  0  0  0  0  0  0  0  0  0  0
    8.4131  -15.8307   26.4961 C   0  0  0  0  0  0  0  0  0  0  0  0
    9.2171  -16.1171   25.2710 C   0  0  2  0  0  0  0  0  0  0  0  0
    8.3356  -16.3128   24.1027 N   0  0  0  0  0  0  0  0  0  0  0  0
   10.1476  -17.2575   25.3792 C   0  0  0  0  0  0  0  0  0  0  0  0
   11.1747  -17.2288   26.0911 O   0  0  0  0  0  0  0  0  0  0  0  0
    6.3865  -14.4065   26.0741 C   0  0  0  0  0  0  0  0  0  0  0  0
    5.8042  -13.1564   25.9187 C   0  0  0  0  0  0  0  0  0  0  0  0
    9.8850  -18.4169   24.6672 O   0  0  0  0  0  0  0  0  0  0  0  0
  2  1  1  0
  2  3  1  0
  3  5  1  0
  3  4  1  1
  5  6  2  0
  7  8  1  0
  7  5  1  0
  8  9  1  6
 10  9  1  0
 11 10  1  0
 11 15  1  0
 12 11  2  0
 13 14  2  0
 13  8  1  0
 16 17  1  0
 17 18  2  0
 17 27  1  0
 18 19  1  0
 19 20  2  0
 20 21  1  0
 22 21  1  1
 22 24  1  0
 22 23  1  0
 23 13  1  0
 24 28  1  0
 25 24  2  0
 26 20  1  0
 27 26  2  0
M  END
$$$$
