SEY.pdb
     RDKit          3D

 28 28  0  0  1  0  0  0  0  0999 V2000
    8.9853  -26.2108   18.8209 O   0  0  0  0  0  0  0  0  0  0  0  0
    9.9737  -26.7522   18.0001 C   0  0  0  0  0  0  0  0  0  0  0  0
   10.1886  -25.7891   16.8540 C   0  0  2  0  0  0  0  0  0  0  0  0
   11.2487  -26.3305   16.0242 N   0  0  0  0  0  0  0  0  0  0  0  0
   10.5480  -24.4308   17.3347 C   0  0  0  0  0  0  0  0  0  0  0  0
   11.7498  -24.0739   17.3013 O   0  0  0  0  0  0  0  0  0  0  0  0
    9.5506  -23.5313   17.8309 N   0  0  0  0  0  0  0  0  0  0  0  0
    9.7951  -22.2366   18.3524 C   0  0  1  0  0  0  0  0  0  0  0  0
    8.8919  -21.1459   17.9143 C   0  0  0  0  0  0  0  0  0  0  0  0
    9.2841  -19.7598   18.2798 C   0  0  0  0  0  0  0  0  0  0  0  0
    8.3094  -18.8022   17.6801 C   0  0  0  0  0  0  0  0  0  0  0  0
    8.4705  -18.4191   16.5100 O   0  0  0  0  0  0  0  0  0  0  0  0
   10.0879  -22.1860   19.8172 C   0  0  0  0  0  0  0  0  0  0  0  0
    9.1704  -22.5687   20.5825 O   0  0  0  0  0  0  0  0  0  0  0  0
    7.2184  -18.3158   18.3815 O   0  0  0  0  0  0  0  0  0  0  0  0
   11.2167  -28.0252   21.8209 O   0  0  0  0  0  0  0  0  0  0  0  0
   11.5889  -26.6825   21.9110 C   0  0  0  0  0  0  0  0  0  0  0  0
   11.1456  -25.9038   22.9587 C   0  0  0  0  0  0  0  0  0  0  0  0
   11.5148  -24.5793   23.0448 C   0  0  0  0  0  0  0  0  0  0  0  0
   12.3408  -23.9619   22.0975 C   0  0  0  0  0  0  0  0  0  0  0  0
   12.6927  -22.5306   22.2270 C   0  0  0  0  0  0  0  0  0  0  0  0
   11.5146  -21.6983   21.8413 C   0  0  2  0  0  0  0  0  0  0  0  0
   11.3008  -21.7422   20.3810 N   0  0  0  0  0  0  0  0  0  0  0  0
   11.5621  -20.2924   22.2875 C   0  0  0  0  0  0  0  0  0  0  0  0
   11.5973  -19.3296   21.4910 O   0  0  0  0  0  0  0  0  0  0  0  0
   12.7770  -24.7513   21.0545 C   0  0  0  0  0  0  0  0  0  0  0  0
   12.4023  -26.0850   20.9727 C   0  0  0  0  0  0  0  0  0  0  0  0
   11.5683  -20.0113   23.6443 O   0  0  0  0  0  0  0  0  0  0  0  0
  2  1  1  0
  2  3  1  0
  3  5  1  0
  3  4  1  6
  5  6  2  0
  7  8  1  0
  7  5  1  0
  8  9  1  1
 10  9  1  0
 11 10  1  0
 11 15  1  0
 12 11  2  0
 13 14  2  0
 13  8  1  0
 16 17  1  0
 17 18  2  0
 17 27  1  0
 18 19  1  0
 19 20  2  0
 20 21  1  0
 22 21  1  6
 22 24  1  0
 22 23  1  0
 23 13  1  0
 24 28  1  0
 25 24  2  0
 26 20  1  0
 27 26  2  0
M  END
$$$$
