SEY.pdb
     RDKit          3D

 28 28  0  0  1  0  0  0  0  0999 V2000
    6.5097  -14.5751   21.0791 O   0  0  0  0  0  0  0  0  0  0  0  0
    6.8701  -15.7652   21.7094 C   0  0  0  0  0  0  0  0  0  0  0  0
    8.2985  -16.0710   21.3177 C   0  0  2  0  0  0  0  0  0  0  0  0
    8.2543  -16.9793   20.1870 N   0  0  0  0  0  0  0  0  0  0  0  0
    9.0611  -16.6753   22.4395 C   0  0  0  0  0  0  0  0  0  0  0  0
    8.6094  -17.7053   22.9945 O   0  0  0  0  0  0  0  0  0  0  0  0
   10.2933  -16.1037   22.8920 N   0  0  0  0  0  0  0  0  0  0  0  0
   11.1040  -16.6143   23.9361 C   0  0  1  0  0  0  0  0  0  0  0  0
   12.5517  -16.7701   23.6581 C   0  0  0  0  0  0  0  0  0  0  0  0
   13.3184  -15.5305   23.3682 C   0  0  0  0  0  0  0  0  0  0  0  0
   14.7297  -15.8931   23.0464 C   0  0  0  0  0  0  0  0  0  0  0  0
   14.9565  -16.7795   22.2069 O   0  0  0  0  0  0  0  0  0  0  0  0
   10.8379  -16.0361   25.2884 C   0  0  0  0  0  0  0  0  0  0  0  0
   11.2299  -14.8595   25.4784 O   0  0  0  0  0  0  0  0  0  0  0  0
   15.8119  -15.2757   23.6517 O   0  0  0  0  0  0  0  0  0  0  0  0
    6.4781  -11.7420   24.8834 O   0  0  0  0  0  0  0  0  0  0  0  0
    7.0298  -12.7522   25.6737 C   0  0  0  0  0  0  0  0  0  0  0  0
    6.7559  -14.0765   25.4058 C   0  0  0  0  0  0  0  0  0  0  0  0
    7.3021  -15.0709   26.1875 C   0  0  0  0  0  0  0  0  0  0  0  0
    8.1459  -14.8018   27.2722 C   0  0  0  0  0  0  0  0  0  0  0  0
    8.6917  -15.9065   28.0912 C   0  0  0  0  0  0  0  0  0  0  0  0
   10.1129  -16.1497   27.7033 C   0  0  2  0  0  0  0  0  0  0  0  0
   10.1925  -16.7147   26.3414 N   0  0  0  0  0  0  0  0  0  0  0  0
   10.8840  -16.9990   28.6318 C   0  0  0  0  0  0  0  0  0  0  0  0
   11.0318  -16.7198   29.8414 O   0  0  0  0  0  0  0  0  0  0  0  0
    8.4117  -13.4735   27.5298 C   0  0  0  0  0  0  0  0  0  0  0  0
    7.8591  -12.4758   26.7392 C   0  0  0  0  0  0  0  0  0  0  0  0
   11.4755  -18.1588   28.1576 O   0  0  0  0  0  0  0  0  0  0  0  0
  2  1  1  0
  2  3  1  0
  3  5  1  0
  3  4  1  6
  5  6  2  0
  7  8  1  0
  7  5  1  0
  8  9  1  6
 10  9  1  0
 11 10  1  0
 11 15  1  0
 12 11  2  0
 13 14  2  0
 13  8  1  0
 16 17  1  0
 17 18  2  0
 17 27  1  0
 18 19  1  0
 19 20  2  0
 20 21  1  0
 22 21  1  1
 22 24  1  0
 22 23  1  0
 23 13  1  0
 24 28  1  0
 25 24  2  0
 26 20  1  0
 27 26  2  0
M  END
$$$$
