SEY.pdb
     RDKit          3D

 28 28  0  0  1  0  0  0  0  0999 V2000
   10.2147  -12.6066   19.4748 O   0  0  0  0  0  0  0  0  0  0  0  0
   10.0553  -13.4426   18.3705 C   0  0  0  0  0  0  0  0  0  0  0  0
    8.7814  -14.2307   18.5789 C   0  0  2  0  0  0  0  0  0  0  0  0
    7.6786  -13.2879   18.5593 N   0  0  0  0  0  0  0  0  0  0  0  0
    8.8001  -14.9811   19.8602 C   0  0  0  0  0  0  0  0  0  0  0  0
    8.1158  -14.5566   20.8217 O   0  0  0  0  0  0  0  0  0  0  0  0
    9.5813  -16.1714   20.0118 N   0  0  0  0  0  0  0  0  0  0  0  0
    9.7489  -16.8991   21.2161 C   0  0  1  0  0  0  0  0  0  0  0  0
   10.3651  -18.2437   21.1175 C   0  0  0  0  0  0  0  0  0  0  0  0
   11.5597  -18.3740   20.2431 C   0  0  0  0  0  0  0  0  0  0  0  0
   11.9967  -19.8006   20.2225 C   0  0  0  0  0  0  0  0  0  0  0  0
   13.0788  -20.1156   20.7437 O   0  0  0  0  0  0  0  0  0  0  0  0
   10.2780  -16.1081   22.3686 C   0  0  0  0  0  0  0  0  0  0  0  0
   10.9344  -15.0778   22.0828 O   0  0  0  0  0  0  0  0  0  0  0  0
   11.2374  -20.8018   19.6396 O   0  0  0  0  0  0  0  0  0  0  0  0
    6.3989  -10.8419   27.6536 O   0  0  0  0  0  0  0  0  0  0  0  0
    6.8332  -11.8394   26.7785 C   0  0  0  0  0  0  0  0  0  0  0  0
    8.0844  -12.3996   26.9239 C   0  0  0  0  0  0  0  0  0  0  0  0
    8.5099  -13.3838   26.0588 C   0  0  0  0  0  0  0  0  0  0  0  0
    7.7167  -13.8608   25.0079 C   0  0  0  0  0  0  0  0  0  0  0  0
    8.2288  -14.9071   24.0956 C   0  0  0  0  0  0  0  0  0  0  0  0
    9.4644  -15.5073   24.6810 C   0  0  2  0  0  0  0  0  0  0  0  0
   10.0938  -16.4407   23.7256 N   0  0  0  0  0  0  0  0  0  0  0  0
    9.2828  -16.1841   25.9798 C   0  0  0  0  0  0  0  0  0  0  0  0
    8.6413  -17.2497   26.1047 O   0  0  0  0  0  0  0  0  0  0  0  0
    6.4678  -13.2922   24.8730 C   0  0  0  0  0  0  0  0  0  0  0  0
    6.0442  -12.3012   25.7473 C   0  0  0  0  0  0  0  0  0  0  0  0
    9.8415  -15.6269   27.1189 O   0  0  0  0  0  0  0  0  0  0  0  0
  2  1  1  0
  2  3  1  0
  3  5  1  0
  3  4  1  1
  5  6  2  0
  7  8  1  0
  7  5  1  0
  8  9  1  6
 10  9  1  0
 11 10  1  0
 11 15  1  0
 12 11  2  0
 13 14  2  0
 13  8  1  0
 16 17  1  0
 17 18  2  0
 17 27  1  0
 18 19  1  0
 19 20  2  0
 20 21  1  0
 22 21  1  6
 22 24  1  0
 22 23  1  0
 23 13  1  0
 24 28  1  0
 25 24  2  0
 26 20  1  0
 27 26  2  0
M  END
$$$$
