SEY.pdb
     RDKit          3D

 28 28  0  0  1  0  0  0  0  0999 V2000
    5.9468  -15.9490   21.2764 O   0  0  0  0  0  0  0  0  0  0  0  0
    6.8534  -15.4166   20.3608 C   0  0  0  0  0  0  0  0  0  0  0  0
    7.8288  -16.5141   19.9983 C   0  0  2  0  0  0  0  0  0  0  0  0
    7.0555  -17.6354   19.4982 N   0  0  0  0  0  0  0  0  0  0  0  0
    8.6507  -16.9289   21.1635 C   0  0  0  0  0  0  0  0  0  0  0  0
    8.2028  -17.8059   21.9402 O   0  0  0  0  0  0  0  0  0  0  0  0
    9.9353  -16.3468   21.4103 N   0  0  0  0  0  0  0  0  0  0  0  0
   10.7390  -16.5790   22.5540 C   0  0  1  0  0  0  0  0  0  0  0  0
   12.1859  -16.2775   22.4404 C   0  0  0  0  0  0  0  0  0  0  0  0
   12.9653  -17.0781   21.4606 C   0  0  0  0  0  0  0  0  0  0  0  0
   14.2956  -16.4350   21.2524 C   0  0  0  0  0  0  0  0  0  0  0  0
   14.5168  -15.8160   20.1989 O   0  0  0  0  0  0  0  0  0  0  0  0
   10.1547  -16.1104   23.8475 C   0  0  0  0  0  0  0  0  0  0  0  0
    9.5162  -15.0310   23.8120 O   0  0  0  0  0  0  0  0  0  0  0  0
   15.3077  -16.4995   22.1959 O   0  0  0  0  0  0  0  0  0  0  0  0
    6.6706  -10.7068   26.4059 O   0  0  0  0  0  0  0  0  0  0  0  0
    7.0168  -12.0565   26.3154 C   0  0  0  0  0  0  0  0  0  0  0  0
    7.6842  -12.6770   27.3499 C   0  0  0  0  0  0  0  0  0  0  0  0
    8.0241  -14.0089   27.2576 C   0  0  0  0  0  0  0  0  0  0  0  0
    7.7196  -14.7906   26.1363 C   0  0  0  0  0  0  0  0  0  0  0  0
    8.1236  -16.2129   26.0802 C   0  0  0  0  0  0  0  0  0  0  0  0
    9.5969  -16.3139   26.3006 C   0  0  2  0  0  0  0  0  0  0  0  0
   10.2759  -16.7870   25.0777 N   0  0  0  0  0  0  0  0  0  0  0  0
   10.0080  -17.1512   27.4443 C   0  0  0  0  0  0  0  0  0  0  0  0
   10.6867  -18.1926   27.3123 O   0  0  0  0  0  0  0  0  0  0  0  0
    7.0523  -14.1581   25.1086 C   0  0  0  0  0  0  0  0  0  0  0  0
    6.7121  -12.8164   25.2069 C   0  0  0  0  0  0  0  0  0  0  0  0
    9.6333  -16.7801   28.7257 O   0  0  0  0  0  0  0  0  0  0  0  0
  2  1  1  0
  2  3  1  0
  3  5  1  0
  3  4  1  1
  5  6  2  0
  7  8  1  0
  7  5  1  0
  8  9  1  6
 10  9  1  0
 11 10  1  0
 11 15  1  0
 12 11  2  0
 13 14  2  0
 13  8  1  0
 16 17  1  0
 17 18  2  0
 17 27  1  0
 18 19  1  0
 19 20  2  0
 20 21  1  0
 22 21  1  6
 22 24  1  0
 22 23  1  0
 23 13  1  0
 24 28  1  0
 25 24  2  0
 26 20  1  0
 27 26  2  0
M  END
$$$$
