SEY.pdb
     RDKit          3D

 28 28  0  0  1  0  0  0  0  0999 V2000
    7.9178  -14.6151   16.7658 O   0  0  0  0  0  0  0  0  0  0  0  0
    7.2793  -13.7110   17.6136 C   0  0  0  0  0  0  0  0  0  0  0  0
    8.2593  -13.3438   18.7053 C   0  0  2  0  0  0  0  0  0  0  0  0
    9.4621  -12.8493   18.0617 N   0  0  0  0  0  0  0  0  0  0  0  0
    8.5761  -14.5045   19.5758 C   0  0  0  0  0  0  0  0  0  0  0  0
    7.6538  -15.0330   20.2413 O   0  0  0  0  0  0  0  0  0  0  0  0
    9.9074  -15.0237   19.6649 N   0  0  0  0  0  0  0  0  0  0  0  0
   10.3368  -16.0423   20.5515 C   0  0  1  0  0  0  0  0  0  0  0  0
   11.5462  -16.8099   20.1701 C   0  0  0  0  0  0  0  0  0  0  0  0
   12.0034  -17.8598   21.1173 C   0  0  0  0  0  0  0  0  0  0  0  0
   13.2239  -18.5174   20.5655 C   0  0  0  0  0  0  0  0  0  0  0  0
   13.9455  -19.1941   21.3160 O   0  0  0  0  0  0  0  0  0  0  0  0
   10.3250  -15.6716   21.9994 C   0  0  0  0  0  0  0  0  0  0  0  0
   11.1590  -14.8065   22.3600 O   0  0  0  0  0  0  0  0  0  0  0  0
   13.5915  -18.4043   19.2348 O   0  0  0  0  0  0  0  0  0  0  0  0
    6.2891  -11.4036   28.2255 O   0  0  0  0  0  0  0  0  0  0  0  0
    6.6362  -12.2246   27.1507 C   0  0  0  0  0  0  0  0  0  0  0  0
    7.6508  -11.8590   26.2920 C   0  0  0  0  0  0  0  0  0  0  0  0
    7.9909  -12.6714   25.2325 C   0  0  0  0  0  0  0  0  0  0  0  0
    7.3426  -13.8850   24.9723 C   0  0  0  0  0  0  0  0  0  0  0  0
    7.7348  -14.7117   23.8095 C   0  0  0  0  0  0  0  0  0  0  0  0
    8.9938  -15.4468   24.1320 C   0  0  2  0  0  0  0  0  0  0  0  0
    9.4583  -16.2224   22.9645 N   0  0  0  0  0  0  0  0  0  0  0  0
    8.9237  -16.3312   25.3113 C   0  0  0  0  0  0  0  0  0  0  0  0
    8.6063  -17.5380   25.2354 O   0  0  0  0  0  0  0  0  0  0  0  0
    6.3295  -14.2389   25.8381 C   0  0  0  0  0  0  0  0  0  0  0  0
    5.9911  -13.4170   26.9038 C   0  0  0  0  0  0  0  0  0  0  0  0
    9.2196  -15.8167   26.5634 O   0  0  0  0  0  0  0  0  0  0  0  0
  2  1  1  0
  2  3  1  0
  3  5  1  0
  3  4  1  6
  5  6  2  0
  7  8  1  0
  7  5  1  0
  8  9  1  6
 10  9  1  0
 11 10  1  0
 11 15  1  0
 12 11  2  0
 13 14  2  0
 13  8  1  0
 16 17  1  0
 17 18  2  0
 17 27  1  0
 18 19  1  0
 19 20  2  0
 20 21  1  0
 22 21  1  6
 22 24  1  0
 22 23  1  0
 23 13  1  0
 24 28  1  0
 25 24  2  0
 26 20  1  0
 27 26  2  0
M  END
$$$$
