SVQ.pdb
     RDKit          3D

 23 22  0  0  1  0  0  0  0  0999 V2000
   22.7065  -16.1285  -19.7141 O   0  0  0  0  0  0  0  0  0  0  0  0
   22.6082  -15.2525  -18.6584 C   0  0  0  0  0  0  0  0  0  0  0  0
   23.4738  -15.6685  -17.4747 C   0  0  2  0  0  0  0  0  0  0  0  0
   22.9300  -16.8629  -16.8753 N   0  0  0  0  0  0  0  0  0  0  0  0
   23.4518  -14.5295  -16.5202 C   0  0  0  0  0  0  0  0  0  0  0  0
   22.4667  -14.3146  -15.7666 O   0  0  0  0  0  0  0  0  0  0  0  0
   26.6726  -11.8438  -16.7570 C   0  0  0  0  0  0  0  0  0  0  0  0
   26.1478  -12.2708  -15.3819 C   0  0  2  0  0  0  0  0  0  0  0  0
   26.9176  -13.4607  -14.8941 C   0  0  0  0  0  0  0  0  0  0  0  0
   24.6790  -12.5444  -15.5522 C   0  0  2  0  0  0  0  0  0  0  0  0
   24.5610  -13.6746  -16.4619 N   0  0  0  0  0  0  0  0  0  0  0  0
   23.9436  -11.3915  -16.1143 C   0  0  0  0  0  0  0  0  0  0  0  0
   23.9675  -11.2065  -17.3510 O   0  0  0  0  0  0  0  0  0  0  0  0
   18.3302  -10.7596  -16.6801 N   0  0  0  0  0  0  0  0  0  0  0  0
   18.7167   -9.4349  -16.9147 C   0  0  0  0  0  0  0  0  0  0  0  0
   17.9067   -8.6317  -17.4290 O   0  0  0  0  0  0  0  0  0  0  0  0
   20.0802   -8.9079  -16.5773 C   0  0  0  0  0  0  0  0  0  0  0  0
   20.9729   -9.9934  -16.0620 C   0  0  0  0  0  0  0  0  0  0  0  0
   22.3275   -9.4789  -15.7887 C   0  0  2  0  0  0  0  0  0  0  0  0
   23.2295  -10.5153  -15.2876 N   0  0  0  0  0  0  0  0  0  0  0  0
   22.3016   -8.4051  -14.7941 C   0  0  0  0  0  0  0  0  0  0  0  0
   21.8372   -7.2630  -15.1763 O   0  0  0  0  0  0  0  0  0  0  0  0
   22.7178   -8.4741  -13.4753 O   0  0  0  0  0  0  0  0  0  0  0  0
  1  2  1  0
  3  2  1  0
  3  5  1  0
  3  4  1  1
  5 11  1  0
  6  5  2  0
  8  7  1  6
  8  9  1  0
 10  8  1  0
 10 12  1  0
 10 11  1  6
 12 20  1  0
 13 12  2  0
 15 14  1  0
 15 16  2  0
 17 15  1  0
 18 17  1  0
 19 21  1  0
 19 18  1  1
 20 19  1  0
 21 23  1  0
 22 21  2  0
M  END
$$$$
