SVQ.pdb
     RDKit          3D

 23 22  0  0  1  0  0  0  0  0999 V2000
   19.3888  -22.7807   -9.7780 O   0  0  0  0  0  0  0  0  0  0  0  0
   20.1094  -21.6591  -10.1160 C   0  0  0  0  0  0  0  0  0  0  0  0
   21.5415  -21.7093   -9.5964 C   0  0  2  0  0  0  0  0  0  0  0  0
   21.5589  -21.3641   -8.1956 N   0  0  0  0  0  0  0  0  0  0  0  0
   22.3131  -20.7271  -10.4021 C   0  0  0  0  0  0  0  0  0  0  0  0
   22.2098  -19.4870  -10.2128 O   0  0  0  0  0  0  0  0  0  0  0  0
   25.2585  -22.3371  -12.7980 C   0  0  0  0  0  0  0  0  0  0  0  0
   25.3609  -20.8948  -12.2902 C   0  0  2  0  0  0  0  0  0  0  0  0
   26.0121  -20.8791  -10.9403 C   0  0  0  0  0  0  0  0  0  0  0  0
   23.9609  -20.3462  -12.2790 C   0  0  2  0  0  0  0  0  0  0  0  0
   23.1777  -21.2006  -11.3984 N   0  0  0  0  0  0  0  0  0  0  0  0
   23.3400  -20.3351  -13.6208 C   0  0  0  0  0  0  0  0  0  0  0  0
   22.7992  -21.3807  -14.0432 O   0  0  0  0  0  0  0  0  0  0  0  0
   20.3000  -15.3784  -15.9023 N   0  0  0  0  0  0  0  0  0  0  0  0
   20.2093  -16.3413  -16.9141 C   0  0  0  0  0  0  0  0  0  0  0  0
   19.4652  -16.1404  -17.8999 O   0  0  0  0  0  0  0  0  0  0  0  0
   20.9712  -17.6333  -16.8854 C   0  0  0  0  0  0  0  0  0  0  0  0
   21.7810  -17.7618  -15.6330 C   0  0  0  0  0  0  0  0  0  0  0  0
   22.5483  -19.0210  -15.6263 C   0  0  2  0  0  0  0  0  0  0  0  0
   23.3507  -19.1812  -14.4142 N   0  0  0  0  0  0  0  0  0  0  0  0
   23.4622  -19.0968  -16.7675 C   0  0  0  0  0  0  0  0  0  0  0  0
   24.6809  -18.7209  -16.5685 O   0  0  0  0  0  0  0  0  0  0  0  0
   23.1691  -19.5337  -18.0483 O   0  0  0  0  0  0  0  0  0  0  0  0
  1  2  1  0
  3  2  1  0
  3  5  1  0
  3  4  1  1
  5 11  1  0
  6  5  2  0
  8  7  1  1
  8  9  1  0
 10  8  1  0
 10 12  1  0
 10 11  1  1
 12 20  1  0
 13 12  2  0
 15 14  1  0
 15 16  2  0
 17 15  1  0
 18 17  1  0
 19 21  1  0
 19 18  1  1
 20 19  1  0
 21 23  1  0
 22 21  2  0
M  END
$$$$
