SVQ.pdb
     RDKit          3D

 23 22  0  0  1  0  0  0  0  0999 V2000
   17.6980  -11.1654  -18.6208 O   0  0  0  0  0  0  0  0  0  0  0  0
   18.1094  -11.0240  -17.3161 C   0  0  0  0  0  0  0  0  0  0  0  0
   19.3990  -11.7834  -17.0271 C   0  0  2  0  0  0  0  0  0  0  0  0
   19.1019  -13.1815  -16.8300 N   0  0  0  0  0  0  0  0  0  0  0  0
   19.9746  -11.1772  -15.7981 C   0  0  0  0  0  0  0  0  0  0  0  0
   19.4139  -11.2917  -14.6770 O   0  0  0  0  0  0  0  0  0  0  0  0
   23.9413  -10.0706  -15.8842 C   0  0  0  0  0  0  0  0  0  0  0  0
   23.1595  -10.3346  -14.5928 C   0  0  2  0  0  0  0  0  0  0  0  0
   23.1279  -11.8067  -14.3128 C   0  0  0  0  0  0  0  0  0  0  0  0
   21.7929   -9.7399  -14.7926 C   0  0  2  0  0  0  0  0  0  0  0  0
   21.1745  -10.4598  -15.8964 N   0  0  0  0  0  0  0  0  0  0  0  0
   21.8382   -8.2987  -15.1193 C   0  0  0  0  0  0  0  0  0  0  0  0
   22.3268   -7.9442  -16.2146 O   0  0  0  0  0  0  0  0  0  0  0  0
   17.6015   -4.4429  -16.9845 N   0  0  0  0  0  0  0  0  0  0  0  0
   18.0751   -5.2413  -15.9369 C   0  0  0  0  0  0  0  0  0  0  0  0
   17.3029   -5.5759  -15.0109 O   0  0  0  0  0  0  0  0  0  0  0  0
   19.4905   -5.7322  -15.8570 C   0  0  0  0  0  0  0  0  0  0  0  0
   20.1724   -5.2332  -14.6214 C   0  0  0  0  0  0  0  0  0  0  0  0
   21.4760   -5.8960  -14.4325 C   0  0  2  0  0  0  0  0  0  0  0  0
   21.3463   -7.3381  -14.2269 N   0  0  0  0  0  0  0  0  0  0  0  0
   22.1898   -5.3529  -13.2755 C   0  0  0  0  0  0  0  0  0  0  0  0
   22.5708   -4.1216  -13.3467 O   0  0  0  0  0  0  0  0  0  0  0  0
   22.5036   -6.0124  -12.0991 O   0  0  0  0  0  0  0  0  0  0  0  0
  1  2  1  0
  3  2  1  0
  3  5  1  0
  3  4  1  1
  5 11  1  0
  6  5  2  0
  8  7  1  6
  8  9  1  0
 10  8  1  0
 10 12  1  0
 10 11  1  6
 12 20  1  0
 13 12  2  0
 15 14  1  0
 15 16  2  0
 17 15  1  0
 18 17  1  0
 19 21  1  0
 19 18  1  1
 20 19  1  0
 21 23  1  0
 22 21  2  0
M  END
$$$$
