SVQ.pdb
     RDKit          3D

 23 22  0  0  1  0  0  0  0  0999 V2000
   12.8742  -19.1815    3.7448 O   0  0  0  0  0  0  0  0  0  0  0  0
   14.1566  -19.5936    4.0225 C   0  0  0  0  0  0  0  0  0  0  0  0
   14.9424  -19.9385    2.7628 C   0  0  2  0  0  0  0  0  0  0  0  0
   14.4955  -21.2103    2.2483 N   0  0  0  0  0  0  0  0  0  0  0  0
   16.3725  -19.9932    3.1641 C   0  0  0  0  0  0  0  0  0  0  0  0
   16.9294  -21.0743    3.4886 O   0  0  0  0  0  0  0  0  0  0  0  0
   18.4284  -16.4535    2.6972 C   0  0  0  0  0  0  0  0  0  0  0  0
   19.1897  -17.7816    2.6252 C   0  0  2  0  0  0  0  0  0  0  0  0
   19.1917  -18.2874    1.2142 C   0  0  0  0  0  0  0  0  0  0  0  0
   18.5103  -18.7153    3.5884 C   0  0  2  0  0  0  0  0  0  0  0  0
   17.1162  -18.8053    3.1797 N   0  0  0  0  0  0  0  0  0  0  0  0
   18.5753  -18.2410    4.9872 C   0  0  0  0  0  0  0  0  0  0  0  0
   17.7753  -17.3552    5.3609 O   0  0  0  0  0  0  0  0  0  0  0  0
   17.8721  -22.5349    9.2809 N   0  0  0  0  0  0  0  0  0  0  0  0
   17.8634  -21.1559    9.0413 C   0  0  0  0  0  0  0  0  0  0  0  0
   16.9349  -20.4508    9.4955 O   0  0  0  0  0  0  0  0  0  0  0  0
   18.9295  -20.4555    8.2516 C   0  0  0  0  0  0  0  0  0  0  0  0
   18.6698  -18.9835    8.1696 C   0  0  0  0  0  0  0  0  0  0  0  0
   19.6397  -18.3245    7.2755 C   0  0  2  0  0  0  0  0  0  0  0  0
   19.5110  -18.7660    5.8872 N   0  0  0  0  0  0  0  0  0  0  0  0
   21.0178  -18.5903    7.6917 C   0  0  0  0  0  0  0  0  0  0  0  0
   21.7404  -19.3107    6.9011 O   0  0  0  0  0  0  0  0  0  0  0  0
   21.6444  -18.1505    8.8455 O   0  0  0  0  0  0  0  0  0  0  0  0
  1  2  1  0
  3  2  1  0
  3  5  1  0
  3  4  1  1
  5 11  1  0
  6  5  2  0
  8  7  1  6
  8  9  1  0
 10  8  1  0
 10 12  1  0
 10 11  1  6
 12 20  1  0
 13 12  2  0
 15 14  1  0
 15 16  2  0
 17 15  1  0
 18 17  1  0
 19 21  1  0
 19 18  1  1
 20 19  1  0
 21 23  1  0
 22 21  2  0
M  END
$$$$
