SVQ.pdb
     RDKit          3D

 23 22  0  0  1  0  0  0  0  0999 V2000
   23.6342  -10.8522  -13.7293 O   0  0  0  0  0  0  0  0  0  0  0  0
   23.3468   -9.8195  -14.5910 C   0  0  0  0  0  0  0  0  0  0  0  0
   22.6675  -10.2995  -15.8683 C   0  0  2  0  0  0  0  0  0  0  0  0
   23.6308  -10.9768  -16.7019 N   0  0  0  0  0  0  0  0  0  0  0  0
   22.1343   -9.0855  -16.5397 C   0  0  0  0  0  0  0  0  0  0  0  0
   22.8197   -8.4305  -17.3678 O   0  0  0  0  0  0  0  0  0  0  0  0
   18.1110   -8.7909  -16.5490 C   0  0  0  0  0  0  0  0  0  0  0  0
   18.9715   -8.0825  -17.6009 C   0  0  2  0  0  0  0  0  0  0  0  0
   19.3327   -9.0459  -18.6908 C   0  0  0  0  0  0  0  0  0  0  0  0
   20.1682   -7.5343  -16.8740 C   0  0  2  0  0  0  0  0  0  0  0  0
   20.8322   -8.6631  -16.2387 N   0  0  0  0  0  0  0  0  0  0  0  0
   19.8045   -6.5419  -15.8401 C   0  0  0  0  0  0  0  0  0  0  0  0
   19.4144   -6.9498  -14.7241 O   0  0  0  0  0  0  0  0  0  0  0  0
   21.5668   -0.4903  -16.0477 N   0  0  0  0  0  0  0  0  0  0  0  0
   22.2867   -1.6588  -15.7730 C   0  0  0  0  0  0  0  0  0  0  0  0
   23.5359   -1.6522  -15.8457 O   0  0  0  0  0  0  0  0  0  0  0  0
   21.6319   -2.9521  -15.3865 C   0  0  0  0  0  0  0  0  0  0  0  0
   20.1396   -2.8364  -15.4086 C   0  0  0  0  0  0  0  0  0  0  0  0
   19.5041   -4.1375  -15.1299 C   0  0  2  0  0  0  0  0  0  0  0  0
   19.8909   -5.1673  -16.0935 N   0  0  0  0  0  0  0  0  0  0  0  0
   18.0439   -4.0375  -15.1611 C   0  0  0  0  0  0  0  0  0  0  0  0
   17.4699   -3.5158  -14.1293 O   0  0  0  0  0  0  0  0  0  0  0  0
   17.1980   -4.4379  -16.1815 O   0  0  0  0  0  0  0  0  0  0  0  0
  1  2  1  0
  3  2  1  0
  3  5  1  0
  3  4  1  6
  5 11  1  0
  6  5  2  0
  8  7  1  1
  8  9  1  0
 10  8  1  0
 10 12  1  0
 10 11  1  1
 12 20  1  0
 13 12  2  0
 15 14  1  0
 15 16  2  0
 17 15  1  0
 18 17  1  0
 19 21  1  0
 19 18  1  6
 20 19  1  0
 21 23  1  0
 22 21  2  0
M  END
$$$$
