SVQ.pdb
     RDKit          3D

 23 22  0  0  1  0  0  0  0  0999 V2000
   17.8383  -11.9931  -17.7957 O   0  0  0  0  0  0  0  0  0  0  0  0
   18.7513  -11.2540  -17.0805 C   0  0  0  0  0  0  0  0  0  0  0  0
   20.1417  -11.2853  -17.7045 C   0  0  2  0  0  0  0  0  0  0  0  0
   20.7121  -12.6011  -17.5463 N   0  0  0  0  0  0  0  0  0  0  0  0
   20.9449  -10.2609  -16.9871 C   0  0  0  0  0  0  0  0  0  0  0  0
   21.4386  -10.4818  -15.8505 O   0  0  0  0  0  0  0  0  0  0  0  0
   21.6973   -6.3059  -18.8014 C   0  0  0  0  0  0  0  0  0  0  0  0
   22.6978   -7.3333  -18.2609 C   0  0  2  0  0  0  0  0  0  0  0  0
   23.0611   -8.3036  -19.3439 C   0  0  0  0  0  0  0  0  0  0  0  0
   22.0406   -7.9861  -17.0764 C   0  0  2  0  0  0  0  0  0  0  0  0
   21.1550   -9.0170  -17.5977 N   0  0  0  0  0  0  0  0  0  0  0  0
   21.2517   -7.0356  -16.2639 C   0  0  0  0  0  0  0  0  0  0  0  0
   20.1230   -6.6852  -16.6731 O   0  0  0  0  0  0  0  0  0  0  0  0
   19.4777   -7.6179  -10.6289 N   0  0  0  0  0  0  0  0  0  0  0  0
   19.1989   -6.2662  -10.8616 C   0  0  0  0  0  0  0  0  0  0  0  0
   18.5373   -5.6136  -10.0237 O   0  0  0  0  0  0  0  0  0  0  0  0
   19.6585   -5.5349  -12.0882 C   0  0  0  0  0  0  0  0  0  0  0  0
   20.4226   -6.4363  -13.0071 C   0  0  0  0  0  0  0  0  0  0  0  0
   20.9727   -5.6836  -14.1496 C   0  0  2  0  0  0  0  0  0  0  0  0
   21.7481   -6.5296  -15.0561 N   0  0  0  0  0  0  0  0  0  0  0  0
   21.8519   -4.6013  -13.7039 C   0  0  0  0  0  0  0  0  0  0  0  0
   21.2851   -3.5451  -13.2250 O   0  0  0  0  0  0  0  0  0  0  0  0
   23.2361   -4.5803  -13.7328 O   0  0  0  0  0  0  0  0  0  0  0  0
  1  2  1  0
  3  2  1  0
  3  5  1  0
  3  4  1  1
  5 11  1  0
  6  5  2  0
  8  7  1  6
  8  9  1  0
 10  8  1  0
 10 12  1  0
 10 11  1  6
 12 20  1  0
 13 12  2  0
 15 14  1  0
 15 16  2  0
 17 15  1  0
 18 17  1  0
 19 21  1  0
 19 18  1  1
 20 19  1  0
 21 23  1  0
 22 21  2  0
M  END
$$$$
