SVQ.pdb
     RDKit          3D

 23 22  0  0  1  0  0  0  0  0999 V2000
   24.7431  -36.8128  -12.5612 O   0  0  0  0  0  0  0  0  0  0  0  0
   25.6955  -36.2983  -11.7129 C   0  0  0  0  0  0  0  0  0  0  0  0
   25.7519  -34.7757  -11.7564 C   0  0  2  0  0  0  0  0  0  0  0  0
   26.4967  -34.3534  -12.9178 N   0  0  0  0  0  0  0  0  0  0  0  0
   26.4229  -34.3462  -10.5017 C   0  0  0  0  0  0  0  0  0  0  0  0
   27.6636  -34.4772  -10.3348 O   0  0  0  0  0  0  0  0  0  0  0  0
   25.8073  -31.8040   -6.3438 C   0  0  0  0  0  0  0  0  0  0  0  0
   25.2767  -32.2277   -7.7177 C   0  0  2  0  0  0  0  0  0  0  0  0
   23.8428  -32.6475   -7.5985 C   0  0  0  0  0  0  0  0  0  0  0  0
   26.1784  -33.3295   -8.2018 C   0  0  2  0  0  0  0  0  0  0  0  0
   25.6479  -33.7807   -9.4800 N   0  0  0  0  0  0  0  0  0  0  0  0
   26.2336  -34.4751   -7.2687 C   0  0  0  0  0  0  0  0  0  0  0  0
   25.6445  -35.5338   -7.5790 O   0  0  0  0  0  0  0  0  0  0  0  0
   26.4036  -39.0388   -4.1124 N   0  0  0  0  0  0  0  0  0  0  0  0
   27.4051  -38.6420   -5.0061 C   0  0  0  0  0  0  0  0  0  0  0  0
   27.4923  -39.1908   -6.1272 O   0  0  0  0  0  0  0  0  0  0  0  0
   28.4058  -37.5697   -4.6907 C   0  0  0  0  0  0  0  0  0  0  0  0
   28.2500  -36.3924   -5.6020 C   0  0  0  0  0  0  0  0  0  0  0  0
   27.1432  -35.5242   -5.1597 C   0  0  2  0  0  0  0  0  0  0  0  0
   26.9296  -34.3889   -6.0566 N   0  0  0  0  0  0  0  0  0  0  0  0
   27.3894  -34.9829   -3.8220 C   0  0  0  0  0  0  0  0  0  0  0  0
   27.5540  -33.7061   -3.7274 O   0  0  0  0  0  0  0  0  0  0  0  0
   27.4627  -35.6884   -2.6329 O   0  0  0  0  0  0  0  0  0  0  0  0
  1  2  1  0
  3  2  1  0
  3  5  1  0
  3  4  1  6
  5 11  1  0
  6  5  2  0
  8  7  1  1
  8  9  1  0
 10  8  1  0
 10 12  1  0
 10 11  1  6
 12 20  1  0
 13 12  2  0
 15 14  1  0
 15 16  2  0
 17 15  1  0
 18 17  1  0
 19 21  1  0
 19 18  1  6
 20 19  1  0
 21 23  1  0
 22 21  2  0
M  END
$$$$
