SVQ.pdb
     RDKit          3D

 23 22  0  0  1  0  0  0  0  0999 V2000
   22.7764  -24.0818  -18.3002 O   0  0  0  0  0  0  0  0  0  0  0  0
   23.2557  -25.2133  -18.9177 C   0  0  0  0  0  0  0  0  0  0  0  0
   24.6339  -25.0007  -19.5333 C   0  0  2  0  0  0  0  0  0  0  0  0
   24.4915  -24.6435  -20.9239 N   0  0  0  0  0  0  0  0  0  0  0  0
   25.3629  -26.2869  -19.3802 C   0  0  0  0  0  0  0  0  0  0  0  0
   25.3219  -27.1817  -20.2644 O   0  0  0  0  0  0  0  0  0  0  0  0
   28.5029  -28.5925  -16.3596 C   0  0  0  0  0  0  0  0  0  0  0  0
   28.0046  -27.2987  -17.0125 C   0  0  2  0  0  0  0  0  0  0  0  0
   27.5464  -26.3419  -15.9536 C   0  0  0  0  0  0  0  0  0  0  0  0
   26.9114  -27.6956  -17.9656 C   0  0  2  0  0  0  0  0  0  0  0  0
   26.1149  -26.5036  -18.2174 N   0  0  0  0  0  0  0  0  0  0  0  0
   26.0365  -28.7568  -17.4228 C   0  0  0  0  0  0  0  0  0  0  0  0
   25.2653  -28.4777  -16.4786 O   0  0  0  0  0  0  0  0  0  0  0  0
   26.9981  -34.8687  -17.4636 N   0  0  0  0  0  0  0  0  0  0  0  0
   25.8102  -34.7249  -16.7374 C   0  0  0  0  0  0  0  0  0  0  0  0
   25.2225  -35.7384  -16.2978 O   0  0  0  0  0  0  0  0  0  0  0  0
   25.1840  -33.3928  -16.4476 C   0  0  0  0  0  0  0  0  0  0  0  0
   26.0539  -32.2676  -16.9142 C   0  0  0  0  0  0  0  0  0  0  0  0
   25.2420  -31.1535  -17.4378 C   0  0  2  0  0  0  0  0  0  0  0  0
   26.0616  -30.0549  -17.9477 N   0  0  0  0  0  0  0  0  0  0  0  0
   24.3639  -30.5999  -16.4056 C   0  0  0  0  0  0  0  0  0  0  0  0
   23.2026  -31.1468  -16.2687 O   0  0  0  0  0  0  0  0  0  0  0  0
   24.6387  -29.5491  -15.5468 O   0  0  0  0  0  0  0  0  0  0  0  0
  1  2  1  0
  3  2  1  0
  3  5  1  0
  3  4  1  6
  5 11  1  0
  6  5  2  0
  8  7  1  1
  8  9  1  0
 10  8  1  0
 10 12  1  0
 10 11  1  1
 12 20  1  0
 13 12  2  0
 15 14  1  0
 15 16  2  0
 17 15  1  0
 18 17  1  0
 19 21  1  0
 19 18  1  1
 20 19  1  0
 21 23  1  0
 22 21  2  0
M  END
$$$$
