NHA.pdb
     RDKit          3D

 24 24  0  0  1  0  0  0  0  0999 V2000
   19.8051  -21.8397  -14.6406 N   0  0  0  0  0  0  0  0  0  0  0  0
   19.9543  -21.2860  -13.3315 C   0  0  0  0  0  0  0  0  0  0  0  0
   19.2403  -21.6753  -12.3870 O   0  0  0  0  0  0  0  0  0  0  0  0
   20.9688  -20.2475  -13.1262 C   0  0  0  0  0  0  0  0  0  0  0  0
   21.6702  -19.9179  -14.3985 C   0  0  2  0  0  0  0  0  0  0  0  0
   21.5578  -21.1291  -15.2607 N   0  0  0  0  0  0  0  0  0  0  0  0
   23.1409  -19.6544  -14.2139 C   0  0  0  0  0  0  0  0  0  0  0  0
   23.6371  -18.5673  -13.8691 O   0  0  0  0  0  0  0  0  0  0  0  0
   24.0906  -20.7122  -14.4421 N   0  0  0  0  0  0  0  0  0  0  0  0
   25.5232  -20.4954  -14.1414 C   0  0  1  0  0  0  0  0  0  0  0  0
   25.9652  -21.4319  -13.0813 C   0  0  0  0  0  0  0  0  0  0  0  0
   25.5375  -21.1430  -11.7087 C   0  0  0  0  0  0  0  0  0  0  0  0
   24.9021  -20.0030  -11.2427 C   0  0  0  0  0  0  0  0  0  0  0  0
   24.7267  -20.1324   -9.9107 N   0  0  0  0  0  0  0  0  0  0  0  0
   25.2291  -21.3109   -9.5299 C   0  0  0  0  0  0  0  0  0  0  0  0
   25.7171  -21.9184  -10.6131 N   0  0  0  0  0  0  0  0  0  0  0  0
   26.3053  -20.3975  -15.3635 C   0  0  0  0  0  0  0  0  0  0  0  0
   25.9819  -21.1972  -16.3255 O   0  0  0  0  0  0  0  0  0  0  0  0
   28.9708  -18.3701  -17.1002 C   0  0  0  0  0  0  0  0  0  0  0  0
   28.0527  -19.5792  -16.9503 C   0  0  2  0  0  0  0  0  0  0  0  0
   27.3759  -19.5459  -15.6640 N   0  0  0  0  0  0  0  0  0  0  0  0
   28.7909  -20.8282  -17.1965 C   0  0  0  0  0  0  0  0  0  0  0  0
   29.2368  -21.2373  -18.4399 O   0  0  0  0  0  0  0  0  0  0  0  0
   29.0566  -21.6141  -16.2226 O   0  0  0  0  0  0  0  0  0  0  0  0
  1  2  1  0
  2  3  2  0
  4  5  1  0
  4  2  1  0
  5  6  1  6
  7  8  2  0
  7  5  1  0
  9  7  1  0
 10 11  1  1
 10  9  1  0
 11 12  1  0
 12 13  2  0
 12 16  1  0
 13 14  1  0
 14 15  1  0
 16 15  2  0
 17 21  1  0
 17 10  1  0
 18 17  2  0
 20 21  1  0
 20 19  1  1
 22 20  1  0
 23 22  1  0
 24 22  2  0
M  END
$$$$
