NHA.pdb
     RDKit          3D

 24 24  0  0  1  0  0  0  0  0999 V2000
   16.8312  -10.1566  -20.4594 N   0  0  0  0  0  0  0  0  0  0  0  0
   18.1638   -9.7413  -20.1523 C   0  0  0  0  0  0  0  0  0  0  0  0
   19.0814   -9.8671  -20.9864 O   0  0  0  0  0  0  0  0  0  0  0  0
   18.4258   -9.1628  -18.8307 C   0  0  0  0  0  0  0  0  0  0  0  0
   19.8142   -9.4568  -18.3776 C   0  0  2  0  0  0  0  0  0  0  0  0
   19.8247  -10.8924  -17.9750 N   0  0  0  0  0  0  0  0  0  0  0  0
   20.2220   -8.6650  -17.1638 C   0  0  0  0  0  0  0  0  0  0  0  0
   19.7485   -8.8067  -16.0225 O   0  0  0  0  0  0  0  0  0  0  0  0
   21.2374   -7.6508  -17.2801 N   0  0  0  0  0  0  0  0  0  0  0  0
   21.6639   -6.8927  -16.0830 C   0  0  1  0  0  0  0  0  0  0  0  0
   23.1203   -7.0630  -15.8684 C   0  0  0  0  0  0  0  0  0  0  0  0
   23.6064   -8.4215  -15.6069 C   0  0  0  0  0  0  0  0  0  0  0  0
   22.8522   -9.5712  -15.4331 C   0  0  0  0  0  0  0  0  0  0  0  0
   23.6949  -10.5934  -15.1745 N   0  0  0  0  0  0  0  0  0  0  0  0
   24.9460  -10.1230  -15.1811 C   0  0  0  0  0  0  0  0  0  0  0  0
   24.8915   -8.8154  -15.4414 N   0  0  0  0  0  0  0  0  0  0  0  0
   21.1066   -5.5495  -16.0884 C   0  0  0  0  0  0  0  0  0  0  0  0
   21.3157   -4.8383  -17.1467 O   0  0  0  0  0  0  0  0  0  0  0  0
   18.6784   -3.2692  -14.3807 C   0  0  0  0  0  0  0  0  0  0  0  0
   19.9012   -3.5258  -15.2560 C   0  0  2  0  0  0  0  0  0  0  0  0
   20.3571   -4.8977  -15.1009 N   0  0  0  0  0  0  0  0  0  0  0  0
   20.9472   -2.5236  -14.9975 C   0  0  0  0  0  0  0  0  0  0  0  0
   22.1971   -2.8169  -14.4836 O   0  0  0  0  0  0  0  0  0  0  0  0
   20.7242   -1.2896  -15.2510 O   0  0  0  0  0  0  0  0  0  0  0  0
  1  2  1  0
  2  3  2  0
  4  5  1  0
  4  2  1  0
  5  6  1  1
  7  8  2  0
  7  5  1  0
  9  7  1  0
 10 11  1  6
 10  9  1  0
 11 12  1  0
 12 13  2  0
 12 16  1  0
 13 14  1  0
 14 15  1  0
 16 15  2  0
 17 21  1  0
 17 10  1  0
 18 17  2  0
 20 21  1  0
 20 19  1  1
 22 20  1  0
 23 22  1  0
 24 22  2  0
M  END
$$$$
