NHA.pdb
     RDKit          3D

 24 24  0  0  1  0  0  0  0  0999 V2000
   24.2645  -18.4111  -22.5351 N   0  0  0  0  0  0  0  0  0  0  0  0
   25.0300  -19.6146  -22.4446 C   0  0  0  0  0  0  0  0  0  0  0  0
   25.6116  -20.0798  -23.4440 O   0  0  0  0  0  0  0  0  0  0  0  0
   25.1148  -20.2898  -21.1458 C   0  0  0  0  0  0  0  0  0  0  0  0
   24.2238  -19.6440  -20.1416 C   0  0  2  0  0  0  0  0  0  0  0  0
   24.8354  -18.3193  -19.8346 N   0  0  0  0  0  0  0  0  0  0  0  0
   24.1518  -20.3982  -18.8407 C   0  0  0  0  0  0  0  0  0  0  0  0
   23.8502  -21.5991  -18.7234 O   0  0  0  0  0  0  0  0  0  0  0  0
   24.4466  -19.7209  -17.6047 N   0  0  0  0  0  0  0  0  0  0  0  0
   24.2866  -20.4322  -16.3170 C   0  0  1  0  0  0  0  0  0  0  0  0
   25.5716  -20.4379  -15.5788 C   0  0  0  0  0  0  0  0  0  0  0  0
   26.6560  -21.2605  -16.1245 C   0  0  0  0  0  0  0  0  0  0  0  0
   26.6080  -22.1028  -17.2240 C   0  0  0  0  0  0  0  0  0  0  0  0
   27.8126  -22.6981  -17.3523 N   0  0  0  0  0  0  0  0  0  0  0  0
   28.6091  -22.2576  -16.3736 C   0  0  0  0  0  0  0  0  0  0  0  0
   27.9118  -21.3923  -15.6350 N   0  0  0  0  0  0  0  0  0  0  0  0
   23.0817  -20.0002  -15.6269 C   0  0  0  0  0  0  0  0  0  0  0  0
   22.7998  -18.7405  -15.6839 O   0  0  0  0  0  0  0  0  0  0  0  0
   21.5543  -19.1077  -13.1968 C   0  0  0  0  0  0  0  0  0  0  0  0
   21.0456  -20.1506  -14.1871 C   0  0  2  0  0  0  0  0  0  0  0  0
   22.1577  -20.7599  -14.8983 N   0  0  0  0  0  0  0  0  0  0  0  0
   20.0235  -19.5726  -15.0742 C   0  0  0  0  0  0  0  0  0  0  0  0
   18.7740  -19.1547  -14.6542 O   0  0  0  0  0  0  0  0  0  0  0  0
   20.2684  -19.4316  -16.3218 O   0  0  0  0  0  0  0  0  0  0  0  0
  1  2  1  0
  2  3  2  0
  4  5  1  0
  4  2  1  0
  5  6  1  1
  7  8  2  0
  7  5  1  0
  9  7  1  0
 10 11  1  1
 10  9  1  0
 11 12  1  0
 12 13  2  0
 12 16  1  0
 13 14  1  0
 14 15  1  0
 16 15  2  0
 17 21  1  0
 17 10  1  0
 18 17  2  0
 20 21  1  0
 20 19  1  1
 22 20  1  0
 23 22  1  0
 24 22  2  0
M  END
$$$$
