NHA.pdb
     RDKit          3D

 24 24  0  0  1  0  0  0  0  0999 V2000
   27.1571  -24.5834  -19.2274 N   0  0  0  0  0  0  0  0  0  0  0  0
   27.4584  -24.1398  -17.9026 C   0  0  0  0  0  0  0  0  0  0  0  0
   27.7744  -22.9547  -17.6810 O   0  0  0  0  0  0  0  0  0  0  0  0
   27.3867  -25.1138  -16.8090 C   0  0  0  0  0  0  0  0  0  0  0  0
   27.0144  -26.4656  -17.3126 C   0  0  2  0  0  0  0  0  0  0  0  0
   25.5690  -26.6444  -16.9931 N   0  0  0  0  0  0  0  0  0  0  0  0
   27.7510  -27.5805  -16.6191 C   0  0  0  0  0  0  0  0  0  0  0  0
   27.8956  -27.6881  -15.3885 O   0  0  0  0  0  0  0  0  0  0  0  0
   28.3545  -28.6308  -17.3973 N   0  0  0  0  0  0  0  0  0  0  0  0
   29.0333  -29.7563  -16.7174 C   0  0  1  0  0  0  0  0  0  0  0  0
   28.1563  -30.3117  -15.6597 C   0  0  0  0  0  0  0  0  0  0  0  0
   26.9669  -31.0517  -16.0934 C   0  0  0  0  0  0  0  0  0  0  0  0
   26.4979  -31.2164  -17.3871 C   0  0  0  0  0  0  0  0  0  0  0  0
   25.3541  -31.9310  -17.3333 N   0  0  0  0  0  0  0  0  0  0  0  0
   25.0936  -32.2178  -16.0542 C   0  0  0  0  0  0  0  0  0  0  0  0
   26.0651  -31.6879  -15.3086 N   0  0  0  0  0  0  0  0  0  0  0  0
   29.6335  -30.6646  -17.6815 C   0  0  0  0  0  0  0  0  0  0  0  0
   29.1461  -30.6464  -18.8780 O   0  0  0  0  0  0  0  0  0  0  0  0
   29.9966  -32.9850  -19.3826 C   0  0  0  0  0  0  0  0  0  0  0  0
   31.1682  -32.4141  -18.5899 C   0  0  2  0  0  0  0  0  0  0  0  0
   30.6859  -31.5722  -17.5071 N   0  0  0  0  0  0  0  0  0  0  0  0
   32.1221  -31.7376  -19.4832 C   0  0  0  0  0  0  0  0  0  0  0  0
   33.0644  -32.3918  -20.2555 O   0  0  0  0  0  0  0  0  0  0  0  0
   32.1111  -30.4620  -19.5790 O   0  0  0  0  0  0  0  0  0  0  0  0
  1  2  1  0
  2  3  2  0
  4  5  1  0
  4  2  1  0
  5  6  1  1
  7  8  2  0
  7  5  1  0
  9  7  1  0
 10 11  1  6
 10  9  1  0
 11 12  1  0
 12 13  2  0
 12 16  1  0
 13 14  1  0
 14 15  1  0
 16 15  2  0
 17 21  1  0
 17 10  1  0
 18 17  2  0
 20 21  1  0
 20 19  1  6
 22 20  1  0
 23 22  1  0
 24 22  2  0
M  END
$$$$
