NHA.pdb
     RDKit          3D

 24 24  0  0  1  0  0  0  0  0999 V2000
   19.6124  -34.7970   -9.6479 N   0  0  0  0  0  0  0  0  0  0  0  0
   19.7514  -33.4369  -10.0646 C   0  0  0  0  0  0  0  0  0  0  0  0
   19.8355  -33.1434  -11.2730 O   0  0  0  0  0  0  0  0  0  0  0  0
   19.7927  -32.3939   -9.0349 C   0  0  0  0  0  0  0  0  0  0  0  0
   19.7044  -32.9800   -7.6681 C   0  0  2  0  0  0  0  0  0  0  0  0
   19.4898  -31.8346   -6.7380 N   0  0  0  0  0  0  0  0  0  0  0  0
   20.9750  -33.6590   -7.2308 C   0  0  0  0  0  0  0  0  0  0  0  0
   21.4446  -34.6949   -7.7340 O   0  0  0  0  0  0  0  0  0  0  0  0
   21.7451  -33.1048   -6.1478 N   0  0  0  0  0  0  0  0  0  0  0  0
   22.9980  -33.7657   -5.7194 C   0  0  1  0  0  0  0  0  0  0  0  0
   24.1545  -32.8772   -5.9829 C   0  0  0  0  0  0  0  0  0  0  0  0
   24.7347  -32.9113   -7.3292 C   0  0  0  0  0  0  0  0  0  0  0  0
   24.3542  -33.7120   -8.3945 C   0  0  0  0  0  0  0  0  0  0  0  0
   25.1768  -33.4519   -9.4326 N   0  0  0  0  0  0  0  0  0  0  0  0
   26.0553  -32.5187   -9.0533 C   0  0  0  0  0  0  0  0  0  0  0  0
   25.7883  -32.1941   -7.7869 N   0  0  0  0  0  0  0  0  0  0  0  0
   22.8525  -34.3570   -4.3989 C   0  0  0  0  0  0  0  0  0  0  0  0
   23.8729  -34.9996   -3.9348 O   0  0  0  0  0  0  0  0  0  0  0  0
   21.8130  -36.5857   -2.5846 C   0  0  0  0  0  0  0  0  0  0  0  0
   21.7245  -35.0907   -2.2940 C   0  0  2  0  0  0  0  0  0  0  0  0
   21.7519  -34.3305   -3.5330 N   0  0  0  0  0  0  0  0  0  0  0  0
   22.7593  -34.6847   -1.3297 C   0  0  0  0  0  0  0  0  0  0  0  0
   22.8926  -35.2165   -0.0601 O   0  0  0  0  0  0  0  0  0  0  0  0
   23.6095  -33.7836   -1.6487 O   0  0  0  0  0  0  0  0  0  0  0  0
  1  2  1  0
  2  3  2  0
  4  5  1  0
  4  2  1  0
  5  6  1  1
  7  8  2  0
  7  5  1  0
  9  7  1  0
 10 11  1  1
 10  9  1  0
 11 12  1  0
 12 13  2  0
 12 16  1  0
 13 14  1  0
 14 15  1  0
 16 15  2  0
 17 21  1  0
 17 10  1  0
 18 17  2  0
 20 21  1  0
 20 19  1  6
 22 20  1  0
 23 22  1  0
 24 22  2  0
M  END
$$$$
