NHA.pdb
     RDKit          3D

 24 24  0  0  1  0  0  0  0  0999 V2000
   18.5620  -12.5509  -15.7560 N   0  0  0  0  0  0  0  0  0  0  0  0
   19.8597  -13.0536  -15.4305 C   0  0  0  0  0  0  0  0  0  0  0  0
   20.0579  -14.2772  -15.3007 O   0  0  0  0  0  0  0  0  0  0  0  0
   20.9538  -12.0937  -15.2527 C   0  0  0  0  0  0  0  0  0  0  0  0
   20.5617  -10.7346  -15.7202 C   0  0  2  0  0  0  0  0  0  0  0  0
   20.5869  -10.7843  -17.2101 N   0  0  0  0  0  0  0  0  0  0  0  0
   21.5344   -9.6621  -15.3075 C   0  0  0  0  0  0  0  0  0  0  0  0
   21.8650   -9.4055  -14.1363 O   0  0  0  0  0  0  0  0  0  0  0  0
   22.1596   -8.8399  -16.3107 N   0  0  0  0  0  0  0  0  0  0  0  0
   23.1391   -7.8051  -15.9114 C   0  0  1  0  0  0  0  0  0  0  0  0
   24.4049   -7.9909  -16.6593 C   0  0  0  0  0  0  0  0  0  0  0  0
   25.1955   -9.1878  -16.3548 C   0  0  0  0  0  0  0  0  0  0  0  0
   25.1807   -9.9378  -15.1894 C   0  0  0  0  0  0  0  0  0  0  0  0
   26.0893  -10.9281  -15.3136 N   0  0  0  0  0  0  0  0  0  0  0  0
   26.6694  -10.8229  -16.5131 C   0  0  0  0  0  0  0  0  0  0  0  0
   26.1306   -9.7748  -17.1390 N   0  0  0  0  0  0  0  0  0  0  0  0
   22.5257   -6.4868  -15.8844 C   0  0  0  0  0  0  0  0  0  0  0  0
   21.7450   -6.1894  -16.8701 O   0  0  0  0  0  0  0  0  0  0  0  0
   21.7818   -3.5492  -13.6879 C   0  0  0  0  0  0  0  0  0  0  0  0
   21.9594   -4.1988  -15.0567 C   0  0  2  0  0  0  0  0  0  0  0  0
   22.6518   -5.4708  -14.9287 N   0  0  0  0  0  0  0  0  0  0  0  0
   22.6045   -3.2677  -15.9961 C   0  0  0  0  0  0  0  0  0  0  0  0
   21.9318   -2.2987  -16.7179 O   0  0  0  0  0  0  0  0  0  0  0  0
   23.8683   -3.3270  -16.1855 O   0  0  0  0  0  0  0  0  0  0  0  0
  1  2  1  0
  2  3  2  0
  4  5  1  0
  4  2  1  0
  5  6  1  6
  7  8  2  0
  7  5  1  0
  9  7  1  0
 10 11  1  6
 10  9  1  0
 11 12  1  0
 12 13  2  0
 12 16  1  0
 13 14  1  0
 14 15  1  0
 16 15  2  0
 17 21  1  0
 17 10  1  0
 18 17  2  0
 20 21  1  0
 20 19  1  1
 22 20  1  0
 23 22  1  0
 24 22  2  0
M  END
$$$$
