NHA.pdb
     RDKit          3D

 24 24  0  0  1  0  0  0  0  0999 V2000
   27.7623  -10.3941  -21.9721 N   0  0  0  0  0  0  0  0  0  0  0  0
   27.7456  -10.2587  -20.5494 C   0  0  0  0  0  0  0  0  0  0  0  0
   27.4570   -9.1711  -20.0135 O   0  0  0  0  0  0  0  0  0  0  0  0
   28.0766  -11.4318  -19.7345 C   0  0  0  0  0  0  0  0  0  0  0  0
   28.3725  -12.6167  -20.5877 C   0  0  2  0  0  0  0  0  0  0  0  0
   27.0526  -13.1453  -21.0367 N   0  0  0  0  0  0  0  0  0  0  0  0
   29.0521  -13.7319  -19.8387 C   0  0  0  0  0  0  0  0  0  0  0  0
   30.1119  -13.6234  -19.1969 O   0  0  0  0  0  0  0  0  0  0  0  0
   28.4692  -15.0484  -19.8337 N   0  0  0  0  0  0  0  0  0  0  0  0
   29.1284  -16.1446  -19.0895 C   0  0  1  0  0  0  0  0  0  0  0  0
   28.1173  -16.9270  -18.3399 C   0  0  0  0  0  0  0  0  0  0  0  0
   27.5033  -16.2869  -17.1722 C   0  0  0  0  0  0  0  0  0  0  0  0
   27.8305  -15.0643  -16.6077 C   0  0  0  0  0  0  0  0  0  0  0  0
   27.0469  -14.8763  -15.5249 N   0  0  0  0  0  0  0  0  0  0  0  0
   26.2435  -15.9365  -15.3943 C   0  0  0  0  0  0  0  0  0  0  0  0
   26.5192  -16.7851  -16.3864 N   0  0  0  0  0  0  0  0  0  0  0  0
   30.0800  -16.8507  -19.9324 C   0  0  0  0  0  0  0  0  0  0  0  0
   29.6463  -17.2651  -21.0768 O   0  0  0  0  0  0  0  0  0  0  0  0
   33.7186  -17.6661  -20.3727 C   0  0  0  0  0  0  0  0  0  0  0  0
   32.2346  -17.9012  -20.6363 C   0  0  2  0  0  0  0  0  0  0  0  0
   31.4260  -17.1517  -19.6885 N   0  0  0  0  0  0  0  0  0  0  0  0
   31.9311  -19.3409  -20.6618 C   0  0  0  0  0  0  0  0  0  0  0  0
   32.4385  -20.2275  -21.5940 O   0  0  0  0  0  0  0  0  0  0  0  0
   31.1508  -19.8435  -19.7815 O   0  0  0  0  0  0  0  0  0  0  0  0
  1  2  1  0
  2  3  2  0
  4  5  1  0
  4  2  1  0
  5  6  1  1
  7  8  2  0
  7  5  1  0
  9  7  1  0
 10 11  1  6
 10  9  1  0
 11 12  1  0
 12 13  2  0
 12 16  1  0
 13 14  1  0
 14 15  1  0
 16 15  2  0
 17 21  1  0
 17 10  1  0
 18 17  2  0
 20 21  1  0
 20 19  1  1
 22 20  1  0
 23 22  1  0
 24 22  2  0
M  END
$$$$
