NHA.pdb
     RDKit          3D

 24 24  0  0  1  0  0  0  0  0999 V2000
   29.6111  -31.9240  -17.0418 N   0  0  0  0  0  0  0  0  0  0  0  0
   29.1645  -31.0282  -16.0216 C   0  0  0  0  0  0  0  0  0  0  0  0
   29.7909  -29.9802  -15.7712 O   0  0  0  0  0  0  0  0  0  0  0  0
   27.9498  -31.3722  -15.2758 C   0  0  0  0  0  0  0  0  0  0  0  0
   27.4375  -32.7153  -15.6671 C   0  0  2  0  0  0  0  0  0  0  0  0
   26.4834  -32.4852  -16.7895 N   0  0  0  0  0  0  0  0  0  0  0  0
   26.6598  -33.3954  -14.5720 C   0  0  0  0  0  0  0  0  0  0  0  0
   25.4516  -33.6859  -14.6241 O   0  0  0  0  0  0  0  0  0  0  0  0
   27.3213  -33.7596  -13.3460 N   0  0  0  0  0  0  0  0  0  0  0  0
   26.5658  -34.4485  -12.2762 C   0  0  1  0  0  0  0  0  0  0  0  0
   27.0395  -35.8462  -12.1417 C   0  0  0  0  0  0  0  0  0  0  0  0
   26.6646  -36.7875  -13.2018 C   0  0  0  0  0  0  0  0  0  0  0  0
   25.7939  -36.5696  -14.2578 C   0  0  0  0  0  0  0  0  0  0  0  0
   25.7040  -37.7108  -14.9729 N   0  0  0  0  0  0  0  0  0  0  0  0
   26.4867  -38.6314  -14.4015 C   0  0  0  0  0  0  0  0  0  0  0  0
   27.0643  -38.0745  -13.3353 N   0  0  0  0  0  0  0  0  0  0  0  0
   26.4730  -33.6201  -11.0846 C   0  0  0  0  0  0  0  0  0  0  0  0
   27.2944  -32.6261  -11.0031 O   0  0  0  0  0  0  0  0  0  0  0  0
   24.8840  -31.4760   -9.3910 C   0  0  0  0  0  0  0  0  0  0  0  0
   25.5753  -32.7521   -8.9209 C   0  0  2  0  0  0  0  0  0  0  0  0
   25.6060  -33.7361   -9.9908 N   0  0  0  0  0  0  0  0  0  0  0  0
   24.9627  -33.2498   -7.6789 C   0  0  0  0  0  0  0  0  0  0  0  0
   25.0976  -32.6399   -6.4451 O   0  0  0  0  0  0  0  0  0  0  0  0
   24.2522  -34.3134   -7.7003 O   0  0  0  0  0  0  0  0  0  0  0  0
  1  2  1  0
  2  3  2  0
  4  5  1  0
  4  2  1  0
  5  6  1  6
  7  8  2  0
  7  5  1  0
  9  7  1  0
 10 11  1  1
 10  9  1  0
 11 12  1  0
 12 13  2  0
 12 16  1  0
 13 14  1  0
 14 15  1  0
 16 15  2  0
 17 21  1  0
 17 10  1  0
 18 17  2  0
 20 21  1  0
 20 19  1  6
 22 20  1  0
 23 22  1  0
 24 22  2  0
M  END
$$$$
