DKI.pdb
     RDKit          3D

 26 25  0  0  1  0  0  0  0  0999 V2000
   12.8974  -17.3305   20.1185 N   0  0  0  0  0  0  0  0  0  0  0  0
   12.2937  -17.5237   21.4051 C   0  0  1  0  0  0  0  0  0  0  0  0
   13.3851  -17.7167   22.4375 C   0  0  0  0  0  0  0  0  0  0  0  0
   14.2196  -18.9109   22.1564 C   0  0  0  0  0  0  0  0  0  0  0  0
   13.9222  -19.7342   21.2493 O   0  0  0  0  0  0  0  0  0  0  0  0
   11.3805  -16.4152   21.7252 C   0  0  0  0  0  0  0  0  0  0  0  0
   11.8255  -15.2249   21.7368 O   0  0  0  0  0  0  0  0  0  0  0  0
   15.3662  -19.1680   22.8865 O   0  0  0  0  0  0  0  0  0  0  0  0
   10.0085  -16.5933   22.0266 N   0  0  0  0  0  0  0  0  0  0  0  0
    9.0871  -15.5159   22.3268 C   0  0  1  0  0  0  0  0  0  0  0  0
    7.8935  -15.6342   21.4309 C   0  0  0  0  0  0  0  0  0  0  0  0
    7.5008  -14.3921   20.7108 C   0  0  0  0  0  0  0  0  0  0  0  0
    7.8701  -14.4836   19.2620 C   0  0  0  0  0  0  0  0  0  0  0  0
    7.5250  -13.1870   18.5600 C   0  0  0  0  0  0  0  0  0  0  0  0
    7.9298  -13.2618   17.1726 N   0  0  0  0  0  0  0  0  0  0  0  0
    8.6000  -15.6403   23.7384 C   0  0  0  0  0  0  0  0  0  0  0  0
    8.5866  -16.7434   24.3081 O   0  0  0  0  0  0  0  0  0  0  0  0
    6.6648  -10.7866   25.8321 C   0  0  0  0  0  0  0  0  0  0  0  0
    7.5901  -12.0036   25.6926 C   0  0  0  0  0  0  0  0  0  0  0  0
    6.8360  -13.2743   25.9958 C   0  0  2  0  0  0  0  0  0  0  0  0
    6.2125  -13.2409   27.3755 C   0  0  0  0  0  0  0  0  0  0  0  0
    7.6136  -14.5264   25.7944 C   0  0  2  0  0  0  0  0  0  0  0  0
    8.1461  -14.5001   24.4479 N   0  0  0  0  0  0  0  0  0  0  0  0
    6.9218  -15.7733   26.1119 C   0  0  0  0  0  0  0  0  0  0  0  0
    7.1229  -16.5178   27.2725 O   0  0  0  0  0  0  0  0  0  0  0  0
    6.0771  -16.2419   25.3067 O   0  0  0  0  0  0  0  0  0  0  0  0
  2  1  1  6
  2  3  1  0
  3  4  1  0
  4  8  1  0
  5  4  2  0
  6  7  2  0
  6  2  1  0
  9  6  1  0
 10  9  1  0
 10 11  1  6
 11 12  1  0
 13 12  1  0
 13 14  1  0
 14 15  1  0
 16 10  1  0
 17 16  2  0
 19 18  1  0
 19 20  1  0
 20 22  1  0
 20 21  1  1
 22 24  1  0
 22 23  1  6
 23 16  1  0
 24 25  1  0
 26 24  2  0
M  END
$$$$
