DKI.pdb
     RDKit          3D

 26 25  0  0  1  0  0  0  0  0999 V2000
    5.5359  -19.7818   22.5399 N   0  0  0  0  0  0  0  0  0  0  0  0
    6.2675  -19.2814   23.6676 C   0  0  1  0  0  0  0  0  0  0  0  0
    7.1422  -20.3886   24.2181 C   0  0  0  0  0  0  0  0  0  0  0  0
    6.3518  -21.5699   24.6442 C   0  0  0  0  0  0  0  0  0  0  0  0
    5.1337  -21.7000   24.3470 O   0  0  0  0  0  0  0  0  0  0  0  0
    7.0216  -18.0709   23.3054 C   0  0  0  0  0  0  0  0  0  0  0  0
    8.2265  -17.9489   23.6904 O   0  0  0  0  0  0  0  0  0  0  0  0
    6.9277  -22.5822   25.3907 O   0  0  0  0  0  0  0  0  0  0  0  0
    6.4795  -17.0111   22.5385 N   0  0  0  0  0  0  0  0  0  0  0  0
    7.1564  -15.7568   22.2774 C   0  0  1  0  0  0  0  0  0  0  0  0
    6.4212  -15.0240   21.1984 C   0  0  0  0  0  0  0  0  0  0  0  0
    7.0401  -13.7475   20.7474 C   0  0  0  0  0  0  0  0  0  0  0  0
    7.9206  -13.9800   19.5582 C   0  0  0  0  0  0  0  0  0  0  0  0
    8.4952  -12.6637   19.0781 C   0  0  0  0  0  0  0  0  0  0  0  0
    9.3390  -12.8926   17.9248 N   0  0  0  0  0  0  0  0  0  0  0  0
    7.1249  -14.8957   23.5033 C   0  0  0  0  0  0  0  0  0  0  0  0
    6.6293  -13.7580   23.4647 O   0  0  0  0  0  0  0  0  0  0  0  0
    6.0023  -11.8455   26.4130 C   0  0  0  0  0  0  0  0  0  0  0  0
    6.9626  -12.6522   25.5278 C   0  0  0  0  0  0  0  0  0  0  0  0
    7.7325  -13.6478   26.3594 C   0  0  2  0  0  0  0  0  0  0  0  0
    8.5631  -12.9648   27.4257 C   0  0  0  0  0  0  0  0  0  0  0  0
    8.5564  -14.6099   25.5793 C   0  0  2  0  0  0  0  0  0  0  0  0
    7.6605  -15.3657   24.7287 N   0  0  0  0  0  0  0  0  0  0  0  0
    9.4627  -15.4567   26.3512 C   0  0  0  0  0  0  0  0  0  0  0  0
   10.7145  -15.0597   26.8169 O   0  0  0  0  0  0  0  0  0  0  0  0
    9.1266  -16.6344   26.6367 O   0  0  0  0  0  0  0  0  0  0  0  0
  2  1  1  6
  2  3  1  0
  3  4  1  0
  4  8  1  0
  5  4  2  0
  6  7  2  0
  6  2  1  0
  9  6  1  0
 10  9  1  0
 10 11  1  6
 11 12  1  0
 13 12  1  0
 13 14  1  0
 14 15  1  0
 16 10  1  0
 17 16  2  0
 19 18  1  0
 19 20  1  0
 20 22  1  0
 20 21  1  1
 22 24  1  0
 22 23  1  1
 23 16  1  0
 24 25  1  0
 26 24  2  0
M  END
$$$$
