DKI.pdb
     RDKit          3D

 26 25  0  0  1  0  0  0  0  0999 V2000
    9.9507  -17.4991   18.8852 N   0  0  0  0  0  0  0  0  0  0  0  0
   10.5414  -17.3454   20.1831 C   0  0  1  0  0  0  0  0  0  0  0  0
   11.7647  -16.4599   20.0659 C   0  0  0  0  0  0  0  0  0  0  0  0
   12.8820  -17.1357   19.3612 C   0  0  0  0  0  0  0  0  0  0  0  0
   13.3303  -16.7126   18.2616 O   0  0  0  0  0  0  0  0  0  0  0  0
    9.5525  -16.8449   21.1510 C   0  0  0  0  0  0  0  0  0  0  0  0
    9.1170  -15.6563   21.0387 O   0  0  0  0  0  0  0  0  0  0  0  0
   13.4791  -18.2662   19.8895 O   0  0  0  0  0  0  0  0  0  0  0  0
    9.0435  -17.6194   22.2215 N   0  0  0  0  0  0  0  0  0  0  0  0
    8.0059  -17.1796   23.1325 C   0  0  1  0  0  0  0  0  0  0  0  0
    7.2593  -18.3772   23.6324 C   0  0  0  0  0  0  0  0  0  0  0  0
    6.3983  -19.0654   22.6321 C   0  0  0  0  0  0  0  0  0  0  0  0
    5.8427  -20.3353   23.1998 C   0  0  0  0  0  0  0  0  0  0  0  0
    5.0442  -21.0664   22.1408 C   0  0  0  0  0  0  0  0  0  0  0  0
    4.5474  -22.3139   22.6805 N   0  0  0  0  0  0  0  0  0  0  0  0
    8.6227  -16.5092   24.3222 C   0  0  0  0  0  0  0  0  0  0  0  0
    9.7402  -16.8578   24.7361 O   0  0  0  0  0  0  0  0  0  0  0  0
    6.1409  -11.7195   25.6508 C   0  0  0  0  0  0  0  0  0  0  0  0
    7.1974  -12.7660   25.2697 C   0  0  0  0  0  0  0  0  0  0  0  0
    7.5166  -13.6452   26.4531 C   0  0  2  0  0  0  0  0  0  0  0  0
    8.0017  -12.8365   27.6381 C   0  0  0  0  0  0  0  0  0  0  0  0
    8.4440  -14.7717   26.1634 C   0  0  2  0  0  0  0  0  0  0  0  0
    7.9406  -15.4650   24.9958 N   0  0  0  0  0  0  0  0  0  0  0  0
    8.7380  -15.6682   27.2787 C   0  0  0  0  0  0  0  0  0  0  0  0
    9.8424  -15.5508   28.1202 O   0  0  0  0  0  0  0  0  0  0  0  0
    7.9638  -16.6267   27.5309 O   0  0  0  0  0  0  0  0  0  0  0  0
  2  1  1  6
  2  3  1  0
  3  4  1  0
  4  8  1  0
  5  4  2  0
  6  7  2  0
  6  2  1  0
  9  6  1  0
 10  9  1  0
 10 11  1  1
 11 12  1  0
 13 12  1  0
 13 14  1  0
 14 15  1  0
 16 10  1  0
 17 16  2  0
 19 18  1  0
 19 20  1  0
 20 22  1  0
 20 21  1  1
 22 24  1  0
 22 23  1  6
 23 16  1  0
 24 25  1  0
 26 24  2  0
M  END
$$$$
