DKI.pdb
     RDKit          3D

 26 25  0  0  1  0  0  0  0  0999 V2000
   11.6836  -17.0152   20.0348 N   0  0  0  0  0  0  0  0  0  0  0  0
   11.4717  -15.7330   20.6416 C   0  0  1  0  0  0  0  0  0  0  0  0
   11.1908  -14.7146   19.5562 C   0  0  0  0  0  0  0  0  0  0  0  0
   12.3885  -14.4324   18.7270 C   0  0  0  0  0  0  0  0  0  0  0  0
   12.9145  -15.3123   17.9935 O   0  0  0  0  0  0  0  0  0  0  0  0
   10.4110  -15.8055   21.6589 C   0  0  0  0  0  0  0  0  0  0  0  0
    9.9871  -14.7339   22.1945 O   0  0  0  0  0  0  0  0  0  0  0  0
   12.9782  -13.1810   18.7279 O   0  0  0  0  0  0  0  0  0  0  0  0
    9.8192  -17.0183   22.0877 N   0  0  0  0  0  0  0  0  0  0  0  0
    8.7724  -17.1135   23.0852 C   0  0  1  0  0  0  0  0  0  0  0  0
    8.5486  -18.5561   23.4177 C   0  0  0  0  0  0  0  0  0  0  0  0
    7.5207  -18.8268   24.4598 C   0  0  0  0  0  0  0  0  0  0  0  0
    7.2855  -20.2996   24.5979 C   0  0  0  0  0  0  0  0  0  0  0  0
    6.2003  -20.5534   25.6233 C   0  0  0  0  0  0  0  0  0  0  0  0
    5.9268  -21.9723   25.7015 N   0  0  0  0  0  0  0  0  0  0  0  0
    9.2046  -16.4268   24.3448 C   0  0  0  0  0  0  0  0  0  0  0  0
   10.3384  -16.6187   24.8130 O   0  0  0  0  0  0  0  0  0  0  0  0
    6.2040  -11.9799   25.3559 C   0  0  0  0  0  0  0  0  0  0  0  0
    7.3846  -12.9359   25.1346 C   0  0  0  0  0  0  0  0  0  0  0  0
    7.6632  -13.7258   26.3892 C   0  0  2  0  0  0  0  0  0  0  0  0
    8.0286  -12.8244   27.5499 C   0  0  0  0  0  0  0  0  0  0  0  0
    8.6594  -14.8193   26.2315 C   0  0  2  0  0  0  0  0  0  0  0  0
    8.3260  -15.5457   25.0239 N   0  0  0  0  0  0  0  0  0  0  0  0
    8.8496  -15.6901   27.3889 C   0  0  0  0  0  0  0  0  0  0  0  0
    8.1630  -16.8834   27.6043 O   0  0  0  0  0  0  0  0  0  0  0  0
    9.6831  -15.3764   28.2769 O   0  0  0  0  0  0  0  0  0  0  0  0
  2  1  1  6
  2  3  1  0
  3  4  1  0
  4  8  1  0
  5  4  2  0
  6  7  2  0
  6  2  1  0
  9  6  1  0
 10  9  1  0
 10 11  1  1
 11 12  1  0
 13 12  1  0
 13 14  1  0
 14 15  1  0
 16 10  1  0
 17 16  2  0
 19 18  1  0
 19 20  1  0
 20 22  1  0
 20 21  1  1
 22 24  1  0
 22 23  1  6
 23 16  1  0
 24 25  1  0
 26 24  2  0
M  END
$$$$
