KCW.pdb
     RDKit          3D

 30 31  0  0  1  0  0  0  0  0999 V2000
    8.5457  -16.3425   18.6110 N   0  0  0  0  0  0  0  0  0  0  0  0
    9.0403  -15.6290   19.7838 C   0  0  1  0  0  0  0  0  0  0  0  0
    7.9319  -14.7659   20.3759 C   0  0  0  0  0  0  0  0  0  0  0  0
    6.6014  -15.4498   20.3237 C   0  0  0  0  0  0  0  0  0  0  0  0
    6.3776  -16.4557   21.4233 C   0  0  0  0  0  0  0  0  0  0  0  0
    4.9295  -16.9124   21.3201 C   0  0  0  0  0  0  0  0  0  0  0  0
    4.6562  -18.0035   22.2205 N   0  0  0  0  0  0  0  0  0  0  0  0
    9.3696  -16.6207   20.8268 C   0  0  0  0  0  0  0  0  0  0  0  0
    9.0859  -17.8252   20.6902 O   0  0  0  0  0  0  0  0  0  0  0  0
   10.0208  -16.1887   22.0009 N   0  0  0  0  0  0  0  0  0  0  0  0
   10.5322  -17.1590   22.9113 C   0  0  1  0  0  0  0  0  0  0  0  0
   11.9971  -17.4962   22.6041 C   0  0  0  0  0  0  0  0  0  0  0  0
   12.9278  -15.9464   22.7644 S   0  0  0  0  0  0  0  0  0  0  0  0
   10.4848  -16.6322   24.2883 C   0  0  0  0  0  0  0  0  0  0  0  0
   11.0514  -15.5047   24.5549 O   0  0  0  0  0  0  0  0  0  0  0  0
    9.8531  -17.2643   25.3923 N   0  0  0  0  0  0  0  0  0  0  0  0
    9.9765  -16.7415   26.7437 C   0  0  1  0  0  0  0  0  0  0  0  0
    8.5831  -16.6778   27.3474 C   0  0  0  0  0  0  0  0  0  0  0  0
    7.6309  -15.9238   26.5284 C   0  0  0  0  0  0  0  0  0  0  0  0
    6.6625  -16.4448   25.7149 C   0  0  0  0  0  0  0  0  0  0  0  0
    6.0328  -15.4002   25.1601 N   0  0  0  0  0  0  0  0  0  0  0  0
    6.5526  -14.2361   25.5799 C   0  0  0  0  0  0  0  0  0  0  0  0
    6.2598  -12.9045   25.3048 C   0  0  0  0  0  0  0  0  0  0  0  0
    6.9988  -11.8947   25.9131 C   0  0  0  0  0  0  0  0  0  0  0  0
    8.0105  -12.1908   26.7785 C   0  0  0  0  0  0  0  0  0  0  0  0
    8.2857  -13.5185   27.0383 C   0  0  0  0  0  0  0  0  0  0  0  0
    7.5632  -14.5529   26.4447 C   0  0  0  0  0  0  0  0  0  0  0  0
   10.8757  -17.5556   27.5831 C   0  0  0  0  0  0  0  0  0  0  0  0
   11.2022  -17.1038   28.8560 O   0  0  0  0  0  0  0  0  0  0  0  0
   11.3436  -18.6387   27.1616 O   0  0  0  0  0  0  0  0  0  0  0  0
  2  1  1  6
  3  4  1  0
  3  2  1  0
  5  6  1  0
  5  4  1  0
  7  6  1  0
  8  2  1  0
  8 10  1  0
  9  8  2  0
 11 10  1  0
 11 12  1  6
 13 12  1  0
 14 11  1  0
 15 14  2  0
 16 14  1  0
 17 28  1  0
 17 16  1  0
 17 18  1  1
 19 18  1  0
 20 19  2  0
 21 20  1  0
 22 21  1  0
 22 27  2  0
 23 24  2  0
 23 22  1  0
 24 25  1  0
 25 26  2  0
 27 26  1  0
 27 19  1  0
 28 29  1  0
 30 28  2  0
M  END
$$$$
