KCW.pdb
     RDKit          3D

 30 31  0  0  1  0  0  0  0  0999 V2000
    8.1677  -19.1433   20.3946 N   0  0  0  0  0  0  0  0  0  0  0  0
    9.4690  -18.6400   19.9676 C   0  0  1  0  0  0  0  0  0  0  0  0
    9.5915  -18.7296   18.4507 C   0  0  0  0  0  0  0  0  0  0  0  0
    9.5919  -20.1478   17.9717 C   0  0  0  0  0  0  0  0  0  0  0  0
   10.9349  -20.6429   17.5005 C   0  0  0  0  0  0  0  0  0  0  0  0
   10.7267  -22.0526   16.9665 C   0  0  0  0  0  0  0  0  0  0  0  0
   10.3288  -22.0377   15.5818 N   0  0  0  0  0  0  0  0  0  0  0  0
    9.5378  -17.1999   20.2857 C   0  0  0  0  0  0  0  0  0  0  0  0
   10.4615  -16.4837   19.8568 O   0  0  0  0  0  0  0  0  0  0  0  0
    8.5321  -16.6282   21.0925 N   0  0  0  0  0  0  0  0  0  0  0  0
    8.6474  -15.2634   21.4873 C   0  0  1  0  0  0  0  0  0  0  0  0
    7.2838  -14.5602   21.4725 C   0  0  0  0  0  0  0  0  0  0  0  0
    6.0904  -15.7339   22.1740 S   0  0  0  0  0  0  0  0  0  0  0  0
    9.1671  -15.1796   22.8652 C   0  0  0  0  0  0  0  0  0  0  0  0
    9.5145  -14.0328   23.3423 O   0  0  0  0  0  0  0  0  0  0  0  0
    9.3283  -16.2753   23.7544 N   0  0  0  0  0  0  0  0  0  0  0  0
   10.1279  -16.1649   24.9641 C   0  0  1  0  0  0  0  0  0  0  0  0
    9.2064  -16.3831   26.1529 C   0  0  0  0  0  0  0  0  0  0  0  0
    7.9888  -15.5703   26.0989 C   0  0  0  0  0  0  0  0  0  0  0  0
    6.7233  -16.0132   25.8278 C   0  0  0  0  0  0  0  0  0  0  0  0
    5.9272  -14.9367   25.8796 N   0  0  0  0  0  0  0  0  0  0  0  0
    6.6233  -13.8266   26.1707 C   0  0  0  0  0  0  0  0  0  0  0  0
    6.2686  -12.4915   26.3332 C   0  0  0  0  0  0  0  0  0  0  0  0
    7.2455  -11.5496   26.6402 C   0  0  0  0  0  0  0  0  0  0  0  0
    8.5513  -11.9159   26.7848 C   0  0  0  0  0  0  0  0  0  0  0  0
    8.8831  -13.2457   26.6193 C   0  0  0  0  0  0  0  0  0  0  0  0
    7.9272  -14.2131   26.3116 C   0  0  0  0  0  0  0  0  0  0  0  0
   11.2503  -17.1217   24.9871 C   0  0  0  0  0  0  0  0  0  0  0  0
   12.1436  -17.0873   26.0509 O   0  0  0  0  0  0  0  0  0  0  0  0
   11.4039  -17.9553   24.0644 O   0  0  0  0  0  0  0  0  0  0  0  0
  2  1  1  6
  3  4  1  0
  3  2  1  0
  5  6  1  0
  5  4  1  0
  7  6  1  0
  8  2  1  0
  8 10  1  0
  9  8  2  0
 11 10  1  0
 11 12  1  1
 13 12  1  0
 14 11  1  0
 15 14  2  0
 16 14  1  0
 17 28  1  0
 17 16  1  0
 17 18  1  1
 19 18  1  0
 20 19  2  0
 21 20  1  0
 22 21  1  0
 22 27  2  0
 23 24  2  0
 23 22  1  0
 24 25  1  0
 25 26  2  0
 27 26  1  0
 27 19  1  0
 28 29  1  0
 30 28  2  0
M  END
$$$$
