KCW.pdb
     RDKit          3D

 30 31  0  0  1  0  0  0  0  0999 V2000
    7.4327  -17.0049   18.0402 N   0  0  0  0  0  0  0  0  0  0  0  0
    8.3731  -16.2941   18.9001 C   0  0  1  0  0  0  0  0  0  0  0  0
    7.8935  -14.8653   19.1297 C   0  0  0  0  0  0  0  0  0  0  0  0
    7.3814  -14.2375   17.8711 C   0  0  0  0  0  0  0  0  0  0  0  0
    7.6662  -12.7623   17.7535 C   0  0  0  0  0  0  0  0  0  0  0  0
    8.4852  -12.5673   16.4858 C   0  0  0  0  0  0  0  0  0  0  0  0
    7.7464  -12.9665   15.3151 N   0  0  0  0  0  0  0  0  0  0  0  0
    8.3616  -16.9340   20.2306 C   0  0  0  0  0  0  0  0  0  0  0  0
    7.3005  -17.3153   20.7585 O   0  0  0  0  0  0  0  0  0  0  0  0
    9.5822  -17.1158   20.9134 N   0  0  0  0  0  0  0  0  0  0  0  0
    9.5916  -17.8334   22.1450 C   0  0  1  0  0  0  0  0  0  0  0  0
   10.4096  -19.1265   22.0322 C   0  0  0  0  0  0  0  0  0  0  0  0
    9.5026  -20.3935   22.9627 S   0  0  0  0  0  0  0  0  0  0  0  0
   10.2144  -17.0134   23.2012 C   0  0  0  0  0  0  0  0  0  0  0  0
   11.3809  -16.5013   23.0002 O   0  0  0  0  0  0  0  0  0  0  0  0
    9.6370  -16.7181   24.4649 N   0  0  0  0  0  0  0  0  0  0  0  0
   10.4262  -16.1643   25.5535 C   0  0  1  0  0  0  0  0  0  0  0  0
    9.9038  -14.7667   25.8432 C   0  0  0  0  0  0  0  0  0  0  0  0
    8.4497  -14.7155   26.0132 C   0  0  0  0  0  0  0  0  0  0  0  0
    7.5918  -15.7808   26.0286 C   0  0  0  0  0  0  0  0  0  0  0  0
    6.3637  -15.2744   26.2042 N   0  0  0  0  0  0  0  0  0  0  0  0
    6.3955  -13.9361   26.3016 C   0  0  0  0  0  0  0  0  0  0  0  0
    5.4137  -12.9678   26.4836 C   0  0  0  0  0  0  0  0  0  0  0  0
    5.7710  -11.6245   26.5445 C   0  0  0  0  0  0  0  0  0  0  0  0
    7.0744  -11.2400   26.4277 C   0  0  0  0  0  0  0  0  0  0  0  0
    8.0339  -12.2162   26.2474 C   0  0  0  0  0  0  0  0  0  0  0  0
    7.7075  -13.5703   26.1824 C   0  0  0  0  0  0  0  0  0  0  0  0
   10.3813  -17.0034   26.7659 C   0  0  0  0  0  0  0  0  0  0  0  0
    9.5622  -18.1259   26.7789 O   0  0  0  0  0  0  0  0  0  0  0  0
   11.0673  -16.7144   27.7738 O   0  0  0  0  0  0  0  0  0  0  0  0
  2  1  1  6
  3  4  1  0
  3  2  1  0
  5  6  1  0
  5  4  1  0
  7  6  1  0
  8  2  1  0
  8 10  1  0
  9  8  2  0
 11 10  1  0
 11 12  1  6
 13 12  1  0
 14 11  1  0
 15 14  2  0
 16 14  1  0
 17 28  1  0
 17 16  1  0
 17 18  1  1
 19 18  1  0
 20 19  2  0
 21 20  1  0
 22 21  1  0
 22 27  2  0
 23 24  2  0
 23 22  1  0
 24 25  1  0
 25 26  2  0
 27 26  1  0
 27 19  1  0
 28 29  1  0
 30 28  2  0
M  END
$$$$
