KCW.pdb
     RDKit          3D

 30 31  0  0  1  0  0  0  0  0999 V2000
    6.8891  -16.6478   19.8712 N   0  0  0  0  0  0  0  0  0  0  0  0
    7.8973  -15.8710   20.5847 C   0  0  1  0  0  0  0  0  0  0  0  0
    7.3233  -14.5185   20.9913 C   0  0  0  0  0  0  0  0  0  0  0  0
    7.1035  -13.6256   19.8102 C   0  0  0  0  0  0  0  0  0  0  0  0
    8.2774  -13.5418   18.8690 C   0  0  0  0  0  0  0  0  0  0  0  0
    7.8817  -12.5914   17.7482 C   0  0  0  0  0  0  0  0  0  0  0  0
    8.9525  -12.4217   16.7993 N   0  0  0  0  0  0  0  0  0  0  0  0
    8.2094  -16.5649   21.8500 C   0  0  0  0  0  0  0  0  0  0  0  0
    7.3256  -17.1456   22.5071 O   0  0  0  0  0  0  0  0  0  0  0  0
    9.5394  -16.5678   22.3192 N   0  0  0  0  0  0  0  0  0  0  0  0
    9.8922  -17.4168   23.4085 C   0  0  1  0  0  0  0  0  0  0  0  0
   11.1565  -18.2287   23.0975 C   0  0  0  0  0  0  0  0  0  0  0  0
   12.2824  -17.1123   22.2146 S   0  0  0  0  0  0  0  0  0  0  0  0
   10.1777  -16.6062   24.6073 C   0  0  0  0  0  0  0  0  0  0  0  0
   10.8014  -15.4846   24.4796 O   0  0  0  0  0  0  0  0  0  0  0  0
    9.8203  -16.9480   25.9388 N   0  0  0  0  0  0  0  0  0  0  0  0
   10.3517  -16.2223   27.0815 C   0  0  1  0  0  0  0  0  0  0  0  0
    9.1801  -15.8124   27.9586 C   0  0  0  0  0  0  0  0  0  0  0  0
    8.0658  -15.2342   27.2036 C   0  0  0  0  0  0  0  0  0  0  0  0
    7.0689  -15.9203   26.5660 C   0  0  0  0  0  0  0  0  0  0  0  0
    6.2736  -14.9984   26.0067 N   0  0  0  0  0  0  0  0  0  0  0  0
    6.7145  -13.7554   26.2561 C   0  0  0  0  0  0  0  0  0  0  0  0
    6.2546  -12.4902   25.9061 C   0  0  0  0  0  0  0  0  0  0  0  0
    6.9500  -11.3613   26.3277 C   0  0  0  0  0  0  0  0  0  0  0  0
    8.0808  -11.4756   27.0816 C   0  0  0  0  0  0  0  0  0  0  0  0
    8.5211  -12.7400   27.4182 C   0  0  0  0  0  0  0  0  0  0  0  0
    7.8463  -13.8904   27.0113 C   0  0  0  0  0  0  0  0  0  0  0  0
   11.3294  -17.0168   27.8488 C   0  0  0  0  0  0  0  0  0  0  0  0
   12.0541  -16.3992   28.8609 O   0  0  0  0  0  0  0  0  0  0  0  0
   11.5107  -18.2308   27.5972 O   0  0  0  0  0  0  0  0  0  0  0  0
  2  1  1  1
  3  4  1  0
  3  2  1  0
  5  6  1  0
  5  4  1  0
  7  6  1  0
  8  2  1  0
  8 10  1  0
  9  8  2  0
 11 10  1  0
 11 12  1  6
 13 12  1  0
 14 11  1  0
 15 14  2  0
 16 14  1  0
 17 28  1  0
 17 16  1  0
 17 18  1  1
 19 18  1  0
 20 19  2  0
 21 20  1  0
 22 21  1  0
 22 27  2  0
 23 24  2  0
 23 22  1  0
 24 25  1  0
 25 26  2  0
 27 26  1  0
 27 19  1  0
 28 29  1  0
 30 28  2  0
M  END
$$$$
