KCW.pdb
     RDKit          3D

 30 31  0  0  1  0  0  0  0  0999 V2000
    9.1699  -15.3009   18.2616 N   0  0  0  0  0  0  0  0  0  0  0  0
    8.7358  -14.1917   19.1044 C   0  0  1  0  0  0  0  0  0  0  0  0
    7.5362  -13.4944   18.4728 C   0  0  0  0  0  0  0  0  0  0  0  0
    7.2782  -13.9761   17.0792 C   0  0  0  0  0  0  0  0  0  0  0  0
    8.0654  -13.2526   16.0173 C   0  0  0  0  0  0  0  0  0  0  0  0
    7.6199  -13.8130   14.6743 C   0  0  0  0  0  0  0  0  0  0  0  0
    8.2716  -13.1390   13.5803 N   0  0  0  0  0  0  0  0  0  0  0  0
    8.2448  -14.7434   20.3828 C   0  0  0  0  0  0  0  0  0  0  0  0
    7.7614  -14.0087   21.2640 O   0  0  0  0  0  0  0  0  0  0  0  0
    8.3266  -16.1338   20.6048 N   0  0  0  0  0  0  0  0  0  0  0  0
    7.9627  -16.6586   21.8791 C   0  0  1  0  0  0  0  0  0  0  0  0
    7.7802  -18.1811   21.8251 C   0  0  0  0  0  0  0  0  0  0  0  0
    9.4456  -18.9017   21.8572 S   0  0  0  0  0  0  0  0  0  0  0  0
    9.0277  -16.3810   22.8613 C   0  0  0  0  0  0  0  0  0  0  0  0
   10.2364  -16.1986   22.4502 O   0  0  0  0  0  0  0  0  0  0  0  0
    8.8497  -16.2890   24.2675 N   0  0  0  0  0  0  0  0  0  0  0  0
    9.9824  -16.2165   25.1766 C   0  0  1  0  0  0  0  0  0  0  0  0
    9.6403  -15.2154   26.2678 C   0  0  0  0  0  0  0  0  0  0  0  0
    8.2253  -14.8365   26.2834 C   0  0  0  0  0  0  0  0  0  0  0  0
    7.1531  -15.6859   26.2948 C   0  0  0  0  0  0  0  0  0  0  0  0
    6.0588  -14.9128   26.3033 N   0  0  0  0  0  0  0  0  0  0  0  0
    6.3800  -13.6096   26.2976 C   0  0  0  0  0  0  0  0  0  0  0  0
    5.6274  -12.4399   26.3012 C   0  0  0  0  0  0  0  0  0  0  0  0
    6.2691  -11.2055   26.2922 C   0  0  0  0  0  0  0  0  0  0  0  0
    7.6304  -11.1233   26.2795 C   0  0  0  0  0  0  0  0  0  0  0  0
    8.3595  -12.2956   26.2759 C   0  0  0  0  0  0  0  0  0  0  0  0
    7.7459  -13.5477   26.2849 C   0  0  0  0  0  0  0  0  0  0  0  0
   10.3247  -17.5289   25.7565 C   0  0  0  0  0  0  0  0  0  0  0  0
   11.5203  -17.6679   26.4508 O   0  0  0  0  0  0  0  0  0  0  0  0
    9.5550  -18.5091   25.6283 O   0  0  0  0  0  0  0  0  0  0  0  0
  2  1  1  6
  3  4  1  0
  3  2  1  0
  5  6  1  0
  5  4  1  0
  7  6  1  0
  8  2  1  0
  8 10  1  0
  9  8  2  0
 11 10  1  0
 11 12  1  6
 13 12  1  0
 14 11  1  0
 15 14  2  0
 16 14  1  0
 17 28  1  0
 17 16  1  0
 17 18  1  1
 19 18  1  0
 20 19  2  0
 21 20  1  0
 22 21  1  0
 22 27  2  0
 23 24  2  0
 23 22  1  0
 24 25  1  0
 25 26  2  0
 27 26  1  0
 27 19  1  0
 28 29  1  0
 30 28  2  0
M  END
$$$$
