DTD.pdb
     RDKit          3D

 24 23  0  0  1  0  0  0  0  0999 V2000
   21.6026  -13.3842  -17.6179 N   0  0  0  0  0  0  0  0  0  0  0  0
   20.7547  -12.2493  -17.3096 C   0  0  1  0  0  0  0  0  0  0  0  0
   19.6295  -12.6894  -16.3987 C   0  0  0  0  0  0  0  0  0  0  0  0
   18.8692  -13.7799  -17.0298 C   0  0  0  0  0  0  0  0  0  0  0  0
   18.6615  -13.7745  -18.2570 O   0  0  0  0  0  0  0  0  0  0  0  0
   21.5349  -11.1340  -16.7152 C   0  0  0  0  0  0  0  0  0  0  0  0
   21.5932  -10.9929  -15.4671 O   0  0  0  0  0  0  0  0  0  0  0  0
   18.3860  -14.8102  -16.2582 O   0  0  0  0  0  0  0  0  0  0  0  0
   25.0982   -9.9527  -17.9450 C   0  0  0  0  0  0  0  0  0  0  0  0
   24.1825   -8.7271  -17.8338 C   0  0  1  0  0  0  0  0  0  0  0  0
   23.7286   -8.3641  -19.1065 O   0  0  0  0  0  0  0  0  0  0  0  0
   23.0266   -9.1285  -16.9383 C   0  0  2  0  0  0  0  0  0  0  0  0
   22.2414  -10.1878  -17.5037 N   0  0  0  0  0  0  0  0  0  0  0  0
   22.2243   -7.9021  -16.6917 C   0  0  0  0  0  0  0  0  0  0  0  0
   21.2611   -7.5408  -17.4112 O   0  0  0  0  0  0  0  0  0  0  0  0
   22.4989   -7.0209  -15.5873 N   0  0  0  0  0  0  0  0  0  0  0  0
   21.7279   -5.8196  -15.3442 C   0  0  1  0  0  0  0  0  0  0  0  0
   21.0019   -5.8512  -14.0209 C   0  0  0  0  0  0  0  0  0  0  0  0
   20.2380   -4.6317  -13.7468 C   0  0  0  0  0  0  0  0  0  0  0  0
   20.7408   -3.4957  -13.7204 O   0  0  0  0  0  0  0  0  0  0  0  0
   22.6754   -4.6831  -15.2850 C   0  0  0  0  0  0  0  0  0  0  0  0
   23.8511   -4.8760  -14.8941 O   0  0  0  0  0  0  0  0  0  0  0  0
   18.8846   -4.7423  -13.5034 O   0  0  0  0  0  0  0  0  0  0  0  0
   22.3053   -3.3872  -15.6527 O   0  0  0  0  0  0  0  0  0  0  0  0
  2  1  1  1
  2  3  1  0
  3  4  1  0
  4  8  1  0
  5  4  2  0
  6  2  1  0
  7  6  2  0
 10  9  1  6
 10 12  1  0
 11 10  1  0
 12 14  1  0
 12 13  1  6
 13  6  1  0
 14 16  1  0
 15 14  2  0
 16 17  1  0
 17 18  1  1
 17 21  1  0
 18 19  1  0
 19 20  2  0
 19 23  1  0
 21 22  2  0
 21 24  1  0
M  END
$$$$
