DTD.pdb
     RDKit          3D

 24 23  0  0  1  0  0  0  0  0999 V2000
   18.7463  -13.1080  -16.2430 N   0  0  0  0  0  0  0  0  0  0  0  0
   19.0755  -11.7902  -16.7500 C   0  0  1  0  0  0  0  0  0  0  0  0
   17.8268  -11.1281  -17.2903 C   0  0  0  0  0  0  0  0  0  0  0  0
   17.1318  -12.0417  -18.2112 C   0  0  0  0  0  0  0  0  0  0  0  0
   17.7132  -12.4812  -19.2201 O   0  0  0  0  0  0  0  0  0  0  0  0
   19.7303  -10.9561  -15.7101 C   0  0  0  0  0  0  0  0  0  0  0  0
   19.3375  -11.0032  -14.5165 O   0  0  0  0  0  0  0  0  0  0  0  0
   15.8326  -12.4111  -17.9545 O   0  0  0  0  0  0  0  0  0  0  0  0
   23.0313  -10.9345  -14.3203 C   0  0  0  0  0  0  0  0  0  0  0  0
   22.8992   -9.5021  -14.8530 C   0  0  1  0  0  0  0  0  0  0  0  0
   23.5623   -9.3954  -16.0804 O   0  0  0  0  0  0  0  0  0  0  0  0
   21.4153   -9.2330  -15.0114 C   0  0  2  0  0  0  0  0  0  0  0  0
   20.8101  -10.0802  -15.9984 N   0  0  0  0  0  0  0  0  0  0  0  0
   21.2700   -7.7911  -15.3407 C   0  0  0  0  0  0  0  0  0  0  0  0
   21.1470   -7.3503  -16.5097 O   0  0  0  0  0  0  0  0  0  0  0  0
   21.2597   -6.7739  -14.3224 N   0  0  0  0  0  0  0  0  0  0  0  0
   21.2126   -5.3616  -14.6383 C   0  0  1  0  0  0  0  0  0  0  0  0
   19.8480   -4.7584  -14.4080 C   0  0  0  0  0  0  0  0  0  0  0  0
   19.7681   -3.3424  -14.7746 C   0  0  0  0  0  0  0  0  0  0  0  0
   20.6100   -2.7664  -15.4840 O   0  0  0  0  0  0  0  0  0  0  0  0
   22.1474   -4.6663  -13.7241 C   0  0  0  0  0  0  0  0  0  0  0  0
   22.4260   -3.4600  -13.9224 O   0  0  0  0  0  0  0  0  0  0  0  0
   18.7018   -2.6004  -14.3102 O   0  0  0  0  0  0  0  0  0  0  0  0
   22.7386   -5.3109  -12.6349 O   0  0  0  0  0  0  0  0  0  0  0  0
  2  1  1  1
  2  3  1  0
  3  4  1  0
  4  8  1  0
  5  4  2  0
  6  2  1  0
  7  6  2  0
 10  9  1  6
 10 12  1  0
 11 10  1  0
 12 14  1  0
 12 13  1  6
 13  6  1  0
 14 16  1  0
 15 14  2  0
 16 17  1  0
 17 18  1  1
 17 21  1  0
 18 19  1  0
 19 20  2  0
 19 23  1  0
 21 22  2  0
 21 24  1  0
M  END
$$$$
