DTD.pdb
     RDKit          3D

 24 23  0  0  1  0  0  0  0  0999 V2000
   16.5159  -12.7003  -15.5659 N   0  0  0  0  0  0  0  0  0  0  0  0
   16.5420  -11.2537  -15.6590 C   0  0  1  0  0  0  0  0  0  0  0  0
   15.4817  -10.6678  -14.7523 C   0  0  0  0  0  0  0  0  0  0  0  0
   14.1428  -10.9944  -15.2684 C   0  0  0  0  0  0  0  0  0  0  0  0
   13.9380  -11.0543  -16.4946 O   0  0  0  0  0  0  0  0  0  0  0  0
   17.8894  -10.7135  -15.3448 C   0  0  0  0  0  0  0  0  0  0  0  0
   18.4943  -11.0784  -14.3046 O   0  0  0  0  0  0  0  0  0  0  0  0
   13.1128  -11.2346  -14.3898 O   0  0  0  0  0  0  0  0  0  0  0  0
   20.3826   -8.9219  -18.2891 C   0  0  0  0  0  0  0  0  0  0  0  0
   20.8489   -9.6738  -17.0360 C   0  0  1  0  0  0  0  0  0  0  0  0
   22.1545   -9.2861  -16.7154 O   0  0  0  0  0  0  0  0  0  0  0  0
   19.8843   -9.3063  -15.9252 C   0  0  2  0  0  0  0  0  0  0  0  0
   18.5536   -9.7775  -16.1809 N   0  0  0  0  0  0  0  0  0  0  0  0
   19.9400   -7.8288  -15.7752 C   0  0  0  0  0  0  0  0  0  0  0  0
   19.1841   -7.0353  -16.3875 O   0  0  0  0  0  0  0  0  0  0  0  0
   20.8843   -7.1866  -14.8990 N   0  0  0  0  0  0  0  0  0  0  0  0
   20.9726   -5.7465  -14.7767 C   0  0  1  0  0  0  0  0  0  0  0  0
   21.7984   -5.3123  -13.5898 C   0  0  0  0  0  0  0  0  0  0  0  0
   21.8570   -3.8582  -13.4222 C   0  0  0  0  0  0  0  0  0  0  0  0
   22.9180   -3.2178  -13.3322 O   0  0  0  0  0  0  0  0  0  0  0  0
   21.6591   -5.2353  -15.9852 C   0  0  0  0  0  0  0  0  0  0  0  0
   22.5322   -5.9388  -16.5465 O   0  0  0  0  0  0  0  0  0  0  0  0
   20.6726   -3.1536  -13.3601 O   0  0  0  0  0  0  0  0  0  0  0  0
   21.3678   -3.9830  -16.5314 O   0  0  0  0  0  0  0  0  0  0  0  0
  2  1  1  1
  2  3  1  0
  3  4  1  0
  4  8  1  0
  5  4  2  0
  6  2  1  0
  7  6  2  0
 10  9  1  6
 10 12  1  0
 11 10  1  0
 12 14  1  0
 12 13  1  6
 13  6  1  0
 14 16  1  0
 15 14  2  0
 16 17  1  0
 17 18  1  1
 17 21  1  0
 18 19  1  0
 19 20  2  0
 19 23  1  0
 21 22  2  0
 21 24  1  0
M  END
$$$$
