DTD.pdb
     RDKit          3D

 24 23  0  0  1  0  0  0  0  0999 V2000
   16.6555  -12.1120  -15.9638 N   0  0  0  0  0  0  0  0  0  0  0  0
   17.9820  -11.7596  -15.4966 C   0  0  1  0  0  0  0  0  0  0  0  0
   19.0200  -12.5034  -16.3083 C   0  0  0  0  0  0  0  0  0  0  0  0
   18.8944  -13.9515  -16.0789 C   0  0  0  0  0  0  0  0  0  0  0  0
   18.4229  -14.3811  -15.0102 O   0  0  0  0  0  0  0  0  0  0  0  0
   18.2016  -10.2914  -15.5419 C   0  0  0  0  0  0  0  0  0  0  0  0
   18.2319   -9.6865  -16.6438 O   0  0  0  0  0  0  0  0  0  0  0  0
   19.3006  -14.8342  -17.0517 O   0  0  0  0  0  0  0  0  0  0  0  0
   16.2990   -7.5359  -13.6907 C   0  0  0  0  0  0  0  0  0  0  0  0
   17.7799   -7.3753  -13.3248 C   0  0  1  0  0  0  0  0  0  0  0  0
   18.0173   -7.9462  -12.0697 O   0  0  0  0  0  0  0  0  0  0  0  0
   18.5733   -8.0859  -14.4042 C   0  0  2  0  0  0  0  0  0  0  0  0
   18.3853   -9.5078  -14.3720 N   0  0  0  0  0  0  0  0  0  0  0  0
   19.9967   -7.7012  -14.2188 C   0  0  0  0  0  0  0  0  0  0  0  0
   20.8516   -8.4331  -13.6624 O   0  0  0  0  0  0  0  0  0  0  0  0
   20.5096   -6.4354  -14.6730 N   0  0  0  0  0  0  0  0  0  0  0  0
   21.8859   -6.0369  -14.4640 C   0  0  1  0  0  0  0  0  0  0  0  0
   22.3487   -4.9981  -15.4569 C   0  0  0  0  0  0  0  0  0  0  0  0
   22.3882   -5.4887  -16.8366 C   0  0  0  0  0  0  0  0  0  0  0  0
   22.6147   -6.6721  -17.1403 O   0  0  0  0  0  0  0  0  0  0  0  0
   21.9740   -5.4155  -13.1226 C   0  0  0  0  0  0  0  0  0  0  0  0
   20.9228   -5.1342  -12.4997 O   0  0  0  0  0  0  0  0  0  0  0  0
   22.1624   -4.5931  -17.8614 O   0  0  0  0  0  0  0  0  0  0  0  0
   23.1990   -5.1268  -12.5165 O   0  0  0  0  0  0  0  0  0  0  0  0
  2  1  1  6
  2  3  1  0
  3  4  1  0
  4  8  1  0
  5  4  2  0
  6  2  1  0
  7  6  2  0
 10  9  1  6
 10 12  1  0
 11 10  1  0
 12 14  1  0
 12 13  1  1
 13  6  1  0
 14 16  1  0
 15 14  2  0
 16 17  1  0
 17 18  1  6
 17 21  1  0
 18 19  1  0
 19 20  2  0
 19 23  1  0
 21 22  2  0
 21 24  1  0
M  END
$$$$
