DTD.pdb
     RDKit          3D

 24 23  0  0  1  0  0  0  0  0999 V2000
   16.1620  -14.0928  -14.9735 N   0  0  0  0  0  0  0  0  0  0  0  0
   16.0820  -12.6678  -15.2289 C   0  0  1  0  0  0  0  0  0  0  0  0
   15.1907  -12.0163  -14.1944 C   0  0  0  0  0  0  0  0  0  0  0  0
   13.8653  -12.6558  -14.1984 C   0  0  0  0  0  0  0  0  0  0  0  0
   13.1087  -12.5304  -15.1786 O   0  0  0  0  0  0  0  0  0  0  0  0
   17.4300  -12.0450  -15.2594 C   0  0  0  0  0  0  0  0  0  0  0  0
   18.3194  -12.4134  -14.4505 O   0  0  0  0  0  0  0  0  0  0  0  0
   13.4617  -13.3961  -13.1124 O   0  0  0  0  0  0  0  0  0  0  0  0
   19.6731  -11.6136  -18.3367 C   0  0  0  0  0  0  0  0  0  0  0  0
   19.5427  -10.2288  -17.6899 C   0  0  1  0  0  0  0  0  0  0  0  0
   18.6005   -9.4700  -18.3927 O   0  0  0  0  0  0  0  0  0  0  0  0
   19.0977  -10.4584  -16.2586 C   0  0  2  0  0  0  0  0  0  0  0  0
   17.7813  -11.0235  -16.1812 N   0  0  0  0  0  0  0  0  0  0  0  0
   19.1910   -9.1493  -15.5614 C   0  0  0  0  0  0  0  0  0  0  0  0
   18.1940   -8.4834  -15.1887 O   0  0  0  0  0  0  0  0  0  0  0  0
   20.4572   -8.5366  -15.2564 N   0  0  0  0  0  0  0  0  0  0  0  0
   20.5610   -7.3115  -14.4915 C   0  0  1  0  0  0  0  0  0  0  0  0
   21.9819   -6.9919  -14.0938 C   0  0  0  0  0  0  0  0  0  0  0  0
   22.1073   -5.7457  -13.3340 C   0  0  0  0  0  0  0  0  0  0  0  0
   21.4915   -5.5175  -12.2792 O   0  0  0  0  0  0  0  0  0  0  0  0
   20.0994   -6.2021  -15.3570 C   0  0  0  0  0  0  0  0  0  0  0  0
   20.2748   -6.2690  -16.5968 O   0  0  0  0  0  0  0  0  0  0  0  0
   22.9542   -4.7661  -13.8097 O   0  0  0  0  0  0  0  0  0  0  0  0
   19.4677   -5.0690  -14.8390 O   0  0  0  0  0  0  0  0  0  0  0  0
  2  1  1  1
  2  3  1  0
  3  4  1  0
  4  8  1  0
  5  4  2  0
  6  2  1  0
  7  6  2  0
 10  9  1  6
 10 12  1  0
 11 10  1  0
 12 14  1  0
 12 13  1  6
 13  6  1  0
 14 16  1  0
 15 14  2  0
 16 17  1  0
 17 18  1  6
 17 21  1  0
 18 19  1  0
 19 20  2  0
 19 23  1  0
 21 22  2  0
 21 24  1  0
M  END
$$$$
