DTD.pdb
     RDKit          3D

 24 23  0  0  1  0  0  0  0  0999 V2000
   27.7939  -20.2398  -15.1746 N   0  0  0  0  0  0  0  0  0  0  0  0
   26.9724  -21.2864  -15.7508 C   0  0  1  0  0  0  0  0  0  0  0  0
   27.8373  -22.4800  -16.0924 C   0  0  0  0  0  0  0  0  0  0  0  0
   28.8693  -22.0905  -17.0666 C   0  0  0  0  0  0  0  0  0  0  0  0
   29.8534  -22.8251  -17.2688 O   0  0  0  0  0  0  0  0  0  0  0  0
   25.8563  -21.6612  -14.8454 C   0  0  0  0  0  0  0  0  0  0  0  0
   25.2179  -22.7284  -15.0309 O   0  0  0  0  0  0  0  0  0  0  0  0
   28.7445  -20.9079  -17.7567 O   0  0  0  0  0  0  0  0  0  0  0  0
   23.5167  -21.1656  -10.5521 C   0  0  0  0  0  0  0  0  0  0  0  0
   24.7161  -20.7478  -11.4123 C   0  0  1  0  0  0  0  0  0  0  0  0
   25.8843  -21.3200  -10.8972 O   0  0  0  0  0  0  0  0  0  0  0  0
   24.4386  -21.2487  -12.8165 C   0  0  2  0  0  0  0  0  0  0  0  0
   25.4574  -20.8549  -13.7467 N   0  0  0  0  0  0  0  0  0  0  0  0
   23.0969  -20.7381  -13.2005 C   0  0  0  0  0  0  0  0  0  0  0  0
   22.8370  -19.5233  -13.3818 O   0  0  0  0  0  0  0  0  0  0  0  0
   21.9742  -21.6172  -13.3966 N   0  0  0  0  0  0  0  0  0  0  0  0
   20.6697  -21.1312  -13.7950 C   0  0  1  0  0  0  0  0  0  0  0  0
   19.8600  -22.1719  -14.5302 C   0  0  0  0  0  0  0  0  0  0  0  0
   18.5489  -21.6868  -14.9679 C   0  0  0  0  0  0  0  0  0  0  0  0
   17.4719  -22.1118  -14.5170 O   0  0  0  0  0  0  0  0  0  0  0  0
   19.9197  -20.7981  -12.5623 C   0  0  0  0  0  0  0  0  0  0  0  0
   20.0352  -21.5290  -11.5500 O   0  0  0  0  0  0  0  0  0  0  0  0
   18.4988  -20.7035  -15.9343 O   0  0  0  0  0  0  0  0  0  0  0  0
   19.0775  -19.6866  -12.4824 O   0  0  0  0  0  0  0  0  0  0  0  0
  2  1  1  1
  2  3  1  0
  3  4  1  0
  4  8  1  0
  5  4  2  0
  6  2  1  0
  7  6  2  0
 10  9  1  1
 10 12  1  0
 11 10  1  0
 12 14  1  0
 12 13  1  6
 13  6  1  0
 14 16  1  0
 15 14  2  0
 16 17  1  0
 17 18  1  1
 17 21  1  0
 18 19  1  0
 19 20  2  0
 19 23  1  0
 21 22  2  0
 21 24  1  0
M  END
$$$$
