DTD.pdb
     RDKit          3D

 24 23  0  0  1  0  0  0  0  0999 V2000
   16.7115  -14.1879  -15.6235 N   0  0  0  0  0  0  0  0  0  0  0  0
   16.5720  -12.7459  -15.5651 C   0  0  1  0  0  0  0  0  0  0  0  0
   15.8304  -12.3588  -14.3043 C   0  0  0  0  0  0  0  0  0  0  0  0
   14.4463  -12.8551  -14.3628 C   0  0  0  0  0  0  0  0  0  0  0  0
   13.9719  -13.2723  -15.4351 O   0  0  0  0  0  0  0  0  0  0  0  0
   17.8908  -12.0686  -15.6536 C   0  0  0  0  0  0  0  0  0  0  0  0
   18.8885  -12.5375  -15.0489 O   0  0  0  0  0  0  0  0  0  0  0  0
   13.6736  -12.8574  -13.2255 O   0  0  0  0  0  0  0  0  0  0  0  0
   19.7865  -10.9304  -18.7911 C   0  0  0  0  0  0  0  0  0  0  0  0
   19.6499   -9.6989  -17.8867 C   0  0  1  0  0  0  0  0  0  0  0  0
   18.6050   -8.8915  -18.3489 O   0  0  0  0  0  0  0  0  0  0  0  0
   19.3613  -10.2155  -16.4906 C   0  0  2  0  0  0  0  0  0  0  0  0
   18.0939  -10.8826  -16.4075 N   0  0  0  0  0  0  0  0  0  0  0  0
   19.4463   -9.0503  -15.5721 C   0  0  0  0  0  0  0  0  0  0  0  0
   18.4516   -8.5285  -15.0114 O   0  0  0  0  0  0  0  0  0  0  0  0
   20.7010   -8.4220  -15.2519 N   0  0  0  0  0  0  0  0  0  0  0  0
   20.7857   -7.2393  -14.4208 C   0  0  1  0  0  0  0  0  0  0  0  0
   22.1947   -6.9487  -13.9632 C   0  0  0  0  0  0  0  0  0  0  0  0
   22.3075   -5.7229  -13.1690 C   0  0  0  0  0  0  0  0  0  0  0  0
   21.9887   -5.6474  -11.9704 O   0  0  0  0  0  0  0  0  0  0  0  0
   20.3552   -6.0836  -15.2405 C   0  0  0  0  0  0  0  0  0  0  0  0
   20.5195   -6.1097  -16.4833 O   0  0  0  0  0  0  0  0  0  0  0  0
   22.7939   -4.5849  -13.7786 O   0  0  0  0  0  0  0  0  0  0  0  0
   19.7655   -4.9503  -14.6753 O   0  0  0  0  0  0  0  0  0  0  0  0
  2  1  1  1
  2  3  1  0
  3  4  1  0
  4  8  1  0
  5  4  2  0
  6  2  1  0
  7  6  2  0
 10  9  1  6
 10 12  1  0
 11 10  1  0
 12 14  1  0
 12 13  1  6
 13  6  1  0
 14 16  1  0
 15 14  2  0
 16 17  1  0
 17 18  1  6
 17 21  1  0
 18 19  1  0
 19 20  2  0
 19 23  1  0
 21 22  2  0
 21 24  1  0
M  END
$$$$
