ARA.pdb
     RDKit          3D

 22 21  0  0  1  0  0  0  0  0999 V2000
   19.9208  -18.5948  -14.9363 C   0  0  0  0  0  0  0  0  0  0  0  0
   21.0711  -19.0799  -15.7646 C   0  0  2  0  0  0  0  0  0  0  0  0
   20.9761  -20.4702  -16.0642 N   0  0  0  0  0  0  0  0  0  0  0  0
   22.3981  -18.6786  -15.2434 C   0  0  0  0  0  0  0  0  0  0  0  0
   22.5901  -17.4568  -14.9288 O   0  0  0  0  0  0  0  0  0  0  0  0
   25.2169  -20.5666   -8.1550 N   0  0  0  0  0  0  0  0  0  0  0  0
   25.0522  -20.8494   -9.5496 C   0  0  0  0  0  0  0  0  0  0  0  0
   23.8902  -20.8304  -10.0718 N   0  0  0  0  0  0  0  0  0  0  0  0
   26.2092  -21.1464  -10.3246 N   0  0  0  0  0  0  0  0  0  0  0  0
   26.0913  -21.3077  -11.7691 C   0  0  0  0  0  0  0  0  0  0  0  0
   25.3981  -20.1235  -12.3939 C   0  0  0  0  0  0  0  0  0  0  0  0
   25.5585  -20.1912  -13.8970 C   0  0  0  0  0  0  0  0  0  0  0  0
   24.7901  -19.0885  -14.5901 C   0  0  2  0  0  0  0  0  0  0  0  0
   23.4973  -19.5535  -15.0606 N   0  0  0  0  0  0  0  0  0  0  0  0
   25.5665  -18.5387  -15.7027 C   0  0  0  0  0  0  0  0  0  0  0  0
   25.5692  -19.1100  -16.8112 O   0  0  0  0  0  0  0  0  0  0  0  0
   23.0815  -20.5194   -9.5222 C   0  0  0  0  0  0  0  0  0  0  0  0
   27.6776  -15.4611  -16.1679 C   0  0  1  0  0  0  0  0  0  0  0  0
   26.9938  -16.7392  -16.6596 N   0  0  0  0  0  0  0  0  0  0  0  0
   26.3176  -17.3553  -15.5288 C   0  0  0  0  0  0  0  0  0  0  0  0
   27.9937  -17.7005  -17.1777 O   0  0  0  0  0  0  0  0  0  0  0  0
   28.4755  -18.5688  -16.4055 O   0  0  0  0  0  0  0  0  0  0  0  0
  2  1  1  1
  2  3  1  0
  4  2  1  0
  4  5  2  0
  7  6  1  0
  7  8  2  0
  9 10  1  0
  9  7  1  0
 11 12  1  0
 11 10  1  0
 13 14  1  0
 13 12  1  6
 14  4  1  0
 15 13  1  0
 16 15  2  0
 18 17  1  6
 18 19  1  0
 19 15  1  0
 20 18  1  0
 20 22  1  0
 21 20  2  0
M  END
$$$$
