ARA.pdb
     RDKit          3D

 22 21  0  0  1  0  0  0  0  0999 V2000
   19.7992  -17.8407  -16.8368 C   0  0  0  0  0  0  0  0  0  0  0  0
   20.8543  -18.1470  -15.8182 C   0  0  2  0  0  0  0  0  0  0  0  0
   20.3080  -18.3678  -14.5203 N   0  0  0  0  0  0  0  0  0  0  0  0
   21.9904  -17.1969  -15.8257 C   0  0  0  0  0  0  0  0  0  0  0  0
   21.7604  -15.9632  -15.5936 O   0  0  0  0  0  0  0  0  0  0  0  0
   26.1023  -20.5187  -12.0581 N   0  0  0  0  0  0  0  0  0  0  0  0
   26.9107  -20.7325  -13.2213 C   0  0  0  0  0  0  0  0  0  0  0  0
   27.0389  -21.9052  -13.7026 N   0  0  0  0  0  0  0  0  0  0  0  0
   27.5561  -19.6115  -13.8163 N   0  0  0  0  0  0  0  0  0  0  0  0
   26.9023  -18.3081  -13.8026 C   0  0  0  0  0  0  0  0  0  0  0  0
   25.9493  -18.1654  -14.9622 C   0  0  0  0  0  0  0  0  0  0  0  0
   25.3825  -16.7624  -14.9686 C   0  0  0  0  0  0  0  0  0  0  0  0
   24.4058  -16.5607  -16.1052 C   0  0  2  0  0  0  0  0  0  0  0  0
   23.3404  -17.5471  -16.0746 N   0  0  0  0  0  0  0  0  0  0  0  0
   25.0979  -16.6022  -17.3944 C   0  0  0  0  0  0  0  0  0  0  0  0
   25.4055  -17.6959  -17.9087 O   0  0  0  0  0  0  0  0  0  0  0  0
   27.6610  -22.0709  -14.5015 C   0  0  0  0  0  0  0  0  0  0  0  0
   26.0141  -14.0743  -19.9977 C   0  0  1  0  0  0  0  0  0  0  0  0
   26.1665  -15.4358  -19.3151 N   0  0  0  0  0  0  0  0  0  0  0  0
   25.4214  -15.4027  -18.0663 C   0  0  0  0  0  0  0  0  0  0  0  0
   27.5873  -15.7045  -18.9965 O   0  0  0  0  0  0  0  0  0  0  0  0
   28.0127  -15.4860  -17.8331 O   0  0  0  0  0  0  0  0  0  0  0  0
  2  1  1  6
  2  3  1  0
  4  2  1  0
  4  5  2  0
  7  6  1  0
  7  8  2  0
  9 10  1  0
  9  7  1  0
 11 12  1  0
 11 10  1  0
 13 14  1  0
 13 12  1  1
 14  4  1  0
 15 13  1  0
 16 15  2  0
 18 17  1  6
 18 19  1  0
 19 15  1  0
 20 18  1  0
 20 22  1  0
 21 20  2  0
M  END
$$$$
