ARA.pdb
     RDKit          3D

 22 21  0  0  1  0  0  0  0  0999 V2000
   18.1805  -18.4085  -15.2874 C   0  0  0  0  0  0  0  0  0  0  0  0
   19.2864  -19.3518  -15.6506 C   0  0  2  0  0  0  0  0  0  0  0  0
   19.0955  -20.6511  -15.0965 N   0  0  0  0  0  0  0  0  0  0  0  0
   20.6431  -18.8051  -15.4176 C   0  0  0  0  0  0  0  0  0  0  0  0
   20.7742  -17.7955  -14.6481 O   0  0  0  0  0  0  0  0  0  0  0  0
   27.5272  -21.6183  -11.9707 N   0  0  0  0  0  0  0  0  0  0  0  0
   28.1060  -20.4345  -12.5326 C   0  0  0  0  0  0  0  0  0  0  0  0
   29.2437  -20.0270  -12.1292 N   0  0  0  0  0  0  0  0  0  0  0  0
   27.3833  -19.7376  -13.5423 N   0  0  0  0  0  0  0  0  0  0  0  0
   26.1064  -20.2625  -14.0118 C   0  0  0  0  0  0  0  0  0  0  0  0
   25.5158  -19.3798  -15.0820 C   0  0  0  0  0  0  0  0  0  0  0  0
   24.1545  -19.9143  -15.4703 C   0  0  0  0  0  0  0  0  0  0  0  0
   23.1463  -18.8004  -15.6421 C   0  0  2  0  0  0  0  0  0  0  0  0
   21.8341  -19.3173  -15.9886 N   0  0  0  0  0  0  0  0  0  0  0  0
   23.5988  -17.8461  -16.6558 C   0  0  0  0  0  0  0  0  0  0  0  0
   23.4732  -18.1090  -17.8683 O   0  0  0  0  0  0  0  0  0  0  0  0
   29.6403  -19.1547  -12.4962 C   0  0  0  0  0  0  0  0  0  0  0  0
   24.2060  -14.2414  -16.7062 C   0  0  1  0  0  0  0  0  0  0  0  0
   24.5413  -15.6258  -17.2666 N   0  0  0  0  0  0  0  0  0  0  0  0
   24.1802  -16.6190  -16.2672 C   0  0  0  0  0  0  0  0  0  0  0  0
   25.9934  -15.7449  -17.5305 O   0  0  0  0  0  0  0  0  0  0  0  0
   26.7031  -16.4586  -16.7760 O   0  0  0  0  0  0  0  0  0  0  0  0
  2  1  1  1
  2  3  1  0
  4  2  1  0
  4  5  2  0
  7  6  1  0
  7  8  2  0
  9 10  1  0
  9  7  1  0
 11 12  1  0
 11 10  1  0
 13 14  1  0
 13 12  1  6
 14  4  1  0
 15 13  1  0
 16 15  2  0
 18 17  1  6
 18 19  1  0
 19 15  1  0
 20 18  1  0
 20 22  1  0
 21 20  2  0
M  END
$$$$
