ARA.pdb
     RDKit          3D

 22 21  0  0  1  0  0  0  0  0999 V2000
   17.1726  -16.2776  -15.8265 C   0  0  0  0  0  0  0  0  0  0  0  0
   18.5723  -16.3392  -16.3572 C   0  0  2  0  0  0  0  0  0  0  0  0
   19.1378  -17.6429  -16.2470 N   0  0  0  0  0  0  0  0  0  0  0  0
   19.4569  -15.2677  -15.8443 C   0  0  0  0  0  0  0  0  0  0  0  0
   19.4858  -15.0445  -14.5881 O   0  0  0  0  0  0  0  0  0  0  0  0
   27.7768  -13.5697  -16.9338 N   0  0  0  0  0  0  0  0  0  0  0  0
   27.3882  -12.3990  -16.2054 C   0  0  0  0  0  0  0  0  0  0  0  0
   28.2670  -11.5482  -15.8489 N   0  0  0  0  0  0  0  0  0  0  0  0
   26.0101  -12.2159  -15.8975 N   0  0  0  0  0  0  0  0  0  0  0  0
   25.0125  -13.1006  -16.4878 C   0  0  0  0  0  0  0  0  0  0  0  0
   23.6343  -12.7971  -15.9573 C   0  0  0  0  0  0  0  0  0  0  0  0
   22.6423  -13.7583  -16.5750 C   0  0  0  0  0  0  0  0  0  0  0  0
   21.2377  -13.5090  -16.0734 C   0  0  2  0  0  0  0  0  0  0  0  0
   20.2918  -14.4507  -16.6458 N   0  0  0  0  0  0  0  0  0  0  0  0
   20.8225  -12.1352  -16.3619 C   0  0  0  0  0  0  0  0  0  0  0  0
   20.6034  -11.7774  -17.5363 O   0  0  0  0  0  0  0  0  0  0  0  0
   27.9818  -10.6391  -15.4680 C   0  0  0  0  0  0  0  0  0  0  0  0
   19.4877   -9.2924  -14.4156 C   0  0  1  0  0  0  0  0  0  0  0  0
   20.3028   -9.8254  -15.5965 N   0  0  0  0  0  0  0  0  0  0  0  0
   20.6657  -11.2047  -15.3110 C   0  0  0  0  0  0  0  0  0  0  0  0
   21.5507   -9.0462  -15.7640 O   0  0  0  0  0  0  0  0  0  0  0  0
   22.6572   -9.5875  -15.5096 O   0  0  0  0  0  0  0  0  0  0  0  0
  2  1  1  1
  2  3  1  0
  4  2  1  0
  4  5  2  0
  7  6  1  0
  7  8  2  0
  9 10  1  0
  9  7  1  0
 11 12  1  0
 11 10  1  0
 13 14  1  0
 13 12  1  6
 14  4  1  0
 15 13  1  0
 16 15  2  0
 18 17  1  6
 18 19  1  0
 19 15  1  0
 20 18  1  0
 20 22  1  0
 21 20  2  0
M  END
$$$$
