ARA.pdb
     RDKit          3D

 22 21  0  0  1  0  0  0  0  0999 V2000
   26.3646  -22.1729  -11.0158 C   0  0  0  0  0  0  0  0  0  0  0  0
   26.0676  -20.7802  -10.5500 C   0  0  2  0  0  0  0  0  0  0  0  0
   25.3862  -20.7603   -9.2982 N   0  0  0  0  0  0  0  0  0  0  0  0
   25.4340  -19.9247  -11.5797 C   0  0  0  0  0  0  0  0  0  0  0  0
   24.1699  -19.7538  -11.5428 O   0  0  0  0  0  0  0  0  0  0  0  0
   25.5965  -16.5523  -18.4592 N   0  0  0  0  0  0  0  0  0  0  0  0
   25.5142  -15.1686  -18.0978 C   0  0  0  0  0  0  0  0  0  0  0  0
   24.9483  -14.3372  -18.8801 N   0  0  0  0  0  0  0  0  0  0  0  0
   26.0739  -14.7558  -16.8553 N   0  0  0  0  0  0  0  0  0  0  0  0
   26.7202  -15.7364  -15.9909 C   0  0  0  0  0  0  0  0  0  0  0  0
   25.7009  -16.5783  -15.2662 C   0  0  0  0  0  0  0  0  0  0  0  0
   26.4159  -17.5154  -14.3174 C   0  0  0  0  0  0  0  0  0  0  0  0
   25.4472  -18.4263  -13.5974 C   0  0  2  0  0  0  0  0  0  0  0  0
   26.1257  -19.2656  -12.6258 N   0  0  0  0  0  0  0  0  0  0  0  0
   24.7082  -19.2531  -14.5531 C   0  0  0  0  0  0  0  0  0  0  0  0
   25.2396  -20.2645  -15.0530 O   0  0  0  0  0  0  0  0  0  0  0  0
   24.7589  -13.3788  -18.5665 C   0  0  0  0  0  0  0  0  0  0  0  0
   22.4020  -21.1173  -14.8017 C   0  0  2  0  0  0  0  0  0  0  0  0
   22.5576  -19.8535  -15.6511 N   0  0  0  0  0  0  0  0  0  0  0  0
   23.3863  -18.9117  -14.9149 C   0  0  0  0  0  0  0  0  0  0  0  0
   21.2412  -19.2193  -15.8902 O   0  0  0  0  0  0  0  0  0  0  0  0
   20.9849  -18.1070  -15.3618 O   0  0  0  0  0  0  0  0  0  0  0  0
  2  1  1  6
  2  3  1  0
  4  2  1  0
  4  5  2  0
  7  6  1  0
  7  8  2  0
  9 10  1  0
  9  7  1  0
 11 12  1  0
 11 10  1  0
 13 14  1  0
 13 12  1  6
 14  4  1  0
 15 13  1  0
 16 15  2  0
 18 17  1  6
 18 19  1  0
 19 15  1  0
 20 18  1  0
 20 22  1  0
 21 20  2  0
M  END
$$$$
