ARA.pdb
     RDKit          3D

 22 21  0  0  1  0  0  0  0  0999 V2000
   16.1284   -9.2940  -16.7638 C   0  0  0  0  0  0  0  0  0  0  0  0
   17.2235  -10.2816  -17.0282 C   0  0  2  0  0  0  0  0  0  0  0  0
   16.8372  -11.6173  -16.7149 N   0  0  0  0  0  0  0  0  0  0  0  0
   18.5323   -9.8959  -16.4519 C   0  0  0  0  0  0  0  0  0  0  0  0
   18.6894   -9.9620  -15.1872 O   0  0  0  0  0  0  0  0  0  0  0  0
   25.5951  -12.6744  -16.0678 N   0  0  0  0  0  0  0  0  0  0  0  0
   26.3016  -11.4294  -16.0154 C   0  0  0  0  0  0  0  0  0  0  0  0
   27.4030  -11.3467  -15.3804 N   0  0  0  0  0  0  0  0  0  0  0  0
   25.7454  -10.3032  -16.6862 N   0  0  0  0  0  0  0  0  0  0  0  0
   24.4556  -10.4235  -17.3558 C   0  0  0  0  0  0  0  0  0  0  0  0
   23.3937   -9.6300  -16.6377 C   0  0  0  0  0  0  0  0  0  0  0  0
   22.0671   -9.8292  -17.3378 C   0  0  0  0  0  0  0  0  0  0  0  0
   20.9344   -9.1687  -16.5848 C   0  0  2  0  0  0  0  0  0  0  0  0
   19.6493   -9.4496  -17.2002 N   0  0  0  0  0  0  0  0  0  0  0  0
   21.1478   -7.7232  -16.4946 C   0  0  0  0  0  0  0  0  0  0  0  0
   21.4389   -7.0652  -17.5132 O   0  0  0  0  0  0  0  0  0  0  0  0
   27.9235  -10.4627  -15.3610 C   0  0  0  0  0  0  0  0  0  0  0  0
   19.9419   -4.9283  -14.9075 C   0  0  1  0  0  0  0  0  0  0  0  0
   21.2784   -5.6344  -15.1489 N   0  0  0  0  0  0  0  0  0  0  0  0
   21.0241   -7.0628  -15.2523 C   0  0  0  0  0  0  0  0  0  0  0  0
   22.1998   -5.4118  -14.0114 O   0  0  0  0  0  0  0  0  0  0  0  0
   22.4540   -6.3608  -13.2260 O   0  0  0  0  0  0  0  0  0  0  0  0
  2  1  1  1
  2  3  1  0
  4  2  1  0
  4  5  2  0
  7  6  1  0
  7  8  2  0
  9 10  1  0
  9  7  1  0
 11 12  1  0
 11 10  1  0
 13 14  1  0
 13 12  1  6
 14  4  1  0
 15 13  1  0
 16 15  2  0
 18 17  1  6
 18 19  1  0
 19 15  1  0
 20 18  1  0
 20 22  1  0
 21 20  2  0
M  END
$$$$
