ARA.pdb
     RDKit          3D

 22 21  0  0  1  0  0  0  0  0999 V2000
   24.3439  -17.5691  -18.3459 C   0  0  0  0  0  0  0  0  0  0  0  0
   25.3572  -18.6095  -18.7137 C   0  0  2  0  0  0  0  0  0  0  0  0
   25.8520  -18.4405  -20.0397 N   0  0  0  0  0  0  0  0  0  0  0  0
   24.9297  -19.9960  -18.4163 C   0  0  0  0  0  0  0  0  0  0  0  0
   24.1610  -20.5919  -19.2426 O   0  0  0  0  0  0  0  0  0  0  0  0
   27.8399  -27.2144  -16.0841 N   0  0  0  0  0  0  0  0  0  0  0  0
   27.5130  -27.0531  -17.4694 C   0  0  0  0  0  0  0  0  0  0  0  0
   26.9540  -28.0033  -18.1081 N   0  0  0  0  0  0  0  0  0  0  0  0
   27.8251  -25.8163  -18.1022 N   0  0  0  0  0  0  0  0  0  0  0  0
   27.6561  -24.5660  -17.3711 C   0  0  0  0  0  0  0  0  0  0  0  0
   26.1996  -24.2887  -17.0972 C   0  0  0  0  0  0  0  0  0  0  0  0
   26.0659  -22.9217  -16.4622 C   0  0  0  0  0  0  0  0  0  0  0  0
   24.9395  -22.1263  -17.0827 C   0  0  2  0  0  0  0  0  0  0  0  0
   25.3085  -20.7339  -17.2679 N   0  0  0  0  0  0  0  0  0  0  0  0
   23.7275  -22.2252  -16.2678 C   0  0  0  0  0  0  0  0  0  0  0  0
   23.5704  -21.4800  -15.2803 O   0  0  0  0  0  0  0  0  0  0  0  0
   26.7036  -27.8851  -19.0961 C   0  0  0  0  0  0  0  0  0  0  0  0
   21.8980  -23.2110  -14.3240 C   0  0  2  0  0  0  0  0  0  0  0  0
   21.5084  -23.2507  -15.8037 N   0  0  0  0  0  0  0  0  0  0  0  0
   22.7257  -23.1654  -16.5953 C   0  0  0  0  0  0  0  0  0  0  0  0
   20.6520  -22.0934  -16.1497 O   0  0  0  0  0  0  0  0  0  0  0  0
   20.7783  -21.0172  -15.5111 O   0  0  0  0  0  0  0  0  0  0  0  0
  2  1  1  6
  2  3  1  0
  4  2  1  0
  4  5  2  0
  7  6  1  0
  7  8  2  0
  9 10  1  0
  9  7  1  0
 11 12  1  0
 11 10  1  0
 13 14  1  0
 13 12  1  1
 14  4  1  0
 15 13  1  0
 16 15  2  0
 18 17  1  1
 18 19  1  0
 19 15  1  0
 20 18  1  0
 20 22  1  0
 21 20  2  0
M  END
$$$$
