RQG.pdb
     RDKit          3D

 25 24  0  0  1  0  0  0  0  0999 V2000
    9.5685  -17.3163   12.5579 N   0  0  0  0  0  0  0  0  0  0  0  0
    8.2485  -17.2427   13.1295 C   0  0  0  0  0  0  0  0  0  0  0  0
    7.2098  -16.9483   12.3883 N   0  0  0  0  0  0  0  0  0  0  0  0
    8.0201  -17.4799   14.4977 N   0  0  0  0  0  0  0  0  0  0  0  0
    8.6859  -16.6530   15.5242 C   0  0  0  0  0  0  0  0  0  0  0  0
   10.1518  -16.9333   15.3733 C   0  0  0  0  0  0  0  0  0  0  0  0
   11.0129  -16.1657   16.2979 C   0  0  0  0  0  0  0  0  0  0  0  0
   11.3649  -16.8640   17.5732 C   0  0  2  0  0  0  0  0  0  0  0  0
   10.4650  -17.9227   17.9358 N   0  0  0  0  0  0  0  0  0  0  0  0
   11.3097  -15.8277   18.6557 C   0  0  0  0  0  0  0  0  0  0  0  0
   12.0581  -14.8276   18.6207 O   0  0  0  0  0  0  0  0  0  0  0  0
    6.2795  -16.8931   12.8219 N   0  0  0  0  0  0  0  0  0  0  0  0
    6.4504  -13.3654   20.7811 C   0  0  0  0  0  0  0  0  0  0  0  0
    7.3048  -13.0105   19.6969 O   0  0  0  0  0  0  0  0  0  0  0  0
    6.8237  -12.2737   18.8045 C   0  0  0  0  0  0  0  0  0  0  0  0
    8.6932  -13.5063   19.6534 C   0  0  0  0  0  0  0  0  0  0  0  0
    9.0806  -14.3211   20.8456 C   0  0  2  0  0  0  0  0  0  0  0  0
   10.4412  -14.9207   20.8338 N   0  0  0  0  0  0  0  0  0  0  0  0
   10.4251  -15.9286   19.7489 C   0  0  0  0  0  0  0  0  0  0  0  0
   10.8464  -15.6345   22.0443 O   0  0  0  0  0  0  0  0  0  0  0  0
    9.9755  -16.2311   22.7602 N   0  0  0  0  0  0  0  0  0  0  0  0
   12.1776  -15.7503   22.5456 C   0  0  0  0  0  0  0  0  0  0  0  0
   12.4844  -16.4846   23.7543 C   0  0  0  0  0  0  0  0  0  0  0  0
   13.9514  -16.5664   23.8968 O   0  0  0  0  0  0  0  0  0  0  0  0
   14.6041  -17.3024   23.1222 O   0  0  0  0  0  0  0  0  0  0  0  0
  1  2  1  0
  2  3  2  0
  4  5  1  0
  4  2  1  0
  6  5  1  0
  6  7  1  0
  8  7  1  0
  8  9  1  1
 10  8  1  0
 11 10  2  0
 13 14  2  0
 13 12  1  0
 15 13  1  0
 16 15  1  0
 17 16  1  6
 17 18  1  0
 18 10  1  0
 19 21  1  0
 19 17  1  0
 20 19  2  0
 22 21  1  0
 23 22  1  0
 24 23  2  0
 25 23  1  0
M  END
$$$$
