RQG.pdb
     RDKit          3D

 25 24  0  0  1  0  0  0  0  0999 V2000
    8.3135  -11.6283   19.6846 N   0  0  0  0  0  0  0  0  0  0  0  0
    8.3808  -12.8621   18.9445 C   0  0  0  0  0  0  0  0  0  0  0  0
    7.8415  -12.9637   17.7555 N   0  0  0  0  0  0  0  0  0  0  0  0
    9.0215  -14.0025   19.4633 N   0  0  0  0  0  0  0  0  0  0  0  0
    9.0241  -15.2712   18.7075 C   0  0  0  0  0  0  0  0  0  0  0  0
    8.9784  -16.3538   19.7449 C   0  0  0  0  0  0  0  0  0  0  0  0
    9.8803  -16.1287   20.8944 C   0  0  0  0  0  0  0  0  0  0  0  0
    9.8197  -17.1682   21.9686 C   0  0  2  0  0  0  0  0  0  0  0  0
    8.5954  -17.9179   21.9979 N   0  0  0  0  0  0  0  0  0  0  0  0
    9.9397  -16.4395   23.2738 C   0  0  0  0  0  0  0  0  0  0  0  0
   11.0138  -15.8924   23.6030 O   0  0  0  0  0  0  0  0  0  0  0  0
    7.9035  -13.8550   17.2474 N   0  0  0  0  0  0  0  0  0  0  0  0
    6.0547  -12.6160   25.6920 C   0  0  0  0  0  0  0  0  0  0  0  0
    6.9208  -12.7652   26.8142 O   0  0  0  0  0  0  0  0  0  0  0  0
    6.7994  -11.9371   27.7469 C   0  0  0  0  0  0  0  0  0  0  0  0
    7.9103  -13.8584   26.8474 C   0  0  0  0  0  0  0  0  0  0  0  0
    8.0019  -14.6285   25.5691 C   0  0  1  0  0  0  0  0  0  0  0  0
    9.0419  -15.6889   25.4989 N   0  0  0  0  0  0  0  0  0  0  0  0
    8.8641  -16.3373   24.1795 C   0  0  0  0  0  0  0  0  0  0  0  0
    8.9465  -16.7581   26.4923 O   0  0  0  0  0  0  0  0  0  0  0  0
    7.9169  -17.5099   26.5301 N   0  0  0  0  0  0  0  0  0  0  0  0
    9.9270  -17.0785   27.4786 C   0  0  0  0  0  0  0  0  0  0  0  0
    9.7085  -18.1020   28.4780 C   0  0  0  0  0  0  0  0  0  0  0  0
   10.9209  -18.2125   29.3129 O   0  0  0  0  0  0  0  0  0  0  0  0
   11.9434  -17.5607   29.0010 O   0  0  0  0  0  0  0  0  0  0  0  0
  1  2  1  0
  2  3  2  0
  4  5  1  0
  4  2  1  0
  6  5  1  0
  6  7  1  0
  8  7  1  0
  8  9  1  1
 10  8  1  0
 11 10  2  0
 13 14  2  0
 13 12  1  0
 15 13  1  0
 16 15  1  0
 17 16  1  6
 17 18  1  0
 18 10  1  0
 19 21  1  0
 19 17  1  0
 20 19  2  0
 22 21  1  0
 23 22  1  0
 24 23  2  0
 25 23  1  0
M  END
$$$$
