RQG.pdb
     RDKit          3D

 25 24  0  0  1  0  0  0  0  0999 V2000
    6.9592  -13.7846   18.8163 N   0  0  0  0  0  0  0  0  0  0  0  0
    7.6496  -13.2669   19.9695 C   0  0  0  0  0  0  0  0  0  0  0  0
    7.1957  -12.2196   20.6114 N   0  0  0  0  0  0  0  0  0  0  0  0
    8.8328  -13.8575   20.4508 N   0  0  0  0  0  0  0  0  0  0  0  0
    9.5280  -14.8952   19.6630 C   0  0  0  0  0  0  0  0  0  0  0  0
    9.6466  -16.0781   20.5779 C   0  0  0  0  0  0  0  0  0  0  0  0
   10.7821  -16.0018   21.5213 C   0  0  0  0  0  0  0  0  0  0  0  0
   10.9893  -17.2143   22.3728 C   0  0  2  0  0  0  0  0  0  0  0  0
    9.8802  -18.1263   22.3833 N   0  0  0  0  0  0  0  0  0  0  0  0
   11.1877  -16.7212   23.7751 C   0  0  0  0  0  0  0  0  0  0  0  0
   12.0292  -15.8323   24.0261 O   0  0  0  0  0  0  0  0  0  0  0  0
    7.7221  -11.8520   21.4140 N   0  0  0  0  0  0  0  0  0  0  0  0
    9.2481  -13.1099   26.9187 C   0  0  0  0  0  0  0  0  0  0  0  0
    9.3772  -13.8993   28.0984 O   0  0  0  0  0  0  0  0  0  0  0  0
    9.3568  -13.2968   29.1971 C   0  0  0  0  0  0  0  0  0  0  0  0
    9.5286  -15.3630   27.9989 C   0  0  0  0  0  0  0  0  0  0  0  0
    9.5779  -15.8703   26.5933 C   0  0  1  0  0  0  0  0  0  0  0  0
   10.7127  -16.7654   26.2436 N   0  0  0  0  0  0  0  0  0  0  0  0
   10.4466  -17.2280   24.8622 C   0  0  0  0  0  0  0  0  0  0  0  0
   10.8600  -17.9735   27.0546 O   0  0  0  0  0  0  0  0  0  0  0  0
   11.3223  -17.8985   28.2409 N   0  0  0  0  0  0  0  0  0  0  0  0
   10.5260  -19.3014   26.6522 C   0  0  0  0  0  0  0  0  0  0  0  0
   11.4893  -20.1825   26.0280 C   0  0  0  0  0  0  0  0  0  0  0  0
   12.4755  -20.5990   27.0444 O   0  0  0  0  0  0  0  0  0  0  0  0
   13.3162  -21.4821   26.7596 O   0  0  0  0  0  0  0  0  0  0  0  0
  1  2  1  0
  2  3  2  0
  4  5  1  0
  4  2  1  0
  6  5  1  0
  6  7  1  0
  8  7  1  0
  8  9  1  1
 10  8  1  0
 11 10  2  0
 13 14  2  0
 13 12  1  0
 15 13  1  0
 16 15  1  0
 17 16  1  6
 17 18  1  0
 18 10  1  0
 19 21  1  0
 19 17  1  0
 20 19  2  0
 22 21  1  0
 23 22  1  0
 24 23  2  0
 25 23  1  0
M  END
$$$$
