RQG.pdb
     RDKit          3D

 25 24  0  0  1  0  0  0  0  0999 V2000
    8.1947  -14.6885   16.6422 N   0  0  0  0  0  0  0  0  0  0  0  0
    8.1492  -14.0478   17.9313 C   0  0  0  0  0  0  0  0  0  0  0  0
    7.8292  -12.7829   18.0430 N   0  0  0  0  0  0  0  0  0  0  0  0
    8.4460  -14.7467   19.1161 N   0  0  0  0  0  0  0  0  0  0  0  0
    7.3732  -15.1027   20.0665 C   0  0  0  0  0  0  0  0  0  0  0  0
    7.2243  -13.9108   20.9650 C   0  0  0  0  0  0  0  0  0  0  0  0
    8.1258  -13.9200   22.1366 C   0  0  0  0  0  0  0  0  0  0  0  0
    7.7180  -14.8311   23.2508 C   0  0  2  0  0  0  0  0  0  0  0  0
    6.4889  -14.4635   23.8958 N   0  0  0  0  0  0  0  0  0  0  0  0
    8.8095  -14.7643   24.2771 C   0  0  0  0  0  0  0  0  0  0  0  0
    8.9029  -13.7841   25.0465 O   0  0  0  0  0  0  0  0  0  0  0  0
    7.8139  -12.3462   18.9733 N   0  0  0  0  0  0  0  0  0  0  0  0
   11.5382  -14.2791   27.8812 C   0  0  0  0  0  0  0  0  0  0  0  0
   10.3027  -14.9048   28.2181 O   0  0  0  0  0  0  0  0  0  0  0  0
    9.6177  -14.3725   29.1225 C   0  0  0  0  0  0  0  0  0  0  0  0
    9.8749  -16.1286   27.5149 C   0  0  0  0  0  0  0  0  0  0  0  0
   10.7962  -16.5450   26.4134 C   0  0  2  0  0  0  0  0  0  0  0  0
   10.9594  -15.5948   25.2814 N   0  0  0  0  0  0  0  0  0  0  0  0
    9.7686  -15.7873   24.4223 C   0  0  0  0  0  0  0  0  0  0  0  0
   12.1208  -15.8072   24.4182 O   0  0  0  0  0  0  0  0  0  0  0  0
   12.1950  -16.8487   23.6857 N   0  0  0  0  0  0  0  0  0  0  0  0
   13.2432  -14.9351   24.2903 C   0  0  0  0  0  0  0  0  0  0  0  0
   14.2896  -15.1640   23.3172 C   0  0  0  0  0  0  0  0  0  0  0  0
   15.3191  -16.0290   23.9263 O   0  0  0  0  0  0  0  0  0  0  0  0
   15.0535  -16.6529   24.9789 O   0  0  0  0  0  0  0  0  0  0  0  0
  1  2  1  0
  2  3  2  0
  4  5  1  0
  4  2  1  0
  6  5  1  0
  6  7  1  0
  8  7  1  0
  8  9  1  1
 10  8  1  0
 11 10  2  0
 13 14  2  0
 13 12  1  0
 15 13  1  0
 16 15  1  0
 17 16  1  1
 17 18  1  0
 18 10  1  0
 19 21  1  0
 19 17  1  0
 20 19  2  0
 22 21  1  0
 23 22  1  0
 24 23  2  0
 25 23  1  0
M  END
$$$$
