RQG.pdb
     RDKit          3D

 25 24  0  0  1  0  0  0  0  0999 V2000
   11.9249  -19.2523   28.1395 N   0  0  0  0  0  0  0  0  0  0  0  0
   12.3420  -20.4630   28.7988 C   0  0  0  0  0  0  0  0  0  0  0  0
   11.8439  -21.6236   28.4525 N   0  0  0  0  0  0  0  0  0  0  0  0
   13.2931  -20.4512   29.8359 N   0  0  0  0  0  0  0  0  0  0  0  0
   13.6115  -19.1973   30.5481 C   0  0  0  0  0  0  0  0  0  0  0  0
   12.8545  -19.2696   31.8412 C   0  0  0  0  0  0  0  0  0  0  0  0
   13.0276  -18.0865   32.7105 C   0  0  0  0  0  0  0  0  0  0  0  0
   12.2539  -18.1143   33.9907 C   0  0  2  0  0  0  0  0  0  0  0  0
   10.9532  -18.7131   33.8829 N   0  0  0  0  0  0  0  0  0  0  0  0
   12.0653  -16.6856   34.4056 C   0  0  0  0  0  0  0  0  0  0  0  0
   13.0485  -15.9286   34.5527 O   0  0  0  0  0  0  0  0  0  0  0  0
   12.1425  -22.4706   28.9523 N   0  0  0  0  0  0  0  0  0  0  0  0
    8.3492  -15.6551   32.0153 C   0  0  0  0  0  0  0  0  0  0  0  0
    9.4642  -14.8912   31.5628 O   0  0  0  0  0  0  0  0  0  0  0  0
    9.7125  -14.9103   30.3346 C   0  0  0  0  0  0  0  0  0  0  0  0
   10.2749  -14.1208   32.5244 C   0  0  0  0  0  0  0  0  0  0  0  0
    9.7393  -14.1439   33.9201 C   0  0  2  0  0  0  0  0  0  0  0  0
   10.6329  -14.6984   34.9714 N   0  0  0  0  0  0  0  0  0  0  0  0
   10.7901  -16.1346   34.6465 C   0  0  0  0  0  0  0  0  0  0  0  0
   10.1306  -14.6457   36.3439 O   0  0  0  0  0  0  0  0  0  0  0  0
    8.9003  -14.8780   36.5872 N   0  0  0  0  0  0  0  0  0  0  0  0
   10.8997  -14.3507   37.5093 C   0  0  0  0  0  0  0  0  0  0  0  0
   10.6362  -13.1902   38.3328 C   0  0  0  0  0  0  0  0  0  0  0  0
   11.5816  -13.1919   39.4665 O   0  0  0  0  0  0  0  0  0  0  0  0
   12.4625  -14.0793   39.5309 O   0  0  0  0  0  0  0  0  0  0  0  0
  1  2  1  0
  2  3  2  0
  4  5  1  0
  4  2  1  0
  6  5  1  0
  6  7  1  0
  8  7  1  0
  8  9  1  6
 10  8  1  0
 11 10  2  0
 13 14  2  0
 13 12  1  0
 15 13  1  0
 16 15  1  0
 17 16  1  6
 17 18  1  0
 18 10  1  0
 19 21  1  0
 19 17  1  0
 20 19  2  0
 22 21  1  0
 23 22  1  0
 24 23  2  0
 25 23  1  0
M  END
$$$$
