RQG.pdb
     RDKit          3D

 25 24  0  0  1  0  0  0  0  0999 V2000
    8.8250  -12.3375   16.7326 N   0  0  0  0  0  0  0  0  0  0  0  0
    8.7013  -13.7602   16.9206 C   0  0  0  0  0  0  0  0  0  0  0  0
    8.4353  -14.5516   15.9118 N   0  0  0  0  0  0  0  0  0  0  0  0
    8.8576  -14.3558   18.1860 N   0  0  0  0  0  0  0  0  0  0  0  0
    8.3573  -15.7219   18.4395 C   0  0  0  0  0  0  0  0  0  0  0  0
    7.4018  -15.5901   19.5884 C   0  0  0  0  0  0  0  0  0  0  0  0
    7.9984  -15.0040   20.8073 C   0  0  0  0  0  0  0  0  0  0  0  0
    8.4652  -15.9913   21.8298 C   0  0  2  0  0  0  0  0  0  0  0  0
    7.5056  -17.0108   22.1489 N   0  0  0  0  0  0  0  0  0  0  0  0
    8.7363  -15.2121   23.0820 C   0  0  0  0  0  0  0  0  0  0  0  0
    9.5483  -14.2623   23.0796 O   0  0  0  0  0  0  0  0  0  0  0  0
    8.2711  -15.5515   16.0842 N   0  0  0  0  0  0  0  0  0  0  0  0
    6.2235  -12.2875   27.8504 C   0  0  0  0  0  0  0  0  0  0  0  0
    6.2235  -11.9032   26.4779 O   0  0  0  0  0  0  0  0  0  0  0  0
    5.8310  -10.7444   26.2064 C   0  0  0  0  0  0  0  0  0  0  0  0
    6.6713  -12.8524   25.4417 C   0  0  0  0  0  0  0  0  0  0  0  0
    7.0813  -14.1853   25.9809 C   0  0  2  0  0  0  0  0  0  0  0  0
    8.3915  -14.7190   25.5231 N   0  0  0  0  0  0  0  0  0  0  0  0
    8.0987  -15.5075   24.3043 C   0  0  0  0  0  0  0  0  0  0  0  0
    9.0776  -15.6289   26.4397 O   0  0  0  0  0  0  0  0  0  0  0  0
    9.4121  -15.2348   27.6057 N   0  0  0  0  0  0  0  0  0  0  0  0
    9.4348  -16.9837   26.1681 C   0  0  0  0  0  0  0  0  0  0  0  0
   10.1025  -17.8153   27.1462 C   0  0  0  0  0  0  0  0  0  0  0  0
   11.5563  -17.7629   26.8960 O   0  0  0  0  0  0  0  0  0  0  0  0
   11.9937  -17.0577   25.9584 O   0  0  0  0  0  0  0  0  0  0  0  0
  1  2  1  0
  2  3  2  0
  4  5  1  0
  4  2  1  0
  6  5  1  0
  6  7  1  0
  8  7  1  0
  8  9  1  1
 10  8  1  0
 11 10  2  0
 13 14  2  0
 13 12  1  0
 15 13  1  0
 16 15  1  0
 17 16  1  6
 17 18  1  0
 18 10  1  0
 19 21  1  0
 19 17  1  0
 20 19  2  0
 22 21  1  0
 23 22  1  0
 24 23  2  0
 25 23  1  0
M  END
$$$$
