RQG.pdb
     RDKit          3D

 25 24  0  0  1  0  0  0  0  0999 V2000
    7.5664  -12.3887   20.0896 N   0  0  0  0  0  0  0  0  0  0  0  0
    7.4671  -13.2070   18.9085 C   0  0  0  0  0  0  0  0  0  0  0  0
    7.7081  -12.7080   17.7220 N   0  0  0  0  0  0  0  0  0  0  0  0
    7.1079  -14.5659   18.9776 N   0  0  0  0  0  0  0  0  0  0  0  0
    7.0729  -15.2680   20.2764 C   0  0  0  0  0  0  0  0  0  0  0  0
    8.4987  -15.3220   20.7393 C   0  0  0  0  0  0  0  0  0  0  0  0
    8.7145  -16.1611   21.9371 C   0  0  0  0  0  0  0  0  0  0  0  0
   10.1346  -16.2699   22.3949 C   0  0  2  0  0  0  0  0  0  0  0  0
   10.9569  -17.1160   21.5763 N   0  0  0  0  0  0  0  0  0  0  0  0
   10.0944  -16.8658   23.7705 C   0  0  0  0  0  0  0  0  0  0  0  0
   10.2361  -18.0960   23.9376 O   0  0  0  0  0  0  0  0  0  0  0  0
    7.5948  -13.3029   16.8916 N   0  0  0  0  0  0  0  0  0  0  0  0
   10.4548  -13.5185   29.0619 C   0  0  0  0  0  0  0  0  0  0  0  0
   10.3532  -14.8402   29.5856 O   0  0  0  0  0  0  0  0  0  0  0  0
   10.4950  -14.9797   30.8229 C   0  0  0  0  0  0  0  0  0  0  0  0
   10.0925  -15.9776   28.6835 C   0  0  0  0  0  0  0  0  0  0  0  0
   10.1284  -15.6178   27.2328 C   0  0  1  0  0  0  0  0  0  0  0  0
    9.8262  -16.7056   26.2651 N   0  0  0  0  0  0  0  0  0  0  0  0
    9.8980  -16.0803   24.9246 C   0  0  0  0  0  0  0  0  0  0  0  0
    8.4971  -17.3084   26.3607 O   0  0  0  0  0  0  0  0  0  0  0  0
    7.4898  -16.7298   25.8340 N   0  0  0  0  0  0  0  0  0  0  0  0
    8.1773  -18.5390   27.0089 C   0  0  0  0  0  0  0  0  0  0  0  0
    8.4432  -19.8234   26.3976 C   0  0  0  0  0  0  0  0  0  0  0  0
    7.9660  -20.8854   27.3051 O   0  0  0  0  0  0  0  0  0  0  0  0
    7.5149  -20.5750   28.4311 O   0  0  0  0  0  0  0  0  0  0  0  0
  1  2  1  0
  2  3  2  0
  4  5  1  0
  4  2  1  0
  6  5  1  0
  6  7  1  0
  8  7  1  0
  8  9  1  6
 10  8  1  0
 11 10  2  0
 13 14  2  0
 13 12  1  0
 15 13  1  0
 16 15  1  0
 17 16  1  6
 17 18  1  0
 18 10  1  0
 19 21  1  0
 19 17  1  0
 20 19  2  0
 22 21  1  0
 23 22  1  0
 24 23  2  0
 25 23  1  0
M  END
$$$$
