RQG.pdb
     RDKit          3D

 25 24  0  0  1  0  0  0  0  0999 V2000
    8.0587  -14.6718   15.9635 N   0  0  0  0  0  0  0  0  0  0  0  0
    7.2337  -13.5614   16.3645 C   0  0  0  0  0  0  0  0  0  0  0  0
    6.6062  -12.8336   15.4749 N   0  0  0  0  0  0  0  0  0  0  0  0
    7.0693  -13.2122   17.7178 N   0  0  0  0  0  0  0  0  0  0  0  0
    8.0880  -13.5875   18.7189 C   0  0  0  0  0  0  0  0  0  0  0  0
    7.4874  -14.7237   19.4926 C   0  0  0  0  0  0  0  0  0  0  0  0
    8.4478  -15.4410   20.3578 C   0  0  0  0  0  0  0  0  0  0  0  0
    9.7111  -15.8785   19.6863 C   0  0  2  0  0  0  0  0  0  0  0  0
    9.5211  -16.8427   18.6393 N   0  0  0  0  0  0  0  0  0  0  0  0
   10.5580  -16.5172   20.7463 C   0  0  0  0  0  0  0  0  0  0  0  0
   10.4744  -17.7423   20.9780 O   0  0  0  0  0  0  0  0  0  0  0  0
    6.1108  -11.9848   15.7755 N   0  0  0  0  0  0  0  0  0  0  0  0
   16.3522  -14.6456   22.0898 C   0  0  0  0  0  0  0  0  0  0  0  0
   15.5526  -14.8610   20.9297 O   0  0  0  0  0  0  0  0  0  0  0  0
   15.9097  -14.2904   19.8726 C   0  0  0  0  0  0  0  0  0  0  0  0
   14.3589  -15.7242   21.0013 C   0  0  0  0  0  0  0  0  0  0  0  0
   13.6940  -15.7247   22.3404 C   0  0  2  0  0  0  0  0  0  0  0  0
   12.4069  -16.4614   22.4490 N   0  0  0  0  0  0  0  0  0  0  0  0
   11.4757  -15.7792   21.5215 C   0  0  0  0  0  0  0  0  0  0  0  0
   11.7584  -16.4448   23.7598 O   0  0  0  0  0  0  0  0  0  0  0  0
   10.9980  -15.4749   24.0882 N   0  0  0  0  0  0  0  0  0  0  0  0
   11.8815  -17.4445   24.7708 C   0  0  0  0  0  0  0  0  0  0  0  0
   11.2240  -17.3269   26.0546 C   0  0  0  0  0  0  0  0  0  0  0  0
   11.4785  -18.5574   26.8293 O   0  0  0  0  0  0  0  0  0  0  0  0
   12.0584  -19.5212   26.2792 O   0  0  0  0  0  0  0  0  0  0  0  0
  1  2  1  0
  2  3  2  0
  4  5  1  0
  4  2  1  0
  6  5  1  0
  6  7  1  0
  8  7  1  0
  8  9  1  6
 10  8  1  0
 11 10  2  0
 13 14  2  0
 13 12  1  0
 15 13  1  0
 16 15  1  0
 17 16  1  6
 17 18  1  0
 18 10  1  0
 19 21  1  0
 19 17  1  0
 20 19  2  0
 22 21  1  0
 23 22  1  0
 24 23  2  0
 25 23  1  0
M  END
$$$$
