RQG.pdb
     RDKit          3D

 25 24  0  0  1  0  0  0  0  0999 V2000
    9.6443  -14.6538   15.7633 N   0  0  0  0  0  0  0  0  0  0  0  0
    8.5351  -14.1087   16.5029 C   0  0  0  0  0  0  0  0  0  0  0  0
    7.3008  -14.3337   16.1278 N   0  0  0  0  0  0  0  0  0  0  0  0
    8.7282  -13.3158   17.6493 N   0  0  0  0  0  0  0  0  0  0  0  0
    7.5714  -12.7926   18.4037 C   0  0  0  0  0  0  0  0  0  0  0  0
    7.1535  -13.9070   19.3168 C   0  0  0  0  0  0  0  0  0  0  0  0
    7.4286  -13.6529   20.7468 C   0  0  0  0  0  0  0  0  0  0  0  0
    8.4552  -14.5453   21.3696 C   0  0  2  0  0  0  0  0  0  0  0  0
    8.1746  -15.9479   21.2432 N   0  0  0  0  0  0  0  0  0  0  0  0
    8.4766  -14.2143   22.8321 C   0  0  0  0  0  0  0  0  0  0  0  0
    8.6717  -13.0421   23.2185 O   0  0  0  0  0  0  0  0  0  0  0  0
    6.5269  -14.0528   16.7432 N   0  0  0  0  0  0  0  0  0  0  0  0
    7.2883  -12.8527   27.7468 C   0  0  0  0  0  0  0  0  0  0  0  0
    6.4140  -12.6190   26.6456 O   0  0  0  0  0  0  0  0  0  0  0  0
    5.8279  -11.5121   26.6031 C   0  0  0  0  0  0  0  0  0  0  0  0
    6.2256  -13.6567   25.6147 C   0  0  0  0  0  0  0  0  0  0  0  0
    7.0602  -14.8786   25.8288 C   0  0  2  0  0  0  0  0  0  0  0  0
    8.4347  -14.8589   25.2618 N   0  0  0  0  0  0  0  0  0  0  0  0
    8.2809  -15.1934   23.8275 C   0  0  0  0  0  0  0  0  0  0  0  0
    9.3758  -15.8363   25.8076 O   0  0  0  0  0  0  0  0  0  0  0  0
    9.2514  -16.2467   27.0088 N   0  0  0  0  0  0  0  0  0  0  0  0
   10.4781  -16.4196   25.1136 C   0  0  0  0  0  0  0  0  0  0  0  0
   11.3205  -17.4299   25.7167 C   0  0  0  0  0  0  0  0  0  0  0  0
   12.4269  -17.7367   24.7889 O   0  0  0  0  0  0  0  0  0  0  0  0
   13.1608  -18.7261   25.0132 O   0  0  0  0  0  0  0  0  0  0  0  0
  1  2  1  0
  2  3  2  0
  4  5  1  0
  4  2  1  0
  6  5  1  0
  6  7  1  0
  8  7  1  0
  8  9  1  1
 10  8  1  0
 11 10  2  0
 13 14  2  0
 13 12  1  0
 15 13  1  0
 16 15  1  0
 17 16  1  6
 17 18  1  0
 18 10  1  0
 19 21  1  0
 19 17  1  0
 20 19  2  0
 22 21  1  0
 23 22  1  0
 24 23  2  0
 25 23  1  0
M  END
$$$$
