RQG.pdb
     RDKit          3D

 25 24  0  0  1  0  0  0  0  0999 V2000
    9.0342  -15.2860   17.4202 N   0  0  0  0  0  0  0  0  0  0  0  0
    7.9726  -14.3695   17.0923 C   0  0  0  0  0  0  0  0  0  0  0  0
    7.9184  -13.7956   15.9165 N   0  0  0  0  0  0  0  0  0  0  0  0
    6.9576  -14.0522   18.0140 N   0  0  0  0  0  0  0  0  0  0  0  0
    7.2381  -13.1716   19.1658 C   0  0  0  0  0  0  0  0  0  0  0  0
    8.3091  -13.8699   19.9505 C   0  0  0  0  0  0  0  0  0  0  0  0
    7.9144  -14.2244   21.3303 C   0  0  0  0  0  0  0  0  0  0  0  0
    8.9586  -14.9348   22.1322 C   0  0  2  0  0  0  0  0  0  0  0  0
    9.4277  -16.1570   21.5421 N   0  0  0  0  0  0  0  0  0  0  0  0
    8.3258  -15.2771   23.4480 C   0  0  0  0  0  0  0  0  0  0  0  0
    7.8511  -14.3824   24.1799 O   0  0  0  0  0  0  0  0  0  0  0  0
    7.1772  -13.1104   15.7228 N   0  0  0  0  0  0  0  0  0  0  0  0
    4.9160  -19.5755   23.4472 C   0  0  0  0  0  0  0  0  0  0  0  0
    6.0615  -20.1621   24.0598 O   0  0  0  0  0  0  0  0  0  0  0  0
    6.2316  -21.3932   23.8981 C   0  0  0  0  0  0  0  0  0  0  0  0
    6.9901  -19.3294   24.8468 C   0  0  0  0  0  0  0  0  0  0  0  0
    6.5635  -17.9019   24.9707 C   0  0  1  0  0  0  0  0  0  0  0  0
    7.6332  -16.9035   25.2356 N   0  0  0  0  0  0  0  0  0  0  0  0
    8.2364  -16.6037   23.9169 C   0  0  0  0  0  0  0  0  0  0  0  0
    8.7327  -17.3430   26.0940 O   0  0  0  0  0  0  0  0  0  0  0  0
    8.4979  -17.7579   27.2770 N   0  0  0  0  0  0  0  0  0  0  0  0
   10.1157  -17.3656   25.7425 C   0  0  0  0  0  0  0  0  0  0  0  0
   11.1296  -17.8812   26.6370 C   0  0  0  0  0  0  0  0  0  0  0  0
   12.4350  -17.8303   25.9497 O   0  0  0  0  0  0  0  0  0  0  0  0
   12.4975  -17.3850   24.7811 O   0  0  0  0  0  0  0  0  0  0  0  0
  1  2  1  0
  2  3  2  0
  4  5  1  0
  4  2  1  0
  6  5  1  0
  6  7  1  0
  8  7  1  0
  8  9  1  6
 10  8  1  0
 11 10  2  0
 13 14  2  0
 13 12  1  0
 15 13  1  0
 16 15  1  0
 17 16  1  6
 17 18  1  0
 18 10  1  0
 19 21  1  0
 19 17  1  0
 20 19  2  0
 22 21  1  0
 23 22  1  0
 24 23  2  0
 25 23  1  0
M  END
$$$$
