RQG.pdb
     RDKit          3D

 25 24  0  0  1  0  0  0  0  0999 V2000
   10.3252  -13.1175   19.1099 N   0  0  0  0  0  0  0  0  0  0  0  0
    9.1362  -12.7802   19.8496 C   0  0  0  0  0  0  0  0  0  0  0  0
    8.3468  -11.8146   19.4504 N   0  0  0  0  0  0  0  0  0  0  0  0
    8.7757  -13.4661   21.0243 N   0  0  0  0  0  0  0  0  0  0  0  0
    8.2605  -14.8485   20.9582 C   0  0  0  0  0  0  0  0  0  0  0  0
    6.7709  -14.7141   20.8434 C   0  0  0  0  0  0  0  0  0  0  0  0
    6.0145  -15.4772   21.8588 C   0  0  0  0  0  0  0  0  0  0  0  0
    6.4238  -16.9070   22.0209 C   0  0  2  0  0  0  0  0  0  0  0  0
    5.4963  -17.8540   21.4687 N   0  0  0  0  0  0  0  0  0  0  0  0
    6.5105  -17.1607   23.4963 C   0  0  0  0  0  0  0  0  0  0  0  0
    5.4764  -17.2242   24.1950 O   0  0  0  0  0  0  0  0  0  0  0  0
    7.5336  -11.5576   20.0240 N   0  0  0  0  0  0  0  0  0  0  0  0
    6.3940  -20.7327   27.7960 C   0  0  0  0  0  0  0  0  0  0  0  0
    7.5603  -21.0554   27.0429 O   0  0  0  0  0  0  0  0  0  0  0  0
    8.1841  -22.0927   27.3674 C   0  0  0  0  0  0  0  0  0  0  0  0
    7.9916  -20.1843   25.9336 C   0  0  0  0  0  0  0  0  0  0  0  0
    7.1127  -18.9930   25.7250 C   0  0  1  0  0  0  0  0  0  0  0  0
    7.7895  -17.6750   25.5988 N   0  0  0  0  0  0  0  0  0  0  0  0
    7.7430  -17.3374   24.1577 C   0  0  0  0  0  0  0  0  0  0  0  0
    9.2007  -17.6311   25.9803 O   0  0  0  0  0  0  0  0  0  0  0  0
   10.1097  -17.6843   25.0871 N   0  0  0  0  0  0  0  0  0  0  0  0
    9.7089  -17.5274   27.3099 C   0  0  0  0  0  0  0  0  0  0  0  0
    9.5440  -18.5863   28.2823 C   0  0  0  0  0  0  0  0  0  0  0  0
   10.2704  -18.2143   29.5124 O   0  0  0  0  0  0  0  0  0  0  0  0
   10.8770  -17.1201   29.5609 O   0  0  0  0  0  0  0  0  0  0  0  0
  1  2  1  0
  2  3  2  0
  4  5  1  0
  4  2  1  0
  6  5  1  0
  6  7  1  0
  8  7  1  0
  8  9  1  1
 10  8  1  0
 11 10  2  0
 13 14  2  0
 13 12  1  0
 15 13  1  0
 16 15  1  0
 17 16  1  1
 17 18  1  0
 18 10  1  0
 19 21  1  0
 19 17  1  0
 20 19  2  0
 22 21  1  0
 23 22  1  0
 24 23  2  0
 25 23  1  0
M  END
$$$$
