FIF.pdb
     RDKit          3D

 31 32  0  0  1  0  0  0  0  0999 V2000
   28.3830  -21.5185  -14.8588 N   0  0  0  0  0  0  0  0  0  0  0  0
   27.5544  -20.4764  -14.3355 C   0  0  1  0  0  0  0  0  0  0  0  0
   26.7505  -19.7788  -15.4194 C   0  0  0  0  0  0  0  0  0  0  0  0
   27.5249  -18.6753  -16.0430 C   0  0  0  0  0  0  0  0  0  0  0  0
   28.2588  -18.9360  -17.1730 C   0  0  0  0  0  0  0  0  0  0  0  0
   28.9680  -17.8925  -17.7304 C   0  0  0  0  0  0  0  0  0  0  0  0
   28.9402  -16.6314  -17.1715 C   0  0  0  0  0  0  0  0  0  0  0  0
   28.2045  -16.3715  -16.0395 C   0  0  0  0  0  0  0  0  0  0  0  0
   27.4901  -17.4200  -15.4769 C   0  0  0  0  0  0  0  0  0  0  0  0
   26.5882  -20.9636  -13.3193 C   0  0  0  0  0  0  0  0  0  0  0  0
   26.1489  -22.1438  -13.4504 O   0  0  0  0  0  0  0  0  0  0  0  0
   27.5369  -20.7082   -8.1831 C   0  0  0  0  0  0  0  0  0  0  0  0
   26.9778  -21.0337   -9.5083 C   0  0  0  0  0  0  0  0  0  0  0  0
   25.6459  -20.5358   -9.8980 C   0  0  2  0  0  0  0  0  0  0  0  0
   24.6126  -21.0546   -8.8751 C   0  0  0  0  0  0  0  0  0  0  0  0
   25.1422  -20.7380  -11.2804 C   0  0  2  0  0  0  0  0  0  0  0  0
   26.1435  -20.1841  -12.2302 N   0  0  0  0  0  0  0  0  0  0  0  0
   23.8237  -20.2280  -11.6007 C   0  0  0  0  0  0  0  0  0  0  0  0
   23.6072  -19.0007  -11.7031 O   0  0  0  0  0  0  0  0  0  0  0  0
   22.6929  -21.1083  -11.8180 N   0  0  0  0  0  0  0  0  0  0  0  0
   21.4401  -20.6639  -12.3698 C   0  0  1  0  0  0  0  0  0  0  0  0
   21.6015  -20.0916  -13.7513 C   0  0  0  0  0  0  0  0  0  0  0  0
   21.9525  -21.0937  -14.7818 C   0  0  0  0  0  0  0  0  0  0  0  0
   21.0520  -22.0883  -15.1282 C   0  0  0  0  0  0  0  0  0  0  0  0
   21.3895  -23.0055  -16.0984 C   0  0  0  0  0  0  0  0  0  0  0  0
   22.5962  -22.9947  -16.7614 C   0  0  0  0  0  0  0  0  0  0  0  0
   23.4881  -22.0095  -16.4183 C   0  0  0  0  0  0  0  0  0  0  0  0
   23.1613  -21.0856  -15.4486 C   0  0  0  0  0  0  0  0  0  0  0  0
   20.4851  -21.7849  -12.3255 C   0  0  0  0  0  0  0  0  0  0  0  0
   20.8858  -23.0581  -11.9906 O   0  0  0  0  0  0  0  0  0  0  0  0
   19.2592  -21.6227  -12.5945 O   0  0  0  0  0  0  0  0  0  0  0  0
  2  1  1  6
  3  2  1  0
  3  4  1  0
  4  5  2  0
  5  6  1  0
  7  6  2  0
  8  7  1  0
  9  4  1  0
  9  8  2  0
 10  2  1  0
 10 11  2  0
 13 14  1  0
 13 12  1  0
 14 16  1  0
 14 15  1  1
 16 18  1  0
 16 17  1  6
 17 10  1  0
 18 20  1  0
 19 18  2  0
 20 21  1  0
 21 29  1  0
 22 23  1  0
 21 22  1  6
 23 28  2  0
 24 25  2  0
 24 23  1  0
 25 26  1  0
 26 27  2  0
 28 27  1  0
 29 31  2  0
 29 30  1  0
M  END
$$$$
