FIF.pdb
     RDKit          3D

 31 32  0  0  1  0  0  0  0  0999 V2000
   24.2354  -20.7079  -13.4602 N   0  0  0  0  0  0  0  0  0  0  0  0
   23.4123  -20.0522  -12.4912 C   0  0  1  0  0  0  0  0  0  0  0  0
   21.9544  -19.9973  -12.9144 C   0  0  0  0  0  0  0  0  0  0  0  0
   21.7956  -19.3148  -14.2241 C   0  0  0  0  0  0  0  0  0  0  0  0
   21.5982  -20.0758  -15.3490 C   0  0  0  0  0  0  0  0  0  0  0  0
   21.4541  -19.4152  -16.5514 C   0  0  0  0  0  0  0  0  0  0  0  0
   21.5066  -18.0383  -16.6202 C   0  0  0  0  0  0  0  0  0  0  0  0
   21.7045  -17.2771  -15.4925 C   0  0  0  0  0  0  0  0  0  0  0  0
   21.8497  -17.9396  -14.2816 C   0  0  0  0  0  0  0  0  0  0  0  0
   23.4570  -20.7065  -11.1595 C   0  0  0  0  0  0  0  0  0  0  0  0
   23.4298  -21.9720  -11.1299 O   0  0  0  0  0  0  0  0  0  0  0  0
   27.1349  -19.5089   -7.6135 C   0  0  0  0  0  0  0  0  0  0  0  0
   26.0510  -20.1590   -8.3733 C   0  0  0  0  0  0  0  0  0  0  0  0
   24.6788  -20.1909   -7.8349 C   0  0  2  0  0  0  0  0  0  0  0  0
   24.7118  -20.8848   -6.4562 C   0  0  0  0  0  0  0  0  0  0  0  0
   23.5626  -20.7310   -8.6520 C   0  0  2  0  0  0  0  0  0  0  0  0
   23.5272  -19.9941   -9.9433 N   0  0  0  0  0  0  0  0  0  0  0  0
   22.2397  -20.7518   -8.0598 C   0  0  0  0  0  0  0  0  0  0  0  0
   21.5921  -19.6982   -7.8752 O   0  0  0  0  0  0  0  0  0  0  0  0
   21.6013  -21.9876   -7.6524 N   0  0  0  0  0  0  0  0  0  0  0  0
   20.2903  -22.0422   -7.0608 C   0  0  1  0  0  0  0  0  0  0  0  0
   19.2495  -21.3921   -7.9305 C   0  0  0  0  0  0  0  0  0  0  0  0
   19.0667  -22.0478   -9.2443 C   0  0  0  0  0  0  0  0  0  0  0  0
   18.4280  -23.2743   -9.3332 C   0  0  0  0  0  0  0  0  0  0  0  0
   18.2548  -23.8648  -10.5651 C   0  0  0  0  0  0  0  0  0  0  0  0
   18.6878  -23.2976  -11.7426 C   0  0  0  0  0  0  0  0  0  0  0  0
   19.3204  -22.0826  -11.6545 C   0  0  0  0  0  0  0  0  0  0  0  0
   19.4995  -21.4817  -10.4267 C   0  0  0  0  0  0  0  0  0  0  0  0
   19.9755  -23.4472   -6.7488 C   0  0  0  0  0  0  0  0  0  0  0  0
   20.8515  -24.4646   -7.0512 O   0  0  0  0  0  0  0  0  0  0  0  0
   18.8875  -23.7751   -6.1919 O   0  0  0  0  0  0  0  0  0  0  0  0
  2  1  1  6
  3  2  1  0
  3  4  1  0
  4  5  2  0
  5  6  1  0
  7  6  2  0
  8  7  1  0
  9  4  1  0
  9  8  2  0
 10  2  1  0
 10 11  2  0
 13 14  1  0
 13 12  1  0
 14 16  1  0
 14 15  1  1
 16 18  1  0
 16 17  1  6
 17 10  1  0
 18 20  1  0
 19 18  2  0
 20 21  1  0
 21 29  1  0
 22 23  1  0
 21 22  1  6
 23 28  2  0
 24 25  2  0
 24 23  1  0
 25 26  1  0
 26 27  2  0
 28 27  1  0
 29 31  2  0
 29 30  1  0
M  END
$$$$
