FIF.pdb
     RDKit          3D

 31 32  0  0  1  0  0  0  0  0999 V2000
   28.6705  -20.4505  -14.6821 N   0  0  0  0  0  0  0  0  0  0  0  0
   27.6896  -19.7485  -13.9131 C   0  0  1  0  0  0  0  0  0  0  0  0
   26.6632  -19.0487  -14.7873 C   0  0  0  0  0  0  0  0  0  0  0  0
   27.2773  -17.9413  -15.5637 C   0  0  0  0  0  0  0  0  0  0  0  0
   27.3852  -16.7032  -14.9816 C   0  0  0  0  0  0  0  0  0  0  0  0
   27.9594  -15.6938  -15.7259 C   0  0  0  0  0  0  0  0  0  0  0  0
   28.4093  -15.9213  -17.0101 C   0  0  0  0  0  0  0  0  0  0  0  0
   28.3007  -17.1621  -17.5922 C   0  0  0  0  0  0  0  0  0  0  0  0
   27.7233  -18.1793  -16.8451 C   0  0  0  0  0  0  0  0  0  0  0  0
   26.9428  -20.6342  -12.9850 C   0  0  0  0  0  0  0  0  0  0  0  0
   26.6601  -21.7996  -13.3912 O   0  0  0  0  0  0  0  0  0  0  0  0
   26.7846  -20.4075   -7.4532 C   0  0  0  0  0  0  0  0  0  0  0  0
   26.6359  -20.9008   -8.8349 C   0  0  0  0  0  0  0  0  0  0  0  0
   25.4052  -20.6220   -9.5974 C   0  0  2  0  0  0  0  0  0  0  0  0
   24.2248  -21.3236   -8.8919 C   0  0  0  0  0  0  0  0  0  0  0  0
   25.3518  -20.8780  -11.0593 C   0  0  2  0  0  0  0  0  0  0  0  0
   26.5395  -20.2434  -11.6903 N   0  0  0  0  0  0  0  0  0  0  0  0
   24.1495  -20.4901  -11.7700 C   0  0  0  0  0  0  0  0  0  0  0  0
   23.9442  -19.3024  -12.1030 O   0  0  0  0  0  0  0  0  0  0  0  0
   23.1274  -21.4526  -12.1302 N   0  0  0  0  0  0  0  0  0  0  0  0
   22.0775  -21.1743  -13.0746 C   0  0  1  0  0  0  0  0  0  0  0  0
   22.6168  -20.8455  -14.4396 C   0  0  0  0  0  0  0  0  0  0  0  0
   21.5722  -20.6394  -15.4670 C   0  0  0  0  0  0  0  0  0  0  0  0
   21.1568  -19.3595  -15.7979 C   0  0  0  0  0  0  0  0  0  0  0  0
   20.1925  -19.1847  -16.7654 C   0  0  0  0  0  0  0  0  0  0  0  0
   19.6014  -20.2290  -17.4405 C   0  0  0  0  0  0  0  0  0  0  0  0
   20.0130  -21.4967  -17.1128 C   0  0  0  0  0  0  0  0  0  0  0  0
   20.9777  -21.6841  -16.1459 C   0  0  0  0  0  0  0  0  0  0  0  0
   21.1465  -22.3160  -13.0896 C   0  0  0  0  0  0  0  0  0  0  0  0
   19.7833  -22.1318  -13.1301 O   0  0  0  0  0  0  0  0  0  0  0  0
   21.5622  -23.5110  -13.0646 O   0  0  0  0  0  0  0  0  0  0  0  0
  2  1  1  6
  3  2  1  0
  3  4  1  0
  4  5  2  0
  5  6  1  0
  7  6  2  0
  8  7  1  0
  9  4  1  0
  9  8  2  0
 10  2  1  0
 10 11  2  0
 13 14  1  0
 13 12  1  0
 14 16  1  0
 14 15  1  1
 16 18  1  0
 16 17  1  6
 17 10  1  0
 18 20  1  0
 19 18  2  0
 20 21  1  0
 21 29  1  0
 22 23  1  0
 21 22  1  6
 23 28  2  0
 24 25  2  0
 24 23  1  0
 25 26  1  0
 26 27  2  0
 28 27  1  0
 29 31  2  0
 29 30  1  0
M  END
$$$$
