FIF.pdb
     RDKit          3D

 31 32  0  0  1  0  0  0  0  0999 V2000
   26.4913  -17.9076  -16.6145 N   0  0  0  0  0  0  0  0  0  0  0  0
   27.2639  -18.5899  -15.6225 C   0  0  1  0  0  0  0  0  0  0  0  0
   28.4845  -17.7942  -15.1933 C   0  0  0  0  0  0  0  0  0  0  0  0
   29.4214  -17.5854  -16.3269 C   0  0  0  0  0  0  0  0  0  0  0  0
   29.9510  -18.6816  -16.9604 C   0  0  0  0  0  0  0  0  0  0  0  0
   30.8181  -18.4578  -18.0095 C   0  0  0  0  0  0  0  0  0  0  0  0
   31.1413  -17.1770  -18.4075 C   0  0  0  0  0  0  0  0  0  0  0  0
   30.6102  -16.0796  -17.7721 C   0  0  0  0  0  0  0  0  0  0  0  0
   29.7374  -16.3024  -16.7163 C   0  0  0  0  0  0  0  0  0  0  0  0
   26.4864  -18.8944  -14.3951 C   0  0  0  0  0  0  0  0  0  0  0  0
   25.9369  -17.9234  -13.7965 O   0  0  0  0  0  0  0  0  0  0  0  0
   22.3943  -19.8763  -14.1927 C   0  0  0  0  0  0  0  0  0  0  0  0
   23.4583  -20.8804  -14.3776 C   0  0  0  0  0  0  0  0  0  0  0  0
   24.2895  -21.3043  -13.2361 C   0  0  2  0  0  0  0  0  0  0  0  0
   23.3556  -21.6859  -12.0676 C   0  0  0  0  0  0  0  0  0  0  0  0
   25.3928  -20.4389  -12.7466 C   0  0  2  0  0  0  0  0  0  0  0  0
   26.3335  -20.1963  -13.8726 N   0  0  0  0  0  0  0  0  0  0  0  0
   26.1271  -20.8770  -11.5762 C   0  0  0  0  0  0  0  0  0  0  0  0
   27.2972  -21.3088  -11.6652 O   0  0  0  0  0  0  0  0  0  0  0  0
   25.5473  -20.8382  -10.2483 N   0  0  0  0  0  0  0  0  0  0  0  0
   26.2738  -21.1949   -9.0581 C   0  0  1  0  0  0  0  0  0  0  0  0
   27.5307  -20.3845   -8.8981 C   0  0  0  0  0  0  0  0  0  0  0  0
   27.8905  -20.1015   -7.4910 C   0  0  0  0  0  0  0  0  0  0  0  0
   28.9107  -20.8065   -6.8726 C   0  0  0  0  0  0  0  0  0  0  0  0
   29.2413  -20.5218   -5.5664 C   0  0  0  0  0  0  0  0  0  0  0  0
   28.6050  -19.5562   -4.8191 C   0  0  0  0  0  0  0  0  0  0  0  0
   27.5946  -18.8579   -5.4318 C   0  0  0  0  0  0  0  0  0  0  0  0
   27.2548  -19.1340   -6.7390 C   0  0  0  0  0  0  0  0  0  0  0  0
   25.3675  -21.0749   -7.9027 C   0  0  0  0  0  0  0  0  0  0  0  0
   24.2008  -20.3488   -7.9764 O   0  0  0  0  0  0  0  0  0  0  0  0
   25.6257  -21.6330   -6.7967 O   0  0  0  0  0  0  0  0  0  0  0  0
  2  1  1  6
  3  2  1  0
  3  4  1  0
  4  5  2  0
  5  6  1  0
  7  6  2  0
  8  7  1  0
  9  4  1  0
  9  8  2  0
 10  2  1  0
 10 11  2  0
 13 14  1  0
 13 12  1  0
 14 16  1  0
 14 15  1  1
 16 18  1  0
 16 17  1  6
 17 10  1  0
 18 20  1  0
 19 18  2  0
 20 21  1  0
 21 29  1  0
 22 23  1  0
 21 22  1  1
 23 28  2  0
 24 25  2  0
 24 23  1  0
 25 26  1  0
 26 27  2  0
 28 27  1  0
 29 31  2  0
 29 30  1  0
M  END
$$$$
