FIF.pdb
     RDKit          3D

 31 32  0  0  1  0  0  0  0  0999 V2000
   28.5373  -21.1517   -9.3055 N   0  0  0  0  0  0  0  0  0  0  0  0
   27.1474  -20.8577   -9.1376 C   0  0  1  0  0  0  0  0  0  0  0  0
   26.9153  -19.6727   -8.2159 C   0  0  0  0  0  0  0  0  0  0  0  0
   27.4786  -19.9192   -6.8638 C   0  0  0  0  0  0  0  0  0  0  0  0
   28.5284  -19.1480   -6.4318 C   0  0  0  0  0  0  0  0  0  0  0  0
   29.0313  -19.3992   -5.1722 C   0  0  0  0  0  0  0  0  0  0  0  0
   28.4975  -20.3908   -4.3752 C   0  0  0  0  0  0  0  0  0  0  0  0
   27.4459  -21.1627   -4.8091 C   0  0  0  0  0  0  0  0  0  0  0  0
   26.9382  -20.9118   -6.0761 C   0  0  0  0  0  0  0  0  0  0  0  0
   26.4631  -20.5554  -10.4197 C   0  0  0  0  0  0  0  0  0  0  0  0
   26.8819  -19.5628  -11.0848 O   0  0  0  0  0  0  0  0  0  0  0  0
   25.2685  -23.4744  -15.3879 C   0  0  0  0  0  0  0  0  0  0  0  0
   24.9351  -22.2904  -14.5744 C   0  0  0  0  0  0  0  0  0  0  0  0
   25.2325  -22.2705  -13.1305 C   0  0  2  0  0  0  0  0  0  0  0  0
   24.6329  -23.5413  -12.4913 C   0  0  0  0  0  0  0  0  0  0  0  0
   24.8972  -21.0790  -12.3099 C   0  0  2  0  0  0  0  0  0  0  0  0
   25.3838  -21.3118  -10.9240 N   0  0  0  0  0  0  0  0  0  0  0  0
   23.5142  -20.6457  -12.2807 C   0  0  0  0  0  0  0  0  0  0  0  0
   22.7666  -20.9178  -11.3162 O   0  0  0  0  0  0  0  0  0  0  0  0
   22.9281  -19.8786  -13.3619 N   0  0  0  0  0  0  0  0  0  0  0  0
   21.5606  -19.4296  -13.3613 C   0  0  1  0  0  0  0  0  0  0  0  0
   21.3807  -18.1625  -14.1514 C   0  0  0  0  0  0  0  0  0  0  0  0
   20.4153  -17.2126  -13.5557 C   0  0  0  0  0  0  0  0  0  0  0  0
   20.6785  -15.8521  -13.5566 C   0  0  0  0  0  0  0  0  0  0  0  0
   19.7635  -14.9805  -13.0094 C   0  0  0  0  0  0  0  0  0  0  0  0
   18.5741  -15.3877  -12.4479 C   0  0  0  0  0  0  0  0  0  0  0  0
   18.3133  -16.7353  -12.4473 C   0  0  0  0  0  0  0  0  0  0  0  0
   19.2218  -17.6175  -12.9922 C   0  0  0  0  0  0  0  0  0  0  0  0
   20.7068  -20.5286  -13.8448 C   0  0  0  0  0  0  0  0  0  0  0  0
   19.4894  -20.8022  -13.2642 O   0  0  0  0  0  0  0  0  0  0  0  0
   21.0585  -21.2655  -14.8116 O   0  0  0  0  0  0  0  0  0  0  0  0
  2  1  1  6
  3  2  1  0
  3  4  1  0
  4  5  2  0
  5  6  1  0
  7  6  2  0
  8  7  1  0
  9  4  1  0
  9  8  2  0
 10  2  1  0
 10 11  2  0
 13 14  1  0
 13 12  1  0
 14 16  1  0
 14 15  1  1
 16 18  1  0
 16 17  1  1
 17 10  1  0
 18 20  1  0
 19 18  2  0
 20 21  1  0
 21 29  1  0
 22 23  1  0
 21 22  1  6
 23 28  2  0
 24 25  2  0
 24 23  1  0
 25 26  1  0
 26 27  2  0
 28 27  1  0
 29 31  2  0
 29 30  1  0
M  END
$$$$
