FIF.pdb
     RDKit          3D

 31 32  0  0  1  0  0  0  0  0999 V2000
   25.8026  -35.9242  -11.3620 N   0  0  0  0  0  0  0  0  0  0  0  0
   26.0095  -36.4467  -10.0464 C   0  0  1  0  0  0  0  0  0  0  0  0
   26.8777  -37.6931  -10.0504 C   0  0  0  0  0  0  0  0  0  0  0  0
   26.1746  -38.8414  -10.6775 C   0  0  0  0  0  0  0  0  0  0  0  0
   26.6129  -39.3040  -11.8929 C   0  0  0  0  0  0  0  0  0  0  0  0
   25.9411  -40.3714  -12.4516 C   0  0  0  0  0  0  0  0  0  0  0  0
   24.8666  -40.9529  -11.8108 C   0  0  0  0  0  0  0  0  0  0  0  0
   24.4285  -40.4886  -10.5931 C   0  0  0  0  0  0  0  0  0  0  0  0
   25.1030  -39.4148  -10.0291 C   0  0  0  0  0  0  0  0  0  0  0  0
   26.6515  -35.4690   -9.1323 C   0  0  0  0  0  0  0  0  0  0  0  0
   27.4231  -34.6077   -9.6478 O   0  0  0  0  0  0  0  0  0  0  0  0
   23.7467  -32.2507   -6.5090 C   0  0  0  0  0  0  0  0  0  0  0  0
   24.8956  -32.9374   -7.1282 C   0  0  0  0  0  0  0  0  0  0  0  0
   25.9057  -33.6058   -6.2876 C   0  0  2  0  0  0  0  0  0  0  0  0
   26.4591  -32.5768   -5.2786 C   0  0  0  0  0  0  0  0  0  0  0  0
   27.0220  -34.3615   -6.9108 C   0  0  2  0  0  0  0  0  0  0  0  0
   26.4446  -35.4554   -7.7364 N   0  0  0  0  0  0  0  0  0  0  0  0
   28.0493  -34.8929   -6.0370 C   0  0  0  0  0  0  0  0  0  0  0  0
   27.8563  -35.9238   -5.3563 O   0  0  0  0  0  0  0  0  0  0  0  0
   29.3473  -34.2610   -5.9068 N   0  0  0  0  0  0  0  0  0  0  0  0
   30.4078  -34.7944   -5.0930 C   0  0  1  0  0  0  0  0  0  0  0  0
   31.7357  -34.1625   -5.4085 C   0  0  0  0  0  0  0  0  0  0  0  0
   32.8583  -34.6809   -4.5958 C   0  0  0  0  0  0  0  0  0  0  0  0
   33.0296  -34.2595   -3.2868 C   0  0  0  0  0  0  0  0  0  0  0  0
   34.0722  -34.7615   -2.5402 C   0  0  0  0  0  0  0  0  0  0  0  0
   34.9768  -35.6786   -3.0262 C   0  0  0  0  0  0  0  0  0  0  0  0
   34.8070  -36.0960   -4.3228 C   0  0  0  0  0  0  0  0  0  0  0  0
   33.7668  -35.6006   -5.0799 C   0  0  0  0  0  0  0  0  0  0  0  0
   30.0296  -34.6487   -3.6765 C   0  0  0  0  0  0  0  0  0  0  0  0
   30.1016  -35.7076   -2.8005 O   0  0  0  0  0  0  0  0  0  0  0  0
   29.6224  -33.5455   -3.2091 O   0  0  0  0  0  0  0  0  0  0  0  0
  2  1  1  6
  3  2  1  0
  3  4  1  0
  4  5  2  0
  5  6  1  0
  7  6  2  0
  8  7  1  0
  9  4  1  0
  9  8  2  0
 10  2  1  0
 10 11  2  0
 13 14  1  0
 13 12  1  0
 14 16  1  0
 14 15  1  6
 16 18  1  0
 16 17  1  1
 17 10  1  0
 18 20  1  0
 19 18  2  0
 20 21  1  0
 21 29  1  0
 22 23  1  0
 21 22  1  1
 23 28  2  0
 24 25  2  0
 24 23  1  0
 25 26  1  0
 26 27  2  0
 28 27  1  0
 29 31  2  0
 29 30  1  0
M  END
$$$$
