FIF.pdb
     RDKit          3D

 31 32  0  0  1  0  0  0  0  0999 V2000
   28.4954  -20.3304  -15.6916 N   0  0  0  0  0  0  0  0  0  0  0  0
   27.7731  -19.5389  -14.7439 C   0  0  1  0  0  0  0  0  0  0  0  0
   26.7814  -18.6016  -15.4113 C   0  0  0  0  0  0  0  0  0  0  0  0
   27.4734  -17.4878  -16.1092 C   0  0  0  0  0  0  0  0  0  0  0  0
   27.6469  -16.2973  -15.4490 C   0  0  0  0  0  0  0  0  0  0  0  0
   28.2927  -15.2807  -16.1215 C   0  0  0  0  0  0  0  0  0  0  0  0
   28.7479  -15.4551  -17.4121 C   0  0  0  0  0  0  0  0  0  0  0  0
   28.5735  -16.6483  -18.0724 C   0  0  0  0  0  0  0  0  0  0  0  0
   27.9240  -17.6726  -17.3977 C   0  0  0  0  0  0  0  0  0  0  0  0
   27.0118  -20.3593  -13.7688 C   0  0  0  0  0  0  0  0  0  0  0  0
   26.6136  -21.4991  -14.1503 O   0  0  0  0  0  0  0  0  0  0  0  0
   28.5496  -21.2303   -8.7949 C   0  0  0  0  0  0  0  0  0  0  0  0
   27.8523  -21.3483  -10.0890 C   0  0  0  0  0  0  0  0  0  0  0  0
   26.4725  -20.8510  -10.2401 C   0  0  2  0  0  0  0  0  0  0  0  0
   25.5608  -21.6415   -9.2773 C   0  0  0  0  0  0  0  0  0  0  0  0
   25.8460  -20.7677  -11.5840 C   0  0  2  0  0  0  0  0  0  0  0  0
   26.7157  -19.9342  -12.4562 N   0  0  0  0  0  0  0  0  0  0  0  0
   24.4759  -20.3011  -11.6634 C   0  0  0  0  0  0  0  0  0  0  0  0
   24.1570  -19.1507  -11.2914 O   0  0  0  0  0  0  0  0  0  0  0  0
   23.4092  -21.1384  -12.1750 N   0  0  0  0  0  0  0  0  0  0  0  0
   22.0541  -20.6810  -12.3370 C   0  0  1  0  0  0  0  0  0  0  0  0
   21.9688  -19.4655  -13.2188 C   0  0  0  0  0  0  0  0  0  0  0  0
   22.3882  -19.7048  -14.6174 C   0  0  0  0  0  0  0  0  0  0  0  0
   23.6585  -19.3464  -15.0397 C   0  0  0  0  0  0  0  0  0  0  0  0
   24.0372  -19.5876  -16.3415 C   0  0  0  0  0  0  0  0  0  0  0  0
   23.2112  -20.1774  -17.2719 C   0  0  0  0  0  0  0  0  0  0  0  0
   21.9531  -20.5325  -16.8535 C   0  0  0  0  0  0  0  0  0  0  0  0
   21.5627  -20.2960  -15.5527 C   0  0  0  0  0  0  0  0  0  0  0  0
   21.2373  -21.8027  -12.8322 C   0  0  0  0  0  0  0  0  0  0  0  0
   19.8654  -21.7181  -12.9002 O   0  0  0  0  0  0  0  0  0  0  0  0
   21.7636  -22.8886  -13.2134 O   0  0  0  0  0  0  0  0  0  0  0  0
  2  1  1  6
  3  2  1  0
  3  4  1  0
  4  5  2  0
  5  6  1  0
  7  6  2  0
  8  7  1  0
  9  4  1  0
  9  8  2  0
 10  2  1  0
 10 11  2  0
 13 14  1  0
 13 12  1  0
 14 16  1  0
 14 15  1  1
 16 18  1  0
 16 17  1  6
 17 10  1  0
 18 20  1  0
 19 18  2  0
 20 21  1  0
 21 29  1  0
 22 23  1  0
 21 22  1  6
 23 28  2  0
 24 25  2  0
 24 23  1  0
 25 26  1  0
 26 27  2  0
 28 27  1  0
 29 31  2  0
 29 30  1  0
M  END
$$$$
