FIF.pdb
     RDKit          3D

 31 32  0  0  1  0  0  0  0  0999 V2000
   22.8015  -22.0015  -13.2622 N   0  0  0  0  0  0  0  0  0  0  0  0
   23.5963  -20.9077  -12.7947 C   0  0  1  0  0  0  0  0  0  0  0  0
   22.7528  -19.7978  -12.1913 C   0  0  0  0  0  0  0  0  0  0  0  0
   22.0156  -19.0464  -13.2392 C   0  0  0  0  0  0  0  0  0  0  0  0
   20.6511  -18.9375  -13.1414 C   0  0  0  0  0  0  0  0  0  0  0  0
   19.9928  -18.2342  -14.1287 C   0  0  0  0  0  0  0  0  0  0  0  0
   20.6821  -17.6609  -15.1772 C   0  0  0  0  0  0  0  0  0  0  0  0
   22.0491  -17.7708  -15.2741 C   0  0  0  0  0  0  0  0  0  0  0  0
   22.7136  -18.4779  -14.2819 C   0  0  0  0  0  0  0  0  0  0  0  0
   24.5868  -21.3131  -11.7662 C   0  0  0  0  0  0  0  0  0  0  0  0
   24.1849  -22.0725  -10.8362 O   0  0  0  0  0  0  0  0  0  0  0  0
   30.7087  -21.9058  -10.8836 C   0  0  0  0  0  0  0  0  0  0  0  0
   29.3426  -21.7963  -10.3391 C   0  0  0  0  0  0  0  0  0  0  0  0
   28.2323  -21.3442  -11.1974 C   0  0  2  0  0  0  0  0  0  0  0  0
   28.6133  -19.9790  -11.8092 C   0  0  0  0  0  0  0  0  0  0  0  0
   26.8447  -21.2983  -10.6702 C   0  0  2  0  0  0  0  0  0  0  0  0
   25.9355  -20.8976  -11.7768 N   0  0  0  0  0  0  0  0  0  0  0  0
   26.5920  -20.4774   -9.5026 C   0  0  0  0  0  0  0  0  0  0  0  0
   26.0342  -19.3625   -9.5985 O   0  0  0  0  0  0  0  0  0  0  0  0
   26.9703  -20.9029   -8.1697 N   0  0  0  0  0  0  0  0  0  0  0  0
   26.8449  -20.0639   -7.0069 C   0  0  1  0  0  0  0  0  0  0  0  0
   26.8024  -20.8638   -5.7339 C   0  0  0  0  0  0  0  0  0  0  0  0
   27.8234  -20.4680   -4.7388 C   0  0  0  0  0  0  0  0  0  0  0  0
   27.5275  -19.5252   -3.7674 C   0  0  0  0  0  0  0  0  0  0  0  0
   28.4852  -19.1775   -2.8410 C   0  0  0  0  0  0  0  0  0  0  0  0
   29.7495  -19.7224   -2.8202 C   0  0  0  0  0  0  0  0  0  0  0  0
   30.0425  -20.6564   -3.7823 C   0  0  0  0  0  0  0  0  0  0  0  0
   29.0918  -21.0125   -4.7150 C   0  0  0  0  0  0  0  0  0  0  0  0
   27.9375  -19.0757   -7.0226 C   0  0  0  0  0  0  0  0  0  0  0  0
   27.7806  -17.8217   -6.4779 O   0  0  0  0  0  0  0  0  0  0  0  0
   29.0627  -19.3393   -7.5383 O   0  0  0  0  0  0  0  0  0  0  0  0
  2  1  1  1
  3  2  1  0
  3  4  1  0
  4  5  2  0
  5  6  1  0
  7  6  2  0
  8  7  1  0
  9  4  1  0
  9  8  2  0
 10  2  1  0
 10 11  2  0
 13 14  1  0
 13 12  1  0
 14 16  1  0
 14 15  1  1
 16 18  1  0
 16 17  1  6
 17 10  1  0
 18 20  1  0
 19 18  2  0
 20 21  1  0
 21 29  1  0
 22 23  1  0
 21 22  1  1
 23 28  2  0
 24 25  2  0
 24 23  1  0
 25 26  1  0
 26 27  2  0
 28 27  1  0
 29 31  2  0
 29 30  1  0
M  END
$$$$
