PTR.pdb
     RDKit          3D

 26 26  0  0  1  0  0  0  0  0999 V2000
    8.8688  -14.3943   17.8229 N   0  0  0  0  0  0  0  0  0  0  0  0
    8.4587  -13.2851   16.9747 C   0  0  0  0  0  0  0  0  0  0  0  0
    7.3686  -12.5392   17.6953 C   0  0  0  0  0  0  0  0  0  0  0  0
    7.1015  -13.4275   18.9199 C   0  0  0  0  0  0  0  0  0  0  0  0
    8.5097  -13.9387   19.1547 C   0  0  1  0  0  0  0  0  0  0  0  0
    8.6042  -14.9941   20.1638 C   0  0  0  0  0  0  0  0  0  0  0  0
    8.1968  -14.8595   21.3477 O   0  0  0  0  0  0  0  0  0  0  0  0
    8.2419  -19.0284   19.3274 C   0  0  0  0  0  0  0  0  0  0  0  0
    9.4813  -18.6675   20.1116 C   0  0  1  0  0  0  0  0  0  0  0  0
   10.5947  -18.7424   19.2553 O   0  0  0  0  0  0  0  0  0  0  0  0
    9.3723  -17.3074   20.7481 C   0  0  2  0  0  0  0  0  0  0  0  0
    9.1825  -16.2447   19.8136 N   0  0  0  0  0  0  0  0  0  0  0  0
   10.5342  -17.0486   21.6637 C   0  0  0  0  0  0  0  0  0  0  0  0
   11.5547  -16.4076   21.2791 O   0  0  0  0  0  0  0  0  0  0  0  0
   10.4480  -14.8727   30.1075 N   0  0  0  0  0  0  0  0  0  0  0  0
    9.9088  -14.2290   28.9820 C   0  0  0  0  0  0  0  0  0  0  0  0
    8.8862  -13.4384   29.1249 N   0  0  0  0  0  0  0  0  0  0  0  0
   10.4776  -14.4408   27.6994 N   0  0  0  0  0  0  0  0  0  0  0  0
   10.5689  -15.7602   27.1250 C   0  0  0  0  0  0  0  0  0  0  0  0
   11.1958  -15.7357   25.7247 C   0  0  0  0  0  0  0  0  0  0  0  0
   11.3293  -17.1712   25.3069 C   0  0  0  0  0  0  0  0  0  0  0  0
   11.6887  -17.3722   23.8668 C   0  0  2  0  0  0  0  0  0  0  0  0
   10.5398  -17.5122   23.0035 N   0  0  0  0  0  0  0  0  0  0  0  0
   12.4452  -18.6662   23.8044 C   0  0  0  0  0  0  0  0  0  0  0  0
   13.7818  -18.7162   24.1526 O   0  0  0  0  0  0  0  0  0  0  0  0
   11.8892  -19.7312   23.4365 O   0  0  0  0  0  0  0  0  0  0  0  0
  2  1  1  0
  3  2  1  0
  4  3  1  0
  4  5  1  0
  5  1  1  0
  5  6  1  1
  6  7  2  0
  9  8  1  6
 10  9  1  0
 11  9  1  0
 11 12  1  6
 12  6  1  0
 13 11  1  0
 14 13  2  0
 16 15  1  0
 17 16  2  0
 18 16  1  0
 19 18  1  0
 20 19  1  0
 20 21  1  0
 22 21  1  1
 22 24  1  0
 22 23  1  0
 23 13  1  0
 24 25  1  0
 26 24  2  0
M  END
$$$$
