PTR.pdb
     RDKit          3D

 26 26  0  0  1  0  0  0  0  0999 V2000
    8.4324  -16.9400   16.9195 N   0  0  0  0  0  0  0  0  0  0  0  0
    8.5425  -17.3815   15.5371 C   0  0  0  0  0  0  0  0  0  0  0  0
    9.2440  -16.2961   14.7667 C   0  0  0  0  0  0  0  0  0  0  0  0
    9.3526  -15.1630   15.7983 C   0  0  0  0  0  0  0  0  0  0  0  0
    9.5307  -15.9984   17.0513 C   0  0  1  0  0  0  0  0  0  0  0  0
    9.4785  -15.2312   18.2962 C   0  0  0  0  0  0  0  0  0  0  0  0
   10.3712  -14.4143   18.6448 O   0  0  0  0  0  0  0  0  0  0  0  0
    7.1456  -12.6567   19.4854 C   0  0  0  0  0  0  0  0  0  0  0  0
    7.0506  -13.7894   20.4800 C   0  0  1  0  0  0  0  0  0  0  0  0
    5.8558  -14.4946   20.2480 O   0  0  0  0  0  0  0  0  0  0  0  0
    8.2456  -14.7028   20.4136 C   0  0  2  0  0  0  0  0  0  0  0  0
    8.3731  -15.3998   19.1740 N   0  0  0  0  0  0  0  0  0  0  0  0
    8.2726  -15.6378   21.5885 C   0  0  0  0  0  0  0  0  0  0  0  0
    8.0736  -16.8800   21.4550 O   0  0  0  0  0  0  0  0  0  0  0  0
   10.0346  -14.1203   30.1498 N   0  0  0  0  0  0  0  0  0  0  0  0
   10.7304  -15.1192   29.4498 C   0  0  0  0  0  0  0  0  0  0  0  0
   11.8976  -15.5044   29.8748 N   0  0  0  0  0  0  0  0  0  0  0  0
   10.1619  -15.7027   28.2880 N   0  0  0  0  0  0  0  0  0  0  0  0
    8.8964  -15.2542   27.7626 C   0  0  0  0  0  0  0  0  0  0  0  0
    8.4220  -16.1200   26.5879 C   0  0  0  0  0  0  0  0  0  0  0  0
    8.5877  -15.2746   25.3586 C   0  0  0  0  0  0  0  0  0  0  0  0
    8.2343  -15.9616   24.0754 C   0  0  2  0  0  0  0  0  0  0  0  0
    8.5226  -15.1695   22.9031 N   0  0  0  0  0  0  0  0  0  0  0  0
    6.7490  -16.1690   24.1109 C   0  0  0  0  0  0  0  0  0  0  0  0
    6.2108  -17.2959   24.7032 O   0  0  0  0  0  0  0  0  0  0  0  0
    5.9598  -15.3311   23.6070 O   0  0  0  0  0  0  0  0  0  0  0  0
  2  1  1  0
  3  2  1  0
  4  3  1  0
  4  5  1  0
  5  1  1  0
  5  6  1  1
  6  7  2  0
  9  8  1  6
 10  9  1  0
 11  9  1  0
 11 12  1  6
 12  6  1  0
 13 11  1  0
 14 13  2  0
 16 15  1  0
 17 16  2  0
 18 16  1  0
 19 18  1  0
 20 19  1  0
 20 21  1  0
 22 21  1  1
 22 24  1  0
 22 23  1  0
 23 13  1  0
 24 25  1  0
 26 24  2  0
M  END
$$$$
