PTR.pdb
     RDKit          3D

 26 26  0  0  1  0  0  0  0  0999 V2000
    8.6339  -14.9976   17.5309 N   0  0  0  0  0  0  0  0  0  0  0  0
    8.7127  -14.1224   16.3708 C   0  0  0  0  0  0  0  0  0  0  0  0
    8.1517  -12.7846   16.7704 C   0  0  0  0  0  0  0  0  0  0  0  0
    7.6070  -13.0525   18.1817 C   0  0  0  0  0  0  0  0  0  0  0  0
    8.6356  -14.0658   18.6452 C   0  0  1  0  0  0  0  0  0  0  0  0
    8.3159  -14.7033   19.9229 C   0  0  0  0  0  0  0  0  0  0  0  0
    8.2773  -14.0815   21.0172 O   0  0  0  0  0  0  0  0  0  0  0  0
    5.9202  -18.1724   19.9488 C   0  0  0  0  0  0  0  0  0  0  0  0
    7.1012  -18.1720   20.8903 C   0  0  1  0  0  0  0  0  0  0  0  0
    8.1013  -19.0070   20.3600 O   0  0  0  0  0  0  0  0  0  0  0  0
    7.6255  -16.7828   21.1401 C   0  0  2  0  0  0  0  0  0  0  0  0
    8.0311  -16.0957   19.9561 N   0  0  0  0  0  0  0  0  0  0  0  0
    8.7090  -16.7969   22.1799 C   0  0  0  0  0  0  0  0  0  0  0  0
    9.9300  -16.9046   21.8671 O   0  0  0  0  0  0  0  0  0  0  0  0
    9.6166  -15.3410   30.2095 N   0  0  0  0  0  0  0  0  0  0  0  0
   10.8586  -14.7854   29.8623 C   0  0  0  0  0  0  0  0  0  0  0  0
   11.6716  -14.3977   30.8005 N   0  0  0  0  0  0  0  0  0  0  0  0
   11.2220  -14.6495   28.4974 N   0  0  0  0  0  0  0  0  0  0  0  0
   10.2390  -14.7269   27.4455 C   0  0  0  0  0  0  0  0  0  0  0  0
   10.0068  -16.1705   26.9802 C   0  0  0  0  0  0  0  0  0  0  0  0
    8.9957  -16.0902   25.8737 C   0  0  0  0  0  0  0  0  0  0  0  0
    9.4377  -16.6975   24.5778 C   0  0  2  0  0  0  0  0  0  0  0  0
    8.4117  -16.6900   23.5619 N   0  0  0  0  0  0  0  0  0  0  0  0
    9.7488  -18.1342   24.8774 C   0  0  0  0  0  0  0  0  0  0  0  0
   10.9950  -18.4994   25.3506 O   0  0  0  0  0  0  0  0  0  0  0  0
    8.8922  -19.0375   24.7073 O   0  0  0  0  0  0  0  0  0  0  0  0
  2  1  1  0
  3  2  1  0
  4  3  1  0
  4  5  1  0
  5  1  1  0
  5  6  1  1
  6  7  2  0
  9  8  1  6
 10  9  1  0
 11  9  1  0
 11 12  1  6
 12  6  1  0
 13 11  1  0
 14 13  2  0
 16 15  1  0
 17 16  2  0
 18 16  1  0
 19 18  1  0
 20 19  1  0
 20 21  1  0
 22 21  1  1
 22 24  1  0
 22 23  1  0
 23 13  1  0
 24 25  1  0
 26 24  2  0
M  END
$$$$
