PTR.pdb
     RDKit          3D

 26 26  0  0  1  0  0  0  0  0999 V2000
    8.9738  -14.6340   14.6509 N   0  0  0  0  0  0  0  0  0  0  0  0
    8.6158  -15.5418   13.5712 C   0  0  0  0  0  0  0  0  0  0  0  0
    8.6285  -16.9396   14.1281 C   0  0  0  0  0  0  0  0  0  0  0  0
    9.1861  -16.7358   15.5449 C   0  0  0  0  0  0  0  0  0  0  0  0
    8.5904  -15.3731   15.8413 C   0  0  1  0  0  0  0  0  0  0  0  0
    9.0804  -14.7601   17.0763 C   0  0  0  0  0  0  0  0  0  0  0  0
   10.1479  -14.0956   17.1441 O   0  0  0  0  0  0  0  0  0  0  0  0
    7.0042  -12.7106   19.8148 C   0  0  0  0  0  0  0  0  0  0  0  0
    7.6917  -13.9074   20.4281 C   0  0  1  0  0  0  0  0  0  0  0  0
    6.7252  -14.8926   20.7000 O   0  0  0  0  0  0  0  0  0  0  0  0
    8.7866  -14.4452   19.5455 C   0  0  2  0  0  0  0  0  0  0  0  0
    8.3301  -14.9088   18.2745 N   0  0  0  0  0  0  0  0  0  0  0  0
    9.5939  -15.4867   20.2658 C   0  0  0  0  0  0  0  0  0  0  0  0
    9.4230  -16.7228   20.0576 O   0  0  0  0  0  0  0  0  0  0  0  0
   16.6410  -16.1574   18.6163 N   0  0  0  0  0  0  0  0  0  0  0  0
   15.9041  -15.0002   18.3163 C   0  0  0  0  0  0  0  0  0  0  0  0
   16.1687  -14.3362   17.2299 N   0  0  0  0  0  0  0  0  0  0  0  0
   14.8786  -14.5612   19.1932 N   0  0  0  0  0  0  0  0  0  0  0  0
   14.4027  -15.3925   20.2708 C   0  0  0  0  0  0  0  0  0  0  0  0
   13.2938  -14.7066   21.0798 C   0  0  0  0  0  0  0  0  0  0  0  0
   12.8126  -15.7276   22.0692 C   0  0  0  0  0  0  0  0  0  0  0  0
   11.3738  -16.1155   21.9174 C   0  0  2  0  0  0  0  0  0  0  0  0
   10.5860  -15.1308   21.2140 N   0  0  0  0  0  0  0  0  0  0  0  0
   10.8201  -16.2089   23.3085 C   0  0  0  0  0  0  0  0  0  0  0  0
    9.8546  -15.3197   23.7416 O   0  0  0  0  0  0  0  0  0  0  0  0
   11.2158  -17.0904   24.1117 O   0  0  0  0  0  0  0  0  0  0  0  0
  2  1  1  0
  3  2  1  0
  4  3  1  0
  4  5  1  0
  5  1  1  0
  5  6  1  1
  6  7  2  0
  9  8  1  6
 10  9  1  0
 11  9  1  0
 11 12  1  6
 12  6  1  0
 13 11  1  0
 14 13  2  0
 16 15  1  0
 17 16  2  0
 18 16  1  0
 19 18  1  0
 20 19  1  0
 20 21  1  0
 22 21  1  1
 22 24  1  0
 22 23  1  0
 23 13  1  0
 24 25  1  0
 26 24  2  0
M  END
$$$$
