PTR.pdb
     RDKit          3D

 26 26  0  0  1  0  0  0  0  0999 V2000
    8.1762  -13.0157   18.6412 N   0  0  0  0  0  0  0  0  0  0  0  0
    7.5068  -13.3789   17.4010 C   0  0  0  0  0  0  0  0  0  0  0  0
    7.1136  -14.8277   17.5029 C   0  0  0  0  0  0  0  0  0  0  0  0
    7.7712  -15.2664   18.8201 C   0  0  0  0  0  0  0  0  0  0  0  0
    7.6386  -13.9699   19.5955 C   0  0  1  0  0  0  0  0  0  0  0  0
    8.3497  -13.9605   20.8743 C   0  0  0  0  0  0  0  0  0  0  0  0
    9.5499  -13.5999   20.9974 O   0  0  0  0  0  0  0  0  0  0  0  0
    7.0651  -12.5922   24.4085 C   0  0  0  0  0  0  0  0  0  0  0  0
    7.4344  -14.0550   24.4794 C   0  0  1  0  0  0  0  0  0  0  0  0
    6.2530  -14.8168   24.5279 O   0  0  0  0  0  0  0  0  0  0  0  0
    8.3080  -14.4748   23.3271 C   0  0  2  0  0  0  0  0  0  0  0  0
    7.6718  -14.3762   22.0527 N   0  0  0  0  0  0  0  0  0  0  0  0
    8.8860  -15.8409   23.5616 C   0  0  0  0  0  0  0  0  0  0  0  0
    8.3696  -16.8781   23.0536 O   0  0  0  0  0  0  0  0  0  0  0  0
   16.9363  -14.8106   22.2697 N   0  0  0  0  0  0  0  0  0  0  0  0
   15.6326  -15.2380   21.9702 C   0  0  0  0  0  0  0  0  0  0  0  0
   14.9601  -14.6354   21.0343 N   0  0  0  0  0  0  0  0  0  0  0  0
   15.0557  -16.3200   22.6844 N   0  0  0  0  0  0  0  0  0  0  0  0
   13.7247  -16.7907   22.3917 C   0  0  0  0  0  0  0  0  0  0  0  0
   12.7200  -16.3875   23.4790 C   0  0  0  0  0  0  0  0  0  0  0  0
   11.8223  -17.5748   23.6726 C   0  0  0  0  0  0  0  0  0  0  0  0
   10.6417  -17.3276   24.5607 C   0  0  2  0  0  0  0  0  0  0  0  0
   10.0389  -16.0303   24.3647 N   0  0  0  0  0  0  0  0  0  0  0  0
   11.1653  -17.3608   25.9661 C   0  0  0  0  0  0  0  0  0  0  0  0
   11.6990  -18.5232   26.4899 O   0  0  0  0  0  0  0  0  0  0  0  0
   11.1329  -16.3414   26.6999 O   0  0  0  0  0  0  0  0  0  0  0  0
  2  1  1  0
  3  2  1  0
  4  3  1  0
  4  5  1  0
  5  1  1  0
  5  6  1  1
  6  7  2  0
  9  8  1  6
 10  9  1  0
 11  9  1  0
 11 12  1  6
 12  6  1  0
 13 11  1  0
 14 13  2  0
 16 15  1  0
 17 16  2  0
 18 16  1  0
 19 18  1  0
 20 19  1  0
 20 21  1  0
 22 21  1  6
 22 24  1  0
 22 23  1  0
 23 13  1  0
 24 25  1  0
 26 24  2  0
M  END
$$$$
