PTR.pdb
     RDKit          3D

 26 26  0  0  1  0  0  0  0  0999 V2000
    8.3508  -15.2086   17.6801 N   0  0  0  0  0  0  0  0  0  0  0  0
    8.0781  -14.8851   16.2876 C   0  0  0  0  0  0  0  0  0  0  0  0
    8.4251  -13.4358   16.0802 C   0  0  0  0  0  0  0  0  0  0  0  0
    8.7438  -12.9556   17.5042 C   0  0  0  0  0  0  0  0  0  0  0  0
    9.3567  -14.2293   18.0532 C   0  0  1  0  0  0  0  0  0  0  0  0
    9.6164  -14.1979   19.4928 C   0  0  0  0  0  0  0  0  0  0  0  0
   10.5442  -13.5255   20.0152 O   0  0  0  0  0  0  0  0  0  0  0  0
    7.2414  -13.2455   22.2501 C   0  0  0  0  0  0  0  0  0  0  0  0
    7.7363  -14.6373   22.5650 C   0  0  1  0  0  0  0  0  0  0  0  0
    6.6982  -15.5528   22.3146 O   0  0  0  0  0  0  0  0  0  0  0  0
    8.9743  -14.9883   21.7832 C   0  0  2  0  0  0  0  0  0  0  0  0
    8.7926  -14.9578   20.3673 N   0  0  0  0  0  0  0  0  0  0  0  0
    9.5497  -16.2955   22.2472 C   0  0  0  0  0  0  0  0  0  0  0  0
    9.0012  -17.4007   21.9674 O   0  0  0  0  0  0  0  0  0  0  0  0
   16.6207  -14.2720   20.6315 N   0  0  0  0  0  0  0  0  0  0  0  0
   15.4073  -14.8449   20.2173 C   0  0  0  0  0  0  0  0  0  0  0  0
   14.5693  -14.1358   19.5201 N   0  0  0  0  0  0  0  0  0  0  0  0
   15.1005  -16.1878   20.5578 N   0  0  0  0  0  0  0  0  0  0  0  0
   14.5895  -16.5362   21.8603 C   0  0  0  0  0  0  0  0  0  0  0  0
   13.2974  -17.3589   21.7699 C   0  0  0  0  0  0  0  0  0  0  0  0
   12.8540  -17.5881   23.1856 C   0  0  0  0  0  0  0  0  0  0  0  0
   11.3691  -17.5969   23.3817 C   0  0  2  0  0  0  0  0  0  0  0  0
   10.7360  -16.3502   23.0215 N   0  0  0  0  0  0  0  0  0  0  0  0
   11.1457  -17.7943   24.8520 C   0  0  0  0  0  0  0  0  0  0  0  0
   11.5812  -18.9456   25.4806 O   0  0  0  0  0  0  0  0  0  0  0  0
   10.5610  -16.9257   25.5466 O   0  0  0  0  0  0  0  0  0  0  0  0
  2  1  1  0
  3  2  1  0
  4  3  1  0
  4  5  1  0
  5  1  1  0
  5  6  1  1
  6  7  2  0
  9  8  1  6
 10  9  1  0
 11  9  1  0
 11 12  1  6
 12  6  1  0
 13 11  1  0
 14 13  2  0
 16 15  1  0
 17 16  2  0
 18 16  1  0
 19 18  1  0
 20 19  1  0
 20 21  1  0
 22 21  1  1
 22 24  1  0
 22 23  1  0
 23 13  1  0
 24 25  1  0
 26 24  2  0
M  END
$$$$
