PTR.pdb
     RDKit          3D

 26 26  0  0  1  0  0  0  0  0999 V2000
    8.3190  -15.3676   17.4345 N   0  0  0  0  0  0  0  0  0  0  0  0
    8.0063  -15.1562   16.0289 C   0  0  0  0  0  0  0  0  0  0  0  0
    8.0889  -13.6779   15.7611 C   0  0  0  0  0  0  0  0  0  0  0  0
    8.3018  -13.0898   17.1642 C   0  0  0  0  0  0  0  0  0  0  0  0
    9.1286  -14.2085   17.7681 C   0  0  1  0  0  0  0  0  0  0  0  0
    9.3641  -14.0714   19.2057 C   0  0  0  0  0  0  0  0  0  0  0  0
   10.1205  -13.1964   19.7037 O   0  0  0  0  0  0  0  0  0  0  0  0
    6.8271  -13.5570   21.8941 C   0  0  0  0  0  0  0  0  0  0  0  0
    7.6150  -14.7807   22.2979 C   0  0  1  0  0  0  0  0  0  0  0  0
    6.8022  -15.9163   22.1302 O   0  0  0  0  0  0  0  0  0  0  0  0
    8.8990  -14.9087   21.5220 C   0  0  2  0  0  0  0  0  0  0  0  0
    8.7172  -14.9605   20.1067 N   0  0  0  0  0  0  0  0  0  0  0  0
    9.7175  -16.0627   22.0253 C   0  0  0  0  0  0  0  0  0  0  0  0
    9.6137  -17.2203   21.5256 O   0  0  0  0  0  0  0  0  0  0  0  0
   16.6828  -13.9567   21.5781 N   0  0  0  0  0  0  0  0  0  0  0  0
   15.9407  -14.4057   20.4738 C   0  0  0  0  0  0  0  0  0  0  0  0
   15.9602  -13.7215   19.3680 N   0  0  0  0  0  0  0  0  0  0  0  0
   15.1765  -15.5977   20.5659 N   0  0  0  0  0  0  0  0  0  0  0  0
   14.7421  -16.1168   21.8390 C   0  0  0  0  0  0  0  0  0  0  0  0
   13.2143  -16.2337   21.9214 C   0  0  0  0  0  0  0  0  0  0  0  0
   12.9177  -16.8287   23.2672 C   0  0  0  0  0  0  0  0  0  0  0  0
   11.4602  -16.9967   23.5687 C   0  0  2  0  0  0  0  0  0  0  0  0
   10.6456  -15.9068   23.0857 N   0  0  0  0  0  0  0  0  0  0  0  0
   11.3437  -17.0028   25.0643 C   0  0  0  0  0  0  0  0  0  0  0  0
   10.6496  -16.0029   25.7192 O   0  0  0  0  0  0  0  0  0  0  0  0
   11.8699  -17.9094   25.7572 O   0  0  0  0  0  0  0  0  0  0  0  0
  2  1  1  0
  3  2  1  0
  4  3  1  0
  4  5  1  0
  5  1  1  0
  5  6  1  1
  6  7  2  0
  9  8  1  6
 10  9  1  0
 11  9  1  0
 11 12  1  6
 12  6  1  0
 13 11  1  0
 14 13  2  0
 16 15  1  0
 17 16  2  0
 18 16  1  0
 19 18  1  0
 20 19  1  0
 20 21  1  0
 22 21  1  1
 22 24  1  0
 22 23  1  0
 23 13  1  0
 24 25  1  0
 26 24  2  0
M  END
$$$$
