CEH.pdb
     RDKit          3D

 26 26  0  0  1  0  0  0  0  0999 V2000
   14.8314  -10.4359  -16.1289 N   0  0  0  0  0  0  0  0  0  0  0  0
   16.1056  -10.3794  -15.4829 C   0  0  1  0  0  0  0  0  0  0  0  0
   17.0089  -11.5016  -15.9668 C   0  0  0  0  0  0  0  0  0  0  0  0
   18.5504  -11.3824  -15.0000 S   0  0  0  0  0  0  0  0  0  0  0  0
   16.8248   -9.0925  -15.7929 C   0  0  0  0  0  0  0  0  0  0  0  0
   17.2302   -8.8406  -16.9555 O   0  0  0  0  0  0  0  0  0  0  0  0
   17.0745   -8.1150  -14.7934 N   0  0  0  0  0  0  0  0  0  0  0  0
   17.7645   -6.8754  -15.0996 C   0  0  1  0  0  0  0  0  0  0  0  0
   16.8580   -5.6780  -14.9337 C   0  0  0  0  0  0  0  0  0  0  0  0
   15.7311   -5.6497  -15.9169 C   0  0  0  0  0  0  0  0  0  0  0  0
   14.5502   -5.0385  -15.2707 C   0  0  0  0  0  0  0  0  0  0  0  0
   13.5596   -5.7413  -14.9720 O   0  0  0  0  0  0  0  0  0  0  0  0
   18.9627   -6.6857  -14.2581 C   0  0  0  0  0  0  0  0  0  0  0  0
   18.9915   -6.9375  -13.0249 O   0  0  0  0  0  0  0  0  0  0  0  0
   14.5494   -3.6920  -15.0008 O   0  0  0  0  0  0  0  0  0  0  0  0
   20.1511   -6.2021  -14.8240 N   0  0  0  0  0  0  0  0  0  0  0  0
   21.4137   -6.1022  -14.1858 C   0  0  1  0  0  0  0  0  0  0  0  0
   22.5715   -6.6970  -14.9108 C   0  0  0  0  0  0  0  0  0  0  0  0
   22.3877   -8.1208  -15.2559 C   0  0  0  0  0  0  0  0  0  0  0  0
   22.0423   -9.1594  -14.4269 C   0  0  0  0  0  0  0  0  0  0  0  0
   21.9756  -10.3158  -15.1316 N   0  0  0  0  0  0  0  0  0  0  0  0
   22.2845   -9.9668  -16.3976 C   0  0  0  0  0  0  0  0  0  0  0  0
   22.5332   -8.6481  -16.4775 N   0  0  0  0  0  0  0  0  0  0  0  0
   21.7079   -4.6859  -13.9094 C   0  0  0  0  0  0  0  0  0  0  0  0
   20.9700   -3.7983  -14.3805 O   0  0  0  0  0  0  0  0  0  0  0  0
   22.7862   -4.3006  -13.1369 O   0  0  0  0  0  0  0  0  0  0  0  0
  2  5  1  0
  2  1  1  6
  3  2  1  0
  4  3  1  0
  5  7  1  0
  6  5  2  0
  7  8  1  0
  8  9  1  1
  9 10  1  0
 10 11  1  0
 11 12  2  0
 11 15  1  0
 13 14  2  0
 13  8  1  0
 16 13  1  0
 17 16  1  0
 17 24  1  0
 17 18  1  6
 19 18  1  0
 19 23  1  0
 20 21  1  0
 20 19  2  0
 21 22  1  0
 22 23  2  0
 24 25  2  0
 24 26  1  0
M  END
$$$$
