CEH.pdb
     RDKit          3D

 26 26  0  0  1  0  0  0  0  0999 V2000
   27.2927  -12.0125  -17.0094 N   0  0  0  0  0  0  0  0  0  0  0  0
   27.1436  -10.6541  -16.5891 C   0  0  1  0  0  0  0  0  0  0  0  0
   28.1815   -9.7643  -17.2529 C   0  0  0  0  0  0  0  0  0  0  0  0
   29.7920  -10.2091  -16.5225 S   0  0  0  0  0  0  0  0  0  0  0  0
   25.7982  -10.1003  -16.9795 C   0  0  0  0  0  0  0  0  0  0  0  0
   25.3096  -10.3254  -18.1153 O   0  0  0  0  0  0  0  0  0  0  0  0
   25.0286   -9.3058  -16.0888 N   0  0  0  0  0  0  0  0  0  0  0  0
   23.7575   -8.7310  -16.4895 C   0  0  1  0  0  0  0  0  0  0  0  0
   22.7362   -8.8095  -15.3788 C   0  0  0  0  0  0  0  0  0  0  0  0
   21.3893   -8.2951  -15.7776 C   0  0  0  0  0  0  0  0  0  0  0  0
   20.4604   -8.4591  -14.6393 C   0  0  0  0  0  0  0  0  0  0  0  0
   19.6135   -9.3794  -14.6430 O   0  0  0  0  0  0  0  0  0  0  0  0
   23.8947   -7.3229  -16.9116 C   0  0  0  0  0  0  0  0  0  0  0  0
   24.8655   -6.5915  -16.5835 O   0  0  0  0  0  0  0  0  0  0  0  0
   20.5349   -7.5922  -13.5767 O   0  0  0  0  0  0  0  0  0  0  0  0
   22.9139   -6.7318  -17.7210 N   0  0  0  0  0  0  0  0  0  0  0  0
   22.9335   -5.4167  -18.2516 C   0  0  1  0  0  0  0  0  0  0  0  0
   23.8066   -5.1939  -19.4382 C   0  0  0  0  0  0  0  0  0  0  0  0
   23.8533   -3.7874  -19.8850 C   0  0  0  0  0  0  0  0  0  0  0  0
   22.8601   -3.0511  -20.4823 C   0  0  0  0  0  0  0  0  0  0  0  0
   23.3011   -1.7948  -20.7383 N   0  0  0  0  0  0  0  0  0  0  0  0
   24.5732   -1.7774  -20.2897 C   0  0  0  0  0  0  0  0  0  0  0  0
   24.9100   -2.9732  -19.7757 N   0  0  0  0  0  0  0  0  0  0  0  0
   21.5601   -5.0102  -18.5942 C   0  0  0  0  0  0  0  0  0  0  0  0
   20.7219   -5.8753  -18.9159 O   0  0  0  0  0  0  0  0  0  0  0  0
   21.1620   -3.6878  -18.5716 O   0  0  0  0  0  0  0  0  0  0  0  0
  2  5  1  0
  2  1  1  6
  3  2  1  0
  4  3  1  0
  5  7  1  0
  6  5  2  0
  7  8  1  0
  8  9  1  1
  9 10  1  0
 10 11  1  0
 11 12  2  0
 11 15  1  0
 13 14  2  0
 13  8  1  0
 16 13  1  0
 17 16  1  0
 17 24  1  0
 17 18  1  6
 19 18  1  0
 19 23  1  0
 20 21  1  0
 20 19  2  0
 21 22  1  0
 22 23  2  0
 24 25  2  0
 24 26  1  0
M  END
$$$$
