CEH.pdb
     RDKit          3D

 26 26  0  0  1  0  0  0  0  0999 V2000
   18.5750  -12.4570  -15.5623 N   0  0  0  0  0  0  0  0  0  0  0  0
   17.9956  -11.1505  -15.5223 C   0  0  1  0  0  0  0  0  0  0  0  0
   16.4786  -11.2314  -15.4803 C   0  0  0  0  0  0  0  0  0  0  0  0
   15.9534  -11.9789  -17.0584 S   0  0  0  0  0  0  0  0  0  0  0  0
   18.4146  -10.3987  -14.2861 C   0  0  0  0  0  0  0  0  0  0  0  0
   18.3704  -10.9396  -13.1525 O   0  0  0  0  0  0  0  0  0  0  0  0
   18.8743   -9.0563  -14.3460 N   0  0  0  0  0  0  0  0  0  0  0  0
   19.2073   -8.3135  -13.1444 C   0  0  1  0  0  0  0  0  0  0  0  0
   20.2186   -7.2264  -13.4242 C   0  0  0  0  0  0  0  0  0  0  0  0
   20.6028   -6.4494  -12.2051 C   0  0  0  0  0  0  0  0  0  0  0  0
   21.5361   -5.3732  -12.6005 C   0  0  0  0  0  0  0  0  0  0  0  0
   21.5778   -4.3041  -11.9528 O   0  0  0  0  0  0  0  0  0  0  0  0
   18.0152   -7.7058  -12.5206 C   0  0  0  0  0  0  0  0  0  0  0  0
   17.1302   -7.0893  -13.1701 O   0  0  0  0  0  0  0  0  0  0  0  0
   22.3576   -5.5567  -13.6857 O   0  0  0  0  0  0  0  0  0  0  0  0
   17.8212   -7.7982  -11.1348 N   0  0  0  0  0  0  0  0  0  0  0  0
   16.6972   -7.3355  -10.4042 C   0  0  1  0  0  0  0  0  0  0  0  0
   15.9282   -8.3646   -9.6494 C   0  0  0  0  0  0  0  0  0  0  0  0
   14.7176   -7.8357   -8.9901 C   0  0  0  0  0  0  0  0  0  0  0  0
   14.2644   -6.5400   -8.9563 C   0  0  0  0  0  0  0  0  0  0  0  0
   13.1120   -6.4677   -8.2456 N   0  0  0  0  0  0  0  0  0  0  0  0
   12.8713   -7.7344   -7.8486 C   0  0  0  0  0  0  0  0  0  0  0  0
   13.8339   -8.5607   -8.2937 N   0  0  0  0  0  0  0  0  0  0  0  0
   17.1265   -6.2853   -9.4653 C   0  0  0  0  0  0  0  0  0  0  0  0
   18.2549   -6.3507   -8.9391 O   0  0  0  0  0  0  0  0  0  0  0  0
   16.3134   -5.2165   -9.1425 O   0  0  0  0  0  0  0  0  0  0  0  0
  2  5  1  0
  2  1  1  1
  3  2  1  0
  4  3  1  0
  5  7  1  0
  6  5  2  0
  7  8  1  0
  8  9  1  6
  9 10  1  0
 10 11  1  0
 11 12  2  0
 11 15  1  0
 13 14  2  0
 13  8  1  0
 16 13  1  0
 17 16  1  0
 17 24  1  0
 17 18  1  1
 19 18  1  0
 19 23  1  0
 20 21  1  0
 20 19  2  0
 21 22  1  0
 22 23  2  0
 24 25  2  0
 24 26  1  0
M  END
$$$$
