CEH.pdb
     RDKit          3D

 26 26  0  0  1  0  0  0  0  0999 V2000
   26.4833  -11.2708  -18.1753 N   0  0  0  0  0  0  0  0  0  0  0  0
   26.2378   -9.9837  -17.6031 C   0  0  1  0  0  0  0  0  0  0  0  0
   27.0536   -8.9126  -18.3078 C   0  0  0  0  0  0  0  0  0  0  0  0
   26.7501   -7.3537  -17.4119 S   0  0  0  0  0  0  0  0  0  0  0  0
   24.7935   -9.5814  -17.7491 C   0  0  0  0  0  0  0  0  0  0  0  0
   24.1921   -9.7118  -18.8450 O   0  0  0  0  0  0  0  0  0  0  0  0
   24.0533   -9.0415  -16.6640 N   0  0  0  0  0  0  0  0  0  0  0  0
   22.6714   -8.6262  -16.8198 C   0  0  1  0  0  0  0  0  0  0  0  0
   21.8179   -9.0855  -15.6606 C   0  0  0  0  0  0  0  0  0  0  0  0
   20.3570   -8.8423  -15.8701 C   0  0  0  0  0  0  0  0  0  0  0  0
   19.6150   -9.3630  -14.7022 C   0  0  0  0  0  0  0  0  0  0  0  0
   20.1267   -9.3264  -13.5616 O   0  0  0  0  0  0  0  0  0  0  0  0
   22.5447   -7.1614  -16.9532 C   0  0  0  0  0  0  0  0  0  0  0  0
   23.1810   -6.3420  -16.2400 O   0  0  0  0  0  0  0  0  0  0  0  0
   18.3582   -9.8876  -14.8797 O   0  0  0  0  0  0  0  0  0  0  0  0
   21.6812   -6.6139  -17.9130 N   0  0  0  0  0  0  0  0  0  0  0  0
   21.4077   -5.2376  -18.1194 C   0  0  1  0  0  0  0  0  0  0  0  0
   20.8274   -4.8683  -19.4410 C   0  0  0  0  0  0  0  0  0  0  0  0
   20.6226   -3.4165  -19.6145 C   0  0  0  0  0  0  0  0  0  0  0  0
   21.5559   -2.4116  -19.5470 C   0  0  0  0  0  0  0  0  0  0  0  0
   20.9646   -1.2110  -19.7646 N   0  0  0  0  0  0  0  0  0  0  0  0
   19.6620   -1.4990  -19.9648 C   0  0  0  0  0  0  0  0  0  0  0  0
   19.4513   -2.8238  -19.8756 N   0  0  0  0  0  0  0  0  0  0  0  0
   20.5070   -4.7566  -17.0582 C   0  0  0  0  0  0  0  0  0  0  0  0
   20.0462   -5.5630  -16.2264 O   0  0  0  0  0  0  0  0  0  0  0  0
   20.1498   -3.4268  -16.9498 O   0  0  0  0  0  0  0  0  0  0  0  0
  2  5  1  0
  2  1  1  6
  3  2  1  0
  4  3  1  0
  5  7  1  0
  6  5  2  0
  7  8  1  0
  8  9  1  1
  9 10  1  0
 10 11  1  0
 11 12  2  0
 11 15  1  0
 13 14  2  0
 13  8  1  0
 16 13  1  0
 17 16  1  0
 17 24  1  0
 17 18  1  6
 19 18  1  0
 19 23  1  0
 20 21  1  0
 20 19  2  0
 21 22  1  0
 22 23  2  0
 24 25  2  0
 24 26  1  0
M  END
$$$$
