CEH.pdb
     RDKit          3D

 26 26  0  0  1  0  0  0  0  0999 V2000
   25.4875  -12.7405  -18.2999 N   0  0  0  0  0  0  0  0  0  0  0  0
   25.1320  -12.2591  -17.0014 C   0  0  1  0  0  0  0  0  0  0  0  0
   26.2865  -11.4983  -16.3705 C   0  0  0  0  0  0  0  0  0  0  0  0
   27.5300  -12.7431  -15.8916 S   0  0  0  0  0  0  0  0  0  0  0  0
   23.9754  -11.2962  -17.0675 C   0  0  0  0  0  0  0  0  0  0  0  0
   23.9034  -10.4313  -17.9766 O   0  0  0  0  0  0  0  0  0  0  0  0
   22.9238  -11.3226  -16.1135 N   0  0  0  0  0  0  0  0  0  0  0  0
   21.7495  -10.4813  -16.2545 C   0  0  1  0  0  0  0  0  0  0  0  0
   20.4972  -11.1920  -15.7967 C   0  0  0  0  0  0  0  0  0  0  0  0
   19.2423  -10.4459  -16.1222 C   0  0  0  0  0  0  0  0  0  0  0  0
   18.0873  -11.2030  -15.5946 C   0  0  0  0  0  0  0  0  0  0  0  0
   18.1960  -11.8666  -14.5400 O   0  0  0  0  0  0  0  0  0  0  0  0
   21.8806   -9.2167  -15.5042 C   0  0  0  0  0  0  0  0  0  0  0  0
   22.4584   -9.1281  -14.3891 O   0  0  0  0  0  0  0  0  0  0  0  0
   16.8931  -11.1718  -16.2720 O   0  0  0  0  0  0  0  0  0  0  0  0
   21.3476   -8.0295  -16.0266 N   0  0  0  0  0  0  0  0  0  0  0  0
   21.4800   -6.7283  -15.4782 C   0  0  1  0  0  0  0  0  0  0  0  0
   21.1713   -5.5906  -16.3895 C   0  0  0  0  0  0  0  0  0  0  0  0
   21.4053   -4.2646  -15.7838 C   0  0  0  0  0  0  0  0  0  0  0  0
   22.5123   -3.4605  -15.8980 C   0  0  0  0  0  0  0  0  0  0  0  0
   22.3346   -2.3191  -15.1880 N   0  0  0  0  0  0  0  0  0  0  0  0
   21.1071   -2.4401  -14.6417 C   0  0  0  0  0  0  0  0  0  0  0  0
   20.5442   -3.6081  -14.9970 N   0  0  0  0  0  0  0  0  0  0  0  0
   20.6302   -6.6167  -14.2806 C   0  0  0  0  0  0  0  0  0  0  0  0
   19.4298   -6.9477  -14.3418 O   0  0  0  0  0  0  0  0  0  0  0  0
   21.1219   -6.1527  -13.0762 O   0  0  0  0  0  0  0  0  0  0  0  0
  2  5  1  0
  2  1  1  6
  3  2  1  0
  4  3  1  0
  5  7  1  0
  6  5  2  0
  7  8  1  0
  8  9  1  1
  9 10  1  0
 10 11  1  0
 11 12  2  0
 11 15  1  0
 13 14  2  0
 13  8  1  0
 16 13  1  0
 17 16  1  0
 17 24  1  0
 17 18  1  6
 19 18  1  0
 19 23  1  0
 20 21  1  0
 20 19  2  0
 21 22  1  0
 22 23  2  0
 24 25  2  0
 24 26  1  0
M  END
$$$$
