HYR.pdb
     RDKit          3D

 34 35  0  0  1  0  0  0  0  0999 V2000
   43.8652  -13.3959   -7.4336 N   0  0  0  0  0  0  0  0  0  0  0  0
   42.9156  -13.3879   -8.5300 C   0  0  1  0  0  0  0  0  0  0  0  0
   42.4777  -11.9627   -8.7412 C   0  0  0  0  0  0  0  0  0  0  0  0
   41.5525  -11.6146   -7.6414 C   0  0  0  0  0  0  0  0  0  0  0  0
   41.7509  -10.7014   -6.6374 C   0  0  0  0  0  0  0  0  0  0  0  0
   40.6482  -10.6870   -5.8290 N   0  0  0  0  0  0  0  0  0  0  0  0
   39.7832  -11.5799   -6.3298 C   0  0  0  0  0  0  0  0  0  0  0  0
   40.3343  -12.1382   -7.4254 N   0  0  0  0  0  0  0  0  0  0  0  0
   43.5942  -13.9804   -9.7137 C   0  0  0  0  0  0  0  0  0  0  0  0
   44.8414  -13.9596   -9.8782 O   0  0  0  0  0  0  0  0  0  0  0  0
   45.9982  -19.3752   -7.7004 O   0  0  0  0  0  0  0  0  0  0  0  0
   45.2793  -18.7250   -8.6992 C   0  0  0  0  0  0  0  0  0  0  0  0
   43.9862  -18.2993   -8.4746 C   0  0  0  0  0  0  0  0  0  0  0  0
   43.2803  -17.6547   -9.4729 C   0  0  0  0  0  0  0  0  0  0  0  0
   43.8446  -17.4231  -10.7063 C   0  0  0  0  0  0  0  0  0  0  0  0
   43.1303  -16.7504  -11.7874 C   0  0  0  0  0  0  0  0  0  0  0  0
   43.4012  -15.2660  -11.8939 C   0  0  2  0  0  0  0  0  0  0  0  0
   42.8175  -14.6195  -10.7449 N   0  0  0  0  0  0  0  0  0  0  0  0
   42.9629  -14.6712  -13.1695 C   0  0  0  0  0  0  0  0  0  0  0  0
   41.8010  -14.2239  -13.3505 O   0  0  0  0  0  0  0  0  0  0  0  0
   45.1353  -17.8533  -10.9156 C   0  0  0  0  0  0  0  0  0  0  0  0
   45.8577  -18.4998   -9.9298 C   0  0  0  0  0  0  0  0  0  0  0  0
   38.2340  -16.3372  -18.9550 N   0  0  0  0  0  0  0  0  0  0  0  0
   39.4062  -16.8957  -18.3862 C   0  0  0  0  0  0  0  0  0  0  0  0
   39.5911  -18.1669  -18.2584 N   0  0  0  0  0  0  0  0  0  0  0  0
   40.4817  -16.0946  -17.9084 N   0  0  0  0  0  0  0  0  0  0  0  0
   40.5458  -14.6998  -17.9171 C   0  0  0  0  0  0  0  0  0  0  0  0
   41.7777  -14.0215  -17.4664 C   0  0  0  0  0  0  0  0  0  0  0  0
   42.1880  -14.6138  -16.1442 C   0  0  0  0  0  0  0  0  0  0  0  0
   43.3963  -13.9881  -15.5484 C   0  0  2  0  0  0  0  0  0  0  0  0
   43.8407  -14.5603  -14.3074 N   0  0  0  0  0  0  0  0  0  0  0  0
   43.0978  -12.5248  -15.3412 C   0  0  0  0  0  0  0  0  0  0  0  0
   43.5286  -11.5969  -16.2742 O   0  0  0  0  0  0  0  0  0  0  0  0
   42.4660  -12.1032  -14.3442 O   0  0  0  0  0  0  0  0  0  0  0  0
  2  1  1  1
  2  9  1  0
  2  3  1  0
  4  3  1  0
  5  4  2  0
  6  7  1  0
  6  5  1  0
  7  8  2  0
  8  4  1  0
  9 10  2  0
 11 12  1  0
 12 22  2  0
 13 12  1  0
 13 14  2  0
 14 15  1  0
 15 21  2  0
 15 16  1  0
 17 16  1  6
 18 17  1  0
 18  9  1  0
 19 17  1  0
 20 19  2  0
 22 21  1  0
 23 24  1  0
 24 26  1  0
 25 24  2  0
 26 27  1  0
 27 28  1  0
 28 29  1  0
 30 29  1  1
 30 31  1  0
 31 19  1  0
 32 30  1  0
 32 33  1  0
 34 32  2  0
M  END
$$$$
