HYR.pdb
     RDKit          3D

 34 35  0  0  1  0  0  0  0  0999 V2000
   17.0283  -24.0944   -7.2651 N   0  0  0  0  0  0  0  0  0  0  0  0
   17.3089  -25.4208   -6.7496 C   0  0  1  0  0  0  0  0  0  0  0  0
   18.6833  -25.8115   -7.2249 C   0  0  0  0  0  0  0  0  0  0  0  0
   18.6113  -25.9939   -8.6906 C   0  0  0  0  0  0  0  0  0  0  0  0
   18.9008  -25.0725   -9.6645 C   0  0  0  0  0  0  0  0  0  0  0  0
   18.7038  -25.6475  -10.8894 N   0  0  0  0  0  0  0  0  0  0  0  0
   18.2984  -26.9062  -10.6709 C   0  0  0  0  0  0  0  0  0  0  0  0
   18.2439  -27.1110   -9.3402 N   0  0  0  0  0  0  0  0  0  0  0  0
   17.1899  -25.3592   -5.2682 C   0  0  0  0  0  0  0  0  0  0  0  0
   17.5658  -24.3721   -4.5846 O   0  0  0  0  0  0  0  0  0  0  0  0
   12.7769  -21.2370   -4.1283 O   0  0  0  0  0  0  0  0  0  0  0  0
   13.2987  -22.4939   -3.8365 C   0  0  0  0  0  0  0  0  0  0  0  0
   13.2907  -23.4982   -4.7826 C   0  0  0  0  0  0  0  0  0  0  0  0
   13.8109  -24.7433   -4.4833 C   0  0  0  0  0  0  0  0  0  0  0  0
   14.3457  -25.0108   -3.2441 C   0  0  0  0  0  0  0  0  0  0  0  0
   14.8999  -26.3137   -2.8881 C   0  0  0  0  0  0  0  0  0  0  0  0
   16.3882  -26.4505   -3.1211 C   0  0  2  0  0  0  0  0  0  0  0  0
   16.6203  -26.4666   -4.5440 N   0  0  0  0  0  0  0  0  0  0  0  0
   16.9955  -27.6018   -2.4291 C   0  0  0  0  0  0  0  0  0  0  0  0
   16.9476  -28.7741   -2.8833 O   0  0  0  0  0  0  0  0  0  0  0  0
   14.3469  -23.9992   -2.3105 C   0  0  0  0  0  0  0  0  0  0  0  0
   13.8312  -22.7473   -2.5908 C   0  0  0  0  0  0  0  0  0  0  0  0
   15.0469  -26.6126    4.7957 N   0  0  0  0  0  0  0  0  0  0  0  0
   15.7473  -26.0105    3.7204 C   0  0  0  0  0  0  0  0  0  0  0  0
   15.5492  -24.7915    3.3445 N   0  0  0  0  0  0  0  0  0  0  0  0
   16.7333  -26.7055    2.9644 N   0  0  0  0  0  0  0  0  0  0  0  0
   17.0493  -28.0622    3.0601 C   0  0  0  0  0  0  0  0  0  0  0  0
   17.9985  -28.6615    2.1006 C   0  0  0  0  0  0  0  0  0  0  0  0
   17.2754  -28.8920    0.8000 C   0  0  0  0  0  0  0  0  0  0  0  0
   18.0941  -28.6108   -0.4070 C   0  0  2  0  0  0  0  0  0  0  0  0
   17.6911  -27.4645   -1.1741 N   0  0  0  0  0  0  0  0  0  0  0  0
   18.0491  -29.8358   -1.2849 C   0  0  0  0  0  0  0  0  0  0  0  0
   16.8345  -30.2882   -1.7718 O   0  0  0  0  0  0  0  0  0  0  0  0
   19.0808  -30.4745   -1.5992 O   0  0  0  0  0  0  0  0  0  0  0  0
  2  1  1  6
  2  9  1  0
  2  3  1  0
  4  3  1  0
  5  4  2  0
  6  7  1  0
  6  5  1  0
  7  8  2  0
  8  4  1  0
  9 10  2  0
 11 12  1  0
 12 22  2  0
 13 12  1  0
 13 14  2  0
 14 15  1  0
 15 21  2  0
 15 16  1  0
 17 16  1  6
 18 17  1  0
 18  9  1  0
 19 17  1  0
 20 19  2  0
 22 21  1  0
 23 24  1  0
 24 26  1  0
 25 24  2  0
 26 27  1  0
 27 28  1  0
 28 29  1  0
 30 29  1  1
 30 31  1  0
 31 19  1  0
 32 30  1  0
 32 33  1  0
 34 32  2  0
M  END
$$$$
