HYR.pdb
     RDKit          3D

 34 35  0  0  1  0  0  0  0  0999 V2000
   29.8307  -24.3230  -16.4050 N   0  0  0  0  0  0  0  0  0  0  0  0
   28.6871  -23.8521  -17.1630 C   0  0  1  0  0  0  0  0  0  0  0  0
   27.7391  -25.0113  -17.3220 C   0  0  0  0  0  0  0  0  0  0  0  0
   28.3394  -25.9454  -18.2986 C   0  0  0  0  0  0  0  0  0  0  0  0
   28.6378  -27.2715  -18.1150 C   0  0  0  0  0  0  0  0  0  0  0  0
   29.1803  -27.7661  -19.2686 N   0  0  0  0  0  0  0  0  0  0  0  0
   29.2150  -26.7569  -20.1498 C   0  0  0  0  0  0  0  0  0  0  0  0
   28.7056  -25.6582  -19.5588 N   0  0  0  0  0  0  0  0  0  0  0  0
   28.1002  -22.7048  -16.4202 C   0  0  0  0  0  0  0  0  0  0  0  0
   27.9385  -22.6985  -15.1725 O   0  0  0  0  0  0  0  0  0  0  0  0
   25.1110  -14.3901  -15.2864 O   0  0  0  0  0  0  0  0  0  0  0  0
   25.7086  -15.5623  -15.7403 C   0  0  0  0  0  0  0  0  0  0  0  0
   26.7383  -16.1489  -15.0336 C   0  0  0  0  0  0  0  0  0  0  0  0
   27.3256  -17.3129  -15.4927 C   0  0  0  0  0  0  0  0  0  0  0  0
   26.9016  -17.9115  -16.6569 C   0  0  0  0  0  0  0  0  0  0  0  0
   27.4994  -19.1377  -17.1770 C   0  0  0  0  0  0  0  0  0  0  0  0
   27.0281  -20.4053  -16.4992 C   0  0  2  0  0  0  0  0  0  0  0  0
   27.6841  -21.5229  -17.1310 N   0  0  0  0  0  0  0  0  0  0  0  0
   25.5614  -20.5494  -16.4608 C   0  0  0  0  0  0  0  0  0  0  0  0
   24.8793  -20.8578  -17.4719 O   0  0  0  0  0  0  0  0  0  0  0  0
   25.8734  -17.3150  -17.3510 C   0  0  0  0  0  0  0  0  0  0  0  0
   25.2733  -16.1507  -16.9082 C   0  0  0  0  0  0  0  0  0  0  0  0
   18.3867  -20.8600  -10.8356 N   0  0  0  0  0  0  0  0  0  0  0  0
   18.5534  -21.9625  -11.7108 C   0  0  0  0  0  0  0  0  0  0  0  0
   17.6631  -22.8854  -11.8596 N   0  0  0  0  0  0  0  0  0  0  0  0
   19.7229  -22.1412  -12.5026 N   0  0  0  0  0  0  0  0  0  0  0  0
   20.8076  -21.2664  -12.5909 C   0  0  0  0  0  0  0  0  0  0  0  0
   21.2608  -20.7946  -13.9148 C   0  0  0  0  0  0  0  0  0  0  0  0
   22.7653  -20.7329  -13.9064 C   0  0  0  0  0  0  0  0  0  0  0  0
   23.3686  -20.4646  -15.2369 C   0  0  2  0  0  0  0  0  0  0  0  0
   24.8005  -20.3451  -15.2538 N   0  0  0  0  0  0  0  0  0  0  0  0
   22.7584  -19.1917  -15.7668 C   0  0  0  0  0  0  0  0  0  0  0  0
   23.3869  -17.9800  -15.5352 O   0  0  0  0  0  0  0  0  0  0  0  0
   21.6882  -19.1814  -16.4193 O   0  0  0  0  0  0  0  0  0  0  0  0
  2  1  1  1
  2  9  1  0
  2  3  1  0
  4  3  1  0
  5  4  2  0
  6  7  1  0
  6  5  1  0
  7  8  2  0
  8  4  1  0
  9 10  2  0
 11 12  1  0
 12 22  2  0
 13 12  1  0
 13 14  2  0
 14 15  1  0
 15 21  2  0
 15 16  1  0
 17 16  1  6
 18 17  1  0
 18  9  1  0
 19 17  1  0
 20 19  2  0
 22 21  1  0
 23 24  1  0
 24 26  1  0
 25 24  2  0
 26 27  1  0
 27 28  1  0
 28 29  1  0
 30 29  1  1
 30 31  1  0
 31 19  1  0
 32 30  1  0
 32 33  1  0
 34 32  2  0
M  END
$$$$
