HYR.pdb
     RDKit          3D

 34 35  0  0  1  0  0  0  0  0999 V2000
   25.2145  -21.4746  -16.1010 N   0  0  0  0  0  0  0  0  0  0  0  0
   25.8865  -21.4626  -14.8156 C   0  0  1  0  0  0  0  0  0  0  0  0
   26.8894  -20.3395  -14.8379 C   0  0  0  0  0  0  0  0  0  0  0  0
   27.8692  -20.6399  -15.9039 C   0  0  0  0  0  0  0  0  0  0  0  0
   28.2537  -21.8733  -16.3647 C   0  0  0  0  0  0  0  0  0  0  0  0
   29.1806  -21.7054  -17.3558 N   0  0  0  0  0  0  0  0  0  0  0  0
   29.3635  -20.3857  -17.5022 C   0  0  0  0  0  0  0  0  0  0  0  0
   28.5685  -19.7457  -16.6223 N   0  0  0  0  0  0  0  0  0  0  0  0
   24.8433  -21.3042  -13.7672 C   0  0  0  0  0  0  0  0  0  0  0  0
   25.0725  -20.8123  -12.6321 O   0  0  0  0  0  0  0  0  0  0  0  0
   17.6947  -16.9207  -11.9885 O   0  0  0  0  0  0  0  0  0  0  0  0
   18.8465  -17.6022  -12.3708 C   0  0  0  0  0  0  0  0  0  0  0  0
   19.6202  -18.2598  -11.4367 C   0  0  0  0  0  0  0  0  0  0  0  0
   20.7625  -18.9335  -11.8261 C   0  0  0  0  0  0  0  0  0  0  0  0
   21.1540  -18.9652  -13.1449 C   0  0  0  0  0  0  0  0  0  0  0  0
   22.3559  -19.6613  -13.5948 C   0  0  0  0  0  0  0  0  0  0  0  0
   22.3411  -21.1565  -13.3661 C   0  0  2  0  0  0  0  0  0  0  0  0
   23.4899  -21.7233  -14.0278 N   0  0  0  0  0  0  0  0  0  0  0  0
   21.0769  -21.8058  -13.7576 C   0  0  0  0  0  0  0  0  0  0  0  0
   20.7037  -21.9071  -14.9548 O   0  0  0  0  0  0  0  0  0  0  0  0
   20.3723  -18.3048  -14.0654 C   0  0  0  0  0  0  0  0  0  0  0  0
   19.2262  -17.6254  -13.6956 C   0  0  0  0  0  0  0  0  0  0  0  0
   19.5519  -28.6407   -9.4121 N   0  0  0  0  0  0  0  0  0  0  0  0
   18.6569  -27.6069   -9.7860 C   0  0  0  0  0  0  0  0  0  0  0  0
   17.4378  -27.5437   -9.3660 N   0  0  0  0  0  0  0  0  0  0  0  0
   19.0332  -26.5474  -10.6592 N   0  0  0  0  0  0  0  0  0  0  0  0
   19.0043  -26.5717  -12.0550 C   0  0  0  0  0  0  0  0  0  0  0  0
   19.4670  -25.3942  -12.8167 C   0  0  0  0  0  0  0  0  0  0  0  0
   18.5717  -24.2310  -12.4807 C   0  0  0  0  0  0  0  0  0  0  0  0
   18.9261  -22.9707  -13.1824 C   0  0  2  0  0  0  0  0  0  0  0  0
   20.1726  -22.3737  -12.7893 N   0  0  0  0  0  0  0  0  0  0  0  0
   17.8084  -21.9866  -12.9462 C   0  0  0  0  0  0  0  0  0  0  0  0
   16.6722  -22.0346  -13.7359 O   0  0  0  0  0  0  0  0  0  0  0  0
   17.8631  -21.1112  -12.0508 O   0  0  0  0  0  0  0  0  0  0  0  0
  2  1  1  6
  2  9  1  0
  2  3  1  0
  4  3  1  0
  5  4  2  0
  6  7  1  0
  6  5  1  0
  7  8  2  0
  8  4  1  0
  9 10  2  0
 11 12  1  0
 12 22  2  0
 13 12  1  0
 13 14  2  0
 14 15  1  0
 15 21  2  0
 15 16  1  0
 17 16  1  6
 18 17  1  0
 18  9  1  0
 19 17  1  0
 20 19  2  0
 22 21  1  0
 23 24  1  0
 24 26  1  0
 25 24  2  0
 26 27  1  0
 27 28  1  0
 28 29  1  0
 30 29  1  1
 30 31  1  0
 31 19  1  0
 32 30  1  0
 32 33  1  0
 34 32  2  0
M  END
$$$$
