YDW.pdb
     RDKit          3D

 35 37  0  0  1  0  0  0  0  0999 V2000
    7.9786  -11.9352   17.5692 O   0  0  0  0  0  0  0  0  0  0  0  0
    7.9118  -12.7429   18.7216 C   0  0  0  0  0  0  0  0  0  0  0  0
    9.0409  -13.0176   19.4656 C   0  0  0  0  0  0  0  0  0  0  0  0
    9.0347  -13.7993   20.5986 C   0  0  0  0  0  0  0  0  0  0  0  0
    7.8215  -14.3309   20.9995 C   0  0  0  0  0  0  0  0  0  0  0  0
    7.8103  -15.1705   22.2147 C   0  0  0  0  0  0  0  0  0  0  0  0
    8.6337  -16.4298   22.0435 C   0  0  2  0  0  0  0  0  0  0  0  0
    8.1543  -17.1854   20.9094 N   0  0  0  0  0  0  0  0  0  0  0  0
    8.5102  -17.2035   23.3110 C   0  0  0  0  0  0  0  0  0  0  0  0
    7.6743  -18.1327   23.4488 O   0  0  0  0  0  0  0  0  0  0  0  0
    6.6576  -14.0815   20.2818 C   0  0  0  0  0  0  0  0  0  0  0  0
    6.7198  -13.2871   19.1474 C   0  0  0  0  0  0  0  0  0  0  0  0
    9.3583  -16.8806   24.3878 N   0  0  0  0  0  0  0  0  0  0  0  0
   10.7387  -17.3594   24.4572 C   0  0  1  0  0  0  0  0  0  0  0  0
   11.4315  -16.9318   23.1924 C   0  0  0  0  0  0  0  0  0  0  0  0
   12.8608  -17.3269   23.2185 C   0  0  0  0  0  0  0  0  0  0  0  0
   13.1927  -18.4624   23.6646 O   0  0  0  0  0  0  0  0  0  0  0  0
   11.3731  -16.7662   25.6632 C   0  0  0  0  0  0  0  0  0  0  0  0
   12.5306  -17.0329   25.9930 O   0  0  0  0  0  0  0  0  0  0  0  0
   13.8549  -16.4762   22.7623 O   0  0  0  0  0  0  0  0  0  0  0  0
   10.6059  -15.8673   26.4442 N   0  0  0  0  0  0  0  0  0  0  0  0
   10.9952  -15.6284   27.8161 C   0  0  1  0  0  0  0  0  0  0  0  0
   10.0685  -14.5141   28.3159 C   0  0  0  0  0  0  0  0  0  0  0  0
    8.7899  -14.6359   27.5836 C   0  0  0  0  0  0  0  0  0  0  0  0
    8.0431  -15.8042   27.4133 C   0  0  0  0  0  0  0  0  0  0  0  0
    6.9474  -15.5316   26.6896 N   0  0  0  0  0  0  0  0  0  0  0  0
    6.9210  -14.2221   26.3615 C   0  0  0  0  0  0  0  0  0  0  0  0
    6.0085  -13.4718   25.6332 C   0  0  0  0  0  0  0  0  0  0  0  0
    6.2785  -12.1334   25.4762 C   0  0  0  0  0  0  0  0  0  0  0  0
    7.4259  -11.5591   26.0293 C   0  0  0  0  0  0  0  0  0  0  0  0
    8.3101  -12.3136   26.7411 C   0  0  0  0  0  0  0  0  0  0  0  0
    8.0697  -13.6635   26.9189 C   0  0  0  0  0  0  0  0  0  0  0  0
   10.7649  -16.8504   28.5942 C   0  0  0  0  0  0  0  0  0  0  0  0
   10.1245  -17.8049   28.0782 O   0  0  0  0  0  0  0  0  0  0  0  0
   11.2400  -16.9655   29.8813 O   0  0  0  0  0  0  0  0  0  0  0  0
  2  1  1  0
  3  2  2  0
  4  3  1  0
  5 11  1  0
  5  4  2  0
  6  5  1  0
  7  6  1  0
  7  8  1  6
  9  7  1  0
  9 10  2  0
 11 12  2  0
 12  2  1  0
 13  9  1  0
 14 15  1  6
 14 13  1  0
 16 15  1  0
 17 16  2  0
 18 14  1  0
 19 18  2  0
 20 16  1  0
 21 18  1  0
 22 23  1  1
 22 21  1  0
 23 24  1  0
 24 32  1  0
 25 26  1  0
 25 24  2  0
 26 27  1  0
 27 32  2  0
 27 28  1  0
 28 29  2  0
 29 30  1  0
 31 30  2  0
 32 31  1  0
 33 22  1  0
 33 35  1  0
 34 33  2  0
M  END
$$$$
