YDW.pdb
     RDKit          3D

 35 37  0  0  1  0  0  0  0  0999 V2000
    7.2049  -13.1933   14.5993 O   0  0  0  0  0  0  0  0  0  0  0  0
    7.2838  -13.7634   15.8853 C   0  0  0  0  0  0  0  0  0  0  0  0
    7.6007  -12.9953   16.9869 C   0  0  0  0  0  0  0  0  0  0  0  0
    7.6919  -13.4982   18.2650 C   0  0  0  0  0  0  0  0  0  0  0  0
    7.4495  -14.8498   18.4369 C   0  0  0  0  0  0  0  0  0  0  0  0
    7.5465  -15.3937   19.8069 C   0  0  0  0  0  0  0  0  0  0  0  0
    8.8923  -15.1066   20.4388 C   0  0  2  0  0  0  0  0  0  0  0  0
    9.9433  -15.2638   19.4601 N   0  0  0  0  0  0  0  0  0  0  0  0
    9.0504  -16.0602   21.5728 C   0  0  0  0  0  0  0  0  0  0  0  0
    8.1530  -16.2256   22.4379 O   0  0  0  0  0  0  0  0  0  0  0  0
    7.1268  -15.6631   17.3569 C   0  0  0  0  0  0  0  0  0  0  0  0
    7.0482  -15.1053   16.0902 C   0  0  0  0  0  0  0  0  0  0  0  0
   10.2452  -16.7984   21.6764 N   0  0  0  0  0  0  0  0  0  0  0  0
   10.4938  -17.7180   22.7864 C   0  0  1  0  0  0  0  0  0  0  0  0
   11.6303  -18.6177   22.3845 C   0  0  0  0  0  0  0  0  0  0  0  0
   11.4710  -19.0678   20.9803 C   0  0  0  0  0  0  0  0  0  0  0  0
   10.6094  -19.9479   20.6946 O   0  0  0  0  0  0  0  0  0  0  0  0
   10.8261  -16.9107   23.9892 C   0  0  0  0  0  0  0  0  0  0  0  0
   11.7427  -16.0864   23.9925 O   0  0  0  0  0  0  0  0  0  0  0  0
   12.2495  -18.5449   19.9602 O   0  0  0  0  0  0  0  0  0  0  0  0
   10.0517  -17.1100   25.1586 N   0  0  0  0  0  0  0  0  0  0  0  0
   10.3703  -16.3461   26.3442 C   0  0  1  0  0  0  0  0  0  0  0  0
   10.1089  -14.8826   25.9699 C   0  0  0  0  0  0  0  0  0  0  0  0
    8.6493  -14.6580   26.0424 C   0  0  0  0  0  0  0  0  0  0  0  0
    7.6538  -15.6037   25.7850 C   0  0  0  0  0  0  0  0  0  0  0  0
    6.4487  -15.0373   25.9446 N   0  0  0  0  0  0  0  0  0  0  0  0
    6.5872  -13.7423   26.3006 C   0  0  0  0  0  0  0  0  0  0  0  0
    5.6505  -12.7556   26.5743 C   0  0  0  0  0  0  0  0  0  0  0  0
    6.1281  -11.5127   26.9148 C   0  0  0  0  0  0  0  0  0  0  0  0
    7.5008  -11.2603   26.9805 C   0  0  0  0  0  0  0  0  0  0  0  0
    8.4047  -12.2433   26.7076 C   0  0  0  0  0  0  0  0  0  0  0  0
    7.9593  -13.5057   26.3617 C   0  0  0  0  0  0  0  0  0  0  0  0
    9.4657  -16.7499   27.4260 C   0  0  0  0  0  0  0  0  0  0  0  0
    8.5677  -17.6043   27.1997 O   0  0  0  0  0  0  0  0  0  0  0  0
    9.5865  -16.2056   28.6849 O   0  0  0  0  0  0  0  0  0  0  0  0
  2  1  1  0
  3  2  2  0
  4  3  1  0
  5 11  1  0
  5  4  2  0
  6  5  1  0
  7  6  1  0
  7  8  1  6
  9  7  1  0
  9 10  2  0
 11 12  2  0
 12  2  1  0
 13  9  1  0
 14 15  1  6
 14 13  1  0
 16 15  1  0
 17 16  2  0
 18 14  1  0
 19 18  2  0
 20 16  1  0
 21 18  1  0
 22 23  1  6
 22 21  1  0
 23 24  1  0
 24 32  1  0
 25 26  1  0
 25 24  2  0
 26 27  1  0
 27 32  2  0
 27 28  1  0
 28 29  2  0
 29 30  1  0
 31 30  2  0
 32 31  1  0
 33 22  1  0
 33 35  1  0
 34 33  2  0
M  END
$$$$
