YDW.pdb
     RDKit          3D

 35 37  0  0  1  0  0  0  0  0999 V2000
    7.3654  -21.0959   28.8635 O   0  0  0  0  0  0  0  0  0  0  0  0
    7.0495  -20.5214   27.6164 C   0  0  0  0  0  0  0  0  0  0  0  0
    6.1556  -21.1284   26.7583 C   0  0  0  0  0  0  0  0  0  0  0  0
    5.8101  -20.6133   25.5294 C   0  0  0  0  0  0  0  0  0  0  0  0
    6.4007  -19.4208   25.1494 C   0  0  0  0  0  0  0  0  0  0  0  0
    6.0329  -18.8645   23.8313 C   0  0  0  0  0  0  0  0  0  0  0  0
    6.5054  -19.7424   22.6916 C   0  0  2  0  0  0  0  0  0  0  0  0
    6.5209  -21.1265   23.1053 N   0  0  0  0  0  0  0  0  0  0  0  0
    7.8660  -19.2665   22.3139 C   0  0  0  0  0  0  0  0  0  0  0  0
    8.8889  -19.9839   22.4556 O   0  0  0  0  0  0  0  0  0  0  0  0
    7.3069  -18.7730   25.9806 C   0  0  0  0  0  0  0  0  0  0  0  0
    7.6199  -19.3355   27.2084 C   0  0  0  0  0  0  0  0  0  0  0  0
    8.0075  -17.9704   21.7819 N   0  0  0  0  0  0  0  0  0  0  0  0
    9.2748  -17.4947   21.2273 C   0  0  1  0  0  0  0  0  0  0  0  0
    8.9518  -16.5636   20.0910 C   0  0  0  0  0  0  0  0  0  0  0  0
    9.8950  -16.7648   18.9642 C   0  0  0  0  0  0  0  0  0  0  0  0
   10.8911  -17.5306   19.1054 O   0  0  0  0  0  0  0  0  0  0  0  0
   10.0235  -16.8063   22.3109 C   0  0  0  0  0  0  0  0  0  0  0  0
   11.0193  -16.1161   22.0831 O   0  0  0  0  0  0  0  0  0  0  0  0
    9.7133  -16.1293   17.7464 O   0  0  0  0  0  0  0  0  0  0  0  0
    9.5608  -16.9608   23.6409 N   0  0  0  0  0  0  0  0  0  0  0  0
   10.2991  -16.3318   24.7133 C   0  0  1  0  0  0  0  0  0  0  0  0
    9.7678  -14.8958   24.7880 C   0  0  0  0  0  0  0  0  0  0  0  0
    8.4073  -14.9534   25.3639 C   0  0  0  0  0  0  0  0  0  0  0  0
    7.6818  -16.1111   25.6559 C   0  0  0  0  0  0  0  0  0  0  0  0
    6.4861  -15.7727   26.1603 N   0  0  0  0  0  0  0  0  0  0  0  0
    6.3712  -14.4288   26.2222 C   0  0  0  0  0  0  0  0  0  0  0  0
    5.3402  -13.6104   26.6618 C   0  0  0  0  0  0  0  0  0  0  0  0
    5.5418  -12.2528   26.5910 C   0  0  0  0  0  0  0  0  0  0  0  0
    6.7374  -11.7256   26.0960 C   0  0  0  0  0  0  0  0  0  0  0  0
    7.7379  -12.5467   25.6688 C   0  0  0  0  0  0  0  0  0  0  0  0
    7.5690  -13.9179   25.7257 C   0  0  0  0  0  0  0  0  0  0  0  0
   10.0056  -17.0345   25.9670 C   0  0  0  0  0  0  0  0  0  0  0  0
    9.0544  -17.8595   26.0097 O   0  0  0  0  0  0  0  0  0  0  0  0
   10.7573  -16.8022   27.0969 O   0  0  0  0  0  0  0  0  0  0  0  0
  2  1  1  0
  3  2  2  0
  4  3  1  0
  5 11  1  0
  5  4  2  0
  6  5  1  0
  7  6  1  0
  7  8  1  1
  9  7  1  0
  9 10  2  0
 11 12  2  0
 12  2  1  0
 13  9  1  0
 14 15  1  6
 14 13  1  0
 16 15  1  0
 17 16  2  0
 18 14  1  0
 19 18  2  0
 20 16  1  0
 21 18  1  0
 22 23  1  1
 22 21  1  0
 23 24  1  0
 24 32  1  0
 25 26  1  0
 25 24  2  0
 26 27  1  0
 27 32  2  0
 27 28  1  0
 28 29  2  0
 29 30  1  0
 31 30  2  0
 32 31  1  0
 33 22  1  0
 33 35  1  0
 34 33  2  0
M  END
$$$$
