YDW.pdb
     RDKit          3D

 35 37  0  0  1  0  0  0  0  0999 V2000
    8.5220  -11.4831   18.2424 O   0  0  0  0  0  0  0  0  0  0  0  0
    8.3071  -12.5972   19.0777 C   0  0  0  0  0  0  0  0  0  0  0  0
    7.7741  -12.4478   20.3416 C   0  0  0  0  0  0  0  0  0  0  0  0
    7.5431  -13.4989   21.1997 C   0  0  0  0  0  0  0  0  0  0  0  0
    7.8687  -14.7683   20.7547 C   0  0  0  0  0  0  0  0  0  0  0  0
    7.6225  -15.8993   21.6725 C   0  0  0  0  0  0  0  0  0  0  0  0
    8.2366  -17.1872   21.1655 C   0  0  2  0  0  0  0  0  0  0  0  0
    7.2768  -17.9133   20.3663 N   0  0  0  0  0  0  0  0  0  0  0  0
    8.6564  -17.9676   22.3634 C   0  0  0  0  0  0  0  0  0  0  0  0
    8.5332  -19.2175   22.4245 O   0  0  0  0  0  0  0  0  0  0  0  0
    8.4079  -14.9677   19.4893 C   0  0  0  0  0  0  0  0  0  0  0  0
    8.6205  -13.8737   18.6648 C   0  0  0  0  0  0  0  0  0  0  0  0
    9.2082  -17.2798   23.4614 N   0  0  0  0  0  0  0  0  0  0  0  0
   10.2166  -17.8881   24.3291 C   0  0  1  0  0  0  0  0  0  0  0  0
   11.3810  -18.2842   23.4633 C   0  0  0  0  0  0  0  0  0  0  0  0
   12.3175  -19.1575   24.2117 C   0  0  0  0  0  0  0  0  0  0  0  0
   13.5558  -19.1159   23.9597 O   0  0  0  0  0  0  0  0  0  0  0  0
   10.6064  -16.8871   25.3562 C   0  0  0  0  0  0  0  0  0  0  0  0
   11.3686  -15.9517   25.1037 O   0  0  0  0  0  0  0  0  0  0  0  0
   11.8681  -20.0286   25.1912 O   0  0  0  0  0  0  0  0  0  0  0  0
   10.0729  -17.0305   26.6607 N   0  0  0  0  0  0  0  0  0  0  0  0
   10.4298  -16.0591   27.6705 C   0  0  1  0  0  0  0  0  0  0  0  0
    9.1223  -15.7278   28.3992 C   0  0  0  0  0  0  0  0  0  0  0  0
    8.1387  -15.3050   27.3796 C   0  0  0  0  0  0  0  0  0  0  0  0
    7.2251  -16.1309   26.7200 C   0  0  0  0  0  0  0  0  0  0  0  0
    6.5010  -15.3984   25.8612 N   0  0  0  0  0  0  0  0  0  0  0  0
    6.8877  -14.1058   25.9118 C   0  0  0  0  0  0  0  0  0  0  0  0
    6.4472  -12.9835   25.2244 C   0  0  0  0  0  0  0  0  0  0  0  0
    7.0618  -11.7885   25.5128 C   0  0  0  0  0  0  0  0  0  0  0  0
    8.0866  -11.7142   26.4596 C   0  0  0  0  0  0  0  0  0  0  0  0
    8.5050  -12.8284   27.1238 C   0  0  0  0  0  0  0  0  0  0  0  0
    7.9088  -14.0474   26.8585 C   0  0  0  0  0  0  0  0  0  0  0  0
   11.3766  -16.6742   28.6068 C   0  0  0  0  0  0  0  0  0  0  0  0
   11.8087  -16.0057   29.5835 O   0  0  0  0  0  0  0  0  0  0  0  0
   11.7984  -17.9729   28.4302 O   0  0  0  0  0  0  0  0  0  0  0  0
  2  1  1  0
  3  2  2  0
  4  3  1  0
  5 11  1  0
  5  4  2  0
  6  5  1  0
  7  6  1  0
  7  8  1  1
  9  7  1  0
  9 10  2  0
 11 12  2  0
 12  2  1  0
 13  9  1  0
 14 15  1  6
 14 13  1  0
 16 15  1  0
 17 16  2  0
 18 14  1  0
 19 18  2  0
 20 16  1  0
 21 18  1  0
 22 23  1  1
 22 21  1  0
 23 24  1  0
 24 32  1  0
 25 26  1  0
 25 24  2  0
 26 27  1  0
 27 32  2  0
 27 28  1  0
 28 29  2  0
 29 30  1  0
 31 30  2  0
 32 31  1  0
 33 22  1  0
 33 35  1  0
 34 33  2  0
M  END
$$$$
