YDW.pdb
     RDKit          3D

 35 37  0  0  1  0  0  0  0  0999 V2000
    7.3850  -11.6506   17.7618 O   0  0  0  0  0  0  0  0  0  0  0  0
    7.5249  -12.5186   18.8627 C   0  0  0  0  0  0  0  0  0  0  0  0
    8.7170  -12.6089   19.5518 C   0  0  0  0  0  0  0  0  0  0  0  0
    8.9105  -13.4385   20.6330 C   0  0  0  0  0  0  0  0  0  0  0  0
    7.8409  -14.2177   21.0379 C   0  0  0  0  0  0  0  0  0  0  0  0
    8.0443  -15.1096   22.1977 C   0  0  0  0  0  0  0  0  0  0  0  0
    8.5701  -16.4683   21.7850 C   0  0  2  0  0  0  0  0  0  0  0  0
    7.5668  -17.1788   21.0263 N   0  0  0  0  0  0  0  0  0  0  0  0
    8.9274  -17.1929   23.0371 C   0  0  0  0  0  0  0  0  0  0  0  0
    8.2083  -18.1111   23.5072 O   0  0  0  0  0  0  0  0  0  0  0  0
    6.6208  -14.1604   20.3746 C   0  0  0  0  0  0  0  0  0  0  0  0
    6.4797  -13.3074   19.2910 C   0  0  0  0  0  0  0  0  0  0  0  0
   10.1092  -16.8348   23.7139 N   0  0  0  0  0  0  0  0  0  0  0  0
   10.6805  -17.6702   24.7701 C   0  0  1  0  0  0  0  0  0  0  0  0
   11.7931  -18.4769   24.1586 C   0  0  0  0  0  0  0  0  0  0  0  0
   12.2414  -19.5413   25.0892 C   0  0  0  0  0  0  0  0  0  0  0  0
   11.4232  -20.0459   25.9104 O   0  0  0  0  0  0  0  0  0  0  0  0
   11.1742  -16.7762   25.8497 C   0  0  0  0  0  0  0  0  0  0  0  0
   12.3619  -16.4605   25.9472 O   0  0  0  0  0  0  0  0  0  0  0  0
   13.5476  -20.0037   25.0840 O   0  0  0  0  0  0  0  0  0  0  0  0
   10.2331  -16.2815   26.7859 N   0  0  0  0  0  0  0  0  0  0  0  0
   10.7074  -15.8065   28.0666 C   0  0  1  0  0  0  0  0  0  0  0  0
    9.6366  -14.8274   28.5615 C   0  0  0  0  0  0  0  0  0  0  0  0
    8.5397  -14.8283   27.5702 C   0  0  0  0  0  0  0  0  0  0  0  0
    7.7668  -15.9295   27.1938 C   0  0  0  0  0  0  0  0  0  0  0  0
    6.8738  -15.5518   26.2672 N   0  0  0  0  0  0  0  0  0  0  0  0
    7.0103  -14.2355   25.9995 C   0  0  0  0  0  0  0  0  0  0  0  0
    6.3303  -13.3959   25.1285 C   0  0  0  0  0  0  0  0  0  0  0  0
    6.7208  -12.0788   25.0918 C   0  0  0  0  0  0  0  0  0  0  0  0
    7.7602  -11.6116   25.9005 C   0  0  0  0  0  0  0  0  0  0  0  0
    8.4158  -12.4526   26.7493 C   0  0  0  0  0  0  0  0  0  0  0  0
    8.0489  -13.7842   26.8119 C   0  0  0  0  0  0  0  0  0  0  0  0
   10.8031  -16.9435   28.9884 C   0  0  0  0  0  0  0  0  0  0  0  0
   11.2069  -16.7564   30.1671 O   0  0  0  0  0  0  0  0  0  0  0  0
   10.4571  -18.2120   28.5800 O   0  0  0  0  0  0  0  0  0  0  0  0
  2  1  1  0
  3  2  2  0
  4  3  1  0
  5 11  1  0
  5  4  2  0
  6  5  1  0
  7  6  1  0
  7  8  1  1
  9  7  1  0
  9 10  2  0
 11 12  2  0
 12  2  1  0
 13  9  1  0
 14 15  1  6
 14 13  1  0
 16 15  1  0
 17 16  2  0
 18 14  1  0
 19 18  2  0
 20 16  1  0
 21 18  1  0
 22 23  1  1
 22 21  1  0
 23 24  1  0
 24 32  1  0
 25 26  1  0
 25 24  2  0
 26 27  1  0
 27 32  2  0
 27 28  1  0
 28 29  2  0
 29 30  1  0
 31 30  2  0
 32 31  1  0
 33 22  1  0
 33 35  1  0
 34 33  2  0
M  END
$$$$
