YDW.pdb
     RDKit          3D

 35 37  0  0  1  0  0  0  0  0999 V2000
    8.4254  -11.7715   18.5764 O   0  0  0  0  0  0  0  0  0  0  0  0
    8.0707  -12.9453   19.2701 C   0  0  0  0  0  0  0  0  0  0  0  0
    6.9680  -12.9774   20.0990 C   0  0  0  0  0  0  0  0  0  0  0  0
    6.5750  -14.0946   20.8005 C   0  0  0  0  0  0  0  0  0  0  0  0
    7.3386  -15.2397   20.6551 C   0  0  0  0  0  0  0  0  0  0  0  0
    6.9205  -16.4409   21.4063 C   0  0  0  0  0  0  0  0  0  0  0  0
    7.2265  -16.3223   22.8846 C   0  0  2  0  0  0  0  0  0  0  0  0
    7.3113  -14.9308   23.2634 N   0  0  0  0  0  0  0  0  0  0  0  0
    8.5140  -17.0350   23.1187 C   0  0  0  0  0  0  0  0  0  0  0  0
    8.6731  -18.2453   22.8172 O   0  0  0  0  0  0  0  0  0  0  0  0
    8.4578  -15.2549   19.8312 C   0  0  0  0  0  0  0  0  0  0  0  0
    8.8096  -14.1016   19.1471 C   0  0  0  0  0  0  0  0  0  0  0  0
    9.5852  -16.3272   23.6971 N   0  0  0  0  0  0  0  0  0  0  0  0
   10.9195  -16.9123   23.8278 C   0  0  1  0  0  0  0  0  0  0  0  0
   11.8127  -16.2337   22.8256 C   0  0  0  0  0  0  0  0  0  0  0  0
   11.8982  -17.0290   21.5767 C   0  0  0  0  0  0  0  0  0  0  0  0
   11.4067  -18.1932   21.5360 O   0  0  0  0  0  0  0  0  0  0  0  0
   11.3854  -16.6929   25.2219 C   0  0  0  0  0  0  0  0  0  0  0  0
   12.4901  -17.0768   25.6118 O   0  0  0  0  0  0  0  0  0  0  0  0
   12.5093  -16.5262   20.4392 O   0  0  0  0  0  0  0  0  0  0  0  0
   10.5170  -16.0181   26.1149 N   0  0  0  0  0  0  0  0  0  0  0  0
   10.9625  -15.7724   27.4683 C   0  0  1  0  0  0  0  0  0  0  0  0
   10.1989  -14.5258   27.9300 C   0  0  0  0  0  0  0  0  0  0  0  0
    8.8160  -14.6356   27.4187 C   0  0  0  0  0  0  0  0  0  0  0  0
    8.0439  -15.7987   27.3668 C   0  0  0  0  0  0  0  0  0  0  0  0
    6.8453  -15.5150   26.8364 N   0  0  0  0  0  0  0  0  0  0  0  0
    6.7732  -14.2031   26.5257 C   0  0  0  0  0  0  0  0  0  0  0  0
    5.7574  -13.4427   25.9635 C   0  0  0  0  0  0  0  0  0  0  0  0
    6.0062  -12.1045   25.7726 C   0  0  0  0  0  0  0  0  0  0  0  0
    7.2329  -11.5402   26.1319 C   0  0  0  0  0  0  0  0  0  0  0  0
    8.2179  -12.3046   26.6825 C   0  0  0  0  0  0  0  0  0  0  0  0
    8.0018  -13.6545   26.8888 C   0  0  0  0  0  0  0  0  0  0  0  0
   10.5918  -16.9186   28.3052 C   0  0  0  0  0  0  0  0  0  0  0  0
   10.8989  -16.9217   29.5272 O   0  0  0  0  0  0  0  0  0  0  0  0
    9.9129  -17.9905   27.7705 O   0  0  0  0  0  0  0  0  0  0  0  0
  2  1  1  0
  3  2  2  0
  4  3  1  0
  5 11  1  0
  5  4  2  0
  6  5  1  0
  7  6  1  0
  7  8  1  6
  9  7  1  0
  9 10  2  0
 11 12  2  0
 12  2  1  0
 13  9  1  0
 14 15  1  6
 14 13  1  0
 16 15  1  0
 17 16  2  0
 18 14  1  0
 19 18  2  0
 20 16  1  0
 21 18  1  0
 22 23  1  1
 22 21  1  0
 23 24  1  0
 24 32  1  0
 25 26  1  0
 25 24  2  0
 26 27  1  0
 27 32  2  0
 27 28  1  0
 28 29  2  0
 29 30  1  0
 31 30  2  0
 32 31  1  0
 33 22  1  0
 33 35  1  0
 34 33  2  0
M  END
$$$$
