YDW.pdb
     RDKit          3D

 35 37  0  0  1  0  0  0  0  0999 V2000
    8.7975  -14.4470   14.0458 O   0  0  0  0  0  0  0  0  0  0  0  0
    8.4685  -14.2041   15.3940 C   0  0  0  0  0  0  0  0  0  0  0  0
    7.2451  -13.6702   15.7438 C   0  0  0  0  0  0  0  0  0  0  0  0
    6.8704  -13.4121   17.0429 C   0  0  0  0  0  0  0  0  0  0  0  0
    7.7822  -13.7103   18.0404 C   0  0  0  0  0  0  0  0  0  0  0  0
    7.3842  -13.4347   19.4360 C   0  0  0  0  0  0  0  0  0  0  0  0
    8.4898  -13.7613   20.4178 C   0  0  2  0  0  0  0  0  0  0  0  0
    9.6978  -14.1100   19.7063 N   0  0  0  0  0  0  0  0  0  0  0  0
    8.0022  -14.8904   21.2590 C   0  0  0  0  0  0  0  0  0  0  0  0
    6.9179  -14.8327   21.8931 O   0  0  0  0  0  0  0  0  0  0  0  0
    9.0266  -14.2494   17.7361 C   0  0  0  0  0  0  0  0  0  0  0  0
    9.3535  -14.4897   16.4105 C   0  0  0  0  0  0  0  0  0  0  0  0
    8.7840  -16.0586   21.3451 N   0  0  0  0  0  0  0  0  0  0  0  0
    8.4137  -17.1763   22.2130 C   0  0  1  0  0  0  0  0  0  0  0  0
    9.3127  -18.3330   21.8718 C   0  0  0  0  0  0  0  0  0  0  0  0
    9.0177  -19.4996   22.7389 C   0  0  0  0  0  0  0  0  0  0  0  0
    7.8434  -19.9651   22.7911 O   0  0  0  0  0  0  0  0  0  0  0  0
    8.5834  -16.7412   23.6239 C   0  0  0  0  0  0  0  0  0  0  0  0
    7.6380  -16.3343   24.3025 O   0  0  0  0  0  0  0  0  0  0  0  0
   10.0050  -20.1009   23.5031 O   0  0  0  0  0  0  0  0  0  0  0  0
    9.8814  -16.8050   24.1880 N   0  0  0  0  0  0  0  0  0  0  0  0
   10.2573  -15.8269   25.1842 C   0  0  1  0  0  0  0  0  0  0  0  0
    9.3410  -16.0927   26.3842 C   0  0  0  0  0  0  0  0  0  0  0  0
    8.1122  -15.2932   26.1923 C   0  0  0  0  0  0  0  0  0  0  0  0
    6.8671  -15.7768   25.7828 C   0  0  0  0  0  0  0  0  0  0  0  0
    5.9946  -14.7606   25.7144 N   0  0  0  0  0  0  0  0  0  0  0  0
    6.5994  -13.6045   26.0618 C   0  0  0  0  0  0  0  0  0  0  0  0
    6.1239  -12.3033   26.1444 C   0  0  0  0  0  0  0  0  0  0  0  0
    7.0140  -11.3328   26.5377 C   0  0  0  0  0  0  0  0  0  0  0  0
    8.3407  -11.6503   26.8402 C   0  0  0  0  0  0  0  0  0  0  0  0
    8.7881  -12.9347   26.7525 C   0  0  0  0  0  0  0  0  0  0  0  0
    7.9196  -13.9365   26.3600 C   0  0  0  0  0  0  0  0  0  0  0  0
   11.6547  -16.0538   25.5682 C   0  0  0  0  0  0  0  0  0  0  0  0
   12.2851  -17.0269   25.0752 O   0  0  0  0  0  0  0  0  0  0  0  0
   12.2845  -15.2160   26.4610 O   0  0  0  0  0  0  0  0  0  0  0  0
  2  1  1  0
  3  2  2  0
  4  3  1  0
  5 11  1  0
  5  4  2  0
  6  5  1  0
  7  6  1  0
  7  8  1  6
  9  7  1  0
  9 10  2  0
 11 12  2  0
 12  2  1  0
 13  9  1  0
 14 15  1  6
 14 13  1  0
 16 15  1  0
 17 16  2  0
 18 14  1  0
 19 18  2  0
 20 16  1  0
 21 18  1  0
 22 23  1  1
 22 21  1  0
 23 24  1  0
 24 32  1  0
 25 26  1  0
 25 24  2  0
 26 27  1  0
 27 32  2  0
 27 28  1  0
 28 29  2  0
 29 30  1  0
 31 30  2  0
 32 31  1  0
 33 22  1  0
 33 35  1  0
 34 33  2  0
M  END
$$$$
