YDW.pdb
     RDKit          3D

 35 37  0  0  1  0  0  0  0  0999 V2000
    7.4354  -11.2599   17.9290 O   0  0  0  0  0  0  0  0  0  0  0  0
    7.5058  -12.3178   18.8568 C   0  0  0  0  0  0  0  0  0  0  0  0
    6.5457  -13.3086   18.8819 C   0  0  0  0  0  0  0  0  0  0  0  0
    6.5639  -14.3642   19.7650 C   0  0  0  0  0  0  0  0  0  0  0  0
    7.6091  -14.4198   20.6705 C   0  0  0  0  0  0  0  0  0  0  0  0
    7.6323  -15.5510   21.6202 C   0  0  0  0  0  0  0  0  0  0  0  0
    8.4026  -16.7353   21.0753 C   0  0  2  0  0  0  0  0  0  0  0  0
    7.6099  -17.4305   20.0876 N   0  0  0  0  0  0  0  0  0  0  0  0
    8.7266  -17.6120   22.2359 C   0  0  0  0  0  0  0  0  0  0  0  0
    8.0962  -18.6749   22.4681 O   0  0  0  0  0  0  0  0  0  0  0  0
    8.5992  -13.4445   20.6827 C   0  0  0  0  0  0  0  0  0  0  0  0
    8.5330  -12.4022   19.7711 C   0  0  0  0  0  0  0  0  0  0  0  0
    9.7733  -17.2346   23.0991 N   0  0  0  0  0  0  0  0  0  0  0  0
   10.1746  -18.0609   24.2375 C   0  0  1  0  0  0  0  0  0  0  0  0
   11.3408  -18.9033   23.7980 C   0  0  0  0  0  0  0  0  0  0  0  0
   11.7790  -19.8034   24.8923 C   0  0  0  0  0  0  0  0  0  0  0  0
   10.9181  -20.3919   25.6072 O   0  0  0  0  0  0  0  0  0  0  0  0
   10.5372  -17.1565   25.3596 C   0  0  0  0  0  0  0  0  0  0  0  0
   11.4098  -16.2926   25.2492 O   0  0  0  0  0  0  0  0  0  0  0  0
   13.1219  -20.0201   25.1567 O   0  0  0  0  0  0  0  0  0  0  0  0
    9.8453  -17.3083   26.5864 N   0  0  0  0  0  0  0  0  0  0  0  0
   10.2199  -16.4734   27.7059 C   0  0  1  0  0  0  0  0  0  0  0  0
    8.8987  -16.0168   28.3354 C   0  0  0  0  0  0  0  0  0  0  0  0
    8.0785  -15.4149   27.2626 C   0  0  0  0  0  0  0  0  0  0  0  0
    7.1923  -16.0919   26.4212 C   0  0  0  0  0  0  0  0  0  0  0  0
    6.6326  -15.2206   25.5691 N   0  0  0  0  0  0  0  0  0  0  0  0
    7.1048  -13.9767   25.7994 C   0  0  0  0  0  0  0  0  0  0  0  0
    6.8340  -12.7598   25.1898 C   0  0  0  0  0  0  0  0  0  0  0  0
    7.4959  -11.6552   25.6702 C   0  0  0  0  0  0  0  0  0  0  0  0
    8.4023  -11.7607   26.7283 C   0  0  0  0  0  0  0  0  0  0  0  0
    8.6545  -12.9656   27.3134 C   0  0  0  0  0  0  0  0  0  0  0  0
    8.0062  -14.0977   26.8553 C   0  0  0  0  0  0  0  0  0  0  0  0
   10.9742  -17.2823   28.6694 C   0  0  0  0  0  0  0  0  0  0  0  0
   11.1007  -18.5211   28.4773 O   0  0  0  0  0  0  0  0  0  0  0  0
   11.5447  -16.7034   29.7807 O   0  0  0  0  0  0  0  0  0  0  0  0
  2  1  1  0
  3  2  2  0
  4  3  1  0
  5 11  1  0
  5  4  2  0
  6  5  1  0
  7  6  1  0
  7  8  1  6
  9  7  1  0
  9 10  2  0
 11 12  2  0
 12  2  1  0
 13  9  1  0
 14 15  1  6
 14 13  1  0
 16 15  1  0
 17 16  2  0
 18 14  1  0
 19 18  2  0
 20 16  1  0
 21 18  1  0
 22 23  1  1
 22 21  1  0
 23 24  1  0
 24 32  1  0
 25 26  1  0
 25 24  2  0
 26 27  1  0
 27 32  2  0
 27 28  1  0
 28 29  2  0
 29 30  1  0
 31 30  2  0
 32 31  1  0
 33 22  1  0
 33 35  1  0
 34 33  2  0
M  END
$$$$
