YDW.pdb
     RDKit          3D

 35 37  0  0  1  0  0  0  0  0999 V2000
    7.1604  -12.8860   15.6211 O   0  0  0  0  0  0  0  0  0  0  0  0
    7.2689  -13.5261   16.8715 C   0  0  0  0  0  0  0  0  0  0  0  0
    7.7650  -12.8590   17.9728 C   0  0  0  0  0  0  0  0  0  0  0  0
    7.8935  -13.4336   19.2170 C   0  0  0  0  0  0  0  0  0  0  0  0
    7.4988  -14.7530   19.3535 C   0  0  0  0  0  0  0  0  0  0  0  0
    7.6351  -15.3736   20.6870 C   0  0  0  0  0  0  0  0  0  0  0  0
    8.9344  -14.9892   21.3631 C   0  0  2  0  0  0  0  0  0  0  0  0
   10.0368  -15.1414   20.4419 N   0  0  0  0  0  0  0  0  0  0  0  0
    9.0839  -15.8771   22.5504 C   0  0  0  0  0  0  0  0  0  0  0  0
    8.1473  -16.0640   23.3682 O   0  0  0  0  0  0  0  0  0  0  0  0
    6.9930  -15.4653   18.2724 C   0  0  0  0  0  0  0  0  0  0  0  0
    6.8848  -14.8384   17.0407 C   0  0  0  0  0  0  0  0  0  0  0  0
   10.3158  -16.5262   22.7607 N   0  0  0  0  0  0  0  0  0  0  0  0
   10.5417  -17.4067   23.9068 C   0  0  1  0  0  0  0  0  0  0  0  0
   11.8250  -18.1517   23.6606 C   0  0  0  0  0  0  0  0  0  0  0  0
   11.7084  -19.0137   22.4592 C   0  0  0  0  0  0  0  0  0  0  0  0
   10.9518  -20.0264   22.4813 O   0  0  0  0  0  0  0  0  0  0  0  0
   10.6169  -16.5641   25.1287 C   0  0  0  0  0  0  0  0  0  0  0  0
   11.3469  -15.5730   25.1974 O   0  0  0  0  0  0  0  0  0  0  0  0
   12.4141  -18.7372   21.2992 O   0  0  0  0  0  0  0  0  0  0  0  0
    9.8152  -16.9286   26.2383 N   0  0  0  0  0  0  0  0  0  0  0  0
    9.9986  -16.2293   27.4905 C   0  0  1  0  0  0  0  0  0  0  0  0
    8.5933  -16.0792   28.0844 C   0  0  0  0  0  0  0  0  0  0  0  0
    7.8053  -15.2389   27.1577 C   0  0  0  0  0  0  0  0  0  0  0  0
    6.8975  -15.6940   26.1983 C   0  0  0  0  0  0  0  0  0  0  0  0
    6.3794  -14.6457   25.5418 N   0  0  0  0  0  0  0  0  0  0  0  0
    6.9005  -13.4950   26.0185 C   0  0  0  0  0  0  0  0  0  0  0  0
    6.6837  -12.1695   25.6689 C   0  0  0  0  0  0  0  0  0  0  0  0
    7.3871  -11.2136   26.3619 C   0  0  0  0  0  0  0  0  0  0  0  0
    8.2817  -11.5688   27.3748 C   0  0  0  0  0  0  0  0  0  0  0  0
    8.4807  -12.8767   27.7029 C   0  0  0  0  0  0  0  0  0  0  0  0
    7.7895  -13.8646   27.0261 C   0  0  0  0  0  0  0  0  0  0  0  0
   10.8259  -17.0540   28.3776 C   0  0  0  0  0  0  0  0  0  0  0  0
   11.1266  -16.6257   29.5238 O   0  0  0  0  0  0  0  0  0  0  0  0
   11.2774  -18.2898   27.9719 O   0  0  0  0  0  0  0  0  0  0  0  0
  2  1  1  0
  3  2  2  0
  4  3  1  0
  5 11  1  0
  5  4  2  0
  6  5  1  0
  7  6  1  0
  7  8  1  6
  9  7  1  0
  9 10  2  0
 11 12  2  0
 12  2  1  0
 13  9  1  0
 14 15  1  6
 14 13  1  0
 16 15  1  0
 17 16  2  0
 18 14  1  0
 19 18  2  0
 20 16  1  0
 21 18  1  0
 22 23  1  1
 22 21  1  0
 23 24  1  0
 24 32  1  0
 25 26  1  0
 25 24  2  0
 26 27  1  0
 27 32  2  0
 27 28  1  0
 28 29  2  0
 29 30  1  0
 31 30  2  0
 32 31  1  0
 33 22  1  0
 33 35  1  0
 34 33  2  0
M  END
$$$$
