YDW.pdb
     RDKit          3D

 35 37  0  0  1  0  0  0  0  0999 V2000
    6.5460  -12.0052   16.8989 O   0  0  0  0  0  0  0  0  0  0  0  0
    6.9536  -12.9585   17.8529 C   0  0  0  0  0  0  0  0  0  0  0  0
    6.5581  -14.2770   17.7565 C   0  0  0  0  0  0  0  0  0  0  0  0
    6.9252  -15.2499   18.6584 C   0  0  0  0  0  0  0  0  0  0  0  0
    7.7355  -14.8679   19.7133 C   0  0  0  0  0  0  0  0  0  0  0  0
    8.1318  -15.9088   20.6836 C   0  0  0  0  0  0  0  0  0  0  0  0
    9.5948  -16.2780   20.5559 C   0  0  2  0  0  0  0  0  0  0  0  0
    9.9051  -16.6077   19.1841 N   0  0  0  0  0  0  0  0  0  0  0  0
    9.8305  -17.4343   21.4657 C   0  0  0  0  0  0  0  0  0  0  0  0
    9.6504  -18.6230   21.0974 O   0  0  0  0  0  0  0  0  0  0  0  0
    8.1590  -13.5513   19.8515 C   0  0  0  0  0  0  0  0  0  0  0  0
    7.7599  -12.6108   18.9145 C   0  0  0  0  0  0  0  0  0  0  0  0
   10.2686  -17.1841   22.7805 N   0  0  0  0  0  0  0  0  0  0  0  0
   11.6254  -17.5092   23.2199 C   0  0  1  0  0  0  0  0  0  0  0  0
   12.5822  -16.8087   22.2945 C   0  0  0  0  0  0  0  0  0  0  0  0
   13.9854  -17.0565   22.7058 C   0  0  0  0  0  0  0  0  0  0  0  0
   14.2522  -18.0077   23.4949 O   0  0  0  0  0  0  0  0  0  0  0  0
   11.7783  -17.0497   24.6250 C   0  0  0  0  0  0  0  0  0  0  0  0
   12.6500  -16.2450   24.9601 O   0  0  0  0  0  0  0  0  0  0  0  0
   15.0251  -16.2651   22.2443 O   0  0  0  0  0  0  0  0  0  0  0  0
   10.8827  -17.5647   25.5943 N   0  0  0  0  0  0  0  0  0  0  0  0
    9.9219  -16.6702   26.2005 C   0  0  1  0  0  0  0  0  0  0  0  0
    9.0714  -16.1376   25.0415 C   0  0  0  0  0  0  0  0  0  0  0  0
    7.9106  -15.4338   25.6274 C   0  0  0  0  0  0  0  0  0  0  0  0
    6.7268  -16.0239   26.0766 C   0  0  0  0  0  0  0  0  0  0  0  0
    5.9012  -15.0727   26.5374 N   0  0  0  0  0  0  0  0  0  0  0  0
    6.4790  -13.8582   26.4184 C   0  0  0  0  0  0  0  0  0  0  0  0
    6.0310  -12.5871   26.7494 C   0  0  0  0  0  0  0  0  0  0  0  0
    6.8792  -11.5359   26.4954 C   0  0  0  0  0  0  0  0  0  0  0  0
    8.1384  -11.7457   25.9273 C   0  0  0  0  0  0  0  0  0  0  0  0
    8.5596  -13.0023   25.6092 C   0  0  0  0  0  0  0  0  0  0  0  0
    7.7320  -14.0832   25.8511 C   0  0  0  0  0  0  0  0  0  0  0  0
    9.0774  -17.4361   27.1235 C   0  0  0  0  0  0  0  0  0  0  0  0
    8.7915  -18.6338   26.8567 O   0  0  0  0  0  0  0  0  0  0  0  0
    8.5937  -16.8610   28.2772 O   0  0  0  0  0  0  0  0  0  0  0  0
  2  1  1  0
  3  2  2  0
  4  3  1  0
  5 11  1  0
  5  4  2  0
  6  5  1  0
  7  6  1  0
  7  8  1  6
  9  7  1  0
  9 10  2  0
 11 12  2  0
 12  2  1  0
 13  9  1  0
 14 15  1  6
 14 13  1  0
 16 15  1  0
 17 16  2  0
 18 14  1  0
 19 18  2  0
 20 16  1  0
 21 18  1  0
 22 23  1  6
 22 21  1  0
 23 24  1  0
 24 32  1  0
 25 26  1  0
 25 24  2  0
 26 27  1  0
 27 32  2  0
 27 28  1  0
 28 29  2  0
 29 30  1  0
 31 30  2  0
 32 31  1  0
 33 22  1  0
 33 35  1  0
 34 33  2  0
M  END
$$$$
