HGL.pdb
     RDKit          3D

 23 23  0  0  1  0  0  0  0  0999 V2000
    9.1951  -15.4670   19.5384 N   0  0  0  0  0  0  0  0  0  0  0  0
    7.9495  -14.8607   19.9650 C   0  0  1  0  0  0  0  0  0  0  0  0
    6.9186  -15.1998   18.9107 C   0  0  0  0  0  0  0  0  0  0  0  0
    7.2997  -14.6347   17.5914 C   0  0  0  0  0  0  0  0  0  0  0  0
    7.8116  -13.3804   17.3215 C   0  0  0  0  0  0  0  0  0  0  0  0
    8.0253  -13.2608   15.9837 N   0  0  0  0  0  0  0  0  0  0  0  0
    7.6495  -14.4342   15.4151 C   0  0  0  0  0  0  0  0  0  0  0  0
    7.2178  -15.2489   16.3801 N   0  0  0  0  0  0  0  0  0  0  0  0
    7.6087  -15.3653   21.2908 C   0  0  0  0  0  0  0  0  0  0  0  0
    6.6013  -14.9168   21.8884 O   0  0  0  0  0  0  0  0  0  0  0  0
    8.3588  -16.3631   21.9826 N   0  0  0  0  0  0  0  0  0  0  0  0
    8.0157  -16.8486   23.2846 C   0  0  0  0  0  0  0  0  0  0  0  0
    8.6354  -15.9524   24.3098 C   0  0  0  0  0  0  0  0  0  0  0  0
    9.8621  -15.6129   24.1984 O   0  0  0  0  0  0  0  0  0  0  0  0
    6.5112  -11.6646   27.1625 C   0  0  0  0  0  0  0  0  0  0  0  0
    7.5988  -12.4614   26.4245 C   0  0  2  0  0  0  0  0  0  0  0  0
    7.0915  -12.5997   25.0088 C   0  0  0  0  0  0  0  0  0  0  0  0
    7.7487  -13.7419   27.1607 C   0  0  0  0  0  0  0  0  0  0  0  0
    8.6236  -14.7724   26.4969 C   0  0  2  0  0  0  0  0  0  0  0  0
    7.9448  -15.4461   25.4136 N   0  0  0  0  0  0  0  0  0  0  0  0
    9.2085  -15.7659   27.3914 C   0  0  0  0  0  0  0  0  0  0  0  0
   10.2551  -15.4723   28.2544 O   0  0  0  0  0  0  0  0  0  0  0  0
    8.7694  -16.9412   27.4033 O   0  0  0  0  0  0  0  0  0  0  0  0
  2  1  1  6
  2  3  1  0
  3  4  1  0
  4  5  2  0
  5  6  1  0
  7  6  1  0
  8  4  1  0
  8  7  2  0
  9  2  1  0
  9 10  2  0
 11  9  1  0
 12 11  1  0
 12 13  1  0
 13 20  1  0
 14 13  2  0
 16 15  1  1
 16 17  1  0
 18 16  1  0
 19 18  1  1
 20 19  1  0
 21 19  1  0
 21 22  1  0
 23 21  2  0
M  END
$$$$
