HGL.pdb
     RDKit          3D

 23 23  0  0  1  0  0  0  0  0999 V2000
    8.3483  -15.6539   20.5510 N   0  0  0  0  0  0  0  0  0  0  0  0
    9.7387  -15.7730   20.1592 C   0  0  1  0  0  0  0  0  0  0  0  0
   10.0327  -14.6052   19.2431 C   0  0  0  0  0  0  0  0  0  0  0  0
    9.0685  -14.5570   18.1147 C   0  0  0  0  0  0  0  0  0  0  0  0
    8.6659  -15.5955   17.2977 C   0  0  0  0  0  0  0  0  0  0  0  0
    7.7699  -15.1291   16.3870 N   0  0  0  0  0  0  0  0  0  0  0  0
    7.6098  -13.8037   16.6303 C   0  0  0  0  0  0  0  0  0  0  0  0
    8.3874  -13.4695   17.6622 N   0  0  0  0  0  0  0  0  0  0  0  0
   10.5676  -15.7896   21.3596 C   0  0  0  0  0  0  0  0  0  0  0  0
   11.8152  -15.8665   21.2546 O   0  0  0  0  0  0  0  0  0  0  0  0
   10.0505  -15.7229   22.6880 N   0  0  0  0  0  0  0  0  0  0  0  0
   10.8682  -15.8090   23.8596 C   0  0  0  0  0  0  0  0  0  0  0  0
    9.9809  -15.8272   25.0641 C   0  0  0  0  0  0  0  0  0  0  0  0
   10.4919  -15.9607   26.2274 O   0  0  0  0  0  0  0  0  0  0  0  0
    8.2565  -13.3938   27.8864 C   0  0  0  0  0  0  0  0  0  0  0  0
    7.5488  -13.4550   26.5234 C   0  0  2  0  0  0  0  0  0  0  0  0
    6.6255  -12.2601   26.5066 C   0  0  0  0  0  0  0  0  0  0  0  0
    6.8651  -14.7716   26.4680 C   0  0  0  0  0  0  0  0  0  0  0  0
    7.7501  -15.9486   26.1525 C   0  0  2  0  0  0  0  0  0  0  0  0
    8.5907  -15.7045   25.0027 N   0  0  0  0  0  0  0  0  0  0  0  0
    7.0593  -17.2227   25.9829 C   0  0  0  0  0  0  0  0  0  0  0  0
    7.2210  -18.0179   24.8569 O   0  0  0  0  0  0  0  0  0  0  0  0
    6.2813  -17.6426   26.8732 O   0  0  0  0  0  0  0  0  0  0  0  0
  2  1  1  1
  2  3  1  0
  3  4  1  0
  4  5  2  0
  5  6  1  0
  7  6  1  0
  8  4  1  0
  8  7  2  0
  9  2  1  0
  9 10  2  0
 11  9  1  0
 12 11  1  0
 12 13  1  0
 13 20  1  0
 14 13  2  0
 16 15  1  1
 16 17  1  0
 18 16  1  0
 19 18  1  6
 20 19  1  0
 21 19  1  0
 21 22  1  0
 23 21  2  0
M  END
$$$$
