HGL.pdb
     RDKit          3D

 23 23  0  0  1  0  0  0  0  0999 V2000
    8.8853  -17.9893   18.2508 N   0  0  0  0  0  0  0  0  0  0  0  0
    9.0109  -16.7328   18.9624 C   0  0  1  0  0  0  0  0  0  0  0  0
    8.7453  -15.6355   17.9551 C   0  0  0  0  0  0  0  0  0  0  0  0
    8.7371  -14.3023   18.6090 C   0  0  0  0  0  0  0  0  0  0  0  0
    9.7389  -13.3512   18.6094 C   0  0  0  0  0  0  0  0  0  0  0  0
    9.3310  -12.2694   19.3256 N   0  0  0  0  0  0  0  0  0  0  0  0
    8.0786  -12.5389   19.7734 C   0  0  0  0  0  0  0  0  0  0  0  0
    7.7309  -13.7531   19.3421 N   0  0  0  0  0  0  0  0  0  0  0  0
    8.0757  -16.7290   20.0822 C   0  0  0  0  0  0  0  0  0  0  0  0
    6.8993  -17.1300   19.9132 O   0  0  0  0  0  0  0  0  0  0  0  0
    8.4080  -16.2892   21.3985 N   0  0  0  0  0  0  0  0  0  0  0  0
    7.4563  -16.1922   22.4632 C   0  0  0  0  0  0  0  0  0  0  0  0
    8.1435  -15.6417   23.6727 C   0  0  0  0  0  0  0  0  0  0  0  0
    9.4195  -15.5890   23.7094 O   0  0  0  0  0  0  0  0  0  0  0  0
    7.8748  -11.6162   25.7150 C   0  0  0  0  0  0  0  0  0  0  0  0
    6.7217  -12.5868   26.0160 C   0  0  2  0  0  0  0  0  0  0  0  0
    5.7143  -11.7713   26.7909 C   0  0  0  0  0  0  0  0  0  0  0  0
    7.3169  -13.7201   26.7680 C   0  0  0  0  0  0  0  0  0  0  0  0
    8.1675  -14.6610   25.9561 C   0  0  2  0  0  0  0  0  0  0  0  0
    7.4660  -15.1672   24.7985 N   0  0  0  0  0  0  0  0  0  0  0  0
    8.7457  -15.7778   26.6960 C   0  0  0  0  0  0  0  0  0  0  0  0
    9.8607  -15.6389   27.5108 O   0  0  0  0  0  0  0  0  0  0  0  0
    8.2371  -16.9217   26.6122 O   0  0  0  0  0  0  0  0  0  0  0  0
  2  1  1  6
  2  3  1  0
  3  4  1  0
  4  5  2  0
  5  6  1  0
  7  6  1  0
  8  4  1  0
  8  7  2  0
  9  2  1  0
  9 10  2  0
 11  9  1  0
 12 11  1  0
 12 13  1  0
 13 20  1  0
 14 13  2  0
 16 15  1  1
 16 17  1  0
 18 16  1  0
 19 18  1  1
 20 19  1  0
 21 19  1  0
 21 22  1  0
 23 21  2  0
M  END
$$$$
