HGL.pdb
     RDKit          3D

 23 23  0  0  1  0  0  0  0  0999 V2000
    5.7467  -15.2935   20.9343 N   0  0  0  0  0  0  0  0  0  0  0  0
    6.9329  -16.1264   20.9501 C   0  0  1  0  0  0  0  0  0  0  0  0
    7.2462  -16.4621   19.5084 C   0  0  0  0  0  0  0  0  0  0  0  0
    7.8337  -15.2939   18.8047 C   0  0  0  0  0  0  0  0  0  0  0  0
    7.2099  -14.4325   17.9233 C   0  0  0  0  0  0  0  0  0  0  0  0
    8.1019  -13.4957   17.5034 N   0  0  0  0  0  0  0  0  0  0  0  0
    9.2811  -13.7668   18.1178 C   0  0  0  0  0  0  0  0  0  0  0  0
    9.1137  -14.8406   18.8925 N   0  0  0  0  0  0  0  0  0  0  0  0
    8.0076  -15.4047   21.6228 C   0  0  0  0  0  0  0  0  0  0  0  0
    7.9253  -14.1621   21.7729 O   0  0  0  0  0  0  0  0  0  0  0  0
    9.1842  -16.0248   22.1402 N   0  0  0  0  0  0  0  0  0  0  0  0
   10.2229  -15.3087   22.8161 C   0  0  0  0  0  0  0  0  0  0  0  0
    9.8740  -15.2135   24.2679 C   0  0  0  0  0  0  0  0  0  0  0  0
   10.7378  -14.7755   25.1013 O   0  0  0  0  0  0  0  0  0  0  0  0
    8.1396  -12.6469   27.2785 C   0  0  0  0  0  0  0  0  0  0  0  0
    7.2401  -13.2687   26.1984 C   0  0  2  0  0  0  0  0  0  0  0  0
    5.9401  -12.5048   26.2827 C   0  0  0  0  0  0  0  0  0  0  0  0
    7.1362  -14.7134   26.5241 C   0  0  0  0  0  0  0  0  0  0  0  0
    8.3561  -15.5382   26.2086 C   0  0  2  0  0  0  0  0  0  0  0  0
    8.6320  -15.5813   24.7908 N   0  0  0  0  0  0  0  0  0  0  0  0
    8.3466  -16.8973   26.7396 C   0  0  0  0  0  0  0  0  0  0  0  0
    8.2389  -18.0176   25.9273 O   0  0  0  0  0  0  0  0  0  0  0  0
    8.4372  -17.0930   27.9755 O   0  0  0  0  0  0  0  0  0  0  0  0
  2  1  1  6
  2  3  1  0
  3  4  1  0
  4  5  2  0
  5  6  1  0
  7  6  1  0
  8  4  1  0
  8  7  2  0
  9  2  1  0
  9 10  2  0
 11  9  1  0
 12 11  1  0
 12 13  1  0
 13 20  1  0
 14 13  2  0
 16 15  1  1
 16 17  1  0
 18 16  1  0
 19 18  1  6
 20 19  1  0
 21 19  1  0
 21 22  1  0
 23 21  2  0
M  END
$$$$
