HGL.pdb
     RDKit          3D

 23 23  0  0  1  0  0  0  0  0999 V2000
    8.3491  -15.4346   21.9270 N   0  0  0  0  0  0  0  0  0  0  0  0
    9.1557  -16.1279   20.9423 C   0  0  1  0  0  0  0  0  0  0  0  0
    9.4633  -15.1263   19.8507 C   0  0  0  0  0  0  0  0  0  0  0  0
    8.2406  -14.3878   19.4450 C   0  0  0  0  0  0  0  0  0  0  0  0
    6.9516  -14.5599   19.9108 C   0  0  0  0  0  0  0  0  0  0  0  0
    6.1254  -13.6822   19.2808 N   0  0  0  0  0  0  0  0  0  0  0  0
    6.8912  -12.9617   18.4230 C   0  0  0  0  0  0  0  0  0  0  0  0
    8.1518  -13.3879   18.5264 N   0  0  0  0  0  0  0  0  0  0  0  0
   10.3483  -16.6558   21.5960 C   0  0  0  0  0  0  0  0  0  0  0  0
   11.4052  -16.8062   20.9375 O   0  0  0  0  0  0  0  0  0  0  0  0
   10.4063  -17.0265   22.9729 N   0  0  0  0  0  0  0  0  0  0  0  0
   11.3694  -16.5019   23.8927 C   0  0  0  0  0  0  0  0  0  0  0  0
   10.6880  -16.2255   25.1956 C   0  0  0  0  0  0  0  0  0  0  0  0
   11.3794  -15.8824   26.2138 O   0  0  0  0  0  0  0  0  0  0  0  0
    8.5325  -13.1115   27.1473 C   0  0  0  0  0  0  0  0  0  0  0  0
    7.7466  -13.8734   26.0682 C   0  0  2  0  0  0  0  0  0  0  0  0
    6.5061  -13.0463   25.8285 C   0  0  0  0  0  0  0  0  0  0  0  0
    7.4948  -15.2299   26.6164 C   0  0  0  0  0  0  0  0  0  0  0  0
    8.6953  -16.1371   26.6781 C   0  0  2  0  0  0  0  0  0  0  0  0
    9.3066  -16.3196   25.3814 N   0  0  0  0  0  0  0  0  0  0  0  0
    8.4628  -17.4415   27.2894 C   0  0  0  0  0  0  0  0  0  0  0  0
    8.3184  -17.6111   28.6594 O   0  0  0  0  0  0  0  0  0  0  0  0
    8.3861  -18.4694   26.5742 O   0  0  0  0  0  0  0  0  0  0  0  0
  2  1  1  1
  2  3  1  0
  3  4  1  0
  4  5  2  0
  5  6  1  0
  7  6  1  0
  8  4  1  0
  8  7  2  0
  9  2  1  0
  9 10  2  0
 11  9  1  0
 12 11  1  0
 12 13  1  0
 13 20  1  0
 14 13  2  0
 16 15  1  1
 16 17  1  0
 18 16  1  0
 19 18  1  6
 20 19  1  0
 21 19  1  0
 21 22  1  0
 23 21  2  0
M  END
$$$$
