HGL.pdb
     RDKit          3D

 23 23  0  0  1  0  0  0  0  0999 V2000
    8.6076  -16.1755   18.4541 N   0  0  0  0  0  0  0  0  0  0  0  0
    8.6809  -14.8314   18.9915 C   0  0  1  0  0  0  0  0  0  0  0  0
    7.5782  -14.0375   18.3260 C   0  0  0  0  0  0  0  0  0  0  0  0
    7.8132  -13.9205   16.8644 C   0  0  0  0  0  0  0  0  0  0  0  0
    8.5500  -12.9612   16.1975 C   0  0  0  0  0  0  0  0  0  0  0  0
    8.5140  -13.2152   14.8619 N   0  0  0  0  0  0  0  0  0  0  0  0
    7.7582  -14.3290   14.6897 C   0  0  0  0  0  0  0  0  0  0  0  0
    7.3435  -14.7442   15.8885 N   0  0  0  0  0  0  0  0  0  0  0  0
    8.5522  -14.8958   20.4433 C   0  0  0  0  0  0  0  0  0  0  0  0
    8.6314  -13.8448   21.1233 O   0  0  0  0  0  0  0  0  0  0  0  0
    8.3360  -16.1031   21.1730 N   0  0  0  0  0  0  0  0  0  0  0  0
    9.0866  -16.4691   22.3354 C   0  0  0  0  0  0  0  0  0  0  0  0
    8.5089  -15.7639   23.5217 C   0  0  0  0  0  0  0  0  0  0  0  0
    7.2421  -15.7253   23.6828 O   0  0  0  0  0  0  0  0  0  0  0  0
    5.6109  -12.4560   26.2174 C   0  0  0  0  0  0  0  0  0  0  0  0
    6.8775  -13.1830   26.6968 C   0  0  2  0  0  0  0  0  0  0  0  0
    7.6755  -12.1354   27.4357 C   0  0  0  0  0  0  0  0  0  0  0  0
    7.5338  -13.7226   25.4793 C   0  0  0  0  0  0  0  0  0  0  0  0
    8.7080  -14.6329   25.7256 C   0  0  2  0  0  0  0  0  0  0  0  0
    9.2822  -15.1256   24.4944 N   0  0  0  0  0  0  0  0  0  0  0  0
    8.4516  -15.7560   26.6213 C   0  0  0  0  0  0  0  0  0  0  0  0
    9.2504  -16.0333   27.7219 O   0  0  0  0  0  0  0  0  0  0  0  0
    7.4779  -16.5195   26.4139 O   0  0  0  0  0  0  0  0  0  0  0  0
  2  1  1  6
  2  3  1  0
  3  4  1  0
  4  5  2  0
  5  6  1  0
  7  6  1  0
  8  4  1  0
  8  7  2  0
  9  2  1  0
  9 10  2  0
 11  9  1  0
 12 11  1  0
 12 13  1  0
 13 20  1  0
 14 13  2  0
 16 15  1  6
 16 17  1  0
 18 16  1  0
 19 18  1  6
 20 19  1  0
 21 19  1  0
 21 22  1  0
 23 21  2  0
M  END
$$$$
