HGL.pdb
     RDKit          3D

 23 23  0  0  1  0  0  0  0  0999 V2000
    9.5305  -16.9871   18.5157 N   0  0  0  0  0  0  0  0  0  0  0  0
    8.8457  -15.9407   19.2486 C   0  0  1  0  0  0  0  0  0  0  0  0
    7.5839  -15.6245   18.4757 C   0  0  0  0  0  0  0  0  0  0  0  0
    7.8962  -14.8928   17.2218 C   0  0  0  0  0  0  0  0  0  0  0  0
    8.4964  -13.6559   17.0882 C   0  0  0  0  0  0  0  0  0  0  0  0
    8.5995  -13.3469   15.7677 N   0  0  0  0  0  0  0  0  0  0  0  0
    8.0666  -14.3846   15.0743 C   0  0  0  0  0  0  0  0  0  0  0  0
    7.6492  -15.3030   15.9482 N   0  0  0  0  0  0  0  0  0  0  0  0
    8.5905  -16.4057   20.6076 C   0  0  0  0  0  0  0  0  0  0  0  0
    8.4764  -17.6339   20.8350 O   0  0  0  0  0  0  0  0  0  0  0  0
    8.4564  -15.5414   21.7353 N   0  0  0  0  0  0  0  0  0  0  0  0
    7.7151  -15.8849   22.9105 C   0  0  0  0  0  0  0  0  0  0  0  0
    8.4011  -15.2929   24.1010 C   0  0  0  0  0  0  0  0  0  0  0  0
    9.5729  -14.7988   23.9782 O   0  0  0  0  0  0  0  0  0  0  0  0
    6.2445  -11.5705   27.3678 C   0  0  0  0  0  0  0  0  0  0  0  0
    7.1412  -12.3931   26.4287 C   0  0  2  0  0  0  0  0  0  0  0  0
    6.3001  -12.6395   25.1990 C   0  0  0  0  0  0  0  0  0  0  0  0
    7.5199  -13.6162   27.1801 C   0  0  0  0  0  0  0  0  0  0  0  0
    8.4689  -14.5452   26.4700 C   0  0  2  0  0  0  0  0  0  0  0  0
    7.8319  -15.2416   25.3757 N   0  0  0  0  0  0  0  0  0  0  0  0
    9.1537  -15.5112   27.3228 C   0  0  0  0  0  0  0  0  0  0  0  0
    9.0009  -16.8826   27.1731 O   0  0  0  0  0  0  0  0  0  0  0  0
    9.9174  -15.1168   28.2368 O   0  0  0  0  0  0  0  0  0  0  0  0
  2  1  1  6
  2  3  1  0
  3  4  1  0
  4  5  2  0
  5  6  1  0
  7  6  1  0
  8  4  1  0
  8  7  2  0
  9  2  1  0
  9 10  2  0
 11  9  1  0
 12 11  1  0
 12 13  1  0
 13 20  1  0
 14 13  2  0
 16 15  1  1
 16 17  1  0
 18 16  1  0
 19 18  1  1
 20 19  1  0
 21 19  1  0
 21 22  1  0
 23 21  2  0
M  END
$$$$
