HGL.pdb
     RDKit          3D

 23 23  0  0  1  0  0  0  0  0999 V2000
   10.0356  -15.7936   18.9146 N   0  0  0  0  0  0  0  0  0  0  0  0
    8.8697  -15.3509   19.6533 C   0  0  1  0  0  0  0  0  0  0  0  0
    7.6812  -15.5264   18.7336 C   0  0  0  0  0  0  0  0  0  0  0  0
    7.8962  -14.8212   17.4444 C   0  0  0  0  0  0  0  0  0  0  0  0
    8.3993  -13.5502   17.2461 C   0  0  0  0  0  0  0  0  0  0  0  0
    8.4344  -13.2840   15.9128 N   0  0  0  0  0  0  0  0  0  0  0  0
    7.9557  -14.3824   15.2759 C   0  0  0  0  0  0  0  0  0  0  0  0
    7.6366  -15.2953   16.1957 N   0  0  0  0  0  0  0  0  0  0  0  0
    8.7682  -16.1270   20.8844 C   0  0  0  0  0  0  0  0  0  0  0  0
    9.3684  -17.2241   20.9809 O   0  0  0  0  0  0  0  0  0  0  0  0
    8.0132  -15.7199   22.0250 N   0  0  0  0  0  0  0  0  0  0  0  0
    7.9450  -16.4759   23.2385 C   0  0  0  0  0  0  0  0  0  0  0  0
    8.5819  -15.6821   24.3351 C   0  0  0  0  0  0  0  0  0  0  0  0
    9.7069  -15.1106   24.1345 O   0  0  0  0  0  0  0  0  0  0  0  0
    7.9102  -11.7914   25.5715 C   0  0  0  0  0  0  0  0  0  0  0  0
    6.9420  -12.8699   26.0834 C   0  0  2  0  0  0  0  0  0  0  0  0
    5.7381  -12.1097   26.5864 C   0  0  0  0  0  0  0  0  0  0  0  0
    7.6785  -13.6303   27.1243 C   0  0  0  0  0  0  0  0  0  0  0  0
    8.6253  -14.6825   26.6100 C   0  0  2  0  0  0  0  0  0  0  0  0
    8.0146  -15.5176   25.6010 N   0  0  0  0  0  0  0  0  0  0  0  0
    9.2353  -15.5278   27.6310 C   0  0  0  0  0  0  0  0  0  0  0  0
    9.1425  -16.9125   27.6101 O   0  0  0  0  0  0  0  0  0  0  0  0
    9.8753  -15.0114   28.5786 O   0  0  0  0  0  0  0  0  0  0  0  0
  2  1  1  6
  2  3  1  0
  3  4  1  0
  4  5  2  0
  5  6  1  0
  7  6  1  0
  8  4  1  0
  8  7  2  0
  9  2  1  0
  9 10  2  0
 11  9  1  0
 12 11  1  0
 12 13  1  0
 13 20  1  0
 14 13  2  0
 16 15  1  1
 16 17  1  0
 18 16  1  0
 19 18  1  1
 20 19  1  0
 21 19  1  0
 21 22  1  0
 23 21  2  0
M  END
$$$$
