ATY.pdb
     RDKit          3D

 25 25  0  0  1  0  0  0  0  0999 V2000
   27.3198  -14.4189  -20.4339 C   0  0  0  0  0  0  0  0  0  0  0  0
   25.8414  -14.1982  -20.6821 C   0  0  2  0  0  0  0  0  0  0  0  0
   25.4332  -14.5977  -22.0043 N   0  0  0  0  0  0  0  0  0  0  0  0
   25.5217  -12.7707  -20.4104 C   0  0  0  0  0  0  0  0  0  0  0  0
   26.3607  -11.8710  -20.7139 O   0  0  0  0  0  0  0  0  0  0  0  0
   22.8865  -10.6366  -21.7178 C   0  0  0  0  0  0  0  0  0  0  0  0
   22.6809  -10.5886  -20.2135 C   0  0  1  0  0  0  0  0  0  0  0  0
   21.6824  -11.5049  -19.8729 O   0  0  0  0  0  0  0  0  0  0  0  0
   23.9714  -10.9838  -19.5668 C   0  0  2  0  0  0  0  0  0  0  0  0
   24.3073  -12.3538  -19.8195 N   0  0  0  0  0  0  0  0  0  0  0  0
   23.9280  -10.6392  -18.1381 C   0  0  0  0  0  0  0  0  0  0  0  0
   23.7360  -11.4565  -17.2060 O   0  0  0  0  0  0  0  0  0  0  0  0
   29.6231  -12.0782  -16.7721 O   0  0  0  0  0  0  0  0  0  0  0  0
   28.6104  -11.1572  -16.5944 C   0  0  0  0  0  0  0  0  0  0  0  0
   27.7850  -11.2510  -15.5016 C   0  0  0  0  0  0  0  0  0  0  0  0
   26.7650  -10.3069  -15.3411 C   0  0  0  0  0  0  0  0  0  0  0  0
   26.5831   -9.2998  -16.2545 C   0  0  0  0  0  0  0  0  0  0  0  0
   25.5170   -8.3132  -16.0960 C   0  0  0  0  0  0  0  0  0  0  0  0
   24.1505   -8.8939  -16.3706 C   0  0  2  0  0  0  0  0  0  0  0  0
   24.1181   -9.2740  -17.7844 N   0  0  0  0  0  0  0  0  0  0  0  0
   23.0508   -7.9520  -16.0678 C   0  0  0  0  0  0  0  0  0  0  0  0
   22.7454   -7.5910  -14.7409 O   0  0  0  0  0  0  0  0  0  0  0  0
   27.4270   -9.2307  -17.3414 C   0  0  0  0  0  0  0  0  0  0  0  0
   28.4521  -10.1585  -17.5263 C   0  0  0  0  0  0  0  0  0  0  0  0
   22.3320   -7.4228  -16.9505 O   0  0  0  0  0  0  0  0  0  0  0  0
  2  1  1  6
  3  2  1  0
  4  5  2  0
  4  2  1  0
  7  6  1  6
  7  8  1  0
  7  9  1  0
  9 10  1  1
 10  4  1  0
 11  9  1  0
 11 20  1  0
 12 11  2  0
 14 13  1  0
 15 14  2  0
 16 15  1  0
 17 16  2  0
 17 23  1  0
 18 17  1  0
 19 18  1  6
 20 19  1  0
 21 19  1  0
 22 21  1  0
 23 24  2  0
 24 14  1  0
 25 21  2  0
M  END
$$$$
