ATY.pdb
     RDKit          3D

 25 25  0  0  1  0  0  0  0  0999 V2000
   42.4761   -9.5103   -3.4621 C   0  0  0  0  0  0  0  0  0  0  0  0
   43.0423   -9.8554   -4.8245 C   0  0  2  0  0  0  0  0  0  0  0  0
   44.4814   -9.9143   -4.8307 N   0  0  0  0  0  0  0  0  0  0  0  0
   42.5228   -8.8762   -5.8170 C   0  0  0  0  0  0  0  0  0  0  0  0
   43.1957   -7.8362   -6.0838 O   0  0  0  0  0  0  0  0  0  0  0  0
   40.8951   -9.3713   -9.2540 C   0  0  0  0  0  0  0  0  0  0  0  0
   39.9117   -8.5542   -8.4340 C   0  0  1  0  0  0  0  0  0  0  0  0
   38.8836   -9.3977   -8.0048 O   0  0  0  0  0  0  0  0  0  0  0  0
   40.6490   -8.0129   -7.2493 C   0  0  2  0  0  0  0  0  0  0  0  0
   41.2934   -9.0459   -6.4935 N   0  0  0  0  0  0  0  0  0  0  0  0
   39.7432   -7.1735   -6.4515 C   0  0  0  0  0  0  0  0  0  0  0  0
   39.1464   -7.5444   -5.4123 O   0  0  0  0  0  0  0  0  0  0  0  0
   36.4877   -1.5826   -1.1732 O   0  0  0  0  0  0  0  0  0  0  0  0
   37.1923   -2.3910   -2.0424 C   0  0  0  0  0  0  0  0  0  0  0  0
   38.1495   -1.8445   -2.8605 C   0  0  0  0  0  0  0  0  0  0  0  0
   38.8516   -2.6822   -3.7339 C   0  0  0  0  0  0  0  0  0  0  0  0
   38.5960   -4.0290   -3.7807 C   0  0  0  0  0  0  0  0  0  0  0  0
   39.3217   -4.9092   -4.6937 C   0  0  0  0  0  0  0  0  0  0  0  0
   38.7121   -4.9341   -6.0749 C   0  0  2  0  0  0  0  0  0  0  0  0
   39.5262   -5.8375   -6.8908 N   0  0  0  0  0  0  0  0  0  0  0  0
   38.6466   -3.5959   -6.7020 C   0  0  0  0  0  0  0  0  0  0  0  0
   37.4958   -2.7921   -6.5850 O   0  0  0  0  0  0  0  0  0  0  0  0
   37.6296   -4.5494   -2.9479 C   0  0  0  0  0  0  0  0  0  0  0  0
   36.9145   -3.7376   -2.0674 C   0  0  0  0  0  0  0  0  0  0  0  0
   39.5886   -3.0971   -7.3650 O   0  0  0  0  0  0  0  0  0  0  0  0
  2  1  1  1
  3  2  1  0
  4  5  2  0
  4  2  1  0
  7  6  1  6
  7  8  1  0
  7  9  1  0
  9 10  1  1
 10  4  1  0
 11  9  1  0
 11 20  1  0
 12 11  2  0
 14 13  1  0
 15 14  2  0
 16 15  1  0
 17 16  2  0
 17 23  1  0
 18 17  1  0
 19 18  1  1
 20 19  1  0
 21 19  1  0
 22 21  1  0
 23 24  2  0
 24 14  1  0
 25 21  2  0
M  END
$$$$
