ATY.pdb
     RDKit          3D

 25 25  0  0  1  0  0  0  0  0999 V2000
   20.8404  -13.1105  -17.8202 C   0  0  0  0  0  0  0  0  0  0  0  0
   19.9868  -11.9285  -17.4077 C   0  0  2  0  0  0  0  0  0  0  0  0
   19.1932  -11.4096  -18.4918 N   0  0  0  0  0  0  0  0  0  0  0  0
   20.8708  -10.8864  -16.8190 C   0  0  0  0  0  0  0  0  0  0  0  0
   21.6073  -11.1746  -15.8291 O   0  0  0  0  0  0  0  0  0  0  0  0
   23.3353   -8.6280  -18.4895 C   0  0  0  0  0  0  0  0  0  0  0  0
   22.4398   -7.6914  -17.6970 C   0  0  1  0  0  0  0  0  0  0  0  0
   21.5377   -7.0890  -18.5780 O   0  0  0  0  0  0  0  0  0  0  0  0
   21.6937   -8.5167  -16.6959 C   0  0  2  0  0  0  0  0  0  0  0  0
   20.9355   -9.5640  -17.3138 N   0  0  0  0  0  0  0  0  0  0  0  0
   20.8919   -7.6345  -15.8353 C   0  0  0  0  0  0  0  0  0  0  0  0
   19.6462   -7.5019  -15.9020 O   0  0  0  0  0  0  0  0  0  0  0  0
   16.7117   -4.0862   -9.5135 O   0  0  0  0  0  0  0  0  0  0  0  0
   17.4860   -4.7906  -10.4133 C   0  0  0  0  0  0  0  0  0  0  0  0
   18.4511   -5.6532   -9.9564 C   0  0  0  0  0  0  0  0  0  0  0  0
   19.2244   -6.3570  -10.8860 C   0  0  0  0  0  0  0  0  0  0  0  0
   19.0304   -6.1957  -12.2342 C   0  0  0  0  0  0  0  0  0  0  0  0
   19.8375   -6.9237  -13.2108 C   0  0  0  0  0  0  0  0  0  0  0  0
   20.8175   -6.0275  -13.9296 C   0  0  2  0  0  0  0  0  0  0  0  0
   21.5807   -6.8722  -14.8507 N   0  0  0  0  0  0  0  0  0  0  0  0
   21.7318   -5.3159  -13.0098 C   0  0  0  0  0  0  0  0  0  0  0  0
   22.8680   -5.9535  -12.4742 O   0  0  0  0  0  0  0  0  0  0  0  0
   18.0544   -5.3231  -12.6635 C   0  0  0  0  0  0  0  0  0  0  0  0
   17.2688   -4.6087  -11.7589 C   0  0  0  0  0  0  0  0  0  0  0  0
   21.5623   -4.1245  -12.6523 O   0  0  0  0  0  0  0  0  0  0  0  0
  2  1  1  6
  3  2  1  0
  4  5  2  0
  4  2  1  0
  7  6  1  6
  7  8  1  0
  7  9  1  0
  9 10  1  6
 10  4  1  0
 11  9  1  0
 11 20  1  0
 12 11  2  0
 14 13  1  0
 15 14  2  0
 16 15  1  0
 17 16  2  0
 17 23  1  0
 18 17  1  0
 19 18  1  1
 20 19  1  0
 21 19  1  0
 22 21  1  0
 23 24  2  0
 24 14  1  0
 25 21  2  0
M  END
$$$$
