ATY.pdb
     RDKit          3D

 25 25  0  0  1  0  0  0  0  0999 V2000
   24.4048  -15.1377  -18.4100 C   0  0  0  0  0  0  0  0  0  0  0  0
   23.6534  -16.0639  -19.3446 C   0  0  2  0  0  0  0  0  0  0  0  0
   22.8988  -15.3533  -20.3447 N   0  0  0  0  0  0  0  0  0  0  0  0
   22.7892  -16.9612  -18.5311 C   0  0  0  0  0  0  0  0  0  0  0  0
   21.8495  -16.4687  -17.8384 O   0  0  0  0  0  0  0  0  0  0  0  0
   20.6249  -21.1512  -17.6502 C   0  0  0  0  0  0  0  0  0  0  0  0
   21.5117  -20.3145  -18.5560 C   0  0  1  0  0  0  0  0  0  0  0  0
   20.7128  -19.7310  -19.5430 O   0  0  0  0  0  0  0  0  0  0  0  0
   22.1382  -19.2460  -17.7160 C   0  0  2  0  0  0  0  0  0  0  0  0
   22.9625  -18.3634  -18.4874 N   0  0  0  0  0  0  0  0  0  0  0  0
   22.8356  -19.8641  -16.5788 C   0  0  0  0  0  0  0  0  0  0  0  0
   24.0811  -19.9636  -16.4662 O   0  0  0  0  0  0  0  0  0  0  0  0
   25.8847  -21.3074   -8.8608 O   0  0  0  0  0  0  0  0  0  0  0  0
   25.3012  -20.9423  -10.0573 C   0  0  0  0  0  0  0  0  0  0  0  0
   25.9976  -21.0904  -11.2308 C   0  0  0  0  0  0  0  0  0  0  0  0
   25.3871  -20.7140  -12.4321 C   0  0  0  0  0  0  0  0  0  0  0  0
   24.1138  -20.2041  -12.4490 C   0  0  0  0  0  0  0  0  0  0  0  0
   23.4716  -19.8044  -13.6992 C   0  0  0  0  0  0  0  0  0  0  0  0
   22.6887  -20.9313  -14.3296 C   0  0  2  0  0  0  0  0  0  0  0  0
   22.0378  -20.3901  -15.5245 N   0  0  0  0  0  0  0  0  0  0  0  0
   21.6814  -21.5161  -13.4176 C   0  0  0  0  0  0  0  0  0  0  0  0
   20.3340  -21.1074  -13.4620 O   0  0  0  0  0  0  0  0  0  0  0  0
   23.4390  -20.0670  -11.2556 C   0  0  0  0  0  0  0  0  0  0  0  0
   24.0234  -20.4342  -10.0435 C   0  0  0  0  0  0  0  0  0  0  0  0
   21.9513  -22.3949  -12.5628 O   0  0  0  0  0  0  0  0  0  0  0  0
  2  1  1  1
  3  2  1  0
  4  5  2  0
  4  2  1  0
  7  6  1  1
  7  8  1  0
  7  9  1  0
  9 10  1  6
 10  4  1  0
 11  9  1  0
 11 20  1  0
 12 11  2  0
 14 13  1  0
 15 14  2  0
 16 15  1  0
 17 16  2  0
 17 23  1  0
 18 17  1  0
 19 18  1  1
 20 19  1  0
 21 19  1  0
 22 21  1  0
 23 24  2  0
 24 14  1  0
 25 21  2  0
M  END
$$$$
