ATY.pdb
     RDKit          3D

 25 25  0  0  1  0  0  0  0  0999 V2000
   20.2643  -12.5443  -18.9325 C   0  0  0  0  0  0  0  0  0  0  0  0
   21.4445  -11.8818  -19.6138 C   0  0  2  0  0  0  0  0  0  0  0  0
   22.5419  -12.7885  -19.8328 N   0  0  0  0  0  0  0  0  0  0  0  0
   21.8544  -10.6985  -18.8103 C   0  0  0  0  0  0  0  0  0  0  0  0
   22.5222  -10.8634  -17.7462 O   0  0  0  0  0  0  0  0  0  0  0  0
   22.9170   -7.3742  -20.5584 C   0  0  0  0  0  0  0  0  0  0  0  0
   22.0743   -7.0067  -19.3493 C   0  0  1  0  0  0  0  0  0  0  0  0
   20.7948   -6.6581  -19.7899 O   0  0  0  0  0  0  0  0  0  0  0  0
   21.9940   -8.2142  -18.4687 C   0  0  2  0  0  0  0  0  0  0  0  0
   21.5328   -9.3717  -19.1765 N   0  0  0  0  0  0  0  0  0  0  0  0
   21.1989   -7.8958  -17.2737 C   0  0  0  0  0  0  0  0  0  0  0  0
   20.0524   -8.3438  -17.0315 O   0  0  0  0  0  0  0  0  0  0  0  0
   18.9718   -5.8086   -9.1951 O   0  0  0  0  0  0  0  0  0  0  0  0
   19.6339   -6.1448  -10.3587 C   0  0  0  0  0  0  0  0  0  0  0  0
   19.6124   -7.4419  -10.8073 C   0  0  0  0  0  0  0  0  0  0  0  0
   20.2903   -7.7605  -11.9890 C   0  0  0  0  0  0  0  0  0  0  0  0
   20.9688   -6.8007  -12.6961 C   0  0  0  0  0  0  0  0  0  0  0  0
   21.6831   -7.1270  -13.9283 C   0  0  0  0  0  0  0  0  0  0  0  0
   20.9837   -6.5954  -15.1565 C   0  0  2  0  0  0  0  0  0  0  0  0
   21.7728   -7.0116  -16.3177 N   0  0  0  0  0  0  0  0  0  0  0  0
   20.8293   -5.1242  -15.1424 C   0  0  0  0  0  0  0  0  0  0  0  0
   21.9270   -4.2742  -15.3806 O   0  0  0  0  0  0  0  0  0  0  0  0
   20.9730   -5.5072  -12.2216 C   0  0  0  0  0  0  0  0  0  0  0  0
   20.3056   -5.1615  -11.0465 C   0  0  0  0  0  0  0  0  0  0  0  0
   19.7367   -4.5466  -14.9226 O   0  0  0  0  0  0  0  0  0  0  0  0
  2  1  1  1
  3  2  1  0
  4  5  2  0
  4  2  1  0
  7  6  1  6
  7  8  1  0
  7  9  1  0
  9 10  1  6
 10  4  1  0
 11  9  1  0
 11 20  1  0
 12 11  2  0
 14 13  1  0
 15 14  2  0
 16 15  1  0
 17 16  2  0
 17 23  1  0
 18 17  1  0
 19 18  1  1
 20 19  1  0
 21 19  1  0
 22 21  1  0
 23 24  2  0
 24 14  1  0
 25 21  2  0
M  END
$$$$
