ATY.pdb
     RDKit          3D

 25 25  0  0  1  0  0  0  0  0999 V2000
   19.4611  -11.6823  -17.2125 C   0  0  0  0  0  0  0  0  0  0  0  0
   20.4437  -11.3522  -18.3177 C   0  0  2  0  0  0  0  0  0  0  0  0
   21.3713  -12.4232  -18.5761 N   0  0  0  0  0  0  0  0  0  0  0  0
   21.1420  -10.0852  -17.9700 C   0  0  0  0  0  0  0  0  0  0  0  0
   22.0606  -10.0941  -17.0974 O   0  0  0  0  0  0  0  0  0  0  0  0
   22.1204   -5.3543  -18.7969 C   0  0  0  0  0  0  0  0  0  0  0  0
   21.3069   -6.5565  -19.2443 C   0  0  1  0  0  0  0  0  0  0  0  0
   21.8580   -7.0483  -20.4306 O   0  0  0  0  0  0  0  0  0  0  0  0
   21.4064   -7.5957  -18.1719 C   0  0  2  0  0  0  0  0  0  0  0  0
   20.8305   -8.8452  -18.5727 N   0  0  0  0  0  0  0  0  0  0  0  0
   20.8494   -7.0618  -16.9205 C   0  0  0  0  0  0  0  0  0  0  0  0
   19.6295   -7.0357  -16.6289 O   0  0  0  0  0  0  0  0  0  0  0  0
   18.8948   -5.3003   -8.8862 O   0  0  0  0  0  0  0  0  0  0  0  0
   19.4857   -5.7264  -10.0587 C   0  0  0  0  0  0  0  0  0  0  0  0
   20.8170   -6.0605  -10.0712 C   0  0  0  0  0  0  0  0  0  0  0  0
   21.3955   -6.4899  -11.2706 C   0  0  0  0  0  0  0  0  0  0  0  0
   20.6543   -6.5793  -12.4213 C   0  0  0  0  0  0  0  0  0  0  0  0
   21.2529   -7.0223  -13.6785 C   0  0  0  0  0  0  0  0  0  0  0  0
   21.2502   -5.9387  -14.7301 C   0  0  2  0  0  0  0  0  0  0  0  0
   21.7631   -6.5339  -15.9658 N   0  0  0  0  0  0  0  0  0  0  0  0
   22.0644   -4.7632  -14.3509 C   0  0  0  0  0  0  0  0  0  0  0  0
   21.4664   -3.6033  -13.8207 O   0  0  0  0  0  0  0  0  0  0  0  0
   19.3203   -6.2374  -12.3785 C   0  0  0  0  0  0  0  0  0  0  0  0
   18.7178   -5.8062  -11.1966 C   0  0  0  0  0  0  0  0  0  0  0  0
   23.3130   -4.7198  -14.4725 O   0  0  0  0  0  0  0  0  0  0  0  0
  2  1  1  1
  3  2  1  0
  4  5  2  0
  4  2  1  0
  7  6  1  1
  7  8  1  0
  7  9  1  0
  9 10  1  6
 10  4  1  0
 11  9  1  0
 11 20  1  0
 12 11  2  0
 14 13  1  0
 15 14  2  0
 16 15  1  0
 17 16  2  0
 17 23  1  0
 18 17  1  0
 19 18  1  1
 20 19  1  0
 21 19  1  0
 22 21  1  0
 23 24  2  0
 24 14  1  0
 25 21  2  0
M  END
$$$$
