STL.pdb
     RDKit          3D

 22 21  0  0  1  0  0  0  0  0999 V2000
    5.9777  -19.9429   24.4097 O   0  0  0  0  0  0  0  0  0  0  0  0
    5.0951  -18.9373   24.0726 C   0  0  0  0  0  0  0  0  0  0  0  0
    5.2473  -18.4498   22.6486 C   0  0  2  0  0  0  0  0  0  0  0  0
    4.8431  -19.5304   21.7869 N   0  0  0  0  0  0  0  0  0  0  0  0
    6.6231  -18.0117   22.3435 C   0  0  0  0  0  0  0  0  0  0  0  0
    7.3285  -18.7375   21.6012 O   0  0  0  0  0  0  0  0  0  0  0  0
    8.1460  -16.4564   20.1051 C   0  0  0  0  0  0  0  0  0  0  0  0
    8.6272  -15.6148   21.2641 C   0  0  1  0  0  0  0  0  0  0  0  0
    7.8718  -14.4633   21.3307 O   0  0  0  0  0  0  0  0  0  0  0  0
    8.5558  -16.4253   22.5482 C   0  0  2  0  0  0  0  0  0  0  0  0
    7.1926  -16.8154   22.8429 N   0  0  0  0  0  0  0  0  0  0  0  0
    9.1549  -15.6849   23.6859 C   0  0  0  0  0  0  0  0  0  0  0  0
    8.5182  -14.7519   24.2313 O   0  0  0  0  0  0  0  0  0  0  0  0
    9.9804  -13.3284   27.3792 C   0  0  0  0  0  0  0  0  0  0  0  0
    9.2630  -14.6157   27.2416 C   0  0  2  0  0  0  0  0  0  0  0  0
    8.7374  -15.0649   28.6163 C   0  0  0  0  0  0  0  0  0  0  0  0
    9.9098  -15.7350   26.5291 C   0  0  0  0  0  0  0  0  0  0  0  0
   10.9139  -15.4563   25.5039 C   0  0  2  0  0  0  0  0  0  0  0  0
   10.4394  -15.9934   24.1911 N   0  0  0  0  0  0  0  0  0  0  0  0
   12.3078  -15.8583   25.6703 C   0  0  0  0  0  0  0  0  0  0  0  0
   12.8572  -16.9126   25.2839 O   0  0  0  0  0  0  0  0  0  0  0  0
   13.2161  -14.9908   26.3490 O   0  0  0  0  0  0  0  0  0  0  0  0
  1  2  1  0
  3  2  1  0
  3  4  1  6
  5  3  1  0
  5 11  1  0
  6  5  2  0
  8  7  1  6
  9  8  1  0
 10 11  1  1
 10  8  1  0
 12 10  1  0
 12 19  1  0
 13 12  2  0
 15 16  1  1
 15 14  1  0
 17 15  1  0
 18 19  1  0
 18 17  1  1
 20 18  1  0
 21 20  2  0
 22 20  1  0
M  END
$$$$
