STL.pdb
     RDKit          3D

 22 21  0  0  1  0  0  0  0  0999 V2000
    9.6102  -12.3355   19.4408 O   0  0  0  0  0  0  0  0  0  0  0  0
    8.7958  -12.6787   18.3812 C   0  0  0  0  0  0  0  0  0  0  0  0
    8.5663  -14.1684   18.2512 C   0  0  2  0  0  0  0  0  0  0  0  0
    7.6866  -14.3636   17.1281 N   0  0  0  0  0  0  0  0  0  0  0  0
    8.0034  -14.7643   19.4783 C   0  0  0  0  0  0  0  0  0  0  0  0
    6.7792  -14.6103   19.7078 O   0  0  0  0  0  0  0  0  0  0  0  0
    8.1542  -18.3291   20.5017 C   0  0  0  0  0  0  0  0  0  0  0  0
    8.5964  -17.5610   21.7254 C   0  0  1  0  0  0  0  0  0  0  0  0
    9.9589  -17.7042   21.8808 O   0  0  0  0  0  0  0  0  0  0  0  0
    8.1821  -16.1045   21.5915 C   0  0  2  0  0  0  0  0  0  0  0  0
    8.7697  -15.5020   20.4130 N   0  0  0  0  0  0  0  0  0  0  0  0
    8.5264  -15.3329   22.8112 C   0  0  0  0  0  0  0  0  0  0  0  0
    9.5899  -14.6694   22.8536 O   0  0  0  0  0  0  0  0  0  0  0  0
    5.6392  -12.1012   27.1079 C   0  0  0  0  0  0  0  0  0  0  0  0
    6.8931  -12.6935   26.5908 C   0  0  2  0  0  0  0  0  0  0  0  0
    7.9294  -11.5819   26.3486 C   0  0  0  0  0  0  0  0  0  0  0  0
    6.8385  -13.6262   25.4480 C   0  0  0  0  0  0  0  0  0  0  0  0
    7.9998  -14.4579   25.1369 C   0  0  2  0  0  0  0  0  0  0  0  0
    7.6885  -15.3140   23.9506 N   0  0  0  0  0  0  0  0  0  0  0  0
    8.6231  -15.3086   26.1469 C   0  0  0  0  0  0  0  0  0  0  0  0
    9.3000  -14.9589   27.1379 O   0  0  0  0  0  0  0  0  0  0  0  0
    8.4859  -16.7268   26.0570 O   0  0  0  0  0  0  0  0  0  0  0  0
  1  2  1  0
  3  2  1  0
  3  4  1  6
  5  3  1  0
  5 11  1  0
  6  5  2  0
  8  7  1  6
  9  8  1  0
 10 11  1  6
 10  8  1  0
 12 10  1  0
 12 19  1  0
 13 12  2  0
 15 16  1  6
 15 14  1  0
 17 15  1  0
 18 19  1  0
 18 17  1  1
 20 18  1  0
 21 20  2  0
 22 20  1  0
M  END
$$$$
