STL.pdb
     RDKit          3D

 22 21  0  0  1  0  0  0  0  0999 V2000
   12.0069  -13.2492   18.5011 O   0  0  0  0  0  0  0  0  0  0  0  0
   10.8808  -13.3348   19.2939 C   0  0  0  0  0  0  0  0  0  0  0  0
    9.9170  -14.4180   18.8624 C   0  0  2  0  0  0  0  0  0  0  0  0
    9.1874  -13.9076   17.7308 N   0  0  0  0  0  0  0  0  0  0  0  0
    9.0019  -14.8268   19.9456 C   0  0  0  0  0  0  0  0  0  0  0  0
    7.9143  -14.2130   20.0699 O   0  0  0  0  0  0  0  0  0  0  0  0
    7.9105  -18.4711   20.7998 C   0  0  0  0  0  0  0  0  0  0  0  0
    8.3669  -17.7922   22.0702 C   0  0  1  0  0  0  0  0  0  0  0  0
    9.6201  -18.2585   22.4067 O   0  0  0  0  0  0  0  0  0  0  0  0
    8.3458  -16.2842   21.8794 C   0  0  2  0  0  0  0  0  0  0  0  0
    9.2836  -15.8756   20.8543 N   0  0  0  0  0  0  0  0  0  0  0  0
    8.6118  -15.5764   23.1561 C   0  0  0  0  0  0  0  0  0  0  0  0
    9.7710  -15.1784   23.4222 O   0  0  0  0  0  0  0  0  0  0  0  0
    5.6648  -12.0363   27.2742 C   0  0  0  0  0  0  0  0  0  0  0  0
    6.8623  -12.7860   26.8330 C   0  0  2  0  0  0  0  0  0  0  0  0
    8.0354  -11.8119   26.6255 C   0  0  0  0  0  0  0  0  0  0  0  0
    6.7521  -13.7320   25.7053 C   0  0  0  0  0  0  0  0  0  0  0  0
    7.8748  -14.6128   25.3876 C   0  0  2  0  0  0  0  0  0  0  0  0
    7.5923  -15.3270   24.1042 N   0  0  0  0  0  0  0  0  0  0  0  0
    8.3671  -15.5991   26.3454 C   0  0  0  0  0  0  0  0  0  0  0  0
    7.9330  -16.7522   26.5562 O   0  0  0  0  0  0  0  0  0  0  0  0
    9.4797  -15.2775   27.1802 O   0  0  0  0  0  0  0  0  0  0  0  0
  1  2  1  0
  3  2  1  0
  3  4  1  6
  5  3  1  0
  5 11  1  0
  6  5  2  0
  8  7  1  6
  9  8  1  0
 10 11  1  6
 10  8  1  0
 12 10  1  0
 12 19  1  0
 13 12  2  0
 15 16  1  6
 15 14  1  0
 17 15  1  0
 18 19  1  0
 18 17  1  1
 20 18  1  0
 21 20  2  0
 22 20  1  0
M  END
$$$$
