STL.pdb
     RDKit          3D

 22 21  0  0  1  0  0  0  0  0999 V2000
    9.0343  -11.7983   19.6812 O   0  0  0  0  0  0  0  0  0  0  0  0
    9.8633  -12.8136   19.2501 C   0  0  0  0  0  0  0  0  0  0  0  0
    9.1252  -14.0784   18.8706 C   0  0  2  0  0  0  0  0  0  0  0  0
    8.2447  -13.7429   17.7818 N   0  0  0  0  0  0  0  0  0  0  0  0
    8.3758  -14.6585   20.0019 C   0  0  0  0  0  0  0  0  0  0  0  0
    7.1240  -14.5684   19.9958 O   0  0  0  0  0  0  0  0  0  0  0  0
    7.4290  -18.0747   23.1255 C   0  0  0  0  0  0  0  0  0  0  0  0
    8.2635  -17.4551   22.0288 C   0  0  1  0  0  0  0  0  0  0  0  0
    7.7977  -17.8899   20.8061 O   0  0  0  0  0  0  0  0  0  0  0  0
    8.2272  -15.9404   22.1532 C   0  0  2  0  0  0  0  0  0  0  0  0
    8.9923  -15.3124   21.0961 N   0  0  0  0  0  0  0  0  0  0  0  0
    8.7019  -15.4986   23.4878 C   0  0  0  0  0  0  0  0  0  0  0  0
    9.9316  -15.4414   23.7282 O   0  0  0  0  0  0  0  0  0  0  0  0
    7.7410  -11.6757   25.5443 C   0  0  0  0  0  0  0  0  0  0  0  0
    6.7880  -12.7446   25.9184 C   0  0  2  0  0  0  0  0  0  0  0  0
    5.6153  -12.1390   26.7096 C   0  0  0  0  0  0  0  0  0  0  0  0
    7.2904  -13.9705   26.5692 C   0  0  0  0  0  0  0  0  0  0  0  0
    8.2949  -14.7891   25.8925 C   0  0  2  0  0  0  0  0  0  0  0  0
    7.8078  -15.1321   24.5206 N   0  0  0  0  0  0  0  0  0  0  0  0
    8.8175  -16.0116   26.4965 C   0  0  0  0  0  0  0  0  0  0  0  0
    8.4676  -17.1911   26.2752 O   0  0  0  0  0  0  0  0  0  0  0  0
    9.8588  -15.9283   27.4697 O   0  0  0  0  0  0  0  0  0  0  0  0
  1  2  1  0
  3  2  1  0
  3  4  1  6
  5  3  1  0
  5 11  1  0
  6  5  2  0
  8  7  1  1
  9  8  1  0
 10 11  1  6
 10  8  1  0
 12 10  1  0
 12 19  1  0
 13 12  2  0
 15 16  1  1
 15 14  1  0
 17 15  1  0
 18 19  1  0
 18 17  1  1
 20 18  1  0
 21 20  2  0
 22 20  1  0
M  END
$$$$
