STL.pdb
     RDKit          3D

 22 21  0  0  1  0  0  0  0  0999 V2000
    2.5751  -18.8468   22.3621 O   0  0  0  0  0  0  0  0  0  0  0  0
    3.5078  -17.8338   22.2728 C   0  0  0  0  0  0  0  0  0  0  0  0
    4.5109  -18.0306   21.1576 C   0  0  2  0  0  0  0  0  0  0  0  0
    4.3017  -19.3541   20.6302 N   0  0  0  0  0  0  0  0  0  0  0  0
    5.9041  -17.8519   21.6103 C   0  0  0  0  0  0  0  0  0  0  0  0
    6.4490  -18.7880   22.2445 O   0  0  0  0  0  0  0  0  0  0  0  0
    8.9799  -17.2979   19.6507 C   0  0  0  0  0  0  0  0  0  0  0  0
    8.9465  -16.1688   20.6542 C   0  0  1  0  0  0  0  0  0  0  0  0
    8.5423  -15.0129   20.0205 O   0  0  0  0  0  0  0  0  0  0  0  0
    8.0334  -16.5406   21.8113 C   0  0  2  0  0  0  0  0  0  0  0  0
    6.6617  -16.6805   21.3682 N   0  0  0  0  0  0  0  0  0  0  0  0
    8.1375  -15.5563   22.9167 C   0  0  0  0  0  0  0  0  0  0  0  0
    7.9167  -14.3414   22.6968 O   0  0  0  0  0  0  0  0  0  0  0  0
    5.7652  -12.7106   26.8205 C   0  0  0  0  0  0  0  0  0  0  0  0
    7.1256  -13.1798   26.4744 C   0  0  2  0  0  0  0  0  0  0  0  0
    8.0309  -11.9707   26.1802 C   0  0  0  0  0  0  0  0  0  0  0  0
    7.2932  -14.2298   25.4506 C   0  0  0  0  0  0  0  0  0  0  0  0
    8.5675  -14.9380   25.3424 C   0  0  2  0  0  0  0  0  0  0  0  0
    8.4820  -15.9387   24.2341 N   0  0  0  0  0  0  0  0  0  0  0  0
    9.1731  -15.6014   26.4937 C   0  0  0  0  0  0  0  0  0  0  0  0
    9.7821  -15.0787   27.4520 O   0  0  0  0  0  0  0  0  0  0  0  0
    9.1012  -17.0227   26.6073 O   0  0  0  0  0  0  0  0  0  0  0  0
  1  2  1  0
  3  2  1  0
  3  4  1  1
  5  3  1  0
  5 11  1  0
  6  5  2  0
  8  7  1  6
  9  8  1  0
 10 11  1  6
 10  8  1  0
 12 10  1  0
 12 19  1  0
 13 12  2  0
 15 16  1  6
 15 14  1  0
 17 15  1  0
 18 19  1  0
 18 17  1  1
 20 18  1  0
 21 20  2  0
 22 20  1  0
M  END
$$$$
