QAC.pdb
     RDKit          3D

 21 20  0  0  1  0  0  0  0  0999 V2000
   26.6354  -10.1427  -15.6893 N   0  0  0  0  0  0  0  0  0  0  0  0
   26.7463  -11.5280  -15.9045 C   0  0  0  0  0  0  0  0  0  0  0  0
   27.6922  -12.1666  -15.4044 O   0  0  0  0  0  0  0  0  0  0  0  0
   25.7412  -12.2286  -16.7240 C   0  0  0  0  0  0  0  0  0  0  0  0
   24.6002  -11.3022  -17.1101 C   0  0  0  0  0  0  0  0  0  0  0  0
   23.2998  -11.7740  -16.4544 C   0  0  2  0  0  0  0  0  0  0  0  0
   22.8999  -13.0613  -16.9736 N   0  0  0  0  0  0  0  0  0  0  0  0
   22.2492  -10.7693  -16.7940 C   0  0  0  0  0  0  0  0  0  0  0  0
   21.6350  -10.8941  -17.8721 O   0  0  0  0  0  0  0  0  0  0  0  0
   19.5591   -9.4318  -16.2161 C   0  0  0  0  0  0  0  0  0  0  0  0
   20.9023   -8.7625  -16.1181 C   0  0  2  0  0  0  0  0  0  0  0  0
   21.9650   -9.6992  -15.9002 N   0  0  0  0  0  0  0  0  0  0  0  0
   20.9123   -7.6895  -15.0797 C   0  0  0  0  0  0  0  0  0  0  0  0
   21.4107   -7.9448  -13.9673 O   0  0  0  0  0  0  0  0  0  0  0  0
   20.3695   -6.4073  -15.3449 N   0  0  0  0  0  0  0  0  0  0  0  0
   20.8516   -5.2728  -14.5985 C   0  0  1  0  0  0  0  0  0  0  0  0
   22.3495   -5.1011  -14.8591 C   0  0  0  0  0  0  0  0  0  0  0  0
   23.0014   -3.6423  -14.0143 S   0  0  0  0  0  0  0  0  0  0  0  0
   20.1234   -4.0278  -14.9503 C   0  0  0  0  0  0  0  0  0  0  0  0
   19.8322   -3.8059  -16.1381 O   0  0  0  0  0  0  0  0  0  0  0  0
   19.7678   -3.1156  -13.9692 O   0  0  0  0  0  0  0  0  0  0  0  0
  2  3  2  0
  2  1  1  0
  4  2  1  0
  5  4  1  0
  5  6  1  0
  6  7  1  6
  8 12  1  0
  8  6  1  0
  9  8  2  0
 11 10  1  1
 11 12  1  0
 11 13  1  0
 13 15  1  0
 14 13  2  0
 15 16  1  0
 16 19  1  0
 16 17  1  6
 17 18  1  0
 19 21  1  0
 20 19  2  0
M  END
$$$$
