QAC.pdb
     RDKit          3D

 21 20  0  0  1  0  0  0  0  0999 V2000
   22.9332  -11.2472  -18.3215 N   0  0  0  0  0  0  0  0  0  0  0  0
   22.1932  -12.1090  -19.1506 C   0  0  0  0  0  0  0  0  0  0  0  0
   22.6801  -13.1945  -19.5208 O   0  0  0  0  0  0  0  0  0  0  0  0
   20.8367  -11.7284  -19.5843 C   0  0  0  0  0  0  0  0  0  0  0  0
   20.4349  -10.3766  -19.0182 C   0  0  0  0  0  0  0  0  0  0  0  0
   19.8861  -10.5470  -17.5992 C   0  0  2  0  0  0  0  0  0  0  0  0
   18.6576  -11.3068  -17.6109 N   0  0  0  0  0  0  0  0  0  0  0  0
   19.6023   -9.1791  -17.0729 C   0  0  0  0  0  0  0  0  0  0  0  0
   18.6308   -8.5528  -17.5410 O   0  0  0  0  0  0  0  0  0  0  0  0
   21.0599   -7.0567  -14.2910 C   0  0  0  0  0  0  0  0  0  0  0  0
   20.1824   -7.3269  -15.4821 C   0  0  2  0  0  0  0  0  0  0  0  0
   20.4283   -8.6147  -16.0610 N   0  0  0  0  0  0  0  0  0  0  0  0
   20.2935   -6.2478  -16.5083 C   0  0  0  0  0  0  0  0  0  0  0  0
   21.1916   -6.3354  -17.3667 O   0  0  0  0  0  0  0  0  0  0  0  0
   19.4020   -5.1459  -16.5132 N   0  0  0  0  0  0  0  0  0  0  0  0
   19.5769   -4.1058  -17.4952 C   0  0  1  0  0  0  0  0  0  0  0  0
   18.2498   -3.8722  -18.2199 C   0  0  0  0  0  0  0  0  0  0  0  0
   18.3663   -2.4879  -19.3761 S   0  0  0  0  0  0  0  0  0  0  0  0
   20.0573   -2.8412  -16.8836 C   0  0  0  0  0  0  0  0  0  0  0  0
   20.4081   -1.9023  -17.6188 O   0  0  0  0  0  0  0  0  0  0  0  0
   20.1171   -2.7002  -15.5061 O   0  0  0  0  0  0  0  0  0  0  0  0
  2  3  2  0
  2  1  1  0
  4  2  1  0
  5  4  1  0
  5  6  1  0
  6  7  1  6
  8 12  1  0
  8  6  1  0
  9  8  2  0
 11 10  1  1
 11 12  1  0
 11 13  1  0
 13 15  1  0
 14 13  2  0
 15 16  1  0
 16 19  1  0
 16 17  1  1
 17 18  1  0
 19 21  1  0
 20 19  2  0
M  END
$$$$
