QAC.pdb
     RDKit          3D

 21 20  0  0  1  0  0  0  0  0999 V2000
   15.1022  -13.9265  -10.5989 N   0  0  0  0  0  0  0  0  0  0  0  0
   15.7125  -12.7135  -10.2329 C   0  0  0  0  0  0  0  0  0  0  0  0
   16.9536  -12.6050  -10.2519 O   0  0  0  0  0  0  0  0  0  0  0  0
   14.8827  -11.5654   -9.8253 C   0  0  0  0  0  0  0  0  0  0  0  0
   15.4619  -10.2565  -10.3356 C   0  0  0  0  0  0  0  0  0  0  0  0
   14.6644   -9.0776   -9.7719 C   0  0  2  0  0  0  0  0  0  0  0  0
   13.3241   -9.0595  -10.3100 N   0  0  0  0  0  0  0  0  0  0  0  0
   15.3701   -7.8311  -10.1927 C   0  0  0  0  0  0  0  0  0  0  0  0
   15.2758   -7.4684  -11.3820 O   0  0  0  0  0  0  0  0  0  0  0  0
   16.8442   -4.8668   -8.5189 C   0  0  0  0  0  0  0  0  0  0  0  0
   16.8734   -5.9106   -9.6012 C   0  0  2  0  0  0  0  0  0  0  0  0
   16.1291   -7.0838   -9.2492 N   0  0  0  0  0  0  0  0  0  0  0  0
   18.2704   -6.2606   -9.9960 C   0  0  0  0  0  0  0  0  0  0  0  0
   18.9946   -6.8398   -9.1645 O   0  0  0  0  0  0  0  0  0  0  0  0
   18.7692   -5.9449  -11.2845 N   0  0  0  0  0  0  0  0  0  0  0  0
   20.1392   -6.2585  -11.6032 C   0  0  1  0  0  0  0  0  0  0  0  0
   20.1710   -7.4567  -12.5542 C   0  0  0  0  0  0  0  0  0  0  0  0
   21.8358   -7.7422  -13.1973 S   0  0  0  0  0  0  0  0  0  0  0  0
   20.8457   -5.1025  -12.2103 C   0  0  0  0  0  0  0  0  0  0  0  0
   22.0677   -4.9688  -12.0262 O   0  0  0  0  0  0  0  0  0  0  0  0
   20.1565   -4.1759  -12.9768 O   0  0  0  0  0  0  0  0  0  0  0  0
  2  3  2  0
  2  1  1  0
  4  2  1  0
  5  4  1  0
  5  6  1  0
  6  7  1  6
  8 12  1  0
  8  6  1  0
  9  8  2  0
 11 10  1  1
 11 12  1  0
 11 13  1  0
 13 15  1  0
 14 13  2  0
 15 16  1  0
 16 19  1  0
 16 17  1  6
 17 18  1  0
 19 21  1  0
 20 19  2  0
M  END
$$$$
