QAC.pdb
     RDKit          3D

 21 20  0  0  1  0  0  0  0  0999 V2000
   30.7509  -33.4967   -4.2462 N   0  0  0  0  0  0  0  0  0  0  0  0
   31.1745  -34.1229   -5.4320 C   0  0  0  0  0  0  0  0  0  0  0  0
   30.8288  -33.6683   -6.5394 O   0  0  0  0  0  0  0  0  0  0  0  0
   32.0305  -35.3211   -5.3667 C   0  0  0  0  0  0  0  0  0  0  0  0
   32.5010  -35.5869   -3.9463 C   0  0  0  0  0  0  0  0  0  0  0  0
   34.0306  -35.5614   -3.8896 C   0  0  2  0  0  0  0  0  0  0  0  0
   34.5816  -36.8311   -4.3029 N   0  0  0  0  0  0  0  0  0  0  0  0
   34.4113  -35.3101   -2.4681 C   0  0  0  0  0  0  0  0  0  0  0  0
   34.2529  -36.2288   -1.6399 O   0  0  0  0  0  0  0  0  0  0  0  0
   36.0258  -32.4145   -0.6257 C   0  0  0  0  0  0  0  0  0  0  0  0
   35.3437  -33.7502   -0.7374 C   0  0  2  0  0  0  0  0  0  0  0  0
   34.9413  -34.0477   -2.0804 N   0  0  0  0  0  0  0  0  0  0  0  0
   34.1911  -33.8643    0.2053 C   0  0  0  0  0  0  0  0  0  0  0  0
   33.0370  -33.8232   -0.2609 O   0  0  0  0  0  0  0  0  0  0  0  0
   34.3963  -34.0160    1.5995 N   0  0  0  0  0  0  0  0  0  0  0  0
   33.2553  -34.0285    2.4796 C   0  0  1  0  0  0  0  0  0  0  0  0
   32.3304  -35.1816    2.0850 C   0  0  0  0  0  0  0  0  0  0  0  0
   30.9163  -35.3034    3.2040 S   0  0  0  0  0  0  0  0  0  0  0  0
   33.6552  -34.1557    3.9037 C   0  0  0  0  0  0  0  0  0  0  0  0
   34.8138  -34.5083    4.1832 O   0  0  0  0  0  0  0  0  0  0  0  0
   32.7508  -33.8856    4.9187 O   0  0  0  0  0  0  0  0  0  0  0  0
  2  3  2  0
  2  1  1  0
  4  2  1  0
  5  4  1  0
  5  6  1  0
  6  7  1  1
  8 12  1  0
  8  6  1  0
  9  8  2  0
 11 10  1  6
 11 12  1  0
 11 13  1  0
 13 15  1  0
 14 13  2  0
 15 16  1  0
 16 19  1  0
 16 17  1  6
 17 18  1  0
 19 21  1  0
 20 19  2  0
M  END
$$$$
