QAC.pdb
     RDKit          3D

 21 20  0  0  1  0  0  0  0  0999 V2000
   20.6369  -13.9218  -16.1637 N   0  0  0  0  0  0  0  0  0  0  0  0
   19.2686  -14.2407  -16.2258 C   0  0  0  0  0  0  0  0  0  0  0  0
   18.9006  -15.4310  -16.2096 O   0  0  0  0  0  0  0  0  0  0  0  0
   18.2649  -13.1644  -16.3104 C   0  0  0  0  0  0  0  0  0  0  0  0
   18.9086  -11.7960  -16.1607 C   0  0  0  0  0  0  0  0  0  0  0  0
   17.8351  -10.7057  -16.2114 C   0  0  2  0  0  0  0  0  0  0  0  0
   16.9144  -10.9410  -17.2992 N   0  0  0  0  0  0  0  0  0  0  0  0
   18.5385   -9.4101  -16.4465 C   0  0  0  0  0  0  0  0  0  0  0  0
   19.6531   -9.4327  -17.0054 O   0  0  0  0  0  0  0  0  0  0  0  0
   17.5065   -5.8538  -16.6168 C   0  0  0  0  0  0  0  0  0  0  0  0
   18.5321   -6.9052  -16.2938 C   0  0  2  0  0  0  0  0  0  0  0  0
   17.9406   -8.1853  -16.0379 N   0  0  0  0  0  0  0  0  0  0  0  0
   19.4166   -6.4882  -15.1652 C   0  0  0  0  0  0  0  0  0  0  0  0
   18.9954   -6.6213  -14.0007 O   0  0  0  0  0  0  0  0  0  0  0  0
   20.7069   -5.9525  -15.4040 N   0  0  0  0  0  0  0  0  0  0  0  0
   21.5069   -5.5230  -14.2850 C   0  0  1  0  0  0  0  0  0  0  0  0
   22.9421   -6.0180  -14.4754 C   0  0  0  0  0  0  0  0  0  0  0  0
   23.0247   -7.8233  -14.4463 S   0  0  0  0  0  0  0  0  0  0  0  0
   21.4900   -4.0471  -14.1255 C   0  0  0  0  0  0  0  0  0  0  0  0
   22.0231   -3.5350  -13.1263 O   0  0  0  0  0  0  0  0  0  0  0  0
   20.8872   -3.2400  -15.0776 O   0  0  0  0  0  0  0  0  0  0  0  0
  2  3  2  0
  2  1  1  0
  4  2  1  0
  5  4  1  0
  5  6  1  0
  6  7  1  6
  8 12  1  0
  8  6  1  0
  9  8  2  0
 11 10  1  1
 11 12  1  0
 11 13  1  0
 13 15  1  0
 14 13  2  0
 15 16  1  0
 16 19  1  0
 16 17  1  6
 17 18  1  0
 19 21  1  0
 20 19  2  0
M  END
$$$$
