QAC.pdb
     RDKit          3D

 21 20  0  0  1  0  0  0  0  0999 V2000
   17.7322  -10.0880  -13.7885 N   0  0  0  0  0  0  0  0  0  0  0  0
   17.1338  -11.3210  -13.4730 C   0  0  0  0  0  0  0  0  0  0  0  0
   17.5314  -12.3688  -14.0177 O   0  0  0  0  0  0  0  0  0  0  0  0
   16.0324  -11.3760  -12.4949 C   0  0  0  0  0  0  0  0  0  0  0  0
   15.7271   -9.9991  -11.9290 C   0  0  0  0  0  0  0  0  0  0  0  0
   14.7680  -10.1233  -10.7423 C   0  0  2  0  0  0  0  0  0  0  0  0
   13.5000  -10.6738  -11.1614 N   0  0  0  0  0  0  0  0  0  0  0  0
   14.5446   -8.7448  -10.2145 C   0  0  0  0  0  0  0  0  0  0  0  0
   13.7697   -7.9901  -10.8349 O   0  0  0  0  0  0  0  0  0  0  0  0
   15.4016   -6.9214   -7.0353 C   0  0  0  0  0  0  0  0  0  0  0  0
   15.0751   -6.9888   -8.5018 C   0  0  2  0  0  0  0  0  0  0  0  0
   15.2062   -8.3145   -9.0305 N   0  0  0  0  0  0  0  0  0  0  0  0
   15.8815   -6.0135   -9.2945 C   0  0  0  0  0  0  0  0  0  0  0  0
   16.9609   -6.3955   -9.7844 O   0  0  0  0  0  0  0  0  0  0  0  0
   15.4368   -4.6819   -9.4899 N   0  0  0  0  0  0  0  0  0  0  0  0
   16.2366   -3.7842  -10.2843 C   0  0  1  0  0  0  0  0  0  0  0  0
   16.1735   -4.2199  -11.7496 C   0  0  0  0  0  0  0  0  0  0  0  0
   14.4677   -4.4870  -12.2838 S   0  0  0  0  0  0  0  0  0  0  0  0
   15.7891   -2.3752  -10.1481 C   0  0  0  0  0  0  0  0  0  0  0  0
   14.7348   -2.1258   -9.5387 O   0  0  0  0  0  0  0  0  0  0  0  0
   16.5342   -1.3410  -10.6925 O   0  0  0  0  0  0  0  0  0  0  0  0
  2  3  2  0
  2  1  1  0
  4  2  1  0
  5  4  1  0
  5  6  1  0
  6  7  1  6
  8 12  1  0
  8  6  1  0
  9  8  2  0
 11 10  1  1
 11 12  1  0
 11 13  1  0
 13 15  1  0
 14 13  2  0
 15 16  1  0
 16 19  1  0
 16 17  1  6
 17 18  1  0
 19 21  1  0
 20 19  2  0
M  END
$$$$
