QAC.pdb
     RDKit          3D

 21 20  0  0  1  0  0  0  0  0999 V2000
   19.4848  -14.4868  -15.6327 N   0  0  0  0  0  0  0  0  0  0  0  0
   18.1785  -14.4379  -16.1514 C   0  0  0  0  0  0  0  0  0  0  0  0
   17.5329  -15.4894  -16.3254 O   0  0  0  0  0  0  0  0  0  0  0  0
   17.5693  -13.1393  -16.4911 C   0  0  0  0  0  0  0  0  0  0  0  0
   18.5574  -12.0001  -16.3045 C   0  0  0  0  0  0  0  0  0  0  0  0
   18.0764  -11.0691  -15.1884 C   0  0  2  0  0  0  0  0  0  0  0  0
   16.6491  -11.1866  -15.0005 N   0  0  0  0  0  0  0  0  0  0  0  0
   18.3937   -9.6742  -15.6154 C   0  0  0  0  0  0  0  0  0  0  0  0
   19.5491   -9.4230  -16.0113 O   0  0  0  0  0  0  0  0  0  0  0  0
   16.3734   -6.5085  -16.0897 C   0  0  0  0  0  0  0  0  0  0  0  0
   17.6418   -7.3007  -15.9302 C   0  0  2  0  0  0  0  0  0  0  0  0
   17.3923   -8.6644  -15.5668 N   0  0  0  0  0  0  0  0  0  0  0  0
   18.5823   -6.6530  -14.9680 C   0  0  0  0  0  0  0  0  0  0  0  0
   18.5158   -6.9734  -13.7663 O   0  0  0  0  0  0  0  0  0  0  0  0
   19.5319   -5.6949  -15.4031 N   0  0  0  0  0  0  0  0  0  0  0  0
   20.4203   -5.0986  -14.4378 C   0  0  1  0  0  0  0  0  0  0  0  0
   21.3433   -6.1793  -13.8711 C   0  0  0  0  0  0  0  0  0  0  0  0
   22.6299   -5.4626  -12.8234 S   0  0  0  0  0  0  0  0  0  0  0  0
   21.2217   -3.9971  -15.0282 C   0  0  0  0  0  0  0  0  0  0  0  0
   21.5086   -4.0311  -16.2371 O   0  0  0  0  0  0  0  0  0  0  0  0
   21.6502   -2.9365  -14.2455 O   0  0  0  0  0  0  0  0  0  0  0  0
  2  3  2  0
  2  1  1  0
  4  2  1  0
  5  4  1  0
  5  6  1  0
  6  7  1  6
  8 12  1  0
  8  6  1  0
  9  8  2  0
 11 10  1  1
 11 12  1  0
 11 13  1  0
 13 15  1  0
 14 13  2  0
 15 16  1  0
 16 19  1  0
 16 17  1  6
 17 18  1  0
 19 21  1  0
 20 19  2  0
M  END
$$$$
