QAC.pdb
     RDKit          3D

 21 20  0  0  1  0  0  0  0  0999 V2000
   27.4891  -21.2522  -10.6154 N   0  0  0  0  0  0  0  0  0  0  0  0
   28.7056  -20.8775  -11.2134 C   0  0  0  0  0  0  0  0  0  0  0  0
   29.7814  -21.3448  -10.7929 O   0  0  0  0  0  0  0  0  0  0  0  0
   28.7099  -19.9288  -12.3416 C   0  0  0  0  0  0  0  0  0  0  0  0
   27.3027  -19.4639  -12.6776 C   0  0  0  0  0  0  0  0  0  0  0  0
   26.5774  -20.5398  -13.4899 C   0  0  2  0  0  0  0  0  0  0  0  0
   27.2689  -20.8007  -14.7309 N   0  0  0  0  0  0  0  0  0  0  0  0
   25.2157  -20.0112  -13.7984 C   0  0  0  0  0  0  0  0  0  0  0  0
   24.4518  -19.7484  -12.8484 O   0  0  0  0  0  0  0  0  0  0  0  0
   23.4240  -18.8994  -16.9359 C   0  0  0  0  0  0  0  0  0  0  0  0
   23.4948  -19.3829  -15.5135 C   0  0  2  0  0  0  0  0  0  0  0  0
   24.8113  -19.8164  -15.1486 N   0  0  0  0  0  0  0  0  0  0  0  0
   22.4846  -20.4478  -15.2394 C   0  0  0  0  0  0  0  0  0  0  0  0
   22.7211  -21.6056  -15.6328 O   0  0  0  0  0  0  0  0  0  0  0  0
   21.2818  -20.1572  -14.5483 N   0  0  0  0  0  0  0  0  0  0  0  0
   20.3517  -21.2243  -14.2784 C   0  0  1  0  0  0  0  0  0  0  0  0
   20.8445  -22.0256  -13.0717 C   0  0  0  0  0  0  0  0  0  0  0  0
   20.8078  -21.0317  -11.5625 S   0  0  0  0  0  0  0  0  0  0  0  0
   18.9797  -20.7144  -14.0303 C   0  0  0  0  0  0  0  0  0  0  0  0
   18.7833  -19.4879  -13.9848 O   0  0  0  0  0  0  0  0  0  0  0  0
   17.9215  -21.5912  -13.8499 O   0  0  0  0  0  0  0  0  0  0  0  0
  2  3  2  0
  2  1  1  0
  4  2  1  0
  5  4  1  0
  5  6  1  0
  6  7  1  6
  8 12  1  0
  8  6  1  0
  9  8  2  0
 11 10  1  6
 11 12  1  0
 11 13  1  0
 13 15  1  0
 14 13  2  0
 15 16  1  0
 16 19  1  0
 16 17  1  1
 17 18  1  0
 19 21  1  0
 20 19  2  0
M  END
$$$$
