CDW.pdb
     RDKit          3D

 29 30  0  0  1  0  0  0  0  0999 V2000
    8.1201  -15.7699   17.8177 N   0  0  0  0  0  0  0  0  0  0  0  0
    8.1569  -15.3819   19.1903 C   0  0  1  0  0  0  0  0  0  0  0  0
    6.8489  -14.8154   19.6949 C   0  0  0  0  0  0  0  0  0  0  0  0
    7.0450  -14.4993   21.4766 S   0  0  0  0  0  0  0  0  0  0  0  0
    8.6730  -16.4558   20.0796 C   0  0  0  0  0  0  0  0  0  0  0  0
    8.4763  -17.6448   19.7458 O   0  0  0  0  0  0  0  0  0  0  0  0
    9.3733  -16.1707   21.2783 N   0  0  0  0  0  0  0  0  0  0  0  0
   10.0961  -17.1408   22.0644 C   0  0  1  0  0  0  0  0  0  0  0  0
   11.3582  -17.5917   21.3568 C   0  0  0  0  0  0  0  0  0  0  0  0
   12.1054  -18.5968   22.1215 C   0  0  0  0  0  0  0  0  0  0  0  0
   11.4358  -19.3924   22.8480 O   0  0  0  0  0  0  0  0  0  0  0  0
   10.5172  -16.5736   23.3747 C   0  0  0  0  0  0  0  0  0  0  0  0
   11.3252  -15.6163   23.4644 O   0  0  0  0  0  0  0  0  0  0  0  0
   13.4811  -18.7660   22.1284 O   0  0  0  0  0  0  0  0  0  0  0  0
   10.0262  -17.0864   24.6119 N   0  0  0  0  0  0  0  0  0  0  0  0
   10.3948  -16.5358   25.9131 C   0  0  1  0  0  0  0  0  0  0  0  0
   10.0717  -15.0476   25.9596 C   0  0  0  0  0  0  0  0  0  0  0  0
    8.5954  -14.8932   25.9885 C   0  0  0  0  0  0  0  0  0  0  0  0
    7.6148  -15.8546   25.7278 C   0  0  0  0  0  0  0  0  0  0  0  0
    6.3901  -15.2895   25.8599 N   0  0  0  0  0  0  0  0  0  0  0  0
    6.5089  -13.9979   26.1962 C   0  0  0  0  0  0  0  0  0  0  0  0
    5.5644  -13.0186   26.4387 C   0  0  0  0  0  0  0  0  0  0  0  0
    5.9959  -11.7513   26.7722 C   0  0  0  0  0  0  0  0  0  0  0  0
    7.3484  -11.4630   26.8637 C   0  0  0  0  0  0  0  0  0  0  0  0
    8.2546  -12.4712   26.6133 C   0  0  0  0  0  0  0  0  0  0  0  0
    7.8665  -13.7467   26.2775 C   0  0  0  0  0  0  0  0  0  0  0  0
    9.8023  -17.2876   27.0202 C   0  0  0  0  0  0  0  0  0  0  0  0
    8.9987  -18.3970   26.7922 O   0  0  0  0  0  0  0  0  0  0  0  0
   10.0167  -16.9348   28.2053 O   0  0  0  0  0  0  0  0  0  0  0  0
  2  1  1  6
  2  5  1  0
  3  2  1  0
  4  3  1  0
  5  6  2  0
  7  5  1  0
  7  8  1  0
  8 12  1  0
  8  9  1  6
 10 14  1  0
 10  9  1  0
 11 10  2  0
 12 13  2  0
 15 16  1  0
 15 12  1  0
 16 27  1  0
 16 17  1  6
 18 17  1  0
 18 19  2  0
 20 19  1  0
 21 20  1  0
 22 21  2  0
 23 22  1  0
 24 23  2  0
 24 25  1  0
 25 26  2  0
 26 21  1  0
 26 18  1  0
 27 29  2  0
 27 28  1  0
M  END
$$$$
