CDW.pdb
     RDKit          3D

 29 30  0  0  1  0  0  0  0  0999 V2000
    7.1575  -15.0376   18.5770 N   0  0  0  0  0  0  0  0  0  0  0  0
    8.4551  -15.1227   19.1647 C   0  0  1  0  0  0  0  0  0  0  0  0
    9.0846  -13.7759   19.4404 C   0  0  0  0  0  0  0  0  0  0  0  0
    8.0789  -12.9572   20.7175 S   0  0  0  0  0  0  0  0  0  0  0  0
    8.4895  -16.0036   20.3618 C   0  0  0  0  0  0  0  0  0  0  0  0
    7.4399  -16.1352   21.0290 O   0  0  0  0  0  0  0  0  0  0  0  0
    9.6640  -16.6894   20.7601 N   0  0  0  0  0  0  0  0  0  0  0  0
    9.7623  -17.5678   21.9004 C   0  0  1  0  0  0  0  0  0  0  0  0
   10.7503  -18.6888   21.6476 C   0  0  0  0  0  0  0  0  0  0  0  0
   12.0170  -18.2082   21.0842 C   0  0  0  0  0  0  0  0  0  0  0  0
   12.9604  -17.9637   21.8962 O   0  0  0  0  0  0  0  0  0  0  0  0
   10.2385  -16.8393   23.1081 C   0  0  0  0  0  0  0  0  0  0  0  0
   11.0059  -15.8477   23.0361 O   0  0  0  0  0  0  0  0  0  0  0  0
   12.2885  -17.9939   19.7419 O   0  0  0  0  0  0  0  0  0  0  0  0
    9.8502  -17.2264   24.4250 N   0  0  0  0  0  0  0  0  0  0  0  0
   10.3034  -16.5394   25.6312 C   0  0  1  0  0  0  0  0  0  0  0  0
    9.9676  -15.0559   25.5432 C   0  0  0  0  0  0  0  0  0  0  0  0
    8.4988  -14.9020   25.6941 C   0  0  0  0  0  0  0  0  0  0  0  0
    7.4984  -15.8567   25.4898 C   0  0  0  0  0  0  0  0  0  0  0  0
    6.2894  -15.2947   25.7334 N   0  0  0  0  0  0  0  0  0  0  0  0
    6.4374  -14.0118   26.0902 C   0  0  0  0  0  0  0  0  0  0  0  0
    5.5175  -13.0385   26.4313 C   0  0  0  0  0  0  0  0  0  0  0  0
    5.9770  -11.7797   26.7597 C   0  0  0  0  0  0  0  0  0  0  0  0
    7.3331  -11.4939   26.7494 C   0  0  0  0  0  0  0  0  0  0  0  0
    8.2142  -12.4959   26.4028 C   0  0  0  0  0  0  0  0  0  0  0  0
    7.7977  -13.7628   26.0683 C   0  0  0  0  0  0  0  0  0  0  0  0
    9.7988  -17.1716   26.8509 C   0  0  0  0  0  0  0  0  0  0  0  0
    8.9521  -18.2711   26.7979 O   0  0  0  0  0  0  0  0  0  0  0  0
   10.1303  -16.7226   27.9749 O   0  0  0  0  0  0  0  0  0  0  0  0
  2  1  1  1
  2  5  1  0
  3  2  1  0
  4  3  1  0
  5  6  2  0
  7  5  1  0
  7  8  1  0
  8 12  1  0
  8  9  1  6
 10 14  1  0
 10  9  1  0
 11 10  2  0
 12 13  2  0
 15 16  1  0
 15 12  1  0
 16 27  1  0
 16 17  1  6
 18 17  1  0
 18 19  2  0
 20 19  1  0
 21 20  1  0
 22 21  2  0
 23 22  1  0
 24 23  2  0
 24 25  1  0
 25 26  2  0
 26 21  1  0
 26 18  1  0
 27 29  2  0
 27 28  1  0
M  END
$$$$
