CDW.pdb
     RDKit          3D

 29 30  0  0  1  0  0  0  0  0999 V2000
    9.5427  -14.6508   19.2670 N   0  0  0  0  0  0  0  0  0  0  0  0
    8.4197  -14.8106   20.1327 C   0  0  1  0  0  0  0  0  0  0  0  0
    7.1151  -15.0250   19.3989 C   0  0  0  0  0  0  0  0  0  0  0  0
    5.7831  -14.9960   20.6389 S   0  0  0  0  0  0  0  0  0  0  0  0
    8.6405  -15.8430   21.1794 C   0  0  0  0  0  0  0  0  0  0  0  0
    7.8254  -15.9089   22.1256 O   0  0  0  0  0  0  0  0  0  0  0  0
    9.7345  -16.7426   21.1325 N   0  0  0  0  0  0  0  0  0  0  0  0
   10.0309  -17.7371   22.1348 C   0  0  1  0  0  0  0  0  0  0  0  0
   11.1497  -18.6550   21.6849 C   0  0  0  0  0  0  0  0  0  0  0  0
   10.9431  -19.1733   20.3277 C   0  0  0  0  0  0  0  0  0  0  0  0
    9.9763  -19.9755   20.1513 O   0  0  0  0  0  0  0  0  0  0  0  0
   10.4763  -17.1089   23.4087 C   0  0  0  0  0  0  0  0  0  0  0  0
   11.4660  -16.3380   23.4682 O   0  0  0  0  0  0  0  0  0  0  0  0
   11.7043  -18.8705   19.2096 O   0  0  0  0  0  0  0  0  0  0  0  0
    9.8028  -17.3468   24.6434 N   0  0  0  0  0  0  0  0  0  0  0  0
   10.2520  -16.8028   25.9219 C   0  0  1  0  0  0  0  0  0  0  0  0
   10.0681  -15.2904   25.9381 C   0  0  0  0  0  0  0  0  0  0  0  0
    8.6156  -14.9999   26.0367 C   0  0  0  0  0  0  0  0  0  0  0  0
    7.5395  -15.8759   25.8672 C   0  0  0  0  0  0  0  0  0  0  0  0
    6.3798  -15.1960   26.0388 N   0  0  0  0  0  0  0  0  0  0  0  0
    6.6326  -13.9094   26.3146 C   0  0  0  0  0  0  0  0  0  0  0  0
    5.7949  -12.8391   26.5646 C   0  0  0  0  0  0  0  0  0  0  0  0
    6.3563  -11.6055   26.8225 C   0  0  0  0  0  0  0  0  0  0  0  0
    7.7323  -11.4397   26.8320 C   0  0  0  0  0  0  0  0  0  0  0  0
    8.5289  -12.5356   26.5772 C   0  0  0  0  0  0  0  0  0  0  0  0
    8.0097  -13.7813   26.3151 C   0  0  0  0  0  0  0  0  0  0  0  0
    9.6202  -17.4710   27.0604 C   0  0  0  0  0  0  0  0  0  0  0  0
    9.9667  -17.1546   28.3674 O   0  0  0  0  0  0  0  0  0  0  0  0
    8.7449  -18.3492   26.8671 O   0  0  0  0  0  0  0  0  0  0  0  0
  2  1  1  6
  2  5  1  0
  3  2  1  0
  4  3  1  0
  5  6  2  0
  7  5  1  0
  7  8  1  0
  8 12  1  0
  8  9  1  6
 10 14  1  0
 10  9  1  0
 11 10  2  0
 12 13  2  0
 15 16  1  0
 15 12  1  0
 16 27  1  0
 16 17  1  6
 18 17  1  0
 18 19  2  0
 20 19  1  0
 21 20  1  0
 22 21  2  0
 23 22  1  0
 24 23  2  0
 24 25  1  0
 25 26  2  0
 26 21  1  0
 26 18  1  0
 27 29  2  0
 27 28  1  0
M  END
$$$$
