CDW.pdb
     RDKit          3D

 29 30  0  0  1  0  0  0  0  0999 V2000
    7.6320  -15.4579   17.1739 N   0  0  0  0  0  0  0  0  0  0  0  0
    8.3690  -14.7512   18.1706 C   0  0  1  0  0  0  0  0  0  0  0  0
    7.6739  -13.5034   18.6670 C   0  0  0  0  0  0  0  0  0  0  0  0
    8.7198  -12.7804   19.9693 S   0  0  0  0  0  0  0  0  0  0  0  0
    8.8050  -15.6236   19.2926 C   0  0  0  0  0  0  0  0  0  0  0  0
    7.9790  -16.4347   19.7658 O   0  0  0  0  0  0  0  0  0  0  0  0
   10.1144  -15.5617   19.8313 N   0  0  0  0  0  0  0  0  0  0  0  0
   10.6362  -16.4506   20.8408 C   0  0  1  0  0  0  0  0  0  0  0  0
   11.9929  -16.9973   20.4443 C   0  0  0  0  0  0  0  0  0  0  0  0
   12.5229  -17.9549   21.4215 C   0  0  0  0  0  0  0  0  0  0  0  0
   13.3254  -17.5098   22.2974 O   0  0  0  0  0  0  0  0  0  0  0  0
   10.8187  -15.7490   22.1410 C   0  0  0  0  0  0  0  0  0  0  0  0
   11.1983  -14.5540   22.2126 O   0  0  0  0  0  0  0  0  0  0  0  0
   12.2311  -19.3085   21.4846 O   0  0  0  0  0  0  0  0  0  0  0  0
   10.5727  -16.3955   23.3885 N   0  0  0  0  0  0  0  0  0  0  0  0
    9.6545  -15.8736   24.3969 C   0  0  1  0  0  0  0  0  0  0  0  0
    8.3306  -15.4901   23.7477 C   0  0  0  0  0  0  0  0  0  0  0  0
    7.4272  -14.9716   24.8055 C   0  0  0  0  0  0  0  0  0  0  0  0
    6.4220  -15.6500   25.5007 C   0  0  0  0  0  0  0  0  0  0  0  0
    5.8339  -14.7996   26.3767 N   0  0  0  0  0  0  0  0  0  0  0  0
    6.3997  -13.5876   26.2978 C   0  0  0  0  0  0  0  0  0  0  0  0
    6.1513  -12.4091   26.9756 C   0  0  0  0  0  0  0  0  0  0  0  0
    6.9125  -11.2988   26.6735 C   0  0  0  0  0  0  0  0  0  0  0  0
    7.9074  -11.3608   25.7106 C   0  0  0  0  0  0  0  0  0  0  0  0
    8.1199  -12.5575   25.0600 C   0  0  0  0  0  0  0  0  0  0  0  0
    7.3834  -13.6865   25.3308 C   0  0  0  0  0  0  0  0  0  0  0  0
    9.4964  -16.7888   25.5280 C   0  0  0  0  0  0  0  0  0  0  0  0
    9.5163  -16.3287   26.8382 O   0  0  0  0  0  0  0  0  0  0  0  0
    9.3377  -18.0170   25.3252 O   0  0  0  0  0  0  0  0  0  0  0  0
  2  1  1  6
  2  5  1  0
  3  2  1  0
  4  3  1  0
  5  6  2  0
  7  5  1  0
  7  8  1  0
  8 12  1  0
  8  9  1  6
 10 14  1  0
 10  9  1  0
 11 10  2  0
 12 13  2  0
 15 16  1  0
 15 12  1  0
 16 27  1  0
 16 17  1  6
 18 17  1  0
 18 19  2  0
 20 19  1  0
 21 20  1  0
 22 21  2  0
 23 22  1  0
 24 23  2  0
 24 25  1  0
 25 26  2  0
 26 21  1  0
 26 18  1  0
 27 29  2  0
 27 28  1  0
M  END
$$$$
