CDW.pdb
     RDKit          3D

 29 30  0  0  1  0  0  0  0  0999 V2000
    6.4952  -14.6224   19.8706 N   0  0  0  0  0  0  0  0  0  0  0  0
    7.9149  -14.7137   19.9805 C   0  0  1  0  0  0  0  0  0  0  0  0
    8.5862  -13.3902   20.2708 C   0  0  0  0  0  0  0  0  0  0  0  0
    7.9267  -12.7823   21.8545 S   0  0  0  0  0  0  0  0  0  0  0  0
    8.3533  -15.7740   20.9258 C   0  0  0  0  0  0  0  0  0  0  0  0
    7.5294  -16.1915   21.7689 O   0  0  0  0  0  0  0  0  0  0  0  0
    9.6620  -16.3173   20.8957 N   0  0  0  0  0  0  0  0  0  0  0  0
   10.1835  -17.2709   21.8444 C   0  0  1  0  0  0  0  0  0  0  0  0
   11.4440  -17.9318   21.3236 C   0  0  0  0  0  0  0  0  0  0  0  0
   11.2128  -18.6967   20.0929 C   0  0  0  0  0  0  0  0  0  0  0  0
   10.3506  -19.6261   20.1378 O   0  0  0  0  0  0  0  0  0  0  0  0
   10.5423  -16.6158   23.1321 C   0  0  0  0  0  0  0  0  0  0  0  0
   11.2342  -15.5690   23.1841 O   0  0  0  0  0  0  0  0  0  0  0  0
   11.8468  -18.5028   18.8756 O   0  0  0  0  0  0  0  0  0  0  0  0
   10.1199  -17.1410   24.3894 N   0  0  0  0  0  0  0  0  0  0  0  0
   10.5133  -16.5670   25.6732 C   0  0  1  0  0  0  0  0  0  0  0  0
   10.0707  -15.1112   25.7506 C   0  0  0  0  0  0  0  0  0  0  0  0
    8.6140  -15.0828   26.0357 C   0  0  0  0  0  0  0  0  0  0  0  0
    7.6922  -16.1310   25.9610 C   0  0  0  0  0  0  0  0  0  0  0  0
    6.4638  -15.6694   26.2993 N   0  0  0  0  0  0  0  0  0  0  0  0
    6.5240  -14.3641   26.5957 C   0  0  0  0  0  0  0  0  0  0  0  0
    5.5528  -13.4630   26.9892 C   0  0  0  0  0  0  0  0  0  0  0  0
    5.9214  -12.1553   27.2284 C   0  0  0  0  0  0  0  0  0  0  0  0
    7.2383  -11.7501   27.0787 C   0  0  0  0  0  0  0  0  0  0  0  0
    8.1732  -12.6834   26.6845 C   0  0  0  0  0  0  0  0  0  0  0  0
    7.8474  -13.9957   26.4355 C   0  0  0  0  0  0  0  0  0  0  0  0
   10.0478  -17.3704   26.8045 C   0  0  0  0  0  0  0  0  0  0  0  0
    9.2858  -18.5154   26.6128 O   0  0  0  0  0  0  0  0  0  0  0  0
   10.3361  -17.0304   27.9776 O   0  0  0  0  0  0  0  0  0  0  0  0
  2  1  1  1
  2  5  1  0
  3  2  1  0
  4  3  1  0
  5  6  2  0
  7  5  1  0
  7  8  1  0
  8 12  1  0
  8  9  1  6
 10 14  1  0
 10  9  1  0
 11 10  2  0
 12 13  2  0
 15 16  1  0
 15 12  1  0
 16 27  1  0
 16 17  1  1
 18 17  1  0
 18 19  2  0
 20 19  1  0
 21 20  1  0
 22 21  2  0
 23 22  1  0
 24 23  2  0
 24 25  1  0
 25 26  2  0
 26 21  1  0
 26 18  1  0
 27 29  2  0
 27 28  1  0
M  END
$$$$
