CDW.pdb
     RDKit          3D

 29 30  0  0  1  0  0  0  0  0999 V2000
    6.9284  -19.5562   22.0755 N   0  0  0  0  0  0  0  0  0  0  0  0
    8.1854  -20.2257   21.9866 C   0  0  1  0  0  0  0  0  0  0  0  0
    8.2085  -21.3371   20.9616 C   0  0  0  0  0  0  0  0  0  0  0  0
    6.4812  -21.7110   20.5265 S   0  0  0  0  0  0  0  0  0  0  0  0
    9.3266  -19.2891   21.8111 C   0  0  0  0  0  0  0  0  0  0  0  0
   10.4770  -19.7705   21.7169 O   0  0  0  0  0  0  0  0  0  0  0  0
    9.1469  -17.8848   21.7473 N   0  0  0  0  0  0  0  0  0  0  0  0
   10.2133  -16.9184   21.6460 C   0  0  1  0  0  0  0  0  0  0  0  0
    9.8003  -15.7301   20.8008 C   0  0  0  0  0  0  0  0  0  0  0  0
    9.5847  -16.0862   19.3938 C   0  0  0  0  0  0  0  0  0  0  0  0
   10.3981  -16.9061   18.8690 O   0  0  0  0  0  0  0  0  0  0  0  0
   10.5915  -16.3842   22.9830 C   0  0  0  0  0  0  0  0  0  0  0  0
   11.4043  -15.4372   23.1233 O   0  0  0  0  0  0  0  0  0  0  0  0
    8.5718  -15.6133   18.5741 O   0  0  0  0  0  0  0  0  0  0  0  0
   10.0509  -16.9190   24.1899 N   0  0  0  0  0  0  0  0  0  0  0  0
   10.5088  -16.5254   25.5194 C   0  0  1  0  0  0  0  0  0  0  0  0
   10.1020  -15.0853   25.8055 C   0  0  0  0  0  0  0  0  0  0  0  0
    8.6198  -15.0239   25.8636 C   0  0  0  0  0  0  0  0  0  0  0  0
    7.6986  -16.0614   25.6935 C   0  0  0  0  0  0  0  0  0  0  0  0
    6.4428  -15.5680   25.8206 N   0  0  0  0  0  0  0  0  0  0  0  0
    6.4842  -14.2517   26.0672 C   0  0  0  0  0  0  0  0  0  0  0  0
    5.4833  -13.3205   26.2695 C   0  0  0  0  0  0  0  0  0  0  0  0
    5.8382  -12.0085   26.5066 C   0  0  0  0  0  0  0  0  0  0  0  0
    7.1706  -11.6288   26.5426 C   0  0  0  0  0  0  0  0  0  0  0  0
    8.1351  -12.5918   26.3354 C   0  0  0  0  0  0  0  0  0  0  0  0
    7.8239  -13.9093   26.0953 C   0  0  0  0  0  0  0  0  0  0  0  0
   10.0722  -17.4627   26.5552 C   0  0  0  0  0  0  0  0  0  0  0  0
    9.3300  -18.5934   26.2403 O   0  0  0  0  0  0  0  0  0  0  0  0
   10.3680  -17.2540   27.7567 O   0  0  0  0  0  0  0  0  0  0  0  0
  2  1  1  6
  2  5  1  0
  3  2  1  0
  4  3  1  0
  5  6  2  0
  7  5  1  0
  7  8  1  0
  8 12  1  0
  8  9  1  6
 10 14  1  0
 10  9  1  0
 11 10  2  0
 12 13  2  0
 15 16  1  0
 15 12  1  0
 16 27  1  0
 16 17  1  1
 18 17  1  0
 18 19  2  0
 20 19  1  0
 21 20  1  0
 22 21  2  0
 23 22  1  0
 24 23  2  0
 24 25  1  0
 25 26  2  0
 26 21  1  0
 26 18  1  0
 27 29  2  0
 27 28  1  0
M  END
$$$$
