CDW.pdb
     RDKit          3D

 29 30  0  0  1  0  0  0  0  0999 V2000
    6.5935  -19.5390   21.6253 N   0  0  0  0  0  0  0  0  0  0  0  0
    7.0194  -18.3172   22.2270 C   0  0  1  0  0  0  0  0  0  0  0  0
    6.2071  -17.9243   23.4403 C   0  0  0  0  0  0  0  0  0  0  0  0
    7.3659  -17.2671   24.6805 S   0  0  0  0  0  0  0  0  0  0  0  0
    8.4791  -18.2907   22.5078 C   0  0  0  0  0  0  0  0  0  0  0  0
    8.9941  -19.2911   23.0536 O   0  0  0  0  0  0  0  0  0  0  0  0
    9.2908  -17.1772   22.1763 N   0  0  0  0  0  0  0  0  0  0  0  0
   10.7304  -17.1472   22.2667 C   0  0  1  0  0  0  0  0  0  0  0  0
   11.3233  -16.1660   21.2755 C   0  0  0  0  0  0  0  0  0  0  0  0
   12.7904  -16.1906   21.2662 C   0  0  0  0  0  0  0  0  0  0  0  0
   13.3597  -17.1963   21.7894 O   0  0  0  0  0  0  0  0  0  0  0  0
   11.1811  -16.7176   23.6189 C   0  0  0  0  0  0  0  0  0  0  0  0
   12.3947  -16.5760   23.9095 O   0  0  0  0  0  0  0  0  0  0  0  0
   13.6235  -15.2172   20.7372 O   0  0  0  0  0  0  0  0  0  0  0  0
   10.2572  -16.4405   24.6697 N   0  0  0  0  0  0  0  0  0  0  0  0
   10.6653  -16.1025   26.0304 C   0  0  1  0  0  0  0  0  0  0  0  0
   10.0927  -14.7468   26.4246 C   0  0  0  0  0  0  0  0  0  0  0  0
    8.6124  -14.8264   26.3443 C   0  0  0  0  0  0  0  0  0  0  0  0
    7.8010  -15.9646   26.3436 C   0  0  0  0  0  0  0  0  0  0  0  0
    6.5029  -15.5868   26.2489 N   0  0  0  0  0  0  0  0  0  0  0  0
    6.4117  -14.2515   26.1865 C   0  0  0  0  0  0  0  0  0  0  0  0
    5.3230  -13.4063   26.0843 C   0  0  0  0  0  0  0  0  0  0  0  0
    5.5438  -12.0452   26.0396 C   0  0  0  0  0  0  0  0  0  0  0  0
    6.8302  -11.5324   26.0966 C   0  0  0  0  0  0  0  0  0  0  0  0
    7.8858  -12.4132   26.1984 C   0  0  0  0  0  0  0  0  0  0  0  0
    7.7090  -13.7759   26.2451 C   0  0  0  0  0  0  0  0  0  0  0  0
   10.3408  -17.1632   26.9852 C   0  0  0  0  0  0  0  0  0  0  0  0
    9.6485  -18.3014   26.5932 O   0  0  0  0  0  0  0  0  0  0  0  0
   10.6898  -17.0564   28.1859 O   0  0  0  0  0  0  0  0  0  0  0  0
  2  1  1  1
  2  5  1  0
  3  2  1  0
  4  3  1  0
  5  6  2  0
  7  5  1  0
  7  8  1  0
  8 12  1  0
  8  9  1  6
 10 14  1  0
 10  9  1  0
 11 10  2  0
 12 13  2  0
 15 16  1  0
 15 12  1  0
 16 27  1  0
 16 17  1  1
 18 17  1  0
 18 19  2  0
 20 19  1  0
 21 20  1  0
 22 21  2  0
 23 22  1  0
 24 23  2  0
 24 25  1  0
 25 26  2  0
 26 21  1  0
 26 18  1  0
 27 29  2  0
 27 28  1  0
M  END
$$$$
