CDW.pdb
     RDKit          3D

 29 30  0  0  1  0  0  0  0  0999 V2000
    8.1976  -16.3208   19.4412 N   0  0  0  0  0  0  0  0  0  0  0  0
    7.7606  -17.3962   20.2710 C   0  0  1  0  0  0  0  0  0  0  0  0
    7.5051  -18.6800   19.5141 C   0  0  0  0  0  0  0  0  0  0  0  0
    6.0627  -18.3997   18.4399 S   0  0  0  0  0  0  0  0  0  0  0  0
    8.6452  -17.6146   21.4457 C   0  0  0  0  0  0  0  0  0  0  0  0
    8.3281  -18.5028   22.2671 O   0  0  0  0  0  0  0  0  0  0  0  0
    9.8225  -16.8540   21.6551 N   0  0  0  0  0  0  0  0  0  0  0  0
   10.7459  -17.0432   22.7473 C   0  0  1  0  0  0  0  0  0  0  0  0
   12.0764  -16.3748   22.4648 C   0  0  0  0  0  0  0  0  0  0  0  0
   12.8130  -17.0228   21.3737 C   0  0  0  0  0  0  0  0  0  0  0  0
   12.8223  -18.2911   21.3497 O   0  0  0  0  0  0  0  0  0  0  0  0
   10.2252  -16.4482   24.0086 C   0  0  0  0  0  0  0  0  0  0  0  0
    9.7731  -15.2777   24.0633 O   0  0  0  0  0  0  0  0  0  0  0  0
   13.5044  -16.3823   20.3573 O   0  0  0  0  0  0  0  0  0  0  0  0
   10.2092  -17.1752   25.2357 N   0  0  0  0  0  0  0  0  0  0  0  0
    9.8361  -16.5818   26.5167 C   0  0  1  0  0  0  0  0  0  0  0  0
    8.3790  -16.8962   26.8320 C   0  0  0  0  0  0  0  0  0  0  0  0
    7.5290  -15.8776   26.1655 C   0  0  0  0  0  0  0  0  0  0  0  0
    6.5649  -16.0647   25.1708 C   0  0  0  0  0  0  0  0  0  0  0  0
    6.0279  -14.8655   24.8392 N   0  0  0  0  0  0  0  0  0  0  0  0
    6.5884  -13.8892   25.5658 C   0  0  0  0  0  0  0  0  0  0  0  0
    6.3797  -12.5233   25.5901 C   0  0  0  0  0  0  0  0  0  0  0  0
    7.1227  -11.7557   26.4631 C   0  0  0  0  0  0  0  0  0  0  0  0
    8.0600  -12.3397   27.3007 C   0  0  0  0  0  0  0  0  0  0  0  0
    8.2343  -13.7059   27.2420 C   0  0  0  0  0  0  0  0  0  0  0  0
    7.5151  -14.5063   26.3862 C   0  0  0  0  0  0  0  0  0  0  0  0
   10.7524  -16.9645   27.5918 C   0  0  0  0  0  0  0  0  0  0  0  0
   11.8000  -17.8483   27.3682 O   0  0  0  0  0  0  0  0  0  0  0  0
   10.6014  -16.4916   28.7444 O   0  0  0  0  0  0  0  0  0  0  0  0
  2  1  1  6
  2  5  1  0
  3  2  1  0
  4  3  1  0
  5  6  2  0
  7  5  1  0
  7  8  1  0
  8 12  1  0
  8  9  1  6
 10 14  1  0
 10  9  1  0
 11 10  2  0
 12 13  2  0
 15 16  1  0
 15 12  1  0
 16 27  1  0
 16 17  1  1
 18 17  1  0
 18 19  2  0
 20 19  1  0
 21 20  1  0
 22 21  2  0
 23 22  1  0
 24 23  2  0
 24 25  1  0
 25 26  2  0
 26 21  1  0
 26 18  1  0
 27 29  2  0
 27 28  1  0
M  END
$$$$
