ASR.pdb
     RDKit          3D

 23 22  0  0  1  0  0  0  0  0999 V2000
   30.1972  -27.5649  -20.9108 C   0  0  0  0  0  0  0  0  0  0  0  0
   30.6713  -27.0508  -19.5682 C   0  0  2  0  0  0  0  0  0  0  0  0
   32.0772  -27.3470  -19.3892 N   0  0  0  0  0  0  0  0  0  0  0  0
   29.8995  -27.7930  -18.5163 C   0  0  0  0  0  0  0  0  0  0  0  0
   30.2327  -28.9451  -18.1654 O   0  0  0  0  0  0  0  0  0  0  0  0
   26.2332  -26.2184  -17.0437 O   0  0  0  0  0  0  0  0  0  0  0  0
   27.2018  -26.7017  -16.1641 C   0  0  0  0  0  0  0  0  0  0  0  0
   27.9711  -27.8236  -16.8758 C   0  0  2  0  0  0  0  0  0  0  0  0
   28.7659  -27.2118  -17.8850 N   0  0  0  0  0  0  0  0  0  0  0  0
   27.0935  -28.8929  -17.3228 C   0  0  0  0  0  0  0  0  0  0  0  0
   26.6640  -28.9130  -18.4969 O   0  0  0  0  0  0  0  0  0  0  0  0
   22.1356  -35.4424  -15.4450 N   0  0  0  0  0  0  0  0  0  0  0  0
   23.4591  -35.9542  -15.5286 C   0  0  0  0  0  0  0  0  0  0  0  0
   23.7152  -37.1747  -15.8970 N   0  0  0  0  0  0  0  0  0  0  0  0
   24.5784  -35.1496  -15.2108 N   0  0  0  0  0  0  0  0  0  0  0  0
   24.3694  -33.8210  -14.6821 C   0  0  0  0  0  0  0  0  0  0  0  0
   24.4265  -32.7813  -15.7831 C   0  0  0  0  0  0  0  0  0  0  0  0
   25.7444  -32.1018  -15.8812 C   0  0  0  0  0  0  0  0  0  0  0  0
   25.7228  -30.9736  -16.8741 C   0  0  2  0  0  0  0  0  0  0  0  0
   26.6942  -29.9400  -16.4618 N   0  0  0  0  0  0  0  0  0  0  0  0
   24.4108  -30.3798  -17.1178 C   0  0  0  0  0  0  0  0  0  0  0  0
   23.5301  -30.7891  -17.9046 O   0  0  0  0  0  0  0  0  0  0  0  0
   24.0707  -29.2149  -16.4010 O   0  0  0  0  0  0  0  0  0  0  0  0
  2  1  1  6
  2  3  1  0
  4  2  1  0
  4  9  1  0
  5  4  2  0
  7  6  1  0
  8  9  1  0
  8  7  1  6
  8 10  1  0
 10 11  2  0
 10 20  1  0
 13 12  1  0
 13 14  2  0
 15 13  1  0
 16 17  1  0
 16 15  1  0
 18 17  1  0
 19 18  1  1
 20 19  1  0
 21 23  1  0
 21 19  1  0
 22 21  2  0
M  END
$$$$
