ASR.pdb
     RDKit          3D

 23 22  0  0  1  0  0  0  0  0999 V2000
   25.5305  -14.1880  -18.6225 C   0  0  0  0  0  0  0  0  0  0  0  0
   26.2620  -14.3043  -17.3022 C   0  0  2  0  0  0  0  0  0  0  0  0
   26.0906  -15.6329  -16.7528 N   0  0  0  0  0  0  0  0  0  0  0  0
   25.6267  -13.3234  -16.3602 C   0  0  0  0  0  0  0  0  0  0  0  0
   24.5000  -13.5417  -15.8661 O   0  0  0  0  0  0  0  0  0  0  0  0
   27.3620   -9.5144  -15.9174 O   0  0  0  0  0  0  0  0  0  0  0  0
   26.9003  -10.1686  -14.7753 C   0  0  0  0  0  0  0  0  0  0  0  0
   25.7372  -11.0813  -15.1892 C   0  0  2  0  0  0  0  0  0  0  0  0
   26.2839  -12.1154  -15.9992 N   0  0  0  0  0  0  0  0  0  0  0  0
   24.6352  -10.3350  -15.7738 C   0  0  0  0  0  0  0  0  0  0  0  0
   24.6127  -10.0916  -17.0000 O   0  0  0  0  0  0  0  0  0  0  0  0
   16.8639  -12.5043  -16.6834 N   0  0  0  0  0  0  0  0  0  0  0  0
   17.2795  -11.9228  -15.4547 C   0  0  0  0  0  0  0  0  0  0  0  0
   16.7680  -12.2666  -14.3097 N   0  0  0  0  0  0  0  0  0  0  0  0
   18.2841  -10.9276  -15.4166 N   0  0  0  0  0  0  0  0  0  0  0  0
   18.9541  -10.5492  -16.6399 C   0  0  0  0  0  0  0  0  0  0  0  0
   20.0660   -9.5562  -16.3676 C   0  0  0  0  0  0  0  0  0  0  0  0
   21.2815  -10.1811  -15.7844 C   0  0  0  0  0  0  0  0  0  0  0  0
   22.3883   -9.1830  -15.5892 C   0  0  2  0  0  0  0  0  0  0  0  0
   23.5578   -9.8596  -14.9923 N   0  0  0  0  0  0  0  0  0  0  0  0
   22.0308   -7.9954  -14.8178 C   0  0  0  0  0  0  0  0  0  0  0  0
   22.2933   -7.7663  -13.6174 O   0  0  0  0  0  0  0  0  0  0  0  0
   21.3093   -6.9766  -15.4720 O   0  0  0  0  0  0  0  0  0  0  0  0
  2  1  1  6
  2  3  1  0
  4  2  1  0
  4  9  1  0
  5  4  2  0
  7  6  1  0
  8  9  1  0
  8  7  1  6
  8 10  1  0
 10 11  2  0
 10 20  1  0
 13 12  1  0
 13 14  2  0
 15 13  1  0
 16 17  1  0
 16 15  1  0
 18 17  1  0
 19 18  1  1
 20 19  1  0
 21 23  1  0
 21 19  1  0
 22 21  2  0
M  END
$$$$
