ASR.pdb
     RDKit          3D

 23 22  0  0  1  0  0  0  0  0999 V2000
   32.0349  -16.7850  -18.3460 C   0  0  0  0  0  0  0  0  0  0  0  0
   31.6693  -15.7372  -19.3756 C   0  0  2  0  0  0  0  0  0  0  0  0
   32.7641  -15.5475  -20.3040 N   0  0  0  0  0  0  0  0  0  0  0  0
   31.4558  -14.4493  -18.6350 C   0  0  0  0  0  0  0  0  0  0  0  0
   30.5530  -14.3410  -17.7779 O   0  0  0  0  0  0  0  0  0  0  0  0
   34.4890  -11.7863  -17.8834 O   0  0  0  0  0  0  0  0  0  0  0  0
   33.4159  -11.2444  -18.5907 C   0  0  0  0  0  0  0  0  0  0  0  0
   32.1583  -12.0499  -18.2350 C   0  0  2  0  0  0  0  0  0  0  0  0
   32.2717  -13.3116  -18.8828 N   0  0  0  0  0  0  0  0  0  0  0  0
   30.9373  -11.3080  -18.5033 C   0  0  0  0  0  0  0  0  0  0  0  0
   30.4889  -11.2226  -19.6674 O   0  0  0  0  0  0  0  0  0  0  0  0
   23.7124  -10.0962  -13.4711 N   0  0  0  0  0  0  0  0  0  0  0  0
   23.3636   -9.8499  -14.8269 C   0  0  0  0  0  0  0  0  0  0  0  0
   22.1313   -9.7108  -15.2181 N   0  0  0  0  0  0  0  0  0  0  0  0
   24.3539   -9.7424  -15.8315 N   0  0  0  0  0  0  0  0  0  0  0  0
   25.7264  -10.0621  -15.5112 C   0  0  0  0  0  0  0  0  0  0  0  0
   26.6389   -9.7881  -16.6896 C   0  0  0  0  0  0  0  0  0  0  0  0
   28.0211  -10.2968  -16.4925 C   0  0  0  0  0  0  0  0  0  0  0  0
   28.8838  -10.0633  -17.7011 C   0  0  2  0  0  0  0  0  0  0  0  0
   30.2155  -10.6611  -17.4748 N   0  0  0  0  0  0  0  0  0  0  0  0
   29.0090   -8.6698  -18.1205 C   0  0  0  0  0  0  0  0  0  0  0  0
   29.8966   -7.8563  -17.7852 O   0  0  0  0  0  0  0  0  0  0  0  0
   28.0359   -8.1562  -19.0012 O   0  0  0  0  0  0  0  0  0  0  0  0
  2  1  1  1
  2  3  1  0
  4  2  1  0
  4  9  1  0
  5  4  2  0
  7  6  1  0
  8  9  1  0
  8  7  1  6
  8 10  1  0
 10 11  2  0
 10 20  1  0
 13 12  1  0
 13 14  2  0
 15 13  1  0
 16 17  1  0
 16 15  1  0
 18 17  1  0
 19 18  1  1
 20 19  1  0
 21 23  1  0
 21 19  1  0
 22 21  2  0
M  END
$$$$
