ASR.pdb
     RDKit          3D

 23 22  0  0  1  0  0  0  0  0999 V2000
   22.0609  -12.2183  -18.8048 C   0  0  0  0  0  0  0  0  0  0  0  0
   20.9931  -11.1677  -18.5861 C   0  0  2  0  0  0  0  0  0  0  0  0
   20.4798  -10.7064  -19.8588 N   0  0  0  0  0  0  0  0  0  0  0  0
   21.6529  -10.0072  -17.8997 C   0  0  0  0  0  0  0  0  0  0  0  0
   22.0827  -10.1096  -16.7309 O   0  0  0  0  0  0  0  0  0  0  0  0
   23.8366   -7.1270  -19.7891 O   0  0  0  0  0  0  0  0  0  0  0  0
   22.7096   -6.6286  -19.1358 C   0  0  0  0  0  0  0  0  0  0  0  0
   22.3718   -7.5809  -17.9798 C   0  0  2  0  0  0  0  0  0  0  0  0
   21.8106   -8.7552  -18.5546 N   0  0  0  0  0  0  0  0  0  0  0  0
   21.5718   -6.9346  -16.9523 C   0  0  0  0  0  0  0  0  0  0  0  0
   20.3301   -6.8512  -17.0731 O   0  0  0  0  0  0  0  0  0  0  0  0
   17.1181   -9.3800  -10.8915 N   0  0  0  0  0  0  0  0  0  0  0  0
   17.2677   -8.0258  -10.4865 C   0  0  0  0  0  0  0  0  0  0  0  0
   16.6089   -7.5176   -9.4872 N   0  0  0  0  0  0  0  0  0  0  0  0
   18.1531   -7.1519  -11.1601 N   0  0  0  0  0  0  0  0  0  0  0  0
   18.8618   -7.6226  -12.3283 C   0  0  0  0  0  0  0  0  0  0  0  0
   19.7593   -6.5405  -12.8939 C   0  0  0  0  0  0  0  0  0  0  0  0
   20.4870   -6.9622  -14.1189 C   0  0  0  0  0  0  0  0  0  0  0  0
   21.3433   -5.8578  -14.6724 C   0  0  2  0  0  0  0  0  0  0  0  0
   22.1550   -6.3811  -15.7901 N   0  0  0  0  0  0  0  0  0  0  0  0
   22.1889   -5.1735  -13.6977 C   0  0  0  0  0  0  0  0  0  0  0  0
   21.8348   -4.6759  -12.6071 O   0  0  0  0  0  0  0  0  0  0  0  0
   23.5613   -5.0440  -13.9909 O   0  0  0  0  0  0  0  0  0  0  0  0
  2  1  1  6
  2  3  1  0
  4  2  1  0
  4  9  1  0
  5  4  2  0
  7  6  1  0
  8  9  1  0
  8  7  1  6
  8 10  1  0
 10 11  2  0
 10 20  1  0
 13 12  1  0
 13 14  2  0
 15 13  1  0
 16 17  1  0
 16 15  1  0
 18 17  1  0
 19 18  1  1
 20 19  1  0
 21 23  1  0
 21 19  1  0
 22 21  2  0
M  END
$$$$
