ASR.pdb
     RDKit          3D

 23 22  0  0  1  0  0  0  0  0999 V2000
   29.3141  -22.8287  -17.2467 C   0  0  0  0  0  0  0  0  0  0  0  0
   28.6590  -23.5997  -16.1206 C   0  0  2  0  0  0  0  0  0  0  0  0
   29.0108  -25.0016  -16.2059 N   0  0  0  0  0  0  0  0  0  0  0  0
   27.1750  -23.4776  -16.3098 C   0  0  0  0  0  0  0  0  0  0  0  0
   26.6027  -22.3707  -16.2179 O   0  0  0  0  0  0  0  0  0  0  0  0
   24.5732  -26.7625  -15.8581 O   0  0  0  0  0  0  0  0  0  0  0  0
   24.5385  -26.0607  -17.0630 C   0  0  0  0  0  0  0  0  0  0  0  0
   24.9608  -24.6120  -16.7803 C   0  0  2  0  0  0  0  0  0  0  0  0
   26.3722  -24.6147  -16.5993 N   0  0  0  0  0  0  0  0  0  0  0  0
   24.1860  -24.0143  -15.7052 C   0  0  0  0  0  0  0  0  0  0  0  0
   24.7347  -23.6967  -14.6276 O   0  0  0  0  0  0  0  0  0  0  0  0
   22.6544  -19.5862  -10.2479 N   0  0  0  0  0  0  0  0  0  0  0  0
   21.2694  -19.6665  -10.5577 C   0  0  0  0  0  0  0  0  0  0  0  0
   20.3591  -19.0588   -9.8556 N   0  0  0  0  0  0  0  0  0  0  0  0
   20.8068  -20.4221  -11.6605 N   0  0  0  0  0  0  0  0  0  0  0  0
   21.7401  -21.2398  -12.4013 C   0  0  0  0  0  0  0  0  0  0  0  0
   21.9191  -20.7193  -13.8133 C   0  0  0  0  0  0  0  0  0  0  0  0
   22.7119  -21.6306  -14.6788 C   0  0  0  0  0  0  0  0  0  0  0  0
   22.0471  -22.9685  -14.8444 C   0  0  2  0  0  0  0  0  0  0  0  0
   22.7996  -23.7703  -15.8307 N   0  0  0  0  0  0  0  0  0  0  0  0
   20.6289  -22.9236  -15.1910 C   0  0  0  0  0  0  0  0  0  0  0  0
   20.1328  -22.8286  -16.3344 O   0  0  0  0  0  0  0  0  0  0  0  0
   19.6909  -22.9933  -14.1414 O   0  0  0  0  0  0  0  0  0  0  0  0
  2  1  1  6
  2  3  1  0
  4  2  1  0
  4  9  1  0
  5  4  2  0
  7  6  1  0
  8  9  1  0
  8  7  1  1
  8 10  1  0
 10 11  2  0
 10 20  1  0
 13 12  1  0
 13 14  2  0
 15 13  1  0
 16 17  1  0
 16 15  1  0
 18 17  1  0
 19 18  1  6
 20 19  1  0
 21 23  1  0
 21 19  1  0
 22 21  2  0
M  END
$$$$
