ASR.pdb
     RDKit          3D

 23 22  0  0  1  0  0  0  0  0999 V2000
   30.0298  -25.2353  -18.5047 C   0  0  0  0  0  0  0  0  0  0  0  0
   30.3849  -24.4214  -17.2786 C   0  0  2  0  0  0  0  0  0  0  0  0
   30.7867  -25.2974  -16.1981 N   0  0  0  0  0  0  0  0  0  0  0  0
   29.1395  -23.6982  -16.8556 C   0  0  0  0  0  0  0  0  0  0  0  0
   28.1891  -24.3096  -16.3224 O   0  0  0  0  0  0  0  0  0  0  0  0
   28.7039  -19.6561  -17.9041 O   0  0  0  0  0  0  0  0  0  0  0  0
   28.3072  -20.0571  -16.6285 C   0  0  0  0  0  0  0  0  0  0  0  0
   27.8540  -21.5217  -16.7114 C   0  0  2  0  0  0  0  0  0  0  0  0
   28.9993  -22.2964  -17.0470 N   0  0  0  0  0  0  0  0  0  0  0  0
   26.6994  -21.6906  -17.5785 C   0  0  0  0  0  0  0  0  0  0  0  0
   26.8474  -22.0109  -18.7780 O   0  0  0  0  0  0  0  0  0  0  0  0
   18.3459  -23.3708  -16.7635 N   0  0  0  0  0  0  0  0  0  0  0  0
   18.5875  -23.7510  -18.1117 C   0  0  0  0  0  0  0  0  0  0  0  0
   17.6265  -23.9628  -18.9617 N   0  0  0  0  0  0  0  0  0  0  0  0
   19.9038  -23.9202  -18.6018 N   0  0  0  0  0  0  0  0  0  0  0  0
   21.0225  -23.7480  -17.7033 C   0  0  0  0  0  0  0  0  0  0  0  0
   22.0139  -22.7428  -18.2540 C   0  0  0  0  0  0  0  0  0  0  0  0
   23.2122  -22.5678  -17.3928 C   0  0  0  0  0  0  0  0  0  0  0  0
   24.2036  -21.6127  -17.9963 C   0  0  2  0  0  0  0  0  0  0  0  0
   25.3796  -21.5026  -17.1092 N   0  0  0  0  0  0  0  0  0  0  0  0
   23.6785  -20.2894  -18.3225 C   0  0  0  0  0  0  0  0  0  0  0  0
   23.7081  -19.2663  -17.6050 O   0  0  0  0  0  0  0  0  0  0  0  0
   23.0643  -20.1150  -19.5790 O   0  0  0  0  0  0  0  0  0  0  0  0
  2  1  1  6
  2  3  1  0
  4  2  1  0
  4  9  1  0
  5  4  2  0
  7  6  1  0
  8  9  1  0
  8  7  1  6
  8 10  1  0
 10 11  2  0
 10 20  1  0
 13 12  1  0
 13 14  2  0
 15 13  1  0
 16 17  1  0
 16 15  1  0
 18 17  1  0
 19 18  1  1
 20 19  1  0
 21 23  1  0
 21 19  1  0
 22 21  2  0
M  END
$$$$
