ASR.pdb
     RDKit          3D

 23 22  0  0  1  0  0  0  0  0999 V2000
   25.7965  -27.6813  -17.0314 C   0  0  0  0  0  0  0  0  0  0  0  0
   27.1014  -26.9607  -17.2952 C   0  0  2  0  0  0  0  0  0  0  0  0
   28.1452  -27.4921  -16.4440 N   0  0  0  0  0  0  0  0  0  0  0  0
   26.8891  -25.5201  -16.9307 C   0  0  0  0  0  0  0  0  0  0  0  0
   27.3344  -25.0540  -15.8603 O   0  0  0  0  0  0  0  0  0  0  0  0
   24.1256  -23.0680  -19.0798 O   0  0  0  0  0  0  0  0  0  0  0  0
   25.4369  -22.6459  -18.8609 C   0  0  0  0  0  0  0  0  0  0  0  0
   25.9190  -23.2622  -17.5399 C   0  0  2  0  0  0  0  0  0  0  0  0
   26.1759  -24.6393  -17.7891 N   0  0  0  0  0  0  0  0  0  0  0  0
   25.0143  -22.9762  -16.4385 C   0  0  0  0  0  0  0  0  0  0  0  0
   24.1695  -23.8230  -16.0745 O   0  0  0  0  0  0  0  0  0  0  0  0
   26.7085  -20.4817   -9.2450 N   0  0  0  0  0  0  0  0  0  0  0  0
   25.3168  -20.4972   -8.9558 C   0  0  0  0  0  0  0  0  0  0  0  0
   24.8466  -20.8613   -7.7995 N   0  0  0  0  0  0  0  0  0  0  0  0
   24.3615  -20.1118   -9.9255 N   0  0  0  0  0  0  0  0  0  0  0  0
   24.8068  -19.7241  -11.2446 C   0  0  0  0  0  0  0  0  0  0  0  0
   24.0870  -20.5162  -12.3174 C   0  0  0  0  0  0  0  0  0  0  0  0
   24.9290  -20.7874  -13.5114 C   0  0  0  0  0  0  0  0  0  0  0  0
   24.1490  -21.4544  -14.6096 C   0  0  2  0  0  0  0  0  0  0  0  0
   25.0508  -21.7468  -15.7424 N   0  0  0  0  0  0  0  0  0  0  0  0
   22.9664  -20.7291  -15.0663 C   0  0  0  0  0  0  0  0  0  0  0  0
   22.9301  -19.7705  -15.8676 O   0  0  0  0  0  0  0  0  0  0  0  0
   21.7118  -21.1315  -14.5657 O   0  0  0  0  0  0  0  0  0  0  0  0
  2  1  1  1
  2  3  1  0
  4  2  1  0
  4  9  1  0
  5  4  2  0
  7  6  1  0
  8  9  1  0
  8  7  1  6
  8 10  1  0
 10 11  2  0
 10 20  1  0
 13 12  1  0
 13 14  2  0
 15 13  1  0
 16 17  1  0
 16 15  1  0
 18 17  1  0
 19 18  1  1
 20 19  1  0
 21 23  1  0
 21 19  1  0
 22 21  2  0
M  END
$$$$
