ASR.pdb
     RDKit          3D

 23 22  0  0  1  0  0  0  0  0999 V2000
   26.6507  -16.2143  -17.3463 C   0  0  0  0  0  0  0  0  0  0  0  0
   27.4351  -17.4946  -17.5394 C   0  0  2  0  0  0  0  0  0  0  0  0
   27.4139  -17.8866  -18.9330 N   0  0  0  0  0  0  0  0  0  0  0  0
   26.7395  -18.5601  -16.7433 C   0  0  0  0  0  0  0  0  0  0  0  0
   25.5031  -18.7215  -16.8248 O   0  0  0  0  0  0  0  0  0  0  0  0
   28.9469  -21.2304  -14.1485 O   0  0  0  0  0  0  0  0  0  0  0  0
   27.9707  -21.6041  -15.0720 C   0  0  0  0  0  0  0  0  0  0  0  0
   26.9114  -20.4937  -15.1178 C   0  0  2  0  0  0  0  0  0  0  0  0
   27.4621  -19.4200  -15.8717 N   0  0  0  0  0  0  0  0  0  0  0  0
   26.4188  -20.1503  -13.7939 C   0  0  0  0  0  0  0  0  0  0  0  0
   26.9819  -19.2624  -13.1173 O   0  0  0  0  0  0  0  0  0  0  0  0
   18.4431  -20.4527  -10.9382 N   0  0  0  0  0  0  0  0  0  0  0  0
   19.3463  -21.2426  -11.7004 C   0  0  0  0  0  0  0  0  0  0  0  0
   18.9447  -22.1552  -12.5351 N   0  0  0  0  0  0  0  0  0  0  0  0
   20.7461  -21.0724  -11.5867 N   0  0  0  0  0  0  0  0  0  0  0  0
   21.3180  -20.7415  -10.3014 C   0  0  0  0  0  0  0  0  0  0  0  0
   22.8078  -20.4892  -10.4166 C   0  0  0  0  0  0  0  0  0  0  0  0
   23.3442  -20.7518  -11.7773 C   0  0  0  0  0  0  0  0  0  0  0  0
   24.8224  -20.4917  -11.8587 C   0  0  2  0  0  0  0  0  0  0  0  0
   25.2985  -20.7962  -13.2235 N   0  0  0  0  0  0  0  0  0  0  0  0
   25.6353  -21.1850  -10.8628 C   0  0  0  0  0  0  0  0  0  0  0  0
   26.0595  -22.3595  -10.9179 O   0  0  0  0  0  0  0  0  0  0  0  0
   25.9980  -20.4774   -9.6991 O   0  0  0  0  0  0  0  0  0  0  0  0
  2  1  1  6
  2  3  1  0
  4  2  1  0
  4  9  1  0
  5  4  2  0
  7  6  1  0
  8  9  1  0
  8  7  1  1
  8 10  1  0
 10 11  2  0
 10 20  1  0
 13 12  1  0
 13 14  2  0
 15 13  1  0
 16 17  1  0
 16 15  1  0
 18 17  1  0
 19 18  1  6
 20 19  1  0
 21 23  1  0
 21 19  1  0
 22 21  2  0
M  END
$$$$
