YMS.pdb
     RDKit          3D

 27 27  0  0  1  0  0  0  0  0999 V2000
    3.2941  -20.4504   17.8602 O   0  0  0  0  0  0  0  0  0  0  0  0
    4.3018  -19.8191   18.5509 C   0  0  0  0  0  0  0  0  0  0  0  0
    4.2788  -19.8907   19.9405 C   0  0  0  0  0  0  0  0  0  0  0  0
    5.2821  -19.2618   20.6215 C   0  0  0  0  0  0  0  0  0  0  0  0
    6.3128  -18.5630   20.0260 C   0  0  0  0  0  0  0  0  0  0  0  0
    7.3129  -17.9441   20.8919 C   0  0  0  0  0  0  0  0  0  0  0  0
    7.2588  -16.4341   20.9053 C   0  0  2  0  0  0  0  0  0  0  0  0
    7.7164  -15.9603   19.6079 N   0  0  0  0  0  0  0  0  0  0  0  0
    8.1763  -16.0016   21.9856 C   0  0  0  0  0  0  0  0  0  0  0  0
    9.3921  -15.9179   21.7033 O   0  0  0  0  0  0  0  0  0  0  0  0
    6.3250  -18.4989   18.6491 C   0  0  0  0  0  0  0  0  0  0  0  0
    5.3259  -19.1235   17.9303 C   0  0  0  0  0  0  0  0  0  0  0  0
    5.9471  -10.9994   26.5864 C   0  0  0  0  0  0  0  0  0  0  0  0
    6.5504  -12.6764   26.7908 S   0  0  0  0  0  0  0  0  0  0  0  0
    7.3644  -13.3079   25.3268 C   0  0  0  0  0  0  0  0  0  0  0  0
    7.9103  -14.6712   25.5166 C   0  0  0  0  0  0  0  0  0  0  0  0
    8.6394  -15.2794   24.3524 C   0  0  2  0  0  0  0  0  0  0  0  0
    7.7519  -15.6789   23.3164 N   0  0  0  0  0  0  0  0  0  0  0  0
    9.5389  -16.3629   24.8133 C   0  0  0  0  0  0  0  0  0  0  0  0
    9.1363  -17.3808   25.4331 O   0  0  0  0  0  0  0  0  0  0  0  0
   13.8044  -16.1776   24.0048 O   0  0  0  0  0  0  0  0  0  0  0  0
   13.0615  -17.3355   23.9473 C   0  0  0  0  0  0  0  0  0  0  0  0
   11.8669  -17.3274   24.8737 C   0  0  2  0  0  0  0  0  0  0  0  0
   10.9345  -16.2730   24.5549 N   0  0  0  0  0  0  0  0  0  0  0  0
   12.2979  -17.3165   26.2752 C   0  0  0  0  0  0  0  0  0  0  0  0
   13.1167  -18.1975   26.6690 O   0  0  0  0  0  0  0  0  0  0  0  0
   11.8129  -16.3624   27.1295 O   0  0  0  0  0  0  0  0  0  0  0  0
  2 12  2  0
  2  1  1  0
  3  2  1  0
  4  5  1  0
  4  3  2  0
  5 11  2  0
  6  7  1  0
  6  5  1  0
  7  9  1  0
  7  8  1  6
  9 10  2  0
 11 12  1  0
 13 14  1  0
 14 15  1  0
 17 16  1  1
 16 15  1  0
 18 17  1  0
 18  9  1  0
 19 24  1  0
 19 17  1  0
 20 19  2  0
 22 21  1  0
 23 24  1  0
 23 22  1  6
 25 23  1  0
 26 25  2  0
 27 25  1  0
M  END
$$$$
