YMS.pdb
     RDKit          3D

 27 27  0  0  1  0  0  0  0  0999 V2000
   12.3477  -16.0233   31.6803 O   0  0  0  0  0  0  0  0  0  0  0  0
   11.7529  -16.2265   30.4572 C   0  0  0  0  0  0  0  0  0  0  0  0
   11.7816  -17.5134   29.9284 C   0  0  0  0  0  0  0  0  0  0  0  0
   11.1893  -17.7097   28.7132 C   0  0  0  0  0  0  0  0  0  0  0  0
   10.5670  -16.7211   27.9780 C   0  0  0  0  0  0  0  0  0  0  0  0
    9.9785  -17.0887   26.6928 C   0  0  0  0  0  0  0  0  0  0  0  0
    8.4991  -17.3884   26.7618 C   0  0  2  0  0  0  0  0  0  0  0  0
    8.3430  -18.8241   26.9398 N   0  0  0  0  0  0  0  0  0  0  0  0
    7.9314  -16.9463   25.4663 C   0  0  0  0  0  0  0  0  0  0  0  0
    7.5589  -17.8377   24.6717 O   0  0  0  0  0  0  0  0  0  0  0  0
   10.5449  -15.4504   28.5119 C   0  0  0  0  0  0  0  0  0  0  0  0
   11.1342  -15.2177   29.7380 C   0  0  0  0  0  0  0  0  0  0  0  0
    5.7887  -10.6535   26.7578 C   0  0  0  0  0  0  0  0  0  0  0  0
    6.1888  -11.3566   25.1567 S   0  0  0  0  0  0  0  0  0  0  0  0
    6.4797  -13.1217   25.2232 C   0  0  0  0  0  0  0  0  0  0  0  0
    6.7985  -13.7011   23.8984 C   0  0  0  0  0  0  0  0  0  0  0  0
    7.1808  -15.1536   23.8661 C   0  0  2  0  0  0  0  0  0  0  0  0
    7.7884  -15.5728   25.0809 N   0  0  0  0  0  0  0  0  0  0  0  0
    7.9943  -15.4487   22.6633 C   0  0  0  0  0  0  0  0  0  0  0  0
    7.5893  -15.2542   21.4884 O   0  0  0  0  0  0  0  0  0  0  0  0
   11.1308  -15.1573   19.7339 O   0  0  0  0  0  0  0  0  0  0  0  0
   10.4092  -14.9415   20.8866 C   0  0  0  0  0  0  0  0  0  0  0  0
   10.2051  -16.1935   21.7088 C   0  0  2  0  0  0  0  0  0  0  0  0
    9.3046  -15.9800   22.8162 N   0  0  0  0  0  0  0  0  0  0  0  0
   11.4940  -16.7652   22.1111 C   0  0  0  0  0  0  0  0  0  0  0  0
   11.7597  -16.8640   23.3445 O   0  0  0  0  0  0  0  0  0  0  0  0
   12.3830  -17.1801   21.1556 O   0  0  0  0  0  0  0  0  0  0  0  0
  2 12  2  0
  2  1  1  0
  3  2  1  0
  4  5  1  0
  4  3  2  0
  5 11  2  0
  6  7  1  0
  6  5  1  0
  7  9  1  0
  7  8  1  6
  9 10  2  0
 11 12  1  0
 13 14  1  0
 14 15  1  0
 17 16  1  1
 16 15  1  0
 18 17  1  0
 18  9  1  0
 19 24  1  0
 19 17  1  0
 20 19  2  0
 22 21  1  0
 23 24  1  0
 23 22  1  1
 25 23  1  0
 26 25  2  0
 27 25  1  0
M  END
$$$$
