YMS.pdb
     RDKit          3D

 27 27  0  0  1  0  0  0  0  0999 V2000
   10.4598  -14.3332   30.7900 O   0  0  0  0  0  0  0  0  0  0  0  0
   10.2775  -14.6671   29.4685 C   0  0  0  0  0  0  0  0  0  0  0  0
   10.6547  -15.9443   29.0647 C   0  0  0  0  0  0  0  0  0  0  0  0
   10.4715  -16.2707   27.7511 C   0  0  0  0  0  0  0  0  0  0  0  0
    9.9394  -15.4219   26.8014 C   0  0  0  0  0  0  0  0  0  0  0  0
    9.8061  -15.9184   25.4343 C   0  0  0  0  0  0  0  0  0  0  0  0
    8.3846  -15.9238   24.9223 C   0  0  2  0  0  0  0  0  0  0  0  0
    7.6464  -16.9323   25.6674 N   0  0  0  0  0  0  0  0  0  0  0  0
    8.4688  -16.2767   23.4855 C   0  0  0  0  0  0  0  0  0  0  0  0
    8.2213  -17.4624   23.1729 O   0  0  0  0  0  0  0  0  0  0  0  0
    9.5695  -14.1595   27.2131 C   0  0  0  0  0  0  0  0  0  0  0  0
    9.7412  -13.7974   28.5339 C   0  0  0  0  0  0  0  0  0  0  0  0
    5.9823  -11.2968   19.4673 C   0  0  0  0  0  0  0  0  0  0  0  0
    7.5029  -12.2360   19.3138 S   0  0  0  0  0  0  0  0  0  0  0  0
    7.4815  -13.7569   20.2577 C   0  0  0  0  0  0  0  0  0  0  0  0
    8.7602  -14.4994   20.1787 C   0  0  0  0  0  0  0  0  0  0  0  0
    8.9081  -15.6953   21.0758 C   0  0  2  0  0  0  0  0  0  0  0  0
    8.8134  -15.3465   22.4505 N   0  0  0  0  0  0  0  0  0  0  0  0
   10.1394  -16.4472   20.7381 C   0  0  0  0  0  0  0  0  0  0  0  0
   11.2804  -16.1358   21.1663 O   0  0  0  0  0  0  0  0  0  0  0  0
    9.8304  -19.5324   17.8955 O   0  0  0  0  0  0  0  0  0  0  0  0
   10.8084  -19.6784   18.8537 C   0  0  0  0  0  0  0  0  0  0  0  0
   11.2024  -18.3753   19.5109 C   0  0  2  0  0  0  0  0  0  0  0  0
   10.0558  -17.5841   19.8878 N   0  0  0  0  0  0  0  0  0  0  0  0
   12.1632  -17.6447   18.6785 C   0  0  0  0  0  0  0  0  0  0  0  0
   11.8526  -16.4932   18.2552 O   0  0  0  0  0  0  0  0  0  0  0  0
   13.3713  -18.2134   18.3742 O   0  0  0  0  0  0  0  0  0  0  0  0
  2 12  2  0
  2  1  1  0
  3  2  1  0
  4  5  1  0
  4  3  2  0
  5 11  2  0
  6  7  1  0
  6  5  1  0
  7  9  1  0
  7  8  1  1
  9 10  2  0
 11 12  1  0
 13 14  1  0
 14 15  1  0
 17 16  1  6
 16 15  1  0
 18 17  1  0
 18  9  1  0
 19 24  1  0
 19 17  1  0
 20 19  2  0
 22 21  1  0
 23 24  1  0
 23 22  1  6
 25 23  1  0
 26 25  2  0
 27 25  1  0
M  END
$$$$
