YMS.pdb
     RDKit          3D

 27 27  0  0  1  0  0  0  0  0999 V2000
   11.4232  -15.2966   32.0138 O   0  0  0  0  0  0  0  0  0  0  0  0
   11.0721  -15.8398   30.8003 C   0  0  0  0  0  0  0  0  0  0  0  0
   10.6100  -14.9752   29.8125 C   0  0  0  0  0  0  0  0  0  0  0  0
   10.2626  -15.5200   28.6091 C   0  0  0  0  0  0  0  0  0  0  0  0
   10.3389  -16.8651   28.3085 C   0  0  0  0  0  0  0  0  0  0  0  0
    9.9303  -17.2946   26.9737 C   0  0  0  0  0  0  0  0  0  0  0  0
    8.4347  -17.4302   26.8069 C   0  0  2  0  0  0  0  0  0  0  0  0
    8.0902  -18.8310   26.9974 N   0  0  0  0  0  0  0  0  0  0  0  0
    8.1360  -16.9903   25.4236 C   0  0  0  0  0  0  0  0  0  0  0  0
    7.6998  -17.8542   24.6310 O   0  0  0  0  0  0  0  0  0  0  0  0
   10.7980  -17.7117   29.2947 C   0  0  0  0  0  0  0  0  0  0  0  0
   11.1575  -17.1937   30.5225 C   0  0  0  0  0  0  0  0  0  0  0  0
    5.7186  -11.2864   26.5281 C   0  0  0  0  0  0  0  0  0  0  0  0
    6.9940  -11.7864   25.3699 S   0  0  0  0  0  0  0  0  0  0  0  0
    6.5623  -13.2609   24.4510 C   0  0  0  0  0  0  0  0  0  0  0  0
    7.6677  -13.7473   23.5942 C   0  0  0  0  0  0  0  0  0  0  0  0
    7.9687  -15.2183   23.6433 C   0  0  2  0  0  0  0  0  0  0  0  0
    8.3173  -15.6485   24.9524 N   0  0  0  0  0  0  0  0  0  0  0  0
    8.9730  -15.5762   22.6143 C   0  0  0  0  0  0  0  0  0  0  0  0
   10.2141  -15.5431   22.8167 O   0  0  0  0  0  0  0  0  0  0  0  0
    9.7286  -16.4777   17.8759 O   0  0  0  0  0  0  0  0  0  0  0  0
    8.8595  -16.1608   18.8957 C   0  0  0  0  0  0  0  0  0  0  0  0
    9.4461  -16.3780   20.2719 C   0  0  2  0  0  0  0  0  0  0  0  0
    8.5391  -15.9818   21.3221 N   0  0  0  0  0  0  0  0  0  0  0  0
   10.7665  -15.7490   20.3777 C   0  0  0  0  0  0  0  0  0  0  0  0
   10.8340  -14.5019   20.5819 O   0  0  0  0  0  0  0  0  0  0  0  0
   11.8966  -16.5129   20.2554 O   0  0  0  0  0  0  0  0  0  0  0  0
  2 12  2  0
  2  1  1  0
  3  2  1  0
  4  5  1  0
  4  3  2  0
  5 11  2  0
  6  7  1  0
  6  5  1  0
  7  9  1  0
  7  8  1  6
  9 10  2  0
 11 12  1  0
 13 14  1  0
 14 15  1  0
 17 16  1  1
 16 15  1  0
 18 17  1  0
 18  9  1  0
 19 24  1  0
 19 17  1  0
 20 19  2  0
 22 21  1  0
 23 24  1  0
 23 22  1  6
 25 23  1  0
 26 25  2  0
 27 25  1  0
M  END
$$$$
