YMS.pdb
     RDKit          3D

 27 27  0  0  1  0  0  0  0  0999 V2000
   10.4617  -14.1876   31.0056 O   0  0  0  0  0  0  0  0  0  0  0  0
   10.2814  -14.7075   29.7454 C   0  0  0  0  0  0  0  0  0  0  0  0
    9.7361  -13.8749   28.7727 C   0  0  0  0  0  0  0  0  0  0  0  0
    9.5591  -14.3964   27.5227 C   0  0  0  0  0  0  0  0  0  0  0  0
    9.8835  -15.6885   27.1614 C   0  0  0  0  0  0  0  0  0  0  0  0
    9.6342  -16.0989   25.7820 C   0  0  0  0  0  0  0  0  0  0  0  0
    8.1833  -16.4011   25.4875 C   0  0  2  0  0  0  0  0  0  0  0  0
    7.8384  -17.6389   26.1702 N   0  0  0  0  0  0  0  0  0  0  0  0
    8.0887  -16.5582   24.0170 C   0  0  0  0  0  0  0  0  0  0  0  0
    8.2968  -17.6998   23.5498 O   0  0  0  0  0  0  0  0  0  0  0  0
   10.4228  -16.5039   28.1332 C   0  0  0  0  0  0  0  0  0  0  0  0
   10.6149  -16.0082   29.4070 C   0  0  0  0  0  0  0  0  0  0  0  0
    8.4369  -11.3170   19.8135 C   0  0  0  0  0  0  0  0  0  0  0  0
    7.5782  -12.5813   18.8742 S   0  0  0  0  0  0  0  0  0  0  0  0
    7.7940  -14.2229   19.5548 C   0  0  0  0  0  0  0  0  0  0  0  0
    7.6933  -14.2496   21.0318 C   0  0  0  0  0  0  0  0  0  0  0  0
    7.9585  -15.5650   21.7074 C   0  0  2  0  0  0  0  0  0  0  0  0
    7.7763  -15.4885   23.1150 N   0  0  0  0  0  0  0  0  0  0  0  0
    9.2839  -16.0943   21.3087 C   0  0  0  0  0  0  0  0  0  0  0  0
   10.3599  -15.7597   21.8677 O   0  0  0  0  0  0  0  0  0  0  0  0
    9.7181  -19.8401   19.8731 O   0  0  0  0  0  0  0  0  0  0  0  0
   10.4269  -18.9373   19.1126 C   0  0  0  0  0  0  0  0  0  0  0  0
   10.6203  -17.6017   19.7938 C   0  0  2  0  0  0  0  0  0  0  0  0
    9.3731  -17.0304   20.2419 N   0  0  0  0  0  0  0  0  0  0  0  0
   11.4020  -16.6958   18.9462 C   0  0  0  0  0  0  0  0  0  0  0  0
   10.8029  -15.7657   18.3317 O   0  0  0  0  0  0  0  0  0  0  0  0
   12.7559  -16.8678   18.8328 O   0  0  0  0  0  0  0  0  0  0  0  0
  2 12  2  0
  2  1  1  0
  3  2  1  0
  4  5  1  0
  4  3  2  0
  5 11  2  0
  6  7  1  0
  6  5  1  0
  7  9  1  0
  7  8  1  1
  9 10  2  0
 11 12  1  0
 13 14  1  0
 14 15  1  0
 17 16  1  6
 16 15  1  0
 18 17  1  0
 18  9  1  0
 19 24  1  0
 19 17  1  0
 20 19  2  0
 22 21  1  0
 23 24  1  0
 23 22  1  6
 25 23  1  0
 26 25  2  0
 27 25  1  0
M  END
$$$$
