YMS.pdb
     RDKit          3D

 27 27  0  0  1  0  0  0  0  0999 V2000
   11.6753  -15.3957   31.7709 O   0  0  0  0  0  0  0  0  0  0  0  0
   11.1827  -15.7366   30.5331 C   0  0  0  0  0  0  0  0  0  0  0  0
   11.2270  -17.0779   30.1648 C   0  0  0  0  0  0  0  0  0  0  0  0
   10.7364  -17.4110   28.9343 C   0  0  0  0  0  0  0  0  0  0  0  0
   10.2020  -16.5099   28.0355 C   0  0  0  0  0  0  0  0  0  0  0  0
    9.7171  -17.0215   26.7563 C   0  0  0  0  0  0  0  0  0  0  0  0
    8.2355  -17.3170   26.7387 C   0  0  2  0  0  0  0  0  0  0  0  0
    8.0650  -18.7518   26.9099 N   0  0  0  0  0  0  0  0  0  0  0  0
    7.7463  -16.8758   25.4112 C   0  0  0  0  0  0  0  0  0  0  0  0
    7.4076  -17.7675   24.6019 O   0  0  0  0  0  0  0  0  0  0  0  0
   10.1634  -15.1842   28.4114 C   0  0  0  0  0  0  0  0  0  0  0  0
   10.6510  -14.8136   29.6482 C   0  0  0  0  0  0  0  0  0  0  0  0
    6.0588  -11.0158   26.9734 C   0  0  0  0  0  0  0  0  0  0  0  0
    6.8828  -11.6035   25.4924 S   0  0  0  0  0  0  0  0  0  0  0  0
    6.1447  -13.0930   24.8281 C   0  0  0  0  0  0  0  0  0  0  0  0
    6.8867  -13.6320   23.6656 C   0  0  0  0  0  0  0  0  0  0  0  0
    7.2517  -15.0887   23.7085 C   0  0  2  0  0  0  0  0  0  0  0  0
    7.6420  -15.5032   25.0110 N   0  0  0  0  0  0  0  0  0  0  0  0
    8.2518  -15.4032   22.6614 C   0  0  0  0  0  0  0  0  0  0  0  0
    9.4135  -15.8143   22.9143 O   0  0  0  0  0  0  0  0  0  0  0  0
    8.5535  -16.3059   17.8319 O   0  0  0  0  0  0  0  0  0  0  0  0
    7.8835  -15.7257   18.8857 C   0  0  0  0  0  0  0  0  0  0  0  0
    8.5365  -15.9822   20.2248 C   0  0  2  0  0  0  0  0  0  0  0  0
    7.9072  -15.2410   21.2913 N   0  0  0  0  0  0  0  0  0  0  0  0
    9.9848  -15.7671   20.1448 C   0  0  0  0  0  0  0  0  0  0  0  0
   10.5117  -14.8803   20.8781 O   0  0  0  0  0  0  0  0  0  0  0  0
   10.7390  -16.5217   19.2862 O   0  0  0  0  0  0  0  0  0  0  0  0
  2 12  2  0
  2  1  1  0
  3  2  1  0
  4  5  1  0
  4  3  2  0
  5 11  2  0
  6  7  1  0
  6  5  1  0
  7  9  1  0
  7  8  1  6
  9 10  2  0
 11 12  1  0
 13 14  1  0
 14 15  1  0
 17 16  1  1
 16 15  1  0
 18 17  1  0
 18  9  1  0
 19 24  1  0
 19 17  1  0
 20 19  2  0
 22 21  1  0
 23 24  1  0
 23 22  1  6
 25 23  1  0
 26 25  2  0
 27 25  1  0
M  END
$$$$
