YMS.pdb
     RDKit          3D

 27 27  0  0  1  0  0  0  0  0999 V2000
   10.8442  -14.3611   30.9885 O   0  0  0  0  0  0  0  0  0  0  0  0
   10.5238  -14.7033   29.6957 C   0  0  0  0  0  0  0  0  0  0  0  0
   10.7725  -16.0114   29.2909 C   0  0  0  0  0  0  0  0  0  0  0  0
   10.4524  -16.3459   28.0058 C   0  0  0  0  0  0  0  0  0  0  0  0
    9.9011  -15.4769   27.0858 C   0  0  0  0  0  0  0  0  0  0  0  0
    9.6138  -15.9857   25.7472 C   0  0  0  0  0  0  0  0  0  0  0  0
    8.1418  -16.1893   25.4740 C   0  0  2  0  0  0  0  0  0  0  0  0
    7.7081  -17.3611   26.2195 N   0  0  0  0  0  0  0  0  0  0  0  0
    8.0239  -16.4118   24.0136 C   0  0  0  0  0  0  0  0  0  0  0  0
    8.1417  -17.5877   23.6035 O   0  0  0  0  0  0  0  0  0  0  0  0
    9.6592  -14.1841   27.4983 C   0  0  0  0  0  0  0  0  0  0  0  0
    9.9711  -13.8129   28.7905 C   0  0  0  0  0  0  0  0  0  0  0  0
    7.7545  -11.3555   19.7154 C   0  0  0  0  0  0  0  0  0  0  0  0
    7.3786  -12.7497   18.6509 S   0  0  0  0  0  0  0  0  0  0  0  0
    7.6975  -14.3289   19.4314 C   0  0  0  0  0  0  0  0  0  0  0  0
    7.6862  -14.2509   20.9100 C   0  0  0  0  0  0  0  0  0  0  0  0
    7.9733  -15.5207   21.6597 C   0  0  2  0  0  0  0  0  0  0  0  0
    7.7857  -15.3679   23.0604 N   0  0  0  0  0  0  0  0  0  0  0  0
    9.3092  -16.0474   21.2942 C   0  0  0  0  0  0  0  0  0  0  0  0
   10.3833  -15.6094   21.7810 O   0  0  0  0  0  0  0  0  0  0  0  0
    9.7835  -19.8664   20.5610 O   0  0  0  0  0  0  0  0  0  0  0  0
   10.5263  -19.1697   19.6343 C   0  0  0  0  0  0  0  0  0  0  0  0
   10.6675  -17.7007   19.9619 C   0  0  2  0  0  0  0  0  0  0  0  0
    9.4116  -17.1027   20.3464 N   0  0  0  0  0  0  0  0  0  0  0  0
   11.3391  -16.9884   18.8703 C   0  0  0  0  0  0  0  0  0  0  0  0
   10.7394  -16.0250   18.3099 O   0  0  0  0  0  0  0  0  0  0  0  0
   12.5934  -17.3721   18.4767 O   0  0  0  0  0  0  0  0  0  0  0  0
  2 12  2  0
  2  1  1  0
  3  2  1  0
  4  5  1  0
  4  3  2  0
  5 11  2  0
  6  7  1  0
  6  5  1  0
  7  9  1  0
  7  8  1  1
  9 10  2  0
 11 12  1  0
 13 14  1  0
 14 15  1  0
 17 16  1  6
 16 15  1  0
 18 17  1  0
 18  9  1  0
 19 24  1  0
 19 17  1  0
 20 19  2  0
 22 21  1  0
 23 24  1  0
 23 22  1  6
 25 23  1  0
 26 25  2  0
 27 25  1  0
M  END
$$$$
