YMS.pdb
     RDKit          3D

 27 27  0  0  1  0  0  0  0  0999 V2000
    1.2221  -19.8834   19.4614 O   0  0  0  0  0  0  0  0  0  0  0  0
    2.3611  -19.4128   20.0714 C   0  0  0  0  0  0  0  0  0  0  0  0
    3.5875  -19.8480   19.5781 C   0  0  0  0  0  0  0  0  0  0  0  0
    4.7157  -19.3775   20.1878 C   0  0  0  0  0  0  0  0  0  0  0  0
    4.7206  -18.5031   21.2559 C   0  0  0  0  0  0  0  0  0  0  0  0
    6.0119  -18.0905   21.7995 C   0  0  0  0  0  0  0  0  0  0  0  0
    6.4335  -16.7003   21.3840 C   0  0  2  0  0  0  0  0  0  0  0  0
    6.9414  -16.7768   20.0226 N   0  0  0  0  0  0  0  0  0  0  0  0
    7.5004  -16.2967   22.3299 C   0  0  0  0  0  0  0  0  0  0  0  0
    8.6835  -16.4936   21.9747 O   0  0  0  0  0  0  0  0  0  0  0  0
    3.4999  -18.0791   21.7358 C   0  0  0  0  0  0  0  0  0  0  0  0
    2.3403  -18.5354   21.1425 C   0  0  0  0  0  0  0  0  0  0  0  0
    6.6682  -10.5193   26.5400 C   0  0  0  0  0  0  0  0  0  0  0  0
    6.9661  -12.2569   26.8716 S   0  0  0  0  0  0  0  0  0  0  0  0
    7.5151  -13.1587   25.4259 C   0  0  0  0  0  0  0  0  0  0  0  0
    7.7670  -14.5910   25.7044 C   0  0  0  0  0  0  0  0  0  0  0  0
    8.2722  -15.4266   24.5627 C   0  0  2  0  0  0  0  0  0  0  0  0
    7.2531  -15.7016   23.6106 N   0  0  0  0  0  0  0  0  0  0  0  0
    8.9526  -16.6409   25.0707 C   0  0  0  0  0  0  0  0  0  0  0  0
    8.3489  -17.5857   25.6410 O   0  0  0  0  0  0  0  0  0  0  0  0
   13.1639  -17.1694   24.3574 O   0  0  0  0  0  0  0  0  0  0  0  0
   12.2810  -18.2226   24.4423 C   0  0  0  0  0  0  0  0  0  0  0  0
   11.0960  -17.9402   25.3374 C   0  0  2  0  0  0  0  0  0  0  0  0
   10.3606  -16.7711   24.9189 N   0  0  0  0  0  0  0  0  0  0  0  0
   11.5082  -17.8936   26.7438 C   0  0  0  0  0  0  0  0  0  0  0  0
   12.1346  -18.8802   27.2294 O   0  0  0  0  0  0  0  0  0  0  0  0
   11.2122  -16.7938   27.5042 O   0  0  0  0  0  0  0  0  0  0  0  0
  2 12  2  0
  2  1  1  0
  3  2  1  0
  4  5  1  0
  4  3  2  0
  5 11  2  0
  6  7  1  0
  6  5  1  0
  7  9  1  0
  7  8  1  6
  9 10  2  0
 11 12  1  0
 13 14  1  0
 14 15  1  0
 17 16  1  1
 16 15  1  0
 18 17  1  0
 18  9  1  0
 19 24  1  0
 19 17  1  0
 20 19  2  0
 22 21  1  0
 23 24  1  0
 23 22  1  6
 25 23  1  0
 26 25  2  0
 27 25  1  0
M  END
$$$$
