GWD.pdb
     RDKit          3D

 27 28  0  0  1  0  0  0  0  0999 V2000
   28.1810  -22.4119  -16.3793 N   0  0  0  0  0  0  0  0  0  0  0  0
   28.5053  -21.3402  -15.4525 C   0  0  0  0  0  0  0  0  0  0  0  0
   27.7434  -21.4820  -14.1831 C   0  0  0  0  0  0  0  0  0  0  0  0
   26.6506  -22.1315  -14.2420 O   0  0  0  0  0  0  0  0  0  0  0  0
   28.1359  -20.9580  -12.9355 N   0  0  0  0  0  0  0  0  0  0  0  0
   27.2533  -20.9576  -11.8190 C   0  0  1  0  0  0  0  0  0  0  0  0
   27.8788  -20.6428  -10.5144 C   0  0  0  0  0  0  0  0  0  0  0  0
   26.9988  -20.4951   -9.3555 C   0  0  0  0  0  0  0  0  0  0  0  0
   25.6450  -20.6446   -9.2505 C   0  0  0  0  0  0  0  0  0  0  0  0
   25.2603  -20.4144   -7.9566 N   0  0  0  0  0  0  0  0  0  0  0  0
   26.3735  -20.1240   -7.2649 C   0  0  0  0  0  0  0  0  0  0  0  0
   26.5684  -19.8131   -5.9275 C   0  0  0  0  0  0  0  0  0  0  0  0
   27.8412  -19.5456   -5.4254 C   0  0  0  0  0  0  0  0  0  0  0  0
   28.9299  -19.5847   -6.2483 C   0  0  0  0  0  0  0  0  0  0  0  0
   28.7029  -19.8962   -7.5718 C   0  0  0  0  0  0  0  0  0  0  0  0
   27.4560  -20.1658   -8.0979 C   0  0  0  0  0  0  0  0  0  0  0  0
   26.0535  -20.1003  -12.0429 C   0  0  0  0  0  0  0  0  0  0  0  0
   26.1195  -18.8790  -12.3021 O   0  0  0  0  0  0  0  0  0  0  0  0
   24.7870  -20.7186  -11.9548 N   0  0  0  0  0  0  0  0  0  0  0  0
   23.5855  -20.1285  -12.5535 C   0  0  1  0  0  0  0  0  0  0  0  0
   23.7436  -20.0575  -14.0587 C   0  0  0  0  0  0  0  0  0  0  0  0
   22.5143  -19.4919  -14.6410 C   0  0  0  0  0  0  0  0  0  0  0  0
   21.6318  -20.2269  -15.1907 O   0  0  0  0  0  0  0  0  0  0  0  0
   22.4432  -21.0190  -12.2498 C   0  0  0  0  0  0  0  0  0  0  0  0
   22.4569  -22.3885  -12.3313 O   0  0  0  0  0  0  0  0  0  0  0  0
   22.2120  -18.1170  -14.6413 O   0  0  0  0  0  0  0  0  0  0  0  0
   21.3207  -20.5183  -11.8754 O   0  0  0  0  0  0  0  0  0  0  0  0
  2  3  1  0
  2  1  1  0
  3  4  2  0
  5  6  1  0
  5  3  1  0
  6 17  1  0
  7  8  1  0
  6  7  1  1
  8 16  1  0
  9 10  1  0
  9  8  2  0
 10 11  1  0
 11 16  2  0
 11 12  1  0
 12 13  2  0
 13 14  1  0
 15 14  2  0
 16 15  1  0
 17 18  2  0
 17 19  1  0
 19 20  1  0
 20 24  1  0
 20 21  1  6
 22 21  1  0
 23 22  2  0
 24 27  2  0
 24 25  1  0
 26 22  1  0
M  END
$$$$
