GWD.pdb
     RDKit          3D

 27 28  0  0  1  0  0  0  0  0999 V2000
   28.4430  -18.1029  -15.8644 N   0  0  0  0  0  0  0  0  0  0  0  0
   27.8893  -18.0945  -14.5204 C   0  0  0  0  0  0  0  0  0  0  0  0
   27.3992  -19.4450  -14.1355 C   0  0  0  0  0  0  0  0  0  0  0  0
   27.4602  -20.3507  -15.0273 O   0  0  0  0  0  0  0  0  0  0  0  0
   26.8791  -19.7926  -12.8731 N   0  0  0  0  0  0  0  0  0  0  0  0
   26.3656  -21.0944  -12.6139 C   0  0  1  0  0  0  0  0  0  0  0  0
   26.8333  -21.7237  -11.3579 C   0  0  0  0  0  0  0  0  0  0  0  0
   26.6145  -20.9949  -10.1087 C   0  0  0  0  0  0  0  0  0  0  0  0
   25.4702  -20.4619   -9.5866 C   0  0  0  0  0  0  0  0  0  0  0  0
   25.7493  -19.8769   -8.3804 N   0  0  0  0  0  0  0  0  0  0  0  0
   27.0620  -20.0486   -8.1585 C   0  0  0  0  0  0  0  0  0  0  0  0
   27.8724  -19.6635   -7.1010 C   0  0  0  0  0  0  0  0  0  0  0  0
   29.2344  -19.9607   -7.0883 C   0  0  0  0  0  0  0  0  0  0  0  0
   29.8017  -20.6426   -8.1261 C   0  0  0  0  0  0  0  0  0  0  0  0
   28.9698  -21.0108   -9.1619 C   0  0  0  0  0  0  0  0  0  0  0  0
   27.6191  -20.7314   -9.2029 C   0  0  0  0  0  0  0  0  0  0  0  0
   24.8776  -21.1466  -12.7012 C   0  0  0  0  0  0  0  0  0  0  0  0
   24.1370  -20.1841  -12.4043 O   0  0  0  0  0  0  0  0  0  0  0  0
   24.2942  -22.3534  -13.1456 N   0  0  0  0  0  0  0  0  0  0  0  0
   22.8608  -22.4702  -13.4314 C   0  0  1  0  0  0  0  0  0  0  0  0
   22.0950  -21.4183  -12.6552 C   0  0  0  0  0  0  0  0  0  0  0  0
   20.6622  -21.5377  -12.9763 C   0  0  0  0  0  0  0  0  0  0  0  0
   20.1317  -22.6564  -13.2738 O   0  0  0  0  0  0  0  0  0  0  0  0
   22.6639  -22.2144  -14.8756 C   0  0  0  0  0  0  0  0  0  0  0  0
   22.1622  -23.1130  -15.7829 O   0  0  0  0  0  0  0  0  0  0  0  0
   19.7705  -20.4485  -12.9825 O   0  0  0  0  0  0  0  0  0  0  0  0
   22.9741  -21.0710  -15.3732 O   0  0  0  0  0  0  0  0  0  0  0  0
  2  3  1  0
  2  1  1  0
  3  4  2  0
  5  6  1  0
  5  3  1  0
  6 17  1  0
  7  8  1  0
  6  7  1  1
  8 16  1  0
  9 10  1  0
  9  8  2  0
 10 11  1  0
 11 16  2  0
 11 12  1  0
 12 13  2  0
 13 14  1  0
 15 14  2  0
 16 15  1  0
 17 18  2  0
 17 19  1  0
 19 20  1  0
 20 24  1  0
 20 21  1  1
 22 21  1  0
 23 22  2  0
 24 27  2  0
 24 25  1  0
 26 22  1  0
M  END
$$$$
