GWD.pdb
     RDKit          3D

 27 28  0  0  1  0  0  0  0  0999 V2000
   28.0585  -24.0431  -16.3906 N   0  0  0  0  0  0  0  0  0  0  0  0
   27.9439  -22.6383  -16.0351 C   0  0  0  0  0  0  0  0  0  0  0  0
   27.0009  -22.4489  -14.9007 C   0  0  0  0  0  0  0  0  0  0  0  0
   26.3058  -23.4592  -14.5607 O   0  0  0  0  0  0  0  0  0  0  0  0
   26.8218  -21.2499  -14.1829 N   0  0  0  0  0  0  0  0  0  0  0  0
   25.8859  -21.1561  -13.1148 C   0  0  1  0  0  0  0  0  0  0  0  0
   26.2530  -20.2195  -12.0284 C   0  0  0  0  0  0  0  0  0  0  0  0
   27.4438  -20.5281  -11.2371 C   0  0  0  0  0  0  0  0  0  0  0  0
   28.7117  -20.8431  -11.6364 C   0  0  0  0  0  0  0  0  0  0  0  0
   29.4999  -21.0425  -10.5346 N   0  0  0  0  0  0  0  0  0  0  0  0
   28.7209  -20.8509   -9.4583 C   0  0  0  0  0  0  0  0  0  0  0  0
   28.9970  -20.9209   -8.1010 C   0  0  0  0  0  0  0  0  0  0  0  0
   28.0091  -20.6745   -7.1486 C   0  0  0  0  0  0  0  0  0  0  0  0
   26.7395  -20.3570   -7.5374 C   0  0  0  0  0  0  0  0  0  0  0  0
   26.4972  -20.2958   -8.8931 C   0  0  0  0  0  0  0  0  0  0  0  0
   27.4535  -20.5341   -9.8591 C   0  0  0  0  0  0  0  0  0  0  0  0
   24.5008  -20.8812  -13.5950 C   0  0  0  0  0  0  0  0  0  0  0  0
   24.2426  -20.1130  -14.5469 O   0  0  0  0  0  0  0  0  0  0  0  0
   23.4402  -21.5329  -12.9282 N   0  0  0  0  0  0  0  0  0  0  0  0
   22.0446  -21.3938  -13.3561 C   0  0  1  0  0  0  0  0  0  0  0  0
   21.1941  -22.4540  -12.6865 C   0  0  0  0  0  0  0  0  0  0  0  0
   19.7968  -22.2905  -13.1236 C   0  0  0  0  0  0  0  0  0  0  0  0
   18.9605  -21.6008  -12.4555 O   0  0  0  0  0  0  0  0  0  0  0  0
   21.5640  -20.0666  -12.9120 C   0  0  0  0  0  0  0  0  0  0  0  0
   20.7646  -19.2234  -13.6417 O   0  0  0  0  0  0  0  0  0  0  0  0
   19.2726  -22.8699  -14.2946 O   0  0  0  0  0  0  0  0  0  0  0  0
   21.8954  -19.6181  -11.7544 O   0  0  0  0  0  0  0  0  0  0  0  0
  2  3  1  0
  2  1  1  0
  3  4  2  0
  5  6  1  0
  5  3  1  0
  6 17  1  0
  7  8  1  0
  6  7  1  1
  8 16  1  0
  9 10  1  0
  9  8  2  0
 10 11  1  0
 11 16  2  0
 11 12  1  0
 12 13  2  0
 13 14  1  0
 15 14  2  0
 16 15  1  0
 17 18  2  0
 17 19  1  0
 19 20  1  0
 20 24  1  0
 20 21  1  1
 22 21  1  0
 23 22  2  0
 24 27  2  0
 24 25  1  0
 26 22  1  0
M  END
$$$$
