GWD.pdb
     RDKit          3D

 27 28  0  0  1  0  0  0  0  0999 V2000
   27.9525  -18.1499  -14.2961 N   0  0  0  0  0  0  0  0  0  0  0  0
   27.6792  -18.0550  -12.8716 C   0  0  0  0  0  0  0  0  0  0  0  0
   27.4500  -19.4003  -12.2802 C   0  0  0  0  0  0  0  0  0  0  0  0
   27.5562  -20.3957  -13.0660 O   0  0  0  0  0  0  0  0  0  0  0  0
   27.1283  -19.6524  -10.9319 N   0  0  0  0  0  0  0  0  0  0  0  0
   26.9177  -20.9761  -10.4533 C   0  0  1  0  0  0  0  0  0  0  0  0
   27.6249  -21.3183   -9.1984 C   0  0  0  0  0  0  0  0  0  0  0  0
   27.5071  -20.3886   -8.0753 C   0  0  0  0  0  0  0  0  0  0  0  0
   26.7399  -19.2672   -7.9346 C   0  0  0  0  0  0  0  0  0  0  0  0
   26.9539  -18.7212   -6.6972 N   0  0  0  0  0  0  0  0  0  0  0  0
   27.8504  -19.5036   -6.0758 C   0  0  0  0  0  0  0  0  0  0  0  0
   28.4210  -19.4230   -4.8143 C   0  0  0  0  0  0  0  0  0  0  0  0
   29.3454  -20.3705   -4.3771 C   0  0  0  0  0  0  0  0  0  0  0  0
   29.7100  -21.4052   -5.1897 C   0  0  0  0  0  0  0  0  0  0  0  0
   29.1255  -21.4570   -6.4371 C   0  0  0  0  0  0  0  0  0  0  0  0
   28.2081  -20.5348   -6.8979 C   0  0  0  0  0  0  0  0  0  0  0  0
   25.4700  -21.3186  -10.3466 C   0  0  0  0  0  0  0  0  0  0  0  0
   24.7637  -21.0208   -9.3590 O   0  0  0  0  0  0  0  0  0  0  0  0
   24.8848  -22.0136  -11.4277 N   0  0  0  0  0  0  0  0  0  0  0  0
   23.4857  -21.8156  -11.8192 C   0  0  1  0  0  0  0  0  0  0  0  0
   23.2388  -20.3511  -12.1192 C   0  0  0  0  0  0  0  0  0  0  0  0
   21.8251  -20.1729  -12.4934 C   0  0  0  0  0  0  0  0  0  0  0  0
   20.8881  -20.2522  -11.6349 O   0  0  0  0  0  0  0  0  0  0  0  0
   23.2476  -22.5883  -13.0586 C   0  0  0  0  0  0  0  0  0  0  0  0
   22.0405  -23.1054  -13.4557 O   0  0  0  0  0  0  0  0  0  0  0  0
   21.3933  -19.9044  -13.8061 O   0  0  0  0  0  0  0  0  0  0  0  0
   24.2199  -22.8242  -13.8648 O   0  0  0  0  0  0  0  0  0  0  0  0
  2  3  1  0
  2  1  1  0
  3  4  2  0
  5  6  1  0
  5  3  1  0
  6 17  1  0
  7  8  1  0
  6  7  1  1
  8 16  1  0
  9 10  1  0
  9  8  2  0
 10 11  1  0
 11 16  2  0
 11 12  1  0
 12 13  2  0
 13 14  1  0
 15 14  2  0
 16 15  1  0
 17 18  2  0
 17 19  1  0
 19 20  1  0
 20 24  1  0
 20 21  1  6
 22 21  1  0
 23 22  2  0
 24 27  2  0
 24 25  1  0
 26 22  1  0
M  END
$$$$
