GWD.pdb
     RDKit          3D

 27 28  0  0  1  0  0  0  0  0999 V2000
   28.4547  -22.3597  -15.6547 N   0  0  0  0  0  0  0  0  0  0  0  0
   28.0692  -21.2052  -14.8601 C   0  0  0  0  0  0  0  0  0  0  0  0
   27.0315  -21.5679  -13.8582 C   0  0  0  0  0  0  0  0  0  0  0  0
   26.4097  -22.6615  -14.0498 O   0  0  0  0  0  0  0  0  0  0  0  0
   26.6895  -20.8010  -12.7268 N   0  0  0  0  0  0  0  0  0  0  0  0
   25.5680  -21.1327  -11.9158 C   0  0  1  0  0  0  0  0  0  0  0  0
   25.7978  -21.0647  -10.4547 C   0  0  0  0  0  0  0  0  0  0  0  0
   27.1670  -21.2429   -9.9720 C   0  0  0  0  0  0  0  0  0  0  0  0
   28.2250  -21.8951  -10.5390 C   0  0  0  0  0  0  0  0  0  0  0  0
   29.3178  -21.7877   -9.7209 N   0  0  0  0  0  0  0  0  0  0  0  0
   28.9355  -21.0710   -8.6522 C   0  0  0  0  0  0  0  0  0  0  0  0
   29.6314  -20.6621   -7.5244 C   0  0  0  0  0  0  0  0  0  0  0  0
   29.0139  -19.9080   -6.5276 C   0  0  0  0  0  0  0  0  0  0  0  0
   27.7003  -19.5545   -6.6437 C   0  0  0  0  0  0  0  0  0  0  0  0
   27.0365  -19.9764   -7.7758 C   0  0  0  0  0  0  0  0  0  0  0  0
   27.6201  -20.7231   -8.7788 C   0  0  0  0  0  0  0  0  0  0  0  0
   24.3481  -20.3598  -12.2888 C   0  0  0  0  0  0  0  0  0  0  0  0
   24.3843  -19.2742  -12.9079 O   0  0  0  0  0  0  0  0  0  0  0  0
   23.0974  -20.8991  -11.9160 N   0  0  0  0  0  0  0  0  0  0  0  0
   21.9036  -20.7584  -12.7556 C   0  0  1  0  0  0  0  0  0  0  0  0
   22.0524  -21.6021  -14.0053 C   0  0  0  0  0  0  0  0  0  0  0  0
   21.9745  -20.7239  -15.1855 C   0  0  0  0  0  0  0  0  0  0  0  0
   21.7433  -19.4762  -15.0800 O   0  0  0  0  0  0  0  0  0  0  0  0
   20.7462  -21.2690  -11.9878 C   0  0  0  0  0  0  0  0  0  0  0  0
   20.7153  -22.4440  -11.2800 O   0  0  0  0  0  0  0  0  0  0  0  0
   22.1453  -21.1764  -16.5075 O   0  0  0  0  0  0  0  0  0  0  0  0
   19.6533  -20.5944  -11.9493 O   0  0  0  0  0  0  0  0  0  0  0  0
  2  3  1  0
  2  1  1  0
  3  4  2  0
  5  6  1  0
  5  3  1  0
  6 17  1  0
  7  8  1  0
  6  7  1  1
  8 16  1  0
  9 10  1  0
  9  8  2  0
 10 11  1  0
 11 16  2  0
 11 12  1  0
 12 13  2  0
 13 14  1  0
 15 14  2  0
 16 15  1  0
 17 18  2  0
 17 19  1  0
 19 20  1  0
 20 24  1  0
 20 21  1  6
 22 21  1  0
 23 22  2  0
 24 27  2  0
 24 25  1  0
 26 22  1  0
M  END
$$$$
