GWD.pdb
     RDKit          3D

 27 28  0  0  1  0  0  0  0  0999 V2000
   28.2315  -21.4957  -15.5955 N   0  0  0  0  0  0  0  0  0  0  0  0
   28.0272  -20.5051  -14.5515 C   0  0  0  0  0  0  0  0  0  0  0  0
   27.0383  -20.9817  -13.5480 C   0  0  0  0  0  0  0  0  0  0  0  0
   26.3106  -21.9690  -13.8871 O   0  0  0  0  0  0  0  0  0  0  0  0
   26.8492  -20.4291  -12.2659 N   0  0  0  0  0  0  0  0  0  0  0  0
   25.7624  -20.8278  -11.4379 C   0  0  1  0  0  0  0  0  0  0  0  0
   25.9658  -20.6327   -9.9844 C   0  0  0  0  0  0  0  0  0  0  0  0
   27.3142  -20.8301   -9.4531 C   0  0  0  0  0  0  0  0  0  0  0  0
   28.3795  -21.5053   -9.9778 C   0  0  0  0  0  0  0  0  0  0  0  0
   29.4452  -21.4095   -9.1233 N   0  0  0  0  0  0  0  0  0  0  0  0
   29.0390  -20.6770   -8.0744 C   0  0  0  0  0  0  0  0  0  0  0  0
   29.7027  -20.2701   -6.9266 C   0  0  0  0  0  0  0  0  0  0  0  0
   29.0644  -19.4968   -5.9580 C   0  0  0  0  0  0  0  0  0  0  0  0
   27.7620  -19.1218   -6.1224 C   0  0  0  0  0  0  0  0  0  0  0  0
   27.1303  -19.5422   -7.2732 C   0  0  0  0  0  0  0  0  0  0  0  0
   27.7350  -20.3077   -8.2493 C   0  0  0  0  0  0  0  0  0  0  0  0
   24.4680  -20.2253  -11.8693 C   0  0  0  0  0  0  0  0  0  0  0  0
   24.3445  -19.0266  -12.2023 O   0  0  0  0  0  0  0  0  0  0  0  0
   23.3358  -21.0687  -11.8981 N   0  0  0  0  0  0  0  0  0  0  0  0
   22.1022  -20.6981  -12.5989 C   0  0  1  0  0  0  0  0  0  0  0  0
   22.1571  -21.1909  -14.0306 C   0  0  0  0  0  0  0  0  0  0  0  0
   20.8747  -20.8871  -14.6889 C   0  0  0  0  0  0  0  0  0  0  0  0
   20.5985  -19.7192  -15.1146 O   0  0  0  0  0  0  0  0  0  0  0  0
   20.9742  -21.3737  -11.9200 C   0  0  0  0  0  0  0  0  0  0  0  0
   21.0898  -22.3447  -10.9576 O   0  0  0  0  0  0  0  0  0  0  0  0
   19.8616  -21.8410  -14.9017 O   0  0  0  0  0  0  0  0  0  0  0  0
   19.7644  -21.0629  -12.2213 O   0  0  0  0  0  0  0  0  0  0  0  0
  2  3  1  0
  2  1  1  0
  3  4  2  0
  5  6  1  0
  5  3  1  0
  6 17  1  0
  7  8  1  0
  6  7  1  1
  8 16  1  0
  9 10  1  0
  9  8  2  0
 10 11  1  0
 11 16  2  0
 11 12  1  0
 12 13  2  0
 13 14  1  0
 15 14  2  0
 16 15  1  0
 17 18  2  0
 17 19  1  0
 19 20  1  0
 20 24  1  0
 20 21  1  6
 22 21  1  0
 23 22  2  0
 24 27  2  0
 24 25  1  0
 26 22  1  0
M  END
$$$$
