GWD.pdb
     RDKit          3D

 27 28  0  0  1  0  0  0  0  0999 V2000
   28.7483  -21.4402  -15.4637 N   0  0  0  0  0  0  0  0  0  0  0  0
   28.9343  -20.7344  -14.2067 C   0  0  0  0  0  0  0  0  0  0  0  0
   28.0300  -21.2694  -13.1540 C   0  0  0  0  0  0  0  0  0  0  0  0
   27.0574  -21.9893  -13.5479 O   0  0  0  0  0  0  0  0  0  0  0  0
   28.1677  -21.0419  -11.7704 N   0  0  0  0  0  0  0  0  0  0  0  0
   27.1842  -21.4867  -10.8428 C   0  0  1  0  0  0  0  0  0  0  0  0
   27.6841  -21.7884   -9.4822 C   0  0  0  0  0  0  0  0  0  0  0  0
   27.2363  -20.9293   -8.3864 C   0  0  0  0  0  0  0  0  0  0  0  0
   26.0890  -20.2007   -8.2484 C   0  0  0  0  0  0  0  0  0  0  0  0
   26.1018  -19.5554   -7.0406 N   0  0  0  0  0  0  0  0  0  0  0  0
   27.2534  -19.8852   -6.4348 C   0  0  0  0  0  0  0  0  0  0  0  0
   27.7795  -19.5231   -5.2038 C   0  0  0  0  0  0  0  0  0  0  0  0
   29.0176  -20.0019   -4.7776 C   0  0  0  0  0  0  0  0  0  0  0  0
   29.7423  -20.8438   -5.5712 C   0  0  0  0  0  0  0  0  0  0  0  0
   29.1923  -21.1844   -6.7885 C   0  0  0  0  0  0  0  0  0  0  0  0
   27.9702  -20.7272   -7.2376 C   0  0  0  0  0  0  0  0  0  0  0  0
   26.0097  -20.5699  -10.7759 C   0  0  0  0  0  0  0  0  0  0  0  0
   26.1066  -19.3429  -10.5565 O   0  0  0  0  0  0  0  0  0  0  0  0
   24.7311  -21.1355  -10.9749 N   0  0  0  0  0  0  0  0  0  0  0  0
   23.6867  -20.4552  -11.7471 C   0  0  1  0  0  0  0  0  0  0  0  0
   24.1383  -20.2855  -13.1834 C   0  0  0  0  0  0  0  0  0  0  0  0
   23.0835  -19.5836  -13.9351 C   0  0  0  0  0  0  0  0  0  0  0  0
   22.1292  -20.2110  -14.4979 O   0  0  0  0  0  0  0  0  0  0  0  0
   22.4832  -21.3162  -11.7393 C   0  0  0  0  0  0  0  0  0  0  0  0
   21.2038  -20.8951  -11.4777 O   0  0  0  0  0  0  0  0  0  0  0  0
   23.0376  -18.1856  -14.0945 O   0  0  0  0  0  0  0  0  0  0  0  0
   22.5903  -22.5717  -11.9908 O   0  0  0  0  0  0  0  0  0  0  0  0
  2  3  1  0
  2  1  1  0
  3  4  2  0
  5  6  1  0
  5  3  1  0
  6 17  1  0
  7  8  1  0
  6  7  1  1
  8 16  1  0
  9 10  1  0
  9  8  2  0
 10 11  1  0
 11 16  2  0
 11 12  1  0
 12 13  2  0
 13 14  1  0
 15 14  2  0
 16 15  1  0
 17 18  2  0
 17 19  1  0
 19 20  1  0
 20 24  1  0
 20 21  1  6
 22 21  1  0
 23 22  2  0
 24 27  2  0
 24 25  1  0
 26 22  1  0
M  END
$$$$
