GWD.pdb
     RDKit          3D

 27 28  0  0  1  0  0  0  0  0999 V2000
   20.4692  -27.8065  -13.6548 N   0  0  0  0  0  0  0  0  0  0  0  0
   19.2678  -27.0839  -13.2709 C   0  0  0  0  0  0  0  0  0  0  0  0
   19.4838  -26.3158  -12.0157 C   0  0  0  0  0  0  0  0  0  0  0  0
   20.4444  -26.6947  -11.2720 O   0  0  0  0  0  0  0  0  0  0  0  0
   18.7144  -25.2136  -11.5936 N   0  0  0  0  0  0  0  0  0  0  0  0
   18.9669  -24.5626  -10.3534 C   0  0  1  0  0  0  0  0  0  0  0  0
   19.0139  -23.0838  -10.4098 C   0  0  0  0  0  0  0  0  0  0  0  0
   19.8911  -22.4680  -11.4052 C   0  0  0  0  0  0  0  0  0  0  0  0
   20.8091  -23.0343  -12.2435 C   0  0  0  0  0  0  0  0  0  0  0  0
   21.3876  -22.0590  -13.0111 N   0  0  0  0  0  0  0  0  0  0  0  0
   20.8281  -20.8942  -12.6478 C   0  0  0  0  0  0  0  0  0  0  0  0
   21.0342  -19.5977  -13.0951 C   0  0  0  0  0  0  0  0  0  0  0  0
   20.3205  -18.5262  -12.5602 C   0  0  0  0  0  0  0  0  0  0  0  0
   19.3967  -18.7346  -11.5769 C   0  0  0  0  0  0  0  0  0  0  0  0
   19.2154  -20.0340  -11.1539 C   0  0  0  0  0  0  0  0  0  0  0  0
   19.9060  -21.1145  -11.6636 C   0  0  0  0  0  0  0  0  0  0  0  0
   18.0410  -25.0146   -9.2751 C   0  0  0  0  0  0  0  0  0  0  0  0
   16.8187  -25.2070   -9.4540 O   0  0  0  0  0  0  0  0  0  0  0  0
   18.5925  -25.2325   -7.9935 N   0  0  0  0  0  0  0  0  0  0  0  0
   17.7690  -25.6178   -6.8430 C   0  0  1  0  0  0  0  0  0  0  0  0
   18.6578  -26.0917   -5.7111 C   0  0  0  0  0  0  0  0  0  0  0  0
   17.8096  -26.5000   -4.5779 C   0  0  0  0  0  0  0  0  0  0  0  0
   16.5490  -26.6346   -4.6969 O   0  0  0  0  0  0  0  0  0  0  0  0
   17.0384  -24.4151   -6.3850 C   0  0  0  0  0  0  0  0  0  0  0  0
   15.6951  -24.3544   -6.1127 O   0  0  0  0  0  0  0  0  0  0  0  0
   18.3070  -26.7723   -3.2894 O   0  0  0  0  0  0  0  0  0  0  0  0
   17.6678  -23.3081   -6.2134 O   0  0  0  0  0  0  0  0  0  0  0  0
  2  3  1  0
  2  1  1  0
  3  4  2  0
  5  6  1  0
  5  3  1  0
  6 17  1  0
  7  8  1  0
  6  7  1  6
  8 16  1  0
  9 10  1  0
  9  8  2  0
 10 11  1  0
 11 16  2  0
 11 12  1  0
 12 13  2  0
 13 14  1  0
 15 14  2  0
 16 15  1  0
 17 18  2  0
 17 19  1  0
 19 20  1  0
 20 24  1  0
 20 21  1  1
 22 21  1  0
 23 22  2  0
 24 27  2  0
 24 25  1  0
 26 22  1  0
M  END
$$$$
