GWD.pdb
     RDKit          3D

 27 28  0  0  1  0  0  0  0  0999 V2000
   27.5956  -23.2982  -15.9516 N   0  0  0  0  0  0  0  0  0  0  0  0
   27.4137  -21.9727  -15.3834 C   0  0  0  0  0  0  0  0  0  0  0  0
   26.5664  -22.0260  -14.1622 C   0  0  0  0  0  0  0  0  0  0  0  0
   25.9518  -23.1179  -13.9403 O   0  0  0  0  0  0  0  0  0  0  0  0
   26.3955  -20.9714  -13.2437 N   0  0  0  0  0  0  0  0  0  0  0  0
   25.4847  -21.0746  -12.1549 C   0  0  1  0  0  0  0  0  0  0  0  0
   25.9115  -20.4077  -10.9038 C   0  0  0  0  0  0  0  0  0  0  0  0
   27.2139  -20.7732  -10.3476 C   0  0  0  0  0  0  0  0  0  0  0  0
   28.2775  -21.4020  -10.9303 C   0  0  0  0  0  0  0  0  0  0  0  0
   29.2916  -21.5218  -10.0180 N   0  0  0  0  0  0  0  0  0  0  0  0
   28.8553  -20.9684   -8.8755 C   0  0  0  0  0  0  0  0  0  0  0  0
   29.4647  -20.8129   -7.6394 C   0  0  0  0  0  0  0  0  0  0  0  0
   28.8039  -20.1918   -6.5805 C   0  0  0  0  0  0  0  0  0  0  0  0
   27.5327  -19.7205   -6.7416 C   0  0  0  0  0  0  0  0  0  0  0  0
   26.9548  -19.8906   -7.9816 C   0  0  0  0  0  0  0  0  0  0  0  0
   27.5830  -20.5007   -9.0481 C   0  0  0  0  0  0  0  0  0  0  0  0
   24.1036  -20.6518  -12.5269 C   0  0  0  0  0  0  0  0  0  0  0  0
   23.8525  -19.6051  -13.1626 O   0  0  0  0  0  0  0  0  0  0  0  0
   23.0384  -21.4911  -12.1330 N   0  0  0  0  0  0  0  0  0  0  0  0
   21.6534  -21.2427  -12.5456 C   0  0  1  0  0  0  0  0  0  0  0  0
   21.0033  -22.5433  -12.9715 C   0  0  0  0  0  0  0  0  0  0  0  0
   20.5225  -22.4046  -14.3571 C   0  0  0  0  0  0  0  0  0  0  0  0
   20.6008  -21.3012  -14.9877 O   0  0  0  0  0  0  0  0  0  0  0  0
   20.9176  -20.7200  -11.3729 C   0  0  0  0  0  0  0  0  0  0  0  0
   19.7846  -19.9477  -11.4226 O   0  0  0  0  0  0  0  0  0  0  0  0
   19.9457  -23.4577  -15.0920 O   0  0  0  0  0  0  0  0  0  0  0  0
   21.3334  -20.9810  -10.1855 O   0  0  0  0  0  0  0  0  0  0  0  0
  2  3  1  0
  2  1  1  0
  3  4  2  0
  5  6  1  0
  5  3  1  0
  6 17  1  0
  7  8  1  0
  6  7  1  1
  8 16  1  0
  9 10  1  0
  9  8  2  0
 10 11  1  0
 11 16  2  0
 11 12  1  0
 12 13  2  0
 13 14  1  0
 15 14  2  0
 16 15  1  0
 17 18  2  0
 17 19  1  0
 19 20  1  0
 20 24  1  0
 20 21  1  1
 22 21  1  0
 23 22  2  0
 24 27  2  0
 24 25  1  0
 26 22  1  0
M  END
$$$$
