GWD.pdb
     RDKit          3D

 27 28  0  0  1  0  0  0  0  0999 V2000
   28.6487  -19.7388  -14.6670 N   0  0  0  0  0  0  0  0  0  0  0  0
   28.6216  -19.3690  -13.2615 C   0  0  0  0  0  0  0  0  0  0  0  0
   27.8990  -20.3880  -12.4542 C   0  0  0  0  0  0  0  0  0  0  0  0
   27.3353  -21.3311  -13.0963 O   0  0  0  0  0  0  0  0  0  0  0  0
   27.7931  -20.3876  -11.0493 N   0  0  0  0  0  0  0  0  0  0  0  0
   26.9379  -21.2991  -10.3684 C   0  0  1  0  0  0  0  0  0  0  0  0
   27.3057  -21.5870   -8.9634 C   0  0  0  0  0  0  0  0  0  0  0  0
   27.3572  -20.4629   -8.0291 C   0  0  0  0  0  0  0  0  0  0  0  0
   26.7669  -19.2327   -8.0949 C   0  0  0  0  0  0  0  0  0  0  0  0
   27.0933  -18.5104   -6.9783 N   0  0  0  0  0  0  0  0  0  0  0  0
   27.8826  -19.2927   -6.2253 C   0  0  0  0  0  0  0  0  0  0  0  0
   28.4942  -19.0717   -5.0003 C   0  0  0  0  0  0  0  0  0  0  0  0
   29.2818  -20.0519   -4.3981 C   0  0  0  0  0  0  0  0  0  0  0  0
   29.4677  -21.2589   -5.0084 C   0  0  0  0  0  0  0  0  0  0  0  0
   28.8470  -21.4473   -6.2247 C   0  0  0  0  0  0  0  0  0  0  0  0
   28.0621  -20.4971   -6.8454 C   0  0  0  0  0  0  0  0  0  0  0  0
   25.5014  -20.9094  -10.4625 C   0  0  0  0  0  0  0  0  0  0  0  0
   25.0076  -19.9462   -9.8369 O   0  0  0  0  0  0  0  0  0  0  0  0
   24.6728  -21.6793  -11.3081 N   0  0  0  0  0  0  0  0  0  0  0  0
   23.4114  -21.1627  -11.8484 C   0  0  1  0  0  0  0  0  0  0  0  0
   23.6783  -19.9272  -12.6838 C   0  0  0  0  0  0  0  0  0  0  0  0
   22.3904  -19.3505  -13.1070 C   0  0  0  0  0  0  0  0  0  0  0  0
   21.2828  -19.7580  -12.6292 O   0  0  0  0  0  0  0  0  0  0  0  0
   22.8362  -22.2023  -12.7306 C   0  0  0  0  0  0  0  0  0  0  0  0
   23.5067  -23.2973  -13.2141 O   0  0  0  0  0  0  0  0  0  0  0  0
   22.2722  -18.3188  -14.0575 O   0  0  0  0  0  0  0  0  0  0  0  0
   21.6102  -22.1191  -13.1063 O   0  0  0  0  0  0  0  0  0  0  0  0
  2  3  1  0
  2  1  1  0
  3  4  2  0
  5  6  1  0
  5  3  1  0
  6 17  1  0
  7  8  1  0
  6  7  1  1
  8 16  1  0
  9 10  1  0
  9  8  2  0
 10 11  1  0
 11 16  2  0
 11 12  1  0
 12 13  2  0
 13 14  1  0
 15 14  2  0
 16 15  1  0
 17 18  2  0
 17 19  1  0
 19 20  1  0
 20 24  1  0
 20 21  1  6
 22 21  1  0
 23 22  2  0
 24 27  2  0
 24 25  1  0
 26 22  1  0
M  END
$$$$
