GWD.pdb
     RDKit          3D

 27 28  0  0  1  0  0  0  0  0999 V2000
   29.3942  -21.6870  -13.9244 N   0  0  0  0  0  0  0  0  0  0  0  0
   29.1631  -20.8182  -12.7822 C   0  0  0  0  0  0  0  0  0  0  0  0
   27.9216  -21.2036  -12.0595 C   0  0  0  0  0  0  0  0  0  0  0  0
   27.0023  -21.7463  -12.7522 O   0  0  0  0  0  0  0  0  0  0  0  0
   27.6898  -21.0155  -10.6826 N   0  0  0  0  0  0  0  0  0  0  0  0
   26.4093  -21.2474  -10.1062 C   0  0  1  0  0  0  0  0  0  0  0  0
   26.3947  -21.4105   -8.6347 C   0  0  0  0  0  0  0  0  0  0  0  0
   26.8747  -20.2936   -7.8213 C   0  0  0  0  0  0  0  0  0  0  0  0
   26.7234  -18.9470   -7.9939 C   0  0  0  0  0  0  0  0  0  0  0  0
   27.3401  -18.2840   -6.9666 N   0  0  0  0  0  0  0  0  0  0  0  0
   27.8703  -19.2187   -6.1622 C   0  0  0  0  0  0  0  0  0  0  0  0
   28.5957  -19.1125   -4.9849 C   0  0  0  0  0  0  0  0  0  0  0  0
   29.0490  -20.2452   -4.3103 C   0  0  0  0  0  0  0  0  0  0  0  0
   28.7853  -21.4919   -4.8003 C   0  0  0  0  0  0  0  0  0  0  0  0
   28.0627  -21.5637   -5.9720 C   0  0  0  0  0  0  0  0  0  0  0  0
   27.6006  -20.4616   -6.6620 C   0  0  0  0  0  0  0  0  0  0  0  0
   25.4030  -20.2309  -10.5288 C   0  0  0  0  0  0  0  0  0  0  0  0
   25.6927  -19.0427  -10.7880 O   0  0  0  0  0  0  0  0  0  0  0  0
   24.0595  -20.6520  -10.6372 N   0  0  0  0  0  0  0  0  0  0  0  0
   23.1282  -20.0550  -11.5997 C   0  0  1  0  0  0  0  0  0  0  0  0
   23.5606  -20.3951  -13.0114 C   0  0  0  0  0  0  0  0  0  0  0  0
   22.5814  -19.8341  -13.9582 C   0  0  0  0  0  0  0  0  0  0  0  0
   21.5983  -19.1258  -13.5666 O   0  0  0  0  0  0  0  0  0  0  0  0
   21.7933  -20.6506  -11.3686 C   0  0  0  0  0  0  0  0  0  0  0  0
   20.6427  -19.9503  -11.1077 O   0  0  0  0  0  0  0  0  0  0  0  0
   22.6441  -20.0268  -15.3513 O   0  0  0  0  0  0  0  0  0  0  0  0
   21.6449  -21.9264  -11.4028 O   0  0  0  0  0  0  0  0  0  0  0  0
  2  3  1  0
  2  1  1  0
  3  4  2  0
  5  6  1  0
  5  3  1  0
  6 17  1  0
  7  8  1  0
  6  7  1  1
  8 16  1  0
  9 10  1  0
  9  8  2  0
 10 11  1  0
 11 16  2  0
 11 12  1  0
 12 13  2  0
 13 14  1  0
 15 14  2  0
 16 15  1  0
 17 18  2  0
 17 19  1  0
 19 20  1  0
 20 24  1  0
 20 21  1  6
 22 21  1  0
 23 22  2  0
 24 27  2  0
 24 25  1  0
 26 22  1  0
M  END
$$$$
