VVK.pdb
     RDKit          3D

 24 23  0  0  1  0  0  0  0  0999 V2000
   26.3950  -27.3315  -22.4247 C   0  0  0  0  0  0  0  0  0  0  0  0
   26.8851  -25.9110  -22.5174 C   0  0  1  0  0  0  0  0  0  0  0  0
   26.4123  -25.1717  -23.7255 C   0  0  0  0  0  0  0  0  0  0  0  0
   26.7873  -25.1236  -21.2625 C   0  0  2  0  0  0  0  0  0  0  0  0
   27.5111  -23.8523  -21.3465 N   0  0  0  0  0  0  0  0  0  0  0  0
   27.1662  -25.7821  -20.0179 C   0  0  0  0  0  0  0  0  0  0  0  0
   28.4160  -25.9769  -19.7465 O   0  0  0  0  0  0  0  0  0  0  0  0
   27.2008  -24.8713  -16.5046 C   0  0  0  0  0  0  0  0  0  0  0  0
   26.4285  -26.1538  -16.5359 C   0  0  1  0  0  0  0  0  0  0  0  0
   24.9638  -25.9867  -16.3353 C   0  0  0  0  0  0  0  0  0  0  0  0
   26.7874  -26.9005  -17.7945 C   0  0  2  0  0  0  0  0  0  0  0  0
   26.3115  -26.2713  -18.9958 N   0  0  0  0  0  0  0  0  0  0  0  0
   26.4138  -28.3468  -17.6956 C   0  0  0  0  0  0  0  0  0  0  0  0
   25.5486  -28.7459  -18.5030 O   0  0  0  0  0  0  0  0  0  0  0  0
   26.9909  -29.1939  -16.7662 N   0  0  0  0  0  0  0  0  0  0  0  0
   26.6828  -30.5985  -16.6405 C   0  0  1  0  0  0  0  0  0  0  0  0
   27.6888  -31.3428  -15.8300 C   0  0  0  0  0  0  0  0  0  0  0  0
   27.3866  -32.8085  -15.6497 C   0  0  0  0  0  0  0  0  0  0  0  0
   28.6017  -33.6404  -15.8685 C   0  0  0  0  0  0  0  0  0  0  0  0
   28.3476  -35.1211  -15.6758 C   0  0  0  0  0  0  0  0  0  0  0  0
   29.5356  -35.9125  -15.8893 N   0  0  0  0  0  0  0  0  0  0  0  0
   25.3240  -30.7337  -16.0445 C   0  0  0  0  0  0  0  0  0  0  0  0
   24.4985  -31.8272  -16.2204 O   0  0  0  0  0  0  0  0  0  0  0  0
   24.8951  -29.7877  -15.3281 O   0  0  0  0  0  0  0  0  0  0  0  0
  2  1  1  1
  2  3  1  0
  4  6  1  0
  4  2  1  0
  4  5  1  6
  6  7  2  0
  9  8  1  6
  9 11  1  0
 10  9  1  0
 11 12  1  6
 12  6  1  0
 13 14  2  0
 13 11  1  0
 15 13  1  0
 16 15  1  0
 16 17  1  1
 17 18  1  0
 19 20  1  0
 19 18  1  0
 21 20  1  0
 22 16  1  0
 23 22  1  0
 24 22  2  0
M  END
$$$$
