VVK.pdb
     RDKit          3D

 24 23  0  0  1  0  0  0  0  0999 V2000
   16.1140  -28.6758   -3.8882 C   0  0  0  0  0  0  0  0  0  0  0  0
   15.8985  -27.5206   -4.8293 C   0  0  1  0  0  0  0  0  0  0  0  0
   14.5059  -26.9821   -4.8380 C   0  0  0  0  0  0  0  0  0  0  0  0
   16.9433  -26.4665   -4.7883 C   0  0  2  0  0  0  0  0  0  0  0  0
   17.0087  -25.7995   -3.4852 N   0  0  0  0  0  0  0  0  0  0  0  0
   16.9121  -25.4406   -5.8241 C   0  0  0  0  0  0  0  0  0  0  0  0
   16.5437  -24.2365   -5.5275 O   0  0  0  0  0  0  0  0  0  0  0  0
   19.6212  -24.0471   -8.2175 C   0  0  0  0  0  0  0  0  0  0  0  0
   18.4292  -24.4369   -9.0355 C   0  0  1  0  0  0  0  0  0  0  0  0
   18.6243  -25.6694   -9.8459 C   0  0  0  0  0  0  0  0  0  0  0  0
   17.2231  -24.4882   -8.1337 C   0  0  2  0  0  0  0  0  0  0  0  0
   17.2479  -25.5774   -7.1963 N   0  0  0  0  0  0  0  0  0  0  0  0
   15.9512  -24.4122   -8.9195 C   0  0  0  0  0  0  0  0  0  0  0  0
   15.2520  -25.4470   -8.9322 O   0  0  0  0  0  0  0  0  0  0  0  0
   15.5697  -23.2652   -9.5926 N   0  0  0  0  0  0  0  0  0  0  0  0
   14.3649  -23.1428  -10.3783 C   0  0  1  0  0  0  0  0  0  0  0  0
   13.4399  -22.0935   -9.8623 C   0  0  0  0  0  0  0  0  0  0  0  0
   12.1172  -22.0171  -10.5810 C   0  0  0  0  0  0  0  0  0  0  0  0
   11.2407  -20.9702   -9.9872 C   0  0  0  0  0  0  0  0  0  0  0  0
    9.9011  -20.8548  -10.6847 C   0  0  0  0  0  0  0  0  0  0  0  0
    9.1094  -19.7626  -10.1713 N   0  0  0  0  0  0  0  0  0  0  0  0
   14.7472  -22.8581  -11.7899 C   0  0  0  0  0  0  0  0  0  0  0  0
   13.9472  -23.1217  -12.8848 O   0  0  0  0  0  0  0  0  0  0  0  0
   15.8773  -22.3392  -12.0039 O   0  0  0  0  0  0  0  0  0  0  0  0
  2  1  1  1
  2  3  1  0
  4  6  1  0
  4  2  1  0
  4  5  1  1
  6  7  2  0
  9  8  1  1
  9 11  1  0
 10  9  1  0
 11 12  1  6
 12  6  1  0
 13 14  2  0
 13 11  1  0
 15 13  1  0
 16 15  1  0
 16 17  1  1
 17 18  1  0
 19 20  1  0
 19 18  1  0
 21 20  1  0
 22 16  1  0
 23 22  1  0
 24 22  2  0
M  END
$$$$
