VVK.pdb
     RDKit          3D

 24 23  0  0  1  0  0  0  0  0999 V2000
   19.6211  -23.9103   -8.4922 C   0  0  0  0  0  0  0  0  0  0  0  0
   20.1788  -22.8329   -9.3836 C   0  0  1  0  0  0  0  0  0  0  0  0
   19.1461  -21.9693  -10.0296 C   0  0  0  0  0  0  0  0  0  0  0  0
   21.3218  -22.0717   -8.8189 C   0  0  2  0  0  0  0  0  0  0  0  0
   20.9454  -21.3077   -7.6265 N   0  0  0  0  0  0  0  0  0  0  0  0
   22.0548  -21.1855   -9.7152 C   0  0  0  0  0  0  0  0  0  0  0  0
   21.7189  -19.9395   -9.8062 O   0  0  0  0  0  0  0  0  0  0  0  0
   25.7887  -20.2167  -10.2967 C   0  0  0  0  0  0  0  0  0  0  0  0
   25.2149  -20.6612  -11.6064 C   0  0  1  0  0  0  0  0  0  0  0  0
   25.7348  -21.9704  -12.0853 C   0  0  0  0  0  0  0  0  0  0  0  0
   23.7118  -20.6008  -11.5181 C   0  0  2  0  0  0  0  0  0  0  0  0
   23.1522  -21.5092  -10.5551 N   0  0  0  0  0  0  0  0  0  0  0  0
   23.0814  -20.7103  -12.8715 C   0  0  0  0  0  0  0  0  0  0  0  0
   22.6980  -21.8506  -13.2069 O   0  0  0  0  0  0  0  0  0  0  0  0
   22.9306  -19.6154  -13.7037 N   0  0  0  0  0  0  0  0  0  0  0  0
   22.1827  -19.6257  -14.9383 C   0  0  1  0  0  0  0  0  0  0  0  0
   21.1776  -18.5273  -15.0170 C   0  0  0  0  0  0  0  0  0  0  0  0
   20.4456  -18.4420  -16.3318 C   0  0  0  0  0  0  0  0  0  0  0  0
   19.2443  -19.3215  -16.3382 C   0  0  0  0  0  0  0  0  0  0  0  0
   18.5168  -19.3197  -17.6668 C   0  0  0  0  0  0  0  0  0  0  0  0
   17.2944  -20.0860  -17.6221 N   0  0  0  0  0  0  0  0  0  0  0  0
   23.1431  -19.5414  -16.0743 C   0  0  0  0  0  0  0  0  0  0  0  0
   22.8857  -20.0009  -17.3513 O   0  0  0  0  0  0  0  0  0  0  0  0
   24.2688  -19.0132  -15.8597 O   0  0  0  0  0  0  0  0  0  0  0  0
  2  1  1  1
  2  3  1  0
  4  6  1  0
  4  2  1  0
  4  5  1  1
  6  7  2  0
  9  8  1  1
  9 11  1  0
 10  9  1  0
 11 12  1  1
 12  6  1  0
 13 14  2  0
 13 11  1  0
 15 13  1  0
 16 15  1  0
 16 17  1  1
 17 18  1  0
 19 20  1  0
 19 18  1  0
 21 20  1  0
 22 16  1  0
 23 22  1  0
 24 22  2  0
M  END
$$$$
