VVK.pdb
     RDKit          3D

 24 23  0  0  1  0  0  0  0  0999 V2000
   19.0805  -24.2631  -10.1359 C   0  0  0  0  0  0  0  0  0  0  0  0
   19.7930  -23.0643  -10.7031 C   0  0  1  0  0  0  0  0  0  0  0  0
   18.8927  -22.0438  -11.3177 C   0  0  0  0  0  0  0  0  0  0  0  0
   20.8449  -22.4815   -9.8322 C   0  0  2  0  0  0  0  0  0  0  0  0
   20.2980  -21.9473   -8.5821 N   0  0  0  0  0  0  0  0  0  0  0  0
   21.7236  -21.4731  -10.4127 C   0  0  0  0  0  0  0  0  0  0  0  0
   21.4341  -20.2183  -10.2896 O   0  0  0  0  0  0  0  0  0  0  0  0
   25.1929  -20.3209   -9.8299 C   0  0  0  0  0  0  0  0  0  0  0  0
   25.1346  -20.5952  -11.3008 C   0  0  1  0  0  0  0  0  0  0  0  0
   25.9021  -21.7968  -11.7262 C   0  0  0  0  0  0  0  0  0  0  0  0
   23.6902  -20.6147  -11.7294 C   0  0  2  0  0  0  0  0  0  0  0  0
   22.9259  -21.6788  -11.1385 N   0  0  0  0  0  0  0  0  0  0  0  0
   23.5628  -20.5511  -13.2197 C   0  0  0  0  0  0  0  0  0  0  0  0
   23.4383  -21.6465  -13.8064 O   0  0  0  0  0  0  0  0  0  0  0  0
   23.5814  -19.3517  -13.9092 N   0  0  0  0  0  0  0  0  0  0  0  0
   23.3666  -19.2245  -15.3309 C   0  0  1  0  0  0  0  0  0  0  0  0
   22.7098  -17.9396  -15.7058 C   0  0  0  0  0  0  0  0  0  0  0  0
   21.3527  -18.0934  -16.3434 C   0  0  0  0  0  0  0  0  0  0  0  0
   20.7522  -16.7681  -16.6594 C   0  0  0  0  0  0  0  0  0  0  0  0
   19.3518  -16.8734  -17.2269 C   0  0  0  0  0  0  0  0  0  0  0  0
   18.7053  -15.5870  -17.3301 N   0  0  0  0  0  0  0  0  0  0  0  0
   24.6789  -19.3650  -16.0224 C   0  0  0  0  0  0  0  0  0  0  0  0
   24.8350  -19.8144  -17.3192 O   0  0  0  0  0  0  0  0  0  0  0  0
   25.7210  -19.0514  -15.3837 O   0  0  0  0  0  0  0  0  0  0  0  0
  2  1  1  1
  2  3  1  0
  4  6  1  0
  4  2  1  0
  4  5  1  1
  6  7  2  0
  9  8  1  1
  9 11  1  0
 10  9  1  0
 11 12  1  6
 12  6  1  0
 13 14  2  0
 13 11  1  0
 15 13  1  0
 16 15  1  0
 16 17  1  1
 17 18  1  0
 19 20  1  0
 19 18  1  0
 21 20  1  0
 22 16  1  0
 23 22  1  0
 24 22  2  0
M  END
$$$$
