VVK.pdb
     RDKit          3D

 24 23  0  0  1  0  0  0  0  0999 V2000
   27.4566  -14.0845  -17.4552 C   0  0  0  0  0  0  0  0  0  0  0  0
   26.5618  -13.0856  -18.1395 C   0  0  1  0  0  0  0  0  0  0  0  0
   25.6874  -13.6653  -19.2019 C   0  0  0  0  0  0  0  0  0  0  0  0
   25.8541  -12.1446  -17.2349 C   0  0  2  0  0  0  0  0  0  0  0  0
   25.0527  -12.8415  -16.2253 N   0  0  0  0  0  0  0  0  0  0  0  0
   25.0224  -11.1141  -17.8450 C   0  0  0  0  0  0  0  0  0  0  0  0
   25.5503  -10.2580  -18.6587 O   0  0  0  0  0  0  0  0  0  0  0  0
   20.9384   -9.0706  -19.4829 C   0  0  0  0  0  0  0  0  0  0  0  0
   21.8731  -10.2182  -19.2559 C   0  0  1  0  0  0  0  0  0  0  0  0
   22.4421  -10.7951  -20.5037 C   0  0  0  0  0  0  0  0  0  0  0  0
   22.9149   -9.7983  -18.2514 C   0  0  2  0  0  0  0  0  0  0  0  0
   23.6309  -10.8988  -17.6666 N   0  0  0  0  0  0  0  0  0  0  0  0
   22.3455   -8.8563  -17.2368 C   0  0  0  0  0  0  0  0  0  0  0  0
   21.7491   -9.3827  -16.2740 O   0  0  0  0  0  0  0  0  0  0  0  0
   22.4708   -7.4835  -17.3554 N   0  0  0  0  0  0  0  0  0  0  0  0
   21.9084   -6.5298  -16.4293 C   0  0  1  0  0  0  0  0  0  0  0  0
   22.3735   -5.1354  -16.6786 C   0  0  0  0  0  0  0  0  0  0  0  0
   21.8511   -4.1167  -15.6981 C   0  0  0  0  0  0  0  0  0  0  0  0
   22.4640   -2.7801  -15.9312 C   0  0  0  0  0  0  0  0  0  0  0  0
   21.9467   -1.7185  -14.9827 C   0  0  0  0  0  0  0  0  0  0  0  0
   22.6648   -0.4730  -15.1115 N   0  0  0  0  0  0  0  0  0  0  0  0
   20.4229   -6.6105  -16.5103 C   0  0  0  0  0  0  0  0  0  0  0  0
   19.5746   -6.5195  -15.4239 O   0  0  0  0  0  0  0  0  0  0  0  0
   19.9000   -6.7713  -17.6474 O   0  0  0  0  0  0  0  0  0  0  0  0
  2  1  1  1
  2  3  1  0
  4  6  1  0
  4  2  1  0
  4  5  1  1
  6  7  2  0
  9  8  1  6
  9 11  1  0
 10  9  1  0
 11 12  1  1
 12  6  1  0
 13 14  2  0
 13 11  1  0
 15 13  1  0
 16 15  1  0
 16 17  1  6
 17 18  1  0
 19 20  1  0
 19 18  1  0
 21 20  1  0
 22 16  1  0
 23 22  1  0
 24 22  2  0
M  END
$$$$
