VVK.pdb
     RDKit          3D

 24 23  0  0  1  0  0  0  0  0999 V2000
   28.4563  -19.2610  -17.0956 C   0  0  0  0  0  0  0  0  0  0  0  0
   27.2472  -19.6713  -16.2979 C   0  0  1  0  0  0  0  0  0  0  0  0
   26.0170  -19.8987  -17.1131 C   0  0  0  0  0  0  0  0  0  0  0  0
   27.4878  -20.7238  -15.2785 C   0  0  2  0  0  0  0  0  0  0  0  0
   27.9611  -21.9761  -15.8742 N   0  0  0  0  0  0  0  0  0  0  0  0
   26.4003  -21.0387  -14.3598 C   0  0  0  0  0  0  0  0  0  0  0  0
   25.5779  -21.9974  -14.6393 O   0  0  0  0  0  0  0  0  0  0  0  0
   23.9608  -20.8489  -10.0791 C   0  0  0  0  0  0  0  0  0  0  0  0
   25.2343  -20.5849  -10.8211 C   0  0  1  0  0  0  0  0  0  0  0  0
   26.4080  -21.3379  -10.3020 C   0  0  0  0  0  0  0  0  0  0  0  0
   24.9846  -20.7899  -12.2929 C   0  0  2  0  0  0  0  0  0  0  0  0
   26.0920  -20.4086  -13.1259 N   0  0  0  0  0  0  0  0  0  0  0  0
   23.6864  -20.1761  -12.7162 C   0  0  0  0  0  0  0  0  0  0  0  0
   23.6737  -18.9308  -12.8102 O   0  0  0  0  0  0  0  0  0  0  0  0
   22.5655  -20.9401  -12.9882 N   0  0  0  0  0  0  0  0  0  0  0  0
   21.2904  -20.4012  -13.3974 C   0  0  1  0  0  0  0  0  0  0  0  0
   20.7889  -20.9988  -14.6680 C   0  0  0  0  0  0  0  0  0  0  0  0
   19.4118  -20.5401  -15.0744 C   0  0  0  0  0  0  0  0  0  0  0  0
   18.9129  -21.3067  -16.2491 C   0  0  0  0  0  0  0  0  0  0  0  0
   17.5272  -20.8812  -16.6882 C   0  0  0  0  0  0  0  0  0  0  0  0
   17.1612  -21.4442  -17.9659 N   0  0  0  0  0  0  0  0  0  0  0  0
   20.3111  -20.6130  -12.2948 C   0  0  0  0  0  0  0  0  0  0  0  0
   19.2430  -19.7790  -12.0270 O   0  0  0  0  0  0  0  0  0  0  0  0
   20.4632  -21.6230  -11.5539 O   0  0  0  0  0  0  0  0  0  0  0  0
  2  1  1  6
  2  3  1  0
  4  6  1  0
  4  2  1  0
  4  5  1  6
  6  7  2  0
  9  8  1  1
  9 11  1  0
 10  9  1  0
 11 12  1  6
 12  6  1  0
 13 14  2  0
 13 11  1  0
 15 13  1  0
 16 15  1  0
 16 17  1  6
 17 18  1  0
 19 20  1  0
 19 18  1  0
 21 20  1  0
 22 16  1  0
 23 22  1  0
 24 22  2  0
M  END
$$$$
