VVK.pdb
     RDKit          3D

 24 23  0  0  1  0  0  0  0  0999 V2000
   19.9179  -32.2696  -14.8520 C   0  0  0  0  0  0  0  0  0  0  0  0
   20.1957  -31.1793  -15.8523 C   0  0  1  0  0  0  0  0  0  0  0  0
   19.3341  -31.2245  -17.0710 C   0  0  0  0  0  0  0  0  0  0  0  0
   20.3454  -29.8174  -15.2802 C   0  0  2  0  0  0  0  0  0  0  0  0
   20.9073  -28.8683  -16.2449 N   0  0  0  0  0  0  0  0  0  0  0  0
   21.0822  -29.6851  -14.0290 C   0  0  0  0  0  0  0  0  0  0  0  0
   22.3758  -29.7054  -14.0377 O   0  0  0  0  0  0  0  0  0  0  0  0
   20.8061  -26.9339  -11.3155 C   0  0  0  0  0  0  0  0  0  0  0  0
   20.8052  -28.2600  -10.6201 C   0  0  1  0  0  0  0  0  0  0  0  0
   19.4919  -28.6371  -10.0314 C   0  0  0  0  0  0  0  0  0  0  0  0
   21.3694  -29.2953  -11.5584 C   0  0  2  0  0  0  0  0  0  0  0  0
   20.5559  -29.5271  -12.7204 N   0  0  0  0  0  0  0  0  0  0  0  0
   21.7325  -30.5515  -10.8296 C   0  0  0  0  0  0  0  0  0  0  0  0
   20.9236  -31.4976  -10.9314 O   0  0  0  0  0  0  0  0  0  0  0  0
   22.8944  -30.6614  -10.0866 N   0  0  0  0  0  0  0  0  0  0  0  0
   23.2576  -31.8204   -9.3066 C   0  0  1  0  0  0  0  0  0  0  0  0
   24.6818  -31.8002   -8.8662 C   0  0  0  0  0  0  0  0  0  0  0  0
   25.1195  -33.0266   -8.1069 C   0  0  0  0  0  0  0  0  0  0  0  0
   26.5716  -32.9708   -7.7833 C   0  0  0  0  0  0  0  0  0  0  0  0
   27.0215  -34.1040   -6.8846 C   0  0  0  0  0  0  0  0  0  0  0  0
   28.4317  -34.0371   -6.5842 N   0  0  0  0  0  0  0  0  0  0  0  0
   22.3455  -31.9051   -8.1315 C   0  0  0  0  0  0  0  0  0  0  0  0
   21.9825  -33.0825   -7.5070 O   0  0  0  0  0  0  0  0  0  0  0  0
   21.8718  -30.8299   -7.6714 O   0  0  0  0  0  0  0  0  0  0  0  0
  2  1  1  1
  2  3  1  0
  4  6  1  0
  4  2  1  0
  4  5  1  6
  6  7  2  0
  9  8  1  6
  9 11  1  0
 10  9  1  0
 11 12  1  6
 12  6  1  0
 13 14  2  0
 13 11  1  0
 15 13  1  0
 16 15  1  0
 16 17  1  1
 17 18  1  0
 19 20  1  0
 19 18  1  0
 21 20  1  0
 22 16  1  0
 23 22  1  0
 24 22  2  0
M  END
$$$$
