VVK.pdb
     RDKit          3D

 24 23  0  0  1  0  0  0  0  0999 V2000
   17.9956  -10.0370  -17.8794 C   0  0  0  0  0  0  0  0  0  0  0  0
   18.0077  -11.4912  -17.4898 C   0  0  1  0  0  0  0  0  0  0  0  0
   17.2707  -12.3886  -18.4284 C   0  0  0  0  0  0  0  0  0  0  0  0
   19.3288  -12.0244  -17.0716 C   0  0  2  0  0  0  0  0  0  0  0  0
   19.2363  -13.3897  -16.5477 N   0  0  0  0  0  0  0  0  0  0  0  0
   20.1150  -11.2295  -16.1356 C   0  0  0  0  0  0  0  0  0  0  0  0
   19.7962  -11.2085  -14.8819 O   0  0  0  0  0  0  0  0  0  0  0  0
   23.3245  -11.3417  -14.5400 C   0  0  0  0  0  0  0  0  0  0  0  0
   23.3163   -9.9731  -15.1475 C   0  0  1  0  0  0  0  0  0  0  0  0
   24.2296   -9.8191  -16.3119 C   0  0  0  0  0  0  0  0  0  0  0  0
   21.8899   -9.5853  -15.4396 C   0  0  2  0  0  0  0  0  0  0  0  0
   21.2504  -10.4251  -16.4151 N   0  0  0  0  0  0  0  0  0  0  0  0
   21.7743   -8.1250  -15.7487 C   0  0  0  0  0  0  0  0  0  0  0  0
   21.8559   -7.8119  -16.9549 O   0  0  0  0  0  0  0  0  0  0  0  0
   21.5880   -7.1761  -14.7592 N   0  0  0  0  0  0  0  0  0  0  0  0
   21.4305   -5.7622  -15.0039 C   0  0  1  0  0  0  0  0  0  0  0  0
   20.0098   -5.3157  -14.9318 C   0  0  0  0  0  0  0  0  0  0  0  0
   19.8055   -3.8397  -15.1591 C   0  0  0  0  0  0  0  0  0  0  0  0
   18.3651   -3.4743  -15.0672 C   0  0  0  0  0  0  0  0  0  0  0  0
   18.1148   -1.9962  -15.2831 C   0  0  0  0  0  0  0  0  0  0  0  0
   16.7074   -1.6767  -15.3022 N   0  0  0  0  0  0  0  0  0  0  0  0
   22.2662   -5.0158  -14.0220 C   0  0  0  0  0  0  0  0  0  0  0  0
   22.7987   -3.7606  -14.2432 O   0  0  0  0  0  0  0  0  0  0  0  0
   22.5047   -5.5636  -12.9105 O   0  0  0  0  0  0  0  0  0  0  0  0
  2  1  1  6
  2  3  1  0
  4  6  1  0
  4  2  1  0
  4  5  1  1
  6  7  2  0
  9  8  1  6
  9 11  1  0
 10  9  1  0
 11 12  1  6
 12  6  1  0
 13 14  2  0
 13 11  1  0
 15 13  1  0
 16 15  1  0
 16 17  1  1
 17 18  1  0
 19 20  1  0
 19 18  1  0
 21 20  1  0
 22 16  1  0
 23 22  1  0
 24 22  2  0
M  END
$$$$
