VVK.pdb
     RDKit          3D

 24 23  0  0  1  0  0  0  0  0999 V2000
   27.7825  -12.6602  -14.8641 C   0  0  0  0  0  0  0  0  0  0  0  0
   26.5798  -11.9455  -15.4204 C   0  0  1  0  0  0  0  0  0  0  0  0
   26.9007  -10.8717  -16.4070 C   0  0  0  0  0  0  0  0  0  0  0  0
   25.4591  -12.8238  -15.8411 C   0  0  2  0  0  0  0  0  0  0  0  0
   25.8595  -13.7758  -16.8805 N   0  0  0  0  0  0  0  0  0  0  0  0
   24.2183  -12.1844  -16.2625 C   0  0  0  0  0  0  0  0  0  0  0  0
   23.9629  -12.0412  -17.5226 O   0  0  0  0  0  0  0  0  0  0  0  0
   20.8574  -13.0710  -16.5729 C   0  0  0  0  0  0  0  0  0  0  0  0
   20.7456  -11.8083  -15.7760 C   0  0  1  0  0  0  0  0  0  0  0  0
   20.3692  -12.0191  -14.3520 C   0  0  0  0  0  0  0  0  0  0  0  0
   22.0116  -11.0115  -15.9574 C   0  0  2  0  0  0  0  0  0  0  0  0
   23.1841  -11.6635  -15.4417 N   0  0  0  0  0  0  0  0  0  0  0  0
   21.8483   -9.6083  -15.4621 C   0  0  0  0  0  0  0  0  0  0  0  0
   22.3156   -9.3691  -14.3288 O   0  0  0  0  0  0  0  0  0  0  0  0
   21.2180   -8.6318  -16.2127 N   0  0  0  0  0  0  0  0  0  0  0  0
   20.9746   -7.2835  -15.7583 C   0  0  1  0  0  0  0  0  0  0  0  0
   20.5536   -6.3681  -16.8571 C   0  0  0  0  0  0  0  0  0  0  0  0
   20.2894   -4.9491  -16.4228 C   0  0  0  0  0  0  0  0  0  0  0  0
   19.8154   -4.1158  -17.5620 C   0  0  0  0  0  0  0  0  0  0  0  0
   19.5381   -2.6795  -17.1693 C   0  0  0  0  0  0  0  0  0  0  0  0
   19.1470   -1.8695  -18.2981 N   0  0  0  0  0  0  0  0  0  0  0  0
   19.9427   -7.3248  -14.6844 C   0  0  0  0  0  0  0  0  0  0  0  0
   19.9973   -6.5853  -13.5189 O   0  0  0  0  0  0  0  0  0  0  0  0
   18.9485   -8.0845  -14.8478 O   0  0  0  0  0  0  0  0  0  0  0  0
  2  1  1  6
  2  3  1  0
  4  6  1  0
  4  2  1  0
  4  5  1  6
  6  7  2  0
  9  8  1  1
  9 11  1  0
 10  9  1  0
 11 12  1  1
 12  6  1  0
 13 14  2  0
 13 11  1  0
 15 13  1  0
 16 15  1  0
 16 17  1  6
 17 18  1  0
 19 20  1  0
 19 18  1  0
 21 20  1  0
 22 16  1  0
 23 22  1  0
 24 22  2  0
M  END
$$$$
