VVK.pdb
     RDKit          3D

 24 23  0  0  1  0  0  0  0  0999 V2000
   19.6850  -11.5896  -19.7684 C   0  0  0  0  0  0  0  0  0  0  0  0
   19.7194  -13.0249  -19.3153 C   0  0  1  0  0  0  0  0  0  0  0  0
   19.8002  -14.0213  -20.4244 C   0  0  0  0  0  0  0  0  0  0  0  0
   20.6440  -13.3121  -18.1895 C   0  0  2  0  0  0  0  0  0  0  0  0
   20.4912  -14.6774  -17.6798 N   0  0  0  0  0  0  0  0  0  0  0  0
   20.6335  -12.3979  -17.0537 C   0  0  0  0  0  0  0  0  0  0  0  0
   19.7051  -12.4939  -16.1579 O   0  0  0  0  0  0  0  0  0  0  0  0
   23.8106  -10.1502  -15.5659 C   0  0  0  0  0  0  0  0  0  0  0  0
   22.5754  -10.3752  -14.7501 C   0  0  1  0  0  0  0  0  0  0  0  0
   22.4096   -9.4200  -13.6214 C   0  0  0  0  0  0  0  0  0  0  0  0
   21.3895  -10.4296  -15.6782 C   0  0  2  0  0  0  0  0  0  0  0  0
   21.5501  -11.3525  -16.7681 N   0  0  0  0  0  0  0  0  0  0  0  0
   20.9785   -9.0590  -16.1185 C   0  0  0  0  0  0  0  0  0  0  0  0
   21.6051   -8.5842  -17.0889 O   0  0  0  0  0  0  0  0  0  0  0  0
   19.9650   -8.3575  -15.4902 N   0  0  0  0  0  0  0  0  0  0  0  0
   19.5514   -7.0225  -15.8514 C   0  0  1  0  0  0  0  0  0  0  0  0
   18.0961   -6.9301  -16.1619 C   0  0  0  0  0  0  0  0  0  0  0  0
   17.6323   -5.5596  -16.5847 C   0  0  0  0  0  0  0  0  0  0  0  0
   16.1781   -5.5572  -16.9040 C   0  0  0  0  0  0  0  0  0  0  0  0
   15.6694   -4.1975  -17.3359 C   0  0  0  0  0  0  0  0  0  0  0  0
   14.2468   -4.1978  -17.5799 N   0  0  0  0  0  0  0  0  0  0  0  0
   19.9110   -6.0983  -14.7394 C   0  0  0  0  0  0  0  0  0  0  0  0
   20.2524   -4.7703  -14.9061 O   0  0  0  0  0  0  0  0  0  0  0  0
   19.9026   -6.5558  -13.5635 O   0  0  0  0  0  0  0  0  0  0  0  0
  2  1  1  6
  2  3  1  0
  4  6  1  0
  4  2  1  0
  4  5  1  1
  6  7  2  0
  9  8  1  6
  9 11  1  0
 10  9  1  0
 11 12  1  6
 12  6  1  0
 13 14  2  0
 13 11  1  0
 15 13  1  0
 16 15  1  0
 16 17  1  1
 17 18  1  0
 19 20  1  0
 19 18  1  0
 21 20  1  0
 22 16  1  0
 23 22  1  0
 24 22  2  0
M  END
$$$$
