VVK.pdb
     RDKit          3D

 24 23  0  0  1  0  0  0  0  0999 V2000
   13.2109  -14.8306  -15.1693 C   0  0  0  0  0  0  0  0  0  0  0  0
   13.7744  -13.5455  -15.7148 C   0  0  1  0  0  0  0  0  0  0  0  0
   12.8109  -12.4049  -15.7285 C   0  0  0  0  0  0  0  0  0  0  0  0
   15.1218  -13.1795  -15.2099 C   0  0  2  0  0  0  0  0  0  0  0  0
   15.1657  -13.1060  -13.7470 N   0  0  0  0  0  0  0  0  0  0  0  0
   15.7417  -11.9732  -15.7454 C   0  0  0  0  0  0  0  0  0  0  0  0
   16.0934  -11.9274  -16.9895 O   0  0  0  0  0  0  0  0  0  0  0  0
   14.5003   -8.7030  -16.5880 C   0  0  0  0  0  0  0  0  0  0  0  0
   15.6627   -8.4113  -15.6903 C   0  0  1  0  0  0  0  0  0  0  0  0
   15.2788   -7.9584  -14.3260 C   0  0  0  0  0  0  0  0  0  0  0  0
   16.5861   -9.6020  -15.6970 C   0  0  2  0  0  0  0  0  0  0  0  0
   16.0339  -10.7656  -15.0592 N   0  0  0  0  0  0  0  0  0  0  0  0
   17.9473   -9.2391  -15.1906 C   0  0  0  0  0  0  0  0  0  0  0  0
   18.1535   -9.4455  -13.9763 O   0  0  0  0  0  0  0  0  0  0  0  0
   18.9216   -8.7066  -16.0162 N   0  0  0  0  0  0  0  0  0  0  0  0
   20.2922   -8.4835  -15.6222 C   0  0  1  0  0  0  0  0  0  0  0  0
   21.2620   -8.7389  -16.7254 C   0  0  0  0  0  0  0  0  0  0  0  0
   22.7105   -8.6265  -16.3239 C   0  0  0  0  0  0  0  0  0  0  0  0
   23.6100   -8.7896  -17.4990 C   0  0  0  0  0  0  0  0  0  0  0  0
   25.0727   -8.8805  -17.1164 C   0  0  0  0  0  0  0  0  0  0  0  0
   25.9176   -9.1720  -18.2497 N   0  0  0  0  0  0  0  0  0  0  0  0
   20.4199   -7.0852  -15.1238 C   0  0  0  0  0  0  0  0  0  0  0  0
   19.4865   -6.0901  -15.3398 O   0  0  0  0  0  0  0  0  0  0  0  0
   21.4486   -6.7861  -14.4571 O   0  0  0  0  0  0  0  0  0  0  0  0
  2  1  1  1
  2  3  1  0
  4  6  1  0
  4  2  1  0
  4  5  1  1
  6  7  2  0
  9  8  1  6
  9 11  1  0
 10  9  1  0
 11 12  1  1
 12  6  1  0
 13 14  2  0
 13 11  1  0
 15 13  1  0
 16 15  1  0
 16 17  1  6
 17 18  1  0
 19 20  1  0
 19 18  1  0
 21 20  1  0
 22 16  1  0
 23 22  1  0
 24 22  2  0
M  END
$$$$
