KMM.pdb
     RDKit          3D

 26 25  0  0  1  0  0  0  0  0999 V2000
   27.9290  -22.3473  -16.6276 N   0  0  0  0  0  0  0  0  0  0  0  0
   27.6340  -21.2277  -15.8280 C   0  0  1  0  0  0  0  0  0  0  0  0
   27.2460  -19.9589  -16.5340 C   0  0  0  0  0  0  0  0  0  0  0  0
   26.7588  -20.0881  -17.9173 C   0  0  0  0  0  0  0  0  0  0  0  0
   25.3617  -19.7456  -18.2272 C   0  0  0  0  0  0  0  0  0  0  0  0
   24.9085  -19.9417  -19.6291 C   0  0  0  0  0  0  0  0  0  0  0  0
   23.5530  -19.5022  -19.7838 N   0  0  0  0  0  0  0  0  0  0  0  0
   26.7082  -21.4791  -14.6822 C   0  0  0  0  0  0  0  0  0  0  0  0
   25.9271  -22.4821  -14.8145 O   0  0  0  0  0  0  0  0  0  0  0  0
   25.0703  -20.5301   -7.0038 C   0  0  0  0  0  0  0  0  0  0  0  0
   26.0522  -20.1104   -8.4494 S   0  0  0  0  0  0  0  0  0  0  0  0
   25.3850  -20.8869   -9.9683 C   0  0  0  0  0  0  0  0  0  0  0  0
   26.2666  -20.5801  -11.1375 C   0  0  0  0  0  0  0  0  0  0  0  0
   25.7471  -21.1679  -12.4233 C   0  0  2  0  0  0  0  0  0  0  0  0
   26.6431  -20.7190  -13.5223 N   0  0  0  0  0  0  0  0  0  0  0  0
   24.3823  -20.6889  -12.6843 C   0  0  0  0  0  0  0  0  0  0  0  0
   24.2275  -19.4673  -13.0460 O   0  0  0  0  0  0  0  0  0  0  0  0
   19.0174  -24.2730  -12.3996 C   0  0  0  0  0  0  0  0  0  0  0  0
   18.6358  -23.1928  -13.8201 S   0  0  0  0  0  0  0  0  0  0  0  0
   19.5778  -21.6453  -13.5762 C   0  0  0  0  0  0  0  0  0  0  0  0
   20.9916  -22.0196  -13.2575 C   0  0  0  0  0  0  0  0  0  0  0  0
   21.8860  -20.8555  -12.9254 C   0  0  2  0  0  0  0  0  0  0  0  0
   23.1905  -21.4477  -12.5843 N   0  0  0  0  0  0  0  0  0  0  0  0
   21.3411  -20.1376  -11.7654 C   0  0  0  0  0  0  0  0  0  0  0  0
   21.6025  -20.5471  -10.6101 O   0  0  0  0  0  0  0  0  0  0  0  0
   20.5530  -19.0265  -11.9126 O   0  0  0  0  0  0  0  0  0  0  0  0
  2  1  1  6
  3  2  1  0
  4  3  1  0
  5  4  1  0
  5  6  1  0
  7  6  1  0
  8  9  2  0
  8  2  1  0
 10 11  1  0
 11 12  1  0
 12 13  1  0
 14 13  1  1
 14 15  1  0
 15  8  1  0
 16 14  1  0
 17 16  2  0
 18 19  1  0
 20 19  1  0
 22 21  1  1
 21 20  1  0
 22 23  1  0
 23 16  1  0
 24 26  1  0
 24 22  1  0
 25 24  2  0
M  END
$$$$
