KMM.pdb
     RDKit          3D

 26 25  0  0  1  0  0  0  0  0999 V2000
   16.7094  -11.6612  -14.1838 N   0  0  0  0  0  0  0  0  0  0  0  0
   16.2496  -10.3320  -14.1424 C   0  0  1  0  0  0  0  0  0  0  0  0
   14.7623  -10.1170  -14.1226 C   0  0  0  0  0  0  0  0  0  0  0  0
   14.0243  -10.4502  -15.3521 C   0  0  0  0  0  0  0  0  0  0  0  0
   12.5662  -10.2566  -15.3958 C   0  0  0  0  0  0  0  0  0  0  0  0
   11.8617  -10.6742  -16.6360 C   0  0  0  0  0  0  0  0  0  0  0  0
   10.4814  -10.2917  -16.5814 N   0  0  0  0  0  0  0  0  0  0  0  0
   16.9071   -9.4533  -13.1279 C   0  0  0  0  0  0  0  0  0  0  0  0
   16.7512   -9.8060  -11.9094 O   0  0  0  0  0  0  0  0  0  0  0  0
   22.6063   -6.1195  -13.5338 C   0  0  0  0  0  0  0  0  0  0  0  0
   21.5271   -5.0462  -12.5780 S   0  0  0  0  0  0  0  0  0  0  0  0
   20.1467   -5.9796  -11.8176 C   0  0  0  0  0  0  0  0  0  0  0  0
   19.4904   -6.8565  -12.8370 C   0  0  0  0  0  0  0  0  0  0  0  0
   18.2862   -7.5774  -12.2902 C   0  0  2  0  0  0  0  0  0  0  0  0
   17.6508   -8.3163  -13.4137 N   0  0  0  0  0  0  0  0  0  0  0  0
   17.3246   -6.6118  -11.7395 C   0  0  0  0  0  0  0  0  0  0  0  0
   16.6615   -5.8814  -12.5605 O   0  0  0  0  0  0  0  0  0  0  0  0
   15.4007   -5.4733   -5.1958 C   0  0  0  0  0  0  0  0  0  0  0  0
   14.0483   -5.8471   -6.3627 S   0  0  0  0  0  0  0  0  0  0  0  0
   14.4948   -5.0706   -7.9563 C   0  0  0  0  0  0  0  0  0  0  0  0
   15.4638   -5.9777   -8.6480 C   0  0  0  0  0  0  0  0  0  0  0  0
   15.9909   -5.4486   -9.9547 C   0  0  2  0  0  0  0  0  0  0  0  0
   17.0374   -6.3983  -10.3691 N   0  0  0  0  0  0  0  0  0  0  0  0
   16.5754   -4.1179   -9.7415 C   0  0  0  0  0  0  0  0  0  0  0  0
   15.8186   -3.1283   -9.6052 O   0  0  0  0  0  0  0  0  0  0  0  0
   17.9312   -3.9286   -9.6856 O   0  0  0  0  0  0  0  0  0  0  0  0
  2  1  1  1
  3  2  1  0
  4  3  1  0
  5  4  1  0
  5  6  1  0
  7  6  1  0
  8  9  2  0
  8  2  1  0
 10 11  1  0
 11 12  1  0
 12 13  1  0
 14 13  1  6
 14 15  1  0
 15  8  1  0
 16 14  1  0
 17 16  2  0
 18 19  1  0
 20 19  1  0
 22 21  1  1
 21 20  1  0
 22 23  1  0
 23 16  1  0
 24 26  1  0
 24 22  1  0
 25 24  2  0
M  END
$$$$
