KMM.pdb
     RDKit          3D

 26 25  0  0  1  0  0  0  0  0999 V2000
   26.2202  -25.9375  -15.7604 N   0  0  0  0  0  0  0  0  0  0  0  0
   26.7666  -24.7336  -16.2421 C   0  0  1  0  0  0  0  0  0  0  0  0
   26.6716  -24.4756  -17.7196 C   0  0  0  0  0  0  0  0  0  0  0  0
   27.6438  -25.1687  -18.5811 C   0  0  0  0  0  0  0  0  0  0  0  0
   29.0568  -24.7589  -18.5528 C   0  0  0  0  0  0  0  0  0  0  0  0
   29.9848  -25.4532  -19.4831 C   0  0  0  0  0  0  0  0  0  0  0  0
   31.3151  -24.9387  -19.3408 N   0  0  0  0  0  0  0  0  0  0  0  0
   26.3874  -23.5036  -15.4826 C   0  0  0  0  0  0  0  0  0  0  0  0
   25.7209  -23.7015  -14.4102 O   0  0  0  0  0  0  0  0  0  0  0  0
   28.6838  -17.4858  -16.4845 C   0  0  0  0  0  0  0  0  0  0  0  0
   27.3189  -17.1179  -15.3746 S   0  0  0  0  0  0  0  0  0  0  0  0
   26.6361  -18.6386  -14.6157 C   0  0  0  0  0  0  0  0  0  0  0  0
   26.9247  -19.8244  -15.4812 C   0  0  0  0  0  0  0  0  0  0  0  0
   26.2820  -21.0858  -14.9669 C   0  0  2  0  0  0  0  0  0  0  0  0
   26.7012  -22.2033  -15.8542 N   0  0  0  0  0  0  0  0  0  0  0  0
   24.8180  -20.9600  -15.0044 C   0  0  0  0  0  0  0  0  0  0  0  0
   24.2279  -21.0835  -16.1374 O   0  0  0  0  0  0  0  0  0  0  0  0
   21.0226  -19.5037   -9.9337 C   0  0  0  0  0  0  0  0  0  0  0  0
   19.9589  -20.6684  -10.8515 S   0  0  0  0  0  0  0  0  0  0  0  0
   20.4458  -20.5564  -12.6099 C   0  0  0  0  0  0  0  0  0  0  0  0
   21.9390  -20.6367  -12.6739 C   0  0  0  0  0  0  0  0  0  0  0  0
   22.5034  -20.6691  -14.0687 C   0  0  2  0  0  0  0  0  0  0  0  0
   23.9655  -20.7181  -13.8995 N   0  0  0  0  0  0  0  0  0  0  0  0
   22.1203  -19.4411  -14.7782 C   0  0  0  0  0  0  0  0  0  0  0  0
   22.7397  -18.3770  -14.5446 O   0  0  0  0  0  0  0  0  0  0  0  0
   21.1012  -19.4279  -15.6938 O   0  0  0  0  0  0  0  0  0  0  0  0
  2  1  1  1
  3  2  1  0
  4  3  1  0
  5  4  1  0
  5  6  1  0
  7  6  1  0
  8  9  2  0
  8  2  1  0
 10 11  1  0
 11 12  1  0
 12 13  1  0
 14 13  1  6
 14 15  1  0
 15  8  1  0
 16 14  1  0
 17 16  2  0
 18 19  1  0
 20 19  1  0
 22 21  1  1
 21 20  1  0
 22 23  1  0
 23 16  1  0
 24 26  1  0
 24 22  1  0
 25 24  2  0
M  END
$$$$
