KMM.pdb
     RDKit          3D

 26 25  0  0  1  0  0  0  0  0999 V2000
   18.4374  -12.7159  -16.3144 N   0  0  0  0  0  0  0  0  0  0  0  0
   18.9927  -11.5981  -16.9641 C   0  0  1  0  0  0  0  0  0  0  0  0
   18.0401  -10.5559  -17.4789 C   0  0  0  0  0  0  0  0  0  0  0  0
   16.7944  -11.0388  -18.0972 C   0  0  0  0  0  0  0  0  0  0  0  0
   15.5013  -10.6878  -17.4889 C   0  0  0  0  0  0  0  0  0  0  0  0
   14.2733  -11.1379  -18.1948 C   0  0  0  0  0  0  0  0  0  0  0  0
   14.2594  -12.5661  -18.3153 N   0  0  0  0  0  0  0  0  0  0  0  0
   20.1349  -10.9428  -16.2575 C   0  0  0  0  0  0  0  0  0  0  0  0
   20.0362  -10.8863  -14.9845 O   0  0  0  0  0  0  0  0  0  0  0  0
   27.7236  -10.2711  -15.0851 C   0  0  0  0  0  0  0  0  0  0  0  0
   26.2896  -10.9391  -15.9381 S   0  0  0  0  0  0  0  0  0  0  0  0
   24.7856   -9.9460  -15.6116 C   0  0  0  0  0  0  0  0  0  0  0  0
   23.6201  -10.5083  -16.3625 C   0  0  0  0  0  0  0  0  0  0  0  0
   22.3258   -9.8165  -16.0236 C   0  0  2  0  0  0  0  0  0  0  0  0
   21.2585  -10.4086  -16.8736 N   0  0  0  0  0  0  0  0  0  0  0  0
   22.4304   -8.3784  -16.3083 C   0  0  0  0  0  0  0  0  0  0  0  0
   22.5855   -8.0118  -17.5284 O   0  0  0  0  0  0  0  0  0  0  0  0
   18.9057   -1.8557  -16.0731 C   0  0  0  0  0  0  0  0  0  0  0  0
   19.4495   -3.2989  -15.0974 S   0  0  0  0  0  0  0  0  0  0  0  0
   20.8636   -4.0380  -15.9894 C   0  0  0  0  0  0  0  0  0  0  0  0
   21.3628   -5.1900  -15.1746 C   0  0  0  0  0  0  0  0  0  0  0  0
   22.5299   -5.9233  -15.7791 C   0  0  2  0  0  0  0  0  0  0  0  0
   22.3706   -7.3265  -15.3616 N   0  0  0  0  0  0  0  0  0  0  0  0
   23.7818   -5.3769  -15.2386 C   0  0  0  0  0  0  0  0  0  0  0  0
   24.4364   -6.0466  -14.4059 O   0  0  0  0  0  0  0  0  0  0  0  0
   24.2563   -4.1505  -15.6232 O   0  0  0  0  0  0  0  0  0  0  0  0
  2  1  1  1
  3  2  1  0
  4  3  1  0
  5  4  1  0
  5  6  1  0
  7  6  1  0
  8  9  2  0
  8  2  1  0
 10 11  1  0
 11 12  1  0
 12 13  1  0
 14 13  1  6
 14 15  1  0
 15  8  1  0
 16 14  1  0
 17 16  2  0
 18 19  1  0
 20 19  1  0
 22 21  1  1
 21 20  1  0
 22 23  1  0
 23 16  1  0
 24 26  1  0
 24 22  1  0
 25 24  2  0
M  END
$$$$
