KMM.pdb
     RDKit          3D

 26 25  0  0  1  0  0  0  0  0999 V2000
   27.5806  -22.6215  -15.6127 N   0  0  0  0  0  0  0  0  0  0  0  0
   27.3710  -21.4302  -14.8938 C   0  0  1  0  0  0  0  0  0  0  0  0
   27.1060  -20.1825  -15.6888 C   0  0  0  0  0  0  0  0  0  0  0  0
   28.1460  -19.7679  -16.6448 C   0  0  0  0  0  0  0  0  0  0  0  0
   28.8210  -20.7854  -17.4660 C   0  0  0  0  0  0  0  0  0  0  0  0
   29.7853  -20.3034  -18.4890 C   0  0  0  0  0  0  0  0  0  0  0  0
   30.4582  -21.4094  -19.1041 N   0  0  0  0  0  0  0  0  0  0  0  0
   26.4084  -21.5250  -13.7546 C   0  0  0  0  0  0  0  0  0  0  0  0
   25.4206  -22.3163  -13.9321 O   0  0  0  0  0  0  0  0  0  0  0  0
   26.9445  -19.0962   -7.7035 C   0  0  0  0  0  0  0  0  0  0  0  0
   27.7276  -20.6710   -8.0732 S   0  0  0  0  0  0  0  0  0  0  0  0
   27.1046  -21.3841   -9.6412 C   0  0  0  0  0  0  0  0  0  0  0  0
   26.0222  -20.5212  -10.2089 C   0  0  0  0  0  0  0  0  0  0  0  0
   25.4806  -21.0539  -11.5096 C   0  0  2  0  0  0  0  0  0  0  0  0
   26.5137  -20.8319  -12.5563 N   0  0  0  0  0  0  0  0  0  0  0  0
   24.2533  -20.3348  -11.8796 C   0  0  0  0  0  0  0  0  0  0  0  0
   24.3566  -19.3210  -12.6597 O   0  0  0  0  0  0  0  0  0  0  0  0
   24.0241  -21.7847  -16.6083 C   0  0  0  0  0  0  0  0  0  0  0  0
   22.2585  -21.8740  -16.1550 S   0  0  0  0  0  0  0  0  0  0  0  0
   21.9803  -20.6136  -14.8606 C   0  0  0  0  0  0  0  0  0  0  0  0
   21.9946  -21.3113  -13.5365 C   0  0  0  0  0  0  0  0  0  0  0  0
   21.7856  -20.4069  -12.3517 C   0  0  2  0  0  0  0  0  0  0  0  0
   22.9360  -20.6496  -11.4649 N   0  0  0  0  0  0  0  0  0  0  0  0
   20.5383  -20.7772  -11.6698 C   0  0  0  0  0  0  0  0  0  0  0  0
   20.5916  -21.4328  -10.6031 O   0  0  0  0  0  0  0  0  0  0  0  0
   19.3129  -20.4222  -12.1694 O   0  0  0  0  0  0  0  0  0  0  0  0
  2  1  1  6
  3  2  1  0
  4  3  1  0
  5  4  1  0
  5  6  1  0
  7  6  1  0
  8  9  2  0
  8  2  1  0
 10 11  1  0
 11 12  1  0
 12 13  1  0
 14 13  1  1
 14 15  1  0
 15  8  1  0
 16 14  1  0
 17 16  2  0
 18 19  1  0
 20 19  1  0
 22 21  1  6
 21 20  1  0
 22 23  1  0
 23 16  1  0
 24 26  1  0
 24 22  1  0
 25 24  2  0
M  END
$$$$
