GEI.pdb
     RDKit          3D

 22 21  0  0  1  0  0  0  0  0999 V2000
    7.1675  -12.7167   18.6753 N   0  0  0  0  0  0  0  0  0  0  0  0
    8.4463  -13.2126   19.1880 C   0  0  0  0  0  0  0  0  0  0  0  0
    8.1474  -14.1239   20.3219 C   0  0  0  0  0  0  0  0  0  0  0  0
    6.9684  -14.2251   20.8037 O   0  0  0  0  0  0  0  0  0  0  0  0
    9.2085  -14.8973   20.8766 N   0  0  0  0  0  0  0  0  0  0  0  0
    8.9327  -15.8025   21.9459 C   0  0  1  0  0  0  0  0  0  0  0  0
    9.7775  -17.0585   21.8752 C   0  0  0  0  0  0  0  0  0  0  0  0
    9.7234  -17.6783   20.4967 C   0  0  0  0  0  0  0  0  0  0  0  0
    9.6059  -19.1553   20.5713 C   0  0  0  0  0  0  0  0  0  0  0  0
   10.4179  -19.7682   21.3332 O   0  0  0  0  0  0  0  0  0  0  0  0
    9.1473  -15.1045   23.2396 C   0  0  0  0  0  0  0  0  0  0  0  0
   10.2343  -14.5313   23.5258 O   0  0  0  0  0  0  0  0  0  0  0  0
    8.6564  -19.8522   19.8468 O   0  0  0  0  0  0  0  0  0  0  0  0
    7.5436  -11.1599   26.8830 C   0  0  0  0  0  0  0  0  0  0  0  0
    7.4111  -12.6379   27.1317 C   0  0  0  0  0  0  0  0  0  0  0  0
    7.1747  -13.4722   25.9250 C   0  0  2  0  0  0  0  0  0  0  0  0
    5.8789  -14.2308   26.1022 C   0  0  0  0  0  0  0  0  0  0  0  0
    8.2966  -14.3536   25.4933 C   0  0  2  0  0  0  0  0  0  0  0  0
    8.1256  -15.0373   24.2538 N   0  0  0  0  0  0  0  0  0  0  0  0
    8.7445  -15.2128   26.5942 C   0  0  0  0  0  0  0  0  0  0  0  0
    9.3940  -14.6783   27.6796 O   0  0  0  0  0  0  0  0  0  0  0  0
    8.5351  -16.4410   26.5478 O   0  0  0  0  0  0  0  0  0  0  0  0
  2  1  1  0
  3  5  1  0
  3  2  1  0
  4  3  2  0
  6  5  1  0
  6 11  1  0
  6  7  1  6
  8  7  1  0
  9  8  1  0
 10  9  2  0
 11 19  1  0
 12 11  2  0
 13  9  1  0
 14 15  1  0
 16 18  1  0
 16 15  1  0
 16 17  1  1
 18 20  1  0
 18 19  1  6
 20 21  1  0
 22 20  2  0
M  END
$$$$
