GEI.pdb
     RDKit          3D

 22 21  0  0  1  0  0  0  0  0999 V2000
    5.6125  -19.8922   23.1295 N   0  0  0  0  0  0  0  0  0  0  0  0
    5.6433  -18.5840   23.7864 C   0  0  0  0  0  0  0  0  0  0  0  0
    6.8621  -17.8783   23.3151 C   0  0  0  0  0  0  0  0  0  0  0  0
    8.0167  -18.4205   23.3866 O   0  0  0  0  0  0  0  0  0  0  0  0
    6.7273  -16.5668   22.7733 N   0  0  0  0  0  0  0  0  0  0  0  0
    7.8945  -15.8525   22.3652 C   0  0  1  0  0  0  0  0  0  0  0  0
    7.5834  -14.7539   21.3690 C   0  0  0  0  0  0  0  0  0  0  0  0
    6.8607  -15.3006   20.1582 C   0  0  0  0  0  0  0  0  0  0  0  0
    7.7491  -16.1627   19.3407 C   0  0  0  0  0  0  0  0  0  0  0  0
    7.3695  -17.3567   19.1271 O   0  0  0  0  0  0  0  0  0  0  0  0
    8.5633  -15.2901   23.5665 C   0  0  0  0  0  0  0  0  0  0  0  0
    9.7129  -14.7721   23.5195 O   0  0  0  0  0  0  0  0  0  0  0  0
    8.9459  -15.7007   18.8246 O   0  0  0  0  0  0  0  0  0  0  0  0
    5.6172  -12.1678   26.4767 C   0  0  0  0  0  0  0  0  0  0  0  0
    6.8369  -12.7677   25.8313 C   0  0  0  0  0  0  0  0  0  0  0  0
    7.6496  -13.6578   26.7005 C   0  0  2  0  0  0  0  0  0  0  0  0
    8.4295  -12.8070   27.6771 C   0  0  0  0  0  0  0  0  0  0  0  0
    8.5063  -14.6633   26.0100 C   0  0  2  0  0  0  0  0  0  0  0  0
    7.9411  -15.3002   24.8664 N   0  0  0  0  0  0  0  0  0  0  0  0
    9.1116  -15.5892   26.9730 C   0  0  0  0  0  0  0  0  0  0  0  0
   10.0295  -15.1426   27.8915 O   0  0  0  0  0  0  0  0  0  0  0  0
    8.7918  -16.7942   26.9608 O   0  0  0  0  0  0  0  0  0  0  0  0
  2  1  1  0
  3  5  1  0
  3  2  1  0
  4  3  2  0
  6  5  1  0
  6 11  1  0
  6  7  1  6
  8  7  1  0
  9  8  1  0
 10  9  2  0
 11 19  1  0
 12 11  2  0
 13  9  1  0
 14 15  1  0
 16 18  1  0
 16 15  1  0
 16 17  1  6
 18 20  1  0
 18 19  1  6
 20 21  1  0
 22 20  2  0
M  END
$$$$
