GEI.pdb
     RDKit          3D

 22 21  0  0  1  0  0  0  0  0999 V2000
    8.2834  -12.2061   18.3341 N   0  0  0  0  0  0  0  0  0  0  0  0
    9.1474  -13.1557   19.0382 C   0  0  0  0  0  0  0  0  0  0  0  0
    8.3109  -13.8545   20.0469 C   0  0  0  0  0  0  0  0  0  0  0  0
    7.1974  -13.3687   20.4423 O   0  0  0  0  0  0  0  0  0  0  0  0
    8.7721  -15.0940   20.5786 N   0  0  0  0  0  0  0  0  0  0  0  0
    8.0212  -15.7393   21.6075 C   0  0  1  0  0  0  0  0  0  0  0  0
    8.1357  -17.2491   21.5491 C   0  0  0  0  0  0  0  0  0  0  0  0
    7.7553  -17.7751   20.1832 C   0  0  0  0  0  0  0  0  0  0  0  0
    7.8516  -19.2544   20.1264 C   0  0  0  0  0  0  0  0  0  0  0  0
    9.0150  -19.7621   20.0623 O   0  0  0  0  0  0  0  0  0  0  0  0
    8.4759  -15.2348   22.9287 C   0  0  0  0  0  0  0  0  0  0  0  0
    9.6890  -15.2470   23.2756 O   0  0  0  0  0  0  0  0  0  0  0  0
    6.7297  -20.0627   20.1413 O   0  0  0  0  0  0  0  0  0  0  0  0
    6.8322  -11.2598   27.4659 C   0  0  0  0  0  0  0  0  0  0  0  0
    7.6908  -12.3647   26.9129 C   0  0  0  0  0  0  0  0  0  0  0  0
    7.1453  -13.0648   25.7210 C   0  0  2  0  0  0  0  0  0  0  0  0
    5.7262  -13.4958   26.0151 C   0  0  0  0  0  0  0  0  0  0  0  0
    7.9724  -14.1710   25.1607 C   0  0  2  0  0  0  0  0  0  0  0  0
    7.5586  -14.6978   23.9020 N   0  0  0  0  0  0  0  0  0  0  0  0
    8.2434  -15.1926   26.1774 C   0  0  0  0  0  0  0  0  0  0  0  0
    9.2483  -15.0162   27.0965 O   0  0  0  0  0  0  0  0  0  0  0  0
    7.5567  -16.2327   26.2108 O   0  0  0  0  0  0  0  0  0  0  0  0
  2  1  1  0
  3  5  1  0
  3  2  1  0
  4  3  2  0
  6  5  1  0
  6 11  1  0
  6  7  1  1
  8  7  1  0
  9  8  1  0
 10  9  2  0
 11 19  1  0
 12 11  2  0
 13  9  1  0
 14 15  1  0
 16 18  1  0
 16 15  1  0
 16 17  1  1
 18 20  1  0
 18 19  1  6
 20 21  1  0
 22 20  2  0
M  END
$$$$
