GEI.pdb
     RDKit          3D

 22 21  0  0  1  0  0  0  0  0999 V2000
    7.2836  -12.6262   18.5028 N   0  0  0  0  0  0  0  0  0  0  0  0
    8.5242  -12.9525   19.2089 C   0  0  0  0  0  0  0  0  0  0  0  0
    8.2056  -14.0097   20.2021 C   0  0  0  0  0  0  0  0  0  0  0  0
    7.0157  -14.4511   20.3482 O   0  0  0  0  0  0  0  0  0  0  0  0
    9.2600  -14.5350   21.0047 N   0  0  0  0  0  0  0  0  0  0  0  0
    8.9738  -15.5609   21.9559 C   0  0  1  0  0  0  0  0  0  0  0  0
    9.8935  -16.7568   21.8135 C   0  0  0  0  0  0  0  0  0  0  0  0
    9.8091  -17.3507   20.4252 C   0  0  0  0  0  0  0  0  0  0  0  0
   10.8630  -18.3720   20.2080 C   0  0  0  0  0  0  0  0  0  0  0  0
   11.4789  -18.3487   19.0964 O   0  0  0  0  0  0  0  0  0  0  0  0
    9.0690  -14.9928   23.3251 C   0  0  0  0  0  0  0  0  0  0  0  0
   10.1050  -14.4061   23.7427 O   0  0  0  0  0  0  0  0  0  0  0  0
   11.1746  -19.3185   21.1667 O   0  0  0  0  0  0  0  0  0  0  0  0
    7.5536  -11.7591   24.4261 C   0  0  0  0  0  0  0  0  0  0  0  0
    6.8984  -12.1873   25.7111 C   0  0  0  0  0  0  0  0  0  0  0  0
    6.8112  -13.6548   25.9280 C   0  0  2  0  0  0  0  0  0  0  0  0
    6.3661  -13.9125   27.3499 C   0  0  0  0  0  0  0  0  0  0  0  0
    8.0097  -14.4571   25.5518 C   0  0  2  0  0  0  0  0  0  0  0  0
    7.9816  -15.0756   24.2674 N   0  0  0  0  0  0  0  0  0  0  0  0
    8.4042  -15.3565   26.6409 C   0  0  0  0  0  0  0  0  0  0  0  0
    9.1769  -14.9002   27.6804 O   0  0  0  0  0  0  0  0  0  0  0  0
    8.0361  -16.5476   26.6266 O   0  0  0  0  0  0  0  0  0  0  0  0
  2  1  1  0
  3  5  1  0
  3  2  1  0
  4  3  2  0
  6  5  1  0
  6 11  1  0
  6  7  1  1
  8  7  1  0
  9  8  1  0
 10  9  2  0
 11 19  1  0
 12 11  2  0
 13  9  1  0
 14 15  1  0
 16 18  1  0
 16 15  1  0
 16 17  1  1
 18 20  1  0
 18 19  1  6
 20 21  1  0
 22 20  2  0
M  END
$$$$
