GEI.pdb
     RDKit          3D

 22 21  0  0  1  0  0  0  0  0999 V2000
    7.1431  -12.8670   18.8177 N   0  0  0  0  0  0  0  0  0  0  0  0
    8.3938  -13.5768   19.0932 C   0  0  0  0  0  0  0  0  0  0  0  0
    8.2107  -14.3235   20.3638 C   0  0  0  0  0  0  0  0  0  0  0  0
    7.1726  -14.1597   21.0903 O   0  0  0  0  0  0  0  0  0  0  0  0
    9.2233  -15.2403   20.7711 N   0  0  0  0  0  0  0  0  0  0  0  0
    9.0028  -16.0677   21.9137 C   0  0  1  0  0  0  0  0  0  0  0  0
    9.8723  -17.3087   21.9078 C   0  0  0  0  0  0  0  0  0  0  0  0
    9.5725  -18.1821   20.7101 C   0  0  0  0  0  0  0  0  0  0  0  0
    9.3975  -19.6014   21.1050 C   0  0  0  0  0  0  0  0  0  0  0  0
   10.1839  -20.0626   21.9906 O   0  0  0  0  0  0  0  0  0  0  0  0
    9.2443  -15.2704   23.1436 C   0  0  0  0  0  0  0  0  0  0  0  0
   10.2966  -14.5957   23.3157 O   0  0  0  0  0  0  0  0  0  0  0  0
    8.4226  -20.4038   20.5413 O   0  0  0  0  0  0  0  0  0  0  0  0
    6.5556  -11.4012   26.9494 C   0  0  0  0  0  0  0  0  0  0  0  0
    7.6094  -12.4600   26.7698 C   0  0  0  0  0  0  0  0  0  0  0  0
    7.3654  -13.4267   25.6679 C   0  0  2  0  0  0  0  0  0  0  0  0
    6.0360  -14.1080   25.9017 C   0  0  0  0  0  0  0  0  0  0  0  0
    8.4593  -14.3963   25.3768 C   0  0  2  0  0  0  0  0  0  0  0  0
    8.2902  -15.2161   24.2225 N   0  0  0  0  0  0  0  0  0  0  0  0
    8.8434  -15.1347   26.5843 C   0  0  0  0  0  0  0  0  0  0  0  0
    8.7332  -16.5026   26.6331 O   0  0  0  0  0  0  0  0  0  0  0  0
    9.2748  -14.5179   27.5783 O   0  0  0  0  0  0  0  0  0  0  0  0
  2  1  1  0
  3  5  1  0
  3  2  1  0
  4  3  2  0
  6  5  1  0
  6 11  1  0
  6  7  1  6
  8  7  1  0
  9  8  1  0
 10  9  2  0
 11 19  1  0
 12 11  2  0
 13  9  1  0
 14 15  1  0
 16 18  1  0
 16 15  1  0
 16 17  1  1
 18 20  1  0
 18 19  1  6
 20 21  1  0
 22 20  2  0
M  END
$$$$
