GEI.pdb
     RDKit          3D

 22 21  0  0  1  0  0  0  0  0999 V2000
    7.7463  -13.0938   18.0602 N   0  0  0  0  0  0  0  0  0  0  0  0
    8.8138  -13.3568   19.0273 C   0  0  0  0  0  0  0  0  0  0  0  0
    8.2311  -14.1751   20.1211 C   0  0  0  0  0  0  0  0  0  0  0  0
    6.9955  -14.4996   20.1260 O   0  0  0  0  0  0  0  0  0  0  0  0
    9.0800  -14.6014   21.1839 N   0  0  0  0  0  0  0  0  0  0  0  0
    8.5841  -15.5292   22.1494 C   0  0  1  0  0  0  0  0  0  0  0  0
    9.0222  -16.9517   21.8652 C   0  0  0  0  0  0  0  0  0  0  0  0
   10.5130  -17.0279   21.6229 C   0  0  0  0  0  0  0  0  0  0  0  0
   10.9366  -18.4084   21.2829 C   0  0  0  0  0  0  0  0  0  0  0  0
   10.0859  -19.1548   20.7044 O   0  0  0  0  0  0  0  0  0  0  0  0
    9.0326  -15.1081   23.5015 C   0  0  0  0  0  0  0  0  0  0  0  0
   10.2113  -14.7216   23.7325 O   0  0  0  0  0  0  0  0  0  0  0  0
   12.2029  -18.8796   21.5771 O   0  0  0  0  0  0  0  0  0  0  0  0
    5.5559  -12.1517   26.1305 C   0  0  0  0  0  0  0  0  0  0  0  0
    6.9012  -12.6531   25.6804 C   0  0  0  0  0  0  0  0  0  0  0  0
    7.5325  -13.6715   26.5594 C   0  0  2  0  0  0  0  0  0  0  0  0
    8.1033  -12.9795   27.7765 C   0  0  0  0  0  0  0  0  0  0  0  0
    8.5116  -14.5930   25.9161 C   0  0  2  0  0  0  0  0  0  0  0  0
    8.1484  -15.1143   24.6396 N   0  0  0  0  0  0  0  0  0  0  0  0
    8.9819  -15.6073   26.8652 C   0  0  0  0  0  0  0  0  0  0  0  0
    9.8096  -15.2625   27.9053 O   0  0  0  0  0  0  0  0  0  0  0  0
    8.6286  -16.7953   26.7299 O   0  0  0  0  0  0  0  0  0  0  0  0
  2  1  1  0
  3  5  1  0
  3  2  1  0
  4  3  2  0
  6  5  1  0
  6 11  1  0
  6  7  1  6
  8  7  1  0
  9  8  1  0
 10  9  2  0
 11 19  1  0
 12 11  2  0
 13  9  1  0
 14 15  1  0
 16 18  1  0
 16 15  1  0
 16 17  1  1
 18 20  1  0
 18 19  1  6
 20 21  1  0
 22 20  2  0
M  END
$$$$
