GEI.pdb
     RDKit          3D

 22 21  0  0  1  0  0  0  0  0999 V2000
    8.1597  -16.2383   17.8300 N   0  0  0  0  0  0  0  0  0  0  0  0
    9.1444  -15.8625   18.8465 C   0  0  0  0  0  0  0  0  0  0  0  0
    8.5975  -16.2677   20.1665 C   0  0  0  0  0  0  0  0  0  0  0  0
    7.3706  -16.5945   20.3085 O   0  0  0  0  0  0  0  0  0  0  0  0
    9.4712  -16.2877   21.2925 N   0  0  0  0  0  0  0  0  0  0  0  0
    8.9756  -16.7263   22.5579 C   0  0  1  0  0  0  0  0  0  0  0  0
    9.6129  -18.0238   23.0124 C   0  0  0  0  0  0  0  0  0  0  0  0
   11.0472  -18.1236   22.5433 C   0  0  0  0  0  0  0  0  0  0  0  0
   11.6387  -19.4402   22.8861 C   0  0  0  0  0  0  0  0  0  0  0  0
   12.2524  -20.0629   21.9635 O   0  0  0  0  0  0  0  0  0  0  0  0
    9.2010  -15.6567   23.5639 C   0  0  0  0  0  0  0  0  0  0  0  0
   10.2540  -14.9620   23.5872 O   0  0  0  0  0  0  0  0  0  0  0  0
   11.5350  -19.9822   24.1539 O   0  0  0  0  0  0  0  0  0  0  0  0
    6.5500  -11.2231   26.8821 C   0  0  0  0  0  0  0  0  0  0  0  0
    7.6781  -12.1937   26.6603 C   0  0  0  0  0  0  0  0  0  0  0  0
    7.3839  -13.3172   25.7332 C   0  0  2  0  0  0  0  0  0  0  0  0
    6.0384  -13.9062   26.0916 C   0  0  0  0  0  0  0  0  0  0  0  0
    8.4415  -14.3576   25.5894 C   0  0  2  0  0  0  0  0  0  0  0  0
    8.2293  -15.3432   24.5810 N   0  0  0  0  0  0  0  0  0  0  0  0
    8.8187  -14.9087   26.8951 C   0  0  0  0  0  0  0  0  0  0  0  0
    9.4108  -14.1141   27.8457 O   0  0  0  0  0  0  0  0  0  0  0  0
    8.6010  -16.1100   27.1483 O   0  0  0  0  0  0  0  0  0  0  0  0
  2  1  1  0
  3  5  1  0
  3  2  1  0
  4  3  2  0
  6  5  1  0
  6 11  1  0
  6  7  1  1
  8  7  1  0
  9  8  1  0
 10  9  2  0
 11 19  1  0
 12 11  2  0
 13  9  1  0
 14 15  1  0
 16 18  1  0
 16 15  1  0
 16 17  1  1
 18 20  1  0
 18 19  1  6
 20 21  1  0
 22 20  2  0
M  END
$$$$
