GEI.pdb
     RDKit          3D

 22 21  0  0  1  0  0  0  0  0999 V2000
    7.3061  -13.4068   18.3587 N   0  0  0  0  0  0  0  0  0  0  0  0
    8.4366  -13.2138   19.2690 C   0  0  0  0  0  0  0  0  0  0  0  0
    8.2630  -14.1601   20.4003 C   0  0  0  0  0  0  0  0  0  0  0  0
    7.1164  -14.3735   20.9217 O   0  0  0  0  0  0  0  0  0  0  0  0
    9.4094  -14.8389   20.9071 N   0  0  0  0  0  0  0  0  0  0  0  0
    9.2555  -15.7787   21.9711 C   0  0  1  0  0  0  0  0  0  0  0  0
   10.1682  -16.9790   21.8213 C   0  0  0  0  0  0  0  0  0  0  0  0
    9.9226  -17.9941   22.9152 C   0  0  0  0  0  0  0  0  0  0  0  0
   10.7988  -19.1809   22.7594 C   0  0  0  0  0  0  0  0  0  0  0  0
   11.4063  -19.5986   23.7949 O   0  0  0  0  0  0  0  0  0  0  0  0
    9.5079  -15.0926   23.2642 C   0  0  0  0  0  0  0  0  0  0  0  0
   10.5712  -14.4532   23.4937 O   0  0  0  0  0  0  0  0  0  0  0  0
   10.9592  -19.8186   21.5430 O   0  0  0  0  0  0  0  0  0  0  0  0
    5.8659  -12.8335   27.3717 C   0  0  0  0  0  0  0  0  0  0  0  0
    6.4705  -13.6507   26.2625 C   0  0  0  0  0  0  0  0  0  0  0  0
    7.8779  -13.3211   25.9176 C   0  0  2  0  0  0  0  0  0  0  0  0
    7.8808  -12.2654   24.8353 C   0  0  0  0  0  0  0  0  0  0  0  0
    8.7722  -14.4694   25.5961 C   0  0  2  0  0  0  0  0  0  0  0  0
    8.5525  -15.1134   24.3431 N   0  0  0  0  0  0  0  0  0  0  0  0
    8.8754  -15.3905   26.7327 C   0  0  0  0  0  0  0  0  0  0  0  0
    9.3921  -14.9668   27.9323 O   0  0  0  0  0  0  0  0  0  0  0  0
    8.4910  -16.5704   26.6124 O   0  0  0  0  0  0  0  0  0  0  0  0
  2  1  1  0
  3  5  1  0
  3  2  1  0
  4  3  2  0
  6  5  1  0
  6 11  1  0
  6  7  1  6
  8  7  1  0
  9  8  1  0
 10  9  2  0
 11 19  1  0
 12 11  2  0
 13  9  1  0
 14 15  1  0
 16 18  1  0
 16 15  1  0
 16 17  1  6
 18 20  1  0
 18 19  1  6
 20 21  1  0
 22 20  2  0
M  END
$$$$
