GEI.pdb
     RDKit          3D

 22 21  0  0  1  0  0  0  0  0999 V2000
    7.4367  -12.7178   18.6231 N   0  0  0  0  0  0  0  0  0  0  0  0
    8.5760  -13.5668   18.9770 C   0  0  0  0  0  0  0  0  0  0  0  0
    8.2751  -14.1895   20.2913 C   0  0  0  0  0  0  0  0  0  0  0  0
    7.2785  -13.8120   20.9959 O   0  0  0  0  0  0  0  0  0  0  0  0
    9.1253  -15.2303   20.7663 N   0  0  0  0  0  0  0  0  0  0  0  0
    8.7389  -15.9820   21.9173 C   0  0  1  0  0  0  0  0  0  0  0  0
    9.4068  -17.3410   21.9735 C   0  0  0  0  0  0  0  0  0  0  0  0
    9.1373  -18.1364   20.7158 C   0  0  0  0  0  0  0  0  0  0  0  0
    9.8057  -19.4602   20.7586 C   0  0  0  0  0  0  0  0  0  0  0  0
   11.0244  -19.5112   20.4012 O   0  0  0  0  0  0  0  0  0  0  0  0
    9.0558  -15.1968   23.1379 C   0  0  0  0  0  0  0  0  0  0  0  0
   10.1907  -14.6816   23.3342 O   0  0  0  0  0  0  0  0  0  0  0  0
    9.1430  -20.6026   21.1682 O   0  0  0  0  0  0  0  0  0  0  0  0
    6.6783  -11.2149   27.1670 C   0  0  0  0  0  0  0  0  0  0  0  0
    7.6699  -12.3094   26.8799 C   0  0  0  0  0  0  0  0  0  0  0  0
    7.3320  -13.1968   25.7369 C   0  0  2  0  0  0  0  0  0  0  0  0
    5.9743  -13.8148   25.9835 C   0  0  0  0  0  0  0  0  0  0  0  0
    8.3571  -14.2081   25.3518 C   0  0  2  0  0  0  0  0  0  0  0  0
    8.0851  -14.9727   24.1794 N   0  0  0  0  0  0  0  0  0  0  0  0
    8.7648  -15.0113   26.5091 C   0  0  0  0  0  0  0  0  0  0  0  0
    8.5991  -16.3745   26.5084 O   0  0  0  0  0  0  0  0  0  0  0  0
    9.2673  -14.4547   27.5051 O   0  0  0  0  0  0  0  0  0  0  0  0
  2  1  1  0
  3  5  1  0
  3  2  1  0
  4  3  2  0
  6  5  1  0
  6 11  1  0
  6  7  1  1
  8  7  1  0
  9  8  1  0
 10  9  2  0
 11 19  1  0
 12 11  2  0
 13  9  1  0
 14 15  1  0
 16 18  1  0
 16 15  1  0
 16 17  1  1
 18 20  1  0
 18 19  1  6
 20 21  1  0
 22 20  2  0
M  END
$$$$
