GEI.pdb
     RDKit          3D

 22 21  0  0  1  0  0  0  0  0999 V2000
    7.9192  -21.0747   26.7672 N   0  0  0  0  0  0  0  0  0  0  0  0
    7.3336  -20.3768   25.6209 C   0  0  0  0  0  0  0  0  0  0  0  0
    7.9725  -19.0385   25.5414 C   0  0  0  0  0  0  0  0  0  0  0  0
    8.0760  -18.2864   26.5690 O   0  0  0  0  0  0  0  0  0  0  0  0
    8.4770  -18.5943   24.2845 N   0  0  0  0  0  0  0  0  0  0  0  0
    9.0832  -17.3051   24.1872 C   0  0  1  0  0  0  0  0  0  0  0  0
    9.9263  -17.1533   22.9373 C   0  0  0  0  0  0  0  0  0  0  0  0
   11.1159  -18.0868   22.9620 C   0  0  0  0  0  0  0  0  0  0  0  0
   11.8686  -18.0389   21.6845 C   0  0  0  0  0  0  0  0  0  0  0  0
   12.9270  -17.3358   21.6560 O   0  0  0  0  0  0  0  0  0  0  0  0
    8.0221  -16.2662   24.2272 C   0  0  0  0  0  0  0  0  0  0  0  0
    6.9276  -16.3943   23.6127 O   0  0  0  0  0  0  0  0  0  0  0  0
   11.4484  -18.7260   20.5605 O   0  0  0  0  0  0  0  0  0  0  0  0
    8.1510  -12.2930   28.3201 C   0  0  0  0  0  0  0  0  0  0  0  0
    7.9325  -13.3831   27.3063 C   0  0  0  0  0  0  0  0  0  0  0  0
    7.3529  -12.9457   26.0097 C   0  0  2  0  0  0  0  0  0  0  0  0
    6.0565  -12.2149   26.2763 C   0  0  0  0  0  0  0  0  0  0  0  0
    7.2121  -13.9903   24.9558 C   0  0  2  0  0  0  0  0  0  0  0  0
    8.1750  -15.0417   24.9719 N   0  0  0  0  0  0  0  0  0  0  0  0
    7.0109  -13.3828   23.6362 C   0  0  0  0  0  0  0  0  0  0  0  0
    5.7949  -12.8468   23.2904 O   0  0  0  0  0  0  0  0  0  0  0  0
    7.9509  -13.3507   22.8177 O   0  0  0  0  0  0  0  0  0  0  0  0
  2  1  1  0
  3  5  1  0
  3  2  1  0
  4  3  2  0
  6  5  1  0
  6 11  1  0
  6  7  1  6
  8  7  1  0
  9  8  1  0
 10  9  2  0
 11 19  1  0
 12 11  2  0
 13  9  1  0
 14 15  1  0
 16 18  1  0
 16 15  1  0
 16 17  1  1
 18 20  1  0
 18 19  1  6
 20 21  1  0
 22 20  2  0
M  END
$$$$
