GEI.pdb
     RDKit          3D

 22 21  0  0  1  0  0  0  0  0999 V2000
    6.5467  -17.1529   18.5075 N   0  0  0  0  0  0  0  0  0  0  0  0
    7.4285  -16.3195   19.3272 C   0  0  0  0  0  0  0  0  0  0  0  0
    7.2882  -16.7735   20.7341 C   0  0  0  0  0  0  0  0  0  0  0  0
    6.3622  -17.5806   21.0856 O   0  0  0  0  0  0  0  0  0  0  0  0
    8.2134  -16.2904   21.7049 N   0  0  0  0  0  0  0  0  0  0  0  0
    8.1345  -16.7677   23.0484 C   0  0  1  0  0  0  0  0  0  0  0  0
    8.7851  -18.1253   23.2209 C   0  0  0  0  0  0  0  0  0  0  0  0
   10.1791  -18.1433   22.6347 C   0  0  0  0  0  0  0  0  0  0  0  0
   10.8080  -19.4797   22.7740 C   0  0  0  0  0  0  0  0  0  0  0  0
   11.4902  -19.6978   23.8240 O   0  0  0  0  0  0  0  0  0  0  0  0
    8.7628  -15.7720   23.9542 C   0  0  0  0  0  0  0  0  0  0  0  0
    9.8309  -15.1688   23.6585 O   0  0  0  0  0  0  0  0  0  0  0  0
   10.6673  -20.4598   21.8088 O   0  0  0  0  0  0  0  0  0  0  0  0
    5.6116  -12.2442   26.2351 C   0  0  0  0  0  0  0  0  0  0  0  0
    6.8476  -12.8584   25.6360 C   0  0  0  0  0  0  0  0  0  0  0  0
    7.8304  -13.4005   26.6098 C   0  0  2  0  0  0  0  0  0  0  0  0
    8.5644  -12.2473   27.2559 C   0  0  0  0  0  0  0  0  0  0  0  0
    8.7560  -14.4549   26.1065 C   0  0  2  0  0  0  0  0  0  0  0  0
    8.1918  -15.4301   25.2326 N   0  0  0  0  0  0  0  0  0  0  0  0
    9.5537  -15.0205   27.1995 C   0  0  0  0  0  0  0  0  0  0  0  0
    9.5700  -16.3748   27.4259 O   0  0  0  0  0  0  0  0  0  0  0  0
   10.2250  -14.2676   27.9323 O   0  0  0  0  0  0  0  0  0  0  0  0
  2  1  1  0
  3  5  1  0
  3  2  1  0
  4  3  2  0
  6  5  1  0
  6 11  1  0
  6  7  1  6
  8  7  1  0
  9  8  1  0
 10  9  2  0
 11 19  1  0
 12 11  2  0
 13  9  1  0
 14 15  1  0
 16 18  1  0
 16 15  1  0
 16 17  1  6
 18 20  1  0
 18 19  1  1
 20 21  1  0
 22 20  2  0
M  END
$$$$
