TMQ.pdb
     RDKit          3D

 25 24  0  0  1  0  0  0  0  0999 V2000
   28.6641  -18.8158  -16.0087 C   0  0  0  0  0  0  0  0  0  0  0  0
   27.5313  -19.2287  -15.0618 C   0  0  1  0  0  0  0  0  0  0  0  0
   26.3573  -19.1421  -15.7872 O   0  0  0  0  0  0  0  0  0  0  0  0
   27.8375  -20.6426  -14.6297 C   0  0  2  0  0  0  0  0  0  0  0  0
   27.8544  -21.5554  -15.7458 N   0  0  0  0  0  0  0  0  0  0  0  0
   26.9285  -21.1003  -13.5494 C   0  0  0  0  0  0  0  0  0  0  0  0
   26.0097  -21.9162  -13.7986 O   0  0  0  0  0  0  0  0  0  0  0  0
   27.8173  -20.0424   -7.1847 C   0  0  0  0  0  0  0  0  0  0  0  0
   26.0588  -20.4313   -7.1206 S   0  0  0  0  0  0  0  0  0  0  0  0
   25.4802  -20.7826   -8.7637 C   0  0  0  0  0  0  0  0  0  0  0  0
   26.4333  -20.5879   -9.8860 C   0  0  0  0  0  0  0  0  0  0  0  0
   25.9630  -20.8748  -11.2563 C   0  0  2  0  0  0  0  0  0  0  0  0
   27.0638  -20.6394  -12.2191 N   0  0  0  0  0  0  0  0  0  0  0  0
   24.7550  -20.1842  -11.7170 C   0  0  0  0  0  0  0  0  0  0  0  0
   24.7666  -19.1624  -12.4054 O   0  0  0  0  0  0  0  0  0  0  0  0
   21.0485  -23.4412  -14.1606 N   0  0  0  0  0  0  0  0  0  0  0  0
   20.7537  -22.2501  -14.8643 C   0  0  0  0  0  0  0  0  0  0  0  0
   19.8005  -22.2754  -15.7219 O   0  0  0  0  0  0  0  0  0  0  0  0
   21.4964  -20.9952  -14.6382 C   0  0  0  0  0  0  0  0  0  0  0  0
   22.5709  -21.0713  -13.6072 C   0  0  0  0  0  0  0  0  0  0  0  0
   22.2884  -20.4879  -12.2664 C   0  0  2  0  0  0  0  0  0  0  0  0
   23.4355  -20.6775  -11.3792 N   0  0  0  0  0  0  0  0  0  0  0  0
   21.0831  -20.8876  -11.5646 C   0  0  0  0  0  0  0  0  0  0  0  0
   21.1494  -21.8420  -10.7054 O   0  0  0  0  0  0  0  0  0  0  0  0
   19.8124  -20.3340  -11.7096 O   0  0  0  0  0  0  0  0  0  0  0  0
  2  4  1  0
  2  1  1  6
  3  2  1  0
  4  6  1  0
  4  5  1  6
  6 13  1  0
  6  7  2  0
  8  9  1  0
 10  9  1  0
 12 11  1  1
 11 10  1  0
 12 14  1  0
 13 12  1  0
 14 15  2  0
 16 17  1  0
 17 18  2  0
 17 19  1  0
 19 20  1  0
 21 20  1  6
 22 21  1  0
 22 14  1  0
 23 21  1  0
 23 25  1  0
 24 23  2  0
M  END
$$$$
