TMQ.pdb
     RDKit          3D

 25 24  0  0  1  0  0  0  0  0999 V2000
   21.8295  -11.0942  -20.2862 C   0  0  0  0  0  0  0  0  0  0  0  0
   21.2440  -12.1794  -19.3750 C   0  0  1  0  0  0  0  0  0  0  0  0
   20.6434  -13.1099  -20.2029 O   0  0  0  0  0  0  0  0  0  0  0  0
   22.4081  -12.7587  -18.6078 C   0  0  2  0  0  0  0  0  0  0  0  0
   22.0353  -13.9443  -17.8768 N   0  0  0  0  0  0  0  0  0  0  0  0
   23.0546  -11.7467  -17.7355 C   0  0  0  0  0  0  0  0  0  0  0  0
   22.4701  -11.3320  -16.7067 O   0  0  0  0  0  0  0  0  0  0  0  0
   28.4982  -13.1688  -14.4811 C   0  0  0  0  0  0  0  0  0  0  0  0
   28.3548  -11.8749  -15.7273 S   0  0  0  0  0  0  0  0  0  0  0  0
   26.6351  -11.5273  -16.0100 C   0  0  0  0  0  0  0  0  0  0  0  0
   26.3001  -10.3846  -16.8976 C   0  0  0  0  0  0  0  0  0  0  0  0
   24.8761  -10.1258  -17.1916 C   0  0  2  0  0  0  0  0  0  0  0  0
   24.3344  -11.2211  -18.0289 N   0  0  0  0  0  0  0  0  0  0  0  0
   24.5321   -8.8345  -17.7939 C   0  0  0  0  0  0  0  0  0  0  0  0
   24.6806   -8.5709  -18.9883 O   0  0  0  0  0  0  0  0  0  0  0  0
   19.7054   -5.2329  -16.0192 N   0  0  0  0  0  0  0  0  0  0  0  0
   20.3471   -4.4392  -16.9986 C   0  0  0  0  0  0  0  0  0  0  0  0
   19.7729   -3.3534  -17.3673 O   0  0  0  0  0  0  0  0  0  0  0  0
   21.6433   -4.8160  -17.5947 C   0  0  0  0  0  0  0  0  0  0  0  0
   22.2199   -6.0989  -17.0998 C   0  0  0  0  0  0  0  0  0  0  0  0
   23.5721   -6.4862  -17.5889 C   0  0  2  0  0  0  0  0  0  0  0  0
   23.9804   -7.7590  -16.9955 N   0  0  0  0  0  0  0  0  0  0  0  0
   24.6642   -5.5393  -17.4625 C   0  0  0  0  0  0  0  0  0  0  0  0
   25.5088   -5.6861  -16.5041 O   0  0  0  0  0  0  0  0  0  0  0  0
   24.9230   -4.4506  -18.2930 O   0  0  0  0  0  0  0  0  0  0  0  0
  2  4  1  0
  2  1  1  6
  3  2  1  0
  4  6  1  0
  4  5  1  1
  6 13  1  0
  6  7  2  0
  8  9  1  0
 10  9  1  0
 12 11  1  6
 11 10  1  0
 12 14  1  0
 13 12  1  0
 14 15  2  0
 16 17  1  0
 17 18  2  0
 17 19  1  0
 19 20  1  0
 21 20  1  1
 22 21  1  0
 22 14  1  0
 23 21  1  0
 23 25  1  0
 24 23  2  0
M  END
$$$$
