TMQ.pdb
     RDKit          3D

 25 24  0  0  1  0  0  0  0  0999 V2000
   18.4747  -14.3891  -17.0982 C   0  0  0  0  0  0  0  0  0  0  0  0
   19.2239  -13.5887  -16.0265 C   0  0  1  0  0  0  0  0  0  0  0  0
   20.5023  -14.1118  -15.9629 O   0  0  0  0  0  0  0  0  0  0  0  0
   19.2128  -12.1516  -16.4892 C   0  0  2  0  0  0  0  0  0  0  0  0
   19.8156  -11.9997  -17.7902 N   0  0  0  0  0  0  0  0  0  0  0  0
   19.8187  -11.2422  -15.4848 C   0  0  0  0  0  0  0  0  0  0  0  0
   19.5177  -11.3480  -14.2723 O   0  0  0  0  0  0  0  0  0  0  0  0
   26.4264  -10.7628  -14.7090 C   0  0  0  0  0  0  0  0  0  0  0  0
   25.3348   -9.4014  -15.1594 S   0  0  0  0  0  0  0  0  0  0  0  0
   23.6491   -9.8912  -14.8831 C   0  0  0  0  0  0  0  0  0  0  0  0
   22.5910   -8.8722  -15.1012 C   0  0  0  0  0  0  0  0  0  0  0  0
   21.1895   -9.2565  -14.8376 C   0  0  2  0  0  0  0  0  0  0  0  0
   20.7439  -10.2380  -15.8536 N   0  0  0  0  0  0  0  0  0  0  0  0
   20.2001   -8.1803  -14.7310 C   0  0  0  0  0  0  0  0  0  0  0  0
   19.5939   -7.7050  -15.6926 O   0  0  0  0  0  0  0  0  0  0  0  0
   17.0271   -7.3476   -9.4240 N   0  0  0  0  0  0  0  0  0  0  0  0
   16.5434   -8.0385  -10.5595 C   0  0  0  0  0  0  0  0  0  0  0  0
   15.6356   -8.9273  -10.3845 O   0  0  0  0  0  0  0  0  0  0  0  0
   17.0413   -7.7649  -11.9214 C   0  0  0  0  0  0  0  0  0  0  0  0
   18.1183   -6.7373  -12.0083 C   0  0  0  0  0  0  0  0  0  0  0  0
   18.8227   -6.5791  -13.3108 C   0  0  2  0  0  0  0  0  0  0  0  0
   19.8666   -7.5940  -13.4490 N   0  0  0  0  0  0  0  0  0  0  0  0
   19.3797   -5.2849  -13.6571 C   0  0  0  0  0  0  0  0  0  0  0  0
   18.6037   -4.2600  -13.6870 O   0  0  0  0  0  0  0  0  0  0  0  0
   20.7097   -5.0060  -13.9659 O   0  0  0  0  0  0  0  0  0  0  0  0
  2  4  1  0
  2  1  1  6
  3  2  1  0
  4  6  1  0
  4  5  1  6
  6 13  1  0
  6  7  2  0
  8  9  1  0
 10  9  1  0
 12 11  1  6
 11 10  1  0
 12 14  1  0
 13 12  1  0
 14 15  2  0
 16 17  1  0
 17 18  2  0
 17 19  1  0
 19 20  1  0
 21 20  1  1
 22 21  1  0
 22 14  1  0
 23 21  1  0
 23 25  1  0
 24 23  2  0
M  END
$$$$
