LFW.pdb
     RDKit          3D

 34 36  0  0  1  0  0  0  0  0999 V2000
   10.5297  -19.1286   16.2177 C   0  0  0  0  0  0  0  0  0  0  0  0
    9.6946  -19.0232   17.4948 C   0  0  2  0  0  0  0  0  0  0  0  0
    8.2512  -18.8149   17.0880 C   0  0  0  0  0  0  0  0  0  0  0  0
   10.1946  -17.9248   18.3801 C   0  0  0  0  0  0  0  0  0  0  0  0
    9.6783  -18.1159   19.7695 C   0  0  2  0  0  0  0  0  0  0  0  0
    8.2608  -18.3916   19.8262 N   0  0  0  0  0  0  0  0  0  0  0  0
    9.9584  -16.9478   20.6474 C   0  0  0  0  0  0  0  0  0  0  0  0
   11.0065  -16.2785   20.5238 O   0  0  0  0  0  0  0  0  0  0  0  0
    9.0424  -16.5732   21.6391 N   0  0  0  0  0  0  0  0  0  0  0  0
    9.2136  -15.3714   22.4942 C   0  0  1  0  0  0  0  0  0  0  0  0
    7.8483  -15.0778   23.0006 C   0  0  0  0  0  0  0  0  0  0  0  0
    7.6827  -14.0132   23.9709 C   0  0  0  0  0  0  0  0  0  0  0  0
    8.1954  -12.7555   23.8059 C   0  0  0  0  0  0  0  0  0  0  0  0
    8.0363  -11.7451   24.7383 C   0  0  0  0  0  0  0  0  0  0  0  0
    7.3398  -11.9833   25.8871 C   0  0  0  0  0  0  0  0  0  0  0  0
    6.8026  -13.2579   26.0870 C   0  0  0  0  0  0  0  0  0  0  0  0
    6.9775  -14.2440   25.1403 C   0  0  0  0  0  0  0  0  0  0  0  0
   10.1327  -15.7685   23.5740 C   0  0  0  0  0  0  0  0  0  0  0  0
   10.9820  -14.9232   24.0068 O   0  0  0  0  0  0  0  0  0  0  0  0
   10.1775  -17.0298   24.2128 N   0  0  0  0  0  0  0  0  0  0  0  0
   11.2323  -17.3928   25.1480 C   0  0  1  0  0  0  0  0  0  0  0  0
   10.6310  -17.9301   26.4338 C   0  0  0  0  0  0  0  0  0  0  0  0
    9.5303  -17.0976   26.9163 C   0  0  0  0  0  0  0  0  0  0  0  0
    8.1991  -17.3121   26.6876 C   0  0  0  0  0  0  0  0  0  0  0  0
    7.5337  -16.3165   27.2915 N   0  0  0  0  0  0  0  0  0  0  0  0
    8.4003  -15.4747   27.8977 C   0  0  0  0  0  0  0  0  0  0  0  0
    8.2276  -14.3151   28.6408 C   0  0  0  0  0  0  0  0  0  0  0  0
    9.3358  -13.6641   29.1382 C   0  0  0  0  0  0  0  0  0  0  0  0
   10.6134  -14.1266   28.9225 C   0  0  0  0  0  0  0  0  0  0  0  0
   10.7925  -15.2783   28.1851 C   0  0  0  0  0  0  0  0  0  0  0  0
    9.6796  -15.9360   27.6829 C   0  0  0  0  0  0  0  0  0  0  0  0
   12.1568  -18.4134   24.6127 C   0  0  0  0  0  0  0  0  0  0  0  0
   12.0495  -18.9801   23.5041 O   0  0  0  0  0  0  0  0  0  0  0  0
   13.2392  -18.7615   25.4289 O   0  0  0  0  0  0  0  0  0  0  0  0
  2  3  1  6
  2  1  1  0
  4  2  1  0
  5  6  1  6
  5  4  1  0
  7  5  1  0
  8  7  2  0
  9  7  1  0
 10  9  1  0
 11 12  1  0
 10 11  1  1
 12 17  2  0
 13 14  2  0
 13 12  1  0
 14 15  1  0
 15 16  2  0
 17 16  1  0
 18 10  1  0
 18 20  1  0
 19 18  2  0
 21 20  1  0
 21 22  1  1
 22 23  1  0
 23 31  1  0
 24 23  2  0
 24 25  1  0
 25 26  1  0
 26 27  2  0
 27 28  1  0
 29 28  2  0
 30 29  1  0
 31 30  2  0
 31 26  1  0
 32 34  1  0
 32 21  1  0
 33 32  2  0
M  END
$$$$
