LFW.pdb
     RDKit          3D

 34 36  0  0  1  0  0  0  0  0999 V2000
   10.5189  -17.8471   16.1008 C   0  0  0  0  0  0  0  0  0  0  0  0
   10.9997  -16.5041   16.6526 C   0  0  2  0  0  0  0  0  0  0  0  0
   11.9928  -15.9272   15.6659 C   0  0  0  0  0  0  0  0  0  0  0  0
   11.5893  -16.6596   18.0196 C   0  0  0  0  0  0  0  0  0  0  0  0
   10.5618  -17.2052   18.9579 C   0  0  2  0  0  0  0  0  0  0  0  0
    9.2231  -17.2021   18.4139 N   0  0  0  0  0  0  0  0  0  0  0  0
   10.5354  -16.4814   20.2576 C   0  0  0  0  0  0  0  0  0  0  0  0
   11.5694  -15.9689   20.7372 O   0  0  0  0  0  0  0  0  0  0  0  0
    9.3380  -16.3599   20.9746 N   0  0  0  0  0  0  0  0  0  0  0  0
    9.2601  -15.7750   22.3372 C   0  0  1  0  0  0  0  0  0  0  0  0
    7.8723  -15.2554   22.4402 C   0  0  0  0  0  0  0  0  0  0  0  0
    7.4216  -14.7290   23.7137 C   0  0  0  0  0  0  0  0  0  0  0  0
    7.7562  -13.4860   24.1773 C   0  0  0  0  0  0  0  0  0  0  0  0
    7.3250  -12.9914   25.3960 C   0  0  0  0  0  0  0  0  0  0  0  0
    6.5270  -13.7559   26.1962 C   0  0  0  0  0  0  0  0  0  0  0  0
    6.1664  -15.0311   25.7525 C   0  0  0  0  0  0  0  0  0  0  0  0
    6.6113  -15.4964   24.5339 C   0  0  0  0  0  0  0  0  0  0  0  0
    9.5076  -16.8862   23.2713 C   0  0  0  0  0  0  0  0  0  0  0  0
    9.0376  -18.0392   23.0010 O   0  0  0  0  0  0  0  0  0  0  0  0
   10.2408  -16.8162   24.4789 N   0  0  0  0  0  0  0  0  0  0  0  0
   10.5019  -17.9887   25.3013 C   0  0  1  0  0  0  0  0  0  0  0  0
   10.9860  -17.5673   26.6766 C   0  0  0  0  0  0  0  0  0  0  0  0
   10.0720  -16.6222   27.3160 C   0  0  0  0  0  0  0  0  0  0  0  0
    8.7251  -16.7922   27.4816 C   0  0  0  0  0  0  0  0  0  0  0  0
    8.2658  -15.6936   28.0985 N   0  0  0  0  0  0  0  0  0  0  0  0
    9.2788  -14.8294   28.3309 C   0  0  0  0  0  0  0  0  0  0  0  0
    9.3341  -13.5771   28.9270 C   0  0  0  0  0  0  0  0  0  0  0  0
   10.5469  -12.9285   29.0174 C   0  0  0  0  0  0  0  0  0  0  0  0
   11.7099  -13.4827   28.5348 C   0  0  0  0  0  0  0  0  0  0  0  0
   11.6624  -14.7267   27.9413 C   0  0  0  0  0  0  0  0  0  0  0  0
   10.4437  -15.3823   27.8485 C   0  0  0  0  0  0  0  0  0  0  0  0
    9.3147  -18.8504   25.4773 C   0  0  0  0  0  0  0  0  0  0  0  0
    8.1319  -18.5098   25.2611 O   0  0  0  0  0  0  0  0  0  0  0  0
    9.5539  -20.1554   25.9229 O   0  0  0  0  0  0  0  0  0  0  0  0
  2  3  1  6
  2  1  1  0
  4  2  1  0
  5  6  1  6
  5  4  1  0
  7  5  1  0
  8  7  2  0
  9  7  1  0
 10  9  1  0
 11 12  1  0
 10 11  1  1
 12 17  2  0
 13 14  2  0
 13 12  1  0
 14 15  1  0
 15 16  2  0
 17 16  1  0
 18 10  1  0
 18 20  1  0
 19 18  2  0
 21 20  1  0
 21 22  1  1
 22 23  1  0
 23 31  1  0
 24 23  2  0
 24 25  1  0
 25 26  1  0
 26 27  2  0
 27 28  1  0
 29 28  2  0
 30 29  1  0
 31 30  2  0
 31 26  1  0
 32 34  1  0
 32 21  1  0
 33 32  2  0
M  END
$$$$
