LFW.pdb
     RDKit          3D

 34 36  0  0  1  0  0  0  0  0999 V2000
    9.6069  -19.7947   17.7249 C   0  0  0  0  0  0  0  0  0  0  0  0
    8.8569  -18.4629   17.6675 C   0  0  2  0  0  0  0  0  0  0  0  0
    8.5742  -18.1533   16.2126 C   0  0  0  0  0  0  0  0  0  0  0  0
    9.6363  -17.3729   18.3345 C   0  0  0  0  0  0  0  0  0  0  0  0
    9.6932  -17.6162   19.8080 C   0  0  2  0  0  0  0  0  0  0  0  0
    8.5990  -18.4195   20.3035 N   0  0  0  0  0  0  0  0  0  0  0  0
    9.7331  -16.3530   20.5931 C   0  0  0  0  0  0  0  0  0  0  0  0
   10.5140  -15.4249   20.2918 O   0  0  0  0  0  0  0  0  0  0  0  0
    8.8869  -16.1794   21.6961 N   0  0  0  0  0  0  0  0  0  0  0  0
    8.9495  -14.9975   22.5928 C   0  0  1  0  0  0  0  0  0  0  0  0
    7.5324  -14.7188   22.9402 C   0  0  0  0  0  0  0  0  0  0  0  0
    7.2524  -13.8019   24.0279 C   0  0  0  0  0  0  0  0  0  0  0  0
    6.6218  -14.1730   25.1840 C   0  0  0  0  0  0  0  0  0  0  0  0
    6.3547  -13.2913   26.2169 C   0  0  0  0  0  0  0  0  0  0  0  0
    6.7255  -11.9828   26.1072 C   0  0  0  0  0  0  0  0  0  0  0  0
    7.3720  -11.5705   24.9387 C   0  0  0  0  0  0  0  0  0  0  0  0
    7.6245  -12.4717   23.9271 C   0  0  0  0  0  0  0  0  0  0  0  0
    9.7361  -15.4177   23.7647 C   0  0  0  0  0  0  0  0  0  0  0  0
    9.9507  -14.5794   24.6997 O   0  0  0  0  0  0  0  0  0  0  0  0
   10.2977  -16.6980   23.9797 N   0  0  0  0  0  0  0  0  0  0  0  0
   11.4806  -16.9019   24.8033 C   0  0  1  0  0  0  0  0  0  0  0  0
   11.1192  -17.6772   26.0571 C   0  0  0  0  0  0  0  0  0  0  0  0
    9.9061  -17.1636   26.6911 C   0  0  0  0  0  0  0  0  0  0  0  0
    8.6346  -17.6239   26.4865 C   0  0  0  0  0  0  0  0  0  0  0  0
    7.8214  -16.8755   27.2463 N   0  0  0  0  0  0  0  0  0  0  0  0
    8.5360  -15.9529   27.9284 C   0  0  0  0  0  0  0  0  0  0  0  0
    8.1797  -14.9590   28.8293 C   0  0  0  0  0  0  0  0  0  0  0  0
    9.1620  -14.1565   29.3683 C   0  0  0  0  0  0  0  0  0  0  0  0
   10.4899  -14.3077   29.0423 C   0  0  0  0  0  0  0  0  0  0  0  0
   10.8513  -15.2933   28.1477 C   0  0  0  0  0  0  0  0  0  0  0  0
    9.8655  -16.1027   27.6033 C   0  0  0  0  0  0  0  0  0  0  0  0
   12.5552  -17.6360   24.1041 C   0  0  0  0  0  0  0  0  0  0  0  0
   12.4816  -18.1029   22.9472 O   0  0  0  0  0  0  0  0  0  0  0  0
   13.7499  -17.8127   24.8115 O   0  0  0  0  0  0  0  0  0  0  0  0
  2  3  1  6
  2  1  1  0
  4  2  1  0
  5  6  1  1
  5  4  1  0
  7  5  1  0
  8  7  2  0
  9  7  1  0
 10  9  1  0
 11 12  1  0
 10 11  1  1
 12 17  2  0
 13 14  2  0
 13 12  1  0
 14 15  1  0
 15 16  2  0
 17 16  1  0
 18 10  1  0
 18 20  1  0
 19 18  2  0
 21 20  1  0
 21 22  1  1
 22 23  1  0
 23 31  1  0
 24 23  2  0
 24 25  1  0
 25 26  1  0
 26 27  2  0
 27 28  1  0
 29 28  2  0
 30 29  1  0
 31 30  2  0
 31 26  1  0
 32 34  1  0
 32 21  1  0
 33 32  2  0
M  END
$$$$
