LFW.pdb
     RDKit          3D

 34 36  0  0  1  0  0  0  0  0999 V2000
    9.4040  -20.8570   19.7565 C   0  0  0  0  0  0  0  0  0  0  0  0
   10.6097  -20.0178   19.3305 C   0  0  2  0  0  0  0  0  0  0  0  0
   11.8024  -20.9440   19.2201 C   0  0  0  0  0  0  0  0  0  0  0  0
   10.8548  -18.8952   20.2897 C   0  0  0  0  0  0  0  0  0  0  0  0
    9.6414  -18.0272   20.3783 C   0  0  2  0  0  0  0  0  0  0  0  0
    9.0437  -17.7372   19.0950 N   0  0  0  0  0  0  0  0  0  0  0  0
    9.9134  -16.7357   21.0650 C   0  0  0  0  0  0  0  0  0  0  0  0
   10.9441  -16.0731   20.8185 O   0  0  0  0  0  0  0  0  0  0  0  0
    9.0095  -16.2337   22.0103 N   0  0  0  0  0  0  0  0  0  0  0  0
    9.1462  -14.8947   22.6374 C   0  0  1  0  0  0  0  0  0  0  0  0
    7.8686  -14.2048   22.3234 C   0  0  0  0  0  0  0  0  0  0  0  0
    7.6125  -13.8101   20.9520 C   0  0  0  0  0  0  0  0  0  0  0  0
    6.7375  -14.4652   20.1292 C   0  0  0  0  0  0  0  0  0  0  0  0
    6.5006  -14.0847   18.8197 C   0  0  0  0  0  0  0  0  0  0  0  0
    7.1555  -13.0089   18.2951 C   0  0  0  0  0  0  0  0  0  0  0  0
    8.0567  -12.3170   19.1090 C   0  0  0  0  0  0  0  0  0  0  0  0
    8.2717  -12.7196   20.4093 C   0  0  0  0  0  0  0  0  0  0  0  0
    9.3064  -15.1365   24.0811 C   0  0  0  0  0  0  0  0  0  0  0  0
    9.0663  -14.1891   24.8984 O   0  0  0  0  0  0  0  0  0  0  0  0
    9.7075  -16.3504   24.6864 N   0  0  0  0  0  0  0  0  0  0  0  0
   10.2018  -16.4132   26.0542 C   0  0  1  0  0  0  0  0  0  0  0  0
    9.0433  -16.5546   27.0244 C   0  0  0  0  0  0  0  0  0  0  0  0
    7.9123  -15.7034   26.6587 C   0  0  0  0  0  0  0  0  0  0  0  0
    6.7523  -16.1179   26.0648 C   0  0  0  0  0  0  0  0  0  0  0  0
    5.9906  -15.0276   25.8923 N   0  0  0  0  0  0  0  0  0  0  0  0
    6.6301  -13.9316   26.3582 C   0  0  0  0  0  0  0  0  0  0  0  0
    6.2840  -12.5886   26.4145 C   0  0  0  0  0  0  0  0  0  0  0  0
    7.1722  -11.6879   26.9616 C   0  0  0  0  0  0  0  0  0  0  0  0
    8.3957  -12.0763   27.4563 C   0  0  0  0  0  0  0  0  0  0  0  0
    8.7462  -13.4092   27.4037 C   0  0  0  0  0  0  0  0  0  0  0  0
    7.8550  -14.3184   26.8536 C   0  0  0  0  0  0  0  0  0  0  0  0
   11.1322  -17.5376   26.2841 C   0  0  0  0  0  0  0  0  0  0  0  0
   11.7822  -17.7394   27.3323 O   0  0  0  0  0  0  0  0  0  0  0  0
   11.2851  -18.4442   25.2288 O   0  0  0  0  0  0  0  0  0  0  0  0
  2  3  1  1
  2  1  1  0
  4  2  1  0
  5  6  1  6
  5  4  1  0
  7  5  1  0
  8  7  2  0
  9  7  1  0
 10  9  1  0
 11 12  1  0
 10 11  1  1
 12 17  2  0
 13 14  2  0
 13 12  1  0
 14 15  1  0
 15 16  2  0
 17 16  1  0
 18 10  1  0
 18 20  1  0
 19 18  2  0
 21 20  1  0
 21 22  1  1
 22 23  1  0
 23 31  1  0
 24 23  2  0
 24 25  1  0
 25 26  1  0
 26 27  2  0
 27 28  1  0
 29 28  2  0
 30 29  1  0
 31 30  2  0
 31 26  1  0
 32 34  1  0
 32 21  1  0
 33 32  2  0
M  END
$$$$
