LFW.pdb
     RDKit          3D

 34 36  0  0  1  0  0  0  0  0999 V2000
    9.5228  -13.0170   18.7794 C   0  0  0  0  0  0  0  0  0  0  0  0
    8.0682  -13.3734   18.4689 C   0  0  2  0  0  0  0  0  0  0  0  0
    7.3997  -12.1381   17.9035 C   0  0  0  0  0  0  0  0  0  0  0  0
    7.3646  -13.8878   19.6857 C   0  0  0  0  0  0  0  0  0  0  0  0
    8.1289  -15.0314   20.2703 C   0  0  2  0  0  0  0  0  0  0  0  0
    8.3196  -16.1293   19.3502 N   0  0  0  0  0  0  0  0  0  0  0  0
    7.4967  -15.5672   21.5060 C   0  0  0  0  0  0  0  0  0  0  0  0
    6.9844  -14.8074   22.3558 O   0  0  0  0  0  0  0  0  0  0  0  0
    7.4640  -16.9478   21.7416 N   0  0  0  0  0  0  0  0  0  0  0  0
    6.8613  -17.5529   22.9563 C   0  0  1  0  0  0  0  0  0  0  0  0
    6.3308  -18.8617   22.4956 C   0  0  0  0  0  0  0  0  0  0  0  0
    5.0767  -18.8845   21.7684 C   0  0  0  0  0  0  0  0  0  0  0  0
    3.8557  -18.7254   22.3649 C   0  0  0  0  0  0  0  0  0  0  0  0
    2.6621  -18.7518   21.6647 C   0  0  0  0  0  0  0  0  0  0  0  0
    2.6702  -18.9439   20.3139 C   0  0  0  0  0  0  0  0  0  0  0  0
    3.9011  -19.1099   19.6731 C   0  0  0  0  0  0  0  0  0  0  0  0
    5.0733  -19.0787   20.3972 C   0  0  0  0  0  0  0  0  0  0  0  0
    7.9621  -17.7088   23.9218 C   0  0  0  0  0  0  0  0  0  0  0  0
    9.0297  -18.2991   23.5543 O   0  0  0  0  0  0  0  0  0  0  0  0
    7.9701  -17.2551   25.2616 N   0  0  0  0  0  0  0  0  0  0  0  0
    9.1795  -17.2388   26.0717 C   0  0  1  0  0  0  0  0  0  0  0  0
    9.1913  -16.0167   26.9716 C   0  0  0  0  0  0  0  0  0  0  0  0
    7.9802  -15.2115   26.8219 C   0  0  0  0  0  0  0  0  0  0  0  0
    6.7390  -15.6793   26.4889 C   0  0  0  0  0  0  0  0  0  0  0  0
    5.9201  -14.6181   26.4465 N   0  0  0  0  0  0  0  0  0  0  0  0
    6.6018  -13.4889   26.7422 C   0  0  0  0  0  0  0  0  0  0  0  0
    6.2272  -12.1554   26.8319 C   0  0  0  0  0  0  0  0  0  0  0  0
    7.1756  -11.2114   27.1617 C   0  0  0  0  0  0  0  0  0  0  0  0
    8.4871  -11.5472   27.4063 C   0  0  0  0  0  0  0  0  0  0  0  0
    8.8664  -12.8704   27.3190 C   0  0  0  0  0  0  0  0  0  0  0  0
    7.9147  -13.8231   26.9872 C   0  0  0  0  0  0  0  0  0  0  0  0
    9.3235  -18.4371   26.9239 C   0  0  0  0  0  0  0  0  0  0  0  0
    8.4617  -19.3297   27.0730 O   0  0  0  0  0  0  0  0  0  0  0  0
   10.5342  -18.5679   27.6138 O   0  0  0  0  0  0  0  0  0  0  0  0
  2  3  1  1
  2  1  1  0
  4  2  1  0
  5  6  1  6
  5  4  1  0
  7  5  1  0
  8  7  2  0
  9  7  1  0
 10  9  1  0
 11 12  1  0
 10 11  1  6
 12 17  2  0
 13 14  2  0
 13 12  1  0
 14 15  1  0
 15 16  2  0
 17 16  1  0
 18 10  1  0
 18 20  1  0
 19 18  2  0
 21 20  1  0
 21 22  1  1
 22 23  1  0
 23 31  1  0
 24 23  2  0
 24 25  1  0
 25 26  1  0
 26 27  2  0
 27 28  1  0
 29 28  2  0
 30 29  1  0
 31 30  2  0
 31 26  1  0
 32 34  1  0
 32 21  1  0
 33 32  2  0
M  END
$$$$
