LFW.pdb
     RDKit          3D

 34 36  0  0  1  0  0  0  0  0999 V2000
    6.5925  -13.5621   18.0162 C   0  0  0  0  0  0  0  0  0  0  0  0
    7.7589  -13.7857   18.9799 C   0  0  2  0  0  0  0  0  0  0  0  0
    8.3076  -12.4282   19.3654 C   0  0  0  0  0  0  0  0  0  0  0  0
    8.8059  -14.6639   18.3690 C   0  0  0  0  0  0  0  0  0  0  0  0
    8.9775  -15.8995   19.1921 C   0  0  2  0  0  0  0  0  0  0  0  0
    7.8209  -16.7658   19.1818 N   0  0  0  0  0  0  0  0  0  0  0  0
    9.3176  -15.5979   20.6088 C   0  0  0  0  0  0  0  0  0  0  0  0
   10.4307  -15.1244   20.9233 O   0  0  0  0  0  0  0  0  0  0  0  0
    8.3863  -15.8418   21.6266 N   0  0  0  0  0  0  0  0  0  0  0  0
    8.5702  -15.3821   23.0265 C   0  0  1  0  0  0  0  0  0  0  0  0
    7.2506  -14.8175   23.4090 C   0  0  0  0  0  0  0  0  0  0  0  0
    7.1529  -14.0534   24.6373 C   0  0  0  0  0  0  0  0  0  0  0  0
    6.6258  -14.5530   25.7968 C   0  0  0  0  0  0  0  0  0  0  0  0
    6.5325  -13.8164   26.9648 C   0  0  0  0  0  0  0  0  0  0  0  0
    6.9790  -12.5274   26.9934 C   0  0  0  0  0  0  0  0  0  0  0  0
    7.5233  -11.9860   25.8255 C   0  0  0  0  0  0  0  0  0  0  0  0
    7.6031  -12.7442   24.6775 C   0  0  0  0  0  0  0  0  0  0  0  0
    8.9076  -16.5837   23.8079 C   0  0  0  0  0  0  0  0  0  0  0  0
    8.3795  -17.6985   23.4893 O   0  0  0  0  0  0  0  0  0  0  0  0
    9.7898  -16.6430   24.9120 N   0  0  0  0  0  0  0  0  0  0  0  0
   10.2355  -17.9041   25.4867 C   0  0  1  0  0  0  0  0  0  0  0  0
   11.3701  -17.6623   26.4653 C   0  0  0  0  0  0  0  0  0  0  0  0
   10.8860  -17.2051   27.7669 C   0  0  0  0  0  0  0  0  0  0  0  0
   10.7547  -17.9723   28.8914 C   0  0  0  0  0  0  0  0  0  0  0  0
   10.2696  -17.1745   29.8540 N   0  0  0  0  0  0  0  0  0  0  0  0
   10.0882  -15.9228   29.3771 C   0  0  0  0  0  0  0  0  0  0  0  0
    9.6192  -14.7507   29.9542 C   0  0  0  0  0  0  0  0  0  0  0  0
    9.5485  -13.6063   29.1894 C   0  0  0  0  0  0  0  0  0  0  0  0
    9.9288  -13.5859   27.8675 C   0  0  0  0  0  0  0  0  0  0  0  0
   10.3958  -14.7468   27.2875 C   0  0  0  0  0  0  0  0  0  0  0  0
   10.4682  -15.9004   28.0540 C   0  0  0  0  0  0  0  0  0  0  0  0
    9.1628  -18.6290   26.1984 C   0  0  0  0  0  0  0  0  0  0  0  0
    8.0308  -18.1717   26.4650 O   0  0  0  0  0  0  0  0  0  0  0  0
    9.4563  -19.9376   26.5990 O   0  0  0  0  0  0  0  0  0  0  0  0
  2  3  1  6
  2  1  1  0
  4  2  1  0
  5  6  1  1
  5  4  1  0
  7  5  1  0
  8  7  2  0
  9  7  1  0
 10  9  1  0
 11 12  1  0
 10 11  1  1
 12 17  2  0
 13 14  2  0
 13 12  1  0
 14 15  1  0
 15 16  2  0
 17 16  1  0
 18 10  1  0
 18 20  1  0
 19 18  2  0
 21 20  1  0
 21 22  1  1
 22 23  1  0
 23 31  1  0
 24 23  2  0
 24 25  1  0
 25 26  1  0
 26 27  2  0
 27 28  1  0
 29 28  2  0
 30 29  1  0
 31 30  2  0
 31 26  1  0
 32 34  1  0
 32 21  1  0
 33 32  2  0
M  END
$$$$
