LFW.pdb
     RDKit          3D

 34 36  0  0  1  0  0  0  0  0999 V2000
    9.7352  -19.1894   16.7344 C   0  0  0  0  0  0  0  0  0  0  0  0
    9.1718  -17.7683   16.6845 C   0  0  2  0  0  0  0  0  0  0  0  0
    9.4406  -17.2122   15.3021 C   0  0  0  0  0  0  0  0  0  0  0  0
    9.7631  -16.9127   17.7609 C   0  0  0  0  0  0  0  0  0  0  0  0
    9.4395  -17.4864   19.1025 C   0  0  2  0  0  0  0  0  0  0  0  0
    8.0705  -17.9325   19.2250 N   0  0  0  0  0  0  0  0  0  0  0  0
    9.7174  -16.5343   20.2116 C   0  0  0  0  0  0  0  0  0  0  0  0
   10.8285  -15.9730   20.3232 O   0  0  0  0  0  0  0  0  0  0  0  0
    8.7280  -16.2469   21.1609 N   0  0  0  0  0  0  0  0  0  0  0  0
    8.9394  -15.3225   22.3036 C   0  0  1  0  0  0  0  0  0  0  0  0
    7.6043  -14.7171   22.5441 C   0  0  0  0  0  0  0  0  0  0  0  0
    7.4112  -13.9152   23.7364 C   0  0  0  0  0  0  0  0  0  0  0  0
    7.9787  -12.6836   23.9174 C   0  0  0  0  0  0  0  0  0  0  0  0
    7.7927  -11.9251   25.0602 C   0  0  0  0  0  0  0  0  0  0  0  0
    7.0114  -12.4009   26.0724 C   0  0  0  0  0  0  0  0  0  0  0  0
    6.4164  -13.6562   25.9197 C   0  0  0  0  0  0  0  0  0  0  0  0
    6.6200  -14.3884   24.7700 C   0  0  0  0  0  0  0  0  0  0  0  0
    9.3790  -16.1628   23.4301 C   0  0  0  0  0  0  0  0  0  0  0  0
    8.7390  -17.2329   23.6916 O   0  0  0  0  0  0  0  0  0  0  0  0
   10.4772  -15.9084   24.2846 N   0  0  0  0  0  0  0  0  0  0  0  0
   11.0052  -16.9137   25.1955 C   0  0  1  0  0  0  0  0  0  0  0  0
    9.9430  -17.3203   26.2004 C   0  0  0  0  0  0  0  0  0  0  0  0
    9.3957  -16.1702   26.9182 C   0  0  0  0  0  0  0  0  0  0  0  0
    8.2043  -15.5515   26.6573 C   0  0  0  0  0  0  0  0  0  0  0  0
    8.0892  -14.5412   27.5318 N   0  0  0  0  0  0  0  0  0  0  0  0
    9.1707  -14.4977   28.3415 C   0  0  0  0  0  0  0  0  0  0  0  0
    9.5335  -13.6624   29.3890 C   0  0  0  0  0  0  0  0  0  0  0  0
   10.7313  -13.8770   30.0361 C   0  0  0  0  0  0  0  0  0  0  0  0
   11.5835  -14.8956   29.6776 C   0  0  0  0  0  0  0  0  0  0  0  0
   11.2295  -15.7295   28.6376 C   0  0  0  0  0  0  0  0  0  0  0  0
   10.0249  -15.5165   27.9841 C   0  0  0  0  0  0  0  0  0  0  0  0
   11.4743  -18.1330   24.5056 C   0  0  0  0  0  0  0  0  0  0  0  0
   11.3028  -18.3940   23.2955 O   0  0  0  0  0  0  0  0  0  0  0  0
   12.1689  -19.0625   25.2884 O   0  0  0  0  0  0  0  0  0  0  0  0
  2  3  1  6
  2  1  1  0
  4  2  1  0
  5  6  1  6
  5  4  1  0
  7  5  1  0
  8  7  2  0
  9  7  1  0
 10  9  1  0
 11 12  1  0
 10 11  1  1
 12 17  2  0
 13 14  2  0
 13 12  1  0
 14 15  1  0
 15 16  2  0
 17 16  1  0
 18 10  1  0
 18 20  1  0
 19 18  2  0
 21 20  1  0
 21 22  1  1
 22 23  1  0
 23 31  1  0
 24 23  2  0
 24 25  1  0
 25 26  1  0
 26 27  2  0
 27 28  1  0
 29 28  2  0
 30 29  1  0
 31 30  2  0
 31 26  1  0
 32 34  1  0
 32 21  1  0
 33 32  2  0
M  END
$$$$
