LFW.pdb
     RDKit          3D

 34 36  0  0  1  0  0  0  0  0999 V2000
    8.6108  -19.3834   17.5944 C   0  0  0  0  0  0  0  0  0  0  0  0
    8.9526  -17.8960   17.4935 C   0  0  2  0  0  0  0  0  0  0  0  0
    9.4296  -17.6255   16.0822 C   0  0  0  0  0  0  0  0  0  0  0  0
    9.9712  -17.5034   18.5175 C   0  0  0  0  0  0  0  0  0  0  0  0
    9.4244  -17.7256   19.8906 C   0  0  2  0  0  0  0  0  0  0  0  0
    8.0761  -18.2455   19.8983 N   0  0  0  0  0  0  0  0  0  0  0  0
    9.4496  -16.4912   20.7208 C   0  0  0  0  0  0  0  0  0  0  0  0
   10.3244  -15.6141   20.5548 O   0  0  0  0  0  0  0  0  0  0  0  0
    8.4830  -16.2877   21.7142 N   0  0  0  0  0  0  0  0  0  0  0  0
    8.6001  -15.2433   22.7632 C   0  0  1  0  0  0  0  0  0  0  0  0
    7.1975  -14.8517   23.0564 C   0  0  0  0  0  0  0  0  0  0  0  0
    6.9508  -13.9086   24.1296 C   0  0  0  0  0  0  0  0  0  0  0  0
    7.3828  -12.6106   24.1075 C   0  0  0  0  0  0  0  0  0  0  0  0
    7.1466  -11.7167   25.1374 C   0  0  0  0  0  0  0  0  0  0  0  0
    6.4524  -12.1188   26.2411 C   0  0  0  0  0  0  0  0  0  0  0  0
    5.9966  -13.4388   26.2957 C   0  0  0  0  0  0  0  0  0  0  0  0
    6.2472  -14.3060   25.2544 C   0  0  0  0  0  0  0  0  0  0  0  0
    9.2471  -15.8944   23.9146 C   0  0  0  0  0  0  0  0  0  0  0  0
    8.8327  -15.6293   25.0898 O   0  0  0  0  0  0  0  0  0  0  0  0
   10.3148  -16.8207   23.8605 N   0  0  0  0  0  0  0  0  0  0  0  0
   11.5474  -16.6340   24.6123 C   0  0  1  0  0  0  0  0  0  0  0  0
   11.5031  -17.4367   25.8996 C   0  0  0  0  0  0  0  0  0  0  0  0
   10.4101  -17.0144   26.7740 C   0  0  0  0  0  0  0  0  0  0  0  0
    9.2193  -17.6647   26.9449 C   0  0  0  0  0  0  0  0  0  0  0  0
    8.5009  -16.9415   27.8164 N   0  0  0  0  0  0  0  0  0  0  0  0
    9.1979  -15.8507   28.2057 C   0  0  0  0  0  0  0  0  0  0  0  0
    8.9106  -14.8064   29.0738 C   0  0  0  0  0  0  0  0  0  0  0  0
    9.8491  -13.8158   29.2676 C   0  0  0  0  0  0  0  0  0  0  0  0
   11.0666  -13.8270   28.6273 C   0  0  0  0  0  0  0  0  0  0  0  0
   11.3589  -14.8616   27.7634 C   0  0  0  0  0  0  0  0  0  0  0  0
   10.4168  -15.8601   27.5657 C   0  0  0  0  0  0  0  0  0  0  0  0
   12.7529  -17.0394   23.8604 C   0  0  0  0  0  0  0  0  0  0  0  0
   13.9333  -16.8570   24.2280 O   0  0  0  0  0  0  0  0  0  0  0  0
   12.5356  -17.6822   22.6362 O   0  0  0  0  0  0  0  0  0  0  0  0
  2  3  1  6
  2  1  1  0
  4  2  1  0
  5  6  1  6
  5  4  1  0
  7  5  1  0
  8  7  2  0
  9  7  1  0
 10  9  1  0
 11 12  1  0
 10 11  1  1
 12 17  2  0
 13 14  2  0
 13 12  1  0
 14 15  1  0
 15 16  2  0
 17 16  1  0
 18 10  1  0
 18 20  1  0
 19 18  2  0
 21 20  1  0
 21 22  1  1
 22 23  1  0
 23 31  1  0
 24 23  2  0
 24 25  1  0
 25 26  1  0
 26 27  2  0
 27 28  1  0
 29 28  2  0
 30 29  1  0
 31 30  2  0
 31 26  1  0
 32 34  1  0
 32 21  1  0
 33 32  2  0
M  END
$$$$
