LFW.pdb
     RDKit          3D

 34 36  0  0  1  0  0  0  0  0999 V2000
    2.8876  -20.3132   20.8481 C   0  0  0  0  0  0  0  0  0  0  0  0
    2.2519  -19.4280   21.9212 C   0  0  2  0  0  0  0  0  0  0  0  0
    0.8252  -19.1441   21.5015 C   0  0  0  0  0  0  0  0  0  0  0  0
    3.0401  -18.1719   22.1243 C   0  0  0  0  0  0  0  0  0  0  0  0
    4.4503  -18.5088   22.4868 C   0  0  2  0  0  0  0  0  0  0  0  0
    4.5572  -19.4500   23.5781 N   0  0  0  0  0  0  0  0  0  0  0  0
    5.2530  -17.3049   22.8332 C   0  0  0  0  0  0  0  0  0  0  0  0
    5.2197  -16.2757   22.1248 O   0  0  0  0  0  0  0  0  0  0  0  0
    6.0692  -17.3032   23.9718 N   0  0  0  0  0  0  0  0  0  0  0  0
    6.8500  -16.1196   24.4128 C   0  0  1  0  0  0  0  0  0  0  0  0
    6.6257  -16.0517   25.8796 C   0  0  0  0  0  0  0  0  0  0  0  0
    7.0332  -14.8545   26.5887 C   0  0  0  0  0  0  0  0  0  0  0  0
    6.2110  -13.7794   26.7889 C   0  0  0  0  0  0  0  0  0  0  0  0
    6.6081  -12.6382   27.4638 C   0  0  0  0  0  0  0  0  0  0  0  0
    7.8738  -12.5506   27.9655 C   0  0  0  0  0  0  0  0  0  0  0  0
    8.7397  -13.6316   27.7785 C   0  0  0  0  0  0  0  0  0  0  0  0
    8.3156  -14.7550   27.1022 C   0  0  0  0  0  0  0  0  0  0  0  0
    8.2541  -16.4115   24.0788 C   0  0  0  0  0  0  0  0  0  0  0  0
    8.7274  -17.5642   24.3439 O   0  0  0  0  0  0  0  0  0  0  0  0
    9.1707  -15.5235   23.4687 N   0  0  0  0  0  0  0  0  0  0  0  0
   10.5323  -15.9162   23.1355 C   0  0  1  0  0  0  0  0  0  0  0  0
   11.0954  -14.9993   22.0652 C   0  0  0  0  0  0  0  0  0  0  0  0
   10.2658  -14.9843   20.8614 C   0  0  0  0  0  0  0  0  0  0  0  0
   10.4849  -15.7116   19.7241 C   0  0  0  0  0  0  0  0  0  0  0  0
    9.5046  -15.3971   18.8646 N   0  0  0  0  0  0  0  0  0  0  0  0
    8.6681  -14.4920   19.4197 C   0  0  0  0  0  0  0  0  0  0  0  0
    7.5237  -13.8561   18.9586 C   0  0  0  0  0  0  0  0  0  0  0  0
    6.8751  -12.9599   19.7806 C   0  0  0  0  0  0  0  0  0  0  0  0
    7.3252  -12.6729   21.0484 C   0  0  0  0  0  0  0  0  0  0  0  0
    8.4617  -13.3010   21.5132 C   0  0  0  0  0  0  0  0  0  0  0  0
    9.1171  -14.2033   20.6888 C   0  0  0  0  0  0  0  0  0  0  0  0
   11.4465  -15.8823   24.2956 C   0  0  0  0  0  0  0  0  0  0  0  0
   12.6465  -16.2310   24.2848 O   0  0  0  0  0  0  0  0  0  0  0  0
   10.9065  -15.4160   25.4998 O   0  0  0  0  0  0  0  0  0  0  0  0
  2  3  1  6
  2  1  1  0
  4  2  1  0
  5  6  1  1
  5  4  1  0
  7  5  1  0
  8  7  2  0
  9  7  1  0
 10  9  1  0
 11 12  1  0
 10 11  1  1
 12 17  2  0
 13 14  2  0
 13 12  1  0
 14 15  1  0
 15 16  2  0
 17 16  1  0
 18 10  1  0
 18 20  1  0
 19 18  2  0
 21 20  1  0
 21 22  1  6
 22 23  1  0
 23 31  1  0
 24 23  2  0
 24 25  1  0
 25 26  1  0
 26 27  2  0
 27 28  1  0
 29 28  2  0
 30 29  1  0
 31 30  2  0
 31 26  1  0
 32 34  1  0
 32 21  1  0
 33 32  2  0
M  END
$$$$
