VPD.pdb
     RDKit          3D

 23 23  0  0  1  0  0  0  0  0999 V2000
    8.0184  -13.3977   27.0686 C   0  0  0  0  0  0  0  0  0  0  0  0
    7.2412  -12.5818   26.0383 C   0  0  2  0  0  0  0  0  0  0  0  0
    6.5708  -11.4188   26.6896 C   0  0  0  0  0  0  0  0  0  0  0  0
    6.2546  -13.5689   25.4084 C   0  0  2  0  0  0  0  0  0  0  0  0
    5.6420  -14.2688   26.5694 N   0  0  0  0  0  0  0  0  0  0  0  0
    7.0197  -14.5900   24.6413 C   0  0  0  0  0  0  0  0  0  0  0  0
    7.3682  -15.6308   25.3118 O   0  0  0  0  0  0  0  0  0  0  0  0
    7.3632  -14.4769   23.2723 N   0  0  0  0  0  0  0  0  0  0  0  0
    7.0303  -13.4103   22.3566 C   0  0  0  0  0  0  0  0  0  0  0  0
    6.9520  -14.1371   20.9915 C   0  0  0  0  0  0  0  0  0  0  0  0
    8.1691  -15.0271   21.1224 C   0  0  0  0  0  0  0  0  0  0  0  0
    8.1144  -15.4791   22.5368 C   0  0  1  0  0  0  0  0  0  0  0  0
    9.4396  -15.6242   23.1710 C   0  0  0  0  0  0  0  0  0  0  0  0
    9.7476  -14.9775   24.2065 O   0  0  0  0  0  0  0  0  0  0  0  0
   10.4486  -16.4982   22.6574 N   0  0  0  0  0  0  0  0  0  0  0  0
   11.6504  -16.8287   23.3516 C   0  0  1  0  0  0  0  0  0  0  0  0
   11.2931  -17.4049   24.7033 C   0  0  0  0  0  0  0  0  0  0  0  0
   12.5585  -17.7499   25.3988 C   0  0  0  0  0  0  0  0  0  0  0  0
   13.6067  -17.0571   25.2834 O   0  0  0  0  0  0  0  0  0  0  0  0
   12.5145  -17.7809   22.6157 C   0  0  0  0  0  0  0  0  0  0  0  0
   12.1253  -18.8733   22.1566 O   0  0  0  0  0  0  0  0  0  0  0  0
   12.6660  -18.8674   26.2266 O   0  0  0  0  0  0  0  0  0  0  0  0
   13.8456  -17.4401   22.4207 O   0  0  0  0  0  0  0  0  0  0  0  0
  2  1  1  1
  2  3  1  0
  4  2  1  0
  4  5  1  1
  6  4  1  0
  6  8  1  0
  7  6  2  0
  8 12  1  0
  9  8  1  0
 10 11  1  0
 10  9  1  0
 11 12  1  0
 12 13  1  1
 13 15  1  0
 14 13  2  0
 15 16  1  0
 16 20  1  0
 17 18  1  0
 16 17  1  1
 18 22  1  0
 19 18  2  0
 20 21  2  0
 20 23  1  0
M  END
$$$$
