VPD.pdb
     RDKit          3D

 23 23  0  0  1  0  0  0  0  0999 V2000
    9.0969  -17.8694   17.0945 C   0  0  0  0  0  0  0  0  0  0  0  0
    7.9911  -16.9035   16.6757 C   0  0  2  0  0  0  0  0  0  0  0  0
    7.2840  -17.4113   15.4640 C   0  0  0  0  0  0  0  0  0  0  0  0
    8.6968  -15.5647   16.4429 C   0  0  2  0  0  0  0  0  0  0  0  0
    9.8079  -15.8915   15.5093 N   0  0  0  0  0  0  0  0  0  0  0  0
    9.3202  -15.1213   17.7201 C   0  0  0  0  0  0  0  0  0  0  0  0
   10.5136  -15.5545   17.9261 O   0  0  0  0  0  0  0  0  0  0  0  0
    8.6929  -14.2822   18.6725 N   0  0  0  0  0  0  0  0  0  0  0  0
    7.4306  -13.5897   18.5538 C   0  0  0  0  0  0  0  0  0  0  0  0
    7.6414  -12.3317   19.4319 C   0  0  0  0  0  0  0  0  0  0  0  0
    8.3465  -12.9738   20.6072 C   0  0  0  0  0  0  0  0  0  0  0  0
    9.2647  -13.9504   19.9659 C   0  0  1  0  0  0  0  0  0  0  0  0
    9.4389  -15.2006   20.7312 C   0  0  0  0  0  0  0  0  0  0  0  0
    8.9002  -16.2776   20.3632 O   0  0  0  0  0  0  0  0  0  0  0  0
   10.2214  -15.2704   21.9264 N   0  0  0  0  0  0  0  0  0  0  0  0
   10.5198  -16.4819   22.6183 C   0  0  1  0  0  0  0  0  0  0  0  0
   11.2798  -17.4022   21.6897 C   0  0  0  0  0  0  0  0  0  0  0  0
   11.6315  -18.6268   22.4518 C   0  0  0  0  0  0  0  0  0  0  0  0
   11.0974  -18.9141   23.5581 O   0  0  0  0  0  0  0  0  0  0  0  0
   11.2971  -16.2751   23.8624 C   0  0  0  0  0  0  0  0  0  0  0  0
   11.0392  -16.8244   24.9522 O   0  0  0  0  0  0  0  0  0  0  0  0
   12.5794  -19.5390   21.9882 O   0  0  0  0  0  0  0  0  0  0  0  0
   12.3852  -15.4148   23.8187 O   0  0  0  0  0  0  0  0  0  0  0  0
  2  1  1  6
  2  3  1  0
  4  2  1  0
  4  5  1  6
  6  4  1  0
  6  8  1  0
  7  6  2  0
  8 12  1  0
  9  8  1  0
 10 11  1  0
 10  9  1  0
 11 12  1  0
 12 13  1  1
 13 15  1  0
 14 13  2  0
 15 16  1  0
 16 20  1  0
 17 18  1  0
 16 17  1  6
 18 22  1  0
 19 18  2  0
 20 21  2  0
 20 23  1  0
M  END
$$$$
