VPD.pdb
     RDKit          3D

 23 23  0  0  1  0  0  0  0  0999 V2000
    7.5831  -13.9156   18.4743 C   0  0  0  0  0  0  0  0  0  0  0  0
    7.9593  -14.4949   19.8359 C   0  0  2  0  0  0  0  0  0  0  0  0
    6.7982  -15.2131   20.4378 C   0  0  0  0  0  0  0  0  0  0  0  0
    8.4205  -13.2947   20.6674 C   0  0  2  0  0  0  0  0  0  0  0  0
    9.6246  -12.7924   19.9527 N   0  0  0  0  0  0  0  0  0  0  0  0
    8.8776  -13.7794   21.9988 C   0  0  0  0  0  0  0  0  0  0  0  0
   10.0173  -14.3755   22.0027 O   0  0  0  0  0  0  0  0  0  0  0  0
    8.1531  -13.6200   23.2049 N   0  0  0  0  0  0  0  0  0  0  0  0
    6.8876  -12.9515   23.4010 C   0  0  0  0  0  0  0  0  0  0  0  0
    6.9935  -12.4282   24.8545 C   0  0  0  0  0  0  0  0  0  0  0  0
    7.6161  -13.6452   25.5039 C   0  0  0  0  0  0  0  0  0  0  0  0
    8.6084  -14.1028   24.4969 C   0  0  1  0  0  0  0  0  0  0  0  0
    8.7512  -15.5701   24.4204 C   0  0  0  0  0  0  0  0  0  0  0  0
    7.8673  -16.2901   23.8857 O   0  0  0  0  0  0  0  0  0  0  0  0
    9.8888  -16.2624   24.9422 N   0  0  0  0  0  0  0  0  0  0  0  0
    9.9511  -17.6760   25.1253 C   0  0  1  0  0  0  0  0  0  0  0  0
   10.9105  -18.2595   24.1125 C   0  0  0  0  0  0  0  0  0  0  0  0
   12.2367  -17.6274   24.3266 C   0  0  0  0  0  0  0  0  0  0  0  0
   12.4158  -16.3813   24.2421 O   0  0  0  0  0  0  0  0  0  0  0  0
   10.3621  -18.0768   26.4910 C   0  0  0  0  0  0  0  0  0  0  0  0
   10.7119  -17.2782   27.3829 O   0  0  0  0  0  0  0  0  0  0  0  0
   13.3715  -18.3772   24.6359 O   0  0  0  0  0  0  0  0  0  0  0  0
   10.3593  -19.4287   26.8048 O   0  0  0  0  0  0  0  0  0  0  0  0
  2  1  1  6
  2  3  1  0
  4  2  1  0
  4  5  1  6
  6  4  1  0
  6  8  1  0
  7  6  2  0
  8 12  1  0
  9  8  1  0
 10 11  1  0
 10  9  1  0
 11 12  1  0
 12 13  1  6
 13 15  1  0
 14 13  2  0
 15 16  1  0
 16 20  1  0
 17 18  1  0
 16 17  1  6
 18 22  1  0
 19 18  2  0
 20 21  2  0
 20 23  1  0
M  END
$$$$
