VPD.pdb
     RDKit          3D

 23 23  0  0  1  0  0  0  0  0999 V2000
    9.1443  -17.6678   16.2811 C   0  0  0  0  0  0  0  0  0  0  0  0
    8.0793  -16.6255   15.9486 C   0  0  2  0  0  0  0  0  0  0  0  0
    7.4122  -16.9534   14.6549 C   0  0  0  0  0  0  0  0  0  0  0  0
    8.8242  -15.2881   15.9188 C   0  0  2  0  0  0  0  0  0  0  0  0
   10.0006  -15.5413   15.0442 N   0  0  0  0  0  0  0  0  0  0  0  0
    9.3511  -15.0007   17.2813 C   0  0  0  0  0  0  0  0  0  0  0  0
   10.5328  -15.4503   17.5174 O   0  0  0  0  0  0  0  0  0  0  0  0
    8.6477  -14.2868   18.2815 N   0  0  0  0  0  0  0  0  0  0  0  0
    7.3243  -13.7132   18.2011 C   0  0  0  0  0  0  0  0  0  0  0  0
    7.4146  -12.4979   19.1564 C   0  0  0  0  0  0  0  0  0  0  0  0
    8.1808  -13.1408   20.2922 C   0  0  0  0  0  0  0  0  0  0  0  0
    9.1875  -13.9826   19.5952 C   0  0  1  0  0  0  0  0  0  0  0  0
    9.4831  -15.2553   20.2821 C   0  0  0  0  0  0  0  0  0  0  0  0
    9.1076  -16.3604   19.8096 O   0  0  0  0  0  0  0  0  0  0  0  0
   10.2065  -15.3166   21.5144 N   0  0  0  0  0  0  0  0  0  0  0  0
   10.7165  -16.5211   22.0843 C   0  0  1  0  0  0  0  0  0  0  0  0
   11.6227  -17.1941   21.0781 C   0  0  0  0  0  0  0  0  0  0  0  0
   12.1056  -18.4628   21.6792 C   0  0  0  0  0  0  0  0  0  0  0  0
   12.3975  -18.5660   22.9023 O   0  0  0  0  0  0  0  0  0  0  0  0
   11.4503  -16.3090   23.3537 C   0  0  0  0  0  0  0  0  0  0  0  0
   12.3776  -15.4881   23.5012 O   0  0  0  0  0  0  0  0  0  0  0  0
   12.2669  -19.6242   20.9237 O   0  0  0  0  0  0  0  0  0  0  0  0
   11.0861  -17.0709   24.4550 O   0  0  0  0  0  0  0  0  0  0  0  0
  2  1  1  6
  2  3  1  0
  4  2  1  0
  4  5  1  6
  6  4  1  0
  6  8  1  0
  7  6  2  0
  8 12  1  0
  9  8  1  0
 10 11  1  0
 10  9  1  0
 11 12  1  0
 12 13  1  1
 13 15  1  0
 14 13  2  0
 15 16  1  0
 16 20  1  0
 17 18  1  0
 16 17  1  6
 18 22  1  0
 19 18  2  0
 20 21  2  0
 20 23  1  0
M  END
$$$$
