VPD.pdb
     RDKit          3D

 23 23  0  0  1  0  0  0  0  0999 V2000
    8.4633  -17.3760   25.8833 C   0  0  0  0  0  0  0  0  0  0  0  0
    7.3340  -16.4046   25.5485 C   0  0  2  0  0  0  0  0  0  0  0  0
    6.3595  -16.3267   26.6757 C   0  0  0  0  0  0  0  0  0  0  0  0
    6.7152  -16.9414   24.2549 C   0  0  2  0  0  0  0  0  0  0  0  0
    6.4384  -18.3738   24.5459 N   0  0  0  0  0  0  0  0  0  0  0  0
    7.7446  -16.9086   23.1798 C   0  0  0  0  0  0  0  0  0  0  0  0
    8.3176  -18.0340   22.9360 O   0  0  0  0  0  0  0  0  0  0  0  0
    8.1037  -15.7527   22.4452 N   0  0  0  0  0  0  0  0  0  0  0  0
    7.5319  -14.4291   22.5333 C   0  0  0  0  0  0  0  0  0  0  0  0
    7.7159  -13.8756   21.0989 C   0  0  0  0  0  0  0  0  0  0  0  0
    9.1234  -14.3634   20.8313 C   0  0  0  0  0  0  0  0  0  0  0  0
    9.1325  -15.7276   21.4202 C   0  0  1  0  0  0  0  0  0  0  0  0
   10.4175  -16.1028   22.0425 C   0  0  0  0  0  0  0  0  0  0  0  0
   10.6416  -15.8966   23.2643 O   0  0  0  0  0  0  0  0  0  0  0  0
   11.4796  -16.7178   21.3080 N   0  0  0  0  0  0  0  0  0  0  0  0
   12.7561  -17.0352   21.8606 C   0  0  1  0  0  0  0  0  0  0  0  0
   13.1866  -18.3925   21.3518 C   0  0  0  0  0  0  0  0  0  0  0  0
   14.5071  -18.7053   21.9541 C   0  0  0  0  0  0  0  0  0  0  0  0
   15.5709  -18.7389   21.2765 O   0  0  0  0  0  0  0  0  0  0  0  0
   13.8001  -16.0312   21.5497 C   0  0  0  0  0  0  0  0  0  0  0  0
   13.8871  -15.4196   20.4662 O   0  0  0  0  0  0  0  0  0  0  0  0
   14.6523  -18.9827   23.3133 O   0  0  0  0  0  0  0  0  0  0  0  0
   14.7464  -15.7479   22.5246 O   0  0  0  0  0  0  0  0  0  0  0  0
  2  1  1  1
  2  3  1  0
  4  2  1  0
  4  5  1  1
  6  4  1  0
  6  8  1  0
  7  6  2  0
  8 12  1  0
  9  8  1  0
 10 11  1  0
 10  9  1  0
 11 12  1  0
 12 13  1  1
 13 15  1  0
 14 13  2  0
 15 16  1  0
 16 20  1  0
 17 18  1  0
 16 17  1  6
 18 22  1  0
 19 18  2  0
 20 21  2  0
 20 23  1  0
M  END
$$$$
