HGT.pdb
     RDKit          3D

 22 22  0  0  1  0  0  0  0  0999 V2000
   10.0492  -14.7893   19.6265 N   0  0  0  0  0  0  0  0  0  0  0  0
    8.8266  -14.7510   20.3977 C   0  0  1  0  0  0  0  0  0  0  0  0
    7.6583  -15.2442   19.5755 C   0  0  0  0  0  0  0  0  0  0  0  0
    7.7509  -14.5929   18.2212 C   0  0  0  0  0  0  0  0  0  0  0  0
    8.7401  -13.7335   17.8081 C   0  0  0  0  0  0  0  0  0  0  0  0
    8.4428  -13.3907   16.5466 N   0  0  0  0  0  0  0  0  0  0  0  0
    7.3097  -14.0002   16.1551 C   0  0  0  0  0  0  0  0  0  0  0  0
    6.9037  -14.7302   17.1945 N   0  0  0  0  0  0  0  0  0  0  0  0
    8.9811  -15.5204   21.6528 C   0  0  0  0  0  0  0  0  0  0  0  0
    9.9756  -16.2653   21.7621 O   0  0  0  0  0  0  0  0  0  0  0  0
    8.0290  -15.4147   22.6990 N   0  0  0  0  0  0  0  0  0  0  0  0
    8.1858  -16.1453   23.9174 C   0  0  0  0  0  0  0  0  0  0  0  0
    8.3973  -15.2841   25.0948 C   0  0  0  0  0  0  0  0  0  0  0  0
    9.2109  -15.6423   25.9837 O   0  0  0  0  0  0  0  0  0  0  0  0
    6.7024  -11.3422   25.4782 C   0  0  0  0  0  0  0  0  0  0  0  0
    6.7620  -12.3121   26.6497 C   0  0  1  0  0  0  0  0  0  0  0  0
    5.6018  -13.0659   26.6835 O   0  0  0  0  0  0  0  0  0  0  0  0
    7.9745  -13.2143   26.4637 C   0  0  2  0  0  0  0  0  0  0  0  0
    7.7255  -14.0486   25.2928 N   0  0  0  0  0  0  0  0  0  0  0  0
    8.1170  -14.0515   27.6798 C   0  0  0  0  0  0  0  0  0  0  0  0
    7.7756  -15.2570   27.6185 O   0  0  0  0  0  0  0  0  0  0  0  0
    8.6074  -13.5739   28.8819 O   0  0  0  0  0  0  0  0  0  0  0  0
  2  1  1  6
  3  2  1  0
  3  4  1  0
  4  5  2  0
  5  6  1  0
  7  6  1  0
  8  4  1  0
  8  7  2  0
  9  2  1  0
  9 10  2  0
 11  9  1  0
 12 11  1  0
 12 13  1  0
 13 19  1  0
 14 13  2  0
 16 15  1  6
 16 17  1  0
 18 16  1  0
 18 20  1  0
 18 19  1  6
 20 22  1  0
 21 20  2  0
M  END
$$$$
