HGT.pdb
     RDKit          3D

 22 22  0  0  1  0  0  0  0  0999 V2000
    8.0303  -15.3730   21.1994 N   0  0  0  0  0  0  0  0  0  0  0  0
    9.3378  -15.4562   20.5876 C   0  0  1  0  0  0  0  0  0  0  0  0
    9.7210  -14.1361   19.9595 C   0  0  0  0  0  0  0  0  0  0  0  0
    8.6969  -13.8243   18.9008 C   0  0  0  0  0  0  0  0  0  0  0  0
    7.5762  -13.0476   19.0699 C   0  0  0  0  0  0  0  0  0  0  0  0
    6.9450  -13.0294   17.8873 N   0  0  0  0  0  0  0  0  0  0  0  0
    7.6247  -13.7620   16.9874 C   0  0  0  0  0  0  0  0  0  0  0  0
    8.6924  -14.2388   17.6284 N   0  0  0  0  0  0  0  0  0  0  0  0
   10.3438  -15.9099   21.5741 C   0  0  0  0  0  0  0  0  0  0  0  0
   11.4888  -16.1787   21.1588 O   0  0  0  0  0  0  0  0  0  0  0  0
   10.0172  -16.0355   22.9489 N   0  0  0  0  0  0  0  0  0  0  0  0
   10.9779  -16.5064   23.8966 C   0  0  0  0  0  0  0  0  0  0  0  0
   10.4806  -16.5092   25.2840 C   0  0  0  0  0  0  0  0  0  0  0  0
    9.4185  -15.8958   25.5606 O   0  0  0  0  0  0  0  0  0  0  0  0
   10.5172  -19.6637   27.6570 C   0  0  0  0  0  0  0  0  0  0  0  0
   11.0991  -18.4599   28.3844 C   0  0  1  0  0  0  0  0  0  0  0  0
   12.4810  -18.5128   28.3307 O   0  0  0  0  0  0  0  0  0  0  0  0
   10.5905  -17.1966   27.7032 C   0  0  2  0  0  0  0  0  0  0  0  0
   11.1395  -17.1752   26.3514 N   0  0  0  0  0  0  0  0  0  0  0  0
   11.0721  -16.0284   28.4801 C   0  0  0  0  0  0  0  0  0  0  0  0
   11.9782  -15.3150   27.9864 O   0  0  0  0  0  0  0  0  0  0  0  0
   10.5749  -15.6815   29.7236 O   0  0  0  0  0  0  0  0  0  0  0  0
  2  1  1  1
  3  2  1  0
  3  4  1  0
  4  5  2  0
  5  6  1  0
  7  6  1  0
  8  4  1  0
  8  7  2  0
  9  2  1  0
  9 10  2  0
 11  9  1  0
 12 11  1  0
 12 13  1  0
 13 19  1  0
 14 13  2  0
 16 15  1  6
 16 17  1  0
 18 16  1  0
 18 20  1  0
 18 19  1  6
 20 22  1  0
 21 20  2  0
M  END
$$$$
