HGT.pdb
     RDKit          3D

 22 22  0  0  1  0  0  0  0  0999 V2000
    8.6304  -15.4560   21.7060 N   0  0  0  0  0  0  0  0  0  0  0  0
    7.4631  -14.6750   22.0498 C   0  0  1  0  0  0  0  0  0  0  0  0
    6.5956  -14.4435   20.8341 C   0  0  0  0  0  0  0  0  0  0  0  0
    7.4808  -13.9029   19.7428 C   0  0  0  0  0  0  0  0  0  0  0  0
    8.1091  -12.6809   19.7480 C   0  0  0  0  0  0  0  0  0  0  0  0
    8.7906  -12.5995   18.5965 N   0  0  0  0  0  0  0  0  0  0  0  0
    8.6141  -13.7192   17.8728 C   0  0  0  0  0  0  0  0  0  0  0  0
    7.8099  -14.5025   18.5925 N   0  0  0  0  0  0  0  0  0  0  0  0
    6.7112  -15.3226   23.1482 C   0  0  0  0  0  0  0  0  0  0  0  0
    5.4986  -15.0539   23.2632 O   0  0  0  0  0  0  0  0  0  0  0  0
    7.3485  -16.2205   24.0425 N   0  0  0  0  0  0  0  0  0  0  0  0
    6.6473  -16.7746   25.1580 C   0  0  0  0  0  0  0  0  0  0  0  0
    7.4610  -17.7078   25.9576 C   0  0  0  0  0  0  0  0  0  0  0  0
    6.9423  -18.2907   26.9434 O   0  0  0  0  0  0  0  0  0  0  0  0
    9.1911  -20.5311   24.2709 C   0  0  0  0  0  0  0  0  0  0  0  0
   10.2336  -19.8761   25.1660 C   0  0  1  0  0  0  0  0  0  0  0  0
   10.9955  -18.9955   24.4180 O   0  0  0  0  0  0  0  0  0  0  0  0
    9.5095  -19.1346   26.2815 C   0  0  2  0  0  0  0  0  0  0  0  0
    8.8233  -17.9965   25.6789 N   0  0  0  0  0  0  0  0  0  0  0  0
   10.5228  -18.6733   27.2617 C   0  0  0  0  0  0  0  0  0  0  0  0
   10.7221  -17.4404   27.3794 O   0  0  0  0  0  0  0  0  0  0  0  0
   11.2624  -19.5313   28.0557 O   0  0  0  0  0  0  0  0  0  0  0  0
  2  1  1  6
  3  2  1  0
  3  4  1  0
  4  5  2  0
  5  6  1  0
  7  6  1  0
  8  4  1  0
  8  7  2  0
  9  2  1  0
  9 10  2  0
 11  9  1  0
 12 11  1  0
 12 13  1  0
 13 19  1  0
 14 13  2  0
 16 15  1  6
 16 17  1  0
 18 16  1  0
 18 20  1  0
 18 19  1  6
 20 22  1  0
 21 20  2  0
M  END
$$$$
