HGT.pdb
     RDKit          3D

 22 22  0  0  1  0  0  0  0  0999 V2000
    9.3372  -16.0900   20.4535 N   0  0  0  0  0  0  0  0  0  0  0  0
    8.6478  -15.3586   21.4930 C   0  0  1  0  0  0  0  0  0  0  0  0
    7.3132  -14.8516   20.9972 C   0  0  0  0  0  0  0  0  0  0  0  0
    7.5568  -14.1327   19.6969 C   0  0  0  0  0  0  0  0  0  0  0  0
    8.2021  -12.9283   19.5525 C   0  0  0  0  0  0  0  0  0  0  0  0
    8.2010  -12.6520   18.2406 N   0  0  0  0  0  0  0  0  0  0  0  0
    7.5823  -13.6334   17.5604 C   0  0  0  0  0  0  0  0  0  0  0  0
    7.1963  -14.5284   18.4704 N   0  0  0  0  0  0  0  0  0  0  0  0
    8.5038  -16.1941   22.7064 C   0  0  0  0  0  0  0  0  0  0  0  0
    8.5584  -17.4329   22.5719 O   0  0  0  0  0  0  0  0  0  0  0  0
    8.3100  -15.6056   23.9825 N   0  0  0  0  0  0  0  0  0  0  0  0
    8.3161  -16.3996   25.1710 C   0  0  0  0  0  0  0  0  0  0  0  0
    9.4895  -16.1603   26.0302 C   0  0  0  0  0  0  0  0  0  0  0  0
   10.5918  -15.8659   25.5022 O   0  0  0  0  0  0  0  0  0  0  0  0
   10.2490  -13.5656   28.2936 C   0  0  0  0  0  0  0  0  0  0  0  0
   10.3401  -14.8109   29.1641 C   0  0  1  0  0  0  0  0  0  0  0  0
    9.1410  -14.9969   29.8294 O   0  0  0  0  0  0  0  0  0  0  0  0
   10.6376  -16.0032   28.2650 C   0  0  2  0  0  0  0  0  0  0  0  0
    9.4529  -16.2431   27.4476 N   0  0  0  0  0  0  0  0  0  0  0  0
   10.9195  -17.1742   29.1308 C   0  0  0  0  0  0  0  0  0  0  0  0
   10.0694  -18.0950   29.1858 O   0  0  0  0  0  0  0  0  0  0  0  0
   12.0726  -17.3068   29.8834 O   0  0  0  0  0  0  0  0  0  0  0  0
  2  1  1  6
  3  2  1  0
  3  4  1  0
  4  5  2  0
  5  6  1  0
  7  6  1  0
  8  4  1  0
  8  7  2  0
  9  2  1  0
  9 10  2  0
 11  9  1  0
 12 11  1  0
 12 13  1  0
 13 19  1  0
 14 13  2  0
 16 15  1  6
 16 17  1  0
 18 16  1  0
 18 20  1  0
 18 19  1  6
 20 22  1  0
 21 20  2  0
M  END
$$$$
