HGT.pdb
     RDKit          3D

 22 22  0  0  1  0  0  0  0  0999 V2000
    8.9856  -16.7575   20.4027 N   0  0  0  0  0  0  0  0  0  0  0  0
    8.7968  -15.6687   21.3353 C   0  0  1  0  0  0  0  0  0  0  0  0
    7.5504  -14.8835   20.9977 C   0  0  0  0  0  0  0  0  0  0  0  0
    7.6983  -14.3848   19.5848 C   0  0  0  0  0  0  0  0  0  0  0  0
    8.4147  -13.2798   19.1928 C   0  0  0  0  0  0  0  0  0  0  0  0
    8.2845  -13.1958   17.8612 N   0  0  0  0  0  0  0  0  0  0  0  0
    7.5170  -14.2018   17.4058 C   0  0  0  0  0  0  0  0  0  0  0  0
    7.1696  -14.9166   18.4765 N   0  0  0  0  0  0  0  0  0  0  0  0
    8.7692  -16.1760   22.7256 C   0  0  0  0  0  0  0  0  0  0  0  0
    8.0031  -17.1254   22.9854 O   0  0  0  0  0  0  0  0  0  0  0  0
    9.5876  -15.6013   23.7317 N   0  0  0  0  0  0  0  0  0  0  0  0
    9.5881  -16.1140   25.0659 C   0  0  0  0  0  0  0  0  0  0  0  0
    8.8313  -15.2786   26.0156 C   0  0  0  0  0  0  0  0  0  0  0  0
    8.9246  -15.5061   27.2485 O   0  0  0  0  0  0  0  0  0  0  0  0
    8.3754  -11.3491   26.2432 C   0  0  0  0  0  0  0  0  0  0  0  0
    7.0341  -12.0467   26.0669 C   0  0  1  0  0  0  0  0  0  0  0  0
    6.6856  -12.0438   24.7276 O   0  0  0  0  0  0  0  0  0  0  0  0
    7.1666  -13.4755   26.5766 C   0  0  2  0  0  0  0  0  0  0  0  0
    7.9851  -14.2098   25.6174 N   0  0  0  0  0  0  0  0  0  0  0  0
    5.8072  -14.0631   26.6597 C   0  0  0  0  0  0  0  0  0  0  0  0
    5.5371  -15.0491   25.9327 O   0  0  0  0  0  0  0  0  0  0  0  0
    4.8176  -13.5815   27.4979 O   0  0  0  0  0  0  0  0  0  0  0  0
  2  1  1  6
  3  2  1  0
  3  4  1  0
  4  5  2  0
  5  6  1  0
  7  6  1  0
  8  4  1  0
  8  7  2  0
  9  2  1  0
  9 10  2  0
 11  9  1  0
 12 11  1  0
 12 13  1  0
 13 19  1  0
 14 13  2  0
 16 15  1  6
 16 17  1  0
 18 16  1  0
 18 20  1  0
 18 19  1  6
 20 22  1  0
 21 20  2  0
M  END
$$$$
