HGT.pdb
     RDKit          3D

 22 22  0  0  1  0  0  0  0  0999 V2000
    7.2760  -18.6128   18.8012 N   0  0  0  0  0  0  0  0  0  0  0  0
    8.1850  -17.5651   18.3924 C   0  0  1  0  0  0  0  0  0  0  0  0
    7.5057  -16.6065   17.4418 C   0  0  0  0  0  0  0  0  0  0  0  0
    7.2930  -17.3339   16.1407 C   0  0  0  0  0  0  0  0  0  0  0  0
    8.1771  -18.2064   15.5533 C   0  0  0  0  0  0  0  0  0  0  0  0
    7.6002  -18.6241   14.4175 N   0  0  0  0  0  0  0  0  0  0  0  0
    6.3933  -18.0490   14.2715 C   0  0  0  0  0  0  0  0  0  0  0  0
    6.2258  -17.2640   15.3364 N   0  0  0  0  0  0  0  0  0  0  0  0
    8.7388  -16.8686   19.5753 C   0  0  0  0  0  0  0  0  0  0  0  0
    9.7327  -16.1339   19.4077 O   0  0  0  0  0  0  0  0  0  0  0  0
    8.1584  -17.0308   20.8595 N   0  0  0  0  0  0  0  0  0  0  0  0
    8.6873  -16.3516   22.0005 C   0  0  0  0  0  0  0  0  0  0  0  0
    9.2596  -17.2598   23.0106 C   0  0  0  0  0  0  0  0  0  0  0  0
    8.6643  -18.3328   23.2843 O   0  0  0  0  0  0  0  0  0  0  0  0
   12.7636  -18.4810   22.9080 C   0  0  0  0  0  0  0  0  0  0  0  0
   12.5575  -18.0034   24.3384 C   0  0  1  0  0  0  0  0  0  0  0  0
   13.1068  -16.7418   24.4867 O   0  0  0  0  0  0  0  0  0  0  0  0
   11.0615  -17.9662   24.6202 C   0  0  2  0  0  0  0  0  0  0  0  0
   10.4671  -16.9936   23.7092 N   0  0  0  0  0  0  0  0  0  0  0  0
   10.8684  -17.5464   26.0298 C   0  0  0  0  0  0  0  0  0  0  0  0
   10.4240  -16.3951   26.2546 O   0  0  0  0  0  0  0  0  0  0  0  0
   11.1526  -18.3578   27.1134 O   0  0  0  0  0  0  0  0  0  0  0  0
  2  1  1  1
  3  2  1  0
  3  4  1  0
  4  5  2  0
  5  6  1  0
  7  6  1  0
  8  4  1  0
  8  7  2  0
  9  2  1  0
  9 10  2  0
 11  9  1  0
 12 11  1  0
 12 13  1  0
 13 19  1  0
 14 13  2  0
 16 15  1  6
 16 17  1  0
 18 16  1  0
 18 20  1  0
 18 19  1  6
 20 22  1  0
 21 20  2  0
M  END
$$$$
