HGT.pdb
     RDKit          3D

 22 22  0  0  1  0  0  0  0  0999 V2000
    9.4413  -14.7987   20.5734 N   0  0  0  0  0  0  0  0  0  0  0  0
    8.0848  -14.7577   21.0723 C   0  0  1  0  0  0  0  0  0  0  0  0
    7.1191  -15.3032   20.0458 C   0  0  0  0  0  0  0  0  0  0  0  0
    7.3578  -14.5587   18.7591 C   0  0  0  0  0  0  0  0  0  0  0  0
    7.2876  -13.1966   18.5932 C   0  0  0  0  0  0  0  0  0  0  0  0
    7.5670  -12.9562   17.3043 N   0  0  0  0  0  0  0  0  0  0  0  0
    7.8086  -14.1111   16.6589 C   0  0  0  0  0  0  0  0  0  0  0  0
    7.6753  -15.0780   17.5674 N   0  0  0  0  0  0  0  0  0  0  0  0
    7.9846  -15.4785   22.3613 C   0  0  0  0  0  0  0  0  0  0  0  0
    6.8611  -15.5640   22.8964 O   0  0  0  0  0  0  0  0  0  0  0  0
    9.1293  -16.0542   22.9699 N   0  0  0  0  0  0  0  0  0  0  0  0
    9.0542  -16.6563   24.2640 C   0  0  0  0  0  0  0  0  0  0  0  0
    9.6895  -15.8517   25.3230 C   0  0  0  0  0  0  0  0  0  0  0  0
   10.2224  -14.7521   25.0274 O   0  0  0  0  0  0  0  0  0  0  0  0
   10.6889  -15.2372   30.1491 C   0  0  0  0  0  0  0  0  0  0  0  0
   10.3041  -16.1858   29.0227 C   0  0  1  0  0  0  0  0  0  0  0  0
    9.0232  -16.6629   29.2392 O   0  0  0  0  0  0  0  0  0  0  0  0
   10.3690  -15.4201   27.7081 C   0  0  2  0  0  0  0  0  0  0  0  0
    9.7388  -16.2487   26.6857 N   0  0  0  0  0  0  0  0  0  0  0  0
   11.7968  -15.1850   27.3818 C   0  0  0  0  0  0  0  0  0  0  0  0
   12.3950  -16.0309   26.6745 O   0  0  0  0  0  0  0  0  0  0  0  0
   12.5070  -14.0803   27.8162 O   0  0  0  0  0  0  0  0  0  0  0  0
  2  1  1  6
  3  2  1  0
  3  4  1  0
  4  5  2  0
  5  6  1  0
  7  6  1  0
  8  4  1  0
  8  7  2  0
  9  2  1  0
  9 10  2  0
 11  9  1  0
 12 11  1  0
 12 13  1  0
 13 19  1  0
 14 13  2  0
 16 15  1  1
 16 17  1  0
 18 16  1  0
 18 20  1  0
 18 19  1  6
 20 22  1  0
 21 20  2  0
M  END
$$$$
