HGT.pdb
     RDKit          3D

 22 22  0  0  1  0  0  0  0  0999 V2000
    9.2276  -14.4135   19.5898 N   0  0  0  0  0  0  0  0  0  0  0  0
    7.8247  -14.7201   19.4204 C   0  0  1  0  0  0  0  0  0  0  0  0
    7.6310  -15.7744   18.3550 C   0  0  0  0  0  0  0  0  0  0  0  0
    8.0560  -15.1739   17.0414 C   0  0  0  0  0  0  0  0  0  0  0  0
    8.0110  -13.8400   16.7148 C   0  0  0  0  0  0  0  0  0  0  0  0
    8.4765  -13.7400   15.4616 N   0  0  0  0  0  0  0  0  0  0  0  0
    8.8101  -14.9555   14.9924 C   0  0  0  0  0  0  0  0  0  0  0  0
    8.5448  -15.8174   15.9747 N   0  0  0  0  0  0  0  0  0  0  0  0
    7.2228  -15.1236   20.7111 C   0  0  0  0  0  0  0  0  0  0  0  0
    6.0995  -15.6653   20.6874 O   0  0  0  0  0  0  0  0  0  0  0  0
    7.9011  -14.9018   21.9371 N   0  0  0  0  0  0  0  0  0  0  0  0
    7.3189  -15.2880   23.1840 C   0  0  0  0  0  0  0  0  0  0  0  0
    8.0079  -14.7166   24.3550 C   0  0  0  0  0  0  0  0  0  0  0  0
    9.2559  -14.5678   24.3255 O   0  0  0  0  0  0  0  0  0  0  0  0
    6.7169  -11.5088   26.2048 C   0  0  0  0  0  0  0  0  0  0  0  0
    7.0000  -12.6163   27.2098 C   0  0  1  0  0  0  0  0  0  0  0  0
    5.8242  -13.2856   27.5014 O   0  0  0  0  0  0  0  0  0  0  0  0
    8.0151  -13.5715   26.5969 C   0  0  2  0  0  0  0  0  0  0  0  0
    7.3365  -14.3147   25.5403 N   0  0  0  0  0  0  0  0  0  0  0  0
    8.4846  -14.4908   27.6621 C   0  0  0  0  0  0  0  0  0  0  0  0
    8.1568  -15.6998   27.5951 O   0  0  0  0  0  0  0  0  0  0  0  0
    9.2668  -14.0863   28.7290 O   0  0  0  0  0  0  0  0  0  0  0  0
  2  1  1  1
  3  2  1  0
  3  4  1  0
  4  5  2  0
  5  6  1  0
  7  6  1  0
  8  4  1  0
  8  7  2  0
  9  2  1  0
  9 10  2  0
 11  9  1  0
 12 11  1  0
 12 13  1  0
 13 19  1  0
 14 13  2  0
 16 15  1  6
 16 17  1  0
 18 16  1  0
 18 20  1  0
 18 19  1  6
 20 22  1  0
 21 20  2  0
M  END
$$$$
