HGT.pdb
     RDKit          3D

 22 22  0  0  1  0  0  0  0  0999 V2000
    7.0582  -15.8193   19.5087 N   0  0  0  0  0  0  0  0  0  0  0  0
    8.4208  -15.7875   19.9915 C   0  0  1  0  0  0  0  0  0  0  0  0
    9.1196  -14.5250   19.5422 C   0  0  0  0  0  0  0  0  0  0  0  0
    8.7798  -14.3115   18.0910 C   0  0  0  0  0  0  0  0  0  0  0  0
    7.8904  -13.3859   17.6010 C   0  0  0  0  0  0  0  0  0  0  0  0
    7.8875  -13.5306   16.2683 N   0  0  0  0  0  0  0  0  0  0  0  0
    8.7378  -14.5076   15.9059 C   0  0  0  0  0  0  0  0  0  0  0  0
    9.2724  -14.9713   17.0361 N   0  0  0  0  0  0  0  0  0  0  0  0
    8.4530  -15.9414   21.4633 C   0  0  0  0  0  0  0  0  0  0  0  0
    9.5628  -16.1032   22.0091 O   0  0  0  0  0  0  0  0  0  0  0  0
    7.2601  -15.9061   22.2301 N   0  0  0  0  0  0  0  0  0  0  0  0
    7.2790  -16.1522   23.6379 C   0  0  0  0  0  0  0  0  0  0  0  0
    7.8975  -15.0635   24.4154 C   0  0  0  0  0  0  0  0  0  0  0  0
    8.9280  -14.4961   23.9719 O   0  0  0  0  0  0  0  0  0  0  0  0
    6.5673  -11.7040   25.6423 C   0  0  0  0  0  0  0  0  0  0  0  0
    6.9539  -12.5563   26.8427 C   0  0  1  0  0  0  0  0  0  0  0  0
    5.8422  -13.2443   27.2966 O   0  0  0  0  0  0  0  0  0  0  0  0
    8.0395  -13.5317   26.4080 C   0  0  2  0  0  0  0  0  0  0  0  0
    7.3920  -14.6048   25.6609 N   0  0  0  0  0  0  0  0  0  0  0  0
    8.6938  -14.0662   27.6272 C   0  0  0  0  0  0  0  0  0  0  0  0
    8.5484  -15.2822   27.8989 O   0  0  0  0  0  0  0  0  0  0  0  0
    9.4581  -13.2943   28.4838 O   0  0  0  0  0  0  0  0  0  0  0  0
  2  1  1  1
  3  2  1  0
  3  4  1  0
  4  5  2  0
  5  6  1  0
  7  6  1  0
  8  4  1  0
  8  7  2  0
  9  2  1  0
  9 10  2  0
 11  9  1  0
 12 11  1  0
 12 13  1  0
 13 19  1  0
 14 13  2  0
 16 15  1  6
 16 17  1  0
 18 16  1  0
 18 20  1  0
 18 19  1  1
 20 22  1  0
 21 20  2  0
M  END
$$$$
