HGT.pdb
     RDKit          3D

 22 22  0  0  1  0  0  0  0  0999 V2000
    9.0057  -13.7929   19.2279 N   0  0  0  0  0  0  0  0  0  0  0  0
    8.8159  -15.1982   18.9451 C   0  0  1  0  0  0  0  0  0  0  0  0
    9.3428  -15.5447   17.5716 C   0  0  0  0  0  0  0  0  0  0  0  0
    8.5598  -14.7385   16.5698 C   0  0  0  0  0  0  0  0  0  0  0  0
    7.1925  -14.7328   16.4343 C   0  0  0  0  0  0  0  0  0  0  0  0
    6.9136  -13.8859   15.4332 N   0  0  0  0  0  0  0  0  0  0  0  0
    8.0494  -13.3629   14.9382 C   0  0  0  0  0  0  0  0  0  0  0  0
    9.0436  -13.8979   15.6478 N   0  0  0  0  0  0  0  0  0  0  0  0
    9.4394  -16.0282   20.0003 C   0  0  0  0  0  0  0  0  0  0  0  0
    9.3456  -17.2679   19.8995 O   0  0  0  0  0  0  0  0  0  0  0  0
   10.1225  -15.4336   21.0922 N   0  0  0  0  0  0  0  0  0  0  0  0
   10.6443  -16.2292   22.1588 C   0  0  0  0  0  0  0  0  0  0  0  0
    9.8809  -16.1019   23.4132 C   0  0  0  0  0  0  0  0  0  0  0  0
    9.6376  -14.9580   23.8747 O   0  0  0  0  0  0  0  0  0  0  0  0
    6.6919  -18.1738   24.5047 C   0  0  0  0  0  0  0  0  0  0  0  0
    7.7613  -18.2447   25.5855 C   0  0  1  0  0  0  0  0  0  0  0  0
    8.4688  -19.4271   25.4569 O   0  0  0  0  0  0  0  0  0  0  0  0
    8.6910  -17.0503   25.4186 C   0  0  2  0  0  0  0  0  0  0  0  0
    9.3923  -17.2137   24.1495 N   0  0  0  0  0  0  0  0  0  0  0  0
    9.6513  -17.0523   26.5491 C   0  0  0  0  0  0  0  0  0  0  0  0
   10.8537  -17.3193   26.3111 O   0  0  0  0  0  0  0  0  0  0  0  0
    9.2922  -16.7750   27.8559 O   0  0  0  0  0  0  0  0  0  0  0  0
  2  1  1  1
  3  2  1  0
  3  4  1  0
  4  5  2  0
  5  6  1  0
  7  6  1  0
  8  4  1  0
  8  7  2  0
  9  2  1  0
  9 10  2  0
 11  9  1  0
 12 11  1  0
 12 13  1  0
 13 19  1  0
 14 13  2  0
 16 15  1  6
 16 17  1  0
 18 16  1  0
 18 20  1  0
 18 19  1  6
 20 22  1  0
 21 20  2  0
M  END
$$$$
