THI.pdb
     RDKit          3D

 26 26  0  0  1  0  0  0  0  0999 V2000
    9.5235  -12.7863   17.8868 C   0  0  0  0  0  0  0  0  0  0  0  0
    9.1946  -13.2155   19.2981 C   0  0  1  0  0  0  0  0  0  0  0  0
    8.6927  -12.1142   19.9662 O   0  0  0  0  0  0  0  0  0  0  0  0
    8.2582  -14.3976   19.3093 C   0  0  2  0  0  0  0  0  0  0  0  0
    7.0490  -14.0059   18.6304 N   0  0  0  0  0  0  0  0  0  0  0  0
    7.9609  -14.8953   20.6529 C   0  0  0  0  0  0  0  0  0  0  0  0
    6.8845  -14.5728   21.2166 O   0  0  0  0  0  0  0  0  0  0  0  0
    8.8370  -15.7407   21.3739 N   0  0  0  0  0  0  0  0  0  0  0  0
    8.4279  -16.3947   22.6519 C   0  0  1  0  0  0  0  0  0  0  0  0
    9.0841  -17.7482   22.6542 C   0  0  0  0  0  0  0  0  0  0  0  0
    8.5489  -18.7387   21.7395 C   0  0  0  0  0  0  0  0  0  0  0  0
    7.1885  -18.8878   21.4378 C   0  0  0  0  0  0  0  0  0  0  0  0
    7.1323  -19.9008   20.5677 N   0  0  0  0  0  0  0  0  0  0  0  0
    8.3604  -20.3681   20.3275 C   0  0  0  0  0  0  0  0  0  0  0  0
    9.2279  -19.6601   21.0419 N   0  0  0  0  0  0  0  0  0  0  0  0
    8.8823  -15.5388   23.7378 C   0  0  0  0  0  0  0  0  0  0  0  0
   10.0883  -15.1155   23.7325 O   0  0  0  0  0  0  0  0  0  0  0  0
    5.4634  -12.5482   27.1825 C   0  0  0  0  0  0  0  0  0  0  0  0
    6.3091  -13.6149   26.5798 C   0  0  0  0  0  0  0  0  0  0  0  0
    7.6429  -13.1213   26.0806 C   0  0  2  0  0  0  0  0  0  0  0  0
    7.5145  -12.3406   24.8001 C   0  0  0  0  0  0  0  0  0  0  0  0
    8.6207  -14.2742   25.8835 C   0  0  2  0  0  0  0  0  0  0  0  0
    8.0805  -15.1142   24.8282 N   0  0  0  0  0  0  0  0  0  0  0  0
    8.8169  -14.9926   27.1503 C   0  0  0  0  0  0  0  0  0  0  0  0
    8.4698  -16.3029   27.4036 O   0  0  0  0  0  0  0  0  0  0  0  0
    9.3581  -14.3946   28.1545 O   0  0  0  0  0  0  0  0  0  0  0  0
  2  1  1  6
  3  2  1  0
  4  2  1  0
  4  6  1  0
  4  5  1  1
  6  7  2  0
  8  6  1  0
  8  9  1  0
  9 10  1  1
 11 10  1  0
 12 11  2  0
 13 12  1  0
 14 13  1  0
 14 15  2  0
 15 11  1  0
 16  9  1  0
 16 17  2  0
 18 19  1  0
 19 20  1  0
 20 21  1  6
 20 22  1  0
 22 23  1  6
 23 16  1  0
 24 22  1  0
 24 25  1  0
 26 24  2  0
M  END
$$$$
