THI.pdb
     RDKit          3D

 26 26  0  0  1  0  0  0  0  0999 V2000
   10.8767  -13.8948   17.8175 C   0  0  0  0  0  0  0  0  0  0  0  0
   10.2199  -14.1900   19.1463 C   0  0  1  0  0  0  0  0  0  0  0  0
   10.4460  -13.1079   19.9764 O   0  0  0  0  0  0  0  0  0  0  0  0
    8.7574  -14.5160   18.9765 C   0  0  2  0  0  0  0  0  0  0  0  0
    8.1191  -13.3706   18.3788 N   0  0  0  0  0  0  0  0  0  0  0  0
    8.0922  -14.8873   20.2259 C   0  0  0  0  0  0  0  0  0  0  0  0
    7.2324  -14.1210   20.7298 O   0  0  0  0  0  0  0  0  0  0  0  0
    8.3672  -16.0901   20.9184 N   0  0  0  0  0  0  0  0  0  0  0  0
    7.6888  -16.4334   22.2030 C   0  0  1  0  0  0  0  0  0  0  0  0
    7.9987  -17.8823   22.4620 C   0  0  0  0  0  0  0  0  0  0  0  0
    7.6595  -18.4020   23.7731 C   0  0  0  0  0  0  0  0  0  0  0  0
    6.3771  -18.3596   24.3365 C   0  0  0  0  0  0  0  0  0  0  0  0
    6.5031  -18.9350   25.5363 N   0  0  0  0  0  0  0  0  0  0  0  0
    7.7679  -19.3182   25.7308 C   0  0  0  0  0  0  0  0  0  0  0  0
    8.4767  -18.9940   24.6555 N   0  0  0  0  0  0  0  0  0  0  0  0
    8.2243  -15.5445   23.2234 C   0  0  0  0  0  0  0  0  0  0  0  0
    9.4556  -15.2057   23.1685 O   0  0  0  0  0  0  0  0  0  0  0  0
    6.6211  -11.1569   27.2170 C   0  0  0  0  0  0  0  0  0  0  0  0
    7.5883  -12.2071   26.7955 C   0  0  0  0  0  0  0  0  0  0  0  0
    7.0299  -13.1744   25.7833 C   0  0  2  0  0  0  0  0  0  0  0  0
    5.8556  -13.9450   26.3244 C   0  0  0  0  0  0  0  0  0  0  0  0
    8.1004  -14.1443   25.2960 C   0  0  2  0  0  0  0  0  0  0  0  0
    7.4780  -14.9988   24.2992 N   0  0  0  0  0  0  0  0  0  0  0  0
    8.6588  -14.8924   26.4309 C   0  0  0  0  0  0  0  0  0  0  0  0
    8.4947  -16.2395   26.6758 O   0  0  0  0  0  0  0  0  0  0  0  0
    9.3765  -14.2873   27.3126 O   0  0  0  0  0  0  0  0  0  0  0  0
  2  1  1  6
  3  2  1  0
  4  2  1  0
  4  6  1  0
  4  5  1  1
  6  7  2  0
  8  6  1  0
  8  9  1  0
  9 10  1  1
 11 10  1  0
 12 11  2  0
 13 12  1  0
 14 13  1  0
 14 15  2  0
 15 11  1  0
 16  9  1  0
 16 17  2  0
 18 19  1  0
 19 20  1  0
 20 21  1  1
 20 22  1  0
 22 23  1  6
 23 16  1  0
 24 22  1  0
 24 25  1  0
 26 24  2  0
M  END
$$$$
