THI.pdb
     RDKit          3D

 26 26  0  0  1  0  0  0  0  0999 V2000
   11.0987  -14.0367   20.1928 C   0  0  0  0  0  0  0  0  0  0  0  0
   10.0515  -13.2569   19.4315 C   0  0  1  0  0  0  0  0  0  0  0  0
   10.6360  -12.7942   18.2673 O   0  0  0  0  0  0  0  0  0  0  0  0
    8.8159  -14.0868   19.1894 C   0  0  2  0  0  0  0  0  0  0  0  0
    7.8840  -13.2789   18.4441 N   0  0  0  0  0  0  0  0  0  0  0  0
    8.1997  -14.5901   20.4175 C   0  0  0  0  0  0  0  0  0  0  0  0
    7.2831  -13.9333   20.9733 O   0  0  0  0  0  0  0  0  0  0  0  0
    8.5851  -15.8047   21.0324 N   0  0  0  0  0  0  0  0  0  0  0  0
    7.9038  -16.3199   22.2566 C   0  0  1  0  0  0  0  0  0  0  0  0
    8.1218  -17.8081   22.2579 C   0  0  0  0  0  0  0  0  0  0  0  0
    7.7036  -18.5318   23.4435 C   0  0  0  0  0  0  0  0  0  0  0  0
    6.4800  -18.3414   24.0996 C   0  0  0  0  0  0  0  0  0  0  0  0
    6.4987  -19.1940   25.1287 N   0  0  0  0  0  0  0  0  0  0  0  0
    7.6447  -19.8803   25.1353 C   0  0  0  0  0  0  0  0  0  0  0  0
    8.3828  -19.4779   24.1070 N   0  0  0  0  0  0  0  0  0  0  0  0
    8.5108  -15.6537   23.3993 C   0  0  0  0  0  0  0  0  0  0  0  0
    9.7724  -15.4481   23.4010 O   0  0  0  0  0  0  0  0  0  0  0  0
    6.2119  -11.6549   26.0512 C   0  0  0  0  0  0  0  0  0  0  0  0
    7.1754  -12.6248   25.4621 C   0  0  0  0  0  0  0  0  0  0  0  0
    7.5955  -13.7159   26.4134 C   0  0  2  0  0  0  0  0  0  0  0  0
    8.2797  -13.1677   27.6369 C   0  0  0  0  0  0  0  0  0  0  0  0
    8.5047  -14.7286   25.7266 C   0  0  2  0  0  0  0  0  0  0  0  0
    7.8055  -15.1918   24.5401 N   0  0  0  0  0  0  0  0  0  0  0  0
    8.8459  -15.8139   26.6568 C   0  0  0  0  0  0  0  0  0  0  0  0
    9.9889  -15.8975   27.4238 O   0  0  0  0  0  0  0  0  0  0  0  0
    8.0417  -16.8077   26.8121 O   0  0  0  0  0  0  0  0  0  0  0  0
  2  1  1  6
  3  2  1  0
  4  2  1  0
  4  6  1  0
  4  5  1  1
  6  7  2  0
  8  6  1  0
  8  9  1  0
  9 10  1  1
 11 10  1  0
 12 11  2  0
 13 12  1  0
 14 13  1  0
 14 15  2  0
 15 11  1  0
 16  9  1  0
 16 17  2  0
 18 19  1  0
 19 20  1  0
 20 21  1  1
 20 22  1  0
 22 23  1  6
 23 16  1  0
 24 22  1  0
 24 25  1  0
 26 24  2  0
M  END
$$$$
