THI.pdb
     RDKit          3D

 26 26  0  0  1  0  0  0  0  0999 V2000
    6.2393  -20.2351   26.2348 C   0  0  0  0  0  0  0  0  0  0  0  0
    6.9904  -19.1015   25.5750 C   0  0  1  0  0  0  0  0  0  0  0  0
    8.0569  -18.7730   26.3908 O   0  0  0  0  0  0  0  0  0  0  0  0
    7.4028  -19.4595   24.1694 C   0  0  2  0  0  0  0  0  0  0  0  0
    8.2512  -20.6220   24.2438 N   0  0  0  0  0  0  0  0  0  0  0  0
    8.0766  -18.3700   23.4622 C   0  0  0  0  0  0  0  0  0  0  0  0
    9.3294  -18.2749   23.5058 O   0  0  0  0  0  0  0  0  0  0  0  0
    7.3825  -17.3912   22.7125 N   0  0  0  0  0  0  0  0  0  0  0  0
    8.0861  -16.2368   22.0795 C   0  0  1  0  0  0  0  0  0  0  0  0
    7.0873  -15.5989   21.1534 C   0  0  0  0  0  0  0  0  0  0  0  0
    7.5479  -14.4692   20.3686 C   0  0  0  0  0  0  0  0  0  0  0  0
    8.8703  -14.0059   20.3442 C   0  0  0  0  0  0  0  0  0  0  0  0
    8.8601  -12.9632   19.5081 N   0  0  0  0  0  0  0  0  0  0  0  0
    7.6275  -12.7697   19.0310 C   0  0  0  0  0  0  0  0  0  0  0  0
    6.8237  -13.6881   19.5549 N   0  0  0  0  0  0  0  0  0  0  0  0
    8.5139  -15.3526   23.1534 C   0  0  0  0  0  0  0  0  0  0  0  0
    9.1891  -14.3063   22.8651 O   0  0  0  0  0  0  0  0  0  0  0  0
    6.6036  -11.5682   26.8772 C   0  0  0  0  0  0  0  0  0  0  0  0
    7.7515  -12.4822   26.6259 C   0  0  0  0  0  0  0  0  0  0  0  0
    7.4518  -13.5717   25.6284 C   0  0  2  0  0  0  0  0  0  0  0  0
    6.1798  -14.3063   25.9574 C   0  0  0  0  0  0  0  0  0  0  0  0
    8.6061  -14.5625   25.5281 C   0  0  2  0  0  0  0  0  0  0  0  0
    8.2332  -15.5501   24.5298 N   0  0  0  0  0  0  0  0  0  0  0  0
    8.8839  -15.1498   26.8462 C   0  0  0  0  0  0  0  0  0  0  0  0
    9.4408  -14.4970   27.9257 O   0  0  0  0  0  0  0  0  0  0  0  0
    8.6034  -16.3859   27.0742 O   0  0  0  0  0  0  0  0  0  0  0  0
  2  1  1  1
  3  2  1  0
  4  2  1  0
  4  6  1  0
  4  5  1  1
  6  7  2  0
  8  6  1  0
  8  9  1  0
  9 10  1  6
 11 10  1  0
 12 11  2  0
 13 12  1  0
 14 13  1  0
 14 15  2  0
 15 11  1  0
 16  9  1  0
 16 17  2  0
 18 19  1  0
 19 20  1  0
 20 21  1  1
 20 22  1  0
 22 23  1  6
 23 16  1  0
 24 22  1  0
 24 25  1  0
 26 24  2  0
M  END
$$$$
