THI.pdb
     RDKit          3D

 26 26  0  0  1  0  0  0  0  0999 V2000
    9.5742  -12.5582   18.2118 C   0  0  0  0  0  0  0  0  0  0  0  0
    9.0630  -13.0870   19.5321 C   0  0  1  0  0  0  0  0  0  0  0  0
    8.1930  -12.1473   20.0527 O   0  0  0  0  0  0  0  0  0  0  0  0
    8.4418  -14.4520   19.3744 C   0  0  2  0  0  0  0  0  0  0  0  0
    7.3088  -14.3193   18.4939 N   0  0  0  0  0  0  0  0  0  0  0  0
    8.0443  -15.0637   20.6428 C   0  0  0  0  0  0  0  0  0  0  0  0
    6.8629  -14.9406   21.0548 O   0  0  0  0  0  0  0  0  0  0  0  0
    8.9350  -15.8052   21.4545 N   0  0  0  0  0  0  0  0  0  0  0  0
    8.5054  -16.4065   22.7514 C   0  0  1  0  0  0  0  0  0  0  0  0
    9.1217  -17.7778   22.7976 C   0  0  0  0  0  0  0  0  0  0  0  0
    8.4663  -18.8183   22.0282 C   0  0  0  0  0  0  0  0  0  0  0  0
    7.3005  -18.6324   21.2731 C   0  0  0  0  0  0  0  0  0  0  0  0
    7.0390  -19.8271   20.7337 N   0  0  0  0  0  0  0  0  0  0  0  0
    7.9640  -20.7136   21.1118 C   0  0  0  0  0  0  0  0  0  0  0  0
    8.8373  -20.1003   21.9025 N   0  0  0  0  0  0  0  0  0  0  0  0
    8.9833  -15.5307   23.8110 C   0  0  0  0  0  0  0  0  0  0  0  0
   10.1590  -15.0365   23.7259 O   0  0  0  0  0  0  0  0  0  0  0  0
    5.7022  -12.3196   27.0244 C   0  0  0  0  0  0  0  0  0  0  0  0
    6.5372  -13.4823   26.6159 C   0  0  0  0  0  0  0  0  0  0  0  0
    7.9148  -13.1011   26.1373 C   0  0  2  0  0  0  0  0  0  0  0  0
    7.8737  -12.3537   24.8314 C   0  0  0  0  0  0  0  0  0  0  0  0
    8.8113  -14.3264   26.0001 C   0  0  2  0  0  0  0  0  0  0  0  0
    8.2359  -15.1597   24.9581 N   0  0  0  0  0  0  0  0  0  0  0  0
    8.9270  -15.0154   27.2929 C   0  0  0  0  0  0  0  0  0  0  0  0
    9.5652  -14.5335   28.4162 O   0  0  0  0  0  0  0  0  0  0  0  0
    8.4040  -16.1815   27.4519 O   0  0  0  0  0  0  0  0  0  0  0  0
  2  1  1  6
  3  2  1  0
  4  2  1  0
  4  6  1  0
  4  5  1  6
  6  7  2  0
  8  6  1  0
  8  9  1  0
  9 10  1  1
 11 10  1  0
 12 11  2  0
 13 12  1  0
 14 13  1  0
 14 15  2  0
 15 11  1  0
 16  9  1  0
 16 17  2  0
 18 19  1  0
 19 20  1  0
 20 21  1  6
 20 22  1  0
 22 23  1  6
 23 16  1  0
 24 22  1  0
 24 25  1  0
 26 24  2  0
M  END
$$$$
