THI.pdb
     RDKit          3D

 26 26  0  0  1  0  0  0  0  0999 V2000
   10.3195  -13.6552   17.8057 C   0  0  0  0  0  0  0  0  0  0  0  0
    9.8618  -14.0306   19.1963 C   0  0  1  0  0  0  0  0  0  0  0  0
   10.1915  -12.9886   20.0428 O   0  0  0  0  0  0  0  0  0  0  0  0
    8.3938  -14.3748   19.2180 C   0  0  2  0  0  0  0  0  0  0  0  0
    7.6653  -13.2188   18.7603 N   0  0  0  0  0  0  0  0  0  0  0  0
    7.9132  -14.8042   20.5317 C   0  0  0  0  0  0  0  0  0  0  0  0
    7.2064  -14.0290   21.2244 O   0  0  0  0  0  0  0  0  0  0  0  0
    8.2050  -16.0743   21.0827 N   0  0  0  0  0  0  0  0  0  0  0  0
    7.5790  -16.5456   22.3533 C   0  0  1  0  0  0  0  0  0  0  0  0
    7.8320  -18.0270   22.4162 C   0  0  0  0  0  0  0  0  0  0  0  0
    7.4903  -18.6992   23.6555 C   0  0  0  0  0  0  0  0  0  0  0  0
    8.4228  -19.2686   24.5330 C   0  0  0  0  0  0  0  0  0  0  0  0
    7.6965  -19.7774   25.5330 N   0  0  0  0  0  0  0  0  0  0  0  0
    6.3975  -19.5532   25.3168 C   0  0  0  0  0  0  0  0  0  0  0  0
    6.2684  -18.8948   24.1706 N   0  0  0  0  0  0  0  0  0  0  0  0
    8.2094  -15.8127   23.4412 C   0  0  0  0  0  0  0  0  0  0  0  0
    9.4200  -15.4242   23.3095 O   0  0  0  0  0  0  0  0  0  0  0  0
    5.7691  -11.9654   26.0294 C   0  0  0  0  0  0  0  0  0  0  0  0
    6.7905  -12.8757   25.4425 C   0  0  0  0  0  0  0  0  0  0  0  0
    7.3554  -13.8677   26.4268 C   0  0  2  0  0  0  0  0  0  0  0  0
    8.0510  -13.1906   27.5771 C   0  0  0  0  0  0  0  0  0  0  0  0
    8.3142  -14.8377   25.7456 C   0  0  2  0  0  0  0  0  0  0  0  0
    7.5791  -15.4746   24.6662 N   0  0  0  0  0  0  0  0  0  0  0  0
    8.8459  -15.7947   26.7258 C   0  0  0  0  0  0  0  0  0  0  0  0
   10.0574  -15.7013   27.3780 O   0  0  0  0  0  0  0  0  0  0  0  0
    8.1623  -16.8383   27.0457 O   0  0  0  0  0  0  0  0  0  0  0  0
  2  1  1  6
  3  2  1  0
  4  2  1  0
  4  6  1  0
  4  5  1  1
  6  7  2  0
  8  6  1  0
  8  9  1  0
  9 10  1  1
 11 10  1  0
 12 11  2  0
 13 12  1  0
 14 13  1  0
 14 15  2  0
 15 11  1  0
 16  9  1  0
 16 17  2  0
 18 19  1  0
 19 20  1  0
 20 21  1  1
 20 22  1  0
 22 23  1  6
 23 16  1  0
 24 22  1  0
 24 25  1  0
 26 24  2  0
M  END
$$$$
