THI.pdb
     RDKit          3D

 26 26  0  0  1  0  0  0  0  0999 V2000
    9.0180  -12.6996   19.9713 C   0  0  0  0  0  0  0  0  0  0  0  0
    8.3373  -13.4435   18.8455 C   0  0  1  0  0  0  0  0  0  0  0  0
    8.9162  -13.0322   17.6595 O   0  0  0  0  0  0  0  0  0  0  0  0
    8.4015  -14.9356   19.0544 C   0  0  2  0  0  0  0  0  0  0  0  0
    7.8130  -15.5659   17.8998 N   0  0  0  0  0  0  0  0  0  0  0  0
    7.7427  -15.3831   20.2820 C   0  0  0  0  0  0  0  0  0  0  0  0
    6.4929  -15.5157   20.3098 O   0  0  0  0  0  0  0  0  0  0  0  0
    8.4485  -15.6831   21.4710 N   0  0  0  0  0  0  0  0  0  0  0  0
    7.7542  -16.1746   22.6976 C   0  0  1  0  0  0  0  0  0  0  0  0
    7.9931  -17.6589   22.7434 C   0  0  0  0  0  0  0  0  0  0  0  0
    7.5265  -18.3629   23.9228 C   0  0  0  0  0  0  0  0  0  0  0  0
    6.8137  -17.7679   24.9724 C   0  0  0  0  0  0  0  0  0  0  0  0
    6.5851  -18.7554   25.8437 N   0  0  0  0  0  0  0  0  0  0  0  0
    7.1095  -19.8974   25.3909 C   0  0  0  0  0  0  0  0  0  0  0  0
    7.6853  -19.6608   24.2176 N   0  0  0  0  0  0  0  0  0  0  0  0
    8.3326  -15.4687   23.8314 C   0  0  0  0  0  0  0  0  0  0  0  0
    9.6043  -15.3817   23.9263 O   0  0  0  0  0  0  0  0  0  0  0  0
    5.3143  -11.7135   26.3628 C   0  0  0  0  0  0  0  0  0  0  0  0
    6.4358  -12.4636   25.7337 C   0  0  0  0  0  0  0  0  0  0  0  0
    7.1846  -13.3523   26.6936 C   0  0  2  0  0  0  0  0  0  0  0  0
    7.8192  -12.5697   27.8120 C   0  0  0  0  0  0  0  0  0  0  0  0
    8.2481  -14.1728   25.9727 C   0  0  2  0  0  0  0  0  0  0  0  0
    7.5891  -14.8442   24.8655 N   0  0  0  0  0  0  0  0  0  0  0  0
    8.8917  -15.1023   26.9114 C   0  0  0  0  0  0  0  0  0  0  0  0
   10.0524  -14.8692   27.6186 O   0  0  0  0  0  0  0  0  0  0  0  0
    8.3699  -16.2584   27.1350 O   0  0  0  0  0  0  0  0  0  0  0  0
  2  1  1  1
  3  2  1  0
  4  2  1  0
  4  6  1  0
  4  5  1  6
  6  7  2  0
  8  6  1  0
  8  9  1  0
  9 10  1  1
 11 10  1  0
 12 11  2  0
 13 12  1  0
 14 13  1  0
 14 15  2  0
 15 11  1  0
 16  9  1  0
 16 17  2  0
 18 19  1  0
 19 20  1  0
 20 21  1  1
 20 22  1  0
 22 23  1  6
 23 16  1  0
 24 22  1  0
 24 25  1  0
 26 24  2  0
M  END
$$$$
