PAQ.pdb
     RDKit          3D

 22 22  0  0  1  0  0  0  0  0999 V2000
    8.5180  -15.3874   19.3442 N   0  0  0  0  0  0  0  0  0  0  0  0
    7.7722  -16.2053   18.3662 C   0  0  0  0  0  0  0  0  0  0  0  0
    7.1265  -17.1954   19.3437 C   0  0  0  0  0  0  0  0  0  0  0  0
    6.5557  -16.2384   20.3639 C   0  0  0  0  0  0  0  0  0  0  0  0
    7.5589  -15.0959   20.3596 C   0  0  1  0  0  0  0  0  0  0  0  0
    8.1029  -14.9451   21.7124 C   0  0  0  0  0  0  0  0  0  0  0  0
    9.2304  -15.4621   22.0246 O   0  0  0  0  0  0  0  0  0  0  0  0
    7.1549  -13.3480   25.0424 C   0  0  0  0  0  0  0  0  0  0  0  0
    7.9859  -14.2186   24.1274 C   0  0  2  0  0  0  0  0  0  0  0  0
    7.4740  -14.2435   22.7805 N   0  0  0  0  0  0  0  0  0  0  0  0
    8.0861  -15.5568   24.7325 C   0  0  0  0  0  0  0  0  0  0  0  0
    7.3955  -16.4873   24.2429 O   0  0  0  0  0  0  0  0  0  0  0  0
   12.0934  -18.9804   23.1813 N   0  0  0  0  0  0  0  0  0  0  0  0
   12.4098  -17.6971   23.7320 C   0  0  0  0  0  0  0  0  0  0  0  0
   13.3130  -17.0035   23.2350 O   0  0  0  0  0  0  0  0  0  0  0  0
   11.6247  -17.2483   24.8984 C   0  0  0  0  0  0  0  0  0  0  0  0
   10.2210  -17.7338   24.9327 C   0  0  0  0  0  0  0  0  0  0  0  0
    9.3900  -17.2507   26.0814 C   0  0  2  0  0  0  0  0  0  0  0  0
    8.9148  -15.8799   25.8417 N   0  0  0  0  0  0  0  0  0  0  0  0
   10.1218  -17.2566   27.3641 C   0  0  0  0  0  0  0  0  0  0  0  0
   10.4915  -18.3440   27.8543 O   0  0  0  0  0  0  0  0  0  0  0  0
   10.4153  -16.0913   28.0474 O   0  0  0  0  0  0  0  0  0  0  0  0
  2  1  1  0
  3  2  1  0
  4  3  1  0
  4  5  1  0
  5  1  1  0
  5  6  1  1
  6 10  1  0
  7  6  2  0
  9  8  1  1
  9 10  1  0
  9 11  1  0
 11 19  1  0
 12 11  2  0
 14 13  1  0
 14 16  1  0
 15 14  2  0
 17 16  1  0
 18 20  1  0
 18 17  1  6
 19 18  1  0
 20 22  1  0
 21 20  2  0
M  END
$$$$
