PAQ.pdb
     RDKit          3D

 22 22  0  0  1  0  0  0  0  0999 V2000
    9.1845  -14.5049   18.6756 N   0  0  0  0  0  0  0  0  0  0  0  0
    8.7001  -13.8369   17.4506 C   0  0  0  0  0  0  0  0  0  0  0  0
    7.2443  -13.6092   17.8767 C   0  0  0  0  0  0  0  0  0  0  0  0
    7.4524  -12.9890   19.2385 C   0  0  0  0  0  0  0  0  0  0  0  0
    8.7160  -13.6730   19.7360 C   0  0  1  0  0  0  0  0  0  0  0  0
    8.4100  -14.3672   20.9903 C   0  0  0  0  0  0  0  0  0  0  0  0
    7.8860  -13.7390   21.9737 O   0  0  0  0  0  0  0  0  0  0  0  0
    8.7479  -17.8428   22.5206 C   0  0  0  0  0  0  0  0  0  0  0  0
    8.3186  -16.3934   22.4934 C   0  0  2  0  0  0  0  0  0  0  0  0
    8.6476  -15.7476   21.2478 N   0  0  0  0  0  0  0  0  0  0  0  0
    8.9011  -15.7196   23.6654 C   0  0  0  0  0  0  0  0  0  0  0  0
   10.0878  -15.3092   23.5902 O   0  0  0  0  0  0  0  0  0  0  0  0
    6.2294  -10.6882   26.5662 N   0  0  0  0  0  0  0  0  0  0  0  0
    6.1814  -12.1131   26.6978 C   0  0  0  0  0  0  0  0  0  0  0  0
    5.3138  -12.6517   27.4056 O   0  0  0  0  0  0  0  0  0  0  0  0
    7.1958  -12.8956   25.9649 C   0  0  0  0  0  0  0  0  0  0  0  0
    7.8573  -13.9628   26.7591 C   0  0  0  0  0  0  0  0  0  0  0  0
    8.8521  -14.8053   26.0214 C   0  0  2  0  0  0  0  0  0  0  0  0
    8.2146  -15.4955   24.8902 N   0  0  0  0  0  0  0  0  0  0  0  0
    9.4851  -15.8298   26.8761 C   0  0  0  0  0  0  0  0  0  0  0  0
   10.2402  -15.4729   27.8044 O   0  0  0  0  0  0  0  0  0  0  0  0
    9.2697  -17.1817   26.6839 O   0  0  0  0  0  0  0  0  0  0  0  0
  2  1  1  0
  3  2  1  0
  4  3  1  0
  4  5  1  0
  5  1  1  0
  5  6  1  1
  6 10  1  0
  7  6  2  0
  9  8  1  6
  9 10  1  0
  9 11  1  0
 11 19  1  0
 12 11  2  0
 14 13  1  0
 14 16  1  0
 15 14  2  0
 17 16  1  0
 18 20  1  0
 18 17  1  1
 19 18  1  0
 20 22  1  0
 21 20  2  0
M  END
$$$$
