PAQ.pdb
     RDKit          3D

 22 22  0  0  1  0  0  0  0  0999 V2000
    8.8055  -14.6411   18.3685 N   0  0  0  0  0  0  0  0  0  0  0  0
    8.1887  -13.7112   17.4009 C   0  0  0  0  0  0  0  0  0  0  0  0
    7.0060  -13.2431   18.2581 C   0  0  0  0  0  0  0  0  0  0  0  0
    7.7216  -12.8903   19.5410 C   0  0  0  0  0  0  0  0  0  0  0  0
    8.8626  -13.8945   19.5832 C   0  0  1  0  0  0  0  0  0  0  0  0
    8.7456  -14.6850   20.8121 C   0  0  0  0  0  0  0  0  0  0  0  0
    8.8068  -14.1223   21.9592 O   0  0  0  0  0  0  0  0  0  0  0  0
    8.2210  -18.3106   21.8703 C   0  0  0  0  0  0  0  0  0  0  0  0
    8.4463  -16.8339   22.1029 C   0  0  2  0  0  0  0  0  0  0  0  0
    8.5604  -16.0960   20.8704 N   0  0  0  0  0  0  0  0  0  0  0  0
    9.6192  -16.6805   22.9792 C   0  0  0  0  0  0  0  0  0  0  0  0
   10.7467  -16.5181   22.4455 O   0  0  0  0  0  0  0  0  0  0  0  0
   10.0842  -12.9869   27.6734 N   0  0  0  0  0  0  0  0  0  0  0  0
    9.5651  -14.2262   28.1680 C   0  0  0  0  0  0  0  0  0  0  0  0
    8.9687  -14.2698   29.2571 O   0  0  0  0  0  0  0  0  0  0  0  0
    9.7710  -15.4273   27.3353 C   0  0  0  0  0  0  0  0  0  0  0  0
   10.5181  -15.1933   26.0726 C   0  0  0  0  0  0  0  0  0  0  0  0
   10.7554  -16.4016   25.2198 C   0  0  2  0  0  0  0  0  0  0  0  0
    9.5722  -16.7024   24.4001 N   0  0  0  0  0  0  0  0  0  0  0  0
   11.0768  -17.6084   26.0079 C   0  0  0  0  0  0  0  0  0  0  0  0
   10.2354  -18.5272   26.0934 O   0  0  0  0  0  0  0  0  0  0  0  0
   12.2865  -17.7591   26.6598 O   0  0  0  0  0  0  0  0  0  0  0  0
  2  1  1  0
  3  2  1  0
  4  3  1  0
  4  5  1  0
  5  1  1  0
  5  6  1  1
  6 10  1  0
  7  6  2  0
  9  8  1  6
  9 10  1  0
  9 11  1  0
 11 19  1  0
 12 11  2  0
 14 13  1  0
 14 16  1  0
 15 14  2  0
 17 16  1  0
 18 20  1  0
 18 17  1  1
 19 18  1  0
 20 22  1  0
 21 20  2  0
M  END
$$$$
