PAQ.pdb
     RDKit          3D

 22 22  0  0  1  0  0  0  0  0999 V2000
    7.5180  -14.9875   19.2737 N   0  0  0  0  0  0  0  0  0  0  0  0
    7.0763  -14.1894   18.1120 C   0  0  0  0  0  0  0  0  0  0  0  0
    7.3997  -12.7935   18.6594 C   0  0  0  0  0  0  0  0  0  0  0  0
    8.8161  -13.0097   19.1385 C   0  0  0  0  0  0  0  0  0  0  0  0
    8.8064  -14.4618   19.5894 C   0  0  1  0  0  0  0  0  0  0  0  0
    9.1759  -14.5146   21.0070 C   0  0  0  0  0  0  0  0  0  0  0  0
   10.3908  -14.3503   21.3720 O   0  0  0  0  0  0  0  0  0  0  0  0
    7.5529  -14.4838   24.4165 C   0  0  0  0  0  0  0  0  0  0  0  0
    8.6845  -14.8037   23.4663 C   0  0  2  0  0  0  0  0  0  0  0  0
    8.2748  -14.7428   22.0860 N   0  0  0  0  0  0  0  0  0  0  0  0
    9.2473  -16.1101   23.8452 C   0  0  0  0  0  0  0  0  0  0  0  0
    8.6065  -17.1484   23.5387 O   0  0  0  0  0  0  0  0  0  0  0  0
   13.4710  -19.1326   22.6241 N   0  0  0  0  0  0  0  0  0  0  0  0
   13.6944  -19.6714   23.9317 C   0  0  0  0  0  0  0  0  0  0  0  0
   14.2863  -20.7544   24.0744 O   0  0  0  0  0  0  0  0  0  0  0  0
   13.1945  -18.8908   25.0803 C   0  0  0  0  0  0  0  0  0  0  0  0
   12.5166  -17.6175   24.7246 C   0  0  0  0  0  0  0  0  0  0  0  0
   11.0217  -17.6244   24.8184 C   0  0  2  0  0  0  0  0  0  0  0  0
   10.4751  -16.2880   24.5396 N   0  0  0  0  0  0  0  0  0  0  0  0
   10.5301  -18.0448   26.1460 C   0  0  0  0  0  0  0  0  0  0  0  0
   10.4038  -19.2617   26.3961 O   0  0  0  0  0  0  0  0  0  0  0  0
   10.2020  -17.1316   27.1305 O   0  0  0  0  0  0  0  0  0  0  0  0
  2  1  1  0
  3  2  1  0
  4  3  1  0
  4  5  1  0
  5  1  1  0
  5  6  1  1
  6 10  1  0
  7  6  2  0
  9  8  1  1
  9 10  1  0
  9 11  1  0
 11 19  1  0
 12 11  2  0
 14 13  1  0
 14 16  1  0
 15 14  2  0
 17 16  1  0
 18 20  1  0
 18 17  1  1
 19 18  1  0
 20 22  1  0
 21 20  2  0
M  END
$$$$
