PAQ.pdb
     RDKit          3D

 22 22  0  0  1  0  0  0  0  0999 V2000
    8.7114  -15.5071   18.2629 N   0  0  0  0  0  0  0  0  0  0  0  0
    8.8167  -15.1626   16.8305 C   0  0  0  0  0  0  0  0  0  0  0  0
    7.9866  -13.8728   16.8457 C   0  0  0  0  0  0  0  0  0  0  0  0
    8.6228  -13.1526   18.0114 C   0  0  0  0  0  0  0  0  0  0  0  0
    9.0216  -14.2895   18.9390 C   0  0  1  0  0  0  0  0  0  0  0  0
    8.3511  -14.0990   20.2286 C   0  0  0  0  0  0  0  0  0  0  0  0
    8.6526  -13.1101   20.9819 O   0  0  0  0  0  0  0  0  0  0  0  0
    5.2891  -15.3232   22.0578 C   0  0  0  0  0  0  0  0  0  0  0  0
    6.6585  -14.6845   22.0077 C   0  0  2  0  0  0  0  0  0  0  0  0
    7.3403  -14.9465   20.7655 N   0  0  0  0  0  0  0  0  0  0  0  0
    7.4166  -15.1298   23.1884 C   0  0  0  0  0  0  0  0  0  0  0  0
    6.8210  -15.1855   24.2950 O   0  0  0  0  0  0  0  0  0  0  0  0
    8.1893  -20.0523   25.2034 N   0  0  0  0  0  0  0  0  0  0  0  0
    7.8818  -19.0706   26.1993 C   0  0  0  0  0  0  0  0  0  0  0  0
    7.2650  -19.3900   27.2296 O   0  0  0  0  0  0  0  0  0  0  0  0
    8.3250  -17.6860   25.9451 C   0  0  0  0  0  0  0  0  0  0  0  0
    8.9608  -17.4653   24.6206 C   0  0  0  0  0  0  0  0  0  0  0  0
    9.4505  -16.0751   24.3539 C   0  0  2  0  0  0  0  0  0  0  0  0
    8.7876  -15.5061   23.1711 N   0  0  0  0  0  0  0  0  0  0  0  0
   10.9086  -16.0118   24.1280 C   0  0  0  0  0  0  0  0  0  0  0  0
   11.6856  -16.1413   25.0970 O   0  0  0  0  0  0  0  0  0  0  0  0
   11.4489  -15.8128   22.8713 O   0  0  0  0  0  0  0  0  0  0  0  0
  2  1  1  0
  3  2  1  0
  4  3  1  0
  4  5  1  0
  5  1  1  0
  5  6  1  1
  6 10  1  0
  7  6  2  0
  9  8  1  6
  9 10  1  0
  9 11  1  0
 11 19  1  0
 12 11  2  0
 14 13  1  0
 14 16  1  0
 15 14  2  0
 17 16  1  0
 18 20  1  0
 18 17  1  6
 19 18  1  0
 20 22  1  0
 21 20  2  0
M  END
$$$$
