PAQ.pdb
     RDKit          3D

 22 22  0  0  1  0  0  0  0  0999 V2000
    7.5441  -14.7328   19.1814 N   0  0  0  0  0  0  0  0  0  0  0  0
    7.2956  -13.8850   17.9977 C   0  0  0  0  0  0  0  0  0  0  0  0
    7.7583  -12.5429   18.5785 C   0  0  0  0  0  0  0  0  0  0  0  0
    9.0959  -12.9422   19.1562 C   0  0  0  0  0  0  0  0  0  0  0  0
    8.8640  -14.3800   19.5931 C   0  0  1  0  0  0  0  0  0  0  0  0
    9.1200  -14.4791   21.0331 C   0  0  0  0  0  0  0  0  0  0  0  0
   10.3148  -14.5795   21.4788 O   0  0  0  0  0  0  0  0  0  0  0  0
    7.2697  -14.1268   24.3237 C   0  0  0  0  0  0  0  0  0  0  0  0
    8.4190  -14.5869   23.4559 C   0  0  2  0  0  0  0  0  0  0  0  0
    8.1229  -14.4758   22.0500 N   0  0  0  0  0  0  0  0  0  0  0  0
    8.7841  -15.9536   23.8635 C   0  0  0  0  0  0  0  0  0  0  0  0
    8.3326  -16.9177   23.1935 O   0  0  0  0  0  0  0  0  0  0  0  0
   14.5455  -19.7803   23.5087 N   0  0  0  0  0  0  0  0  0  0  0  0
   13.6080  -18.7051   23.3847 C   0  0  0  0  0  0  0  0  0  0  0  0
   13.8062  -17.7870   22.5713 O   0  0  0  0  0  0  0  0  0  0  0  0
   12.4172  -18.7409   24.2559 C   0  0  0  0  0  0  0  0  0  0  0  0
   11.5375  -17.5473   24.1632 C   0  0  0  0  0  0  0  0  0  0  0  0
   10.3379  -17.5480   25.0602 C   0  0  2  0  0  0  0  0  0  0  0  0
    9.6185  -16.2687   24.9708 N   0  0  0  0  0  0  0  0  0  0  0  0
   10.6799  -17.7750   26.4788 C   0  0  0  0  0  0  0  0  0  0  0  0
   10.9682  -18.9275   26.8634 O   0  0  0  0  0  0  0  0  0  0  0  0
   10.6927  -16.7483   27.4044 O   0  0  0  0  0  0  0  0  0  0  0  0
  2  1  1  0
  3  2  1  0
  4  3  1  0
  4  5  1  0
  5  1  1  0
  5  6  1  1
  6 10  1  0
  7  6  2  0
  9  8  1  1
  9 10  1  0
  9 11  1  0
 11 19  1  0
 12 11  2  0
 14 13  1  0
 14 16  1  0
 15 14  2  0
 17 16  1  0
 18 20  1  0
 18 17  1  6
 19 18  1  0
 20 22  1  0
 21 20  2  0
M  END
$$$$
