PAQ.pdb
     RDKit          3D

 22 22  0  0  1  0  0  0  0  0999 V2000
    9.2563  -14.4626   18.5814 N   0  0  0  0  0  0  0  0  0  0  0  0
    8.8751  -13.7524   17.3437 C   0  0  0  0  0  0  0  0  0  0  0  0
    7.3912  -13.5266   17.6594 C   0  0  0  0  0  0  0  0  0  0  0  0
    7.4932  -12.9513   19.0527 C   0  0  0  0  0  0  0  0  0  0  0  0
    8.7092  -13.6607   19.6272 C   0  0  1  0  0  0  0  0  0  0  0  0
    8.3001  -14.3915   20.8302 C   0  0  0  0  0  0  0  0  0  0  0  0
    7.7216  -13.7862   21.7973 O   0  0  0  0  0  0  0  0  0  0  0  0
    8.3835  -17.9433   22.2153 C   0  0  0  0  0  0  0  0  0  0  0  0
    8.0721  -16.4644   22.2531 C   0  0  2  0  0  0  0  0  0  0  0  0
    8.4886  -15.7857   21.0520 N   0  0  0  0  0  0  0  0  0  0  0  0
    8.6711  -15.8998   23.4735 C   0  0  0  0  0  0  0  0  0  0  0  0
    9.8889  -15.5854   23.4511 O   0  0  0  0  0  0  0  0  0  0  0  0
    5.8050  -12.3579   27.5870 N   0  0  0  0  0  0  0  0  0  0  0  0
    6.4614  -11.8999   26.3998 C   0  0  0  0  0  0  0  0  0  0  0  0
    6.2094  -10.7760   25.9340 O   0  0  0  0  0  0  0  0  0  0  0  0
    7.4336  -12.8133   25.7682 C   0  0  0  0  0  0  0  0  0  0  0  0
    7.6791  -14.0769   26.5100 C   0  0  0  0  0  0  0  0  0  0  0  0
    8.6088  -15.0505   25.8534 C   0  0  2  0  0  0  0  0  0  0  0  0
    7.9678  -15.6807   24.6896 N   0  0  0  0  0  0  0  0  0  0  0  0
    9.0512  -16.1269   26.7625 C   0  0  0  0  0  0  0  0  0  0  0  0
    8.6087  -17.2839   26.6043 O   0  0  0  0  0  0  0  0  0  0  0  0
    9.9458  -15.8979   27.7912 O   0  0  0  0  0  0  0  0  0  0  0  0
  2  1  1  0
  3  2  1  0
  4  3  1  0
  4  5  1  0
  5  1  1  0
  5  6  1  1
  6 10  1  0
  7  6  2  0
  9  8  1  6
  9 10  1  0
  9 11  1  0
 11 19  1  0
 12 11  2  0
 14 13  1  0
 14 16  1  0
 15 14  2  0
 17 16  1  0
 18 20  1  0
 18 17  1  1
 19 18  1  0
 20 22  1  0
 21 20  2  0
M  END
$$$$
