TEW.pdb
     RDKit          3D

 31 32  0  0  1  0  0  0  0  0999 V2000
    9.5730  -12.9082   20.3544 C   0  0  0  0  0  0  0  0  0  0  0  0
    8.1007  -13.0071   20.1269 C   0  0  1  0  0  0  0  0  0  0  0  0
    7.6943  -12.1244   19.1396 O   0  0  0  0  0  0  0  0  0  0  0  0
    7.6172  -14.3851   19.7761 C   0  0  2  0  0  0  0  0  0  0  0  0
    6.2090  -14.4297   19.4811 N   0  0  0  0  0  0  0  0  0  0  0  0
    7.9313  -15.3477   20.8794 C   0  0  0  0  0  0  0  0  0  0  0  0
    7.1483  -15.4916   21.8568 O   0  0  0  0  0  0  0  0  0  0  0  0
    9.1086  -16.1426   20.8921 N   0  0  0  0  0  0  0  0  0  0  0  0
    9.3530  -17.1074   21.9377 C   0  0  1  0  0  0  0  0  0  0  0  0
   10.3224  -18.1516   21.4905 C   0  0  0  0  0  0  0  0  0  0  0  0
   10.5358  -19.2377   22.5072 C   0  0  0  0  0  0  0  0  0  0  0  0
   11.5482  -20.1815   21.9616 C   0  0  0  0  0  0  0  0  0  0  0  0
   12.6164  -19.8042   21.4294 O   0  0  0  0  0  0  0  0  0  0  0  0
    9.8513  -16.4626   23.1790 C   0  0  0  0  0  0  0  0  0  0  0  0
   10.6836  -15.5302   23.0643 O   0  0  0  0  0  0  0  0  0  0  0  0
   11.3199  -21.5558   22.0342 O   0  0  0  0  0  0  0  0  0  0  0  0
    9.4323  -16.8497   24.4767 N   0  0  0  0  0  0  0  0  0  0  0  0
   10.1153  -16.2997   25.6756 C   0  0  1  0  0  0  0  0  0  0  0  0
    9.0744  -16.0993   26.7408 C   0  0  0  0  0  0  0  0  0  0  0  0
    7.8709  -15.3682   26.3611 C   0  0  0  0  0  0  0  0  0  0  0  0
    6.7360  -15.9243   25.7718 C   0  0  0  0  0  0  0  0  0  0  0  0
    5.8523  -14.9362   25.5405 N   0  0  0  0  0  0  0  0  0  0  0  0
    6.3270  -13.7632   25.9382 C   0  0  0  0  0  0  0  0  0  0  0  0
    5.8250  -12.4758   25.9395 C   0  0  0  0  0  0  0  0  0  0  0  0
    6.5333  -11.4128   26.4405 C   0  0  0  0  0  0  0  0  0  0  0  0
    7.7794  -11.6474   26.9544 C   0  0  0  0  0  0  0  0  0  0  0  0
    8.2820  -12.9254   26.9543 C   0  0  0  0  0  0  0  0  0  0  0  0
    7.5982  -14.0258   26.4568 C   0  0  0  0  0  0  0  0  0  0  0  0
   11.1762  -17.2492   26.0164 C   0  0  0  0  0  0  0  0  0  0  0  0
   11.3816  -18.3496   25.4259 O   0  0  0  0  0  0  0  0  0  0  0  0
   12.0843  -17.0019   27.0669 O   0  0  0  0  0  0  0  0  0  0  0  0
  2  1  1  6
  3  2  1  0
  4  2  1  0
  4  5  1  1
  6  4  1  0
  6  7  2  0
  8  6  1  0
  9  8  1  0
  9 10  1  6
 11 10  1  0
 12 11  1  0
 13 12  2  0
 14  9  1  0
 15 14  2  0
 16 12  1  0
 17 14  1  0
 18 17  1  0
 18 19  1  1
 20 28  1  0
 20 19  1  0
 21 20  2  0
 22 21  1  0
 22 23  1  0
 23 28  2  0
 24 23  1  0
 24 25  2  0
 25 26  1  0
 26 27  2  0
 28 27  1  0
 29 18  1  0
 30 29  2  0
 31 29  1  0
M  END
$$$$
