TEW.pdb
     RDKit          3D

 31 32  0  0  1  0  0  0  0  0999 V2000
    7.9100  -12.1916   19.5882 C   0  0  0  0  0  0  0  0  0  0  0  0
    8.3526  -13.2896   20.4979 C   0  0  1  0  0  0  0  0  0  0  0  0
    8.1958  -12.9235   21.8247 O   0  0  0  0  0  0  0  0  0  0  0  0
    7.6594  -14.6024   20.2706 C   0  0  2  0  0  0  0  0  0  0  0  0
    6.2254  -14.5025   20.3457 N   0  0  0  0  0  0  0  0  0  0  0  0
    8.1446  -15.6278   21.2481 C   0  0  0  0  0  0  0  0  0  0  0  0
    7.4301  -15.9821   22.2244 O   0  0  0  0  0  0  0  0  0  0  0  0
    9.4157  -16.2522   21.1375 N   0  0  0  0  0  0  0  0  0  0  0  0
    9.8950  -17.1657   22.1475 C   0  0  1  0  0  0  0  0  0  0  0  0
   11.0425  -17.9754   21.6397 C   0  0  0  0  0  0  0  0  0  0  0  0
   11.5324  -18.9958   22.6284 C   0  0  0  0  0  0  0  0  0  0  0  0
   12.7160  -19.6747   22.0355 C   0  0  0  0  0  0  0  0  0  0  0  0
   13.3278  -20.6043   22.6084 O   0  0  0  0  0  0  0  0  0  0  0  0
   10.2955  -16.4562   23.3888 C   0  0  0  0  0  0  0  0  0  0  0  0
   11.0684  -15.4732   23.2815 O   0  0  0  0  0  0  0  0  0  0  0  0
   13.1855  -19.2752   20.7842 O   0  0  0  0  0  0  0  0  0  0  0  0
    9.8474  -16.8361   24.6789 N   0  0  0  0  0  0  0  0  0  0  0  0
   10.5804  -16.3791   25.8873 C   0  0  1  0  0  0  0  0  0  0  0  0
    9.9833  -15.0675   26.3131 C   0  0  0  0  0  0  0  0  0  0  0  0
    8.5524  -14.8895   26.0945 C   0  0  0  0  0  0  0  0  0  0  0  0
    7.6333  -15.9128   25.8659 C   0  0  0  0  0  0  0  0  0  0  0  0
    6.4212  -15.3588   25.6786 N   0  0  0  0  0  0  0  0  0  0  0  0
    6.4775  -14.0366   25.7689 C   0  0  0  0  0  0  0  0  0  0  0  0
    5.5380  -13.0279   25.6737 C   0  0  0  0  0  0  0  0  0  0  0  0
    5.8644  -11.7043   25.8298 C   0  0  0  0  0  0  0  0  0  0  0  0
    7.1689  -11.3836   26.0884 C   0  0  0  0  0  0  0  0  0  0  0  0
    8.1058  -12.3833   26.1831 C   0  0  0  0  0  0  0  0  0  0  0  0
    7.8162  -13.7320   26.0310 C   0  0  0  0  0  0  0  0  0  0  0  0
   10.4686  -17.4591   26.8692 C   0  0  0  0  0  0  0  0  0  0  0  0
   10.9584  -17.4319   28.0359 O   0  0  0  0  0  0  0  0  0  0  0  0
    9.7815  -18.6565   26.5806 O   0  0  0  0  0  0  0  0  0  0  0  0
  2  1  1  6
  3  2  1  0
  4  2  1  0
  4  5  1  1
  6  4  1  0
  6  7  2  0
  8  6  1  0
  9  8  1  0
  9 10  1  6
 11 10  1  0
 12 11  1  0
 13 12  2  0
 14  9  1  0
 15 14  2  0
 16 12  1  0
 17 14  1  0
 18 17  1  0
 18 19  1  1
 20 28  1  0
 20 19  1  0
 21 20  2  0
 22 21  1  0
 22 23  1  0
 23 28  2  0
 24 23  1  0
 24 25  2  0
 25 26  1  0
 26 27  2  0
 28 27  1  0
 29 18  1  0
 30 29  2  0
 31 29  1  0
M  END
$$$$
