TEW.pdb
     RDKit          3D

 31 32  0  0  1  0  0  0  0  0999 V2000
    8.9366  -12.8107   20.8499 C   0  0  0  0  0  0  0  0  0  0  0  0
    7.9229  -13.4005   19.9260 C   0  0  1  0  0  0  0  0  0  0  0  0
    7.7023  -12.5685   18.8406 O   0  0  0  0  0  0  0  0  0  0  0  0
    8.2644  -14.7742   19.4240 C   0  0  2  0  0  0  0  0  0  0  0  0
    7.2773  -15.3054   18.5210 N   0  0  0  0  0  0  0  0  0  0  0  0
    8.4582  -15.7182   20.5702 C   0  0  0  0  0  0  0  0  0  0  0  0
    7.4821  -16.3395   21.0706 O   0  0  0  0  0  0  0  0  0  0  0  0
    9.7296  -15.9667   21.1530 N   0  0  0  0  0  0  0  0  0  0  0  0
    9.9040  -16.9685   22.1777 C   0  0  1  0  0  0  0  0  0  0  0  0
   10.9802  -17.9353   21.8074 C   0  0  0  0  0  0  0  0  0  0  0  0
   12.0885  -17.3116   21.0064 C   0  0  0  0  0  0  0  0  0  0  0  0
   13.0796  -18.3757   20.6922 C   0  0  0  0  0  0  0  0  0  0  0  0
   13.8521  -18.8633   21.5479 O   0  0  0  0  0  0  0  0  0  0  0  0
   10.2111  -16.3612   23.4974 C   0  0  0  0  0  0  0  0  0  0  0  0
   11.0815  -15.4581   23.5413 O   0  0  0  0  0  0  0  0  0  0  0  0
   13.1722  -18.8699   19.3909 O   0  0  0  0  0  0  0  0  0  0  0  0
    9.5704  -16.7525   24.6998 N   0  0  0  0  0  0  0  0  0  0  0  0
   10.0699  -16.2544   26.0070 C   0  0  1  0  0  0  0  0  0  0  0  0
    8.8846  -16.0971   26.9173 C   0  0  0  0  0  0  0  0  0  0  0  0
    7.7571  -15.3244   26.4085 C   0  0  0  0  0  0  0  0  0  0  0  0
    6.5998  -15.8560   25.8406 C   0  0  0  0  0  0  0  0  0  0  0  0
    5.8071  -14.8362   25.4629 N   0  0  0  0  0  0  0  0  0  0  0  0
    6.3630  -13.6651   25.7439 C   0  0  0  0  0  0  0  0  0  0  0  0
    5.9676  -12.3514   25.5788 C   0  0  0  0  0  0  0  0  0  0  0  0
    6.7440  -11.2952   25.9843 C   0  0  0  0  0  0  0  0  0  0  0  0
    7.9500  -11.5639   26.5717 C   0  0  0  0  0  0  0  0  0  0  0  0
    8.3467  -12.8683   26.7369 C   0  0  0  0  0  0  0  0  0  0  0  0
    7.5916  -13.9629   26.3401 C   0  0  0  0  0  0  0  0  0  0  0  0
   11.0743  -17.2191   26.4582 C   0  0  0  0  0  0  0  0  0  0  0  0
   11.3146  -18.3298   25.9012 O   0  0  0  0  0  0  0  0  0  0  0  0
   11.8811  -16.9764   27.5894 O   0  0  0  0  0  0  0  0  0  0  0  0
  2  1  1  6
  3  2  1  0
  4  2  1  0
  4  5  1  6
  6  4  1  0
  6  7  2  0
  8  6  1  0
  9  8  1  0
  9 10  1  6
 11 10  1  0
 12 11  1  0
 13 12  2  0
 14  9  1  0
 15 14  2  0
 16 12  1  0
 17 14  1  0
 18 17  1  0
 18 19  1  1
 20 28  1  0
 20 19  1  0
 21 20  2  0
 22 21  1  0
 22 23  1  0
 23 28  2  0
 24 23  1  0
 24 25  2  0
 25 26  1  0
 26 27  2  0
 28 27  1  0
 29 18  1  0
 30 29  2  0
 31 29  1  0
M  END
$$$$
