TEW.pdb
     RDKit          3D

 31 32  0  0  1  0  0  0  0  0999 V2000
    7.5829  -12.6494   19.7225 C   0  0  0  0  0  0  0  0  0  0  0  0
    8.0838  -13.6521   20.7088 C   0  0  1  0  0  0  0  0  0  0  0  0
    7.2955  -13.6591   21.8479 O   0  0  0  0  0  0  0  0  0  0  0  0
    8.1809  -15.0530   20.1762 C   0  0  2  0  0  0  0  0  0  0  0  0
    6.9440  -15.5289   19.6144 N   0  0  0  0  0  0  0  0  0  0  0  0
    8.6407  -15.9912   21.2489 C   0  0  0  0  0  0  0  0  0  0  0  0
    7.8157  -16.6925   21.8942 O   0  0  0  0  0  0  0  0  0  0  0  0
   10.0089  -16.1454   21.5986 N   0  0  0  0  0  0  0  0  0  0  0  0
   10.4280  -17.1105   22.5870 C   0  0  1  0  0  0  0  0  0  0  0  0
   11.7622  -17.6872   22.2441 C   0  0  0  0  0  0  0  0  0  0  0  0
   12.5349  -16.8524   21.2618 C   0  0  0  0  0  0  0  0  0  0  0  0
   13.8764  -17.4726   21.0912 C   0  0  0  0  0  0  0  0  0  0  0  0
   14.9152  -17.0059   21.6105 O   0  0  0  0  0  0  0  0  0  0  0  0
   10.4741  -16.5217   23.9493 C   0  0  0  0  0  0  0  0  0  0  0  0
   11.1093  -15.4507   24.1062 O   0  0  0  0  0  0  0  0  0  0  0  0
   14.0093  -18.6283   20.3214 O   0  0  0  0  0  0  0  0  0  0  0  0
    9.8378  -17.1101   25.0711 N   0  0  0  0  0  0  0  0  0  0  0  0
   10.0263  -16.5289   26.4250 C   0  0  1  0  0  0  0  0  0  0  0  0
    8.6912  -16.5388   27.1147 C   0  0  0  0  0  0  0  0  0  0  0  0
    7.6751  -15.6263   26.6031 C   0  0  0  0  0  0  0  0  0  0  0  0
    6.5231  -16.0000   25.9119 C   0  0  0  0  0  0  0  0  0  0  0  0
    5.8506  -14.8839   25.5758 N   0  0  0  0  0  0  0  0  0  0  0  0
    6.4810  -13.7964   25.9995 C   0  0  0  0  0  0  0  0  0  0  0  0
    6.2120  -12.4429   25.9284 C   0  0  0  0  0  0  0  0  0  0  0  0
    7.0422  -11.5001   26.4802 C   0  0  0  0  0  0  0  0  0  0  0  0
    8.1732  -11.9265   27.1211 C   0  0  0  0  0  0  0  0  0  0  0  0
    8.4443  -13.2708   27.1933 C   0  0  0  0  0  0  0  0  0  0  0  0
    7.6313  -14.2545   26.6481 C   0  0  0  0  0  0  0  0  0  0  0  0
   11.0658  -17.3289   27.0749 C   0  0  0  0  0  0  0  0  0  0  0  0
   11.5417  -18.4089   26.6177 O   0  0  0  0  0  0  0  0  0  0  0  0
   11.6381  -16.9440   28.3052 O   0  0  0  0  0  0  0  0  0  0  0  0
  2  1  1  6
  3  2  1  0
  4  2  1  0
  4  5  1  1
  6  4  1  0
  6  7  2  0
  8  6  1  0
  9  8  1  0
  9 10  1  6
 11 10  1  0
 12 11  1  0
 13 12  2  0
 14  9  1  0
 15 14  2  0
 16 12  1  0
 17 14  1  0
 18 17  1  0
 18 19  1  1
 20 28  1  0
 20 19  1  0
 21 20  2  0
 22 21  1  0
 22 23  1  0
 23 28  2  0
 24 23  1  0
 24 25  2  0
 25 26  1  0
 26 27  2  0
 28 27  1  0
 29 18  1  0
 30 29  2  0
 31 29  1  0
M  END
$$$$
