TEW.pdb
     RDKit          3D

 31 32  0  0  1  0  0  0  0  0999 V2000
    7.6787  -12.6206   19.3626 C   0  0  0  0  0  0  0  0  0  0  0  0
    8.3042  -13.6889   20.1972 C   0  0  1  0  0  0  0  0  0  0  0  0
    8.3313  -13.3190   21.5319 O   0  0  0  0  0  0  0  0  0  0  0  0
    7.6475  -15.0344   20.0788 C   0  0  2  0  0  0  0  0  0  0  0  0
    6.2207  -14.9828   20.2621 N   0  0  0  0  0  0  0  0  0  0  0  0
    8.2462  -15.9980   21.0563 C   0  0  0  0  0  0  0  0  0  0  0  0
    7.5929  -16.3946   22.0588 O   0  0  0  0  0  0  0  0  0  0  0  0
    9.5622  -16.5144   20.9165 N   0  0  0  0  0  0  0  0  0  0  0  0
   10.1289  -17.4047   21.9016 C   0  0  1  0  0  0  0  0  0  0  0  0
   11.3202  -18.1217   21.3567 C   0  0  0  0  0  0  0  0  0  0  0  0
   10.9957  -19.0080   20.1871 C   0  0  0  0  0  0  0  0  0  0  0  0
   12.2627  -19.2831   19.4573 C   0  0  0  0  0  0  0  0  0  0  0  0
   13.2805  -19.7565   20.0110 O   0  0  0  0  0  0  0  0  0  0  0  0
   10.5050  -16.6853   23.1450 C   0  0  0  0  0  0  0  0  0  0  0  0
   11.2743  -15.6989   23.0443 O   0  0  0  0  0  0  0  0  0  0  0  0
   12.3458  -19.0094   18.0919 O   0  0  0  0  0  0  0  0  0  0  0  0
   10.0375  -17.0598   24.4298 N   0  0  0  0  0  0  0  0  0  0  0  0
   10.5089  -16.3321   25.6359 C   0  0  1  0  0  0  0  0  0  0  0  0
    9.9860  -14.9257   25.5525 C   0  0  0  0  0  0  0  0  0  0  0  0
    8.5481  -14.7434   25.7144 C   0  0  0  0  0  0  0  0  0  0  0  0
    7.5915  -15.7569   25.6669 C   0  0  0  0  0  0  0  0  0  0  0  0
    6.3768  -15.1997   25.8255 N   0  0  0  0  0  0  0  0  0  0  0  0
    6.4664  -13.8848   25.9755 C   0  0  0  0  0  0  0  0  0  0  0  0
    5.5429  -12.8777   26.1806 C   0  0  0  0  0  0  0  0  0  0  0  0
    5.9105  -11.5638   26.3257 C   0  0  0  0  0  0  0  0  0  0  0  0
    7.2410  -11.2513   26.2636 C   0  0  0  0  0  0  0  0  0  0  0  0
    8.1618  -12.2494   26.0592 C   0  0  0  0  0  0  0  0  0  0  0  0
    7.8307  -13.5885   25.9071 C   0  0  0  0  0  0  0  0  0  0  0  0
   10.0393  -17.1007   26.7898 C   0  0  0  0  0  0  0  0  0  0  0  0
   10.2506  -16.7946   27.9996 O   0  0  0  0  0  0  0  0  0  0  0  0
    9.2879  -18.2846   26.6371 O   0  0  0  0  0  0  0  0  0  0  0  0
  2  1  1  6
  3  2  1  0
  4  2  1  0
  4  5  1  1
  6  4  1  0
  6  7  2  0
  8  6  1  0
  9  8  1  0
  9 10  1  6
 11 10  1  0
 12 11  1  0
 13 12  2  0
 14  9  1  0
 15 14  2  0
 16 12  1  0
 17 14  1  0
 18 17  1  0
 18 19  1  1
 20 28  1  0
 20 19  1  0
 21 20  2  0
 22 21  1  0
 22 23  1  0
 23 28  2  0
 24 23  1  0
 24 25  2  0
 25 26  1  0
 26 27  2  0
 28 27  1  0
 29 18  1  0
 30 29  2  0
 31 29  1  0
M  END
$$$$
