TEW.pdb
     RDKit          3D

 31 32  0  0  1  0  0  0  0  0999 V2000
    8.3632  -13.3669   21.3737 C   0  0  0  0  0  0  0  0  0  0  0  0
    7.1577  -14.2302   21.1990 C   0  0  1  0  0  0  0  0  0  0  0  0
    6.2356  -13.6252   20.3608 O   0  0  0  0  0  0  0  0  0  0  0  0
    7.4510  -15.6102   20.6838 C   0  0  2  0  0  0  0  0  0  0  0  0
    6.2631  -16.3480   20.3422 N   0  0  0  0  0  0  0  0  0  0  0  0
    8.2541  -16.3835   21.6835 C   0  0  0  0  0  0  0  0  0  0  0  0
    7.6895  -17.0558   22.5882 O   0  0  0  0  0  0  0  0  0  0  0  0
    9.6744  -16.4064   21.6740 N   0  0  0  0  0  0  0  0  0  0  0  0
   10.4200  -17.1868   22.6327 C   0  0  1  0  0  0  0  0  0  0  0  0
   11.8490  -17.3230   22.2206 C   0  0  0  0  0  0  0  0  0  0  0  0
   12.6211  -18.2947   23.0683 C   0  0  0  0  0  0  0  0  0  0  0  0
   13.9657  -18.4674   22.4553 C   0  0  0  0  0  0  0  0  0  0  0  0
   14.4508  -19.5874   22.1782 O   0  0  0  0  0  0  0  0  0  0  0  0
   10.3473  -16.6035   23.9962 C   0  0  0  0  0  0  0  0  0  0  0  0
   10.5978  -15.3807   24.1271 O   0  0  0  0  0  0  0  0  0  0  0  0
   14.7416  -17.3446   22.1664 O   0  0  0  0  0  0  0  0  0  0  0  0
   10.0100  -17.3595   25.1468 N   0  0  0  0  0  0  0  0  0  0  0  0
   10.1177  -16.7503   26.4972 C   0  0  1  0  0  0  0  0  0  0  0  0
    8.7372  -16.7094   27.0897 C   0  0  0  0  0  0  0  0  0  0  0  0
    7.7553  -15.8624   26.4224 C   0  0  0  0  0  0  0  0  0  0  0  0
    6.7067  -16.3126   25.6210 C   0  0  0  0  0  0  0  0  0  0  0  0
    6.0378  -15.2406   25.1580 N   0  0  0  0  0  0  0  0  0  0  0  0
    6.5739  -14.1109   25.6005 C   0  0  0  0  0  0  0  0  0  0  0  0
    6.2657  -12.7740   25.4360 C   0  0  0  0  0  0  0  0  0  0  0  0
    6.9905  -11.7750   26.0355 C   0  0  0  0  0  0  0  0  0  0  0  0
    8.0535  -12.1265   26.8218 C   0  0  0  0  0  0  0  0  0  0  0  0
    8.3633  -13.4541   26.9872 C   0  0  0  0  0  0  0  0  0  0  0  0
    7.6563  -14.4929   26.3981 C   0  0  0  0  0  0  0  0  0  0  0  0
   11.0865  -17.5602   27.2379 C   0  0  0  0  0  0  0  0  0  0  0  0
   11.6430  -18.6080   26.7973 O   0  0  0  0  0  0  0  0  0  0  0  0
   11.4891  -17.2231   28.5469 O   0  0  0  0  0  0  0  0  0  0  0  0
  2  1  1  6
  3  2  1  0
  4  2  1  0
  4  5  1  1
  6  4  1  0
  6  7  2  0
  8  6  1  0
  9  8  1  0
  9 10  1  6
 11 10  1  0
 12 11  1  0
 13 12  2  0
 14  9  1  0
 15 14  2  0
 16 12  1  0
 17 14  1  0
 18 17  1  0
 18 19  1  1
 20 28  1  0
 20 19  1  0
 21 20  2  0
 22 21  1  0
 22 23  1  0
 23 28  2  0
 24 23  1  0
 24 25  2  0
 25 26  1  0
 26 27  2  0
 28 27  1  0
 29 18  1  0
 30 29  2  0
 31 29  1  0
M  END
$$$$
