HFL.pdb
     RDKit          3D

 30 31  0  0  1  0  0  0  0  0999 V2000
   24.4904  -11.6360  -19.4818 N   0  0  0  0  0  0  0  0  0  0  0  0
   23.8081  -10.4466  -19.8826 C   0  0  1  0  0  0  0  0  0  0  0  0
   22.6776  -10.7499  -20.8655 C   0  0  0  0  0  0  0  0  0  0  0  0
   23.3439  -11.1885  -22.1273 C   0  0  0  0  0  0  0  0  0  0  0  0
   23.9345  -10.4135  -23.1062 C   0  0  0  0  0  0  0  0  0  0  0  0
   24.4312  -11.1843  -24.1002 N   0  0  0  0  0  0  0  0  0  0  0  0
   24.1516  -12.4489  -23.7444 C   0  0  0  0  0  0  0  0  0  0  0  0
   23.5019  -12.4711  -22.5680 N   0  0  0  0  0  0  0  0  0  0  0  0
   23.3031   -9.7364  -18.6888 C   0  0  0  0  0  0  0  0  0  0  0  0
   22.4929  -10.3120  -17.9242 O   0  0  0  0  0  0  0  0  0  0  0  0
   23.7415   -8.4148  -18.4251 N   0  0  0  0  0  0  0  0  0  0  0  0
   23.3429   -7.6848  -17.2095 C   0  0  1  0  0  0  0  0  0  0  0  0
   24.6109   -7.3122  -16.5235 C   0  0  0  0  0  0  0  0  0  0  0  0
   25.4377   -8.4100  -16.0340 C   0  0  0  0  0  0  0  0  0  0  0  0
   25.0026   -9.1524  -14.9514 C   0  0  0  0  0  0  0  0  0  0  0  0
   25.7573  -10.2185  -14.4490 C   0  0  0  0  0  0  0  0  0  0  0  0
   26.9523  -10.5583  -15.0165 C   0  0  0  0  0  0  0  0  0  0  0  0
   27.3871   -9.8217  -16.0926 C   0  0  0  0  0  0  0  0  0  0  0  0
   26.6461   -8.7819  -16.5791 C   0  0  0  0  0  0  0  0  0  0  0  0
   22.6190   -6.4583  -17.6041 C   0  0  0  0  0  0  0  0  0  0  0  0
   23.1243   -5.6843  -18.4530 O   0  0  0  0  0  0  0  0  0  0  0  0
   19.2968   -3.2496  -19.6335 C   0  0  0  0  0  0  0  0  0  0  0  0
   18.6139   -4.1346  -18.6159 C   0  0  1  0  0  0  0  0  0  0  0  0
   17.3843   -4.7252  -19.3198 C   0  0  0  0  0  0  0  0  0  0  0  0
   19.4587   -5.2910  -18.1977 C   0  0  0  0  0  0  0  0  0  0  0  0
   20.6443   -4.9158  -17.3499 C   0  0  2  0  0  0  0  0  0  0  0  0
   21.3580   -6.1572  -17.0254 N   0  0  0  0  0  0  0  0  0  0  0  0
   20.2775   -4.1845  -16.1333 C   0  0  0  0  0  0  0  0  0  0  0  0
   19.9818   -4.7984  -15.0789 O   0  0  0  0  0  0  0  0  0  0  0  0
   20.2478   -2.8014  -16.1152 O   0  0  0  0  0  0  0  0  0  0  0  0
  2  3  1  0
  2  1  1  1
  3  4  1  0
  4  5  2  0
  5  6  1  0
  7  6  1  0
  8  4  1  0
  8  7  2  0
  9 11  1  0
  9  2  1  0
 10  9  2  0
 12 11  1  0
 12 13  1  6
 13 14  1  0
 14 15  2  0
 14 19  1  0
 15 16  1  0
 16 17  2  0
 18 17  1  0
 19 18  2  0
 20 12  1  0
 21 20  2  0
 23 22  1  6
 23 25  1  0
 24 23  1  0
 26 25  1  1
 26 28  1  0
 26 27  1  0
 27 20  1  0
 28 30  1  0
 29 28  2  0
M  END
$$$$
