HFL.pdb
     RDKit          3D

 30 31  0  0  1  0  0  0  0  0999 V2000
   27.7998  -22.8226  -17.2016 N   0  0  0  0  0  0  0  0  0  0  0  0
   27.3826  -21.5698  -16.6563 C   0  0  1  0  0  0  0  0  0  0  0  0
   26.5890  -20.7494  -17.6727 C   0  0  0  0  0  0  0  0  0  0  0  0
   27.5843  -20.2815  -18.6822 C   0  0  0  0  0  0  0  0  0  0  0  0
   27.9383  -20.8679  -19.8817 C   0  0  0  0  0  0  0  0  0  0  0  0
   28.8818  -20.1374  -20.5180 N   0  0  0  0  0  0  0  0  0  0  0  0
   29.1217  -19.0877  -19.7151 C   0  0  0  0  0  0  0  0  0  0  0  0
   28.3554  -19.1569  -18.6132 N   0  0  0  0  0  0  0  0  0  0  0  0
   26.5982  -21.7997  -15.4248 C   0  0  0  0  0  0  0  0  0  0  0  0
   25.7091  -22.6837  -15.4147 O   0  0  0  0  0  0  0  0  0  0  0  0
   26.8621  -21.0176  -14.2728 N   0  0  0  0  0  0  0  0  0  0  0  0
   26.1133  -21.1949  -13.0169 C   0  0  1  0  0  0  0  0  0  0  0  0
   26.9240  -20.5273  -11.9612 C   0  0  0  0  0  0  0  0  0  0  0  0
   26.3804  -20.5472  -10.6075 C   0  0  0  0  0  0  0  0  0  0  0  0
   26.2551  -19.3582   -9.9125 C   0  0  0  0  0  0  0  0  0  0  0  0
   25.7341  -19.3251   -8.6141 C   0  0  0  0  0  0  0  0  0  0  0  0
   25.3321  -20.4727   -7.9921 C   0  0  0  0  0  0  0  0  0  0  0  0
   25.4558  -21.6560   -8.6808 C   0  0  0  0  0  0  0  0  0  0  0  0
   25.9651  -21.6825   -9.9484 C   0  0  0  0  0  0  0  0  0  0  0  0
   24.8077  -20.5133  -13.1383 C   0  0  0  0  0  0  0  0  0  0  0  0
   24.7617  -19.3258  -13.5419 O   0  0  0  0  0  0  0  0  0  0  0  0
   21.2099  -21.9080  -16.3482 C   0  0  0  0  0  0  0  0  0  0  0  0
   21.9877  -21.0926  -15.3405 C   0  0  1  0  0  0  0  0  0  0  0  0
   21.7199  -19.6207  -15.6837 C   0  0  0  0  0  0  0  0  0  0  0  0
   21.5093  -21.2951  -13.9420 C   0  0  0  0  0  0  0  0  0  0  0  0
   22.3002  -20.5459  -12.9036 C   0  0  2  0  0  0  0  0  0  0  0  0
   23.6113  -21.1987  -12.7998 N   0  0  0  0  0  0  0  0  0  0  0  0
   21.6344  -20.4889  -11.5987 C   0  0  0  0  0  0  0  0  0  0  0  0
   21.9058  -21.3242  -10.7016 O   0  0  0  0  0  0  0  0  0  0  0  0
   20.6913  -19.5151  -11.3221 O   0  0  0  0  0  0  0  0  0  0  0  0
  2  3  1  0
  2  1  1  6
  3  4  1  0
  4  5  2  0
  5  6  1  0
  7  6  1  0
  8  4  1  0
  8  7  2  0
  9 11  1  0
  9  2  1  0
 10  9  2  0
 12 11  1  0
 12 13  1  1
 13 14  1  0
 14 15  2  0
 14 19  1  0
 15 16  1  0
 16 17  2  0
 18 17  1  0
 19 18  2  0
 20 12  1  0
 21 20  2  0
 23 22  1  6
 23 25  1  0
 24 23  1  0
 26 25  1  6
 26 28  1  0
 26 27  1  0
 27 20  1  0
 28 30  1  0
 29 28  2  0
M  END
$$$$
