HFL.pdb
     RDKit          3D

 30 31  0  0  1  0  0  0  0  0999 V2000
   25.6424  -21.4921  -13.2948 N   0  0  0  0  0  0  0  0  0  0  0  0
   25.1312  -20.5743  -12.3268 C   0  0  1  0  0  0  0  0  0  0  0  0
   23.6134  -20.4297  -12.4342 C   0  0  0  0  0  0  0  0  0  0  0  0
   23.3645  -19.7085  -13.7173 C   0  0  0  0  0  0  0  0  0  0  0  0
   23.9609  -18.5555  -14.1894 C   0  0  0  0  0  0  0  0  0  0  0  0
   23.4636  -18.2137  -15.3997 N   0  0  0  0  0  0  0  0  0  0  0  0
   22.5511  -19.1557  -15.6892 C   0  0  0  0  0  0  0  0  0  0  0  0
   22.4780  -20.0574  -14.6953 N   0  0  0  0  0  0  0  0  0  0  0  0
   25.5330  -21.0056  -10.9713 C   0  0  0  0  0  0  0  0  0  0  0  0
   25.2965  -22.1800  -10.6013 O   0  0  0  0  0  0  0  0  0  0  0  0
   26.1800  -20.0857  -10.1090 N   0  0  0  0  0  0  0  0  0  0  0  0
   26.5855  -20.4469   -8.7400 C   0  0  1  0  0  0  0  0  0  0  0  0
   27.6678  -19.4933   -8.3703 C   0  0  0  0  0  0  0  0  0  0  0  0
   28.1886  -19.5888   -7.0109 C   0  0  0  0  0  0  0  0  0  0  0  0
   28.9071  -20.7108   -6.6403 C   0  0  0  0  0  0  0  0  0  0  0  0
   29.4319  -20.8461   -5.3501 C   0  0  0  0  0  0  0  0  0  0  0  0
   29.2484  -19.8685   -4.4141 C   0  0  0  0  0  0  0  0  0  0  0  0
   28.5343  -18.7522   -4.7800 C   0  0  0  0  0  0  0  0  0  0  0  0
   28.0243  -18.6253   -6.0412 C   0  0  0  0  0  0  0  0  0  0  0  0
   25.4334  -20.2576   -7.8342 C   0  0  0  0  0  0  0  0  0  0  0  0
   24.7273  -19.2249   -7.9342 O   0  0  0  0  0  0  0  0  0  0  0  0
   21.3023  -23.1858   -7.2970 C   0  0  0  0  0  0  0  0  0  0  0  0
   22.1854  -21.9733   -7.1097 C   0  0  1  0  0  0  0  0  0  0  0  0
   21.2420  -20.7991   -6.8140 C   0  0  0  0  0  0  0  0  0  0  0  0
   23.0913  -22.0959   -5.9307 C   0  0  0  0  0  0  0  0  0  0  0  0
   24.1141  -20.9973   -5.8202 C   0  0  2  0  0  0  0  0  0  0  0  0
   25.1269  -21.2393   -6.8554 N   0  0  0  0  0  0  0  0  0  0  0  0
   24.7280  -20.9096   -4.4917 C   0  0  0  0  0  0  0  0  0  0  0  0
   25.7741  -21.5497   -4.2236 O   0  0  0  0  0  0  0  0  0  0  0  0
   24.1717  -20.1207   -3.5007 O   0  0  0  0  0  0  0  0  0  0  0  0
  2  3  1  0
  2  1  1  6
  3  4  1  0
  4  5  2  0
  5  6  1  0
  7  6  1  0
  8  4  1  0
  8  7  2  0
  9 11  1  0
  9  2  1  0
 10  9  2  0
 12 11  1  0
 12 13  1  1
 13 14  1  0
 14 15  2  0
 14 19  1  0
 15 16  1  0
 16 17  2  0
 18 17  1  0
 19 18  2  0
 20 12  1  0
 21 20  2  0
 23 22  1  1
 23 25  1  0
 24 23  1  0
 26 25  1  1
 26 28  1  0
 26 27  1  0
 27 20  1  0
 28 30  1  0
 29 28  2  0
M  END
$$$$
