HFL.pdb
     RDKit          3D

 30 31  0  0  1  0  0  0  0  0999 V2000
   26.4610  -21.6874  -13.3633 N   0  0  0  0  0  0  0  0  0  0  0  0
   25.8588  -20.7087  -12.5146 C   0  0  1  0  0  0  0  0  0  0  0  0
   24.3797  -20.5103  -12.8448 C   0  0  0  0  0  0  0  0  0  0  0  0
   24.3447  -19.9447  -14.2259 C   0  0  0  0  0  0  0  0  0  0  0  0
   23.9380  -20.5525  -15.3977 C   0  0  0  0  0  0  0  0  0  0  0  0
   24.0553  -19.7079  -16.4473 N   0  0  0  0  0  0  0  0  0  0  0  0
   24.5377  -18.5647  -15.9330 C   0  0  0  0  0  0  0  0  0  0  0  0
   24.7169  -18.6875  -14.6067 N   0  0  0  0  0  0  0  0  0  0  0  0
   26.0440  -21.0950  -11.1000 C   0  0  0  0  0  0  0  0  0  0  0  0
   25.8064  -22.2740  -10.7454 O   0  0  0  0  0  0  0  0  0  0  0  0
   26.4876  -20.1275  -10.1643 N   0  0  0  0  0  0  0  0  0  0  0  0
   26.7068  -20.4530   -8.7447 C   0  0  1  0  0  0  0  0  0  0  0  0
   27.7372  -19.4932   -8.2607 C   0  0  0  0  0  0  0  0  0  0  0  0
   28.0716  -19.5517   -6.8418 C   0  0  0  0  0  0  0  0  0  0  0  0
   28.8878  -20.5689   -6.3817 C   0  0  0  0  0  0  0  0  0  0  0  0
   29.2415  -20.6642   -5.0311 C   0  0  0  0  0  0  0  0  0  0  0  0
   28.7880  -19.7503   -4.1230 C   0  0  0  0  0  0  0  0  0  0  0  0
   27.9763  -18.7383   -4.5778 C   0  0  0  0  0  0  0  0  0  0  0  0
   27.6342  -18.6500   -5.8977 C   0  0  0  0  0  0  0  0  0  0  0  0
   25.4466  -20.2357   -8.0041 C   0  0  0  0  0  0  0  0  0  0  0  0
   24.7283  -19.2435   -8.2773 O   0  0  0  0  0  0  0  0  0  0  0  0
   20.3714  -22.5678   -7.0842 C   0  0  0  0  0  0  0  0  0  0  0  0
   21.4176  -21.8225   -6.2873 C   0  0  1  0  0  0  0  0  0  0  0  0
   21.5691  -22.5841   -4.9632 C   0  0  0  0  0  0  0  0  0  0  0  0
   22.7590  -21.8373   -6.9401 C   0  0  0  0  0  0  0  0  0  0  0  0
   23.7875  -20.9749   -6.2592 C   0  0  2  0  0  0  0  0  0  0  0  0
   25.0505  -21.1452   -6.9883 N   0  0  0  0  0  0  0  0  0  0  0  0
   23.9535  -21.2864   -4.8362 C   0  0  0  0  0  0  0  0  0  0  0  0
   24.7513  -22.1809   -4.4630 O   0  0  0  0  0  0  0  0  0  0  0  0
   23.2368  -20.6042   -3.8693 O   0  0  0  0  0  0  0  0  0  0  0  0
  2  3  1  0
  2  1  1  6
  3  4  1  0
  4  5  2  0
  5  6  1  0
  7  6  1  0
  8  4  1  0
  8  7  2  0
  9 11  1  0
  9  2  1  0
 10  9  2  0
 12 11  1  0
 12 13  1  1
 13 14  1  0
 14 15  2  0
 14 19  1  0
 15 16  1  0
 16 17  2  0
 18 17  1  0
 19 18  2  0
 20 12  1  0
 21 20  2  0
 23 22  1  6
 23 25  1  0
 24 23  1  0
 26 25  1  6
 26 28  1  0
 26 27  1  0
 27 20  1  0
 28 30  1  0
 29 28  2  0
M  END
$$$$
