HFL.pdb
     RDKit          3D

 30 31  0  0  1  0  0  0  0  0999 V2000
   28.6851  -22.1881  -17.2759 N   0  0  0  0  0  0  0  0  0  0  0  0
   27.8980  -21.0224  -17.0257 C   0  0  1  0  0  0  0  0  0  0  0  0
   27.0491  -20.6449  -18.2393 C   0  0  0  0  0  0  0  0  0  0  0  0
   27.9739  -19.9457  -19.1797 C   0  0  0  0  0  0  0  0  0  0  0  0
   28.4262  -18.6413  -19.1355 C   0  0  0  0  0  0  0  0  0  0  0  0
   29.2558  -18.3810  -20.1713 N   0  0  0  0  0  0  0  0  0  0  0  0
   29.3252  -19.5265  -20.8692 C   0  0  0  0  0  0  0  0  0  0  0  0
   28.5655  -20.4729  -20.2915 N   0  0  0  0  0  0  0  0  0  0  0  0
   27.0563  -21.2375  -15.8300 C   0  0  0  0  0  0  0  0  0  0  0  0
   26.5332  -22.3605  -15.6366 O   0  0  0  0  0  0  0  0  0  0  0  0
   26.8523  -20.1715  -14.9188 N   0  0  0  0  0  0  0  0  0  0  0  0
   26.0920  -20.3433  -13.6691 C   0  0  1  0  0  0  0  0  0  0  0  0
   26.8178  -19.5513  -12.6380 C   0  0  0  0  0  0  0  0  0  0  0  0
   27.9096  -20.2250  -11.9434 C   0  0  0  0  0  0  0  0  0  0  0  0
   27.6993  -20.7109  -10.6658 C   0  0  0  0  0  0  0  0  0  0  0  0
   28.7134  -21.3692   -9.9610 C   0  0  0  0  0  0  0  0  0  0  0  0
   29.9472  -21.5518  -10.5176 C   0  0  0  0  0  0  0  0  0  0  0  0
   30.1588  -21.0696  -11.7875 C   0  0  0  0  0  0  0  0  0  0  0  0
   29.1651  -20.4276  -12.4711 C   0  0  0  0  0  0  0  0  0  0  0  0
   24.7363  -19.7847  -13.8534 C   0  0  0  0  0  0  0  0  0  0  0  0
   24.5707  -18.7883  -14.5983 O   0  0  0  0  0  0  0  0  0  0  0  0
   21.0201  -19.8202  -17.0147 C   0  0  0  0  0  0  0  0  0  0  0  0
   20.9867  -20.7713  -15.8402 C   0  0  1  0  0  0  0  0  0  0  0  0
   20.7326  -22.1667  -16.4272 C   0  0  0  0  0  0  0  0  0  0  0  0
   22.2917  -20.8457  -15.1210 C   0  0  0  0  0  0  0  0  0  0  0  0
   22.2666  -20.2639  -13.7331 C   0  0  2  0  0  0  0  0  0  0  0  0
   23.6268  -20.3724  -13.1907 N   0  0  0  0  0  0  0  0  0  0  0  0
   21.2932  -20.9142  -12.8505 C   0  0  0  0  0  0  0  0  0  0  0  0
   20.2306  -20.3303  -12.5246 O   0  0  0  0  0  0  0  0  0  0  0  0
   21.5194  -22.1858  -12.3546 O   0  0  0  0  0  0  0  0  0  0  0  0
  2  3  1  0
  2  1  1  6
  3  4  1  0
  4  5  2  0
  5  6  1  0
  7  6  1  0
  8  4  1  0
  8  7  2  0
  9 11  1  0
  9  2  1  0
 10  9  2  0
 12 11  1  0
 12 13  1  1
 13 14  1  0
 14 15  2  0
 14 19  1  0
 15 16  1  0
 16 17  2  0
 18 17  1  0
 19 18  2  0
 20 12  1  0
 21 20  2  0
 23 22  1  6
 23 25  1  0
 24 23  1  0
 26 25  1  6
 26 28  1  0
 26 27  1  0
 27 20  1  0
 28 30  1  0
 29 28  2  0
M  END
$$$$
