HFL.pdb
     RDKit          3D

 30 31  0  0  1  0  0  0  0  0999 V2000
   27.8551  -21.3709  -14.0506 N   0  0  0  0  0  0  0  0  0  0  0  0
   27.5469  -20.2668  -13.1980 C   0  0  1  0  0  0  0  0  0  0  0  0
   26.4064  -19.4203  -13.7627 C   0  0  0  0  0  0  0  0  0  0  0  0
   26.9805  -18.6969  -14.9356 C   0  0  0  0  0  0  0  0  0  0  0  0
   28.2620  -18.7610  -15.4468 C   0  0  0  0  0  0  0  0  0  0  0  0
   28.3954  -17.9526  -16.5227 N   0  0  0  0  0  0  0  0  0  0  0  0
   27.1926  -17.3781  -16.6883 C   0  0  0  0  0  0  0  0  0  0  0  0
   26.3343  -17.8109  -15.7490 N   0  0  0  0  0  0  0  0  0  0  0  0
   27.2267  -20.7595  -11.8418 C   0  0  0  0  0  0  0  0  0  0  0  0
   26.5806  -21.8258  -11.7085 O   0  0  0  0  0  0  0  0  0  0  0  0
   27.6546  -20.0199  -10.7112 N   0  0  0  0  0  0  0  0  0  0  0  0
   27.2914  -20.4081   -9.3376 C   0  0  1  0  0  0  0  0  0  0  0  0
   28.1992  -19.6383   -8.4429 C   0  0  0  0  0  0  0  0  0  0  0  0
   28.0324  -19.8426   -7.0080 C   0  0  0  0  0  0  0  0  0  0  0  0
   27.5891  -18.7935   -6.2235 C   0  0  0  0  0  0  0  0  0  0  0  0
   27.4079  -18.9418   -4.8438 C   0  0  0  0  0  0  0  0  0  0  0  0
   27.6653  -20.1337   -4.2286 C   0  0  0  0  0  0  0  0  0  0  0  0
   28.1063  -21.1781   -5.0061 C   0  0  0  0  0  0  0  0  0  0  0  0
   28.2814  -21.0277   -6.3529 C   0  0  0  0  0  0  0  0  0  0  0  0
   25.8925  -20.0064   -9.0812 C   0  0  0  0  0  0  0  0  0  0  0  0
   25.5495  -18.8103   -9.2442 O   0  0  0  0  0  0  0  0  0  0  0  0
   22.2523  -21.3686  -12.0418 C   0  0  0  0  0  0  0  0  0  0  0  0
   22.9679  -20.6373  -10.9291 C   0  0  1  0  0  0  0  0  0  0  0  0
   22.3277  -19.2443  -10.8522 C   0  0  0  0  0  0  0  0  0  0  0  0
   22.7613  -21.2724   -9.5950 C   0  0  0  0  0  0  0  0  0  0  0  0
   23.5262  -20.6203   -8.4748 C   0  0  2  0  0  0  0  0  0  0  0  0
   24.9413  -20.9694   -8.6526 N   0  0  0  0  0  0  0  0  0  0  0  0
   23.0495  -21.0106   -7.1445 C   0  0  0  0  0  0  0  0  0  0  0  0
   23.5685  -21.9769   -6.5338 O   0  0  0  0  0  0  0  0  0  0  0  0
   22.0173  -20.3257   -6.5284 O   0  0  0  0  0  0  0  0  0  0  0  0
  2  3  1  0
  2  1  1  6
  3  4  1  0
  4  5  2  0
  5  6  1  0
  7  6  1  0
  8  4  1  0
  8  7  2  0
  9 11  1  0
  9  2  1  0
 10  9  2  0
 12 11  1  0
 12 13  1  1
 13 14  1  0
 14 15  2  0
 14 19  1  0
 15 16  1  0
 16 17  2  0
 18 17  1  0
 19 18  2  0
 20 12  1  0
 21 20  2  0
 23 22  1  6
 23 25  1  0
 24 23  1  0
 26 25  1  6
 26 28  1  0
 26 27  1  0
 27 20  1  0
 28 30  1  0
 29 28  2  0
M  END
$$$$
