HFL.pdb
     RDKit          3D

 30 31  0  0  1  0  0  0  0  0999 V2000
   25.7968  -19.4277  -16.5091 N   0  0  0  0  0  0  0  0  0  0  0  0
   26.4311  -20.6943  -16.6940 C   0  0  1  0  0  0  0  0  0  0  0  0
   27.6287  -20.5920  -17.6381 C   0  0  0  0  0  0  0  0  0  0  0  0
   27.2733  -19.5356  -18.6312 C   0  0  0  0  0  0  0  0  0  0  0  0
   26.0316  -19.2163  -19.1449 C   0  0  0  0  0  0  0  0  0  0  0  0
   26.1200  -18.1934  -20.0251 N   0  0  0  0  0  0  0  0  0  0  0  0
   27.4227  -17.8686  -20.0646 C   0  0  0  0  0  0  0  0  0  0  0  0
   28.1274  -18.6601  -19.2380 N   0  0  0  0  0  0  0  0  0  0  0  0
   26.8294  -21.2475  -15.3825 C   0  0  0  0  0  0  0  0  0  0  0  0
   27.4655  -22.3270  -15.3348 O   0  0  0  0  0  0  0  0  0  0  0  0
   26.4867  -20.5501  -14.1974 N   0  0  0  0  0  0  0  0  0  0  0  0
   26.7279  -21.1144  -12.8584 C   0  0  1  0  0  0  0  0  0  0  0  0
   27.3531  -20.0224  -12.0623 C   0  0  0  0  0  0  0  0  0  0  0  0
   27.5947  -20.2973  -10.6501 C   0  0  0  0  0  0  0  0  0  0  0  0
   26.7273  -19.7828   -9.7038 C   0  0  0  0  0  0  0  0  0  0  0  0
   26.9136  -20.0236   -8.3379 C   0  0  0  0  0  0  0  0  0  0  0  0
   27.9635  -20.7779   -7.8973 C   0  0  0  0  0  0  0  0  0  0  0  0
   28.8272  -21.2904   -8.8359 C   0  0  0  0  0  0  0  0  0  0  0  0
   28.6406  -21.0522  -10.1683 C   0  0  0  0  0  0  0  0  0  0  0  0
   25.4307  -21.4824  -12.2538 C   0  0  0  0  0  0  0  0  0  0  0  0
   25.3903  -22.3544  -11.3521 O   0  0  0  0  0  0  0  0  0  0  0  0
   21.0169  -20.9228   -9.5958 C   0  0  0  0  0  0  0  0  0  0  0  0
   20.9700  -20.2215  -10.9341 C   0  0  1  0  0  0  0  0  0  0  0  0
   20.3873  -18.8270  -10.6657 C   0  0  0  0  0  0  0  0  0  0  0  0
   22.3247  -20.0085  -11.5216 C   0  0  0  0  0  0  0  0  0  0  0  0
   22.9261  -21.2368  -12.1498 C   0  0  2  0  0  0  0  0  0  0  0  0
   24.2358  -20.8525  -12.6911 N   0  0  0  0  0  0  0  0  0  0  0  0
   22.0788  -21.8292  -13.1893 C   0  0  0  0  0  0  0  0  0  0  0  0
   22.1780  -21.4622  -14.3857 O   0  0  0  0  0  0  0  0  0  0  0  0
   21.1495  -22.8062  -12.8796 O   0  0  0  0  0  0  0  0  0  0  0  0
  2  3  1  0
  2  1  1  1
  3  4  1  0
  4  5  2  0
  5  6  1  0
  7  6  1  0
  8  4  1  0
  8  7  2  0
  9 11  1  0
  9  2  1  0
 10  9  2  0
 12 11  1  0
 12 13  1  1
 13 14  1  0
 14 15  2  0
 14 19  1  0
 15 16  1  0
 16 17  2  0
 18 17  1  0
 19 18  2  0
 20 12  1  0
 21 20  2  0
 23 22  1  1
 23 25  1  0
 24 23  1  0
 26 25  1  6
 26 28  1  0
 26 27  1  0
 27 20  1  0
 28 30  1  0
 29 28  2  0
M  END
$$$$
