HFL.pdb
     RDKit          3D

 30 31  0  0  1  0  0  0  0  0999 V2000
   27.9667  -21.9226  -17.5194 N   0  0  0  0  0  0  0  0  0  0  0  0
   26.8778  -21.0399  -17.2438 C   0  0  1  0  0  0  0  0  0  0  0  0
   25.9563  -20.8874  -18.4536 C   0  0  0  0  0  0  0  0  0  0  0  0
   26.7143  -20.0614  -19.4393 C   0  0  0  0  0  0  0  0  0  0  0  0
   27.1939  -20.4248  -20.6826 C   0  0  0  0  0  0  0  0  0  0  0  0
   27.8324  -19.3912  -21.2765 N   0  0  0  0  0  0  0  0  0  0  0  0
   27.7537  -18.3741  -20.4029 C   0  0  0  0  0  0  0  0  0  0  0  0
   27.0889  -18.7560  -19.2990 N   0  0  0  0  0  0  0  0  0  0  0  0
   26.1332  -21.5221  -16.0615 C   0  0  0  0  0  0  0  0  0  0  0  0
   25.7470  -22.7143  -16.0187 O   0  0  0  0  0  0  0  0  0  0  0  0
   25.8663  -20.6303  -14.9930 N   0  0  0  0  0  0  0  0  0  0  0  0
   25.1409  -21.0523  -13.7826 C   0  0  1  0  0  0  0  0  0  0  0  0
   25.7014  -20.2402  -12.6674 C   0  0  0  0  0  0  0  0  0  0  0  0
   25.1762  -20.5092  -11.3332 C   0  0  0  0  0  0  0  0  0  0  0  0
   25.9045  -21.3062  -10.4688 C   0  0  0  0  0  0  0  0  0  0  0  0
   25.4456  -21.5883   -9.1772 C   0  0  0  0  0  0  0  0  0  0  0  0
   24.2584  -21.0819   -8.7304 C   0  0  0  0  0  0  0  0  0  0  0  0
   23.5325  -20.2896   -9.5878 C   0  0  0  0  0  0  0  0  0  0  0  0
   23.9854  -20.0173  -10.8478 C   0  0  0  0  0  0  0  0  0  0  0  0
   23.7073  -20.7349  -13.9492 C   0  0  0  0  0  0  0  0  0  0  0  0
   23.3631  -19.5805  -14.3012 O   0  0  0  0  0  0  0  0  0  0  0  0
   21.3651  -23.6695  -16.7660 C   0  0  0  0  0  0  0  0  0  0  0  0
   21.2267  -22.3092  -16.1212 C   0  0  1  0  0  0  0  0  0  0  0  0
   20.2083  -21.5355  -16.9700 C   0  0  0  0  0  0  0  0  0  0  0  0
   20.6622  -22.3794  -14.7420 C   0  0  0  0  0  0  0  0  0  0  0  0
   21.2903  -21.4197  -13.7675 C   0  0  2  0  0  0  0  0  0  0  0  0
   22.7241  -21.7313  -13.7120 N   0  0  0  0  0  0  0  0  0  0  0  0
   20.6867  -21.4726  -12.4325 C   0  0  0  0  0  0  0  0  0  0  0  0
   21.1458  -22.2378  -11.5495 O   0  0  0  0  0  0  0  0  0  0  0  0
   19.5975  -20.6823  -12.1113 O   0  0  0  0  0  0  0  0  0  0  0  0
  2  3  1  0
  2  1  1  6
  3  4  1  0
  4  5  2  0
  5  6  1  0
  7  6  1  0
  8  4  1  0
  8  7  2  0
  9 11  1  0
  9  2  1  0
 10  9  2  0
 12 11  1  0
 12 13  1  1
 13 14  1  0
 14 15  2  0
 14 19  1  0
 15 16  1  0
 16 17  2  0
 18 17  1  0
 19 18  2  0
 20 12  1  0
 21 20  2  0
 23 22  1  6
 23 25  1  0
 24 23  1  0
 26 25  1  6
 26 28  1  0
 26 27  1  0
 27 20  1  0
 28 30  1  0
 29 28  2  0
M  END
$$$$
