HFL.pdb
     RDKit          3D

 30 31  0  0  1  0  0  0  0  0999 V2000
   27.1696  -22.0259  -17.3347 N   0  0  0  0  0  0  0  0  0  0  0  0
   26.4812  -20.9491  -16.6964 C   0  0  1  0  0  0  0  0  0  0  0  0
   25.3276  -20.4306  -17.5546 C   0  0  0  0  0  0  0  0  0  0  0  0
   25.9595  -19.6156  -18.6340 C   0  0  0  0  0  0  0  0  0  0  0  0
   27.1472  -18.9113  -18.6010 C   0  0  0  0  0  0  0  0  0  0  0  0
   27.3789  -18.2967  -19.7831 N   0  0  0  0  0  0  0  0  0  0  0  0
   26.3324  -18.6161  -20.5622 C   0  0  0  0  0  0  0  0  0  0  0  0
   25.4738  -19.4038  -19.8923 N   0  0  0  0  0  0  0  0  0  0  0  0
   26.0056  -21.3819  -15.3656 C   0  0  0  0  0  0  0  0  0  0  0  0
   25.3620  -22.4525  -15.2576 O   0  0  0  0  0  0  0  0  0  0  0  0
   26.2837  -20.5806  -14.2302 N   0  0  0  0  0  0  0  0  0  0  0  0
   25.6908  -20.8582  -12.9109 C   0  0  1  0  0  0  0  0  0  0  0  0
   26.5131  -20.1014  -11.9269 C   0  0  0  0  0  0  0  0  0  0  0  0
   26.1389  -20.2318  -10.5229 C   0  0  0  0  0  0  0  0  0  0  0  0
   25.3656  -19.2471   -9.9357 C   0  0  0  0  0  0  0  0  0  0  0  0
   24.9763  -19.3301   -8.5941 C   0  0  0  0  0  0  0  0  0  0  0  0
   25.3511  -20.3920   -7.8213 C   0  0  0  0  0  0  0  0  0  0  0  0
   26.1201  -21.3721   -8.4025 C   0  0  0  0  0  0  0  0  0  0  0  0
   26.4973  -21.2860   -9.7130 C   0  0  0  0  0  0  0  0  0  0  0  0
   24.3053  -20.3445  -12.8915 C   0  0  0  0  0  0  0  0  0  0  0  0
   24.0656  -19.1871  -13.3134 O   0  0  0  0  0  0  0  0  0  0  0  0
   20.4018  -22.2563  -15.4861 C   0  0  0  0  0  0  0  0  0  0  0  0
   21.2366  -21.3232  -14.6390 C   0  0  1  0  0  0  0  0  0  0  0  0
   20.7551  -19.9029  -14.9665 C   0  0  0  0  0  0  0  0  0  0  0  0
   21.0155  -21.5186  -13.1766 C   0  0  0  0  0  0  0  0  0  0  0  0
   21.8761  -20.6492  -12.2998 C   0  0  2  0  0  0  0  0  0  0  0  0
   23.2505  -21.1566  -12.3979 N   0  0  0  0  0  0  0  0  0  0  0  0
   21.4267  -20.6092  -10.9049 C   0  0  0  0  0  0  0  0  0  0  0  0
   21.9941  -21.3041  -10.0267 O   0  0  0  0  0  0  0  0  0  0  0  0
   20.3677  -19.8062  -10.5204 O   0  0  0  0  0  0  0  0  0  0  0  0
  2  3  1  0
  2  1  1  6
  3  4  1  0
  4  5  2  0
  5  6  1  0
  7  6  1  0
  8  4  1  0
  8  7  2  0
  9 11  1  0
  9  2  1  0
 10  9  2  0
 12 11  1  0
 12 13  1  1
 13 14  1  0
 14 15  2  0
 14 19  1  0
 15 16  1  0
 16 17  2  0
 18 17  1  0
 19 18  2  0
 20 12  1  0
 21 20  2  0
 23 22  1  6
 23 25  1  0
 24 23  1  0
 26 25  1  6
 26 28  1  0
 26 27  1  0
 27 20  1  0
 28 30  1  0
 29 28  2  0
M  END
$$$$
