HFL.pdb
     RDKit          3D

 30 31  0  0  1  0  0  0  0  0999 V2000
   30.9217  -32.1241  -16.8039 N   0  0  0  0  0  0  0  0  0  0  0  0
   30.2402  -33.1655  -16.1025 C   0  0  1  0  0  0  0  0  0  0  0  0
   31.1480  -33.8397  -15.0742 C   0  0  0  0  0  0  0  0  0  0  0  0
   32.1971  -34.5503  -15.8634 C   0  0  0  0  0  0  0  0  0  0  0  0
   32.1182  -35.7737  -16.4998 C   0  0  0  0  0  0  0  0  0  0  0  0
   33.2852  -36.0772  -17.1122 N   0  0  0  0  0  0  0  0  0  0  0  0
   34.1007  -35.0404  -16.8594 C   0  0  0  0  0  0  0  0  0  0  0  0
   33.4677  -34.1181  -16.1144 N   0  0  0  0  0  0  0  0  0  0  0  0
   29.0219  -32.6222  -15.4661 C   0  0  0  0  0  0  0  0  0  0  0  0
   29.0579  -31.4896  -14.9293 O   0  0  0  0  0  0  0  0  0  0  0  0
   27.8301  -33.3890  -15.4714 N   0  0  0  0  0  0  0  0  0  0  0  0
   26.5574  -32.8629  -14.9491 C   0  0  1  0  0  0  0  0  0  0  0  0
   25.6103  -32.8719  -16.0982 C   0  0  0  0  0  0  0  0  0  0  0  0
   25.7739  -31.8145  -17.0899 C   0  0  0  0  0  0  0  0  0  0  0  0
   26.3497  -32.1165  -18.3104 C   0  0  0  0  0  0  0  0  0  0  0  0
   26.5227  -31.1382  -19.2960 C   0  0  0  0  0  0  0  0  0  0  0  0
   26.1258  -29.8494  -19.0797 C   0  0  0  0  0  0  0  0  0  0  0  0
   25.5533  -29.5465  -17.8671 C   0  0  0  0  0  0  0  0  0  0  0  0
   25.3867  -30.5057  -16.9084 C   0  0  0  0  0  0  0  0  0  0  0  0
   26.0603  -33.7723  -13.8957 C   0  0  0  0  0  0  0  0  0  0  0  0
   26.1910  -35.0128  -14.0330 O   0  0  0  0  0  0  0  0  0  0  0  0
   26.0002  -32.0262   -8.6117 C   0  0  0  0  0  0  0  0  0  0  0  0
   26.1428  -32.8833   -9.8487 C   0  0  1  0  0  0  0  0  0  0  0  0
   26.8455  -34.1713   -9.3975 C   0  0  0  0  0  0  0  0  0  0  0  0
   24.8275  -33.2961  -10.4192 C   0  0  0  0  0  0  0  0  0  0  0  0
   24.9296  -34.1232  -11.6725 C   0  0  2  0  0  0  0  0  0  0  0  0
   25.4378  -33.2448  -12.7338 N   0  0  0  0  0  0  0  0  0  0  0  0
   23.6591  -34.7418  -12.0628 C   0  0  0  0  0  0  0  0  0  0  0  0
   22.9525  -34.2405  -12.9715 O   0  0  0  0  0  0  0  0  0  0  0  0
   23.2062  -35.8919  -11.4413 O   0  0  0  0  0  0  0  0  0  0  0  0
  2  3  1  0
  2  1  1  1
  3  4  1  0
  4  5  2  0
  5  6  1  0
  7  6  1  0
  8  4  1  0
  8  7  2  0
  9 11  1  0
  9  2  1  0
 10  9  2  0
 12 11  1  0
 12 13  1  6
 13 14  1  0
 14 15  2  0
 14 19  1  0
 15 16  1  0
 16 17  2  0
 18 17  1  0
 19 18  2  0
 20 12  1  0
 21 20  2  0
 23 22  1  1
 23 25  1  0
 24 23  1  0
 26 25  1  1
 26 28  1  0
 26 27  1  0
 27 20  1  0
 28 30  1  0
 29 28  2  0
M  END
$$$$
