HFL.pdb
     RDKit          3D

 30 31  0  0  1  0  0  0  0  0999 V2000
   27.2678  -21.5616  -13.5371 N   0  0  0  0  0  0  0  0  0  0  0  0
   27.0840  -20.4347  -12.6784 C   0  0  1  0  0  0  0  0  0  0  0  0
   25.9520  -19.5321  -13.1682 C   0  0  0  0  0  0  0  0  0  0  0  0
   26.5041  -18.7875  -14.3383 C   0  0  0  0  0  0  0  0  0  0  0  0
   27.7529  -18.8948  -14.9188 C   0  0  0  0  0  0  0  0  0  0  0  0
   27.8750  -18.0471  -15.9653 N   0  0  0  0  0  0  0  0  0  0  0  0
   26.6982  -17.4044  -16.0428 C   0  0  0  0  0  0  0  0  0  0  0  0
   25.8663  -17.8339  -15.0785 N   0  0  0  0  0  0  0  0  0  0  0  0
   26.8397  -20.8971  -11.2960 C   0  0  0  0  0  0  0  0  0  0  0  0
   26.1984  -21.9571  -11.1034 O   0  0  0  0  0  0  0  0  0  0  0  0
   27.3339  -20.1358  -10.2076 N   0  0  0  0  0  0  0  0  0  0  0  0
   27.1486  -20.5570   -8.8085 C   0  0  1  0  0  0  0  0  0  0  0  0
   28.2954  -19.9803   -8.0538 C   0  0  0  0  0  0  0  0  0  0  0  0
   28.1785  -19.9597   -6.5997 C   0  0  0  0  0  0  0  0  0  0  0  0
   28.7201  -20.9979   -5.8639 C   0  0  0  0  0  0  0  0  0  0  0  0
   28.6387  -21.0203   -4.4670 C   0  0  0  0  0  0  0  0  0  0  0  0
   28.0182  -20.0119   -3.7861 C   0  0  0  0  0  0  0  0  0  0  0  0
   27.4788  -18.9789   -4.5153 C   0  0  0  0  0  0  0  0  0  0  0  0
   27.5613  -18.9620   -5.8791 C   0  0  0  0  0  0  0  0  0  0  0  0
   25.8863  -19.9819   -8.2990 C   0  0  0  0  0  0  0  0  0  0  0  0
   25.5683  -18.8082   -8.6091 O   0  0  0  0  0  0  0  0  0  0  0  0
   21.1603  -19.5378   -9.2253 C   0  0  0  0  0  0  0  0  0  0  0  0
   21.7673  -20.9193   -9.3144 C   0  0  1  0  0  0  0  0  0  0  0  0
   21.6109  -21.3615  -10.7760 C   0  0  0  0  0  0  0  0  0  0  0  0
   23.2307  -20.9263   -9.0242 C   0  0  0  0  0  0  0  0  0  0  0  0
   23.5756  -20.6803   -7.5800 C   0  0  2  0  0  0  0  0  0  0  0  0
   25.0374  -20.7538   -7.4627 N   0  0  0  0  0  0  0  0  0  0  0  0
   22.9247  -21.6194   -6.6615 C   0  0  0  0  0  0  0  0  0  0  0  0
   21.7565  -21.4118   -6.2512 O   0  0  0  0  0  0  0  0  0  0  0  0
   23.5793  -22.7569   -6.2236 O   0  0  0  0  0  0  0  0  0  0  0  0
  2  3  1  0
  2  1  1  6
  3  4  1  0
  4  5  2  0
  5  6  1  0
  7  6  1  0
  8  4  1  0
  8  7  2  0
  9 11  1  0
  9  2  1  0
 10  9  2  0
 12 11  1  0
 12 13  1  1
 13 14  1  0
 14 15  2  0
 14 19  1  0
 15 16  1  0
 16 17  2  0
 18 17  1  0
 19 18  2  0
 20 12  1  0
 21 20  2  0
 23 22  1  6
 23 25  1  0
 24 23  1  0
 26 25  1  6
 26 28  1  0
 26 27  1  0
 27 20  1  0
 28 30  1  0
 29 28  2  0
M  END
$$$$
