HFL.pdb
     RDKit          3D

 30 31  0  0  1  0  0  0  0  0999 V2000
   26.3407  -21.6855  -13.3154 N   0  0  0  0  0  0  0  0  0  0  0  0
   25.8908  -20.6223  -12.4739 C   0  0  1  0  0  0  0  0  0  0  0  0
   24.4662  -20.1922  -12.8227 C   0  0  0  0  0  0  0  0  0  0  0  0
   24.5495  -19.5751  -14.1794 C   0  0  0  0  0  0  0  0  0  0  0  0
   25.2940  -18.4858  -14.5882 C   0  0  0  0  0  0  0  0  0  0  0  0
   25.1003  -18.2324  -15.9024 N   0  0  0  0  0  0  0  0  0  0  0  0
   24.2305  -19.1663  -16.3212 C   0  0  0  0  0  0  0  0  0  0  0  0
   23.8901  -19.9777  -15.3051 N   0  0  0  0  0  0  0  0  0  0  0  0
   25.9946  -21.0311  -11.0573 C   0  0  0  0  0  0  0  0  0  0  0  0
   25.4670  -22.1056  -10.6841 O   0  0  0  0  0  0  0  0  0  0  0  0
   26.6891  -20.2028  -10.1407 N   0  0  0  0  0  0  0  0  0  0  0  0
   26.8163  -20.5470   -8.7143 C   0  0  1  0  0  0  0  0  0  0  0  0
   27.8675  -19.6442   -8.1692 C   0  0  0  0  0  0  0  0  0  0  0  0
   28.0879  -19.6911   -6.7278 C   0  0  0  0  0  0  0  0  0  0  0  0
   28.5380  -20.8648   -6.1512 C   0  0  0  0  0  0  0  0  0  0  0  0
   28.7698  -20.9575   -4.7743 C   0  0  0  0  0  0  0  0  0  0  0  0
   28.5568  -19.8855   -3.9552 C   0  0  0  0  0  0  0  0  0  0  0  0
   28.1092  -18.7177   -4.5259 C   0  0  0  0  0  0  0  0  0  0  0  0
   27.8846  -18.6327   -5.8710 C   0  0  0  0  0  0  0  0  0  0  0  0
   25.5316  -20.2692   -8.0388 C   0  0  0  0  0  0  0  0  0  0  0  0
   24.8400  -19.2858   -8.3990 O   0  0  0  0  0  0  0  0  0  0  0  0
   20.7236  -20.2958   -7.0384 C   0  0  0  0  0  0  0  0  0  0  0  0
   21.3616  -21.6593   -6.9011 C   0  0  1  0  0  0  0  0  0  0  0  0
   20.5931  -22.5885   -7.8508 C   0  0  0  0  0  0  0  0  0  0  0  0
   22.7844  -21.6783   -7.3495 C   0  0  0  0  0  0  0  0  0  0  0  0
   23.7349  -20.9728   -6.4200 C   0  0  2  0  0  0  0  0  0  0  0  0
   25.0821  -21.1108   -6.9875 N   0  0  0  0  0  0  0  0  0  0  0  0
   23.6863  -21.4826   -5.0462 C   0  0  0  0  0  0  0  0  0  0  0  0
   24.1658  -22.6071   -4.7607 O   0  0  0  0  0  0  0  0  0  0  0  0
   23.1119  -20.7393   -4.0305 O   0  0  0  0  0  0  0  0  0  0  0  0
  2  3  1  0
  2  1  1  6
  3  4  1  0
  4  5  2  0
  5  6  1  0
  7  6  1  0
  8  4  1  0
  8  7  2  0
  9 11  1  0
  9  2  1  0
 10  9  2  0
 12 11  1  0
 12 13  1  1
 13 14  1  0
 14 15  2  0
 14 19  1  0
 15 16  1  0
 16 17  2  0
 18 17  1  0
 19 18  2  0
 20 12  1  0
 21 20  2  0
 23 22  1  6
 23 25  1  0
 24 23  1  0
 26 25  1  6
 26 28  1  0
 26 27  1  0
 27 20  1  0
 28 30  1  0
 29 28  2  0
M  END
$$$$
