RRY.pdb
     RDKit          3D

 35 35  0  0  1  0  0  0  0  0999 V2000
   23.1747  -23.8860  -15.4745 N   0  0  0  0  0  0  0  0  0  0  0  0
   24.1642  -24.9077  -15.2964 C   0  0  0  0  0  0  0  0  0  0  0  0
   23.9558  -25.8941  -14.4897 N   0  0  0  0  0  0  0  0  0  0  0  0
   25.3940  -24.8674  -15.9968 N   0  0  0  0  0  0  0  0  0  0  0  0
   25.7798  -23.7710  -16.8887 C   0  0  0  0  0  0  0  0  0  0  0  0
   27.0311  -23.1024  -16.3806 C   0  0  0  0  0  0  0  0  0  0  0  0
   26.8091  -21.9572  -15.4590 C   0  0  0  0  0  0  0  0  0  0  0  0
   26.6123  -20.6175  -16.0995 C   0  0  2  0  0  0  0  0  0  0  0  0
   27.7632  -19.7585  -16.0282 N   0  0  0  0  0  0  0  0  0  0  0  0
   25.5145  -19.9254  -15.3109 C   0  0  0  0  0  0  0  0  0  0  0  0
   25.7841  -19.4068  -14.1983 O   0  0  0  0  0  0  0  0  0  0  0  0
   24.6454  -26.6405  -14.3527 N   0  0  0  0  0  0  0  0  0  0  0  0
   19.0449  -17.2427  -17.3433 C   0  0  0  0  0  0  0  0  0  0  0  0
   19.6491  -16.0429  -16.7957 N   0  0  0  0  0  0  0  0  0  0  0  0
   18.9169  -15.1938  -16.1717 N   0  0  0  0  0  0  0  0  0  0  0  0
   21.0340  -15.8184  -16.9521 C   0  0  0  0  0  0  0  0  0  0  0  0
   21.8468  -16.6553  -17.7813 C   0  0  0  0  0  0  0  0  0  0  0  0
   22.8687  -17.3683  -16.8864 C   0  0  0  0  0  0  0  0  0  0  0  0
   22.1836  -18.4339  -16.1001 C   0  0  2  0  0  0  0  0  0  0  0  0
   23.0420  -19.3126  -15.2484 N   0  0  0  0  0  0  0  0  0  0  0  0
   24.2031  -19.8710  -15.8351 C   0  0  0  0  0  0  0  0  0  0  0  0
   22.2754  -20.2264  -14.3720 O   0  0  0  0  0  0  0  0  0  0  0  0
   22.2019  -21.4326  -14.7593 O   0  0  0  0  0  0  0  0  0  0  0  0
   19.3160  -14.3213  -15.8039 C   0  0  0  0  0  0  0  0  0  0  0  0
   18.6005  -23.0430   -6.8743 C   0  0  0  0  0  0  0  0  0  0  0  0
   19.2092  -22.2917   -7.8738 C   0  0  0  0  0  0  0  0  0  0  0  0
   18.5168  -21.3542   -8.6206 C   0  0  0  0  0  0  0  0  0  0  0  0
   19.0951  -20.6060   -9.6064 C   0  0  0  0  0  0  0  0  0  0  0  0
   20.4455  -20.8010   -9.8671 C   0  0  2  0  0  0  0  0  0  0  0  0
   21.0604  -19.9991  -10.9276 N   0  0  0  0  0  0  0  0  0  0  0  0
   21.0350  -20.6194  -12.2860 C   0  0  0  0  0  0  0  0  0  0  0  0
   21.6923  -19.7213  -13.2011 O   0  0  0  0  0  0  0  0  0  0  0  0
   19.7068  -20.9571  -12.8016 C   0  0  0  0  0  0  0  0  0  0  0  0
   19.0551  -20.1174  -13.4659 C   0  0  0  0  0  0  0  0  0  0  0  0
   21.1721  -21.7175   -9.1541 O   0  0  0  0  0  0  0  0  0  0  0  0
  2  3  2  0
  2  1  1  0
  4  2  1  0
  5  4  1  0
  6  5  1  0
  7  8  1  0
  7  6  1  0
  8 10  1  0
  8  9  1  1
 10 11  2  0
 13 15  1  0
 13 12  1  0
 14 13  2  0
 16 15  1  0
 17 16  1  0
 17 18  1  0
 19 18  1  1
 20 10  1  0
 20 19  1  0
 21 19  1  0
 21 30  1  0
 22 21  2  0
 23 24  1  0
 24 25  2  0
 25 26  1  0
 27 28  1  0
 27 26  2  0
 29 31  1  0
 29 30  1  0
 29 28  1  6
 31 35  1  0
 32 31  2  0
 33 27  1  0
 34 33  2  0
 34 24  1  0
M  END
$$$$
