RRY.pdb
     RDKit          3D

 35 35  0  0  1  0  0  0  0  0999 V2000
   30.2099  -19.0000  -20.2057 N   0  0  0  0  0  0  0  0  0  0  0  0
   29.7544  -17.6631  -19.9607 C   0  0  0  0  0  0  0  0  0  0  0  0
   29.9021  -16.7421  -20.8535 N   0  0  0  0  0  0  0  0  0  0  0  0
   29.1308  -17.3134  -18.7386 N   0  0  0  0  0  0  0  0  0  0  0  0
   28.7849  -18.2878  -17.7007 C   0  0  0  0  0  0  0  0  0  0  0  0
   27.5015  -18.9932  -18.0559 C   0  0  0  0  0  0  0  0  0  0  0  0
   26.7881  -19.6252  -16.9150 C   0  0  0  0  0  0  0  0  0  0  0  0
   27.2411  -20.9993  -16.5272 C   0  0  2  0  0  0  0  0  0  0  0  0
   27.3380  -21.9178  -17.6292 N   0  0  0  0  0  0  0  0  0  0  0  0
   26.1726  -21.5549  -15.6021 C   0  0  0  0  0  0  0  0  0  0  0  0
   25.1533  -22.1029  -16.0920 O   0  0  0  0  0  0  0  0  0  0  0  0
   29.6070  -15.7737  -20.6908 N   0  0  0  0  0  0  0  0  0  0  0  0
   24.9702  -19.3264   -8.0594 C   0  0  0  0  0  0  0  0  0  0  0  0
   24.7308  -20.7569   -8.0862 N   0  0  0  0  0  0  0  0  0  0  0  0
   23.7384  -21.2448   -7.4354 N   0  0  0  0  0  0  0  0  0  0  0  0
   25.5881  -21.5998   -8.8261 C   0  0  0  0  0  0  0  0  0  0  0  0
   26.6781  -21.0820   -9.5957 C   0  0  0  0  0  0  0  0  0  0  0  0
   26.1290  -20.6161  -10.9503 C   0  0  0  0  0  0  0  0  0  0  0  0
   25.8066  -21.8041  -11.7917 C   0  0  1  0  0  0  0  0  0  0  0  0
   25.3488  -21.5457  -13.1909 N   0  0  0  0  0  0  0  0  0  0  0  0
   26.3350  -21.4508  -14.2020 C   0  0  0  0  0  0  0  0  0  0  0  0
   24.2499  -20.5587  -13.2861 O   0  0  0  0  0  0  0  0  0  0  0  0
   24.5270  -19.3827  -12.8979 O   0  0  0  0  0  0  0  0  0  0  0  0
   23.5366  -22.2521   -7.4564 C   0  0  0  0  0  0  0  0  0  0  0  0
   17.2467  -16.1610  -15.8854 C   0  0  0  0  0  0  0  0  0  0  0  0
   18.3408  -17.0007  -15.7071 C   0  0  0  0  0  0  0  0  0  0  0  0
   19.6318  -16.5176  -15.5806 C   0  0  0  0  0  0  0  0  0  0  0  0
   20.7200  -17.3245  -15.4050 C   0  0  0  0  0  0  0  0  0  0  0  0
   20.5133  -18.6971  -15.3516 C   0  0  1  0  0  0  0  0  0  0  0  0
   21.6836  -19.5584  -15.1669 N   0  0  0  0  0  0  0  0  0  0  0  0
   21.8941  -20.0501  -13.7724 C   0  0  0  0  0  0  0  0  0  0  0  0
   23.0046  -20.9682  -13.7837 O   0  0  0  0  0  0  0  0  0  0  0  0
   20.7359  -20.6913  -13.1469 C   0  0  0  0  0  0  0  0  0  0  0  0
   20.5633  -21.9281  -13.2561 C   0  0  0  0  0  0  0  0  0  0  0  0
   19.2538  -19.2218  -15.4719 O   0  0  0  0  0  0  0  0  0  0  0  0
  2  3  2  0
  2  1  1  0
  4  2  1  0
  5  4  1  0
  6  5  1  0
  7  8  1  0
  7  6  1  0
  8 10  1  0
  8  9  1  6
 10 11  2  0
 13 15  1  0
 13 12  1  0
 14 13  2  0
 16 15  1  0
 17 16  1  0
 17 18  1  0
 19 18  1  6
 20 10  1  0
 20 19  1  0
 21 19  1  0
 21 30  1  0
 22 21  2  0
 23 24  1  0
 24 25  2  0
 25 26  1  0
 27 28  1  0
 27 26  2  0
 29 31  1  0
 29 30  1  0
 29 28  1  6
 31 35  1  0
 32 31  2  0
 33 27  1  0
 34 33  2  0
 34 24  1  0
M  END
$$$$
