RRY.pdb
     RDKit          3D

 35 35  0  0  1  0  0  0  0  0999 V2000
   27.8820  -16.5765  -18.9992 N   0  0  0  0  0  0  0  0  0  0  0  0
   28.6259  -16.7122  -20.2169 C   0  0  0  0  0  0  0  0  0  0  0  0
   28.6765  -15.7446  -21.0702 N   0  0  0  0  0  0  0  0  0  0  0  0
   29.3253  -17.9055  -20.5196 N   0  0  0  0  0  0  0  0  0  0  0  0
   29.4775  -19.0143  -19.5743 C   0  0  0  0  0  0  0  0  0  0  0  0
   28.2174  -19.8397  -19.5327 C   0  0  0  0  0  0  0  0  0  0  0  0
   27.5927  -19.9767  -18.1907 C   0  0  0  0  0  0  0  0  0  0  0  0
   28.1509  -21.0473  -17.3041 C   0  0  2  0  0  0  0  0  0  0  0  0
   28.2975  -22.3247  -17.9478 N   0  0  0  0  0  0  0  0  0  0  0  0
   27.1405  -21.2461  -16.1880 C   0  0  0  0  0  0  0  0  0  0  0  0
   26.1296  -21.9651  -16.3887 O   0  0  0  0  0  0  0  0  0  0  0  0
   29.2899  -15.7742  -21.8913 N   0  0  0  0  0  0  0  0  0  0  0  0
   23.7827  -21.3588  -10.5576 C   0  0  0  0  0  0  0  0  0  0  0  0
   24.1659  -20.7182   -9.3136 N   0  0  0  0  0  0  0  0  0  0  0  0
   23.4467  -20.8908   -8.2651 N   0  0  0  0  0  0  0  0  0  0  0  0
   25.3239  -19.9123   -9.2650 C   0  0  0  0  0  0  0  0  0  0  0  0
   26.0341  -19.5369  -10.4496 C   0  0  0  0  0  0  0  0  0  0  0  0
   26.3039  -20.8058  -11.2685 C   0  0  0  0  0  0  0  0  0  0  0  0
   27.1347  -20.4628  -12.4582 C   0  0  2  0  0  0  0  0  0  0  0  0
   26.5001  -20.6204  -13.8024 N   0  0  0  0  0  0  0  0  0  0  0  0
   27.3469  -20.6219  -14.9368 C   0  0  0  0  0  0  0  0  0  0  0  0
   25.2373  -19.8642  -13.9580 O   0  0  0  0  0  0  0  0  0  0  0  0
   25.3518  -18.6019  -14.0178 O   0  0  0  0  0  0  0  0  0  0  0  0
   23.6748  -20.4148   -7.3836 C   0  0  0  0  0  0  0  0  0  0  0  0
   24.6497  -15.1621  -18.2253 C   0  0  0  0  0  0  0  0  0  0  0  0
   24.1358  -16.2970  -17.6075 C   0  0  0  0  0  0  0  0  0  0  0  0
   24.8434  -17.4844  -17.5339 C   0  0  0  0  0  0  0  0  0  0  0  0
   24.3573  -18.6103  -16.9320 C   0  0  0  0  0  0  0  0  0  0  0  0
   23.0891  -18.5537  -16.3681 C   0  0  1  0  0  0  0  0  0  0  0  0
   22.5707  -19.7645  -15.7272 N   0  0  0  0  0  0  0  0  0  0  0  0
   22.7965  -19.8469  -14.2531 C   0  0  0  0  0  0  0  0  0  0  0  0
   24.0249  -20.5654  -14.0274 O   0  0  0  0  0  0  0  0  0  0  0  0
   21.7177  -20.4685  -13.4825 C   0  0  0  0  0  0  0  0  0  0  0  0
   20.5721  -19.9598  -13.4760 C   0  0  0  0  0  0  0  0  0  0  0  0
   22.3511  -17.4007  -16.4162 O   0  0  0  0  0  0  0  0  0  0  0  0
  2  3  2  0
  2  1  1  0
  4  2  1  0
  5  4  1  0
  6  5  1  0
  7  8  1  0
  7  6  1  0
  8 10  1  0
  8  9  1  6
 10 11  2  0
 13 15  1  0
 13 12  1  0
 14 13  2  0
 16 15  1  0
 17 16  1  0
 17 18  1  0
 19 18  1  1
 20 10  1  0
 20 19  1  0
 21 19  1  0
 21 30  1  0
 22 21  2  0
 23 24  1  0
 24 25  2  0
 25 26  1  0
 27 28  1  0
 27 26  2  0
 29 31  1  0
 29 30  1  0
 29 28  1  1
 31 35  1  0
 32 31  2  0
 33 27  1  0
 34 33  2  0
 34 24  1  0
M  END
$$$$
