RRY.pdb
     RDKit          3D

 35 35  0  0  1  0  0  0  0  0999 V2000
   26.3192  -24.3366  -16.8163 N   0  0  0  0  0  0  0  0  0  0  0  0
   27.4849  -23.5729  -16.4806 C   0  0  0  0  0  0  0  0  0  0  0  0
   28.5636  -23.6729  -17.1830 N   0  0  0  0  0  0  0  0  0  0  0  0
   27.4889  -22.6893  -15.3743 N   0  0  0  0  0  0  0  0  0  0  0  0
   26.2837  -22.3313  -14.6223 C   0  0  0  0  0  0  0  0  0  0  0  0
   25.9528  -20.8761  -14.8311 C   0  0  0  0  0  0  0  0  0  0  0  0
   24.7752  -20.3780  -14.0727 C   0  0  0  0  0  0  0  0  0  0  0  0
   24.3017  -21.2376  -12.9410 C   0  0  2  0  0  0  0  0  0  0  0  0
   24.4104  -22.6493  -13.1914 N   0  0  0  0  0  0  0  0  0  0  0  0
   22.8203  -20.9470  -12.7761 C   0  0  0  0  0  0  0  0  0  0  0  0
   22.4436  -19.7751  -12.5228 O   0  0  0  0  0  0  0  0  0  0  0  0
   29.4402  -23.2213  -16.9020 N   0  0  0  0  0  0  0  0  0  0  0  0
   19.2101  -21.5016  -18.8376 C   0  0  0  0  0  0  0  0  0  0  0  0
   20.5139  -20.9406  -18.5375 N   0  0  0  0  0  0  0  0  0  0  0  0
   21.0467  -20.1060  -19.3535 N   0  0  0  0  0  0  0  0  0  0  0  0
   21.1852  -21.3153  -17.3536 C   0  0  0  0  0  0  0  0  0  0  0  0
   20.5181  -22.0058  -16.2922 C   0  0  0  0  0  0  0  0  0  0  0  0
   20.3118  -21.0202  -15.1348 C   0  0  0  0  0  0  0  0  0  0  0  0
   19.6546  -21.7217  -13.9951 C   0  0  2  0  0  0  0  0  0  0  0  0
   20.4745  -21.9417  -12.7647 N   0  0  0  0  0  0  0  0  0  0  0  0
   21.8817  -21.9952  -12.9092 C   0  0  0  0  0  0  0  0  0  0  0  0
   19.8971  -22.9368  -11.8334 O   0  0  0  0  0  0  0  0  0  0  0  0
   20.0454  -24.1535  -12.1617 O   0  0  0  0  0  0  0  0  0  0  0  0
   21.9568  -19.6749  -19.1493 C   0  0  0  0  0  0  0  0  0  0  0  0
   16.5528  -26.0584   -4.2960 C   0  0  0  0  0  0  0  0  0  0  0  0
   17.0962  -25.2712   -5.3054 C   0  0  0  0  0  0  0  0  0  0  0  0
   18.4465  -25.2861   -5.6099 C   0  0  0  0  0  0  0  0  0  0  0  0
   19.0005  -24.5211   -6.5969 C   0  0  0  0  0  0  0  0  0  0  0  0
   18.1613  -23.6892   -7.3271 C   0  0  1  0  0  0  0  0  0  0  0  0
   18.7605  -22.8682   -8.3818 N   0  0  0  0  0  0  0  0  0  0  0  0
   18.6868  -23.4495   -9.7556 C   0  0  0  0  0  0  0  0  0  0  0  0
   19.2392  -22.4905  -10.6783 O   0  0  0  0  0  0  0  0  0  0  0  0
   17.3500  -23.8449  -10.2034 C   0  0  0  0  0  0  0  0  0  0  0  0
   16.6060  -23.0163  -10.7789 C   0  0  0  0  0  0  0  0  0  0  0  0
   16.8183  -23.6406   -7.0621 O   0  0  0  0  0  0  0  0  0  0  0  0
  2  3  2  0
  2  1  1  0
  4  2  1  0
  5  4  1  0
  6  5  1  0
  7  8  1  0
  7  6  1  0
  8 10  1  0
  8  9  1  6
 10 11  2  0
 13 15  1  0
 13 12  1  0
 14 13  2  0
 16 15  1  0
 17 16  1  0
 17 18  1  0
 19 18  1  1
 20 10  1  0
 20 19  1  0
 21 19  1  0
 21 30  1  0
 22 21  2  0
 23 24  1  0
 24 25  2  0
 25 26  1  0
 27 28  1  0
 27 26  2  0
 29 31  1  0
 29 30  1  0
 29 28  1  6
 31 35  1  0
 32 31  2  0
 33 27  1  0
 34 33  2  0
 34 24  1  0
M  END
$$$$
