RRY.pdb
     RDKit          3D

 35 35  0  0  1  0  0  0  0  0999 V2000
   24.8673  -17.2893  -19.8127 N   0  0  0  0  0  0  0  0  0  0  0  0
   23.6198  -16.8573  -20.3711 C   0  0  0  0  0  0  0  0  0  0  0  0
   23.5810  -15.9003  -21.2368 N   0  0  0  0  0  0  0  0  0  0  0  0
   22.3979  -17.4645  -19.9929 N   0  0  0  0  0  0  0  0  0  0  0  0
   22.3128  -18.6109  -19.0848 C   0  0  0  0  0  0  0  0  0  0  0  0
   22.8007  -18.2250  -17.7122 C   0  0  0  0  0  0  0  0  0  0  0  0
   22.7430  -19.3045  -16.6916 C   0  0  0  0  0  0  0  0  0  0  0  0
   23.3332  -20.6236  -17.0857 C   0  0  2  0  0  0  0  0  0  0  0  0
   22.3581  -21.6249  -17.4237 N   0  0  0  0  0  0  0  0  0  0  0  0
   24.0708  -21.1425  -15.8639 C   0  0  0  0  0  0  0  0  0  0  0  0
   23.4286  -21.7234  -14.9532 O   0  0  0  0  0  0  0  0  0  0  0  0
   22.6989  -15.5618  -21.6351 N   0  0  0  0  0  0  0  0  0  0  0  0
   31.1874  -24.5932  -15.1293 C   0  0  0  0  0  0  0  0  0  0  0  0
   30.6188  -24.3074  -16.4330 N   0  0  0  0  0  0  0  0  0  0  0  0
   30.3774  -25.2725  -17.2435 N   0  0  0  0  0  0  0  0  0  0  0  0
   30.3355  -22.9740  -16.7998 C   0  0  0  0  0  0  0  0  0  0  0  0
   29.8496  -22.0164  -15.8535 C   0  0  0  0  0  0  0  0  0  0  0  0
   28.3303  -22.1912  -15.7326 C   0  0  0  0  0  0  0  0  0  0  0  0
   27.7778  -21.1349  -14.8368 C   0  0  2  0  0  0  0  0  0  0  0  0
   26.2980  -21.1240  -14.6261 N   0  0  0  0  0  0  0  0  0  0  0  0
   25.4697  -20.9676  -15.7634 C   0  0  0  0  0  0  0  0  0  0  0  0
   25.8721  -20.3693  -13.4262 O   0  0  0  0  0  0  0  0  0  0  0  0
   24.9673  -19.4991  -13.6119 O   0  0  0  0  0  0  0  0  0  0  0  0
   30.0034  -25.0921  -18.1834 C   0  0  0  0  0  0  0  0  0  0  0  0
   19.5016  -19.0125  -10.6337 C   0  0  0  0  0  0  0  0  0  0  0  0
   20.7553  -19.6079  -10.7195 C   0  0  0  0  0  0  0  0  0  0  0  0
   21.6049  -19.7049   -9.6309 C   0  0  0  0  0  0  0  0  0  0  0  0
   22.8399  -20.2854   -9.6935 C   0  0  0  0  0  0  0  0  0  0  0  0
   23.2576  -20.8018  -10.9136 C   0  0  2  0  0  0  0  0  0  0  0  0
   24.5841  -21.4199  -10.9766 N   0  0  0  0  0  0  0  0  0  0  0  0
   25.7299  -20.4619  -10.9735 C   0  0  0  0  0  0  0  0  0  0  0  0
   26.4753  -20.6507  -12.1920 O   0  0  0  0  0  0  0  0  0  0  0  0
   26.6344  -20.5625   -9.8264 C   0  0  0  0  0  0  0  0  0  0  0  0
   27.6505  -21.2941   -9.8858 C   0  0  0  0  0  0  0  0  0  0  0  0
   22.4516  -20.7291  -12.0187 O   0  0  0  0  0  0  0  0  0  0  0  0
  2  3  2  0
  2  1  1  0
  4  2  1  0
  5  4  1  0
  6  5  1  0
  7  8  1  0
  7  6  1  0
  8 10  1  0
  8  9  1  1
 10 11  2  0
 13 15  1  0
 13 12  1  0
 14 13  2  0
 16 15  1  0
 17 16  1  0
 17 18  1  0
 19 18  1  6
 20 10  1  0
 20 19  1  0
 21 19  1  0
 21 30  1  0
 22 21  2  0
 23 24  1  0
 24 25  2  0
 25 26  1  0
 27 28  1  0
 27 26  2  0
 29 31  1  0
 29 30  1  0
 29 28  1  1
 31 35  1  0
 32 31  2  0
 33 27  1  0
 34 33  2  0
 34 24  1  0
M  END
$$$$
