RRY.pdb
     RDKit          3D

 35 35  0  0  1  0  0  0  0  0999 V2000
   10.2542  -19.3267   -0.5631 N   0  0  0  0  0  0  0  0  0  0  0  0
   10.0764  -18.5251   -1.7381 C   0  0  0  0  0  0  0  0  0  0  0  0
    9.4528  -17.3962   -1.6781 N   0  0  0  0  0  0  0  0  0  0  0  0
   10.5774  -18.9443   -2.9942 N   0  0  0  0  0  0  0  0  0  0  0  0
   11.8149  -19.7118   -3.1548 C   0  0  0  0  0  0  0  0  0  0  0  0
   12.0799  -19.9728   -4.6151 C   0  0  0  0  0  0  0  0  0  0  0  0
   12.2107  -21.4054   -4.9901 C   0  0  0  0  0  0  0  0  0  0  0  0
   12.6153  -21.6878   -6.4044 C   0  0  2  0  0  0  0  0  0  0  0  0
   11.5102  -21.9020   -7.2990 N   0  0  0  0  0  0  0  0  0  0  0  0
   13.3961  -22.9898   -6.3723 C   0  0  0  0  0  0  0  0  0  0  0  0
   12.7838  -24.0753   -6.2109 O   0  0  0  0  0  0  0  0  0  0  0  0
    9.3160  -16.8051   -2.5047 N   0  0  0  0  0  0  0  0  0  0  0  0
   19.4896  -27.8410   -9.5466 C   0  0  0  0  0  0  0  0  0  0  0  0
   18.3727  -27.1228  -10.1309 N   0  0  0  0  0  0  0  0  0  0  0  0
   17.7049  -27.6600  -11.0859 N   0  0  0  0  0  0  0  0  0  0  0  0
   18.0289  -25.8423   -9.6463 C   0  0  0  0  0  0  0  0  0  0  0  0
   18.7200  -25.2389   -8.5477 C   0  0  0  0  0  0  0  0  0  0  0  0
   17.7807  -25.2357   -7.3348 C   0  0  0  0  0  0  0  0  0  0  0  0
   16.7452  -24.1773   -7.5103 C   0  0  1  0  0  0  0  0  0  0  0  0
   15.7139  -24.0466   -6.4362 N   0  0  0  0  0  0  0  0  0  0  0  0
   14.8011  -22.9681   -6.5244 C   0  0  0  0  0  0  0  0  0  0  0  0
   16.2288  -24.3285   -5.0775 O   0  0  0  0  0  0  0  0  0  0  0  0
   16.9302  -23.4119   -4.5501 O   0  0  0  0  0  0  0  0  0  0  0  0
   16.9417  -27.1508  -11.5486 C   0  0  0  0  0  0  0  0  0  0  0  0
   16.9929  -27.8821    2.8807 C   0  0  0  0  0  0  0  0  0  0  0  0
   16.5966  -27.5026    1.6030 C   0  0  0  0  0  0  0  0  0  0  0  0
   16.4600  -26.1755    1.2339 C   0  0  0  0  0  0  0  0  0  0  0  0
   16.0721  -25.7812   -0.0152 C   0  0  0  0  0  0  0  0  0  0  0  0
   15.8029  -26.7664   -0.9568 C   0  0  1  0  0  0  0  0  0  0  0  0
   15.3837  -26.3388   -2.2936 N   0  0  0  0  0  0  0  0  0  0  0  0
   16.4888  -25.8782   -3.1866 C   0  0  0  0  0  0  0  0  0  0  0  0
   15.9217  -25.5550   -4.4711 O   0  0  0  0  0  0  0  0  0  0  0  0
   17.5934  -26.8228   -3.3634 C   0  0  0  0  0  0  0  0  0  0  0  0
   17.5589  -27.6690   -4.2875 C   0  0  0  0  0  0  0  0  0  0  0  0
   15.9242  -28.0930   -0.6379 O   0  0  0  0  0  0  0  0  0  0  0  0
  2  3  2  0
  2  1  1  0
  4  2  1  0
  5  4  1  0
  6  5  1  0
  7  8  1  0
  7  6  1  0
  8 10  1  0
  8  9  1  6
 10 11  2  0
 13 15  1  0
 13 12  1  0
 14 13  2  0
 16 15  1  0
 17 16  1  0
 17 18  1  0
 19 18  1  6
 20 10  1  0
 20 19  1  0
 21 19  1  0
 21 30  1  0
 22 21  2  0
 23 24  1  0
 24 25  2  0
 25 26  1  0
 27 28  1  0
 27 26  2  0
 29 31  1  0
 29 30  1  0
 29 28  1  6
 31 35  1  0
 32 31  2  0
 33 27  1  0
 34 33  2  0
 34 24  1  0
M  END
$$$$
