RRY.pdb
     RDKit          3D

 35 35  0  0  1  0  0  0  0  0999 V2000
   31.2030  -24.1922  -15.8171 N   0  0  0  0  0  0  0  0  0  0  0  0
   30.4688  -23.8507  -16.9999 C   0  0  0  0  0  0  0  0  0  0  0  0
   31.0457  -23.8429  -18.1549 N   0  0  0  0  0  0  0  0  0  0  0  0
   29.0949  -23.5139  -16.9383 N   0  0  0  0  0  0  0  0  0  0  0  0
   28.5835  -22.1617  -17.1751 C   0  0  0  0  0  0  0  0  0  0  0  0
   29.2000  -21.1935  -16.1985 C   0  0  0  0  0  0  0  0  0  0  0  0
   28.2413  -20.5140  -15.2879 C   0  0  0  0  0  0  0  0  0  0  0  0
   26.8572  -21.0841  -15.2350 C   0  0  2  0  0  0  0  0  0  0  0  0
   26.0571  -20.7904  -16.3931 N   0  0  0  0  0  0  0  0  0  0  0  0
   26.1660  -20.4165  -14.0591 C   0  0  0  0  0  0  0  0  0  0  0  0
   26.0765  -19.1635  -14.0234 O   0  0  0  0  0  0  0  0  0  0  0  0
   30.5378  -23.6138  -19.0157 N   0  0  0  0  0  0  0  0  0  0  0  0
   20.4258  -20.6007  -15.1945 C   0  0  0  0  0  0  0  0  0  0  0  0
   20.3348  -21.8190  -14.4123 N   0  0  0  0  0  0  0  0  0  0  0  0
   19.9061  -22.8950  -14.9644 N   0  0  0  0  0  0  0  0  0  0  0  0
   20.7174  -21.8127  -13.0534 C   0  0  0  0  0  0  0  0  0  0  0  0
   21.2406  -20.6403  -12.4207 C   0  0  0  0  0  0  0  0  0  0  0  0
   22.7215  -20.5119  -12.8000 C   0  0  0  0  0  0  0  0  0  0  0  0
   23.5687  -20.9302  -11.6465 C   0  0  2  0  0  0  0  0  0  0  0  0
   25.0487  -20.7873  -11.7993 N   0  0  0  0  0  0  0  0  0  0  0  0
   25.6310  -21.2094  -13.0186 C   0  0  0  0  0  0  0  0  0  0  0  0
   25.8108  -21.1397  -10.5803 O   0  0  0  0  0  0  0  0  0  0  0  0
   26.1647  -22.3543  -10.4806 O   0  0  0  0  0  0  0  0  0  0  0  0
   19.8162  -23.7656  -14.4260 C   0  0  0  0  0  0  0  0  0  0  0  0
   30.2423  -20.0233   -3.0543 C   0  0  0  0  0  0  0  0  0  0  0  0
   29.6072  -19.8689   -4.2817 C   0  0  0  0  0  0  0  0  0  0  0  0
   29.9921  -20.5751   -5.4084 C   0  0  0  0  0  0  0  0  0  0  0  0
   29.3822  -20.4384   -6.6231 C   0  0  0  0  0  0  0  0  0  0  0  0
   28.3238  -19.5446   -6.7255 C   0  0  1  0  0  0  0  0  0  0  0  0
   27.6754  -19.3988   -8.0308 N   0  0  0  0  0  0  0  0  0  0  0  0
   26.7252  -20.4932   -8.3916 C   0  0  0  0  0  0  0  0  0  0  0  0
   26.0881  -20.1416   -9.6353 O   0  0  0  0  0  0  0  0  0  0  0  0
   25.7036  -20.7991   -7.3883 C   0  0  0  0  0  0  0  0  0  0  0  0
   24.5360  -20.3632   -7.5226 C   0  0  0  0  0  0  0  0  0  0  0  0
   27.9072  -18.8236   -5.6379 O   0  0  0  0  0  0  0  0  0  0  0  0
  2  3  2  0
  2  1  1  0
  4  2  1  0
  5  4  1  0
  6  5  1  0
  7  8  1  0
  7  6  1  0
  8 10  1  0
  8  9  1  6
 10 11  2  0
 13 15  1  0
 13 12  1  0
 14 13  2  0
 16 15  1  0
 17 16  1  0
 17 18  1  0
 19 18  1  6
 20 10  1  0
 20 19  1  0
 21 19  1  0
 21 30  1  0
 22 21  2  0
 23 24  1  0
 24 25  2  0
 25 26  1  0
 27 28  1  0
 27 26  2  0
 29 31  1  0
 29 30  1  0
 29 28  1  1
 31 35  1  0
 32 31  2  0
 33 27  1  0
 34 33  2  0
 34 24  1  0
M  END
$$$$
