RRY.pdb
     RDKit          3D

 35 35  0  0  1  0  0  0  0  0999 V2000
   23.9296  -18.3254  -23.9335 N   0  0  0  0  0  0  0  0  0  0  0  0
   24.1143  -16.9326  -23.6494 C   0  0  0  0  0  0  0  0  0  0  0  0
   24.4165  -16.1020  -24.5905 N   0  0  0  0  0  0  0  0  0  0  0  0
   23.9710  -16.4272  -22.3345 N   0  0  0  0  0  0  0  0  0  0  0  0
   23.4947  -17.2326  -21.2073 C   0  0  0  0  0  0  0  0  0  0  0  0
   21.9976  -17.1166  -21.0804 C   0  0  0  0  0  0  0  0  0  0  0  0
   21.4043  -17.8123  -19.9082 C   0  0  0  0  0  0  0  0  0  0  0  0
   21.9522  -19.1706  -19.5945 C   0  0  2  0  0  0  0  0  0  0  0  0
   21.4514  -20.2160  -20.4453 N   0  0  0  0  0  0  0  0  0  0  0  0
   21.4845  -19.5045  -18.1889 C   0  0  0  0  0  0  0  0  0  0  0  0
   20.2737  -19.7740  -17.9867 O   0  0  0  0  0  0  0  0  0  0  0  0
   24.5098  -15.0954  -24.4192 N   0  0  0  0  0  0  0  0  0  0  0  0
   26.8825  -22.3350  -12.2478 C   0  0  0  0  0  0  0  0  0  0  0  0
   25.5860  -22.6509  -12.8168 N   0  0  0  0  0  0  0  0  0  0  0  0
   25.1228  -23.8430  -12.7130 N   0  0  0  0  0  0  0  0  0  0  0  0
   24.8449  -21.6479  -13.4785 C   0  0  0  0  0  0  0  0  0  0  0  0
   25.2833  -20.2860  -13.5182 C   0  0  0  0  0  0  0  0  0  0  0  0
   24.2150  -19.4602  -14.2463 C   0  0  0  0  0  0  0  0  0  0  0  0
   23.2723  -20.3762  -14.9502 C   0  0  1  0  0  0  0  0  0  0  0  0
   22.1767  -19.7464  -15.7485 N   0  0  0  0  0  0  0  0  0  0  0  0
   22.4137  -19.5091  -17.1238 C   0  0  0  0  0  0  0  0  0  0  0  0
   21.4656  -18.6625  -15.0341 O   0  0  0  0  0  0  0  0  0  0  0  0
   21.9566  -17.4995  -15.1631 O   0  0  0  0  0  0  0  0  0  0  0  0
   24.2053  -24.0894  -13.1047 C   0  0  0  0  0  0  0  0  0  0  0  0
   15.3430  -13.0998  -13.1928 C   0  0  0  0  0  0  0  0  0  0  0  0
   16.2553  -14.0725  -13.5869 C   0  0  0  0  0  0  0  0  0  0  0  0
   15.8590  -15.2831  -14.1287 C   0  0  0  0  0  0  0  0  0  0  0  0
   16.7382  -16.2518  -14.5221 C   0  0  0  0  0  0  0  0  0  0  0  0
   18.0961  -16.0029  -14.3677 C   0  0  2  0  0  0  0  0  0  0  0  0
   19.0348  -17.0460  -14.7875 N   0  0  0  0  0  0  0  0  0  0  0  0
   19.5495  -17.9149  -13.6871 C   0  0  0  0  0  0  0  0  0  0  0  0
   20.3261  -18.9745  -14.2788 O   0  0  0  0  0  0  0  0  0  0  0  0
   18.5305  -18.4887  -12.8061 C   0  0  0  0  0  0  0  0  0  0  0  0
   18.0146  -19.5987  -13.0764 C   0  0  0  0  0  0  0  0  0  0  0  0
   18.5361  -14.8195  -13.8364 O   0  0  0  0  0  0  0  0  0  0  0  0
  2  3  2  0
  2  1  1  0
  4  2  1  0
  5  4  1  0
  6  5  1  0
  7  8  1  0
  7  6  1  0
  8 10  1  0
  8  9  1  6
 10 11  2  0
 13 15  1  0
 13 12  1  0
 14 13  2  0
 16 15  1  0
 17 16  1  0
 17 18  1  0
 19 18  1  6
 20 10  1  0
 20 19  1  0
 21 19  1  0
 21 30  1  0
 22 21  2  0
 23 24  1  0
 24 25  2  0
 25 26  1  0
 27 28  1  0
 27 26  2  0
 29 31  1  0
 29 30  1  0
 29 28  1  6
 31 35  1  0
 32 31  2  0
 33 27  1  0
 34 33  2  0
 34 24  1  0
M  END
$$$$
