WDM.pdb
     RDKit          3D

 31 32  0  0  1  0  0  0  0  0999 V2000
    6.5728  -17.6063   23.9215 N   0  0  0  0  0  0  0  0  0  0  0  0
    7.7102  -16.6649   23.8102 C   0  0  1  0  0  0  0  0  0  0  0  0
    7.9486  -16.0748   25.1667 C   0  0  0  0  0  0  0  0  0  0  0  0
    6.9922  -15.0535   25.6126 C   0  0  0  0  0  0  0  0  0  0  0  0
    5.8094  -15.2676   26.3345 C   0  0  0  0  0  0  0  0  0  0  0  0
    5.1785  -14.1143   26.5427 N   0  0  0  0  0  0  0  0  0  0  0  0
    5.9004  -13.1156   25.9814 C   0  0  0  0  0  0  0  0  0  0  0  0
    5.6728  -11.7552   25.9393 C   0  0  0  0  0  0  0  0  0  0  0  0
    6.5747  -10.9256   25.3125 C   0  0  0  0  0  0  0  0  0  0  0  0
    7.7081  -11.4947   24.7303 C   0  0  0  0  0  0  0  0  0  0  0  0
    7.9187  -12.8459   24.7805 C   0  0  0  0  0  0  0  0  0  0  0  0
    7.0317  -13.6956   25.4005 C   0  0  0  0  0  0  0  0  0  0  0  0
    8.8957  -17.3009   23.2262 C   0  0  0  0  0  0  0  0  0  0  0  0
    9.2026  -18.4532   23.5877 O   0  0  0  0  0  0  0  0  0  0  0  0
    9.7303  -16.6632   22.2518 N   0  0  0  0  0  0  0  0  0  0  0  0
   11.1292  -16.9740   22.1869 C   0  0  1  0  0  0  0  0  0  0  0  0
   11.7591  -16.0973   21.0966 C   0  0  0  0  0  0  0  0  0  0  0  0
   12.3402  -17.0194   20.0818 C   0  0  0  0  0  0  0  0  0  0  0  0
   12.4234  -18.2588   20.2674 O   0  0  0  0  0  0  0  0  0  0  0  0
   11.8390  -16.6449   23.4580 C   0  0  0  0  0  0  0  0  0  0  0  0
   11.8991  -15.4655   23.9003 O   0  0  0  0  0  0  0  0  0  0  0  0
   12.8121  -16.5134   18.8823 O   0  0  0  0  0  0  0  0  0  0  0  0
   11.2795  -13.2405   28.6709 C   0  0  0  0  0  0  0  0  0  0  0  0
   10.6898  -14.7514   27.8648 S   0  0  0  0  0  0  0  0  0  0  0  0
   12.0297  -15.6186   27.0210 C   0  0  0  0  0  0  0  0  0  0  0  0
   11.4955  -16.8546   26.3254 C   0  0  0  0  0  0  0  0  0  0  0  0
   12.7157  -17.5081   25.6630 C   0  0  2  0  0  0  0  0  0  0  0  0
   12.4858  -17.6410   24.2390 N   0  0  0  0  0  0  0  0  0  0  0  0
   12.8146  -18.8748   26.2332 C   0  0  0  0  0  0  0  0  0  0  0  0
   13.9510  -19.2784   26.9308 O   0  0  0  0  0  0  0  0  0  0  0  0
   11.8955  -19.7345   26.1231 O   0  0  0  0  0  0  0  0  0  0  0  0
  2  1  1  1
  2  3  1  0
  4  3  1  0
  5  4  2  0
  6  5  1  0
  7  6  1  0
  7 12  2  0
  8  7  1  0
  9  8  2  0
  9 10  1  0
 10 11  2  0
 11 12  1  0
 12  4  1  0
 13  2  1  0
 14 13  2  0
 15 13  1  0
 16 15  1  0
 16 17  1  6
 17 18  1  0
 18 22  1  0
 19 18  2  0
 20 21  2  0
 20 16  1  0
 23 24  1  0
 24 25  1  0
 25 26  1  0
 27 26  1  1
 27 29  1  0
 27 28  1  0
 28 20  1  0
 29 30  1  0
 31 29  2  0
M  END
$$$$
