WDM.pdb
     RDKit          3D

 31 32  0  0  1  0  0  0  0  0999 V2000
    6.8514  -18.4294   23.2318 N   0  0  0  0  0  0  0  0  0  0  0  0
    7.7612  -17.3404   23.6544 C   0  0  1  0  0  0  0  0  0  0  0  0
    7.4525  -17.0170   25.0846 C   0  0  0  0  0  0  0  0  0  0  0  0
    6.8963  -15.6836   25.3480 C   0  0  0  0  0  0  0  0  0  0  0  0
    5.9070  -15.3557   26.2858 C   0  0  0  0  0  0  0  0  0  0  0  0
    5.6307  -14.0548   26.2321 N   0  0  0  0  0  0  0  0  0  0  0  0
    6.4068  -13.4838   25.2807 C   0  0  0  0  0  0  0  0  0  0  0  0
    6.4981  -12.1720   24.8623 C   0  0  0  0  0  0  0  0  0  0  0  0
    7.3888  -11.8260   23.8716 C   0  0  0  0  0  0  0  0  0  0  0  0
    8.1837  -12.8276   23.3128 C   0  0  0  0  0  0  0  0  0  0  0  0
    8.0805  -14.1240   23.7388 C   0  0  0  0  0  0  0  0  0  0  0  0
    7.1976  -14.4945   24.7268 C   0  0  0  0  0  0  0  0  0  0  0  0
    9.1689  -17.6755   23.4154 C   0  0  0  0  0  0  0  0  0  0  0  0
    9.5581  -18.8389   23.6341 O   0  0  0  0  0  0  0  0  0  0  0  0
   10.1324  -16.7285   22.9389 N   0  0  0  0  0  0  0  0  0  0  0  0
   11.5324  -17.0371   22.9895 C   0  0  1  0  0  0  0  0  0  0  0  0
   12.2895  -15.9260   22.2503 C   0  0  0  0  0  0  0  0  0  0  0  0
   12.3355  -16.3155   20.8137 C   0  0  0  0  0  0  0  0  0  0  0  0
   12.1369  -17.4944   20.4289 O   0  0  0  0  0  0  0  0  0  0  0  0
   12.0563  -17.0497   24.3870 C   0  0  0  0  0  0  0  0  0  0  0  0
   13.2876  -17.1626   24.6349 O   0  0  0  0  0  0  0  0  0  0  0  0
   12.6054  -15.3588   19.8496 O   0  0  0  0  0  0  0  0  0  0  0  0
    8.2586  -14.3439   29.3340 C   0  0  0  0  0  0  0  0  0  0  0  0
    9.6879  -13.9204   28.3054 S   0  0  0  0  0  0  0  0  0  0  0  0
   10.0585  -15.2267   27.1157 C   0  0  0  0  0  0  0  0  0  0  0  0
   10.6122  -16.4429   27.8307 C   0  0  0  0  0  0  0  0  0  0  0  0
   11.6665  -17.0281   26.8817 C   0  0  2  0  0  0  0  0  0  0  0  0
   11.1979  -16.9355   25.5142 N   0  0  0  0  0  0  0  0  0  0  0  0
   11.7782  -18.4681   27.2235 C   0  0  0  0  0  0  0  0  0  0  0  0
   11.2724  -19.4470   26.3711 O   0  0  0  0  0  0  0  0  0  0  0  0
   12.3261  -18.8831   28.2834 O   0  0  0  0  0  0  0  0  0  0  0  0
  2  1  1  1
  2  3  1  0
  4  3  1  0
  5  4  2  0
  6  5  1  0
  7  6  1  0
  7 12  2  0
  8  7  1  0
  9  8  2  0
  9 10  1  0
 10 11  2  0
 11 12  1  0
 12  4  1  0
 13  2  1  0
 14 13  2  0
 15 13  1  0
 16 15  1  0
 16 17  1  6
 17 18  1  0
 18 22  1  0
 19 18  2  0
 20 21  2  0
 20 16  1  0
 23 24  1  0
 24 25  1  0
 25 26  1  0
 27 26  1  1
 27 29  1  0
 27 28  1  0
 28 20  1  0
 29 30  1  0
 31 29  2  0
M  END
$$$$
