WDM.pdb
     RDKit          3D

 31 32  0  0  1  0  0  0  0  0999 V2000
    6.3696  -18.7393   21.9161 N   0  0  0  0  0  0  0  0  0  0  0  0
    7.1193  -17.4674   22.0276 C   0  0  1  0  0  0  0  0  0  0  0  0
    6.2906  -16.5188   22.8392 C   0  0  0  0  0  0  0  0  0  0  0  0
    6.7983  -15.1461   22.9600 C   0  0  0  0  0  0  0  0  0  0  0  0
    7.4763  -14.4111   21.9771 C   0  0  0  0  0  0  0  0  0  0  0  0
    7.8102  -13.2104   22.4444 N   0  0  0  0  0  0  0  0  0  0  0  0
    7.3771  -13.1050   23.7230 C   0  0  0  0  0  0  0  0  0  0  0  0
    7.4696  -12.0612   24.6209 C   0  0  0  0  0  0  0  0  0  0  0  0
    6.9296  -12.1871   25.8807 C   0  0  0  0  0  0  0  0  0  0  0  0
    6.2961  -13.3845   26.2158 C   0  0  0  0  0  0  0  0  0  0  0  0
    6.2134  -14.4104   25.3138 C   0  0  0  0  0  0  0  0  0  0  0  0
    6.7457  -14.3087   24.0492 C   0  0  0  0  0  0  0  0  0  0  0  0
    8.4722  -17.6707   22.5564 C   0  0  0  0  0  0  0  0  0  0  0  0
    8.6192  -18.3385   23.5982 O   0  0  0  0  0  0  0  0  0  0  0  0
    9.6476  -17.1379   21.9343 N   0  0  0  0  0  0  0  0  0  0  0  0
   10.9428  -17.4132   22.4861 C   0  0  1  0  0  0  0  0  0  0  0  0
   11.9974  -16.8671   21.5145 C   0  0  0  0  0  0  0  0  0  0  0  0
   13.2879  -17.5234   21.8630 C   0  0  0  0  0  0  0  0  0  0  0  0
   13.3697  -18.4326   22.7255 O   0  0  0  0  0  0  0  0  0  0  0  0
   11.1616  -16.7136   23.7862 C   0  0  0  0  0  0  0  0  0  0  0  0
   11.2868  -15.4606   23.8546 O   0  0  0  0  0  0  0  0  0  0  0  0
   14.4531  -17.1325   21.2249 O   0  0  0  0  0  0  0  0  0  0  0  0
    9.3356  -13.5032   30.0841 C   0  0  0  0  0  0  0  0  0  0  0  0
    9.0043  -14.3484   28.5169 S   0  0  0  0  0  0  0  0  0  0  0  0
   10.3872  -15.3998   28.0256 C   0  0  0  0  0  0  0  0  0  0  0  0
   10.1220  -16.0093   26.6636 C   0  0  0  0  0  0  0  0  0  0  0  0
   11.4068  -16.7649   26.2987 C   0  0  2  0  0  0  0  0  0  0  0  0
   11.2412  -17.4196   25.0173 N   0  0  0  0  0  0  0  0  0  0  0  0
   11.5722  -17.8222   27.3272 C   0  0  0  0  0  0  0  0  0  0  0  0
   11.6804  -19.1628   26.9641 O   0  0  0  0  0  0  0  0  0  0  0  0
   11.6236  -17.5758   28.5652 O   0  0  0  0  0  0  0  0  0  0  0  0
  2  1  1  1
  2  3  1  0
  4  3  1  0
  5  4  2  0
  6  5  1  0
  7  6  1  0
  7 12  2  0
  8  7  1  0
  9  8  2  0
  9 10  1  0
 10 11  2  0
 11 12  1  0
 12  4  1  0
 13  2  1  0
 14 13  2  0
 15 13  1  0
 16 15  1  0
 16 17  1  6
 17 18  1  0
 18 22  1  0
 19 18  2  0
 20 21  2  0
 20 16  1  0
 23 24  1  0
 24 25  1  0
 25 26  1  0
 27 26  1  1
 27 29  1  0
 27 28  1  0
 28 20  1  0
 29 30  1  0
 31 29  2  0
M  END
$$$$
