WDM.pdb
     RDKit          3D

 31 32  0  0  1  0  0  0  0  0999 V2000
    6.7205  -17.5318   24.0263 N   0  0  0  0  0  0  0  0  0  0  0  0
    7.8874  -16.6500   23.7958 C   0  0  1  0  0  0  0  0  0  0  0  0
    8.2619  -16.0357   25.1102 C   0  0  0  0  0  0  0  0  0  0  0  0
    7.3289  -15.0420   25.6569 C   0  0  0  0  0  0  0  0  0  0  0  0
    6.2497  -15.2868   26.5179 C   0  0  0  0  0  0  0  0  0  0  0  0
    5.6063  -14.1533   26.7880 N   0  0  0  0  0  0  0  0  0  0  0  0
    6.2187  -13.1384   26.1335 C   0  0  0  0  0  0  0  0  0  0  0  0
    5.9381  -11.7876   26.1045 C   0  0  0  0  0  0  0  0  0  0  0  0
    6.7275  -10.9363   25.3652 C   0  0  0  0  0  0  0  0  0  0  0  0
    7.8032  -11.4739   24.6572 C   0  0  0  0  0  0  0  0  0  0  0  0
    8.0677  -12.8160   24.6961 C   0  0  0  0  0  0  0  0  0  0  0  0
    7.2930  -13.6869   25.4271 C   0  0  0  0  0  0  0  0  0  0  0  0
    8.9911  -17.3583   23.1392 C   0  0  0  0  0  0  0  0  0  0  0  0
    9.1465  -18.5742   23.3633 O   0  0  0  0  0  0  0  0  0  0  0  0
    9.9112  -16.7223   22.2440 N   0  0  0  0  0  0  0  0  0  0  0  0
   11.3021  -17.0724   22.2713 C   0  0  1  0  0  0  0  0  0  0  0  0
   12.0277  -16.2121   21.2285 C   0  0  0  0  0  0  0  0  0  0  0  0
   12.6699  -17.1491   20.2656 C   0  0  0  0  0  0  0  0  0  0  0  0
   12.0954  -18.1855   19.8495 O   0  0  0  0  0  0  0  0  0  0  0  0
   11.9344  -16.7658   23.5880 C   0  0  0  0  0  0  0  0  0  0  0  0
   12.5847  -15.7028   23.7823 O   0  0  0  0  0  0  0  0  0  0  0  0
   13.9472  -16.8876   19.7987 O   0  0  0  0  0  0  0  0  0  0  0  0
    9.0238  -13.6251   27.9246 C   0  0  0  0  0  0  0  0  0  0  0  0
    9.6777  -15.2981   28.1562 S   0  0  0  0  0  0  0  0  0  0  0  0
   10.8435  -15.7405   26.8506 C   0  0  0  0  0  0  0  0  0  0  0  0
   11.3047  -17.1736   27.0256 C   0  0  0  0  0  0  0  0  0  0  0  0
   12.4203  -17.3714   25.9907 C   0  0  2  0  0  0  0  0  0  0  0  0
   11.8393  -17.6534   24.6941 N   0  0  0  0  0  0  0  0  0  0  0  0
   13.1740  -18.5762   26.4189 C   0  0  0  0  0  0  0  0  0  0  0  0
   14.0924  -18.5114   27.4644 O   0  0  0  0  0  0  0  0  0  0  0  0
   13.0313  -19.7068   25.8737 O   0  0  0  0  0  0  0  0  0  0  0  0
  2  1  1  1
  2  3  1  0
  4  3  1  0
  5  4  2  0
  6  5  1  0
  7  6  1  0
  7 12  2  0
  8  7  1  0
  9  8  2  0
  9 10  1  0
 10 11  2  0
 11 12  1  0
 12  4  1  0
 13  2  1  0
 14 13  2  0
 15 13  1  0
 16 15  1  0
 16 17  1  6
 17 18  1  0
 18 22  1  0
 19 18  2  0
 20 21  2  0
 20 16  1  0
 23 24  1  0
 24 25  1  0
 25 26  1  0
 27 26  1  1
 27 29  1  0
 27 28  1  0
 28 20  1  0
 29 30  1  0
 31 29  2  0
M  END
$$$$
