WDM.pdb
     RDKit          3D

 31 32  0  0  1  0  0  0  0  0999 V2000
    6.5950  -18.0345   25.0531 N   0  0  0  0  0  0  0  0  0  0  0  0
    7.6540  -17.1102   24.5879 C   0  0  1  0  0  0  0  0  0  0  0  0
    7.8374  -16.0595   25.6404 C   0  0  0  0  0  0  0  0  0  0  0  0
    7.1315  -14.7897   25.4263 C   0  0  0  0  0  0  0  0  0  0  0  0
    6.1306  -14.2371   26.2380 C   0  0  0  0  0  0  0  0  0  0  0  0
    5.6995  -13.0875   25.7240 N   0  0  0  0  0  0  0  0  0  0  0  0
    6.3809  -12.8391   24.5806 C   0  0  0  0  0  0  0  0  0  0  0  0
    6.3054  -11.7786   23.7008 C   0  0  0  0  0  0  0  0  0  0  0  0
    7.1266  -11.7404   22.5968 C   0  0  0  0  0  0  0  0  0  0  0  0
    8.0233  -12.7912   22.3987 C   0  0  0  0  0  0  0  0  0  0  0  0
    8.0853  -13.8358   23.2805 C   0  0  0  0  0  0  0  0  0  0  0  0
    7.2747  -13.8968   24.3906 C   0  0  0  0  0  0  0  0  0  0  0  0
    8.8897  -17.8196   24.2401 C   0  0  0  0  0  0  0  0  0  0  0  0
    9.1355  -18.9098   24.7912 O   0  0  0  0  0  0  0  0  0  0  0  0
    9.8407  -17.3228   23.2908 N   0  0  0  0  0  0  0  0  0  0  0  0
   11.2179  -17.7149   23.3776 C   0  0  1  0  0  0  0  0  0  0  0  0
   11.9853  -17.0004   22.2575 C   0  0  0  0  0  0  0  0  0  0  0  0
   13.3229  -17.6488   22.1675 C   0  0  0  0  0  0  0  0  0  0  0  0
   14.3637  -17.0081   21.8783 O   0  0  0  0  0  0  0  0  0  0  0  0
   11.8458  -17.2861   24.6619 C   0  0  0  0  0  0  0  0  0  0  0  0
   12.7228  -16.3809   24.7040 O   0  0  0  0  0  0  0  0  0  0  0  0
   13.4469  -19.0069   22.4077 O   0  0  0  0  0  0  0  0  0  0  0  0
    8.8836  -13.1815   27.6670 C   0  0  0  0  0  0  0  0  0  0  0  0
    9.4126  -14.7325   28.4382 S   0  0  0  0  0  0  0  0  0  0  0  0
   10.6907  -15.5549   27.4638 C   0  0  0  0  0  0  0  0  0  0  0  0
   11.0531  -16.8849   28.0937 C   0  0  0  0  0  0  0  0  0  0  0  0
   12.1066  -17.5019   27.1642 C   0  0  2  0  0  0  0  0  0  0  0  0
   11.4910  -17.8735   25.9068 N   0  0  0  0  0  0  0  0  0  0  0  0
   12.5656  -18.7479   27.8272 C   0  0  0  0  0  0  0  0  0  0  0  0
   13.3793  -18.6992   28.9570 O   0  0  0  0  0  0  0  0  0  0  0  0
   12.2532  -19.9010   27.4165 O   0  0  0  0  0  0  0  0  0  0  0  0
  2  1  1  1
  2  3  1  0
  4  3  1  0
  5  4  2  0
  6  5  1  0
  7  6  1  0
  7 12  2  0
  8  7  1  0
  9  8  2  0
  9 10  1  0
 10 11  2  0
 11 12  1  0
 12  4  1  0
 13  2  1  0
 14 13  2  0
 15 13  1  0
 16 15  1  0
 16 17  1  6
 17 18  1  0
 18 22  1  0
 19 18  2  0
 20 21  2  0
 20 16  1  0
 23 24  1  0
 24 25  1  0
 25 26  1  0
 27 26  1  1
 27 29  1  0
 27 28  1  0
 28 20  1  0
 29 30  1  0
 31 29  2  0
M  END
$$$$
