LGV.pdb
     RDKit          3D

 20 19  0  0  1  0  0  0  0  0999 V2000
   31.0051  -20.8875   -9.7943 C   0  0  0  0  0  0  0  0  0  0  0  0
   30.0287  -21.0117  -10.9450 C   0  0  1  0  0  0  0  0  0  0  0  0
   30.5043  -22.0690  -11.8979 C   0  0  0  0  0  0  0  0  0  0  0  0
   28.6319  -21.1843  -10.4740 C   0  0  0  0  0  0  0  0  0  0  0  0
   27.6032  -21.1713  -11.5714 C   0  0  2  0  0  0  0  0  0  0  0  0
   27.7577  -19.9342  -12.3024 N   0  0  0  0  0  0  0  0  0  0  0  0
   26.2166  -21.3053  -11.0211 C   0  0  0  0  0  0  0  0  0  0  0  0
   25.8459  -22.3833  -10.4944 O   0  0  0  0  0  0  0  0  0  0  0  0
   25.2813  -20.2367  -11.0722 N   0  0  0  0  0  0  0  0  0  0  0  0
   23.9300  -20.2972  -10.5658 C   0  0  0  0  0  0  0  0  0  0  0  0
   22.8722  -20.1285  -11.5460 C   0  0  0  0  0  0  0  0  0  0  0  0
   21.6815  -20.1576  -11.1369 O   0  0  0  0  0  0  0  0  0  0  0  0
   21.3190  -18.9547  -16.0823 C   0  0  0  0  0  0  0  0  0  0  0  0
   22.4607  -19.0647  -15.1010 C   0  0  2  0  0  0  0  0  0  0  0  0
   23.6111  -19.7909  -15.7429 C   0  0  0  0  0  0  0  0  0  0  0  0
   22.0083  -19.7529  -13.8289 C   0  0  2  0  0  0  0  0  0  0  0  0
   23.1047  -19.9389  -12.9155 N   0  0  0  0  0  0  0  0  0  0  0  0
   21.3309  -21.0299  -14.1598 C   0  0  0  0  0  0  0  0  0  0  0  0
   22.0509  -22.0481  -14.3207 O   0  0  0  0  0  0  0  0  0  0  0  0
   19.9664  -21.1727  -14.3023 O   0  0  0  0  0  0  0  0  0  0  0  0
  2  1  1  1
  3  2  1  0
  4  2  1  0
  5  4  1  0
  5  6  1  1
  7  5  1  0
  7  8  2  0
  9 10  1  0
  9  7  1  0
 10 11  1  0
 11 17  1  0
 11 12  2  0
 14 13  1  6
 14 15  1  0
 16 14  1  0
 16 17  1  1
 18 16  1  0
 18 20  1  0
 19 18  2  0
M  END
$$$$
