LGV.pdb
     RDKit          3D

 20 19  0  0  1  0  0  0  0  0999 V2000
   27.1082  -16.7638  -15.3478 C   0  0  0  0  0  0  0  0  0  0  0  0
   27.2493  -18.2695  -15.2709 C   0  0  1  0  0  0  0  0  0  0  0  0
   28.2494  -18.7348  -16.2883 C   0  0  0  0  0  0  0  0  0  0  0  0
   27.5116  -18.7342  -13.8859 C   0  0  0  0  0  0  0  0  0  0  0  0
   27.3886  -20.2217  -13.6991 C   0  0  2  0  0  0  0  0  0  0  0  0
   26.4622  -20.7133  -14.6934 N   0  0  0  0  0  0  0  0  0  0  0  0
   26.9278  -20.5615  -12.3150 C   0  0  0  0  0  0  0  0  0  0  0  0
   27.4879  -20.0454  -11.3167 O   0  0  0  0  0  0  0  0  0  0  0  0
   25.8570  -21.4658  -12.0804 N   0  0  0  0  0  0  0  0  0  0  0  0
   24.9183  -21.3681  -10.9870 C   0  0  0  0  0  0  0  0  0  0  0  0
   23.5209  -21.2276  -11.3553 C   0  0  0  0  0  0  0  0  0  0  0  0
   22.6881  -21.0205  -10.4336 O   0  0  0  0  0  0  0  0  0  0  0  0
   22.0503  -20.4258  -15.3309 C   0  0  0  0  0  0  0  0  0  0  0  0
   21.4632  -20.0204  -14.0007 C   0  0  2  0  0  0  0  0  0  0  0  0
   22.0797  -18.7246  -13.5496 C   0  0  0  0  0  0  0  0  0  0  0  0
   21.6584  -21.1171  -12.9731 C   0  0  2  0  0  0  0  0  0  0  0  0
   23.0524  -21.3124  -12.6739 N   0  0  0  0  0  0  0  0  0  0  0  0
   21.0038  -22.3645  -13.4363 C   0  0  0  0  0  0  0  0  0  0  0  0
   21.7427  -23.2871  -13.8650 O   0  0  0  0  0  0  0  0  0  0  0  0
   19.6411  -22.5777  -13.4273 O   0  0  0  0  0  0  0  0  0  0  0  0
  2  1  1  1
  3  2  1  0
  4  2  1  0
  5  4  1  0
  5  6  1  6
  7  5  1  0
  7  8  2  0
  9 10  1  0
  9  7  1  0
 10 11  1  0
 11 17  1  0
 11 12  2  0
 14 13  1  6
 14 15  1  0
 16 14  1  0
 16 17  1  6
 18 16  1  0
 18 20  1  0
 19 18  2  0
M  END
$$$$
