LGV.pdb
     RDKit          3D

 20 19  0  0  1  0  0  0  0  0999 V2000
   26.1965  -14.6159  -14.8481 C   0  0  0  0  0  0  0  0  0  0  0  0
   25.4873  -15.5971  -15.7576 C   0  0  1  0  0  0  0  0  0  0  0  0
   25.8356  -15.3021  -17.1871 C   0  0  0  0  0  0  0  0  0  0  0  0
   25.7122  -17.0042  -15.3422 C   0  0  0  0  0  0  0  0  0  0  0  0
   25.1430  -18.0265  -16.2875 C   0  0  2  0  0  0  0  0  0  0  0  0
   23.7053  -18.0054  -16.1421 N   0  0  0  0  0  0  0  0  0  0  0  0
   25.6950  -19.3914  -16.0120 C   0  0  0  0  0  0  0  0  0  0  0  0
   26.9360  -19.5829  -16.0052 O   0  0  0  0  0  0  0  0  0  0  0  0
   24.8512  -20.5047  -15.7518 N   0  0  0  0  0  0  0  0  0  0  0  0
   25.3091  -21.8050  -15.3208 C   0  0  0  0  0  0  0  0  0  0  0  0
   25.0216  -22.1591  -13.9423 C   0  0  0  0  0  0  0  0  0  0  0  0
   25.0818  -23.3758  -13.6231 O   0  0  0  0  0  0  0  0  0  0  0  0
   24.9401  -19.7392  -10.3163 C   0  0  0  0  0  0  0  0  0  0  0  0
   25.0315  -21.2293  -10.5400 C   0  0  2  0  0  0  0  0  0  0  0  0
   26.4650  -21.6179  -10.7780 C   0  0  0  0  0  0  0  0  0  0  0  0
   24.1415  -21.6530  -11.6911 C   0  0  2  0  0  0  0  0  0  0  0  0
   24.6800  -21.2243  -12.9548 N   0  0  0  0  0  0  0  0  0  0  0  0
   22.7618  -21.1559  -11.4714 C   0  0  0  0  0  0  0  0  0  0  0  0
   22.3203  -20.2882  -12.2671 O   0  0  0  0  0  0  0  0  0  0  0  0
   21.9340  -21.5821  -10.4538 O   0  0  0  0  0  0  0  0  0  0  0  0
  2  1  1  1
  3  2  1  0
  4  2  1  0
  5  4  1  0
  5  6  1  1
  7  5  1  0
  7  8  2  0
  9 10  1  0
  9  7  1  0
 10 11  1  0
 11 17  1  0
 11 12  2  0
 14 13  1  6
 14 15  1  0
 16 14  1  0
 16 17  1  6
 18 16  1  0
 18 20  1  0
 19 18  2  0
M  END
$$$$
