LGV.pdb
     RDKit          3D

 20 19  0  0  1  0  0  0  0  0999 V2000
   24.7561  -16.7785  -18.8554 C   0  0  0  0  0  0  0  0  0  0  0  0
   25.7556  -17.9156  -18.8877 C   0  0  1  0  0  0  0  0  0  0  0  0
   27.0507  -17.4322  -19.4718 C   0  0  0  0  0  0  0  0  0  0  0  0
   25.8815  -18.5839  -17.5685 C   0  0  0  0  0  0  0  0  0  0  0  0
   26.9323  -19.6591  -17.5178 C   0  0  2  0  0  0  0  0  0  0  0  0
   26.4916  -20.7431  -18.3659 N   0  0  0  0  0  0  0  0  0  0  0  0
   27.1644  -20.1295  -16.1148 C   0  0  0  0  0  0  0  0  0  0  0  0
   26.3609  -20.9287  -15.5739 O   0  0  0  0  0  0  0  0  0  0  0  0
   28.2836  -19.6977  -15.3530 N   0  0  0  0  0  0  0  0  0  0  0  0
   28.5490  -20.0805  -13.9858 C   0  0  0  0  0  0  0  0  0  0  0  0
   27.5100  -19.7670  -13.0213 C   0  0  0  0  0  0  0  0  0  0  0  0
   27.1662  -18.5617  -12.8985 O   0  0  0  0  0  0  0  0  0  0  0  0
   23.4969  -20.3509  -10.5994 C   0  0  0  0  0  0  0  0  0  0  0  0
   24.5128  -20.8109  -11.6168 C   0  0  2  0  0  0  0  0  0  0  0  0
   24.4542  -22.3082  -11.7486 C   0  0  0  0  0  0  0  0  0  0  0  0
   25.9020  -20.3395  -11.2366 C   0  0  2  0  0  0  0  0  0  0  0  0
   26.8752  -20.7286  -12.2226 N   0  0  0  0  0  0  0  0  0  0  0  0
   26.2484  -20.8319   -9.8814 C   0  0  0  0  0  0  0  0  0  0  0  0
   25.5709  -20.4021   -8.9133 O   0  0  0  0  0  0  0  0  0  0  0  0
   27.2624  -21.7281   -9.6148 O   0  0  0  0  0  0  0  0  0  0  0  0
  2  1  1  1
  3  2  1  0
  4  2  1  0
  5  4  1  0
  5  6  1  6
  7  5  1  0
  7  8  2  0
  9 10  1  0
  9  7  1  0
 10 11  1  0
 11 17  1  0
 11 12  2  0
 14 13  1  1
 14 15  1  0
 16 14  1  0
 16 17  1  6
 18 16  1  0
 18 20  1  0
 19 18  2  0
M  END
$$$$
