LGV.pdb
     RDKit          3D

 20 19  0  0  1  0  0  0  0  0999 V2000
   15.0326   -9.7585  -16.9813 C   0  0  0  0  0  0  0  0  0  0  0  0
   16.0231  -10.6083  -16.2133 C   0  0  1  0  0  0  0  0  0  0  0  0
   16.5690  -11.6808  -17.1098 C   0  0  0  0  0  0  0  0  0  0  0  0
   17.0536   -9.7848  -15.5330 C   0  0  0  0  0  0  0  0  0  0  0  0
   17.9073  -10.5457  -14.5559 C   0  0  2  0  0  0  0  0  0  0  0  0
   17.1147  -11.6382  -14.0394 N   0  0  0  0  0  0  0  0  0  0  0  0
   18.3932   -9.6595  -13.4504 C   0  0  0  0  0  0  0  0  0  0  0  0
   19.1183   -8.6670  -13.7069 O   0  0  0  0  0  0  0  0  0  0  0  0
   18.0590   -9.9024  -12.0907 N   0  0  0  0  0  0  0  0  0  0  0  0
   18.2602   -8.9646  -11.0108 C   0  0  0  0  0  0  0  0  0  0  0  0
   17.2160   -7.9734  -10.8226 C   0  0  0  0  0  0  0  0  0  0  0  0
   16.9429   -7.2160  -11.7910 O   0  0  0  0  0  0  0  0  0  0  0  0
   13.2650   -6.3307   -8.4216 C   0  0  0  0  0  0  0  0  0  0  0  0
   14.2695   -7.4157   -8.7256 C   0  0  2  0  0  0  0  0  0  0  0  0
   14.7411   -8.0423   -7.4420 C   0  0  0  0  0  0  0  0  0  0  0  0
   15.4266   -6.8627   -9.5330 C   0  0  2  0  0  0  0  0  0  0  0  0
   16.5021   -7.8141   -9.6265 N   0  0  0  0  0  0  0  0  0  0  0  0
   15.8698   -5.5694   -8.9586 C   0  0  0  0  0  0  0  0  0  0  0  0
   15.1645   -4.5549   -9.1914 O   0  0  0  0  0  0  0  0  0  0  0  0
   17.0021   -5.4076   -8.1878 O   0  0  0  0  0  0  0  0  0  0  0  0
  2  1  1  6
  3  2  1  0
  4  2  1  0
  5  4  1  0
  5  6  1  1
  7  5  1  0
  7  8  2  0
  9 10  1  0
  9  7  1  0
 10 11  1  0
 11 17  1  0
 11 12  2  0
 14 13  1  1
 14 15  1  0
 16 14  1  0
 16 17  1  1
 18 16  1  0
 18 20  1  0
 19 18  2  0
M  END
$$$$
