LGV.pdb
     RDKit          3D

 20 19  0  0  1  0  0  0  0  0999 V2000
   28.5844  -20.0054   -6.1480 C   0  0  0  0  0  0  0  0  0  0  0  0
   27.3346  -20.0293   -7.0026 C   0  0  1  0  0  0  0  0  0  0  0  0
   26.4306  -18.8992   -6.6057 C   0  0  0  0  0  0  0  0  0  0  0  0
   27.6516  -20.0903   -8.4513 C   0  0  0  0  0  0  0  0  0  0  0  0
   26.4449  -20.1749   -9.3453 C   0  0  2  0  0  0  0  0  0  0  0  0
   25.8136  -21.4534   -9.1098 N   0  0  0  0  0  0  0  0  0  0  0  0
   26.8210  -20.0142  -10.7863 C   0  0  0  0  0  0  0  0  0  0  0  0
   27.0176  -18.8702  -11.2654 O   0  0  0  0  0  0  0  0  0  0  0  0
   26.9677  -21.1302  -11.6535 N   0  0  0  0  0  0  0  0  0  0  0  0
   27.2712  -21.0462  -13.0631 C   0  0  0  0  0  0  0  0  0  0  0  0
   26.1340  -21.0860  -13.9650 C   0  0  0  0  0  0  0  0  0  0  0  0
   26.3416  -20.8458  -15.1838 O   0  0  0  0  0  0  0  0  0  0  0  0
   22.7216  -23.4283  -13.4642 C   0  0  0  0  0  0  0  0  0  0  0  0
   23.2707  -22.8339  -14.7385 C   0  0  2  0  0  0  0  0  0  0  0  0
   24.3751  -23.7068  -15.2688 C   0  0  0  0  0  0  0  0  0  0  0  0
   23.7467  -21.4142  -14.5051 C   0  0  2  0  0  0  0  0  0  0  0  0
   24.8251  -21.3733  -13.5531 N   0  0  0  0  0  0  0  0  0  0  0  0
   22.6052  -20.5602  -14.0970 C   0  0  0  0  0  0  0  0  0  0  0  0
   22.5561  -20.1851  -12.8979 O   0  0  0  0  0  0  0  0  0  0  0  0
   21.5968  -20.1518  -14.9449 O   0  0  0  0  0  0  0  0  0  0  0  0
  2  1  1  1
  3  2  1  0
  4  2  1  0
  5  4  1  0
  5  6  1  6
  7  5  1  0
  7  8  2  0
  9 10  1  0
  9  7  1  0
 10 11  1  0
 11 17  1  0
 11 12  2  0
 14 13  1  1
 14 15  1  0
 16 14  1  0
 16 17  1  1
 18 16  1  0
 18 20  1  0
 19 18  2  0
M  END
$$$$
