PFM.pdb
     RDKit          3D

 27 28  0  0  1  0  0  0  0  0999 V2000
    7.0337  -15.6892   21.0037 N   0  0  0  0  0  0  0  0  0  0  0  0
    6.1019  -14.6939   20.5741 C   0  0  0  0  0  0  0  0  0  0  0  0
    6.8865  -13.4122   20.6866 C   0  0  0  0  0  0  0  0  0  0  0  0
    8.2408  -13.8465   20.1115 C   0  0  0  0  0  0  0  0  0  0  0  0
    8.3592  -15.2423   20.7103 C   0  0  1  0  0  0  0  0  0  0  0  0
    9.2094  -15.1768   21.9328 C   0  0  0  0  0  0  0  0  0  0  0  0
   10.4021  -14.7968   21.8340 O   0  0  0  0  0  0  0  0  0  0  0  0
    8.7376  -15.5251   23.2172 N   0  0  0  0  0  0  0  0  0  0  0  0
    9.5721  -15.4932   24.3974 C   0  0  1  0  0  0  0  0  0  0  0  0
    8.6784  -15.0904   25.5316 C   0  0  0  0  0  0  0  0  0  0  0  0
    9.3182  -14.9023   26.8247 C   0  0  0  0  0  0  0  0  0  0  0  0
    9.5071  -15.9890   27.6514 C   0  0  0  0  0  0  0  0  0  0  0  0
   10.1122  -15.8663   28.8875 C   0  0  0  0  0  0  0  0  0  0  0  0
   10.5452  -14.6397   29.3260 C   0  0  0  0  0  0  0  0  0  0  0  0
   10.3658  -13.5201   28.5070 C   0  0  0  0  0  0  0  0  0  0  0  0
    9.7617  -13.6810   27.2878 C   0  0  0  0  0  0  0  0  0  0  0  0
   10.2081  -16.8003   24.6609 C   0  0  0  0  0  0  0  0  0  0  0  0
    9.4972  -17.8325   24.7639 O   0  0  0  0  0  0  0  0  0  0  0  0
   13.4132  -18.2043   20.4419 C   0  0  0  0  0  0  0  0  0  0  0  0
   14.6770  -18.1350   21.7423 S   0  0  0  0  0  0  0  0  0  0  0  0
   13.8501  -17.6403   23.2751 C   0  0  0  0  0  0  0  0  0  0  0  0
   12.9948  -18.7278   23.8453 C   0  0  0  0  0  0  0  0  0  0  0  0
   12.2379  -18.2739   25.0420 C   0  0  2  0  0  0  0  0  0  0  0  0
   11.6020  -16.9769   24.8096 N   0  0  0  0  0  0  0  0  0  0  0  0
   13.1301  -18.1200   26.1999 C   0  0  0  0  0  0  0  0  0  0  0  0
   13.7343  -19.1427   26.6467 O   0  0  0  0  0  0  0  0  0  0  0  0
   13.3408  -16.9110   26.8200 O   0  0  0  0  0  0  0  0  0  0  0  0
  1  5  1  0
  1  2  1  0
  2  3  1  0
  4  3  1  0
  5  4  1  0
  5  6  1  1
  7  6  2  0
  8  6  1  0
  9  8  1  0
 10 11  1  0
  9 10  1  1
 11 16  1  0
 11 12  2  0
 12 13  1  0
 13 14  2  0
 15 14  1  0
 16 15  2  0
 17 24  1  0
 17  9  1  0
 18 17  2  0
 20 19  1  0
 21 20  1  0
 22 21  1  0
 23 22  1  6
 23 24  1  0
 25 23  1  0
 26 25  2  0
 27 25  1  0
M  END
$$$$
