PFM.pdb
     RDKit          3D

 27 28  0  0  1  0  0  0  0  0999 V2000
    8.3277  -18.0783   19.4001 N   0  0  0  0  0  0  0  0  0  0  0  0
    7.4500  -17.9084   18.2847 C   0  0  0  0  0  0  0  0  0  0  0  0
    7.6205  -16.4545   17.9269 C   0  0  0  0  0  0  0  0  0  0  0  0
    9.1416  -16.2989   18.0509 C   0  0  0  0  0  0  0  0  0  0  0  0
    9.4046  -17.1450   19.2901 C   0  0  1  0  0  0  0  0  0  0  0  0
    9.4924  -16.2514   20.4799 C   0  0  0  0  0  0  0  0  0  0  0  0
   10.3958  -15.3808   20.5311 O   0  0  0  0  0  0  0  0  0  0  0  0
    8.5991  -16.3329   21.5704 N   0  0  0  0  0  0  0  0  0  0  0  0
    8.6741  -15.4545   22.7163 C   0  0  1  0  0  0  0  0  0  0  0  0
    7.2619  -15.0748   23.0461 C   0  0  0  0  0  0  0  0  0  0  0  0
    7.0819  -14.1540   24.1582 C   0  0  0  0  0  0  0  0  0  0  0  0
    7.5042  -12.8480   24.0312 C   0  0  0  0  0  0  0  0  0  0  0  0
    7.3540  -11.9321   25.0548 C   0  0  0  0  0  0  0  0  0  0  0  0
    6.7718  -12.3092   26.2394 C   0  0  0  0  0  0  0  0  0  0  0  0
    6.3344  -13.6287   26.3949 C   0  0  0  0  0  0  0  0  0  0  0  0
    6.5003  -14.5083   25.3577 C   0  0  0  0  0  0  0  0  0  0  0  0
    9.3325  -16.1033   23.8686 C   0  0  0  0  0  0  0  0  0  0  0  0
    8.7928  -17.0963   24.4199 O   0  0  0  0  0  0  0  0  0  0  0  0
    9.2402  -13.0986   28.6187 C   0  0  0  0  0  0  0  0  0  0  0  0
   10.2825  -14.3554   29.4107 S   0  0  0  0  0  0  0  0  0  0  0  0
   10.6129  -15.6397   28.1782 C   0  0  0  0  0  0  0  0  0  0  0  0
   10.2918  -15.1977   26.7850 C   0  0  0  0  0  0  0  0  0  0  0  0
   11.0164  -15.9994   25.7635 C   0  0  2  0  0  0  0  0  0  0  0  0
   10.5640  -15.6726   24.4111 N   0  0  0  0  0  0  0  0  0  0  0  0
   10.7857  -17.4370   25.9643 C   0  0  0  0  0  0  0  0  0  0  0  0
    9.6025  -17.8859   25.8685 O   0  0  0  0  0  0  0  0  0  0  0  0
   11.8006  -18.3197   26.2497 O   0  0  0  0  0  0  0  0  0  0  0  0
  1  5  1  0
  1  2  1  0
  2  3  1  0
  4  3  1  0
  5  4  1  0
  5  6  1  1
  7  6  2  0
  8  6  1  0
  9  8  1  0
 10 11  1  0
  9 10  1  1
 11 16  1  0
 11 12  2  0
 12 13  1  0
 13 14  2  0
 15 14  1  0
 16 15  2  0
 17 24  1  0
 17  9  1  0
 18 17  2  0
 20 19  1  0
 21 20  1  0
 22 21  1  0
 23 22  1  1
 23 24  1  0
 25 23  1  0
 26 25  2  0
 27 25  1  0
M  END
$$$$
