PFM.pdb
     RDKit          3D

 27 28  0  0  1  0  0  0  0  0999 V2000
    8.3034  -15.8944   18.8307 N   0  0  0  0  0  0  0  0  0  0  0  0
    7.4192  -15.3579   17.8440 C   0  0  0  0  0  0  0  0  0  0  0  0
    7.5663  -13.8683   18.0190 C   0  0  0  0  0  0  0  0  0  0  0  0
    9.0853  -13.7425   18.1928 C   0  0  0  0  0  0  0  0  0  0  0  0
    9.3656  -14.9653   19.0571 C   0  0  1  0  0  0  0  0  0  0  0  0
    9.4440  -14.5443   20.4848 C   0  0  0  0  0  0  0  0  0  0  0  0
   10.3249  -13.7217   20.8370 O   0  0  0  0  0  0  0  0  0  0  0  0
    8.5663  -15.0293   21.4788 N   0  0  0  0  0  0  0  0  0  0  0  0
    8.5477  -14.5163   22.8304 C   0  0  1  0  0  0  0  0  0  0  0  0
    7.1030  -14.3736   23.2044 C   0  0  0  0  0  0  0  0  0  0  0  0
    6.8180  -13.6003   24.4035 C   0  0  0  0  0  0  0  0  0  0  0  0
    6.1938  -14.2103   25.4703 C   0  0  0  0  0  0  0  0  0  0  0  0
    5.9034  -13.5231   26.6333 C   0  0  0  0  0  0  0  0  0  0  0  0
    6.2355  -12.1965   26.7531 C   0  0  0  0  0  0  0  0  0  0  0  0
    6.8695  -11.5529   25.6854 C   0  0  0  0  0  0  0  0  0  0  0  0
    7.1413  -12.2672   24.5483 C   0  0  0  0  0  0  0  0  0  0  0  0
    9.2540  -15.4098   23.7711 C   0  0  0  0  0  0  0  0  0  0  0  0
    9.2940  -16.6469   23.5486 O   0  0  0  0  0  0  0  0  0  0  0  0
   11.6604  -13.9834   30.1458 C   0  0  0  0  0  0  0  0  0  0  0  0
   10.8237  -15.5880   30.0094 S   0  0  0  0  0  0  0  0  0  0  0  0
   11.0599  -16.1793   28.3146 C   0  0  0  0  0  0  0  0  0  0  0  0
   10.3389  -15.3412   27.3061 C   0  0  0  0  0  0  0  0  0  0  0  0
   10.5284  -15.8473   25.9208 C   0  0  2  0  0  0  0  0  0  0  0  0
    9.9078  -14.9576   24.9392 N   0  0  0  0  0  0  0  0  0  0  0  0
    9.9134  -17.1723   25.7575 C   0  0  0  0  0  0  0  0  0  0  0  0
   10.6673  -18.1877   25.6519 O   0  0  0  0  0  0  0  0  0  0  0  0
    8.5519  -17.3595   25.7169 O   0  0  0  0  0  0  0  0  0  0  0  0
  1  5  1  0
  1  2  1  0
  2  3  1  0
  4  3  1  0
  5  4  1  0
  5  6  1  1
  7  6  2  0
  8  6  1  0
  9  8  1  0
 10 11  1  0
  9 10  1  1
 11 16  1  0
 11 12  2  0
 12 13  1  0
 13 14  2  0
 15 14  1  0
 16 15  2  0
 17 24  1  0
 17  9  1  0
 18 17  2  0
 20 19  1  0
 21 20  1  0
 22 21  1  0
 23 22  1  1
 23 24  1  0
 25 23  1  0
 26 25  2  0
 27 25  1  0
M  END
$$$$
