PFM.pdb
     RDKit          3D

 27 28  0  0  1  0  0  0  0  0999 V2000
    8.6071  -17.7233   19.5157 N   0  0  0  0  0  0  0  0  0  0  0  0
    7.7425  -17.6158   18.3825 C   0  0  0  0  0  0  0  0  0  0  0  0
    7.7640  -16.1422   18.0677 C   0  0  0  0  0  0  0  0  0  0  0  0
    9.2563  -15.8287   18.2358 C   0  0  0  0  0  0  0  0  0  0  0  0
    9.5798  -16.6775   19.4587 C   0  0  1  0  0  0  0  0  0  0  0  0
    9.5433  -15.8146   20.6735 C   0  0  0  0  0  0  0  0  0  0  0  0
   10.3454  -14.8535   20.7707 O   0  0  0  0  0  0  0  0  0  0  0  0
    8.6399  -16.0237   21.7384 N   0  0  0  0  0  0  0  0  0  0  0  0
    8.5923  -15.1751   22.9080 C   0  0  1  0  0  0  0  0  0  0  0  0
    7.1399  -14.9454   23.1999 C   0  0  0  0  0  0  0  0  0  0  0  0
    6.8334  -13.9530   24.2189 C   0  0  0  0  0  0  0  0  0  0  0  0
    6.2089  -14.3478   25.3826 C   0  0  0  0  0  0  0  0  0  0  0  0
    5.8986  -13.4471   26.3833 C   0  0  0  0  0  0  0  0  0  0  0  0
    6.2104  -12.1182   26.2378 C   0  0  0  0  0  0  0  0  0  0  0  0
    6.8443  -11.6905   25.0666 C   0  0  0  0  0  0  0  0  0  0  0  0
    7.1362  -12.6129   24.0965 C   0  0  0  0  0  0  0  0  0  0  0  0
    9.2760  -15.7885   24.0649 C   0  0  0  0  0  0  0  0  0  0  0  0
    9.3576  -17.0404   24.1517 O   0  0  0  0  0  0  0  0  0  0  0  0
   11.8007  -15.0708   31.4935 C   0  0  0  0  0  0  0  0  0  0  0  0
   11.0782  -14.1823   30.0857 S   0  0  0  0  0  0  0  0  0  0  0  0
   11.0584  -15.3217   28.6789 C   0  0  0  0  0  0  0  0  0  0  0  0
   10.4501  -14.7145   27.4540 C   0  0  0  0  0  0  0  0  0  0  0  0
   10.4748  -15.6475   26.2964 C   0  0  2  0  0  0  0  0  0  0  0  0
    9.8626  -15.0439   25.1127 N   0  0  0  0  0  0  0  0  0  0  0  0
    9.7248  -16.8755   26.5962 C   0  0  0  0  0  0  0  0  0  0  0  0
    8.4583  -16.8197   26.6550 O   0  0  0  0  0  0  0  0  0  0  0  0
   10.3384  -18.0866   26.8138 O   0  0  0  0  0  0  0  0  0  0  0  0
  1  5  1  0
  1  2  1  0
  2  3  1  0
  4  3  1  0
  5  4  1  0
  5  6  1  1
  7  6  2  0
  8  6  1  0
  9  8  1  0
 10 11  1  0
  9 10  1  1
 11 16  1  0
 11 12  2  0
 12 13  1  0
 13 14  2  0
 15 14  1  0
 16 15  2  0
 17 24  1  0
 17  9  1  0
 18 17  2  0
 20 19  1  0
 21 20  1  0
 22 21  1  0
 23 22  1  1
 23 24  1  0
 25 23  1  0
 26 25  2  0
 27 25  1  0
M  END
$$$$
