PFM.pdb
     RDKit          3D

 27 28  0  0  1  0  0  0  0  0999 V2000
    8.1604  -18.2262   20.1950 N   0  0  0  0  0  0  0  0  0  0  0  0
    7.3362  -18.1668   19.0287 C   0  0  0  0  0  0  0  0  0  0  0  0
    7.6684  -16.8212   18.4368 C   0  0  0  0  0  0  0  0  0  0  0  0
    9.1935  -16.7977   18.6009 C   0  0  0  0  0  0  0  0  0  0  0  0
    9.3322  -17.4374   19.9765 C   0  0  1  0  0  0  0  0  0  0  0  0
    9.4810  -16.3638   20.9997 C   0  0  0  0  0  0  0  0  0  0  0  0
   10.4624  -15.5832   20.9353 O   0  0  0  0  0  0  0  0  0  0  0  0
    8.5622  -16.1745   22.0550 N   0  0  0  0  0  0  0  0  0  0  0  0
    8.6495  -15.0721   22.9862 C   0  0  1  0  0  0  0  0  0  0  0  0
    7.2574  -14.8388   23.4909 C   0  0  0  0  0  0  0  0  0  0  0  0
    7.0842  -13.7392   24.4279 C   0  0  0  0  0  0  0  0  0  0  0  0
    6.4572  -13.9693   25.6337 C   0  0  0  0  0  0  0  0  0  0  0  0
    6.2703  -12.9616   26.5605 C   0  0  0  0  0  0  0  0  0  0  0  0
    6.7120  -11.6891   26.2959 C   0  0  0  0  0  0  0  0  0  0  0  0
    7.3515  -11.4280   25.0797 C   0  0  0  0  0  0  0  0  0  0  0  0
    7.5188  -12.4527   24.1857 C   0  0  0  0  0  0  0  0  0  0  0  0
    9.5768  -15.3603   24.0995 C   0  0  0  0  0  0  0  0  0  0  0  0
   10.2345  -14.4255   24.6239 O   0  0  0  0  0  0  0  0  0  0  0  0
   10.5296  -14.4546   29.9359 C   0  0  0  0  0  0  0  0  0  0  0  0
    9.2779  -14.2707   28.6348 S   0  0  0  0  0  0  0  0  0  0  0  0
    9.9925  -14.9154   27.1013 C   0  0  0  0  0  0  0  0  0  0  0  0
    9.9889  -16.4108   27.0480 C   0  0  0  0  0  0  0  0  0  0  0  0
   10.6165  -16.9271   25.8027 C   0  0  2  0  0  0  0  0  0  0  0  0
    9.7824  -16.6526   24.6326 N   0  0  0  0  0  0  0  0  0  0  0  0
   10.8018  -18.3835   25.8733 C   0  0  0  0  0  0  0  0  0  0  0  0
   11.6143  -18.8561   26.7259 O   0  0  0  0  0  0  0  0  0  0  0  0
   10.1282  -19.2587   25.0542 O   0  0  0  0  0  0  0  0  0  0  0  0
  1  5  1  0
  1  2  1  0
  2  3  1  0
  4  3  1  0
  5  4  1  0
  5  6  1  1
  7  6  2  0
  8  6  1  0
  9  8  1  0
 10 11  1  0
  9 10  1  1
 11 16  1  0
 11 12  2  0
 12 13  1  0
 13 14  2  0
 15 14  1  0
 16 15  2  0
 17 24  1  0
 17  9  1  0
 18 17  2  0
 20 19  1  0
 21 20  1  0
 22 21  1  0
 23 22  1  1
 23 24  1  0
 25 23  1  0
 26 25  2  0
 27 25  1  0
M  END
$$$$
