PFM.pdb
     RDKit          3D

 27 28  0  0  1  0  0  0  0  0999 V2000
    8.4534  -15.5920   18.6980 N   0  0  0  0  0  0  0  0  0  0  0  0
    7.6208  -14.9458   17.7324 C   0  0  0  0  0  0  0  0  0  0  0  0
    7.7666  -13.4845   18.0705 C   0  0  0  0  0  0  0  0  0  0  0  0
    9.2760  -13.3929   18.3290 C   0  0  0  0  0  0  0  0  0  0  0  0
    9.5079  -14.7025   19.0718 C   0  0  1  0  0  0  0  0  0  0  0  0
    9.5189  -14.4350   20.5381 C   0  0  0  0  0  0  0  0  0  0  0  0
   10.4020  -13.6839   21.0206 O   0  0  0  0  0  0  0  0  0  0  0  0
    8.5738  -14.9901   21.4282 N   0  0  0  0  0  0  0  0  0  0  0  0
    8.5691  -14.7094   22.8465 C   0  0  1  0  0  0  0  0  0  0  0  0
    7.1593  -14.3377   23.1952 C   0  0  0  0  0  0  0  0  0  0  0  0
    6.9434  -13.7965   24.5285 C   0  0  0  0  0  0  0  0  0  0  0  0
    7.2202  -12.4686   24.7734 C   0  0  0  0  0  0  0  0  0  0  0  0
    7.0298  -11.9037   26.0199 C   0  0  0  0  0  0  0  0  0  0  0  0
    6.5531  -12.6651   27.0580 C   0  0  0  0  0  0  0  0  0  0  0  0
    6.2641  -14.0156   26.8368 C   0  0  0  0  0  0  0  0  0  0  0  0
    6.4657  -14.5403   25.5873 C   0  0  0  0  0  0  0  0  0  0  0  0
    9.0249  -15.8682   23.6414 C   0  0  0  0  0  0  0  0  0  0  0  0
    9.0156  -17.0182   23.1328 O   0  0  0  0  0  0  0  0  0  0  0  0
   10.3714  -13.1306   28.5763 C   0  0  0  0  0  0  0  0  0  0  0  0
   10.8929  -14.7677   29.1604 S   0  0  0  0  0  0  0  0  0  0  0  0
   10.3791  -15.9761   27.9139 C   0  0  0  0  0  0  0  0  0  0  0  0
   11.2199  -15.9213   26.6772 C   0  0  0  0  0  0  0  0  0  0  0  0
   10.5627  -16.5927   25.5246 C   0  0  2  0  0  0  0  0  0  0  0  0
    9.4845  -15.7714   24.9739 N   0  0  0  0  0  0  0  0  0  0  0  0
    9.9692  -17.8740   25.9325 C   0  0  0  0  0  0  0  0  0  0  0  0
   10.7318  -18.7908   26.3666 O   0  0  0  0  0  0  0  0  0  0  0  0
    8.6183  -18.1216   25.8662 O   0  0  0  0  0  0  0  0  0  0  0  0
  1  5  1  0
  1  2  1  0
  2  3  1  0
  4  3  1  0
  5  4  1  0
  5  6  1  1
  7  6  2  0
  8  6  1  0
  9  8  1  0
 10 11  1  0
  9 10  1  1
 11 16  1  0
 11 12  2  0
 12 13  1  0
 13 14  2  0
 15 14  1  0
 16 15  2  0
 17 24  1  0
 17  9  1  0
 18 17  2  0
 20 19  1  0
 21 20  1  0
 22 21  1  0
 23 22  1  1
 23 24  1  0
 25 23  1  0
 26 25  2  0
 27 25  1  0
M  END
$$$$
