PFM.pdb
     RDKit          3D

 27 28  0  0  1  0  0  0  0  0999 V2000
    8.6048  -17.6129   19.1454 N   0  0  0  0  0  0  0  0  0  0  0  0
    7.9002  -17.3063   17.9401 C   0  0  0  0  0  0  0  0  0  0  0  0
    8.1568  -15.8331   17.7529 C   0  0  0  0  0  0  0  0  0  0  0  0
    9.6480  -15.7489   18.1031 C   0  0  0  0  0  0  0  0  0  0  0  0
    9.7096  -16.7159   19.2786 C   0  0  1  0  0  0  0  0  0  0  0  0
    9.6489  -15.9407   20.5501 C   0  0  0  0  0  0  0  0  0  0  0  0
   10.5840  -15.1531   20.8367 O   0  0  0  0  0  0  0  0  0  0  0  0
    8.5785  -16.0463   21.4648 N   0  0  0  0  0  0  0  0  0  0  0  0
    8.5295  -15.3089   22.7075 C   0  0  1  0  0  0  0  0  0  0  0  0
    7.0786  -15.0584   22.9890 C   0  0  0  0  0  0  0  0  0  0  0  0
    6.7768  -14.2442   24.1565 C   0  0  0  0  0  0  0  0  0  0  0  0
    7.0852  -12.9008   24.1435 C   0  0  0  0  0  0  0  0  0  0  0  0
    6.8167  -12.0823   25.2238 C   0  0  0  0  0  0  0  0  0  0  0  0
    6.2277  -12.5977   26.3516 C   0  0  0  0  0  0  0  0  0  0  0  0
    5.9044  -13.9579   26.3914 C   0  0  0  0  0  0  0  0  0  0  0  0
    6.1858  -14.7380   25.3008 C   0  0  0  0  0  0  0  0  0  0  0  0
    9.1654  -16.0499   23.8161 C   0  0  0  0  0  0  0  0  0  0  0  0
    9.3066  -17.2968   23.7352 O   0  0  0  0  0  0  0  0  0  0  0  0
   11.1549  -13.2620   29.3536 C   0  0  0  0  0  0  0  0  0  0  0  0
   11.3992  -14.9877   29.8594 S   0  0  0  0  0  0  0  0  0  0  0  0
   11.1898  -16.0184   28.3858 C   0  0  0  0  0  0  0  0  0  0  0  0
   10.5379  -15.2839   27.2566 C   0  0  0  0  0  0  0  0  0  0  0  0
   10.3114  -16.1602   26.0768 C   0  0  2  0  0  0  0  0  0  0  0  0
    9.6404  -15.4364   24.9969 N   0  0  0  0  0  0  0  0  0  0  0  0
    9.4591  -17.3047   26.4292 C   0  0  0  0  0  0  0  0  0  0  0  0
    8.2015  -17.1932   26.3009 O   0  0  0  0  0  0  0  0  0  0  0  0
    9.9680  -18.4958   26.8907 O   0  0  0  0  0  0  0  0  0  0  0  0
  1  5  1  0
  1  2  1  0
  2  3  1  0
  4  3  1  0
  5  4  1  0
  5  6  1  1
  7  6  2  0
  8  6  1  0
  9  8  1  0
 10 11  1  0
  9 10  1  1
 11 16  1  0
 11 12  2  0
 12 13  1  0
 13 14  2  0
 15 14  1  0
 16 15  2  0
 17 24  1  0
 17  9  1  0
 18 17  2  0
 20 19  1  0
 21 20  1  0
 22 21  1  0
 23 22  1  1
 23 24  1  0
 25 23  1  0
 26 25  2  0
 27 25  1  0
M  END
$$$$
