PFM.pdb
     RDKit          3D

 27 28  0  0  1  0  0  0  0  0999 V2000
    8.5440  -18.2376   19.8753 N   0  0  0  0  0  0  0  0  0  0  0  0
    7.6212  -18.2647   18.7839 C   0  0  0  0  0  0  0  0  0  0  0  0
    7.6656  -16.8538   18.2564 C   0  0  0  0  0  0  0  0  0  0  0  0
    9.1730  -16.5719   18.3008 C   0  0  0  0  0  0  0  0  0  0  0  0
    9.5402  -17.2459   19.6168 C   0  0  1  0  0  0  0  0  0  0  0  0
    9.5946  -16.2156   20.6926 C   0  0  0  0  0  0  0  0  0  0  0  0
   10.5192  -15.3661   20.6858 O   0  0  0  0  0  0  0  0  0  0  0  0
    8.6462  -16.1427   21.7361 N   0  0  0  0  0  0  0  0  0  0  0  0
    8.6632  -15.1063   22.7440 C   0  0  1  0  0  0  0  0  0  0  0  0
    7.2667  -15.0225   23.2823 C   0  0  0  0  0  0  0  0  0  0  0  0
    7.0179  -13.9927   24.2797 C   0  0  0  0  0  0  0  0  0  0  0  0
    7.3149  -12.6792   23.9856 C   0  0  0  0  0  0  0  0  0  0  0  0
    7.0950  -11.6625   24.8950 C   0  0  0  0  0  0  0  0  0  0  0  0
    6.5678  -11.9432   26.1310 C   0  0  0  0  0  0  0  0  0  0  0  0
    6.2576  -13.2678   26.4555 C   0  0  0  0  0  0  0  0  0  0  0  0
    6.4894  -14.2490   25.5277 C   0  0  0  0  0  0  0  0  0  0  0  0
    9.6311  -15.3980   23.8213 C   0  0  0  0  0  0  0  0  0  0  0  0
   10.4971  -14.5412   24.1331 O   0  0  0  0  0  0  0  0  0  0  0  0
   10.6047  -13.1716   27.9842 C   0  0  0  0  0  0  0  0  0  0  0  0
   10.5458  -14.5696   29.1399 S   0  0  0  0  0  0  0  0  0  0  0  0
   10.6112  -16.0882   28.1563 C   0  0  0  0  0  0  0  0  0  0  0  0
    9.8015  -15.9972   26.9012 C   0  0  0  0  0  0  0  0  0  0  0  0
   10.3922  -16.7974   25.7958 C   0  0  2  0  0  0  0  0  0  0  0  0
    9.6521  -16.6096   24.5479 N   0  0  0  0  0  0  0  0  0  0  0  0
   10.3577  -18.2327   26.1107 C   0  0  0  0  0  0  0  0  0  0  0  0
    9.4705  -18.9575   25.5646 O   0  0  0  0  0  0  0  0  0  0  0  0
   11.2500  -18.8261   26.9722 O   0  0  0  0  0  0  0  0  0  0  0  0
  1  5  1  0
  1  2  1  0
  2  3  1  0
  4  3  1  0
  5  4  1  0
  5  6  1  1
  7  6  2  0
  8  6  1  0
  9  8  1  0
 10 11  1  0
  9 10  1  1
 11 16  1  0
 11 12  2  0
 12 13  1  0
 13 14  2  0
 15 14  1  0
 16 15  2  0
 17 24  1  0
 17  9  1  0
 18 17  2  0
 20 19  1  0
 21 20  1  0
 22 21  1  0
 23 22  1  1
 23 24  1  0
 25 23  1  0
 26 25  2  0
 27 25  1  0
M  END
$$$$
