PFM.pdb
     RDKit          3D

 27 28  0  0  1  0  0  0  0  0999 V2000
    8.6088  -15.9109   18.9558 N   0  0  0  0  0  0  0  0  0  0  0  0
    7.6531  -15.4530   17.9966 C   0  0  0  0  0  0  0  0  0  0  0  0
    7.5201  -13.9854   18.3122 C   0  0  0  0  0  0  0  0  0  0  0  0
    8.9874  -13.6012   18.5423 C   0  0  0  0  0  0  0  0  0  0  0  0
    9.4780  -14.8293   19.2985 C   0  0  1  0  0  0  0  0  0  0  0  0
    9.4594  -14.5401   20.7605 C   0  0  0  0  0  0  0  0  0  0  0  0
   10.1702  -13.6093   21.2135 O   0  0  0  0  0  0  0  0  0  0  0  0
    8.6721  -15.2688   21.6786 N   0  0  0  0  0  0  0  0  0  0  0  0
    8.6468  -14.9813   23.0953 C   0  0  1  0  0  0  0  0  0  0  0  0
    7.2007  -14.9385   23.4882 C   0  0  0  0  0  0  0  0  0  0  0  0
    6.8477  -14.0188   24.5591 C   0  0  0  0  0  0  0  0  0  0  0  0
    6.1182  -14.4792   25.6341 C   0  0  0  0  0  0  0  0  0  0  0  0
    5.7596  -13.6492   26.6790 C   0  0  0  0  0  0  0  0  0  0  0  0
    6.1281  -12.3269   26.6686 C   0  0  0  0  0  0  0  0  0  0  0  0
    6.8688  -11.8335   25.5895 C   0  0  0  0  0  0  0  0  0  0  0  0
    7.2058  -12.6868   24.5719 C   0  0  0  0  0  0  0  0  0  0  0  0
    9.3802  -15.9962   23.8791 C   0  0  0  0  0  0  0  0  0  0  0  0
    9.9760  -16.9328   23.2880 O   0  0  0  0  0  0  0  0  0  0  0  0
   11.7101  -12.6868   28.6940 C   0  0  0  0  0  0  0  0  0  0  0  0
   10.4287  -13.8812   28.2202 S   0  0  0  0  0  0  0  0  0  0  0  0
   11.2552  -15.4561   27.8817 C   0  0  0  0  0  0  0  0  0  0  0  0
   10.2954  -16.5425   27.5105 C   0  0  0  0  0  0  0  0  0  0  0  0
   10.3470  -16.8619   26.0592 C   0  0  2  0  0  0  0  0  0  0  0  0
    9.4615  -15.9878   25.2897 N   0  0  0  0  0  0  0  0  0  0  0  0
    9.9166  -18.2452   25.8107 C   0  0  0  0  0  0  0  0  0  0  0  0
   10.7958  -19.1587   25.7549 O   0  0  0  0  0  0  0  0  0  0  0  0
    8.5976  -18.5933   25.6383 O   0  0  0  0  0  0  0  0  0  0  0  0
  1  5  1  0
  1  2  1  0
  2  3  1  0
  4  3  1  0
  5  4  1  0
  5  6  1  1
  7  6  2  0
  8  6  1  0
  9  8  1  0
 10 11  1  0
  9 10  1  1
 11 16  1  0
 11 12  2  0
 12 13  1  0
 13 14  2  0
 15 14  1  0
 16 15  2  0
 17 24  1  0
 17  9  1  0
 18 17  2  0
 20 19  1  0
 21 20  1  0
 22 21  1  0
 23 22  1  1
 23 24  1  0
 25 23  1  0
 26 25  2  0
 27 25  1  0
M  END
$$$$
