PFM.pdb
     RDKit          3D

 27 28  0  0  1  0  0  0  0  0999 V2000
    8.5305  -17.4053   19.0310 N   0  0  0  0  0  0  0  0  0  0  0  0
    7.7255  -16.9967   17.9228 C   0  0  0  0  0  0  0  0  0  0  0  0
    7.9661  -15.5109   17.8479 C   0  0  0  0  0  0  0  0  0  0  0  0
    9.4819  -15.4479   18.0758 C   0  0  0  0  0  0  0  0  0  0  0  0
    9.6432  -16.5162   19.1498 C   0  0  1  0  0  0  0  0  0  0  0  0
    9.6921  -15.8588   20.4866 C   0  0  0  0  0  0  0  0  0  0  0  0
   10.6303  -15.0667   20.7497 O   0  0  0  0  0  0  0  0  0  0  0  0
    8.7238  -16.0827   21.4895 N   0  0  0  0  0  0  0  0  0  0  0  0
    8.7726  -15.4462   22.7867 C   0  0  1  0  0  0  0  0  0  0  0  0
    7.3717  -15.0083   23.0915 C   0  0  0  0  0  0  0  0  0  0  0  0
    7.2050  -14.1170   24.2295 C   0  0  0  0  0  0  0  0  0  0  0  0
    6.6888  -14.6123   25.4077 C   0  0  0  0  0  0  0  0  0  0  0  0
    6.5133  -13.8102   26.5190 C   0  0  0  0  0  0  0  0  0  0  0  0
    6.8546  -12.4814   26.4728 C   0  0  0  0  0  0  0  0  0  0  0  0
    7.3806  -11.9529   25.2894 C   0  0  0  0  0  0  0  0  0  0  0  0
    7.5401  -12.7792   24.2082 C   0  0  0  0  0  0  0  0  0  0  0  0
    9.2834  -16.3574   23.8313 C   0  0  0  0  0  0  0  0  0  0  0  0
    9.0859  -17.5953   23.7327 O   0  0  0  0  0  0  0  0  0  0  0  0
    9.3599  -13.4058   29.2721 C   0  0  0  0  0  0  0  0  0  0  0  0
   10.7729  -13.8088   28.2071 S   0  0  0  0  0  0  0  0  0  0  0  0
   10.7670  -15.6017   27.9553 C   0  0  0  0  0  0  0  0  0  0  0  0
   11.6106  -16.0232   26.7935 C   0  0  0  0  0  0  0  0  0  0  0  0
   10.8333  -16.7988   25.7908 C   0  0  2  0  0  0  0  0  0  0  0  0
   10.0002  -15.9215   24.9682 N   0  0  0  0  0  0  0  0  0  0  0  0
    9.9362  -17.7583   26.4503 C   0  0  0  0  0  0  0  0  0  0  0  0
   10.4436  -18.7090   27.1206 O   0  0  0  0  0  0  0  0  0  0  0  0
    8.5663  -17.6680   26.3742 O   0  0  0  0  0  0  0  0  0  0  0  0
  1  5  1  0
  1  2  1  0
  2  3  1  0
  4  3  1  0
  5  4  1  0
  5  6  1  1
  7  6  2  0
  8  6  1  0
  9  8  1  0
 10 11  1  0
  9 10  1  1
 11 16  1  0
 11 12  2  0
 12 13  1  0
 13 14  2  0
 15 14  1  0
 16 15  2  0
 17 24  1  0
 17  9  1  0
 18 17  2  0
 20 19  1  0
 21 20  1  0
 22 21  1  0
 23 22  1  1
 23 24  1  0
 25 23  1  0
 26 25  2  0
 27 25  1  0
M  END
$$$$
