LWW.pdb
     RDKit          3D

 37 40  0  0  1  0  0  0  0  0999 V2000
   31.0675  -24.9918  -16.8774 C   0  0  0  0  0  0  0  0  0  0  0  0
   30.9484  -23.8346  -17.8536 C   0  0  2  0  0  0  0  0  0  0  0  0
   32.2829  -23.4277  -18.3838 C   0  0  0  0  0  0  0  0  0  0  0  0
   30.1024  -22.7134  -17.3467 C   0  0  0  0  0  0  0  0  0  0  0  0
   28.7830  -23.1339  -16.7497 C   0  0  2  0  0  0  0  0  0  0  0  0
   27.8208  -23.5209  -17.7318 N   0  0  0  0  0  0  0  0  0  0  0  0
   28.2725  -21.9509  -15.9983 C   0  0  0  0  0  0  0  0  0  0  0  0
   28.4557  -20.7784  -16.4603 O   0  0  0  0  0  0  0  0  0  0  0  0
   27.5743  -22.0324  -14.7655 N   0  0  0  0  0  0  0  0  0  0  0  0
   26.8691  -20.8826  -14.2020 C   0  0  1  0  0  0  0  0  0  0  0  0
   25.7975  -20.4207  -15.1648 C   0  0  0  0  0  0  0  0  0  0  0  0
   25.1766  -19.1386  -14.7819 C   0  0  0  0  0  0  0  0  0  0  0  0
   23.8858  -18.9274  -14.3069 C   0  0  0  0  0  0  0  0  0  0  0  0
   23.7222  -17.6223  -14.1185 N   0  0  0  0  0  0  0  0  0  0  0  0
   24.8459  -16.9380  -14.4440 C   0  0  0  0  0  0  0  0  0  0  0  0
   25.1523  -15.5927  -14.4017 C   0  0  0  0  0  0  0  0  0  0  0  0
   26.4048  -15.1638  -14.7813 C   0  0  0  0  0  0  0  0  0  0  0  0
   27.3354  -16.0725  -15.1969 C   0  0  0  0  0  0  0  0  0  0  0  0
   27.0002  -17.4008  -15.2277 C   0  0  0  0  0  0  0  0  0  0  0  0
   25.7530  -17.8888  -14.8578 C   0  0  0  0  0  0  0  0  0  0  0  0
   26.4338  -21.0758  -12.8190 C   0  0  0  0  0  0  0  0  0  0  0  0
   25.7239  -22.0652  -12.4814 O   0  0  0  0  0  0  0  0  0  0  0  0
   26.7712  -20.1800  -11.7546 N   0  0  0  0  0  0  0  0  0  0  0  0
   26.4535  -20.5359  -10.3699 C   0  0  1  0  0  0  0  0  0  0  0  0
   27.2587  -19.6754   -9.4139 C   0  0  0  0  0  0  0  0  0  0  0  0
   26.9900  -20.1140   -8.0312 C   0  0  0  0  0  0  0  0  0  0  0  0
   25.9738  -20.9846   -7.6390 C   0  0  0  0  0  0  0  0  0  0  0  0
   26.0372  -21.1400   -6.3084 N   0  0  0  0  0  0  0  0  0  0  0  0
   27.0510  -20.4125   -5.7889 C   0  0  0  0  0  0  0  0  0  0  0  0
   27.5249  -20.2367   -4.5089 C   0  0  0  0  0  0  0  0  0  0  0  0
   28.6071  -19.4117   -4.2919 C   0  0  0  0  0  0  0  0  0  0  0  0
   29.1830  -18.7859   -5.3675 C   0  0  0  0  0  0  0  0  0  0  0  0
   28.7286  -18.9449   -6.6562 C   0  0  0  0  0  0  0  0  0  0  0  0
   27.6488  -19.7698   -6.8654 C   0  0  0  0  0  0  0  0  0  0  0  0
   25.0205  -20.3328  -10.1243 C   0  0  0  0  0  0  0  0  0  0  0  0
   24.3232  -21.1352   -9.2357 O   0  0  0  0  0  0  0  0  0  0  0  0
   24.3779  -19.4277  -10.7092 O   0  0  0  0  0  0  0  0  0  0  0  0
  2  1  1  1
  2  3  1  0
  4  2  1  0
  5  4  1  0
  5  6  1  6
  7  5  1  0
  7  8  2  0
  9  7  1  0
 10 21  1  0
 10  9  1  0
 10 11  1  6
 12 20  1  0
 12 11  1  0
 13 12  2  0
 14 13  1  0
 14 15  1  0
 15 16  1  0
 15 20  2  0
 16 17  2  0
 17 18  1  0
 19 18  2  0
 20 19  1  0
 21 22  2  0
 23 24  1  0
 23 21  1  0
 24 25  1  1
 25 26  1  0
 26 34  1  0
 26 27  2  0
 27 28  1  0
 28 29  1  0
 29 30  2  0
 31 30  1  0
 32 31  2  0
 33 34  2  0
 33 32  1  0
 34 29  1  0
 35 24  1  0
 36 35  1  0
 37 35  2  0
M  END
$$$$
