LWW.pdb
     RDKit          3D

 37 40  0  0  1  0  0  0  0  0999 V2000
   25.7319  -24.9742  -18.5131 C   0  0  0  0  0  0  0  0  0  0  0  0
   26.1754  -23.5229  -18.4565 C   0  0  2  0  0  0  0  0  0  0  0  0
   26.8706  -23.1149  -19.7126 C   0  0  0  0  0  0  0  0  0  0  0  0
   26.8920  -23.1686  -17.1952 C   0  0  0  0  0  0  0  0  0  0  0  0
   26.2327  -23.6604  -15.9314 C   0  0  2  0  0  0  0  0  0  0  0  0
   24.8297  -23.8831  -16.0806 N   0  0  0  0  0  0  0  0  0  0  0  0
   26.4575  -22.5998  -14.9071 C   0  0  0  0  0  0  0  0  0  0  0  0
   27.6443  -22.2467  -14.6093 O   0  0  0  0  0  0  0  0  0  0  0  0
   25.4160  -21.9300  -14.2138 N   0  0  0  0  0  0  0  0  0  0  0  0
   25.6893  -20.8385  -13.2807 C   0  0  1  0  0  0  0  0  0  0  0  0
   24.7861  -19.6652  -13.5910 C   0  0  0  0  0  0  0  0  0  0  0  0
   25.3181  -18.7756  -14.6404 C   0  0  0  0  0  0  0  0  0  0  0  0
   24.6034  -17.9157  -15.4689 C   0  0  0  0  0  0  0  0  0  0  0  0
   25.4622  -17.3270  -16.2943 N   0  0  0  0  0  0  0  0  0  0  0  0
   26.7291  -17.7488  -16.0620 C   0  0  0  0  0  0  0  0  0  0  0  0
   27.9347  -17.4153  -16.6457 C   0  0  0  0  0  0  0  0  0  0  0  0
   29.0985  -17.9955  -16.1920 C   0  0  0  0  0  0  0  0  0  0  0  0
   29.0519  -18.8967  -15.1673 C   0  0  0  0  0  0  0  0  0  0  0  0
   27.8395  -19.2067  -14.6091 C   0  0  0  0  0  0  0  0  0  0  0  0
   26.6355  -18.6537  -15.0274 C   0  0  0  0  0  0  0  0  0  0  0  0
   25.7245  -21.2541  -11.8787 C   0  0  0  0  0  0  0  0  0  0  0  0
   24.9851  -22.1829  -11.4457 O   0  0  0  0  0  0  0  0  0  0  0  0
   26.5837  -20.6573  -10.9016 N   0  0  0  0  0  0  0  0  0  0  0  0
   26.3703  -20.9257   -9.4776 C   0  0  1  0  0  0  0  0  0  0  0  0
   27.4820  -20.2976   -8.6576 C   0  0  0  0  0  0  0  0  0  0  0  0
   27.1940  -20.4989   -7.2249 C   0  0  0  0  0  0  0  0  0  0  0  0
   26.1788  -21.3020   -6.7063 C   0  0  0  0  0  0  0  0  0  0  0  0
   26.2212  -21.2294   -5.3678 N   0  0  0  0  0  0  0  0  0  0  0  0
   27.2200  -20.4132   -4.9638 C   0  0  0  0  0  0  0  0  0  0  0  0
   27.6709  -20.0181   -3.7250 C   0  0  0  0  0  0  0  0  0  0  0  0
   28.7422  -19.1563   -3.6345 C   0  0  0  0  0  0  0  0  0  0  0  0
   29.3306  -18.7150   -4.7918 C   0  0  0  0  0  0  0  0  0  0  0  0
   28.8993  -19.0948   -6.0416 C   0  0  0  0  0  0  0  0  0  0  0  0
   27.8302  -19.9552   -6.1245 C   0  0  0  0  0  0  0  0  0  0  0  0
   25.0777  -20.3698   -9.0588 C   0  0  0  0  0  0  0  0  0  0  0  0
   24.1944  -21.1079   -8.2876 O   0  0  0  0  0  0  0  0  0  0  0  0
   24.7278  -19.2097   -9.3838 O   0  0  0  0  0  0  0  0  0  0  0  0
  2  1  1  6
  2  3  1  0
  4  2  1  0
  5  4  1  0
  5  6  1  6
  7  5  1  0
  7  8  2  0
  9  7  1  0
 10 21  1  0
 10  9  1  0
 10 11  1  1
 12 20  1  0
 12 11  1  0
 13 12  2  0
 14 13  1  0
 14 15  1  0
 15 16  1  0
 15 20  2  0
 16 17  2  0
 17 18  1  0
 19 18  2  0
 20 19  1  0
 21 22  2  0
 23 24  1  0
 23 21  1  0
 24 25  1  1
 25 26  1  0
 26 34  1  0
 26 27  2  0
 27 28  1  0
 28 29  1  0
 29 30  2  0
 31 30  1  0
 32 31  2  0
 33 34  2  0
 33 32  1  0
 34 29  1  0
 35 24  1  0
 36 35  1  0
 37 35  2  0
M  END
$$$$
