LWW.pdb
     RDKit          3D

 37 40  0  0  1  0  0  0  0  0999 V2000
   25.6867  -15.4703  -14.7070 C   0  0  0  0  0  0  0  0  0  0  0  0
   26.1494  -16.4218  -15.7964 C   0  0  2  0  0  0  0  0  0  0  0  0
   25.3700  -16.2316  -17.0549 C   0  0  0  0  0  0  0  0  0  0  0  0
   26.2708  -17.8376  -15.3375 C   0  0  0  0  0  0  0  0  0  0  0  0
   26.7802  -18.0063  -13.9283 C   0  0  2  0  0  0  0  0  0  0  0  0
   28.1636  -17.6786  -13.7889 N   0  0  0  0  0  0  0  0  0  0  0  0
   26.5764  -19.4429  -13.5832 C   0  0  0  0  0  0  0  0  0  0  0  0
   27.2348  -20.3428  -14.1983 O   0  0  0  0  0  0  0  0  0  0  0  0
   25.6743  -19.9017  -12.5883 N   0  0  0  0  0  0  0  0  0  0  0  0
   25.4967  -21.3250  -12.3068 C   0  0  1  0  0  0  0  0  0  0  0  0
   25.2180  -21.5218  -10.8329 C   0  0  0  0  0  0  0  0  0  0  0  0
   26.3169  -21.0656   -9.9612 C   0  0  0  0  0  0  0  0  0  0  0  0
   26.2466  -20.1578   -8.9087 C   0  0  0  0  0  0  0  0  0  0  0  0
   27.4696  -20.0026   -8.4132 N   0  0  0  0  0  0  0  0  0  0  0  0
   28.3674  -20.7660   -9.0825 C   0  0  0  0  0  0  0  0  0  0  0  0
   29.7269  -20.9451   -8.9238 C   0  0  0  0  0  0  0  0  0  0  0  0
   30.4037  -21.8146   -9.7501 C   0  0  0  0  0  0  0  0  0  0  0  0
   29.7252  -22.4942  -10.7207 C   0  0  0  0  0  0  0  0  0  0  0  0
   28.3760  -22.2943  -10.8527 C   0  0  0  0  0  0  0  0  0  0  0  0
   27.6436  -21.4294  -10.0489 C   0  0  0  0  0  0  0  0  0  0  0  0
   24.5715  -21.9970  -13.2190 C   0  0  0  0  0  0  0  0  0  0  0  0
   23.4168  -21.5371  -13.4468 O   0  0  0  0  0  0  0  0  0  0  0  0
   24.8919  -23.2051  -13.9170 N   0  0  0  0  0  0  0  0  0  0  0  0
   23.8938  -23.8368  -14.7830 C   0  0  1  0  0  0  0  0  0  0  0  0
   24.5388  -24.9401  -15.6012 C   0  0  0  0  0  0  0  0  0  0  0  0
   23.5139  -25.5614  -16.4612 C   0  0  0  0  0  0  0  0  0  0  0  0
   22.8129  -26.7317  -16.1723 C   0  0  0  0  0  0  0  0  0  0  0  0
   21.9761  -26.9879  -17.1886 N   0  0  0  0  0  0  0  0  0  0  0  0
   22.0837  -26.0417  -18.1478 C   0  0  0  0  0  0  0  0  0  0  0  0
   21.4569  -25.8518  -19.3581 C   0  0  0  0  0  0  0  0  0  0  0  0
   21.7878  -24.7602  -20.1312 C   0  0  0  0  0  0  0  0  0  0  0  0
   22.7398  -23.8897  -19.6665 C   0  0  0  0  0  0  0  0  0  0  0  0
   23.3807  -24.0568  -18.4608 C   0  0  0  0  0  0  0  0  0  0  0  0
   23.0453  -25.1479  -17.6944 C   0  0  0  0  0  0  0  0  0  0  0  0
   22.8149  -24.4010  -13.9629 C   0  0  0  0  0  0  0  0  0  0  0  0
   21.5309  -24.5428  -14.4639 O   0  0  0  0  0  0  0  0  0  0  0  0
   23.0167  -24.7736  -12.7820 O   0  0  0  0  0  0  0  0  0  0  0  0
  2  1  1  1
  2  3  1  0
  4  2  1  0
  5  4  1  0
  5  6  1  6
  7  5  1  0
  7  8  2  0
  9  7  1  0
 10 21  1  0
 10  9  1  0
 10 11  1  1
 12 20  1  0
 12 11  1  0
 13 12  2  0
 14 13  1  0
 14 15  1  0
 15 16  1  0
 15 20  2  0
 16 17  2  0
 17 18  1  0
 19 18  2  0
 20 19  1  0
 21 22  2  0
 23 24  1  0
 23 21  1  0
 24 25  1  1
 25 26  1  0
 26 34  1  0
 26 27  2  0
 27 28  1  0
 28 29  1  0
 29 30  2  0
 31 30  1  0
 32 31  2  0
 33 34  2  0
 33 32  1  0
 34 29  1  0
 35 24  1  0
 36 35  1  0
 37 35  2  0
M  END
$$$$
