LWW.pdb
     RDKit          3D

 37 40  0  0  1  0  0  0  0  0999 V2000
   31.0201  -18.4071  -19.1991 C   0  0  0  0  0  0  0  0  0  0  0  0
   30.3888  -17.1501  -18.6267 C   0  0  2  0  0  0  0  0  0  0  0  0
   31.3774  -16.0359  -18.5341 C   0  0  0  0  0  0  0  0  0  0  0  0
   29.5961  -17.3949  -17.3851 C   0  0  0  0  0  0  0  0  0  0  0  0
   28.7764  -18.6606  -17.3949 C   0  0  2  0  0  0  0  0  0  0  0  0
   27.8850  -18.7430  -18.5080 N   0  0  0  0  0  0  0  0  0  0  0  0
   27.9864  -18.6524  -16.1299 C   0  0  0  0  0  0  0  0  0  0  0  0
   28.5766  -18.4824  -15.0143 O   0  0  0  0  0  0  0  0  0  0  0  0
   26.5791  -18.8256  -16.0699 N   0  0  0  0  0  0  0  0  0  0  0  0
   25.8403  -18.6998  -14.8149 C   0  0  1  0  0  0  0  0  0  0  0  0
   24.7704  -17.6399  -14.9578 C   0  0  0  0  0  0  0  0  0  0  0  0
   25.3082  -16.2976  -15.2489 C   0  0  0  0  0  0  0  0  0  0  0  0
   26.0993  -15.5017  -14.4259 C   0  0  0  0  0  0  0  0  0  0  0  0
   26.3322  -14.3561  -15.0575 N   0  0  0  0  0  0  0  0  0  0  0  0
   25.7345  -14.3395  -16.2737 C   0  0  0  0  0  0  0  0  0  0  0  0
   25.7062  -13.3902  -17.2755 C   0  0  0  0  0  0  0  0  0  0  0  0
   25.0214  -13.6469  -18.4425 C   0  0  0  0  0  0  0  0  0  0  0  0
   24.3753  -14.8393  -18.6011 C   0  0  0  0  0  0  0  0  0  0  0  0
   24.4223  -15.7608  -17.5879 C   0  0  0  0  0  0  0  0  0  0  0  0
   25.0958  -15.5546  -16.3904 C   0  0  0  0  0  0  0  0  0  0  0  0
   25.3923  -19.9778  -14.2620 C   0  0  0  0  0  0  0  0  0  0  0  0
   24.8022  -20.8369  -14.9766 O   0  0  0  0  0  0  0  0  0  0  0  0
   25.5837  -20.3548  -12.8943 N   0  0  0  0  0  0  0  0  0  0  0  0
   25.1300  -21.6663  -12.4261 C   0  0  1  0  0  0  0  0  0  0  0  0
   26.0932  -22.2094  -11.3869 C   0  0  0  0  0  0  0  0  0  0  0  0
   26.1867  -21.2490  -10.2710 C   0  0  0  0  0  0  0  0  0  0  0  0
   25.1574  -20.4209   -9.8247 C   0  0  0  0  0  0  0  0  0  0  0  0
   25.6171  -19.6847   -8.8023 N   0  0  0  0  0  0  0  0  0  0  0  0
   26.9098  -19.9813   -8.5417 C   0  0  0  0  0  0  0  0  0  0  0  0
   27.8140  -19.5177   -7.6135 C   0  0  0  0  0  0  0  0  0  0  0  0
   29.0925  -20.0314   -7.5944 C   0  0  0  0  0  0  0  0  0  0  0  0
   29.4269  -20.9968   -8.5089 C   0  0  0  0  0  0  0  0  0  0  0  0
   28.5421  -21.4770   -9.4464 C   0  0  0  0  0  0  0  0  0  0  0  0
   27.2681  -20.9603   -9.4595 C   0  0  0  0  0  0  0  0  0  0  0  0
   23.7908  -21.5441  -11.8373 C   0  0  0  0  0  0  0  0  0  0  0  0
   22.9964  -22.6586  -11.6221 O   0  0  0  0  0  0  0  0  0  0  0  0
   23.3193  -20.4287  -11.5092 O   0  0  0  0  0  0  0  0  0  0  0  0
  2  1  1  1
  2  3  1  0
  4  2  1  0
  5  4  1  0
  5  6  1  6
  7  5  1  0
  7  8  2  0
  9  7  1  0
 10 21  1  0
 10  9  1  0
 10 11  1  6
 12 20  1  0
 12 11  1  0
 13 12  2  0
 14 13  1  0
 14 15  1  0
 15 16  1  0
 15 20  2  0
 16 17  2  0
 17 18  1  0
 19 18  2  0
 20 19  1  0
 21 22  2  0
 23 24  1  0
 23 21  1  0
 24 25  1  1
 25 26  1  0
 26 34  1  0
 26 27  2  0
 27 28  1  0
 28 29  1  0
 29 30  2  0
 31 30  1  0
 32 31  2  0
 33 34  2  0
 33 32  1  0
 34 29  1  0
 35 24  1  0
 36 35  1  0
 37 35  2  0
M  END
$$$$
