LWW.pdb
     RDKit          3D

 37 40  0  0  1  0  0  0  0  0999 V2000
   18.7954  -17.2377  -15.1794 C   0  0  0  0  0  0  0  0  0  0  0  0
   19.3629  -18.3439  -16.0515 C   0  0  2  0  0  0  0  0  0  0  0  0
   18.2799  -19.1866  -16.6383 C   0  0  0  0  0  0  0  0  0  0  0  0
   20.4717  -19.1041  -15.4015 C   0  0  0  0  0  0  0  0  0  0  0  0
   21.5179  -18.2505  -14.7302 C   0  0  2  0  0  0  0  0  0  0  0  0
   22.1334  -17.3158  -15.6179 N   0  0  0  0  0  0  0  0  0  0  0  0
   22.5515  -19.1928  -14.2121 C   0  0  0  0  0  0  0  0  0  0  0  0
   22.1956  -20.2432  -13.5862 O   0  0  0  0  0  0  0  0  0  0  0  0
   23.9494  -19.0037  -14.3671 N   0  0  0  0  0  0  0  0  0  0  0  0
   24.9201  -19.9509  -13.8219 C   0  0  1  0  0  0  0  0  0  0  0  0
   26.0442  -20.1556  -14.8134 C   0  0  0  0  0  0  0  0  0  0  0  0
   27.0704  -21.1083  -14.3498 C   0  0  0  0  0  0  0  0  0  0  0  0
   27.0445  -22.4967  -14.4402 C   0  0  0  0  0  0  0  0  0  0  0  0
   28.1476  -22.9695  -13.8701 N   0  0  0  0  0  0  0  0  0  0  0  0
   28.9220  -21.9628  -13.3972 C   0  0  0  0  0  0  0  0  0  0  0  0
   30.1431  -21.9618  -12.7534 C   0  0  0  0  0  0  0  0  0  0  0  0
   30.7253  -20.7671  -12.3920 C   0  0  0  0  0  0  0  0  0  0  0  0
   30.0907  -19.5913  -12.6733 C   0  0  0  0  0  0  0  0  0  0  0  0
   28.8794  -19.6261  -13.3131 C   0  0  0  0  0  0  0  0  0  0  0  0
   28.2461  -20.8009  -13.6991 C   0  0  0  0  0  0  0  0  0  0  0  0
   25.3344  -19.6499  -12.4517 C   0  0  0  0  0  0  0  0  0  0  0  0
   25.5602  -18.4652  -12.0744 O   0  0  0  0  0  0  0  0  0  0  0  0
   25.5122  -20.6515  -11.4445 N   0  0  0  0  0  0  0  0  0  0  0  0
   26.3522  -20.3747  -10.2771 C   0  0  1  0  0  0  0  0  0  0  0  0
   25.5392  -19.6709   -9.2064 C   0  0  0  0  0  0  0  0  0  0  0  0
   26.4482  -19.2061   -8.1416 C   0  0  0  0  0  0  0  0  0  0  0  0
   27.1311  -17.9904   -8.1309 C   0  0  0  0  0  0  0  0  0  0  0  0
   27.8639  -17.9243   -7.0097 N   0  0  0  0  0  0  0  0  0  0  0  0
   27.7038  -19.0417   -6.2662 C   0  0  0  0  0  0  0  0  0  0  0  0
   28.2212  -19.4519   -5.0588 C   0  0  0  0  0  0  0  0  0  0  0  0
   27.8559  -20.6766   -4.5435 C   0  0  0  0  0  0  0  0  0  0  0  0
   26.9807  -21.4552   -5.2561 C   0  0  0  0  0  0  0  0  0  0  0  0
   26.4495  -21.0683   -6.4647 C   0  0  0  0  0  0  0  0  0  0  0  0
   26.8180  -19.8451   -6.9727 C   0  0  0  0  0  0  0  0  0  0  0  0
   26.8833  -21.6340   -9.7413 C   0  0  0  0  0  0  0  0  0  0  0  0
   28.1987  -21.7366   -9.3182 O   0  0  0  0  0  0  0  0  0  0  0  0
   26.1667  -22.6596   -9.6479 O   0  0  0  0  0  0  0  0  0  0  0  0
  2  1  1  1
  2  3  1  0
  4  2  1  0
  5  4  1  0
  5  6  1  6
  7  5  1  0
  7  8  2  0
  9  7  1  0
 10 21  1  0
 10  9  1  0
 10 11  1  6
 12 20  1  0
 12 11  1  0
 13 12  2  0
 14 13  1  0
 14 15  1  0
 15 16  1  0
 15 20  2  0
 16 17  2  0
 17 18  1  0
 19 18  2  0
 20 19  1  0
 21 22  2  0
 23 24  1  0
 23 21  1  0
 24 25  1  1
 25 26  1  0
 26 34  1  0
 26 27  2  0
 27 28  1  0
 28 29  1  0
 29 30  2  0
 31 30  1  0
 32 31  2  0
 33 34  2  0
 33 32  1  0
 34 29  1  0
 35 24  1  0
 36 35  1  0
 37 35  2  0
M  END
$$$$
