LWW.pdb
     RDKit          3D

 37 40  0  0  1  0  0  0  0  0999 V2000
   26.9386  -26.9373  -18.1405 C   0  0  0  0  0  0  0  0  0  0  0  0
   26.5170  -26.4127  -16.7792 C   0  0  2  0  0  0  0  0  0  0  0  0
   25.6346  -27.3844  -16.0688 C   0  0  0  0  0  0  0  0  0  0  0  0
   26.0101  -25.0086  -16.8136 C   0  0  0  0  0  0  0  0  0  0  0  0
   26.9459  -24.0116  -17.4494 C   0  0  2  0  0  0  0  0  0  0  0  0
   28.3097  -24.2007  -17.0691 N   0  0  0  0  0  0  0  0  0  0  0  0
   26.4891  -22.6665  -16.9951 C   0  0  0  0  0  0  0  0  0  0  0  0
   25.2593  -22.4706  -16.7286 O   0  0  0  0  0  0  0  0  0  0  0  0
   27.3476  -21.5484  -16.8312 N   0  0  0  0  0  0  0  0  0  0  0  0
   26.8413  -20.2437  -16.4092 C   0  0  1  0  0  0  0  0  0  0  0  0
   27.9584  -19.4449  -15.7746 C   0  0  0  0  0  0  0  0  0  0  0  0
   27.5726  -18.0622  -15.4353 C   0  0  0  0  0  0  0  0  0  0  0  0
   26.9914  -17.6067  -14.2557 C   0  0  0  0  0  0  0  0  0  0  0  0
   26.7751  -16.3014  -14.3778 N   0  0  0  0  0  0  0  0  0  0  0  0
   27.1849  -15.8503  -15.5883 C   0  0  0  0  0  0  0  0  0  0  0  0
   27.1779  -14.5917  -16.1551 C   0  0  0  0  0  0  0  0  0  0  0  0
   27.6837  -14.4093  -17.4231 C   0  0  0  0  0  0  0  0  0  0  0  0
   28.1891  -15.4749  -18.1111 C   0  0  0  0  0  0  0  0  0  0  0  0
   28.1815  -16.7115  -17.5207 C   0  0  0  0  0  0  0  0  0  0  0  0
   27.6832  -16.9533  -16.2465 C   0  0  0  0  0  0  0  0  0  0  0  0
   26.0736  -19.5458  -17.4403 C   0  0  0  0  0  0  0  0  0  0  0  0
   25.2368  -18.6457  -17.1461 O   0  0  0  0  0  0  0  0  0  0  0  0
   26.2058  -19.8171  -18.8397 N   0  0  0  0  0  0  0  0  0  0  0  0
   25.4211  -19.0516  -19.8110 C   0  0  1  0  0  0  0  0  0  0  0  0
   25.8647  -19.3920  -21.2218 C   0  0  0  0  0  0  0  0  0  0  0  0
   25.2255  -18.4549  -22.1649 C   0  0  0  0  0  0  0  0  0  0  0  0
   25.5851  -17.1208  -22.3524 C   0  0  0  0  0  0  0  0  0  0  0  0
   24.7768  -16.5890  -23.2811 N   0  0  0  0  0  0  0  0  0  0  0  0
   23.8898  -17.5067  -23.7262 C   0  0  0  0  0  0  0  0  0  0  0  0
   22.8763  -17.4635  -24.6562 C   0  0  0  0  0  0  0  0  0  0  0  0
   22.1281  -18.5948  -24.8993 C   0  0  0  0  0  0  0  0  0  0  0  0
   22.4190  -19.7383  -24.2007 C   0  0  0  0  0  0  0  0  0  0  0  0
   23.4262  -19.8075  -23.2663 C   0  0  0  0  0  0  0  0  0  0  0  0
   24.1690  -18.6752  -23.0291 C   0  0  0  0  0  0  0  0  0  0  0  0
   23.9964  -19.3691  -19.6547 C   0  0  0  0  0  0  0  0  0  0  0  0
   23.5652  -20.6758  -19.4931 O   0  0  0  0  0  0  0  0  0  0  0  0
   23.1209  -18.4704  -19.6622 O   0  0  0  0  0  0  0  0  0  0  0  0
  2  1  1  6
  2  3  1  0
  4  2  1  0
  5  4  1  0
  5  6  1  1
  7  5  1  0
  7  8  2  0
  9  7  1  0
 10 21  1  0
 10  9  1  0
 10 11  1  6
 12 20  1  0
 12 11  1  0
 13 12  2  0
 14 13  1  0
 14 15  1  0
 15 16  1  0
 15 20  2  0
 16 17  2  0
 17 18  1  0
 19 18  2  0
 20 19  1  0
 21 22  2  0
 23 24  1  0
 23 21  1  0
 24 25  1  6
 25 26  1  0
 26 34  1  0
 26 27  2  0
 27 28  1  0
 28 29  1  0
 29 30  2  0
 31 30  1  0
 32 31  2  0
 33 34  2  0
 33 32  1  0
 34 29  1  0
 35 24  1  0
 36 35  1  0
 37 35  2  0
M  END
$$$$
