LWW.pdb
     RDKit          3D

 37 40  0  0  1  0  0  0  0  0999 V2000
   28.8796  -19.7131  -16.8152 C   0  0  0  0  0  0  0  0  0  0  0  0
   28.9137  -21.0647  -16.1238 C   0  0  2  0  0  0  0  0  0  0  0  0
   29.3616  -22.1428  -17.0538 C   0  0  0  0  0  0  0  0  0  0  0  0
   27.6709  -21.3711  -15.3548 C   0  0  0  0  0  0  0  0  0  0  0  0
   27.2643  -20.3142  -14.3590 C   0  0  2  0  0  0  0  0  0  0  0  0
   28.3732  -19.7430  -13.6630 N   0  0  0  0  0  0  0  0  0  0  0  0
   26.3638  -20.9908  -13.3813 C   0  0  0  0  0  0  0  0  0  0  0  0
   25.6924  -22.0122  -13.7386 O   0  0  0  0  0  0  0  0  0  0  0  0
   26.1901  -20.5704  -12.0370 N   0  0  0  0  0  0  0  0  0  0  0  0
   25.0464  -21.0032  -11.2361 C   0  0  1  0  0  0  0  0  0  0  0  0
   25.4465  -21.0851   -9.7795 C   0  0  0  0  0  0  0  0  0  0  0  0
   26.9063  -21.1279   -9.5727 C   0  0  0  0  0  0  0  0  0  0  0  0
   27.8601  -21.7538  -10.3698 C   0  0  0  0  0  0  0  0  0  0  0  0
   29.0504  -21.5788   -9.8059 N   0  0  0  0  0  0  0  0  0  0  0  0
   28.9469  -20.8608   -8.6611 C   0  0  0  0  0  0  0  0  0  0  0  0
   29.8937  -20.4248   -7.7560 C   0  0  0  0  0  0  0  0  0  0  0  0
   29.5053  -19.6800   -6.6647 C   0  0  0  0  0  0  0  0  0  0  0  0
   28.1859  -19.3774   -6.4853 C   0  0  0  0  0  0  0  0  0  0  0  0
   27.2706  -19.8251   -7.4015 C   0  0  0  0  0  0  0  0  0  0  0  0
   27.6056  -20.5802   -8.5186 C   0  0  0  0  0  0  0  0  0  0  0  0
   23.8168  -20.2605  -11.5118 C   0  0  0  0  0  0  0  0  0  0  0  0
   23.8407  -19.0398  -11.8377 O   0  0  0  0  0  0  0  0  0  0  0  0
   22.5113  -20.8436  -11.4394 N   0  0  0  0  0  0  0  0  0  0  0  0
   21.5370  -20.5914  -12.5035 C   0  0  1  0  0  0  0  0  0  0  0  0
   22.1088  -21.0158  -13.8436 C   0  0  0  0  0  0  0  0  0  0  0  0
   21.1732  -20.6174  -14.9123 C   0  0  0  0  0  0  0  0  0  0  0  0
   20.6106  -19.3510  -15.0678 C   0  0  0  0  0  0  0  0  0  0  0  0
   19.8077  -19.3715  -16.1419 N   0  0  0  0  0  0  0  0  0  0  0  0
   19.8059  -20.5956  -16.7152 C   0  0  0  0  0  0  0  0  0  0  0  0
   19.1650  -21.1199  -17.8144 C   0  0  0  0  0  0  0  0  0  0  0  0
   19.3733  -22.4380  -18.1582 C   0  0  0  0  0  0  0  0  0  0  0  0
   20.2197  -23.1927  -17.3874 C   0  0  0  0  0  0  0  0  0  0  0  0
   20.8720  -22.6926  -16.2843 C   0  0  0  0  0  0  0  0  0  0  0  0
   20.6600  -21.3767  -15.9474 C   0  0  0  0  0  0  0  0  0  0  0  0
   20.3062  -21.3449  -12.2345 C   0  0  0  0  0  0  0  0  0  0  0  0
   19.0829  -20.7047  -12.1183 O   0  0  0  0  0  0  0  0  0  0  0  0
   20.3183  -22.5923  -12.1005 O   0  0  0  0  0  0  0  0  0  0  0  0
  2  1  1  6
  2  3  1  0
  4  2  1  0
  5  4  1  0
  5  6  1  1
  7  5  1  0
  7  8  2  0
  9  7  1  0
 10 21  1  0
 10  9  1  0
 10 11  1  1
 12 20  1  0
 12 11  1  0
 13 12  2  0
 14 13  1  0
 14 15  1  0
 15 16  1  0
 15 20  2  0
 16 17  2  0
 17 18  1  0
 19 18  2  0
 20 19  1  0
 21 22  2  0
 23 24  1  0
 23 21  1  0
 24 25  1  6
 25 26  1  0
 26 34  1  0
 26 27  2  0
 27 28  1  0
 28 29  1  0
 29 30  2  0
 31 30  1  0
 32 31  2  0
 33 34  2  0
 33 32  1  0
 34 29  1  0
 35 24  1  0
 36 35  1  0
 37 35  2  0
M  END
$$$$
