LWW.pdb
     RDKit          3D

 37 40  0  0  1  0  0  0  0  0999 V2000
   28.8373  -20.6594  -16.4678 C   0  0  0  0  0  0  0  0  0  0  0  0
   29.3827  -21.4527  -15.2933 C   0  0  2  0  0  0  0  0  0  0  0  0
   30.1611  -22.6410  -15.7513 C   0  0  0  0  0  0  0  0  0  0  0  0
   28.3618  -21.7348  -14.2407 C   0  0  0  0  0  0  0  0  0  0  0  0
   27.6348  -20.5205  -13.7203 C   0  0  2  0  0  0  0  0  0  0  0  0
   28.5149  -19.5016  -13.2430 N   0  0  0  0  0  0  0  0  0  0  0  0
   26.7795  -20.9997  -12.5963 C   0  0  0  0  0  0  0  0  0  0  0  0
   26.0189  -22.0074  -12.7628 O   0  0  0  0  0  0  0  0  0  0  0  0
   26.7455  -20.3994  -11.3108 N   0  0  0  0  0  0  0  0  0  0  0  0
   25.6625  -20.6641  -10.3654 C   0  0  1  0  0  0  0  0  0  0  0  0
   26.0597  -20.1811   -8.9878 C   0  0  0  0  0  0  0  0  0  0  0  0
   27.3927  -20.6482   -8.5631 C   0  0  0  0  0  0  0  0  0  0  0  0
   28.2620  -21.4842   -9.2575 C   0  0  0  0  0  0  0  0  0  0  0  0
   29.3377  -21.6818   -8.5031 N   0  0  0  0  0  0  0  0  0  0  0  0
   29.2374  -21.0158   -7.3269 C   0  0  0  0  0  0  0  0  0  0  0  0
   30.0950  -20.9092   -6.2505 C   0  0  0  0  0  0  0  0  0  0  0  0
   29.7419  -20.1339   -5.1683 C   0  0  0  0  0  0  0  0  0  0  0  0
   28.5458  -19.4755   -5.1676 C   0  0  0  0  0  0  0  0  0  0  0  0
   27.7167  -19.6018   -6.2513 C   0  0  0  0  0  0  0  0  0  0  0  0
   28.0209  -20.3705   -7.3679 C   0  0  0  0  0  0  0  0  0  0  0  0
   24.3484  -20.2242  -10.8336 C   0  0  0  0  0  0  0  0  0  0  0  0
   24.0906  -19.0024  -11.0276 O   0  0  0  0  0  0  0  0  0  0  0  0
   23.2685  -21.1230  -11.1078 N   0  0  0  0  0  0  0  0  0  0  0  0
   22.0515  -20.6289  -11.7558 C   0  0  1  0  0  0  0  0  0  0  0  0
   22.2352  -20.6098  -13.2620 C   0  0  0  0  0  0  0  0  0  0  0  0
   21.0284  -20.0343  -13.8853 C   0  0  0  0  0  0  0  0  0  0  0  0
   20.4921  -18.7775  -13.6071 C   0  0  0  0  0  0  0  0  0  0  0  0
   19.3943  -18.6080  -14.3586 N   0  0  0  0  0  0  0  0  0  0  0  0
   19.1691  -19.6950  -15.1297 C   0  0  0  0  0  0  0  0  0  0  0  0
   18.1989  -20.0100  -16.0535 C   0  0  0  0  0  0  0  0  0  0  0  0
   18.2412  -21.2287  -16.6952 C   0  0  0  0  0  0  0  0  0  0  0  0
   19.2574  -22.0973  -16.3904 C   0  0  0  0  0  0  0  0  0  0  0  0
   20.2389  -21.8066  -15.4713 C   0  0  0  0  0  0  0  0  0  0  0  0
   20.1907  -20.5887  -14.8352 C   0  0  0  0  0  0  0  0  0  0  0  0
   20.9204  -21.4988  -11.4106 C   0  0  0  0  0  0  0  0  0  0  0  0
   19.6697  -20.9732  -11.1295 O   0  0  0  0  0  0  0  0  0  0  0  0
   21.0461  -22.7460  -11.3577 O   0  0  0  0  0  0  0  0  0  0  0  0
  2  1  1  6
  2  3  1  0
  4  2  1  0
  5  4  1  0
  5  6  1  1
  7  5  1  0
  7  8  2  0
  9  7  1  0
 10 21  1  0
 10  9  1  0
 10 11  1  1
 12 20  1  0
 12 11  1  0
 13 12  2  0
 14 13  1  0
 14 15  1  0
 15 16  1  0
 15 20  2  0
 16 17  2  0
 17 18  1  0
 19 18  2  0
 20 19  1  0
 21 22  2  0
 23 24  1  0
 23 21  1  0
 24 25  1  6
 25 26  1  0
 26 34  1  0
 26 27  2  0
 27 28  1  0
 28 29  1  0
 29 30  2  0
 31 30  1  0
 32 31  2  0
 33 34  2  0
 33 32  1  0
 34 29  1  0
 35 24  1  0
 36 35  1  0
 37 35  2  0
M  END
$$$$
