LWW.pdb
     RDKit          3D

 37 40  0  0  1  0  0  0  0  0999 V2000
   30.0777  -23.3224  -17.3031 C   0  0  0  0  0  0  0  0  0  0  0  0
   29.6196  -22.0288  -17.9534 C   0  0  2  0  0  0  0  0  0  0  0  0
   30.7790  -21.1919  -18.3809 C   0  0  0  0  0  0  0  0  0  0  0  0
   28.5750  -21.3058  -17.1685 C   0  0  0  0  0  0  0  0  0  0  0  0
   27.5059  -22.1867  -16.5728 C   0  0  2  0  0  0  0  0  0  0  0  0
   26.4747  -22.5238  -17.5020 N   0  0  0  0  0  0  0  0  0  0  0  0
   26.9167  -21.4152  -15.4405 C   0  0  0  0  0  0  0  0  0  0  0  0
   26.8179  -20.1480  -15.5197 O   0  0  0  0  0  0  0  0  0  0  0  0
   26.4410  -22.0031  -14.2397 N   0  0  0  0  0  0  0  0  0  0  0  0
   25.3325  -21.4226  -13.4841 C   0  0  1  0  0  0  0  0  0  0  0  0
   24.2032  -21.0698  -14.4269 C   0  0  0  0  0  0  0  0  0  0  0  0
   24.1778  -19.6446  -14.8060 C   0  0  0  0  0  0  0  0  0  0  0  0
   23.1393  -18.9443  -15.4124 C   0  0  0  0  0  0  0  0  0  0  0  0
   23.5432  -17.6943  -15.6111 N   0  0  0  0  0  0  0  0  0  0  0  0
   24.8105  -17.5146  -15.1653 C   0  0  0  0  0  0  0  0  0  0  0  0
   25.6330  -16.4063  -15.1439 C   0  0  0  0  0  0  0  0  0  0  0  0
   26.8963  -16.5019  -14.6036 C   0  0  0  0  0  0  0  0  0  0  0  0
   27.3266  -17.6927  -14.0924 C   0  0  0  0  0  0  0  0  0  0  0  0
   26.4861  -18.7744  -14.1289 C   0  0  0  0  0  0  0  0  0  0  0  0
   25.2039  -18.7354  -14.6624 C   0  0  0  0  0  0  0  0  0  0  0  0
   24.9504  -22.1989  -12.3047 C   0  0  0  0  0  0  0  0  0  0  0  0
   24.9206  -23.4620  -12.3257 O   0  0  0  0  0  0  0  0  0  0  0  0
   24.5886  -21.6043  -11.0537 N   0  0  0  0  0  0  0  0  0  0  0  0
   25.5790  -21.4983   -9.9800 C   0  0  1  0  0  0  0  0  0  0  0  0
   26.7048  -20.5717  -10.4005 C   0  0  0  0  0  0  0  0  0  0  0  0
   27.7915  -20.6551   -9.4063 C   0  0  0  0  0  0  0  0  0  0  0  0
   28.9538  -21.4146   -9.5363 C   0  0  0  0  0  0  0  0  0  0  0  0
   29.6977  -21.2454   -8.4333 N   0  0  0  0  0  0  0  0  0  0  0  0
   29.0870  -20.4059   -7.5678 C   0  0  0  0  0  0  0  0  0  0  0  0
   29.4297  -19.9194   -6.3269 C   0  0  0  0  0  0  0  0  0  0  0  0
   28.5777  -19.0526   -5.6775 C   0  0  0  0  0  0  0  0  0  0  0  0
   27.4047  -18.6990   -6.2932 C   0  0  0  0  0  0  0  0  0  0  0  0
   27.0391  -19.1711   -7.5325 C   0  0  0  0  0  0  0  0  0  0  0  0
   27.8940  -20.0351   -8.1749 C   0  0  0  0  0  0  0  0  0  0  0  0
   24.9387  -20.9735   -8.7677 C   0  0  0  0  0  0  0  0  0  0  0  0
   24.2768  -19.7564   -8.7743 O   0  0  0  0  0  0  0  0  0  0  0  0
   24.9683  -21.6071   -7.6852 O   0  0  0  0  0  0  0  0  0  0  0  0
  2  1  1  1
  2  3  1  0
  4  2  1  0
  5  4  1  0
  5  6  1  6
  7  5  1  0
  7  8  2  0
  9  7  1  0
 10 21  1  0
 10  9  1  0
 10 11  1  6
 12 20  1  0
 12 11  1  0
 13 12  2  0
 14 13  1  0
 14 15  1  0
 15 16  1  0
 15 20  2  0
 16 17  2  0
 17 18  1  0
 19 18  2  0
 20 19  1  0
 21 22  2  0
 23 24  1  0
 23 21  1  0
 24 25  1  6
 25 26  1  0
 26 34  1  0
 26 27  2  0
 27 28  1  0
 28 29  1  0
 29 30  2  0
 31 30  1  0
 32 31  2  0
 33 34  2  0
 33 32  1  0
 34 29  1  0
 35 24  1  0
 36 35  1  0
 37 35  2  0
M  END
$$$$
