LWW.pdb
     RDKit          3D

 37 40  0  0  1  0  0  0  0  0999 V2000
   30.6219  -25.3667  -18.2451 C   0  0  0  0  0  0  0  0  0  0  0  0
   30.2102  -23.9648  -18.6591 C   0  0  2  0  0  0  0  0  0  0  0  0
   31.1612  -23.3879  -19.6542 C   0  0  0  0  0  0  0  0  0  0  0  0
   29.8877  -23.0742  -17.5047 C   0  0  0  0  0  0  0  0  0  0  0  0
   28.9164  -23.6543  -16.5078 C   0  0  2  0  0  0  0  0  0  0  0  0
   27.8168  -24.3278  -17.1226 N   0  0  0  0  0  0  0  0  0  0  0  0
   28.4054  -22.5030  -15.7091 C   0  0  0  0  0  0  0  0  0  0  0  0
   29.0312  -21.3940  -15.7225 O   0  0  0  0  0  0  0  0  0  0  0  0
   27.2356  -22.5484  -14.9069 N   0  0  0  0  0  0  0  0  0  0  0  0
   26.6870  -21.3492  -14.2762 C   0  0  1  0  0  0  0  0  0  0  0  0
   25.5807  -20.7814  -15.1379 C   0  0  0  0  0  0  0  0  0  0  0  0
   25.1491  -19.4323  -14.7264 C   0  0  0  0  0  0  0  0  0  0  0  0
   23.9056  -19.0516  -14.2309 C   0  0  0  0  0  0  0  0  0  0  0  0
   23.9279  -17.7400  -14.0196 N   0  0  0  0  0  0  0  0  0  0  0  0
   25.1325  -17.2134  -14.3491 C   0  0  0  0  0  0  0  0  0  0  0  0
   25.6241  -15.9249  -14.2895 C   0  0  0  0  0  0  0  0  0  0  0  0
   26.9199  -15.6681  -14.6789 C   0  0  0  0  0  0  0  0  0  0  0  0
   27.7100  -16.6902  -15.1213 C   0  0  0  0  0  0  0  0  0  0  0  0
   27.1923  -17.9580  -15.1687 C   0  0  0  0  0  0  0  0  0  0  0  0
   25.8934  -18.2739  -14.7900 C   0  0  0  0  0  0  0  0  0  0  0  0
   26.3585  -21.5229  -12.8615 C   0  0  0  0  0  0  0  0  0  0  0  0
   25.6477  -22.4880  -12.4614 O   0  0  0  0  0  0  0  0  0  0  0  0
   26.8082  -20.6337  -11.8336 N   0  0  0  0  0  0  0  0  0  0  0  0
   26.4617  -20.8968  -10.4350 C   0  0  1  0  0  0  0  0  0  0  0  0
   27.2560  -19.9818   -9.5214 C   0  0  0  0  0  0  0  0  0  0  0  0
   26.8998  -20.2756   -8.1204 C   0  0  0  0  0  0  0  0  0  0  0  0
   25.7938  -21.0148   -7.7022 C   0  0  0  0  0  0  0  0  0  0  0  0
   25.7961  -21.0619   -6.3619 N   0  0  0  0  0  0  0  0  0  0  0  0
   26.8547  -20.3873   -5.8607 C   0  0  0  0  0  0  0  0  0  0  0  0
   27.2981  -20.1470   -4.5803 C   0  0  0  0  0  0  0  0  0  0  0  0
   28.4443  -19.4074   -4.3853 C   0  0  0  0  0  0  0  0  0  0  0  0
   29.1131  -18.9295   -5.4828 C   0  0  0  0  0  0  0  0  0  0  0  0
   28.6909  -19.1556   -6.7724 C   0  0  0  0  0  0  0  0  0  0  0  0
   27.5468  -19.8946   -6.9596 C   0  0  0  0  0  0  0  0  0  0  0  0
   25.0261  -20.6683  -10.2306 C   0  0  0  0  0  0  0  0  0  0  0  0
   24.2426  -21.5856   -9.5493 O   0  0  0  0  0  0  0  0  0  0  0  0
   24.4591  -19.6367  -10.6649 O   0  0  0  0  0  0  0  0  0  0  0  0
  2  1  1  1
  2  3  1  0
  4  2  1  0
  5  4  1  0
  5  6  1  6
  7  5  1  0
  7  8  2  0
  9  7  1  0
 10 21  1  0
 10  9  1  0
 10 11  1  6
 12 20  1  0
 12 11  1  0
 13 12  2  0
 14 13  1  0
 14 15  1  0
 15 16  1  0
 15 20  2  0
 16 17  2  0
 17 18  1  0
 19 18  2  0
 20 19  1  0
 21 22  2  0
 23 24  1  0
 23 21  1  0
 24 25  1  1
 25 26  1  0
 26 34  1  0
 26 27  2  0
 27 28  1  0
 28 29  1  0
 29 30  2  0
 31 30  1  0
 32 31  2  0
 33 34  2  0
 33 32  1  0
 34 29  1  0
 35 24  1  0
 36 35  1  0
 37 35  2  0
M  END
$$$$
