LWW.pdb
     RDKit          3D

 37 40  0  0  1  0  0  0  0  0999 V2000
   31.6453  -26.4021  -16.7773 C   0  0  0  0  0  0  0  0  0  0  0  0
   32.3077  -25.0463  -16.6067 C   0  0  2  0  0  0  0  0  0  0  0  0
   33.7013  -25.1805  -16.0895 C   0  0  0  0  0  0  0  0  0  0  0  0
   31.4579  -24.0562  -15.8804 C   0  0  0  0  0  0  0  0  0  0  0  0
   30.0746  -23.8684  -16.4505 C   0  0  2  0  0  0  0  0  0  0  0  0
   30.0819  -23.4992  -17.8303 N   0  0  0  0  0  0  0  0  0  0  0  0
   29.4416  -22.7794  -15.6518 C   0  0  0  0  0  0  0  0  0  0  0  0
   29.4537  -22.8364  -14.3797 O   0  0  0  0  0  0  0  0  0  0  0  0
   28.8044  -21.6450  -16.2184 N   0  0  0  0  0  0  0  0  0  0  0  0
   28.0817  -20.6764  -15.3959 C   0  0  1  0  0  0  0  0  0  0  0  0
   27.8191  -19.4217  -16.1992 C   0  0  0  0  0  0  0  0  0  0  0  0
   26.9674  -18.4426  -15.4980 C   0  0  0  0  0  0  0  0  0  0  0  0
   27.3554  -17.5089  -14.5417 C   0  0  0  0  0  0  0  0  0  0  0  0
   26.2725  -16.8509  -14.1421 N   0  0  0  0  0  0  0  0  0  0  0  0
   25.1660  -17.2962  -14.7858 C   0  0  0  0  0  0  0  0  0  0  0  0
   23.8411  -16.9154  -14.7154 C   0  0  0  0  0  0  0  0  0  0  0  0
   22.9067  -17.5381  -15.5129 C   0  0  0  0  0  0  0  0  0  0  0  0
   23.2974  -18.5282  -16.3682 C   0  0  0  0  0  0  0  0  0  0  0  0
   24.6201  -18.8833  -16.4144 C   0  0  0  0  0  0  0  0  0  0  0  0
   25.6040  -18.2907  -15.6327 C   0  0  0  0  0  0  0  0  0  0  0  0
   26.9211  -21.2373  -14.7045 C   0  0  0  0  0  0  0  0  0  0  0  0
   26.4403  -22.3612  -15.0246 O   0  0  0  0  0  0  0  0  0  0  0  0
   26.2492  -20.5744  -13.6282 N   0  0  0  0  0  0  0  0  0  0  0  0
   25.2554  -21.2963  -12.8305 C   0  0  1  0  0  0  0  0  0  0  0  0
   25.9488  -22.1600  -11.7932 C   0  0  0  0  0  0  0  0  0  0  0  0
   26.3258  -21.3179  -10.6421 C   0  0  0  0  0  0  0  0  0  0  0  0
   25.4653  -20.4811   -9.9324 C   0  0  0  0  0  0  0  0  0  0  0  0
   26.1663  -19.8729   -8.9642 N   0  0  0  0  0  0  0  0  0  0  0  0
   27.4599  -20.2639   -8.9917 C   0  0  0  0  0  0  0  0  0  0  0  0
   28.5577  -19.9420   -8.2268 C   0  0  0  0  0  0  0  0  0  0  0  0
   29.7749  -20.5247   -8.5054 C   0  0  0  0  0  0  0  0  0  0  0  0
   29.8551  -21.4147   -9.5455 C   0  0  0  0  0  0  0  0  0  0  0  0
   28.7732  -21.7531  -10.3248 C   0  0  0  0  0  0  0  0  0  0  0  0
   27.5618  -21.1683  -10.0409 C   0  0  0  0  0  0  0  0  0  0  0  0
   24.3708  -20.3369  -12.1580 C   0  0  0  0  0  0  0  0  0  0  0  0
   23.0882  -20.6911  -11.7719 O   0  0  0  0  0  0  0  0  0  0  0  0
   24.7440  -19.1651  -11.9099 O   0  0  0  0  0  0  0  0  0  0  0  0
  2  1  1  1
  2  3  1  0
  4  2  1  0
  5  4  1  0
  5  6  1  6
  7  5  1  0
  7  8  2  0
  9  7  1  0
 10 21  1  0
 10  9  1  0
 10 11  1  6
 12 20  1  0
 12 11  1  0
 13 12  2  0
 14 13  1  0
 14 15  1  0
 15 16  1  0
 15 20  2  0
 16 17  2  0
 17 18  1  0
 19 18  2  0
 20 19  1  0
 21 22  2  0
 23 24  1  0
 23 21  1  0
 24 25  1  1
 25 26  1  0
 26 34  1  0
 26 27  2  0
 27 28  1  0
 28 29  1  0
 29 30  2  0
 31 30  1  0
 32 31  2  0
 33 34  2  0
 33 32  1  0
 34 29  1  0
 35 24  1  0
 36 35  1  0
 37 35  2  0
M  END
$$$$
