LWW.pdb
     RDKit          3D

 37 40  0  0  1  0  0  0  0  0999 V2000
   18.3306  -16.7830  -23.4125 C   0  0  0  0  0  0  0  0  0  0  0  0
   18.7606  -18.1320  -23.9614 C   0  0  2  0  0  0  0  0  0  0  0  0
   17.5840  -18.9625  -24.3533 C   0  0  0  0  0  0  0  0  0  0  0  0
   19.7677  -18.8284  -23.1067 C   0  0  0  0  0  0  0  0  0  0  0  0
   20.8687  -17.9452  -22.5759 C   0  0  2  0  0  0  0  0  0  0  0  0
   21.8133  -17.5634  -23.5770 N   0  0  0  0  0  0  0  0  0  0  0  0
   21.5625  -18.7374  -21.5197 C   0  0  0  0  0  0  0  0  0  0  0  0
   21.7689  -19.9821  -21.6929 O   0  0  0  0  0  0  0  0  0  0  0  0
   22.0266  -18.1938  -20.2937 N   0  0  0  0  0  0  0  0  0  0  0  0
   22.7346  -19.0092  -19.3084 C   0  0  1  0  0  0  0  0  0  0  0  0
   24.1244  -18.4526  -19.0910 C   0  0  0  0  0  0  0  0  0  0  0  0
   24.9935  -18.5620  -20.2778 C   0  0  0  0  0  0  0  0  0  0  0  0
   25.1415  -19.6558  -21.1254 C   0  0  0  0  0  0  0  0  0  0  0  0
   26.0484  -19.3466  -22.0459 N   0  0  0  0  0  0  0  0  0  0  0  0
   26.5221  -18.0903  -21.8612 C   0  0  0  0  0  0  0  0  0  0  0  0
   27.4470  -17.3405  -22.5595 C   0  0  0  0  0  0  0  0  0  0  0  0
   27.7328  -16.0556  -22.1543 C   0  0  0  0  0  0  0  0  0  0  0  0
   27.0989  -15.5318  -21.0642 C   0  0  0  0  0  0  0  0  0  0  0  0
   26.1860  -16.3018  -20.3923 C   0  0  0  0  0  0  0  0  0  0  0  0
   25.8603  -17.6027  -20.7556 C   0  0  0  0  0  0  0  0  0  0  0  0
   21.9629  -19.2713  -18.0938 C   0  0  0  0  0  0  0  0  0  0  0  0
   21.8328  -18.3964  -17.1914 O   0  0  0  0  0  0  0  0  0  0  0  0
   21.3022  -20.5144  -17.8333 N   0  0  0  0  0  0  0  0  0  0  0  0
   20.5916  -20.7146  -16.5683 C   0  0  1  0  0  0  0  0  0  0  0  0
   19.0981  -20.5469  -16.7786 C   0  0  0  0  0  0  0  0  0  0  0  0
   18.6167  -21.6155  -17.6743 C   0  0  0  0  0  0  0  0  0  0  0  0
   18.7862  -22.9843  -17.4688 C   0  0  0  0  0  0  0  0  0  0  0  0
   18.2242  -23.6409  -18.4943 N   0  0  0  0  0  0  0  0  0  0  0  0
   17.6843  -22.7741  -19.3799 C   0  0  0  0  0  0  0  0  0  0  0  0
   17.0078  -22.9392  -20.5669 C   0  0  0  0  0  0  0  0  0  0  0  0
   16.5669  -21.8316  -21.2578 C   0  0  0  0  0  0  0  0  0  0  0  0
   16.8183  -20.5884  -20.7367 C   0  0  0  0  0  0  0  0  0  0  0  0
   17.4919  -20.3965  -19.5528 C   0  0  0  0  0  0  0  0  0  0  0  0
   17.9287  -21.5060  -18.8685 C   0  0  0  0  0  0  0  0  0  0  0  0
   20.8666  -22.0624  -16.0556 C   0  0  0  0  0  0  0  0  0  0  0  0
   20.4633  -22.4440  -14.7862 O   0  0  0  0  0  0  0  0  0  0  0  0
   21.4753  -22.9142  -16.7469 O   0  0  0  0  0  0  0  0  0  0  0  0
  2  1  1  1
  2  3  1  0
  4  2  1  0
  5  4  1  0
  5  6  1  6
  7  5  1  0
  7  8  2  0
  9  7  1  0
 10 21  1  0
 10  9  1  0
 10 11  1  1
 12 20  1  0
 12 11  1  0
 13 12  2  0
 14 13  1  0
 14 15  1  0
 15 16  1  0
 15 20  2  0
 16 17  2  0
 17 18  1  0
 19 18  2  0
 20 19  1  0
 21 22  2  0
 23 24  1  0
 23 21  1  0
 24 25  1  6
 25 26  1  0
 26 34  1  0
 26 27  2  0
 27 28  1  0
 28 29  1  0
 29 30  2  0
 31 30  1  0
 32 31  2  0
 33 34  2  0
 33 32  1  0
 34 29  1  0
 35 24  1  0
 36 35  1  0
 37 35  2  0
M  END
$$$$
