LWW.pdb
     RDKit          3D

 37 40  0  0  1  0  0  0  0  0999 V2000
   19.6615  -20.8698  -13.3455 C   0  0  0  0  0  0  0  0  0  0  0  0
   19.8723  -19.9850  -12.1295 C   0  0  2  0  0  0  0  0  0  0  0  0
   19.0767  -18.7259  -12.2257 C   0  0  0  0  0  0  0  0  0  0  0  0
   21.3100  -19.7970  -11.7726 C   0  0  0  0  0  0  0  0  0  0  0  0
   22.1554  -21.0421  -11.8679 C   0  0  2  0  0  0  0  0  0  0  0  0
   21.8811  -21.9870  -10.8323 N   0  0  0  0  0  0  0  0  0  0  0  0
   23.5726  -20.5900  -11.7603 C   0  0  0  0  0  0  0  0  0  0  0  0
   23.9169  -19.4621  -12.2410 O   0  0  0  0  0  0  0  0  0  0  0  0
   24.6036  -21.3448  -11.1428 N   0  0  0  0  0  0  0  0  0  0  0  0
   26.0033  -20.9270  -11.1988 C   0  0  1  0  0  0  0  0  0  0  0  0
   26.7576  -21.5155  -10.0269 C   0  0  0  0  0  0  0  0  0  0  0  0
   26.8490  -20.6050   -8.8700 C   0  0  0  0  0  0  0  0  0  0  0  0
   25.9718  -19.5825   -8.5213 C   0  0  0  0  0  0  0  0  0  0  0  0
   26.4431  -18.9863   -7.4314 N   0  0  0  0  0  0  0  0  0  0  0  0
   27.6016  -19.5598   -7.0242 C   0  0  0  0  0  0  0  0  0  0  0  0
   28.4354  -19.2982   -5.9555 C   0  0  0  0  0  0  0  0  0  0  0  0
   29.5633  -20.0649   -5.7638 C   0  0  0  0  0  0  0  0  0  0  0  0
   29.8492  -21.0791   -6.6322 C   0  0  0  0  0  0  0  0  0  0  0  0
   29.0017  -21.3132   -7.6832 C   0  0  0  0  0  0  0  0  0  0  0  0
   27.8522  -20.5714   -7.9252 C   0  0  0  0  0  0  0  0  0  0  0  0
   26.6251  -21.1175  -12.5090 C   0  0  0  0  0  0  0  0  0  0  0  0
   26.4308  -22.1661  -13.1869 O   0  0  0  0  0  0  0  0  0  0  0  0
   27.4855  -20.1505  -13.1206 N   0  0  0  0  0  0  0  0  0  0  0  0
   27.9260  -20.3346  -14.5053 C   0  0  1  0  0  0  0  0  0  0  0  0
   28.4929  -19.0357  -15.0478 C   0  0  0  0  0  0  0  0  0  0  0  0
   27.4053  -18.0448  -15.1540 C   0  0  0  0  0  0  0  0  0  0  0  0
   27.1316  -17.0380  -14.2288 C   0  0  0  0  0  0  0  0  0  0  0  0
   26.0684  -16.3429  -14.6591 N   0  0  0  0  0  0  0  0  0  0  0  0
   25.6155  -16.8378  -15.8326 C   0  0  0  0  0  0  0  0  0  0  0  0
   24.5786  -16.4856  -16.6659 C   0  0  0  0  0  0  0  0  0  0  0  0
   24.3658  -17.1992  -17.8254 C   0  0  0  0  0  0  0  0  0  0  0  0
   25.2010  -18.2473  -18.1151 C   0  0  0  0  0  0  0  0  0  0  0  0
   26.2442  -18.6194  -17.2991 C   0  0  0  0  0  0  0  0  0  0  0  0
   26.4509  -17.9028  -16.1442 C   0  0  0  0  0  0  0  0  0  0  0  0
   28.9549  -21.3802  -14.5612 C   0  0  0  0  0  0  0  0  0  0  0  0
   29.4494  -21.8374  -15.7720 O   0  0  0  0  0  0  0  0  0  0  0  0
   29.4216  -21.8958  -13.5169 O   0  0  0  0  0  0  0  0  0  0  0  0
  2  1  1  6
  2  3  1  0
  4  2  1  0
  5  4  1  0
  5  6  1  1
  7  5  1  0
  7  8  2  0
  9  7  1  0
 10 21  1  0
 10  9  1  0
 10 11  1  1
 12 20  1  0
 12 11  1  0
 13 12  2  0
 14 13  1  0
 14 15  1  0
 15 16  1  0
 15 20  2  0
 16 17  2  0
 17 18  1  0
 19 18  2  0
 20 19  1  0
 21 22  2  0
 23 24  1  0
 23 21  1  0
 24 25  1  1
 25 26  1  0
 26 34  1  0
 26 27  2  0
 27 28  1  0
 28 29  1  0
 29 30  2  0
 31 30  1  0
 32 31  2  0
 33 34  2  0
 33 32  1  0
 34 29  1  0
 35 24  1  0
 36 35  1  0
 37 35  2  0
M  END
$$$$
