LWW.pdb
     RDKit          3D

 37 40  0  0  1  0  0  0  0  0999 V2000
   20.1788  -24.2753  -17.6111 C   0  0  0  0  0  0  0  0  0  0  0  0
   20.8435  -25.4688  -16.9479 C   0  0  2  0  0  0  0  0  0  0  0  0
   21.1057  -26.5627  -17.9287 C   0  0  0  0  0  0  0  0  0  0  0  0
   20.1698  -25.9001  -15.6870 C   0  0  0  0  0  0  0  0  0  0  0  0
   19.9010  -24.7921  -14.7002 C   0  0  2  0  0  0  0  0  0  0  0  0
   21.0931  -24.2283  -14.1512 N   0  0  0  0  0  0  0  0  0  0  0  0
   19.0929  -25.4004  -13.6041 C   0  0  0  0  0  0  0  0  0  0  0  0
   18.1206  -26.1729  -13.8863 O   0  0  0  0  0  0  0  0  0  0  0  0
   19.3308  -25.1778  -12.2228 N   0  0  0  0  0  0  0  0  0  0  0  0
   18.5026  -25.7960  -11.1890 C   0  0  1  0  0  0  0  0  0  0  0  0
   19.3820  -26.3004  -10.0661 C   0  0  0  0  0  0  0  0  0  0  0  0
   20.2502  -27.4259  -10.4600 C   0  0  0  0  0  0  0  0  0  0  0  0
   21.1011  -27.4994  -11.5588 C   0  0  0  0  0  0  0  0  0  0  0  0
   21.6699  -28.7002  -11.5625 N   0  0  0  0  0  0  0  0  0  0  0  0
   21.2431  -29.4452  -10.5138 C   0  0  0  0  0  0  0  0  0  0  0  0
   21.5583  -30.7242  -10.1011 C   0  0  0  0  0  0  0  0  0  0  0  0
   20.9776  -31.2388   -8.9632 C   0  0  0  0  0  0  0  0  0  0  0  0
   20.0940  -30.4800   -8.2505 C   0  0  0  0  0  0  0  0  0  0  0  0
   19.8019  -29.2142   -8.6866 C   0  0  0  0  0  0  0  0  0  0  0  0
   20.3563  -28.6455   -9.8266 C   0  0  0  0  0  0  0  0  0  0  0  0
   17.3617  -24.9780  -10.7781 C   0  0  0  0  0  0  0  0  0  0  0  0
   17.5197  -23.8715  -10.1886 O   0  0  0  0  0  0  0  0  0  0  0  0
   15.9996  -25.3542  -11.0073 N   0  0  0  0  0  0  0  0  0  0  0  0
   14.9170  -24.4300  -10.6623 C   0  0  1  0  0  0  0  0  0  0  0  0
   14.6060  -23.5292  -11.8432 C   0  0  0  0  0  0  0  0  0  0  0  0
   14.2687  -24.3667  -13.0098 C   0  0  0  0  0  0  0  0  0  0  0  0
   13.5385  -25.5541  -12.9724 C   0  0  0  0  0  0  0  0  0  0  0  0
   13.4421  -26.0334  -14.2212 N   0  0  0  0  0  0  0  0  0  0  0  0
   14.0751  -25.2207  -15.0964 C   0  0  0  0  0  0  0  0  0  0  0  0
   14.2586  -25.2650  -16.4596 C   0  0  0  0  0  0  0  0  0  0  0  0
   14.9659  -24.2602  -17.0833 C   0  0  0  0  0  0  0  0  0  0  0  0
   15.4694  -23.2388  -16.3195 C   0  0  0  0  0  0  0  0  0  0  0  0
   15.2999  -23.1713  -14.9560 C   0  0  0  0  0  0  0  0  0  0  0  0
   14.5929  -24.1770  -14.3403 C   0  0  0  0  0  0  0  0  0  0  0  0
   13.7162  -25.1909  -10.2961 C   0  0  0  0  0  0  0  0  0  0  0  0
   12.6249  -24.5718   -9.7084 O   0  0  0  0  0  0  0  0  0  0  0  0
   13.6359  -26.4260  -10.5017 O   0  0  0  0  0  0  0  0  0  0  0  0
  2  1  1  6
  2  3  1  0
  4  2  1  0
  5  4  1  0
  5  6  1  1
  7  5  1  0
  7  8  2  0
  9  7  1  0
 10 21  1  0
 10  9  1  0
 10 11  1  1
 12 20  1  0
 12 11  1  0
 13 12  2  0
 14 13  1  0
 14 15  1  0
 15 16  1  0
 15 20  2  0
 16 17  2  0
 17 18  1  0
 19 18  2  0
 20 19  1  0
 21 22  2  0
 23 24  1  0
 23 21  1  0
 24 25  1  6
 25 26  1  0
 26 34  1  0
 26 27  2  0
 27 28  1  0
 28 29  1  0
 29 30  2  0
 31 30  1  0
 32 31  2  0
 33 34  2  0
 33 32  1  0
 34 29  1  0
 35 24  1  0
 36 35  1  0
 37 35  2  0
M  END
$$$$
