LWW.pdb
     RDKit          3D

 37 40  0  0  1  0  0  0  0  0999 V2000
   29.0836  -21.9245  -17.8934 C   0  0  0  0  0  0  0  0  0  0  0  0
   28.9845  -22.9425  -16.7709 C   0  0  2  0  0  0  0  0  0  0  0  0
   29.2496  -24.3262  -17.2634 C   0  0  0  0  0  0  0  0  0  0  0  0
   27.7527  -22.7937  -15.9400 C   0  0  0  0  0  0  0  0  0  0  0  0
   27.5557  -21.4259  -15.3366 C   0  0  2  0  0  0  0  0  0  0  0  0
   28.7721  -20.6876  -15.2114 N   0  0  0  0  0  0  0  0  0  0  0  0
   26.9735  -21.6506  -13.9820 C   0  0  0  0  0  0  0  0  0  0  0  0
   25.9278  -22.3656  -13.8515 O   0  0  0  0  0  0  0  0  0  0  0  0
   27.5121  -21.1107  -12.7852 N   0  0  0  0  0  0  0  0  0  0  0  0
   26.8254  -21.2454  -11.5018 C   0  0  1  0  0  0  0  0  0  0  0  0
   27.8157  -21.0632  -10.3728 C   0  0  0  0  0  0  0  0  0  0  0  0
   27.1775  -20.8587   -9.0588 C   0  0  0  0  0  0  0  0  0  0  0  0
   25.8208  -20.9168   -8.7540 C   0  0  0  0  0  0  0  0  0  0  0  0
   25.6739  -20.6366   -7.4636 N   0  0  0  0  0  0  0  0  0  0  0  0
   26.8715  -20.3914   -6.8783 C   0  0  0  0  0  0  0  0  0  0  0  0
   27.2171  -20.0776   -5.5793 C   0  0  0  0  0  0  0  0  0  0  0  0
   28.5414  -19.8947   -5.2485 C   0  0  0  0  0  0  0  0  0  0  0  0
   29.5041  -20.0256   -6.2080 C   0  0  0  0  0  0  0  0  0  0  0  0
   29.1285  -20.3377   -7.4884 C   0  0  0  0  0  0  0  0  0  0  0  0
   27.8091  -20.5316   -7.8780 C   0  0  0  0  0  0  0  0  0  0  0  0
   25.6005  -20.4523  -11.4008 C   0  0  0  0  0  0  0  0  0  0  0  0
   25.6316  -19.1895  -11.3647 O   0  0  0  0  0  0  0  0  0  0  0  0
   24.2917  -21.0289  -11.3382 N   0  0  0  0  0  0  0  0  0  0  0  0
   23.1800  -20.4005  -12.0555 C   0  0  1  0  0  0  0  0  0  0  0  0
   23.5210  -20.2658  -13.5281 C   0  0  0  0  0  0  0  0  0  0  0  0
   22.4245  -19.5538  -14.2113 C   0  0  0  0  0  0  0  0  0  0  0  0
   21.7330  -18.4532  -13.7066 C   0  0  0  0  0  0  0  0  0  0  0  0
   20.8053  -18.0863  -14.6030 N   0  0  0  0  0  0  0  0  0  0  0  0
   20.8428  -18.8916  -15.6879 C   0  0  0  0  0  0  0  0  0  0  0  0
   20.1182  -18.9311  -16.8572 C   0  0  0  0  0  0  0  0  0  0  0  0
   20.4009  -19.8954  -17.8000 C   0  0  0  0  0  0  0  0  0  0  0  0
   21.4041  -20.7937  -17.5414 C   0  0  0  0  0  0  0  0  0  0  0  0
   22.1428  -20.7756  -16.3810 C   0  0  0  0  0  0  0  0  0  0  0  0
   21.8556  -19.8105  -15.4450 C   0  0  0  0  0  0  0  0  0  0  0  0
   21.9702  -21.2183  -11.9050 C   0  0  0  0  0  0  0  0  0  0  0  0
   20.7575  -20.6487  -11.5523 O   0  0  0  0  0  0  0  0  0  0  0  0
   21.9917  -22.4591  -12.0897 O   0  0  0  0  0  0  0  0  0  0  0  0
  2  1  1  6
  2  3  1  0
  4  2  1  0
  5  4  1  0
  5  6  1  1
  7  5  1  0
  7  8  2  0
  9  7  1  0
 10 21  1  0
 10  9  1  0
 10 11  1  1
 12 20  1  0
 12 11  1  0
 13 12  2  0
 14 13  1  0
 14 15  1  0
 15 16  1  0
 15 20  2  0
 16 17  2  0
 17 18  1  0
 19 18  2  0
 20 19  1  0
 21 22  2  0
 23 24  1  0
 23 21  1  0
 24 25  1  6
 25 26  1  0
 26 34  1  0
 26 27  2  0
 27 28  1  0
 28 29  1  0
 29 30  2  0
 31 30  1  0
 32 31  2  0
 33 34  2  0
 33 32  1  0
 34 29  1  0
 35 24  1  0
 36 35  1  0
 37 35  2  0
M  END
$$$$
