YFV.pdb
     RDKit          3D

 31 32  0  0  1  0  0  0  0  0999 V2000
   19.9628  -12.1999  -25.4310 O   0  0  0  0  0  0  0  0  0  0  0  0
   19.6843  -11.6707  -24.1696 C   0  0  0  0  0  0  0  0  0  0  0  0
   18.5597  -12.0489  -23.4694 C   0  0  0  0  0  0  0  0  0  0  0  0
   18.2724  -11.5325  -22.2208 C   0  0  0  0  0  0  0  0  0  0  0  0
   19.0979  -10.6151  -21.6176 C   0  0  0  0  0  0  0  0  0  0  0  0
   18.8675  -10.0268  -20.2871 C   0  0  0  0  0  0  0  0  0  0  0  0
   19.6824  -10.8098  -19.2776 C   0  0  2  0  0  0  0  0  0  0  0  0
   19.3822  -12.2009  -19.2472 N   0  0  0  0  0  0  0  0  0  0  0  0
   19.7350  -10.1334  -17.9731 C   0  0  0  0  0  0  0  0  0  0  0  0
   18.8874  -10.4517  -17.0754 O   0  0  0  0  0  0  0  0  0  0  0  0
   20.2399  -10.2328  -22.3314 C   0  0  0  0  0  0  0  0  0  0  0  0
   20.5254  -10.7475  -23.5753 C   0  0  0  0  0  0  0  0  0  0  0  0
   20.6530   -9.1282  -17.5802 N   0  0  0  0  0  0  0  0  0  0  0  0
   20.5258   -8.4384  -16.2956 C   0  0  1  0  0  0  0  0  0  0  0  0
   21.9030   -8.4670  -15.6800 C   0  0  0  0  0  0  0  0  0  0  0  0
   21.9750   -7.8060  -14.3625 C   0  0  0  0  0  0  0  0  0  0  0  0
   21.7949   -8.5002  -13.1911 C   0  0  0  0  0  0  0  0  0  0  0  0
   21.8720   -7.8157  -11.9991 C   0  0  0  0  0  0  0  0  0  0  0  0
   22.1232   -6.4602  -11.9642 C   0  0  0  0  0  0  0  0  0  0  0  0
   22.3063   -5.7451  -13.1115 C   0  0  0  0  0  0  0  0  0  0  0  0
   22.2271   -6.4448  -14.3139 C   0  0  0  0  0  0  0  0  0  0  0  0
   20.0385   -7.0363  -16.5007 C   0  0  0  0  0  0  0  0  0  0  0  0
   20.6183   -6.3839  -17.3877 O   0  0  0  0  0  0  0  0  0  0  0  0
   16.8133   -5.6821  -17.5992 C   0  0  0  0  0  0  0  0  0  0  0  0
   16.9490   -5.1742  -16.1890 C   0  0  2  0  0  0  0  0  0  0  0  0
   16.4329   -3.7435  -16.1959 C   0  0  0  0  0  0  0  0  0  0  0  0
   18.4346   -5.1869  -15.8474 C   0  0  2  0  0  0  0  0  0  0  0  0
   19.0013   -6.4799  -15.7543 N   0  0  0  0  0  0  0  0  0  0  0  0
   18.8050   -4.3585  -14.7140 C   0  0  0  0  0  0  0  0  0  0  0  0
   18.5446   -4.7945  -13.5368 O   0  0  0  0  0  0  0  0  0  0  0  0
   19.4231   -3.1229  -14.7309 O   0  0  0  0  0  0  0  0  0  0  0  0
  2  1  1  0
  2 12  2  0
  3  2  1  0
  4  3  2  0
  4  5  1  0
  5 11  2  0
  6  5  1  0
  7  6  1  0
  7  8  1  1
  9 13  1  0
  9  7  1  0
 10  9  2  0
 11 12  1  0
 14 13  1  0
 14 15  1  6
 16 15  1  0
 17 16  2  0
 18 17  1  0
 19 20  1  0
 19 18  2  0
 20 21  2  0
 21 16  1  0
 22 14  1  0
 22 28  1  0
 23 22  2  0
 25 24  1  6
 25 27  1  0
 26 25  1  0
 27 28  1  1
 27 29  1  0
 29 31  1  0
 30 29  2  0
M  END
$$$$
