YFV.pdb
     RDKit          3D

 31 32  0  0  1  0  0  0  0  0999 V2000
   17.2301  -25.3041  -13.9300 O   0  0  0  0  0  0  0  0  0  0  0  0
   18.3250  -24.4400  -13.9876 C   0  0  0  0  0  0  0  0  0  0  0  0
   18.1543  -23.0808  -14.1336 C   0  0  0  0  0  0  0  0  0  0  0  0
   19.2291  -22.2150  -14.1926 C   0  0  0  0  0  0  0  0  0  0  0  0
   20.5221  -22.6711  -14.1077 C   0  0  0  0  0  0  0  0  0  0  0  0
   21.7186  -21.8133  -14.1515 C   0  0  0  0  0  0  0  0  0  0  0  0
   22.1395  -21.5178  -12.7261 C   0  0  2  0  0  0  0  0  0  0  0  0
   21.1345  -20.8768  -11.9481 N   0  0  0  0  0  0  0  0  0  0  0  0
   23.4815  -20.9201  -12.6639 C   0  0  0  0  0  0  0  0  0  0  0  0
   23.6063  -19.6603  -12.8157 O   0  0  0  0  0  0  0  0  0  0  0  0
   20.6923  -24.0527  -13.9594 C   0  0  0  0  0  0  0  0  0  0  0  0
   19.6212  -24.9146  -13.9009 C   0  0  0  0  0  0  0  0  0  0  0  0
   24.7018  -21.6066  -12.4475 N   0  0  0  0  0  0  0  0  0  0  0  0
   25.9894  -20.9135  -12.5121 C   0  0  1  0  0  0  0  0  0  0  0  0
   26.8831  -21.6220  -11.5243 C   0  0  0  0  0  0  0  0  0  0  0  0
   26.7434  -21.1273  -10.1410 C   0  0  0  0  0  0  0  0  0  0  0  0
   27.8325  -20.7685   -9.3847 C   0  0  0  0  0  0  0  0  0  0  0  0
   27.6255  -20.3195   -8.0998 C   0  0  0  0  0  0  0  0  0  0  0  0
   26.3569  -20.2269   -7.5671 C   0  0  0  0  0  0  0  0  0  0  0  0
   25.2570  -20.5761   -8.2947 C   0  0  0  0  0  0  0  0  0  0  0  0
   25.4744  -21.0292   -9.5943 C   0  0  0  0  0  0  0  0  0  0  0  0
   26.5446  -20.9697  -13.9027 C   0  0  0  0  0  0  0  0  0  0  0  0
   26.5916  -22.0988  -14.4237 O   0  0  0  0  0  0  0  0  0  0  0  0
   24.9501  -19.7684  -16.6626 C   0  0  0  0  0  0  0  0  0  0  0  0
   26.2142  -18.9577  -16.7626 C   0  0  2  0  0  0  0  0  0  0  0  0
   26.5954  -18.9358  -18.2348 C   0  0  0  0  0  0  0  0  0  0  0  0
   27.2837  -19.6918  -15.9619 C   0  0  2  0  0  0  0  0  0  0  0  0
   26.9858  -19.8383  -14.5865 N   0  0  0  0  0  0  0  0  0  0  0  0
   28.6367  -19.2066  -16.1666 C   0  0  0  0  0  0  0  0  0  0  0  0
   28.9705  -18.0982  -15.6156 O   0  0  0  0  0  0  0  0  0  0  0  0
   29.6495  -19.7974  -16.8977 O   0  0  0  0  0  0  0  0  0  0  0  0
  2  1  1  0
  2 12  2  0
  3  2  1  0
  4  3  2  0
  4  5  1  0
  5 11  2  0
  6  5  1  0
  7  6  1  0
  7  8  1  6
  9 13  1  0
  9  7  1  0
 10  9  2  0
 11 12  1  0
 14 13  1  0
 14 15  1  1
 16 15  1  0
 17 16  2  0
 18 17  1  0
 19 20  1  0
 19 18  2  0
 20 21  2  0
 21 16  1  0
 22 14  1  0
 22 28  1  0
 23 22  2  0
 25 24  1  6
 25 27  1  0
 26 25  1  0
 27 28  1  1
 27 29  1  0
 29 31  1  0
 30 29  2  0
M  END
$$$$
