YFV.pdb
     RDKit          3D

 31 32  0  0  1  0  0  0  0  0999 V2000
   29.1459  -16.9124  -18.0333 O   0  0  0  0  0  0  0  0  0  0  0  0
   28.4952  -17.5595  -16.9815 C   0  0  0  0  0  0  0  0  0  0  0  0
   27.5321  -18.5157  -17.2185 C   0  0  0  0  0  0  0  0  0  0  0  0
   26.8804  -19.1631  -16.1868 C   0  0  0  0  0  0  0  0  0  0  0  0
   27.1638  -18.8824  -14.8723 C   0  0  0  0  0  0  0  0  0  0  0  0
   26.5223  -19.5349  -13.7181 C   0  0  0  0  0  0  0  0  0  0  0  0
   27.4477  -20.6258  -13.2185 C   0  0  2  0  0  0  0  0  0  0  0  0
   27.5985  -21.7146  -14.1229 N   0  0  0  0  0  0  0  0  0  0  0  0
   27.1678  -20.9837  -11.8201 C   0  0  0  0  0  0  0  0  0  0  0  0
   26.2669  -21.8509  -11.5709 O   0  0  0  0  0  0  0  0  0  0  0  0
   28.1429  -17.9104  -14.6346 C   0  0  0  0  0  0  0  0  0  0  0  0
   28.7916  -17.2659  -15.6628 C   0  0  0  0  0  0  0  0  0  0  0  0
   27.8059  -20.4567  -10.6701 N   0  0  0  0  0  0  0  0  0  0  0  0
   27.3369  -20.7792   -9.3216 C   0  0  1  0  0  0  0  0  0  0  0  0
   28.3603  -20.1895   -8.3828 C   0  0  0  0  0  0  0  0  0  0  0  0
   27.9508  -20.2243   -6.9654 C   0  0  0  0  0  0  0  0  0  0  0  0
   27.3610  -19.1453   -6.3533 C   0  0  0  0  0  0  0  0  0  0  0  0
   27.0093  -19.2493   -5.0264 C   0  0  0  0  0  0  0  0  0  0  0  0
   27.2385  -20.4060   -4.3112 C   0  0  0  0  0  0  0  0  0  0  0  0
   27.8223  -21.4932   -4.8929 C   0  0  0  0  0  0  0  0  0  0  0  0
   28.1751  -21.3805   -6.2361 C   0  0  0  0  0  0  0  0  0  0  0  0
   25.9735  -20.2022   -9.0900 C   0  0  0  0  0  0  0  0  0  0  0  0
   25.8951  -18.9609   -9.1286 O   0  0  0  0  0  0  0  0  0  0  0  0
   21.4465  -19.8234   -9.8269 C   0  0  0  0  0  0  0  0  0  0  0  0
   22.8023  -20.4162  -10.1019 C   0  0  2  0  0  0  0  0  0  0  0  0
   22.5559  -21.7719  -10.7459 C   0  0  0  0  0  0  0  0  0  0  0  0
   23.4938  -20.6007   -8.7559 C   0  0  2  0  0  0  0  0  0  0  0  0
   24.8508  -20.9909   -8.8452 N   0  0  0  0  0  0  0  0  0  0  0  0
   22.7641  -21.4195   -7.8045 C   0  0  0  0  0  0  0  0  0  0  0  0
   23.3610  -22.4359   -7.3001 O   0  0  0  0  0  0  0  0  0  0  0  0
   21.4705  -21.2461   -7.3510 O   0  0  0  0  0  0  0  0  0  0  0  0
  2  1  1  0
  2 12  2  0
  3  2  1  0
  4  3  2  0
  4  5  1  0
  5 11  2  0
  6  5  1  0
  7  6  1  0
  7  8  1  6
  9 13  1  0
  9  7  1  0
 10  9  2  0
 11 12  1  0
 14 13  1  0
 14 15  1  1
 16 15  1  0
 17 16  2  0
 18 17  1  0
 19 20  1  0
 19 18  2  0
 20 21  2  0
 21 16  1  0
 22 14  1  0
 22 28  1  0
 23 22  2  0
 25 24  1  1
 25 27  1  0
 26 25  1  0
 27 28  1  6
 27 29  1  0
 29 31  1  0
 30 29  2  0
M  END
$$$$
