YFV.pdb
     RDKit          3D

 31 32  0  0  1  0  0  0  0  0999 V2000
   19.1290  -24.7394  -13.2760 O   0  0  0  0  0  0  0  0  0  0  0  0
   20.1541  -25.2692  -14.0616 C   0  0  0  0  0  0  0  0  0  0  0  0
   21.2416  -25.8927  -13.4901 C   0  0  0  0  0  0  0  0  0  0  0  0
   22.2629  -26.4206  -14.2560 C   0  0  0  0  0  0  0  0  0  0  0  0
   22.2408  -26.3482  -15.6276 C   0  0  0  0  0  0  0  0  0  0  0  0
   23.2832  -26.8948  -16.5132 C   0  0  0  0  0  0  0  0  0  0  0  0
   24.4461  -25.9235  -16.5284 C   0  0  2  0  0  0  0  0  0  0  0  0
   24.1098  -24.6270  -17.0104 N   0  0  0  0  0  0  0  0  0  0  0  0
   25.6582  -26.5289  -17.0997 C   0  0  0  0  0  0  0  0  0  0  0  0
   25.8263  -26.5046  -18.3633 O   0  0  0  0  0  0  0  0  0  0  0  0
   21.1345  -25.7142  -16.2054 C   0  0  0  0  0  0  0  0  0  0  0  0
   20.1176  -25.1884  -15.4419 C   0  0  0  0  0  0  0  0  0  0  0  0
   26.7030  -27.1628  -16.3830 N   0  0  0  0  0  0  0  0  0  0  0  0
   27.8791  -27.7032  -17.0666 C   0  0  1  0  0  0  0  0  0  0  0  0
   29.0323  -26.8245  -16.6490 C   0  0  0  0  0  0  0  0  0  0  0  0
   29.1042  -25.5516  -17.3920 C   0  0  0  0  0  0  0  0  0  0  0  0
   29.6838  -25.4678  -18.6345 C   0  0  0  0  0  0  0  0  0  0  0  0
   29.7183  -24.2451  -19.2663 C   0  0  0  0  0  0  0  0  0  0  0  0
   29.1870  -23.1171  -18.6771 C   0  0  0  0  0  0  0  0  0  0  0  0
   28.6052  -23.1703  -17.4443 C   0  0  0  0  0  0  0  0  0  0  0  0
   28.5738  -24.4112  -16.8113 C   0  0  0  0  0  0  0  0  0  0  0  0
   28.1004  -29.1328  -16.6757 C   0  0  0  0  0  0  0  0  0  0  0  0
   28.2049  -29.3524  -15.4554 O   0  0  0  0  0  0  0  0  0  0  0  0
   25.9093  -31.8869  -17.1905 C   0  0  0  0  0  0  0  0  0  0  0  0
   27.1450  -32.3893  -17.8876 C   0  0  2  0  0  0  0  0  0  0  0  0
   27.3192  -33.8390  -17.4618 C   0  0  0  0  0  0  0  0  0  0  0  0
   28.3171  -31.5567  -17.3808 C   0  0  2  0  0  0  0  0  0  0  0  0
   28.1865  -30.1661  -17.6069 N   0  0  0  0  0  0  0  0  0  0  0  0
   29.6257  -32.0422  -17.7807 C   0  0  0  0  0  0  0  0  0  0  0  0
   30.1364  -31.5807  -18.8623 O   0  0  0  0  0  0  0  0  0  0  0  0
   30.4246  -32.9639  -17.1315 O   0  0  0  0  0  0  0  0  0  0  0  0
  2  1  1  0
  2 12  2  0
  3  2  1  0
  4  3  2  0
  4  5  1  0
  5 11  2  0
  6  5  1  0
  7  6  1  0
  7  8  1  6
  9 13  1  0
  9  7  1  0
 10  9  2  0
 11 12  1  0
 14 13  1  0
 14 15  1  1
 16 15  1  0
 17 16  2  0
 18 17  1  0
 19 20  1  0
 19 18  2  0
 20 21  2  0
 21 16  1  0
 22 14  1  0
 22 28  1  0
 23 22  2  0
 25 24  1  1
 25 27  1  0
 26 25  1  0
 27 28  1  6
 27 29  1  0
 29 31  1  0
 30 29  2  0
M  END
$$$$
