YFV.pdb
     RDKit          3D

 31 32  0  0  1  0  0  0  0  0999 V2000
   20.1911  -16.0808  -18.7754 O   0  0  0  0  0  0  0  0  0  0  0  0
   20.9067  -16.8469  -17.8536 C   0  0  0  0  0  0  0  0  0  0  0  0
   22.2736  -16.7244  -17.7322 C   0  0  0  0  0  0  0  0  0  0  0  0
   22.9935  -17.4768  -16.8245 C   0  0  0  0  0  0  0  0  0  0  0  0
   22.3774  -18.3848  -15.9981 C   0  0  0  0  0  0  0  0  0  0  0  0
   23.0714  -19.2152  -14.9989 C   0  0  0  0  0  0  0  0  0  0  0  0
   23.9751  -20.1829  -15.7357 C   0  0  2  0  0  0  0  0  0  0  0  0
   23.2773  -21.1217  -16.5468 N   0  0  0  0  0  0  0  0  0  0  0  0
   25.0153  -20.7382  -14.8571 C   0  0  0  0  0  0  0  0  0  0  0  0
   24.7723  -21.8091  -14.2093 O   0  0  0  0  0  0  0  0  0  0  0  0
   20.9885  -18.5070  -16.1237 C   0  0  0  0  0  0  0  0  0  0  0  0
   20.2720  -17.7573  -17.0282 C   0  0  0  0  0  0  0  0  0  0  0  0
   26.3076  -20.2013  -14.6355 N   0  0  0  0  0  0  0  0  0  0  0  0
   27.1404  -20.6524  -13.5195 C   0  0  1  0  0  0  0  0  0  0  0  0
   28.5268  -20.1330  -13.8103 C   0  0  0  0  0  0  0  0  0  0  0  0
   29.5067  -20.4394  -12.7502 C   0  0  0  0  0  0  0  0  0  0  0  0
   30.1607  -19.4497  -12.0578 C   0  0  0  0  0  0  0  0  0  0  0  0
   31.0651  -19.8112  -11.0848 C   0  0  0  0  0  0  0  0  0  0  0  0
   31.3216  -21.1358  -10.7992 C   0  0  0  0  0  0  0  0  0  0  0  0
   30.6870  -22.1398  -11.4704 C   0  0  0  0  0  0  0  0  0  0  0  0
   29.7729  -21.7661  -12.4535 C   0  0  0  0  0  0  0  0  0  0  0  0
   26.6094  -20.1216  -12.2227 C   0  0  0  0  0  0  0  0  0  0  0  0
   25.7634  -19.2136  -12.3129 O   0  0  0  0  0  0  0  0  0  0  0  0
   24.1702  -20.4535  -10.7160 C   0  0  0  0  0  0  0  0  0  0  0  0
   25.0079  -21.0948   -9.6426 C   0  0  2  0  0  0  0  0  0  0  0  0
   24.3554  -20.7362   -8.3164 C   0  0  0  0  0  0  0  0  0  0  0  0
   26.3961  -20.4697   -9.7221 C   0  0  2  0  0  0  0  0  0  0  0  0
   27.0251  -20.6027  -10.9825 N   0  0  0  0  0  0  0  0  0  0  0  0
   27.2902  -20.8343   -8.6379 C   0  0  0  0  0  0  0  0  0  0  0  0
   28.1953  -21.7119   -8.8709 O   0  0  0  0  0  0  0  0  0  0  0  0
   27.3008  -20.3467   -7.3451 O   0  0  0  0  0  0  0  0  0  0  0  0
  2  1  1  0
  2 12  2  0
  3  2  1  0
  4  3  2  0
  4  5  1  0
  5 11  2  0
  6  5  1  0
  7  6  1  0
  7  8  1  1
  9 13  1  0
  9  7  1  0
 10  9  2  0
 11 12  1  0
 14 13  1  0
 14 15  1  6
 16 15  1  0
 17 16  2  0
 18 17  1  0
 19 20  1  0
 19 18  2  0
 20 21  2  0
 21 16  1  0
 22 14  1  0
 22 28  1  0
 23 22  2  0
 25 24  1  6
 25 27  1  0
 26 25  1  0
 27 28  1  6
 27 29  1  0
 29 31  1  0
 30 29  2  0
M  END
$$$$
