YFV.pdb
     RDKit          3D

 31 32  0  0  1  0  0  0  0  0999 V2000
   25.0380  -22.0934  -25.4697 O   0  0  0  0  0  0  0  0  0  0  0  0
   24.7680  -23.0840  -24.5240 C   0  0  0  0  0  0  0  0  0  0  0  0
   24.4958  -22.7631  -23.2121 C   0  0  0  0  0  0  0  0  0  0  0  0
   24.2275  -23.7336  -22.2664 C   0  0  0  0  0  0  0  0  0  0  0  0
   24.2195  -25.0681  -22.5918 C   0  0  0  0  0  0  0  0  0  0  0  0
   23.9328  -26.1603  -21.6460 C   0  0  0  0  0  0  0  0  0  0  0  0
   25.1540  -26.3595  -20.7713 C   0  0  2  0  0  0  0  0  0  0  0  0
   26.3184  -26.7576  -21.4868 N   0  0  0  0  0  0  0  0  0  0  0  0
   24.8419  -27.1383  -19.5638 C   0  0  0  0  0  0  0  0  0  0  0  0
   24.9687  -28.4066  -19.5947 O   0  0  0  0  0  0  0  0  0  0  0  0
   24.4964  -25.3912  -23.9255 C   0  0  0  0  0  0  0  0  0  0  0  0
   24.7637  -24.4239  -24.8670 C   0  0  0  0  0  0  0  0  0  0  0  0
   24.3979  -26.6253  -18.3201 N   0  0  0  0  0  0  0  0  0  0  0  0
   24.1956  -27.4982  -17.1627 C   0  0  1  0  0  0  0  0  0  0  0  0
   24.9635  -26.8594  -16.0318 C   0  0  0  0  0  0  0  0  0  0  0  0
   26.4217  -26.8221  -16.2550 C   0  0  0  0  0  0  0  0  0  0  0  0
   27.2196  -27.9164  -16.0258 C   0  0  0  0  0  0  0  0  0  0  0  0
   28.5731  -27.8062  -16.2522 C   0  0  0  0  0  0  0  0  0  0  0  0
   29.1328  -26.6277  -16.6992 C   0  0  0  0  0  0  0  0  0  0  0  0
   28.3651  -25.5251  -16.9356 C   0  0  0  0  0  0  0  0  0  0  0  0
   26.9962  -25.6444  -16.7045 C   0  0  0  0  0  0  0  0  0  0  0  0
   22.7359  -27.6164  -16.8454 C   0  0  0  0  0  0  0  0  0  0  0  0
   22.0820  -26.5588  -16.8937 O   0  0  0  0  0  0  0  0  0  0  0  0
   20.6956  -31.0468  -17.6711 C   0  0  0  0  0  0  0  0  0  0  0  0
   19.9979  -29.7512  -17.3550 C   0  0  2  0  0  0  0  0  0  0  0  0
   20.0893  -28.8965  -18.6097 C   0  0  0  0  0  0  0  0  0  0  0  0
   20.7713  -29.0892  -16.2203 C   0  0  2  0  0  0  0  0  0  0  0  0
   22.1301  -28.8273  -16.5148 N   0  0  0  0  0  0  0  0  0  0  0  0
   20.6191  -29.7294  -14.9261 C   0  0  0  0  0  0  0  0  0  0  0  0
   21.4981  -30.5932  -14.5727 O   0  0  0  0  0  0  0  0  0  0  0  0
   19.6232  -29.5267  -13.9900 O   0  0  0  0  0  0  0  0  0  0  0  0
  2  1  1  0
  2 12  2  0
  3  2  1  0
  4  3  2  0
  4  5  1  0
  5 11  2  0
  6  5  1  0
  7  6  1  0
  7  8  1  6
  9 13  1  0
  9  7  1  0
 10  9  2  0
 11 12  1  0
 14 13  1  0
 14 15  1  1
 16 15  1  0
 17 16  2  0
 18 17  1  0
 19 20  1  0
 19 18  2  0
 20 21  2  0
 21 16  1  0
 22 14  1  0
 22 28  1  0
 23 22  2  0
 25 24  1  6
 25 27  1  0
 26 25  1  0
 27 28  1  6
 27 29  1  0
 29 31  1  0
 30 29  2  0
M  END
$$$$
