YFV.pdb
     RDKit          3D

 31 32  0  0  1  0  0  0  0  0999 V2000
   28.6168  -17.0399  -18.2560 O   0  0  0  0  0  0  0  0  0  0  0  0
   28.1003  -17.6278  -17.1000 C   0  0  0  0  0  0  0  0  0  0  0  0
   28.6587  -17.3835  -15.8645 C   0  0  0  0  0  0  0  0  0  0  0  0
   28.1576  -17.9592  -14.7131 C   0  0  0  0  0  0  0  0  0  0  0  0
   27.0755  -18.8047  -14.7472 C   0  0  0  0  0  0  0  0  0  0  0  0
   26.4765  -19.4484  -13.5655 C   0  0  0  0  0  0  0  0  0  0  0  0
   27.3524  -20.6208  -13.1723 C   0  0  2  0  0  0  0  0  0  0  0  0
   27.3144  -21.7050  -14.0938 N   0  0  0  0  0  0  0  0  0  0  0  0
   27.1902  -20.9743  -11.7543 C   0  0  0  0  0  0  0  0  0  0  0  0
   26.3707  -21.8977  -11.4357 O   0  0  0  0  0  0  0  0  0  0  0  0
   26.5102  -19.0511  -16.0040 C   0  0  0  0  0  0  0  0  0  0  0  0
   27.0100  -18.4773  -17.1506 C   0  0  0  0  0  0  0  0  0  0  0  0
   27.8635  -20.3855  -10.6555 N   0  0  0  0  0  0  0  0  0  0  0  0
   27.4605  -20.6627   -9.2759 C   0  0  1  0  0  0  0  0  0  0  0  0
   28.4684  -19.9518   -8.4068 C   0  0  0  0  0  0  0  0  0  0  0  0
   28.1779  -20.0512   -6.9634 C   0  0  0  0  0  0  0  0  0  0  0  0
   28.3679  -21.2175   -6.2631 C   0  0  0  0  0  0  0  0  0  0  0  0
   28.0711  -21.2368   -4.9189 C   0  0  0  0  0  0  0  0  0  0  0  0
   27.5909  -20.1168   -4.2733 C   0  0  0  0  0  0  0  0  0  0  0  0
   27.3926  -18.9450   -4.9431 C   0  0  0  0  0  0  0  0  0  0  0  0
   27.6955  -18.9331   -6.3031 C   0  0  0  0  0  0  0  0  0  0  0  0
   26.0677  -20.1686   -9.0285 C   0  0  0  0  0  0  0  0  0  0  0  0
   25.8835  -18.9509   -9.2063 O   0  0  0  0  0  0  0  0  0  0  0  0
   23.2872  -20.0051  -10.7754 C   0  0  0  0  0  0  0  0  0  0  0  0
   22.8123  -20.9607   -9.7140 C   0  0  2  0  0  0  0  0  0  0  0  0
   21.3599  -20.6060   -9.4351 C   0  0  0  0  0  0  0  0  0  0  0  0
   23.6555  -20.7060   -8.4698 C   0  0  2  0  0  0  0  0  0  0  0  0
   25.0295  -21.0060   -8.6241 N   0  0  0  0  0  0  0  0  0  0  0  0
   23.1193  -21.2728   -7.2454 C   0  0  0  0  0  0  0  0  0  0  0  0
   23.7140  -22.2899   -6.7398 O   0  0  0  0  0  0  0  0  0  0  0  0
   22.0190  -20.8503   -6.5243 O   0  0  0  0  0  0  0  0  0  0  0  0
  2  1  1  0
  2 12  2  0
  3  2  1  0
  4  3  2  0
  4  5  1  0
  5 11  2  0
  6  5  1  0
  7  6  1  0
  7  8  1  6
  9 13  1  0
  9  7  1  0
 10  9  2  0
 11 12  1  0
 14 13  1  0
 14 15  1  1
 16 15  1  0
 17 16  2  0
 18 17  1  0
 19 20  1  0
 19 18  2  0
 20 21  2  0
 21 16  1  0
 22 14  1  0
 22 28  1  0
 23 22  2  0
 25 24  1  6
 25 27  1  0
 26 25  1  0
 27 28  1  6
 27 29  1  0
 29 31  1  0
 30 29  2  0
M  END
$$$$
