KGL.pdb
     RDKit          3D

 22 21  0  0  1  0  0  0  0  0999 V2000
   25.8608  -21.3355  -15.4517 N   0  0  0  0  0  0  0  0  0  0  0  0
   25.3910  -20.1541  -14.7877 C   0  0  1  0  0  0  0  0  0  0  0  0
   23.9320  -20.1965  -14.5534 C   0  0  0  0  0  0  0  0  0  0  0  0
   23.3362  -21.5424  -14.7364 C   0  0  0  0  0  0  0  0  0  0  0  0
   22.8908  -21.9088  -16.1188 C   0  0  0  0  0  0  0  0  0  0  0  0
   22.1186  -23.2315  -16.1021 C   0  0  0  0  0  0  0  0  0  0  0  0
   21.6524  -23.5633  -17.4316 N   0  0  0  0  0  0  0  0  0  0  0  0
   26.1739  -19.8531  -13.5571 C   0  0  0  0  0  0  0  0  0  0  0  0
   25.8762  -18.8232  -12.9084 O   0  0  0  0  0  0  0  0  0  0  0  0
   27.2336  -20.6789  -13.0950 N   0  0  0  0  0  0  0  0  0  0  0  0
   28.0074  -20.3941  -11.9171 C   0  0  0  0  0  0  0  0  0  0  0  0
   27.3946  -20.9616  -10.6809 C   0  0  0  0  0  0  0  0  0  0  0  0
   27.1880  -22.2005  -10.6098 O   0  0  0  0  0  0  0  0  0  0  0  0
   28.6103  -18.4552   -5.8698 C   0  0  0  0  0  0  0  0  0  0  0  0
   28.2990  -19.4194   -6.9618 C   0  0  1  0  0  0  0  0  0  0  0  0
   28.9367  -20.7577   -6.5572 C   0  0  0  0  0  0  0  0  0  0  0  0
   26.8709  -19.6817   -7.2327 C   0  0  0  0  0  0  0  0  0  0  0  0
   26.5341  -20.5295   -8.4062 C   0  0  2  0  0  0  0  0  0  0  0  0
   27.0772  -20.0556   -9.6446 N   0  0  0  0  0  0  0  0  0  0  0  0
   25.0858  -20.8303   -8.5561 C   0  0  0  0  0  0  0  0  0  0  0  0
   24.3743  -21.6146   -7.6620 O   0  0  0  0  0  0  0  0  0  0  0  0
   24.4185  -20.3700   -9.5371 O   0  0  0  0  0  0  0  0  0  0  0  0
  2  1  1  1
  2  3  1  0
  4  3  1  0
  5  4  1  0
  6  5  1  0
  7  6  1  0
  8  9  2  0
  8  2  1  0
 10  8  1  0
 11 12  1  0
 11 10  1  0
 12 19  1  0
 13 12  2  0
 15 14  1  1
 15 16  1  0
 17 15  1  0
 18 17  1  1
 18 20  1  0
 19 18  1  0
 20 22  2  0
 20 21  1  0
M  END
$$$$
