KGL.pdb
     RDKit          3D

 22 21  0  0  1  0  0  0  0  0999 V2000
   23.6247  -21.6143  -13.8005 N   0  0  0  0  0  0  0  0  0  0  0  0
   24.7823  -21.0201  -14.4041 C   0  0  1  0  0  0  0  0  0  0  0  0
   24.4376  -20.2511  -15.6186 C   0  0  0  0  0  0  0  0  0  0  0  0
   23.2670  -20.7884  -16.3540 C   0  0  0  0  0  0  0  0  0  0  0  0
   21.9130  -20.3223  -15.9147 C   0  0  0  0  0  0  0  0  0  0  0  0
   20.8208  -20.9364  -16.7959 C   0  0  0  0  0  0  0  0  0  0  0  0
   19.5097  -20.5392  -16.3289 N   0  0  0  0  0  0  0  0  0  0  0  0
   25.5875  -20.2392  -13.4244 C   0  0  0  0  0  0  0  0  0  0  0  0
   26.6841  -19.7690  -13.8072 O   0  0  0  0  0  0  0  0  0  0  0  0
   25.1656  -20.0088  -12.0875 N   0  0  0  0  0  0  0  0  0  0  0  0
   25.9115  -19.2223  -11.1430 C   0  0  0  0  0  0  0  0  0  0  0  0
   26.4358  -20.0381  -10.0092 C   0  0  0  0  0  0  0  0  0  0  0  0
   26.6364  -21.2686  -10.1781 O   0  0  0  0  0  0  0  0  0  0  0  0
   29.5453  -20.7797   -5.5477 C   0  0  0  0  0  0  0  0  0  0  0  0
   28.3786  -19.8615   -5.4278 C   0  0  1  0  0  0  0  0  0  0  0  0
   28.8073  -18.7329   -4.4770 C   0  0  0  0  0  0  0  0  0  0  0  0
   27.9005  -19.2246   -6.6719 C   0  0  0  0  0  0  0  0  0  0  0  0
   27.1883  -20.0800   -7.6570 C   0  0  2  0  0  0  0  0  0  0  0  0
   26.6801  -19.3664   -8.7908 N   0  0  0  0  0  0  0  0  0  0  0  0
   26.1308  -20.9465   -7.0725 C   0  0  0  0  0  0  0  0  0  0  0  0
   26.3671  -22.2336   -6.6160 O   0  0  0  0  0  0  0  0  0  0  0  0
   24.9316  -20.5348   -6.9636 O   0  0  0  0  0  0  0  0  0  0  0  0
  2  1  1  1
  2  3  1  0
  4  3  1  0
  5  4  1  0
  6  5  1  0
  7  6  1  0
  8  9  2  0
  8  2  1  0
 10  8  1  0
 11 12  1  0
 11 10  1  0
 12 19  1  0
 13 12  2  0
 15 14  1  6
 15 16  1  0
 17 15  1  0
 18 17  1  1
 18 20  1  0
 19 18  1  0
 20 22  2  0
 20 21  1  0
M  END
$$$$
