KGL.pdb
     RDKit          3D

 22 21  0  0  1  0  0  0  0  0999 V2000
   26.5576  -17.4951  -14.8526 N   0  0  0  0  0  0  0  0  0  0  0  0
   25.9661  -18.6484  -14.2381 C   0  0  1  0  0  0  0  0  0  0  0  0
   25.0853  -19.3805  -15.1728 C   0  0  0  0  0  0  0  0  0  0  0  0
   24.4992  -18.5267  -16.2345 C   0  0  0  0  0  0  0  0  0  0  0  0
   23.4041  -17.5889  -15.8285 C   0  0  0  0  0  0  0  0  0  0  0  0
   22.8023  -16.9005  -17.0574 C   0  0  0  0  0  0  0  0  0  0  0  0
   21.7535  -15.9845  -16.6627 N   0  0  0  0  0  0  0  0  0  0  0  0
   26.9823  -19.5198  -13.5856 C   0  0  0  0  0  0  0  0  0  0  0  0
   28.1733  -19.1305  -13.5794 O   0  0  0  0  0  0  0  0  0  0  0  0
   26.6578  -20.7617  -12.9766 N   0  0  0  0  0  0  0  0  0  0  0  0
   27.6079  -21.5666  -12.2578 C   0  0  0  0  0  0  0  0  0  0  0  0
   27.3328  -21.6015  -10.7919 C   0  0  0  0  0  0  0  0  0  0  0  0
   27.9748  -22.4025  -10.0646 O   0  0  0  0  0  0  0  0  0  0  0  0
   28.4032  -18.6375   -6.8288 C   0  0  0  0  0  0  0  0  0  0  0  0
   27.8794  -19.7659   -7.6482 C   0  0  1  0  0  0  0  0  0  0  0  0
   28.0043  -21.0291   -6.7820 C   0  0  0  0  0  0  0  0  0  0  0  0
   26.4715  -19.6752   -8.0856 C   0  0  0  0  0  0  0  0  0  0  0  0
   25.9370  -20.7766   -8.9285 C   0  0  2  0  0  0  0  0  0  0  0  0
   26.3487  -20.7157  -10.2995 N   0  0  0  0  0  0  0  0  0  0  0  0
   24.4651  -20.9666   -8.8366 C   0  0  0  0  0  0  0  0  0  0  0  0
   23.8349  -21.5079   -7.7274 O   0  0  0  0  0  0  0  0  0  0  0  0
   23.6996  -20.6330   -9.7970 O   0  0  0  0  0  0  0  0  0  0  0  0
  2  1  1  6
  2  3  1  0
  4  3  1  0
  5  4  1  0
  6  5  1  0
  7  6  1  0
  8  9  2  0
  8  2  1  0
 10  8  1  0
 11 12  1  0
 11 10  1  0
 12 19  1  0
 13 12  2  0
 15 14  1  1
 15 16  1  0
 17 15  1  0
 18 17  1  1
 18 20  1  0
 19 18  1  0
 20 22  2  0
 20 21  1  0
M  END
$$$$
