KGL.pdb
     RDKit          3D

 22 21  0  0  1  0  0  0  0  0999 V2000
   16.9438  -14.8609  -16.5531 N   0  0  0  0  0  0  0  0  0  0  0  0
   15.7616  -14.7113  -15.7546 C   0  0  1  0  0  0  0  0  0  0  0  0
   15.7234  -15.6807  -14.6392 C   0  0  0  0  0  0  0  0  0  0  0  0
   15.8427  -17.0944  -15.0716 C   0  0  0  0  0  0  0  0  0  0  0  0
   15.7675  -18.1427  -14.0043 C   0  0  0  0  0  0  0  0  0  0  0  0
   15.7023  -19.5406  -14.6271 C   0  0  0  0  0  0  0  0  0  0  0  0
   15.7480  -20.5570  -13.5976 N   0  0  0  0  0  0  0  0  0  0  0  0
   15.5557  -13.3034  -15.3152 C   0  0  0  0  0  0  0  0  0  0  0  0
   14.5724  -13.0553  -14.5792 O   0  0  0  0  0  0  0  0  0  0  0  0
   16.4211  -12.2421  -15.6935 N   0  0  0  0  0  0  0  0  0  0  0  0
   16.2446  -10.8813  -15.2643 C   0  0  0  0  0  0  0  0  0  0  0  0
   17.3954  -10.0101  -15.6417 C   0  0  0  0  0  0  0  0  0  0  0  0
   18.3926  -10.5218  -16.2132 O   0  0  0  0  0  0  0  0  0  0  0  0
   16.0289   -4.9850  -17.1833 C   0  0  0  0  0  0  0  0  0  0  0  0
   16.6985   -6.3076  -17.0379 C   0  0  1  0  0  0  0  0  0  0  0  0
   17.2290   -6.6837  -18.4303 C   0  0  0  0  0  0  0  0  0  0  0  0
   17.8401   -6.3780  -16.1033 C   0  0  0  0  0  0  0  0  0  0  0  0
   18.3311   -7.7252  -15.7117 C   0  0  2  0  0  0  0  0  0  0  0  0
   17.2939   -8.6365  -15.3284 N   0  0  0  0  0  0  0  0  0  0  0  0
   19.4158   -7.7161  -14.6948 C   0  0  0  0  0  0  0  0  0  0  0  0
   19.3141   -8.3513  -13.4672 O   0  0  0  0  0  0  0  0  0  0  0  0
   20.5129   -7.1087  -14.9116 O   0  0  0  0  0  0  0  0  0  0  0  0
  2  1  1  1
  2  3  1  0
  4  3  1  0
  5  4  1  0
  6  5  1  0
  7  6  1  0
  8  9  2  0
  8  2  1  0
 10  8  1  0
 11 12  1  0
 11 10  1  0
 12 19  1  0
 13 12  2  0
 15 14  1  6
 15 16  1  0
 17 15  1  0
 18 17  1  1
 18 20  1  0
 19 18  1  0
 20 22  2  0
 20 21  1  0
M  END
$$$$
