KGL.pdb
     RDKit          3D

 22 21  0  0  1  0  0  0  0  0999 V2000
   26.0124  -22.0658  -15.5294 N   0  0  0  0  0  0  0  0  0  0  0  0
   26.4229  -20.7047  -15.7206 C   0  0  1  0  0  0  0  0  0  0  0  0
   25.3081  -19.8528  -16.1864 C   0  0  0  0  0  0  0  0  0  0  0  0
   25.1270  -19.8577  -17.6585 C   0  0  0  0  0  0  0  0  0  0  0  0
   24.4987  -21.0751  -18.2643 C   0  0  0  0  0  0  0  0  0  0  0  0
   24.3679  -20.9141  -19.7819 C   0  0  0  0  0  0  0  0  0  0  0  0
   23.8053  -22.1101  -20.3720 N   0  0  0  0  0  0  0  0  0  0  0  0
   27.1202  -20.1557  -14.5247 C   0  0  0  0  0  0  0  0  0  0  0  0
   27.6059  -19.0034  -14.6051 O   0  0  0  0  0  0  0  0  0  0  0  0
   27.2550  -20.8794  -13.3096 N   0  0  0  0  0  0  0  0  0  0  0  0
   27.7014  -20.2878  -12.0775 C   0  0  0  0  0  0  0  0  0  0  0  0
   26.9309  -20.7773  -10.8975 C   0  0  0  0  0  0  0  0  0  0  0  0
   26.2530  -21.8322  -11.0002 O   0  0  0  0  0  0  0  0  0  0  0  0
   28.6659  -18.5933   -6.0194 C   0  0  0  0  0  0  0  0  0  0  0  0
   28.2564  -19.4660   -7.1550 C   0  0  1  0  0  0  0  0  0  0  0  0
   28.9757  -20.8092   -6.9547 C   0  0  0  0  0  0  0  0  0  0  0  0
   26.8145  -19.7592   -7.2846 C   0  0  0  0  0  0  0  0  0  0  0  0
   26.3583  -20.4545   -8.5165 C   0  0  2  0  0  0  0  0  0  0  0  0
   27.0108  -20.0119   -9.7129 N   0  0  0  0  0  0  0  0  0  0  0  0
   24.8837  -20.4725   -8.7059 C   0  0  0  0  0  0  0  0  0  0  0  0
   24.0193  -21.1813   -7.8867 O   0  0  0  0  0  0  0  0  0  0  0  0
   24.3361  -19.8222   -9.6529 O   0  0  0  0  0  0  0  0  0  0  0  0
  2  1  1  1
  2  3  1  0
  4  3  1  0
  5  4  1  0
  6  5  1  0
  7  6  1  0
  8  9  2  0
  8  2  1  0
 10  8  1  0
 11 12  1  0
 11 10  1  0
 12 19  1  0
 13 12  2  0
 15 14  1  1
 15 16  1  0
 17 15  1  0
 18 17  1  1
 18 20  1  0
 19 18  1  0
 20 22  2  0
 20 21  1  0
M  END
$$$$
