KGL.pdb
     RDKit          3D

 22 21  0  0  1  0  0  0  0  0999 V2000
   23.5093  -21.5384  -14.8909 N   0  0  0  0  0  0  0  0  0  0  0  0
   24.5914  -20.6370  -15.1628 C   0  0  1  0  0  0  0  0  0  0  0  0
   24.1439  -19.4523  -15.9253 C   0  0  0  0  0  0  0  0  0  0  0  0
   22.8144  -19.6182  -16.5615 C   0  0  0  0  0  0  0  0  0  0  0  0
   21.6129  -19.3201  -15.7182 C   0  0  0  0  0  0  0  0  0  0  0  0
   20.3387  -19.3499  -16.5678 C   0  0  0  0  0  0  0  0  0  0  0  0
   19.1659  -19.2376  -15.7270 N   0  0  0  0  0  0  0  0  0  0  0  0
   25.3540  -20.2884  -13.9320 C   0  0  0  0  0  0  0  0  0  0  0  0
   24.7903  -19.5676  -13.0759 O   0  0  0  0  0  0  0  0  0  0  0  0
   26.6809  -20.7362  -13.6930 N   0  0  0  0  0  0  0  0  0  0  0  0
   27.4170  -20.4370  -12.4947 C   0  0  0  0  0  0  0  0  0  0  0  0
   26.7869  -21.0241  -11.2765 C   0  0  0  0  0  0  0  0  0  0  0  0
   26.2898  -22.1783  -11.3366 O   0  0  0  0  0  0  0  0  0  0  0  0
   28.2922  -18.4565   -6.5064 C   0  0  0  0  0  0  0  0  0  0  0  0
   28.0030  -19.4160   -7.6085 C   0  0  1  0  0  0  0  0  0  0  0  0
   28.9526  -20.6078   -7.4099 C   0  0  0  0  0  0  0  0  0  0  0  0
   26.6311  -19.9591   -7.6772 C   0  0  0  0  0  0  0  0  0  0  0  0
   26.2606  -20.7520   -8.8786 C   0  0  2  0  0  0  0  0  0  0  0  0
   26.7866  -20.2330  -10.1062 N   0  0  0  0  0  0  0  0  0  0  0  0
   24.8057  -21.0274   -9.0127 C   0  0  0  0  0  0  0  0  0  0  0  0
   24.1023  -21.8462   -8.1434 O   0  0  0  0  0  0  0  0  0  0  0  0
   24.1247  -20.5113   -9.9558 O   0  0  0  0  0  0  0  0  0  0  0  0
  2  1  1  1
  2  3  1  0
  4  3  1  0
  5  4  1  0
  6  5  1  0
  7  6  1  0
  8  9  2  0
  8  2  1  0
 10  8  1  0
 11 12  1  0
 11 10  1  0
 12 19  1  0
 13 12  2  0
 15 14  1  1
 15 16  1  0
 17 15  1  0
 18 17  1  1
 18 20  1  0
 19 18  1  0
 20 22  2  0
 20 21  1  0
M  END
$$$$
