KGL.pdb
     RDKit          3D

 22 21  0  0  1  0  0  0  0  0999 V2000
   26.1237  -21.1514  -15.2368 N   0  0  0  0  0  0  0  0  0  0  0  0
   26.4909  -19.7935  -14.9556 C   0  0  1  0  0  0  0  0  0  0  0  0
   27.8766  -19.4984  -15.3774 C   0  0  0  0  0  0  0  0  0  0  0  0
   28.7028  -20.7090  -15.6049 C   0  0  0  0  0  0  0  0  0  0  0  0
   28.5589  -21.3938  -16.9293 C   0  0  0  0  0  0  0  0  0  0  0  0
   29.5670  -22.5403  -17.0542 C   0  0  0  0  0  0  0  0  0  0  0  0
   29.3135  -23.3098  -18.2536 N   0  0  0  0  0  0  0  0  0  0  0  0
   25.4962  -18.8215  -15.4882 C   0  0  0  0  0  0  0  0  0  0  0  0
   25.1673  -18.9182  -16.6935 O   0  0  0  0  0  0  0  0  0  0  0  0
   24.9120  -17.8001  -14.6921 N   0  0  0  0  0  0  0  0  0  0  0  0
   24.0372  -16.7865  -15.2162 C   0  0  0  0  0  0  0  0  0  0  0  0
   22.7020  -17.3289  -15.6019 C   0  0  0  0  0  0  0  0  0  0  0  0
   21.6942  -16.5777  -15.5484 O   0  0  0  0  0  0  0  0  0  0  0  0
   22.0801  -21.3495  -19.6442 C   0  0  0  0  0  0  0  0  0  0  0  0
   22.0218  -20.1756  -18.7291 C   0  0  1  0  0  0  0  0  0  0  0  0
   21.0258  -19.1852  -19.3525 C   0  0  0  0  0  0  0  0  0  0  0  0
   21.5736  -20.4307  -17.3449 C   0  0  0  0  0  0  0  0  0  0  0  0
   21.4120  -19.2599  -16.4436 C   0  0  2  0  0  0  0  0  0  0  0  0
   22.6490  -18.6797  -16.0119 N   0  0  0  0  0  0  0  0  0  0  0  0
   20.5151  -19.4940  -15.2811 C   0  0  0  0  0  0  0  0  0  0  0  0
   19.1674  -19.1705  -15.2818 O   0  0  0  0  0  0  0  0  0  0  0  0
   20.9562  -20.0141  -14.2067 O   0  0  0  0  0  0  0  0  0  0  0  0
  2  1  1  6
  2  3  1  0
  4  3  1  0
  5  4  1  0
  6  5  1  0
  7  6  1  0
  8  9  2  0
  8  2  1  0
 10  8  1  0
 11 12  1  0
 11 10  1  0
 12 19  1  0
 13 12  2  0
 15 14  1  6
 15 16  1  0
 17 15  1  0
 18 17  1  1
 18 20  1  0
 19 18  1  0
 20 22  2  0
 20 21  1  0
M  END
$$$$
