KPR.pdb
     RDKit          3D

 28 28  0  0  1  0  0  0  0  0999 V2000
    9.8521  -16.3024   15.7175 N   0  0  0  0  0  0  0  0  0  0  0  0
    8.8127  -16.1837   16.6983 C   0  0  1  0  0  0  0  0  0  0  0  0
    8.0896  -17.5111   16.9011 C   0  0  0  0  0  0  0  0  0  0  0  0
    7.2935  -17.8343   15.6822 C   0  0  0  0  0  0  0  0  0  0  0  0
    6.6713  -19.1973   15.8387 C   0  0  0  0  0  0  0  0  0  0  0  0
    5.6074  -19.1958   16.8925 C   0  0  0  0  0  0  0  0  0  0  0  0
    4.9552  -20.5059   16.9959 N   0  0  0  0  0  0  0  0  0  0  0  0
    9.2111  -15.6114   17.9816 C   0  0  0  0  0  0  0  0  0  0  0  0
   10.2850  -16.0826   18.4935 O   0  0  0  0  0  0  0  0  0  0  0  0
    8.5379  -14.5990   18.7089 N   0  0  0  0  0  0  0  0  0  0  0  0
    7.3334  -13.9010   18.3140 C   0  0  0  0  0  0  0  0  0  0  0  0
    6.8472  -13.3017   19.6122 C   0  0  0  0  0  0  0  0  0  0  0  0
    8.1688  -12.8372   20.2201 C   0  0  0  0  0  0  0  0  0  0  0  0
    8.9921  -14.0925   20.0063 C   0  0  1  0  0  0  0  0  0  0  0  0
    8.8052  -15.0940   21.0716 C   0  0  0  0  0  0  0  0  0  0  0  0
    7.7598  -15.8177   21.0481 O   0  0  0  0  0  0  0  0  0  0  0  0
   14.3766  -21.0162   25.6732 N   0  0  0  0  0  0  0  0  0  0  0  0
   13.3713  -21.1278   24.6758 C   0  0  0  0  0  0  0  0  0  0  0  0
   13.4720  -22.0123   23.7643 N   0  0  0  0  0  0  0  0  0  0  0  0
   12.2314  -20.2738   24.6515 N   0  0  0  0  0  0  0  0  0  0  0  0
   12.1322  -19.1367   23.7715 C   0  0  0  0  0  0  0  0  0  0  0  0
   10.8531  -18.3654   23.9672 C   0  0  0  0  0  0  0  0  0  0  0  0
   10.8122  -17.2093   23.0298 C   0  0  0  0  0  0  0  0  0  0  0  0
    9.5524  -16.3657   23.1308 C   0  0  2  0  0  0  0  0  0  0  0  0
    9.7044  -15.3184   22.1306 N   0  0  0  0  0  0  0  0  0  0  0  0
    9.4907  -15.7236   24.4554 C   0  0  0  0  0  0  0  0  0  0  0  0
    9.9108  -14.5606   24.6974 O   0  0  0  0  0  0  0  0  0  0  0  0
    8.9430  -16.4089   25.5310 O   0  0  0  0  0  0  0  0  0  0  0  0
  2  1  1  6
  3  4  1  0
  3  2  1  0
  4  5  1  0
  5  6  1  0
  7  6  1  0
  8  2  1  0
  9  8  2  0
 10  8  1  0
 11 10  1  0
 12 13  1  0
 12 11  1  0
 13 14  1  0
 14 10  1  0
 14 15  1  1
 15 16  2  0
 17 18  1  0
 18 19  2  0
 18 20  1  0
 20 21  1  0
 21 22  1  0
 22 23  1  0
 24 23  1  1
 25 15  1  0
 25 24  1  0
 26 24  1  0
 26 28  1  0
 27 26  2  0
M  END
$$$$
