KPR.pdb
     RDKit          3D

 28 28  0  0  1  0  0  0  0  0999 V2000
    9.5701  -13.1552   17.4052 N   0  0  0  0  0  0  0  0  0  0  0  0
    8.6969  -13.8316   18.3199 C   0  0  1  0  0  0  0  0  0  0  0  0
    8.2070  -15.1546   17.7406 C   0  0  0  0  0  0  0  0  0  0  0  0
    9.2957  -15.7770   16.9336 C   0  0  0  0  0  0  0  0  0  0  0  0
    8.8236  -17.1026   16.3956 C   0  0  0  0  0  0  0  0  0  0  0  0
    9.7962  -17.6708   15.4090 C   0  0  0  0  0  0  0  0  0  0  0  0
    9.3102  -18.9357   14.8467 N   0  0  0  0  0  0  0  0  0  0  0  0
    9.2146  -14.0202   19.6724 C   0  0  0  0  0  0  0  0  0  0  0  0
   10.4815  -14.1723   19.7688 O   0  0  0  0  0  0  0  0  0  0  0  0
    8.4660  -14.0509   20.8748 N   0  0  0  0  0  0  0  0  0  0  0  0
    7.0336  -13.8969   21.0100 C   0  0  0  0  0  0  0  0  0  0  0  0
    6.7612  -14.4508   22.3884 C   0  0  0  0  0  0  0  0  0  0  0  0
    7.9481  -13.8794   23.1609 C   0  0  0  0  0  0  0  0  0  0  0  0
    9.0636  -14.2397   22.1990 C   0  0  1  0  0  0  0  0  0  0  0  0
    9.5567  -15.6173   22.3766 C   0  0  0  0  0  0  0  0  0  0  0  0
    8.8640  -16.5754   21.9083 O   0  0  0  0  0  0  0  0  0  0  0  0
   16.2087  -13.9013   21.3124 N   0  0  0  0  0  0  0  0  0  0  0  0
   15.2969  -14.4240   20.3568 C   0  0  0  0  0  0  0  0  0  0  0  0
   14.7556  -13.6502   19.5014 N   0  0  0  0  0  0  0  0  0  0  0  0
   14.9550  -15.8062   20.3142 N   0  0  0  0  0  0  0  0  0  0  0  0
   14.5489  -16.5416   21.4853 C   0  0  0  0  0  0  0  0  0  0  0  0
   13.0590  -16.5018   21.7039 C   0  0  0  0  0  0  0  0  0  0  0  0
   12.7039  -17.3011   22.9089 C   0  0  0  0  0  0  0  0  0  0  0  0
   11.2180  -17.3311   23.2248 C   0  0  2  0  0  0  0  0  0  0  0  0
   10.7519  -15.9649   23.0332 N   0  0  0  0  0  0  0  0  0  0  0  0
   11.0194  -17.6845   24.6412 C   0  0  0  0  0  0  0  0  0  0  0  0
   10.5708  -16.8914   25.5116 O   0  0  0  0  0  0  0  0  0  0  0  0
   11.3341  -18.9612   25.0858 O   0  0  0  0  0  0  0  0  0  0  0  0
  2  1  1  6
  3  4  1  0
  3  2  1  0
  4  5  1  0
  5  6  1  0
  7  6  1  0
  8  2  1  0
  9  8  2  0
 10  8  1  0
 11 10  1  0
 12 13  1  0
 12 11  1  0
 13 14  1  0
 14 10  1  0
 14 15  1  1
 15 16  2  0
 17 18  1  0
 18 19  2  0
 18 20  1  0
 20 21  1  0
 21 22  1  0
 22 23  1  0
 24 23  1  1
 25 15  1  0
 25 24  1  0
 26 24  1  0
 26 28  1  0
 27 26  2  0
M  END
$$$$
