KPR.pdb
     RDKit          3D

 28 28  0  0  1  0  0  0  0  0999 V2000
    8.4580  -15.3066   14.0784 N   0  0  0  0  0  0  0  0  0  0  0  0
    8.0525  -15.4756   15.4435 C   0  0  1  0  0  0  0  0  0  0  0  0
    7.8858  -16.9509   15.7921 C   0  0  0  0  0  0  0  0  0  0  0  0
    9.2148  -17.6257   15.7449 C   0  0  0  0  0  0  0  0  0  0  0  0
    9.0550  -19.0718   16.1360 C   0  0  0  0  0  0  0  0  0  0  0  0
   10.3676  -19.7923   16.1167 C   0  0  0  0  0  0  0  0  0  0  0  0
   10.2273  -21.1721   16.5952 N   0  0  0  0  0  0  0  0  0  0  0  0
    8.8777  -14.7993   16.4409 C   0  0  0  0  0  0  0  0  0  0  0  0
   10.1283  -14.7327   16.1782 O   0  0  0  0  0  0  0  0  0  0  0  0
    8.4398  -14.2157   17.6553 N   0  0  0  0  0  0  0  0  0  0  0  0
    7.1002  -14.2495   18.2015 C   0  0  0  0  0  0  0  0  0  0  0  0
    7.3157  -13.8872   19.6518 C   0  0  0  0  0  0  0  0  0  0  0  0
    8.3568  -12.7785   19.5132 C   0  0  0  0  0  0  0  0  0  0  0  0
    9.3145  -13.4595   18.5548 C   0  0  1  0  0  0  0  0  0  0  0  0
   10.2813  -14.3410   19.2337 C   0  0  0  0  0  0  0  0  0  0  0  0
    9.9538  -15.5509   19.4478 O   0  0  0  0  0  0  0  0  0  0  0  0
   18.9930  -12.6924   20.2342 N   0  0  0  0  0  0  0  0  0  0  0  0
   18.8451  -14.0922   20.4254 C   0  0  0  0  0  0  0  0  0  0  0  0
   19.8725  -14.8236   20.6070 N   0  0  0  0  0  0  0  0  0  0  0  0
   17.5693  -14.7257   20.4221 N   0  0  0  0  0  0  0  0  0  0  0  0
   16.3448  -14.0037   20.1843 C   0  0  0  0  0  0  0  0  0  0  0  0
   15.1327  -14.8978   20.2126 C   0  0  0  0  0  0  0  0  0  0  0  0
   13.9094  -14.0993   19.9249 C   0  0  0  0  0  0  0  0  0  0  0  0
   12.6083  -14.8676   20.0848 C   0  0  2  0  0  0  0  0  0  0  0  0
   11.5591  -13.9462   19.6719 N   0  0  0  0  0  0  0  0  0  0  0  0
   12.3953  -15.1913   21.5062 C   0  0  0  0  0  0  0  0  0  0  0  0
   11.6621  -14.5213   22.2816 O   0  0  0  0  0  0  0  0  0  0  0  0
   13.0234  -16.2956   22.0654 O   0  0  0  0  0  0  0  0  0  0  0  0
  2  1  1  6
  3  4  1  0
  3  2  1  0
  4  5  1  0
  5  6  1  0
  7  6  1  0
  8  2  1  0
  9  8  2  0
 10  8  1  0
 11 10  1  0
 12 13  1  0
 12 11  1  0
 13 14  1  0
 14 10  1  0
 14 15  1  1
 15 16  2  0
 17 18  1  0
 18 19  2  0
 18 20  1  0
 20 21  1  0
 21 22  1  0
 22 23  1  0
 24 23  1  1
 25 15  1  0
 25 24  1  0
 26 24  1  0
 26 28  1  0
 27 26  2  0
M  END
$$$$
