KPR.pdb
     RDKit          3D

 28 28  0  0  1  0  0  0  0  0999 V2000
    7.1866  -14.0986   25.7191 N   0  0  0  0  0  0  0  0  0  0  0  0
    7.2920  -14.8386   24.4953 C   0  0  1  0  0  0  0  0  0  0  0  0
    8.0370  -14.0415   23.4297 C   0  0  0  0  0  0  0  0  0  0  0  0
    7.2372  -14.0263   22.1710 C   0  0  0  0  0  0  0  0  0  0  0  0
    8.0080  -13.3023   21.0980 C   0  0  0  0  0  0  0  0  0  0  0  0
    7.2204  -13.2070   19.8280 C   0  0  0  0  0  0  0  0  0  0  0  0
    7.9777  -12.5139   18.7799 N   0  0  0  0  0  0  0  0  0  0  0  0
    7.8432  -16.1860   24.6118 C   0  0  0  0  0  0  0  0  0  0  0  0
    8.8785  -16.3032   25.3546 O   0  0  0  0  0  0  0  0  0  0  0  0
    7.3539  -17.3632   23.9938 N   0  0  0  0  0  0  0  0  0  0  0  0
    6.2007  -17.4738   23.1267 C   0  0  0  0  0  0  0  0  0  0  0  0
    6.4217  -18.7981   22.4352 C   0  0  0  0  0  0  0  0  0  0  0  0
    6.9339  -19.6420   23.6003 C   0  0  0  0  0  0  0  0  0  0  0  0
    7.9657  -18.6836   24.1627 C   0  0  1  0  0  0  0  0  0  0  0  0
    9.2666  -18.7670   23.4748 C   0  0  0  0  0  0  0  0  0  0  0  0
    9.9481  -19.8342   23.5915 O   0  0  0  0  0  0  0  0  0  0  0  0
    8.9356  -14.5462   16.4656 N   0  0  0  0  0  0  0  0  0  0  0  0
    8.5853  -15.9228   16.4813 C   0  0  0  0  0  0  0  0  0  0  0  0
    7.8981  -16.4173   15.5290 N   0  0  0  0  0  0  0  0  0  0  0  0
    8.9781  -16.7916   17.5395 N   0  0  0  0  0  0  0  0  0  0  0  0
    9.8417  -16.3669   18.6124 C   0  0  0  0  0  0  0  0  0  0  0  0
   10.0462  -17.4412   19.6484 C   0  0  0  0  0  0  0  0  0  0  0  0
   10.9110  -16.9265   20.7456 C   0  0  0  0  0  0  0  0  0  0  0  0
   11.0593  -17.8751   21.9233 C   0  0  2  0  0  0  0  0  0  0  0  0
    9.8258  -17.7445   22.6859 N   0  0  0  0  0  0  0  0  0  0  0  0
   12.1725  -17.4310   22.7802 C   0  0  0  0  0  0  0  0  0  0  0  0
   12.0240  -16.8956   23.9111 O   0  0  0  0  0  0  0  0  0  0  0  0
   13.4826  -17.5947   22.3518 O   0  0  0  0  0  0  0  0  0  0  0  0
  2  1  1  1
  3  4  1  0
  3  2  1  0
  4  5  1  0
  5  6  1  0
  7  6  1  0
  8  2  1  0
  9  8  2  0
 10  8  1  0
 11 10  1  0
 12 13  1  0
 12 11  1  0
 13 14  1  0
 14 10  1  0
 14 15  1  6
 15 16  2  0
 17 18  1  0
 18 19  2  0
 18 20  1  0
 20 21  1  0
 21 22  1  0
 22 23  1  0
 24 23  1  6
 25 15  1  0
 25 24  1  0
 26 24  1  0
 26 28  1  0
 27 26  2  0
M  END
$$$$
