KPR.pdb
     RDKit          3D

 28 28  0  0  1  0  0  0  0  0999 V2000
    8.0715  -16.8478   16.1838 N   0  0  0  0  0  0  0  0  0  0  0  0
    7.4966  -16.5711   17.4682 C   0  0  1  0  0  0  0  0  0  0  0  0
    6.8787  -17.8245   18.0789 C   0  0  0  0  0  0  0  0  0  0  0  0
    5.8571  -18.3802   17.1453 C   0  0  0  0  0  0  0  0  0  0  0  0
    5.2420  -19.6133   17.7542 C   0  0  0  0  0  0  0  0  0  0  0  0
    4.2034  -20.2083   16.8545 C   0  0  0  0  0  0  0  0  0  0  0  0
    3.6071  -21.4103   17.4477 N   0  0  0  0  0  0  0  0  0  0  0  0
    8.3741  -15.9074   18.4286 C   0  0  0  0  0  0  0  0  0  0  0  0
    9.5337  -16.4276   18.5772 O   0  0  0  0  0  0  0  0  0  0  0  0
    8.0762  -14.7591   19.2031 N   0  0  0  0  0  0  0  0  0  0  0  0
    6.8769  -13.9524   19.1342 C   0  0  0  0  0  0  0  0  0  0  0  0
    6.9078  -13.1863   20.4354 C   0  0  0  0  0  0  0  0  0  0  0  0
    8.3926  -12.8403   20.5230 C   0  0  0  0  0  0  0  0  0  0  0  0
    8.9810  -14.2029   20.2121 C   0  0  1  0  0  0  0  0  0  0  0  0
    9.0712  -15.0766   21.3958 C   0  0  0  0  0  0  0  0  0  0  0  0
    8.0214  -15.6770   21.7888 O   0  0  0  0  0  0  0  0  0  0  0  0
   13.6375  -22.7681   22.3431 N   0  0  0  0  0  0  0  0  0  0  0  0
   12.5815  -21.9247   22.7806 C   0  0  0  0  0  0  0  0  0  0  0  0
   12.1786  -21.9806   23.9881 N   0  0  0  0  0  0  0  0  0  0  0  0
   11.9403  -20.9999   21.9072 N   0  0  0  0  0  0  0  0  0  0  0  0
   12.3461  -19.6207   21.8041 C   0  0  0  0  0  0  0  0  0  0  0  0
   11.6070  -18.7282   22.7666 C   0  0  0  0  0  0  0  0  0  0  0  0
   11.2121  -17.4658   22.0831 C   0  0  0  0  0  0  0  0  0  0  0  0
   10.4761  -16.4767   22.9713 C   0  0  2  0  0  0  0  0  0  0  0  0
   10.2442  -15.3045   22.1392 N   0  0  0  0  0  0  0  0  0  0  0  0
   11.3448  -16.0745   24.0911 C   0  0  0  0  0  0  0  0  0  0  0  0
   12.1202  -15.0817   24.0631 O   0  0  0  0  0  0  0  0  0  0  0  0
   11.3387  -16.8087   25.2691 O   0  0  0  0  0  0  0  0  0  0  0  0
  2  1  1  6
  3  4  1  0
  3  2  1  0
  4  5  1  0
  5  6  1  0
  7  6  1  0
  8  2  1  0
  9  8  2  0
 10  8  1  0
 11 10  1  0
 12 13  1  0
 12 11  1  0
 13 14  1  0
 14 10  1  0
 14 15  1  1
 15 16  2  0
 17 18  1  0
 18 19  2  0
 18 20  1  0
 20 21  1  0
 21 22  1  0
 22 23  1  0
 24 23  1  6
 25 15  1  0
 25 24  1  0
 26 24  1  0
 26 28  1  0
 27 26  2  0
M  END
$$$$
