KPR.pdb
     RDKit          3D

 28 28  0  0  1  0  0  0  0  0999 V2000
    8.1204  -12.8886   20.0640 N   0  0  0  0  0  0  0  0  0  0  0  0
    7.3189  -13.2670   21.1914 C   0  0  1  0  0  0  0  0  0  0  0  0
    6.3455  -14.3833   20.8280 C   0  0  0  0  0  0  0  0  0  0  0  0
    7.1098  -15.6190   20.4919 C   0  0  0  0  0  0  0  0  0  0  0  0
    6.1478  -16.7112   20.1031 C   0  0  0  0  0  0  0  0  0  0  0  0
    6.8702  -17.9296   19.6174 C   0  0  0  0  0  0  0  0  0  0  0  0
    5.9319  -18.9645   19.1690 N   0  0  0  0  0  0  0  0  0  0  0  0
    8.0517  -13.5974   22.4108 C   0  0  0  0  0  0  0  0  0  0  0  0
    9.2156  -14.1019   22.2431 O   0  0  0  0  0  0  0  0  0  0  0  0
    7.6106  -13.4179   23.7451 N   0  0  0  0  0  0  0  0  0  0  0  0
    6.3060  -12.9625   24.1746 C   0  0  0  0  0  0  0  0  0  0  0  0
    6.2587  -13.3858   25.6236 C   0  0  0  0  0  0  0  0  0  0  0  0
    7.6797  -13.0410   26.0640 C   0  0  0  0  0  0  0  0  0  0  0  0
    8.4507  -13.6684   24.9189 C   0  0  1  0  0  0  0  0  0  0  0  0
    8.6959  -15.1093   25.1089 C   0  0  0  0  0  0  0  0  0  0  0  0
    7.7417  -15.9215   24.8922 O   0  0  0  0  0  0  0  0  0  0  0  0
   15.8132  -20.3061   25.5280 N   0  0  0  0  0  0  0  0  0  0  0  0
   14.8665  -20.8636   24.6276 C   0  0  0  0  0  0  0  0  0  0  0  0
   14.9838  -22.0738   24.2468 N   0  0  0  0  0  0  0  0  0  0  0  0
   13.7685  -20.1102   24.1217 N   0  0  0  0  0  0  0  0  0  0  0  0
   13.4639  -18.7784   24.5810 C   0  0  0  0  0  0  0  0  0  0  0  0
   12.0989  -18.6833   25.2111 C   0  0  0  0  0  0  0  0  0  0  0  0
   11.5397  -17.3195   25.0009 C   0  0  0  0  0  0  0  0  0  0  0  0
   10.1747  -17.0986   25.6307 C   0  0  2  0  0  0  0  0  0  0  0  0
    9.9207  -15.6693   25.5175 N   0  0  0  0  0  0  0  0  0  0  0  0
   10.2289  -17.4385   27.0633 C   0  0  0  0  0  0  0  0  0  0  0  0
   10.3071  -18.6148   27.5083 O   0  0  0  0  0  0  0  0  0  0  0  0
   10.1941  -16.4288   28.0152 O   0  0  0  0  0  0  0  0  0  0  0  0
  2  1  1  6
  3  4  1  0
  3  2  1  0
  4  5  1  0
  5  6  1  0
  7  6  1  0
  8  2  1  0
  9  8  2  0
 10  8  1  0
 11 10  1  0
 12 13  1  0
 12 11  1  0
 13 14  1  0
 14 10  1  0
 14 15  1  1
 15 16  2  0
 17 18  1  0
 18 19  2  0
 18 20  1  0
 20 21  1  0
 21 22  1  0
 22 23  1  0
 24 23  1  1
 25 15  1  0
 25 24  1  0
 26 24  1  0
 26 28  1  0
 27 26  2  0
M  END
$$$$
