KPR.pdb
     RDKit          3D

 28 28  0  0  1  0  0  0  0  0999 V2000
    8.6631  -12.4771   19.6227 N   0  0  0  0  0  0  0  0  0  0  0  0
    7.9205  -13.3609   20.4736 C   0  0  1  0  0  0  0  0  0  0  0  0
    7.6378  -14.6890   19.7792 C   0  0  0  0  0  0  0  0  0  0  0  0
    7.5181  -14.4656   18.3096 C   0  0  0  0  0  0  0  0  0  0  0  0
    7.2414  -15.7789   17.6255 C   0  0  0  0  0  0  0  0  0  0  0  0
    7.0705  -15.6015   16.1484 C   0  0  0  0  0  0  0  0  0  0  0  0
    6.7372  -16.8707   15.4923 N   0  0  0  0  0  0  0  0  0  0  0  0
    8.4802  -13.5827   21.8042 C   0  0  0  0  0  0  0  0  0  0  0  0
    9.6981  -13.9737   21.8393 O   0  0  0  0  0  0  0  0  0  0  0  0
    7.8200  -13.4106   23.0458 N   0  0  0  0  0  0  0  0  0  0  0  0
    6.4785  -12.9096   23.2540 C   0  0  0  0  0  0  0  0  0  0  0  0
    6.1631  -13.3582   24.6612 C   0  0  0  0  0  0  0  0  0  0  0  0
    7.4974  -13.0814   25.3505 C   0  0  0  0  0  0  0  0  0  0  0  0
    8.4323  -13.7183   24.3407 C   0  0  1  0  0  0  0  0  0  0  0  0
    8.5861  -15.1716   24.5327 C   0  0  0  0  0  0  0  0  0  0  0  0
    7.6879  -15.9437   24.0701 O   0  0  0  0  0  0  0  0  0  0  0  0
   14.9838  -22.1418   22.9553 N   0  0  0  0  0  0  0  0  0  0  0  0
   14.5886  -20.7860   23.1078 C   0  0  0  0  0  0  0  0  0  0  0  0
   15.3688  -19.8485   22.7395 N   0  0  0  0  0  0  0  0  0  0  0  0
   13.3298  -20.4230   23.6673 N   0  0  0  0  0  0  0  0  0  0  0  0
   12.8745  -19.0571   23.7327 C   0  0  0  0  0  0  0  0  0  0  0  0
   11.5827  -18.9153   24.4947 C   0  0  0  0  0  0  0  0  0  0  0  0
   11.1514  -17.4903   24.4963 C   0  0  0  0  0  0  0  0  0  0  0  0
    9.8728  -17.2240   25.2730 C   0  0  2  0  0  0  0  0  0  0  0  0
    9.6643  -15.7849   25.1975 N   0  0  0  0  0  0  0  0  0  0  0  0
   10.0695  -17.5810   26.6888 C   0  0  0  0  0  0  0  0  0  0  0  0
   10.3330  -16.7489   27.5977 O   0  0  0  0  0  0  0  0  0  0  0  0
    9.9668  -18.9064   27.0884 O   0  0  0  0  0  0  0  0  0  0  0  0
  2  1  1  6
  3  4  1  0
  3  2  1  0
  4  5  1  0
  5  6  1  0
  7  6  1  0
  8  2  1  0
  9  8  2  0
 10  8  1  0
 11 10  1  0
 12 13  1  0
 12 11  1  0
 13 14  1  0
 14 10  1  0
 14 15  1  1
 15 16  2  0
 17 18  1  0
 18 19  2  0
 18 20  1  0
 20 21  1  0
 21 22  1  0
 22 23  1  0
 24 23  1  6
 25 15  1  0
 25 24  1  0
 26 24  1  0
 26 28  1  0
 27 26  2  0
M  END
$$$$
