VPI.pdb
     RDKit          3D

 23 23  0  0  1  0  0  0  0  0999 V2000
   11.4543  -18.8671   21.0202 C   0  0  0  0  0  0  0  0  0  0  0  0
   10.3280  -18.5770   20.0453 C   0  0  2  0  0  0  0  0  0  0  0  0
   10.6257  -19.3425   18.7616 C   0  0  0  0  0  0  0  0  0  0  0  0
   10.3933  -17.0856   19.7004 C   0  0  2  0  0  0  0  0  0  0  0  0
   11.7786  -16.8627   19.3129 N   0  0  0  0  0  0  0  0  0  0  0  0
   10.0180  -16.2372   20.8600 C   0  0  0  0  0  0  0  0  0  0  0  0
   10.9294  -15.6837   21.5207 O   0  0  0  0  0  0  0  0  0  0  0  0
    8.6730  -16.0231   21.2533 N   0  0  0  0  0  0  0  0  0  0  0  0
    7.5444  -16.5651   20.4893 C   0  0  0  0  0  0  0  0  0  0  0  0
    6.5220  -15.4378   20.6505 C   0  0  0  0  0  0  0  0  0  0  0  0
    6.6411  -15.2151   22.1627 C   0  0  0  0  0  0  0  0  0  0  0  0
    8.1142  -15.3085   22.3759 C   0  0  1  0  0  0  0  0  0  0  0  0
    8.5338  -15.8299   23.6796 C   0  0  0  0  0  0  0  0  0  0  0  0
    8.9082  -17.0598   23.7225 O   0  0  0  0  0  0  0  0  0  0  0  0
    9.0017  -12.1208   27.7229 C   0  0  0  0  0  0  0  0  0  0  0  0
    9.3767  -13.1810   26.6888 C   0  0  0  0  0  0  0  0  0  0  0  0
    8.8094  -14.4836   27.1742 C   0  0  2  0  0  0  0  0  0  0  0  0
    9.4312  -14.9272   28.4744 C   0  0  0  0  0  0  0  0  0  0  0  0
    8.9557  -15.6017   26.1718 C   0  0  2  0  0  0  0  0  0  0  0  0
    8.5585  -15.1049   24.8666 N   0  0  0  0  0  0  0  0  0  0  0  0
    8.2488  -16.8370   26.5305 C   0  0  0  0  0  0  0  0  0  0  0  0
    6.9113  -16.9693   26.0608 O   0  0  0  0  0  0  0  0  0  0  0  0
    8.6985  -17.7831   27.2055 O   0  0  0  0  0  0  0  0  0  0  0  0
  2  1  1  1
  2  3  1  0
  4  2  1  0
  4  5  1  1
  6  4  1  0
  6  8  1  0
  7  6  2  0
  8 12  1  0
  9  8  1  0
 10  9  1  0
 10 11  1  0
 12 11  1  0
 13 20  1  0
 12 13  1  1
 14 13  2  0
 16 15  1  0
 17 16  1  0
 17 18  1  1
 19 17  1  0
 19 20  1  6
 21 22  1  0
 21 19  1  0
 23 21  2  0
M  END
$$$$
