VPI.pdb
     RDKit          3D

 23 23  0  0  1  0  0  0  0  0999 V2000
   10.9987  -13.5636   18.0301 C   0  0  0  0  0  0  0  0  0  0  0  0
   10.3700  -13.6897   19.4056 C   0  0  2  0  0  0  0  0  0  0  0  0
   11.0131  -14.8876   20.0943 C   0  0  0  0  0  0  0  0  0  0  0  0
    8.8906  -14.0329   19.2034 C   0  0  2  0  0  0  0  0  0  0  0  0
    8.3310  -12.8581   18.5509 N   0  0  0  0  0  0  0  0  0  0  0  0
    8.2088  -14.3047   20.4943 C   0  0  0  0  0  0  0  0  0  0  0  0
    7.8677  -13.3333   21.2110 O   0  0  0  0  0  0  0  0  0  0  0  0
    7.9242  -15.6155   20.9529 N   0  0  0  0  0  0  0  0  0  0  0  0
    8.2906  -16.8063   20.1789 C   0  0  0  0  0  0  0  0  0  0  0  0
    7.1042  -17.7230   20.4851 C   0  0  0  0  0  0  0  0  0  0  0  0
    7.0455  -17.5457   22.0069 C   0  0  0  0  0  0  0  0  0  0  0  0
    7.2822  -16.0811   22.1589 C   0  0  1  0  0  0  0  0  0  0  0  0
    7.9653  -15.6742   23.3899 C   0  0  0  0  0  0  0  0  0  0  0  0
    9.2504  -15.7280   23.3885 O   0  0  0  0  0  0  0  0  0  0  0  0
    5.7541  -11.7384   26.1999 C   0  0  0  0  0  0  0  0  0  0  0  0
    6.6926  -12.6733   25.4389 C   0  0  0  0  0  0  0  0  0  0  0  0
    7.1407  -13.7268   26.4102 C   0  0  2  0  0  0  0  0  0  0  0  0
    7.9048  -13.1433   27.5720 C   0  0  0  0  0  0  0  0  0  0  0  0
    7.9919  -14.7961   25.7709 C   0  0  2  0  0  0  0  0  0  0  0  0
    7.3378  -15.2377   24.5522 N   0  0  0  0  0  0  0  0  0  0  0  0
    8.3255  -15.9184   26.6560 C   0  0  0  0  0  0  0  0  0  0  0  0
    9.5916  -15.8679   27.3053 O   0  0  0  0  0  0  0  0  0  0  0  0
    7.6146  -16.9130   26.8976 O   0  0  0  0  0  0  0  0  0  0  0  0
  2  1  1  6
  2  3  1  0
  4  2  1  0
  4  5  1  1
  6  4  1  0
  6  8  1  0
  7  6  2  0
  8 12  1  0
  9  8  1  0
 10  9  1  0
 10 11  1  0
 12 11  1  0
 13 20  1  0
 12 13  1  1
 14 13  2  0
 16 15  1  0
 17 16  1  0
 17 18  1  1
 19 17  1  0
 19 20  1  6
 21 22  1  0
 21 19  1  0
 23 21  2  0
M  END
$$$$
