VPI.pdb
     RDKit          3D

 23 23  0  0  1  0  0  0  0  0999 V2000
   12.4544  -18.9590   19.7899 C   0  0  0  0  0  0  0  0  0  0  0  0
   11.6918  -18.1777   20.8440 C   0  0  2  0  0  0  0  0  0  0  0  0
   11.5688  -19.0690   22.0741 C   0  0  0  0  0  0  0  0  0  0  0  0
   10.2727  -17.9544   20.3114 C   0  0  2  0  0  0  0  0  0  0  0  0
   10.4655  -17.2827   19.0344 N   0  0  0  0  0  0  0  0  0  0  0  0
    9.4634  -17.1224   21.2377 C   0  0  0  0  0  0  0  0  0  0  0  0
    9.7256  -15.8994   21.3330 O   0  0  0  0  0  0  0  0  0  0  0  0
    8.4049  -17.6494   22.0194 N   0  0  0  0  0  0  0  0  0  0  0  0
    8.0734  -19.0782   22.0164 C   0  0  0  0  0  0  0  0  0  0  0  0
    6.5494  -19.0187   22.1414 C   0  0  0  0  0  0  0  0  0  0  0  0
    6.4381  -18.0081   23.2890 C   0  0  0  0  0  0  0  0  0  0  0  0
    7.4820  -17.0072   22.9245 C   0  0  1  0  0  0  0  0  0  0  0  0
    8.1300  -16.3291   24.0505 C   0  0  0  0  0  0  0  0  0  0  0  0
    9.2420  -16.8237   24.4670 O   0  0  0  0  0  0  0  0  0  0  0  0
    6.0265  -11.6298   26.8536 C   0  0  0  0  0  0  0  0  0  0  0  0
    6.2851  -13.0721   26.4214 C   0  0  0  0  0  0  0  0  0  0  0  0
    7.6982  -13.1297   25.9175 C   0  0  2  0  0  0  0  0  0  0  0  0
    7.8460  -12.4903   24.5598 C   0  0  0  0  0  0  0  0  0  0  0  0
    8.2417  -14.5352   25.8422 C   0  0  2  0  0  0  0  0  0  0  0  0
    7.6406  -15.2008   24.7004 N   0  0  0  0  0  0  0  0  0  0  0  0
    8.0899  -15.3134   27.0774 C   0  0  0  0  0  0  0  0  0  0  0  0
    8.9655  -14.9875   28.1517 O   0  0  0  0  0  0  0  0  0  0  0  0
    7.2733  -16.2320   27.2832 O   0  0  0  0  0  0  0  0  0  0  0  0
  2  1  1  6
  2  3  1  0
  4  2  1  0
  4  5  1  6
  6  4  1  0
  6  8  1  0
  7  6  2  0
  8 12  1  0
  9  8  1  0
 10  9  1  0
 10 11  1  0
 12 11  1  0
 13 20  1  0
 12 13  1  1
 14 13  2  0
 16 15  1  0
 17 16  1  0
 17 18  1  6
 19 17  1  0
 19 20  1  6
 21 22  1  0
 21 19  1  0
 23 21  2  0
M  END
$$$$
