VPI.pdb
     RDKit          3D

 23 23  0  0  1  0  0  0  0  0999 V2000
   11.4095  -20.0479   20.8503 C   0  0  0  0  0  0  0  0  0  0  0  0
   10.9830  -18.7688   21.5468 C   0  0  2  0  0  0  0  0  0  0  0  0
    9.6895  -19.0656   22.2962 C   0  0  0  0  0  0  0  0  0  0  0  0
   10.6429  -17.7458   20.4582 C   0  0  2  0  0  0  0  0  0  0  0  0
   11.8849  -17.5764   19.7181 N   0  0  0  0  0  0  0  0  0  0  0  0
   10.1853  -16.4579   21.0389 C   0  0  0  0  0  0  0  0  0  0  0  0
   11.0302  -15.7121   21.5897 O   0  0  0  0  0  0  0  0  0  0  0  0
    8.8338  -16.0323   20.9971 N   0  0  0  0  0  0  0  0  0  0  0  0
    7.8360  -16.6955   20.1510 C   0  0  0  0  0  0  0  0  0  0  0  0
    6.9832  -15.4992   19.7227 C   0  0  0  0  0  0  0  0  0  0  0  0
    6.7940  -14.8327   21.0904 C   0  0  0  0  0  0  0  0  0  0  0  0
    8.1517  -14.9673   21.6927 C   0  0  1  0  0  0  0  0  0  0  0  0
    8.1875  -15.0935   23.1523 C   0  0  0  0  0  0  0  0  0  0  0  0
    8.3414  -16.2773   23.6315 O   0  0  0  0  0  0  0  0  0  0  0  0
    6.4710  -11.5501   27.8671 C   0  0  0  0  0  0  0  0  0  0  0  0
    7.2140  -12.8354   27.5067 C   0  0  0  0  0  0  0  0  0  0  0  0
    7.2164  -12.9322   26.0084 C   0  0  2  0  0  0  0  0  0  0  0  0
    5.8218  -12.9323   25.4347 C   0  0  0  0  0  0  0  0  0  0  0  0
    7.9406  -14.1529   25.4965 C   0  0  2  0  0  0  0  0  0  0  0  0
    8.0684  -14.0414   24.0546 N   0  0  0  0  0  0  0  0  0  0  0  0
    7.3409  -15.4302   25.9002 C   0  0  0  0  0  0  0  0  0  0  0  0
    7.9826  -16.1331   26.9591 O   0  0  0  0  0  0  0  0  0  0  0  0
    6.3271  -15.9646   25.4106 O   0  0  0  0  0  0  0  0  0  0  0  0
  2  1  1  6
  2  3  1  0
  4  2  1  0
  4  5  1  1
  6  4  1  0
  6  8  1  0
  7  6  2  0
  8 12  1  0
  9  8  1  0
 10  9  1  0
 10 11  1  0
 12 11  1  0
 13 20  1  0
 12 13  1  1
 14 13  2  0
 16 15  1  0
 17 16  1  0
 17 18  1  1
 19 17  1  0
 19 20  1  6
 21 22  1  0
 21 19  1  0
 23 21  2  0
M  END
$$$$
