VPI.pdb
     RDKit          3D

 23 23  0  0  1  0  0  0  0  0999 V2000
   11.9685  -19.5079   20.5012 C   0  0  0  0  0  0  0  0  0  0  0  0
   11.3337  -18.4584   21.3948 C   0  0  2  0  0  0  0  0  0  0  0  0
   10.0681  -19.0669   21.9870 C   0  0  0  0  0  0  0  0  0  0  0  0
   10.8925  -17.2981   20.4967 C   0  0  2  0  0  0  0  0  0  0  0  0
   12.1208  -16.8427   19.8619 N   0  0  0  0  0  0  0  0  0  0  0  0
   10.2582  -16.2079   21.2805 C   0  0  0  0  0  0  0  0  0  0  0  0
   10.9867  -15.4775   21.9942 O   0  0  0  0  0  0  0  0  0  0  0  0
    8.8637  -15.9544   21.2567 N   0  0  0  0  0  0  0  0  0  0  0  0
    7.9659  -16.6354   20.3179 C   0  0  0  0  0  0  0  0  0  0  0  0
    6.9704  -15.5148   20.0097 C   0  0  0  0  0  0  0  0  0  0  0  0
    6.6864  -15.0409   21.4400 C   0  0  0  0  0  0  0  0  0  0  0  0
    8.0453  -15.0721   22.0537 C   0  0  1  0  0  0  0  0  0  0  0  0
    8.0853  -15.3615   23.4898 C   0  0  0  0  0  0  0  0  0  0  0  0
    8.4626  -16.5414   23.8364 O   0  0  0  0  0  0  0  0  0  0  0  0
    6.6541  -11.1663   26.4089 C   0  0  0  0  0  0  0  0  0  0  0  0
    7.6658  -12.2494   26.0384 C   0  0  0  0  0  0  0  0  0  0  0  0
    7.1692  -13.5334   26.6376 C   0  0  2  0  0  0  0  0  0  0  0  0
    7.5211  -13.6543   28.0990 C   0  0  0  0  0  0  0  0  0  0  0  0
    7.6848  -14.7576   25.9220 C   0  0  2  0  0  0  0  0  0  0  0  0
    7.7491  -14.4672   24.5009 N   0  0  0  0  0  0  0  0  0  0  0  0
    6.9331  -15.9870   26.2005 C   0  0  0  0  0  0  0  0  0  0  0  0
    7.5154  -16.8981   27.1267 O   0  0  0  0  0  0  0  0  0  0  0  0
    5.8366  -16.3170   25.7087 O   0  0  0  0  0  0  0  0  0  0  0  0
  2  1  1  6
  2  3  1  0
  4  2  1  0
  4  5  1  1
  6  4  1  0
  6  8  1  0
  7  6  2  0
  8 12  1  0
  9  8  1  0
 10  9  1  0
 10 11  1  0
 12 11  1  0
 13 20  1  0
 12 13  1  1
 14 13  2  0
 16 15  1  0
 17 16  1  0
 17 18  1  1
 19 17  1  0
 19 20  1  6
 21 22  1  0
 21 19  1  0
 23 21  2  0
M  END
$$$$
