CVS.pdb
     RDKit          3D

 20 19  0  0  1  0  0  0  0  0999 V2000
   18.9203  -13.0482  -17.5636 N   0  0  0  0  0  0  0  0  0  0  0  0
   19.5764  -11.8110  -17.9015 C   0  0  1  0  0  0  0  0  0  0  0  0
   18.7402  -11.0377  -18.9266 C   0  0  0  0  0  0  0  0  0  0  0  0
   18.6697  -11.9463  -20.4825 S   0  0  0  0  0  0  0  0  0  0  0  0
   19.8170  -10.9617  -16.6954 C   0  0  0  0  0  0  0  0  0  0  0  0
   18.9385  -10.7611  -15.8345 O   0  0  0  0  0  0  0  0  0  0  0  0
   22.9771   -9.3692  -13.3761 C   0  0  0  0  0  0  0  0  0  0  0  0
   22.5706  -10.2182  -14.5615 C   0  0  2  0  0  0  0  0  0  0  0  0
   23.8037  -10.4005  -15.4381 C   0  0  0  0  0  0  0  0  0  0  0  0
   21.5193   -9.5936  -15.4168 C   0  0  2  0  0  0  0  0  0  0  0  0
   21.1016  -10.3691  -16.5421 N   0  0  0  0  0  0  0  0  0  0  0  0
   21.8095   -8.1724  -15.7911 C   0  0  0  0  0  0  0  0  0  0  0  0
   22.4132   -7.8663  -16.8390 O   0  0  0  0  0  0  0  0  0  0  0  0
   19.4079   -5.1426  -14.8293 O   0  0  0  0  0  0  0  0  0  0  0  0
   20.4780   -4.9540  -15.7049 C   0  0  0  0  0  0  0  0  0  0  0  0
   21.6896   -5.7127  -15.2235 C   0  0  2  0  0  0  0  0  0  0  0  0
   21.3995   -7.1005  -14.9497 N   0  0  0  0  0  0  0  0  0  0  0  0
   22.2107   -5.0103  -14.0266 C   0  0  0  0  0  0  0  0  0  0  0  0
   22.7101   -3.7205  -14.0799 O   0  0  0  0  0  0  0  0  0  0  0  0
   22.1958   -5.6105  -12.9315 O   0  0  0  0  0  0  0  0  0  0  0  0
  2  1  1  1
  2  3  1  0
  3  4  1  0
  5  2  1  0
  6  5  2  0
  8  7  1  1
  8 10  1  0
  9  8  1  0
 10 11  1  6
 10 12  1  0
 11  5  1  0
 12 13  2  0
 15 14  1  0
 16 15  1  1
 17 12  1  0
 17 16  1  0
 18 19  1  0
 18 16  1  0
 20 18  2  0
M  END
$$$$
