CVS.pdb
     RDKit          3D

 20 19  0  0  1  0  0  0  0  0999 V2000
   24.1471  -20.8296   -8.3647 N   0  0  0  0  0  0  0  0  0  0  0  0
   25.3783  -20.1475   -8.6719 C   0  0  1  0  0  0  0  0  0  0  0  0
   26.3524  -20.2697   -7.4954 C   0  0  0  0  0  0  0  0  0  0  0  0
   27.3109  -18.7521   -7.3228 S   0  0  0  0  0  0  0  0  0  0  0  0
   26.0129  -20.6790   -9.9162 C   0  0  0  0  0  0  0  0  0  0  0  0
   26.5751  -21.7905   -9.9563 O   0  0  0  0  0  0  0  0  0  0  0  0
   25.5402  -22.7827  -11.9729 C   0  0  0  0  0  0  0  0  0  0  0  0
   25.1920  -21.5305  -12.7486 C   0  0  2  0  0  0  0  0  0  0  0  0
   25.3934  -21.8376  -14.2276 C   0  0  0  0  0  0  0  0  0  0  0  0
   26.0620  -20.3616  -12.4265 C   0  0  2  0  0  0  0  0  0  0  0  0
   25.9634  -19.8724  -11.0875 N   0  0  0  0  0  0  0  0  0  0  0  0
   25.9880  -19.2562  -13.4349 C   0  0  0  0  0  0  0  0  0  0  0  0
   24.9982  -18.5029  -13.5306 O   0  0  0  0  0  0  0  0  0  0  0  0
   28.3258  -16.7833  -16.9540 O   0  0  0  0  0  0  0  0  0  0  0  0
   28.3726  -17.8425  -16.0467 C   0  0  0  0  0  0  0  0  0  0  0  0
   27.0354  -18.0126  -15.3695 C   0  0  2  0  0  0  0  0  0  0  0  0
   27.0636  -19.0211  -14.3365 N   0  0  0  0  0  0  0  0  0  0  0  0
   26.0383  -18.3259  -16.4209 C   0  0  0  0  0  0  0  0  0  0  0  0
   25.1876  -17.3696  -16.9476 O   0  0  0  0  0  0  0  0  0  0  0  0
   25.9682  -19.4992  -16.8430 O   0  0  0  0  0  0  0  0  0  0  0  0
  2  1  1  1
  2  3  1  0
  3  4  1  0
  5  2  1  0
  6  5  2  0
  8  7  1  1
  8 10  1  0
  9  8  1  0
 10 11  1  1
 10 12  1  0
 11  5  1  0
 12 13  2  0
 15 14  1  0
 16 15  1  6
 17 12  1  0
 17 16  1  0
 18 19  1  0
 18 16  1  0
 20 18  2  0
M  END
$$$$
