CVS.pdb
     RDKit          3D

 20 19  0  0  1  0  0  0  0  0999 V2000
   17.0766  -12.1250  -15.2795 N   0  0  0  0  0  0  0  0  0  0  0  0
   17.7242  -11.0740  -16.0221 C   0  0  1  0  0  0  0  0  0  0  0  0
   16.6902  -10.0362  -16.4712 C   0  0  0  0  0  0  0  0  0  0  0  0
   15.5132  -10.7864  -17.6129 S   0  0  0  0  0  0  0  0  0  0  0  0
   18.7989  -10.4098  -15.2235 C   0  0  0  0  0  0  0  0  0  0  0  0
   18.6888  -10.2015  -13.9998 O   0  0  0  0  0  0  0  0  0  0  0  0
   22.3589  -11.4386  -14.5566 C   0  0  0  0  0  0  0  0  0  0  0  0
   22.3863  -10.1482  -15.3473 C   0  0  2  0  0  0  0  0  0  0  0  0
   23.4659   -9.2614  -14.7385 C   0  0  0  0  0  0  0  0  0  0  0  0
   21.1091   -9.3787  -15.2877 C   0  0  2  0  0  0  0  0  0  0  0  0
   19.9831  -10.0079  -15.9026 N   0  0  0  0  0  0  0  0  0  0  0  0
   21.2465   -7.9454  -15.7013 C   0  0  0  0  0  0  0  0  0  0  0  0
   21.5269   -7.6100  -16.8698 O   0  0  0  0  0  0  0  0  0  0  0  0
   19.2099   -4.9746  -13.8753 O   0  0  0  0  0  0  0  0  0  0  0  0
   19.8770   -4.7680  -15.0834 C   0  0  0  0  0  0  0  0  0  0  0  0
   21.1986   -5.4953  -15.0838 C   0  0  2  0  0  0  0  0  0  0  0  0
   21.0587   -6.8954  -14.7593 N   0  0  0  0  0  0  0  0  0  0  0  0
   22.0950   -4.7945  -14.1336 C   0  0  0  0  0  0  0  0  0  0  0  0
   22.5300   -3.4970  -14.3408 O   0  0  0  0  0  0  0  0  0  0  0  0
   22.4684   -5.4035  -13.1092 O   0  0  0  0  0  0  0  0  0  0  0  0
  2  1  1  1
  2  3  1  0
  3  4  1  0
  5  2  1  0
  6  5  2  0
  8  7  1  1
  8 10  1  0
  9  8  1  0
 10 11  1  6
 10 12  1  0
 11  5  1  0
 12 13  2  0
 15 14  1  0
 16 15  1  1
 17 12  1  0
 17 16  1  0
 18 19  1  0
 18 16  1  0
 20 18  2  0
M  END
$$$$
