CVS.pdb
     RDKit          3D

 20 19  0  0  1  0  0  0  0  0999 V2000
   19.4463  -13.8806  -17.2886 N   0  0  0  0  0  0  0  0  0  0  0  0
   19.8295  -12.5263  -17.5962 C   0  0  1  0  0  0  0  0  0  0  0  0
   18.6600  -11.7881  -18.2559 C   0  0  0  0  0  0  0  0  0  0  0  0
   18.2213  -12.5856  -19.8125 S   0  0  0  0  0  0  0  0  0  0  0  0
   20.2780  -11.7851  -16.3784 C   0  0  0  0  0  0  0  0  0  0  0  0
   19.6333  -11.8014  -15.3120 O   0  0  0  0  0  0  0  0  0  0  0  0
   24.4628  -10.8371  -15.8243 C   0  0  0  0  0  0  0  0  0  0  0  0
   23.3252  -10.7891  -14.8269 C   0  0  2  0  0  0  0  0  0  0  0  0
   23.0552  -12.2181  -14.3717 C   0  0  0  0  0  0  0  0  0  0  0  0
   22.0481  -10.2668  -15.3954 C   0  0  2  0  0  0  0  0  0  0  0  0
   21.4872  -11.0393  -16.4588 N   0  0  0  0  0  0  0  0  0  0  0  0
   22.0841   -8.8052  -15.7218 C   0  0  0  0  0  0  0  0  0  0  0  0
   22.2066   -8.3831  -16.8894 O   0  0  0  0  0  0  0  0  0  0  0  0
   20.7780   -4.5223  -15.7408 O   0  0  0  0  0  0  0  0  0  0  0  0
   20.7310   -5.9076  -15.5799 C   0  0  0  0  0  0  0  0  0  0  0  0
   22.0020   -6.4044  -14.9370 C   0  0  2  0  0  0  0  0  0  0  0  0
   21.9780   -7.8275  -14.6932 N   0  0  0  0  0  0  0  0  0  0  0  0
   22.2021   -5.6328  -13.6871 C   0  0  0  0  0  0  0  0  0  0  0  0
   22.6362   -4.3186  -13.6860 O   0  0  0  0  0  0  0  0  0  0  0  0
   21.9685   -6.1957  -12.5970 O   0  0  0  0  0  0  0  0  0  0  0  0
  2  1  1  1
  2  3  1  0
  3  4  1  0
  5  2  1  0
  6  5  2  0
  8  7  1  6
  8 10  1  0
  9  8  1  0
 10 11  1  6
 10 12  1  0
 11  5  1  0
 12 13  2  0
 15 14  1  0
 16 15  1  1
 17 12  1  0
 17 16  1  0
 18 19  1  0
 18 16  1  0
 20 18  2  0
M  END
$$$$
