CVS.pdb
     RDKit          3D

 20 19  0  0  1  0  0  0  0  0999 V2000
   18.3319  -13.6828  -15.7345 N   0  0  0  0  0  0  0  0  0  0  0  0
   18.6645  -12.5557  -16.5678 C   0  0  1  0  0  0  0  0  0  0  0  0
   17.4002  -12.0104  -17.2403 C   0  0  0  0  0  0  0  0  0  0  0  0
   16.5799  -13.3178  -18.1728 S   0  0  0  0  0  0  0  0  0  0  0  0
   19.3375  -11.4699  -15.7919 C   0  0  0  0  0  0  0  0  0  0  0  0
   18.8917  -11.0507  -14.7063 O   0  0  0  0  0  0  0  0  0  0  0  0
   22.9672  -11.0909  -14.4349 C   0  0  0  0  0  0  0  0  0  0  0  0
   22.6995  -10.0577  -15.5082 C   0  0  2  0  0  0  0  0  0  0  0  0
   23.2962   -8.7386  -15.0326 C   0  0  0  0  0  0  0  0  0  0  0  0
   21.2491   -9.8118  -15.7585 C   0  0  2  0  0  0  0  0  0  0  0  0
   20.5293  -10.9069  -16.3283 N   0  0  0  0  0  0  0  0  0  0  0  0
   20.9677   -8.5240  -16.4702 C   0  0  0  0  0  0  0  0  0  0  0  0
   21.2717   -8.3401  -17.6661 O   0  0  0  0  0  0  0  0  0  0  0  0
   17.7934   -6.1895  -15.7376 O   0  0  0  0  0  0  0  0  0  0  0  0
   18.6451   -5.9868  -16.8244 C   0  0  0  0  0  0  0  0  0  0  0  0
   20.0833   -6.1577  -16.4026 C   0  0  2  0  0  0  0  0  0  0  0  0
   20.3319   -7.4442  -15.7959 N   0  0  0  0  0  0  0  0  0  0  0  0
   20.4164   -5.0408  -15.4865 C   0  0  0  0  0  0  0  0  0  0  0  0
   20.4152   -3.7184  -15.8950 O   0  0  0  0  0  0  0  0  0  0  0  0
   20.7082   -5.3099  -14.3024 O   0  0  0  0  0  0  0  0  0  0  0  0
  2  1  1  1
  2  3  1  0
  3  4  1  0
  5  2  1  0
  6  5  2  0
  8  7  1  1
  8 10  1  0
  9  8  1  0
 10 11  1  6
 10 12  1  0
 11  5  1  0
 12 13  2  0
 15 14  1  0
 16 15  1  1
 17 12  1  0
 17 16  1  0
 18 19  1  0
 18 16  1  0
 20 18  2  0
M  END
$$$$
