CVS.pdb
     RDKit          3D

 20 19  0  0  1  0  0  0  0  0999 V2000
   27.8670  -22.6542  -15.9073 N   0  0  0  0  0  0  0  0  0  0  0  0
   27.3298  -21.4523  -15.3222 C   0  0  1  0  0  0  0  0  0  0  0  0
   26.8842  -20.4867  -16.4255 C   0  0  0  0  0  0  0  0  0  0  0  0
   28.3181  -19.8772  -17.3333 S   0  0  0  0  0  0  0  0  0  0  0  0
   26.1847  -21.7432  -14.4068 C   0  0  0  0  0  0  0  0  0  0  0  0
   25.4315  -22.7224  -14.5707 O   0  0  0  0  0  0  0  0  0  0  0  0
   26.5232  -21.2954  -10.3838 C   0  0  0  0  0  0  0  0  0  0  0  0
   25.3145  -20.5790  -10.9468 C   0  0  2  0  0  0  0  0  0  0  0  0
   24.1292  -20.9038  -10.0457 C   0  0  0  0  0  0  0  0  0  0  0  0
   24.9437  -21.0158  -12.3247 C   0  0  2  0  0  0  0  0  0  0  0  0
   25.9625  -20.8588  -13.3144 N   0  0  0  0  0  0  0  0  0  0  0  0
   23.6217  -20.4881  -12.7915 C   0  0  0  0  0  0  0  0  0  0  0  0
   23.3787  -19.2671  -12.8708 O   0  0  0  0  0  0  0  0  0  0  0  0
   20.5949  -23.1901  -14.0119 O   0  0  0  0  0  0  0  0  0  0  0  0
   20.6577  -21.9256  -14.5987 C   0  0  0  0  0  0  0  0  0  0  0  0
   21.2871  -20.9372  -13.6487 C   0  0  2  0  0  0  0  0  0  0  0  0
   22.5759  -21.3768  -13.1681 N   0  0  0  0  0  0  0  0  0  0  0  0
   20.3305  -20.7124  -12.5387 C   0  0  0  0  0  0  0  0  0  0  0  0
   20.6221  -21.0445  -11.2271 O   0  0  0  0  0  0  0  0  0  0  0  0
   19.2211  -20.2038  -12.8038 O   0  0  0  0  0  0  0  0  0  0  0  0
  2  1  1  6
  2  3  1  0
  3  4  1  0
  5  2  1  0
  6  5  2  0
  8  7  1  1
  8 10  1  0
  9  8  1  0
 10 11  1  6
 10 12  1  0
 11  5  1  0
 12 13  2  0
 15 14  1  0
 16 15  1  6
 17 12  1  0
 17 16  1  0
 18 19  1  0
 18 16  1  0
 20 18  2  0
M  END
$$$$
