CVS.pdb
     RDKit          3D

 20 19  0  0  1  0  0  0  0  0999 V2000
   11.3493  -12.2947   -9.4834 N   0  0  0  0  0  0  0  0  0  0  0  0
   11.6675  -11.0865  -10.2006 C   0  0  1  0  0  0  0  0  0  0  0  0
   10.6820   -9.9765   -9.8201 C   0  0  0  0  0  0  0  0  0  0  0  0
    8.9995  -10.4684  -10.2431 S   0  0  0  0  0  0  0  0  0  0  0  0
   13.0682  -10.6363   -9.9376 C   0  0  0  0  0  0  0  0  0  0  0  0
   13.6184  -10.7804   -8.8287 O   0  0  0  0  0  0  0  0  0  0  0  0
   16.3492  -11.6774  -11.4240 C   0  0  0  0  0  0  0  0  0  0  0  0
   16.1145  -10.2290  -11.7958 C   0  0  2  0  0  0  0  0  0  0  0  0
   17.4396   -9.4942  -11.6326 C   0  0  0  0  0  0  0  0  0  0  0  0
   15.1241   -9.5359  -10.9209 C   0  0  2  0  0  0  0  0  0  0  0  0
   13.7833  -10.0231  -11.0041 N   0  0  0  0  0  0  0  0  0  0  0  0
   15.1845   -8.0414  -11.0045 C   0  0  0  0  0  0  0  0  0  0  0  0
   14.6903   -7.4039  -11.9562 O   0  0  0  0  0  0  0  0  0  0  0  0
   16.1010   -5.8271   -7.6178 O   0  0  0  0  0  0  0  0  0  0  0  0
   15.4486   -5.2244   -8.6942 C   0  0  0  0  0  0  0  0  0  0  0  0
   15.9036   -5.8394   -9.9943 C   0  0  2  0  0  0  0  0  0  0  0  0
   15.8193   -7.2808   -9.9829 N   0  0  0  0  0  0  0  0  0  0  0  0
   17.2854   -5.3684  -10.2524 C   0  0  0  0  0  0  0  0  0  0  0  0
   17.5967   -4.0295  -10.4132 O   0  0  0  0  0  0  0  0  0  0  0  0
   18.1986   -6.2171  -10.3265 O   0  0  0  0  0  0  0  0  0  0  0  0
  2  1  1  1
  2  3  1  0
  3  4  1  0
  5  2  1  0
  6  5  2  0
  8  7  1  1
  8 10  1  0
  9  8  1  0
 10 11  1  6
 10 12  1  0
 11  5  1  0
 12 13  2  0
 15 14  1  0
 16 15  1  1
 17 12  1  0
 17 16  1  0
 18 19  1  0
 18 16  1  0
 20 18  2  0
M  END
$$$$
