CVS.pdb
     RDKit          3D

 20 19  0  0  1  0  0  0  0  0999 V2000
   16.8598  -11.6784  -16.1061 N   0  0  0  0  0  0  0  0  0  0  0  0
   17.7690  -10.7366  -16.7077 C   0  0  1  0  0  0  0  0  0  0  0  0
   16.9925   -9.5317  -17.2493 C   0  0  0  0  0  0  0  0  0  0  0  0
   15.8074  -10.0673  -18.4983 S   0  0  0  0  0  0  0  0  0  0  0  0
   18.8134  -10.2776  -15.7422 C   0  0  0  0  0  0  0  0  0  0  0  0
   18.5763  -10.1162  -14.5294 O   0  0  0  0  0  0  0  0  0  0  0  0
   22.2939  -11.6452  -14.8190 C   0  0  0  0  0  0  0  0  0  0  0  0
   22.4515  -10.2897  -15.4740 C   0  0  2  0  0  0  0  0  0  0  0  0
   23.4807   -9.5082  -14.6664 C   0  0  0  0  0  0  0  0  0  0  0  0
   21.2002   -9.4768  -15.4836 C   0  0  2  0  0  0  0  0  0  0  0  0
   20.1197  -10.0205  -16.2446 N   0  0  0  0  0  0  0  0  0  0  0  0
   21.4234   -8.0261  -15.7830 C   0  0  0  0  0  0  0  0  0  0  0  0
   21.7217   -7.6162  -16.9229 O   0  0  0  0  0  0  0  0  0  0  0  0
   20.3166   -3.5452  -15.2556 O   0  0  0  0  0  0  0  0  0  0  0  0
   20.1250   -4.9035  -14.9999 C   0  0  0  0  0  0  0  0  0  0  0  0
   21.4485   -5.6271  -14.9889 C   0  0  2  0  0  0  0  0  0  0  0  0
   21.3011   -7.0450  -14.7594 N   0  0  0  0  0  0  0  0  0  0  0  0
   22.3002   -4.9860  -13.9587 C   0  0  0  0  0  0  0  0  0  0  0  0
   23.1117   -3.8996  -14.2357 O   0  0  0  0  0  0  0  0  0  0  0  0
   22.2801   -5.4485  -12.7988 O   0  0  0  0  0  0  0  0  0  0  0  0
  2  1  1  1
  2  3  1  0
  3  4  1  0
  5  2  1  0
  6  5  2  0
  8  7  1  1
  8 10  1  0
  9  8  1  0
 10 11  1  6
 10 12  1  0
 11  5  1  0
 12 13  2  0
 15 14  1  0
 16 15  1  1
 17 12  1  0
 17 16  1  0
 18 19  1  0
 18 16  1  0
 20 18  2  0
M  END
$$$$
