ESA.pdb
     RDKit          3D

 21 20  0  0  1  0  0  0  0  0999 V2000
   23.4702  -35.5213   -6.7125 N   0  0  0  0  0  0  0  0  0  0  0  0
   23.3409  -35.0460   -5.3245 C   0  0  1  0  0  0  0  0  0  0  0  0
   22.5126  -36.0243   -4.5602 C   0  0  0  0  0  0  0  0  0  0  0  0
   21.3194  -35.4464   -3.8795 C   0  0  0  0  0  0  0  0  0  0  0  0
   20.1488  -35.3866   -4.7466 C   0  0  0  0  0  0  0  0  0  0  0  0
   19.6316  -36.3873   -5.2788 O   0  0  0  0  0  0  0  0  0  0  0  0
   24.6634  -34.8019   -4.7440 C   0  0  0  0  0  0  0  0  0  0  0  0
   25.6340  -35.5257   -5.0276 O   0  0  0  0  0  0  0  0  0  0  0  0
   19.5606  -34.1333   -5.0048 O   0  0  0  0  0  0  0  0  0  0  0  0
   26.3186  -31.1244   -3.3147 O   0  0  0  0  0  0  0  0  0  0  0  0
   26.2977  -32.2210   -2.4616 C   0  0  0  0  0  0  0  0  0  0  0  0
   26.2210  -33.5269   -3.2369 C   0  0  2  0  0  0  0  0  0  0  0  0
   24.9189  -33.7226   -3.8207 N   0  0  0  0  0  0  0  0  0  0  0  0
   26.6181  -34.6788   -2.3727 C   0  0  0  0  0  0  0  0  0  0  0  0
   25.8304  -35.2174   -1.5514 O   0  0  0  0  0  0  0  0  0  0  0  0
   29.8311  -36.6712   -1.9202 C   0  0  0  0  0  0  0  0  0  0  0  0
   28.4434  -36.2302   -1.5697 C   0  0  2  0  0  0  0  0  0  0  0  0
   27.9336  -35.2124   -2.4573 N   0  0  0  0  0  0  0  0  0  0  0  0
   28.4227  -35.8122   -0.1534 C   0  0  0  0  0  0  0  0  0  0  0  0
   28.4671  -34.5781    0.0839 O   0  0  0  0  0  0  0  0  0  0  0  0
   28.3579  -36.6953    0.9114 O   0  0  0  0  0  0  0  0  0  0  0  0
  2  1  1  6
  2  3  1  0
  3  4  1  0
  4  5  1  0
  5  6  2  0
  5  9  1  0
  7 13  1  0
  7  2  1  0
  8  7  2  0
 12 11  1  1
 11 10  1  0
 12 14  1  0
 12 13  1  0
 14 18  1  0
 15 14  2  0
 17 16  1  6
 18 17  1  0
 19 17  1  0
 19 21  1  0
 20 19  2  0
M  END
$$$$
