ESA.pdb
     RDKit          3D

 21 20  0  0  1  0  0  0  0  0999 V2000
   18.8493  -12.0614  -16.8812 N   0  0  0  0  0  0  0  0  0  0  0  0
   19.9340  -11.0761  -17.0289 C   0  0  1  0  0  0  0  0  0  0  0  0
   20.1343  -10.8008  -18.4819 C   0  0  0  0  0  0  0  0  0  0  0  0
   18.9299  -11.0038  -19.3357 C   0  0  0  0  0  0  0  0  0  0  0  0
   19.2000  -10.7906  -20.7525 C   0  0  0  0  0  0  0  0  0  0  0  0
   20.3232  -10.4978  -21.2051 O   0  0  0  0  0  0  0  0  0  0  0  0
   19.6505   -9.8822  -16.2289 C   0  0  0  0  0  0  0  0  0  0  0  0
   18.4952   -9.4332  -16.1304 O   0  0  0  0  0  0  0  0  0  0  0  0
   18.1402  -10.9201  -21.6710 O   0  0  0  0  0  0  0  0  0  0  0  0
   20.8861   -6.7713  -12.7380 O   0  0  0  0  0  0  0  0  0  0  0  0
   21.1973   -7.9054  -13.4782 C   0  0  0  0  0  0  0  0  0  0  0  0
   20.3761   -7.9777  -14.7559 C   0  0  2  0  0  0  0  0  0  0  0  0
   20.6788   -9.1633  -15.5158 N   0  0  0  0  0  0  0  0  0  0  0  0
   20.5556   -6.7384  -15.5704 C   0  0  0  0  0  0  0  0  0  0  0  0
   21.5134   -6.5834  -16.3726 O   0  0  0  0  0  0  0  0  0  0  0  0
   18.4299   -3.7249  -16.3564 C   0  0  0  0  0  0  0  0  0  0  0  0
   19.7418   -4.4246  -16.1762 C   0  0  2  0  0  0  0  0  0  0  0  0
   19.6228   -5.6709  -15.4579 N   0  0  0  0  0  0  0  0  0  0  0  0
   20.6934   -3.4905  -15.5412 C   0  0  0  0  0  0  0  0  0  0  0  0
   21.0762   -3.7627  -14.3747 O   0  0  0  0  0  0  0  0  0  0  0  0
   21.1790   -2.3476  -16.1541 O   0  0  0  0  0  0  0  0  0  0  0  0
  2  1  1  6
  2  3  1  0
  3  4  1  0
  4  5  1  0
  5  6  2  0
  5  9  1  0
  7 13  1  0
  7  2  1  0
  8  7  2  0
 12 11  1  1
 11 10  1  0
 12 14  1  0
 12 13  1  0
 14 18  1  0
 15 14  2  0
 17 16  1  1
 18 17  1  0
 19 17  1  0
 19 21  1  0
 20 19  2  0
M  END
$$$$
