ESA.pdb
     RDKit          3D

 21 20  0  0  1  0  0  0  0  0999 V2000
   16.9972   -9.8620  -10.1896 N   0  0  0  0  0  0  0  0  0  0  0  0
   16.3425   -9.3977  -11.4246 C   0  0  1  0  0  0  0  0  0  0  0  0
   14.8999   -9.1477  -11.1351 C   0  0  0  0  0  0  0  0  0  0  0  0
   14.0959  -10.3651  -10.8312 C   0  0  0  0  0  0  0  0  0  0  0  0
   13.4398  -10.9170  -12.0105 C   0  0  0  0  0  0  0  0  0  0  0  0
   13.7731  -11.9906  -12.5475 O   0  0  0  0  0  0  0  0  0  0  0  0
   17.0509   -8.2385  -11.9723 C   0  0  0  0  0  0  0  0  0  0  0  0
   17.3885   -7.2882  -11.2448 O   0  0  0  0  0  0  0  0  0  0  0  0
   12.3678  -10.2060  -12.5840 O   0  0  0  0  0  0  0  0  0  0  0  0
   20.1537   -8.0904  -14.6085 O   0  0  0  0  0  0  0  0  0  0  0  0
   19.0314   -7.3933  -15.0391 C   0  0  0  0  0  0  0  0  0  0  0  0
   18.1389   -7.0014  -13.8720 C   0  0  2  0  0  0  0  0  0  0  0  0
   17.3961   -8.1284  -13.3692 N   0  0  0  0  0  0  0  0  0  0  0  0
   17.2388   -5.8710  -14.2512 C   0  0  0  0  0  0  0  0  0  0  0  0
   16.2423   -6.0178  -15.0064 O   0  0  0  0  0  0  0  0  0  0  0  0
   16.2340   -2.6477  -12.8771 C   0  0  0  0  0  0  0  0  0  0  0  0
   16.6841   -3.4119  -14.0840 C   0  0  2  0  0  0  0  0  0  0  0  0
   17.4912   -4.5625  -13.7549 N   0  0  0  0  0  0  0  0  0  0  0  0
   17.3677   -2.4821  -15.0056 C   0  0  0  0  0  0  0  0  0  0  0  0
   16.7310   -1.4612  -15.3712 O   0  0  0  0  0  0  0  0  0  0  0  0
   18.6543   -2.6729  -15.4811 O   0  0  0  0  0  0  0  0  0  0  0  0
  2  1  1  1
  2  3  1  0
  3  4  1  0
  4  5  1  0
  5  6  2  0
  5  9  1  0
  7 13  1  0
  7  2  1  0
  8  7  2  0
 12 11  1  6
 11 10  1  0
 12 14  1  0
 12 13  1  0
 14 18  1  0
 15 14  2  0
 17 16  1  1
 18 17  1  0
 19 17  1  0
 19 21  1  0
 20 19  2  0
M  END
$$$$
