ESA.pdb
     RDKit          3D

 21 20  0  0  1  0  0  0  0  0999 V2000
   17.5512  -11.3546  -17.1279 N   0  0  0  0  0  0  0  0  0  0  0  0
   18.8205  -10.8435  -16.5830 C   0  0  1  0  0  0  0  0  0  0  0  0
   19.7964  -10.6978  -17.7027 C   0  0  0  0  0  0  0  0  0  0  0  0
   20.3124  -11.9790  -18.2622 C   0  0  0  0  0  0  0  0  0  0  0  0
   21.2898  -11.7776  -19.3252 C   0  0  0  0  0  0  0  0  0  0  0  0
   21.1605  -12.2327  -20.4778 O   0  0  0  0  0  0  0  0  0  0  0  0
   18.5908   -9.6100  -15.8272 C   0  0  0  0  0  0  0  0  0  0  0  0
   17.8558   -8.7108  -16.2714 O   0  0  0  0  0  0  0  0  0  0  0  0
   22.4492  -11.0284  -19.0461 O   0  0  0  0  0  0  0  0  0  0  0  0
   17.7601   -9.0420  -12.0442 O   0  0  0  0  0  0  0  0  0  0  0  0
   18.8866   -8.2915  -12.3585 C   0  0  0  0  0  0  0  0  0  0  0  0
   19.0288   -8.1050  -13.8609 C   0  0  2  0  0  0  0  0  0  0  0  0
   19.1942   -9.3648  -14.5394 N   0  0  0  0  0  0  0  0  0  0  0  0
   20.1419   -7.1589  -14.1730 C   0  0  0  0  0  0  0  0  0  0  0  0
   21.3170   -7.5439  -14.4090 O   0  0  0  0  0  0  0  0  0  0  0  0
   20.3578   -3.3968  -14.6880 C   0  0  0  0  0  0  0  0  0  0  0  0
   20.9127   -4.7754  -14.5020 C   0  0  2  0  0  0  0  0  0  0  0  0
   19.8962   -5.7587  -14.2129 N   0  0  0  0  0  0  0  0  0  0  0  0
   21.9669   -4.7263  -13.4689 C   0  0  0  0  0  0  0  0  0  0  0  0
   21.7390   -5.3209  -12.3844 O   0  0  0  0  0  0  0  0  0  0  0  0
   23.1754   -4.0694  -13.6294 O   0  0  0  0  0  0  0  0  0  0  0  0
  2  1  1  6
  2  3  1  0
  3  4  1  0
  4  5  1  0
  5  6  2  0
  5  9  1  0
  7 13  1  0
  7  2  1  0
  8  7  2  0
 12 11  1  1
 11 10  1  0
 12 14  1  0
 12 13  1  0
 14 18  1  0
 15 14  2  0
 17 16  1  1
 18 17  1  0
 19 17  1  0
 19 21  1  0
 20 19  2  0
M  END
$$$$
