ESA.pdb
     RDKit          3D

 21 20  0  0  1  0  0  0  0  0999 V2000
   16.7241  -10.0386  -16.6838 N   0  0  0  0  0  0  0  0  0  0  0  0
   18.1277   -9.8473  -16.2805 C   0  0  1  0  0  0  0  0  0  0  0  0
   18.9580   -9.6753  -17.5086 C   0  0  0  0  0  0  0  0  0  0  0  0
   18.8273  -10.7643  -18.5176 C   0  0  0  0  0  0  0  0  0  0  0  0
   19.6608  -10.5466  -19.6940 C   0  0  0  0  0  0  0  0  0  0  0  0
   19.5982  -11.2453  -20.7236 O   0  0  0  0  0  0  0  0  0  0  0  0
   18.2377   -8.7417  -15.3261 C   0  0  0  0  0  0  0  0  0  0  0  0
   17.5249   -7.7282  -15.4307 O   0  0  0  0  0  0  0  0  0  0  0  0
   20.5926   -9.4907  -19.6777 O   0  0  0  0  0  0  0  0  0  0  0  0
   18.7138   -8.7401  -11.2796 O   0  0  0  0  0  0  0  0  0  0  0  0
   19.7308   -8.0627  -11.9412 C   0  0  0  0  0  0  0  0  0  0  0  0
   19.2976   -7.6323  -13.3338 C   0  0  2  0  0  0  0  0  0  0  0  0
   19.1662   -8.7591  -14.2214 N   0  0  0  0  0  0  0  0  0  0  0  0
   20.2299   -6.6022  -13.8826 C   0  0  0  0  0  0  0  0  0  0  0  0
   21.2954   -6.8992  -14.4839 O   0  0  0  0  0  0  0  0  0  0  0  0
   20.1816   -2.8042  -14.0799 C   0  0  0  0  0  0  0  0  0  0  0  0
   20.8138   -4.1596  -14.1581 C   0  0  2  0  0  0  0  0  0  0  0  0
   19.9298   -5.2199  -13.7362 N   0  0  0  0  0  0  0  0  0  0  0  0
   22.0789   -4.1368  -13.3964 C   0  0  0  0  0  0  0  0  0  0  0  0
   22.9887   -3.3752  -13.8132 O   0  0  0  0  0  0  0  0  0  0  0  0
   22.3124   -4.8991  -12.2641 O   0  0  0  0  0  0  0  0  0  0  0  0
  2  1  1  6
  2  3  1  0
  3  4  1  0
  4  5  1  0
  5  6  2  0
  5  9  1  0
  7 13  1  0
  7  2  1  0
  8  7  2  0
 12 11  1  1
 11 10  1  0
 12 14  1  0
 12 13  1  0
 14 18  1  0
 15 14  2  0
 17 16  1  1
 18 17  1  0
 19 17  1  0
 19 21  1  0
 20 19  2  0
M  END
$$$$
