QHS.pdb
     RDKit          3D

 26 26  0  0  1  0  0  0  0  0999 V2000
   13.3835  -18.3350   14.9886 N   0  0  0  0  0  0  0  0  0  0  0  0
   13.0297  -18.8428   13.6977 C   0  0  0  0  0  0  0  0  0  0  0  0
   13.7219  -19.7561   13.2002 O   0  0  0  0  0  0  0  0  0  0  0  0
   11.8754  -18.2789   13.0179 C   0  0  0  0  0  0  0  0  0  0  0  0
   10.6702  -18.0072   13.8541 C   0  0  0  0  0  0  0  0  0  0  0  0
   10.0906  -16.6422   13.7218 C   0  0  2  0  0  0  0  0  0  0  0  0
   10.5049  -15.9876   12.5230 N   0  0  0  0  0  0  0  0  0  0  0  0
   10.2696  -15.8298   14.9580 C   0  0  0  0  0  0  0  0  0  0  0  0
   11.3725  -15.2131   15.1061 O   0  0  0  0  0  0  0  0  0  0  0  0
    9.2977  -15.7166   15.9491 N   0  0  0  0  0  0  0  0  0  0  0  0
    9.4494  -14.8533   17.1280 C   0  0  1  0  0  0  0  0  0  0  0  0
    8.1922  -14.7984   17.9111 C   0  0  0  0  0  0  0  0  0  0  0  0
    8.1918  -13.9342   19.0852 C   0  0  0  0  0  0  0  0  0  0  0  0
    9.2245  -13.1473   19.5341 C   0  0  0  0  0  0  0  0  0  0  0  0
    8.8442  -12.4989   20.6510 N   0  0  0  0  0  0  0  0  0  0  0  0
    7.5765  -12.8877   20.8886 C   0  0  0  0  0  0  0  0  0  0  0  0
    7.1772  -13.7582   19.9410 N   0  0  0  0  0  0  0  0  0  0  0  0
   10.5057  -15.5089   17.9890 C   0  0  0  0  0  0  0  0  0  0  0  0
   10.5959  -16.7682   17.9951 O   0  0  0  0  0  0  0  0  0  0  0  0
   13.7980  -13.3814   19.1519 O   0  0  0  0  0  0  0  0  0  0  0  0
   13.8229  -14.7617   19.1455 C   0  0  0  0  0  0  0  0  0  0  0  0
   12.4929  -15.3663   19.5300 C   0  0  2  0  0  0  0  0  0  0  0  0
   11.3971  -14.7754   18.7877 N   0  0  0  0  0  0  0  0  0  0  0  0
   12.2319  -15.2954   20.9850 C   0  0  0  0  0  0  0  0  0  0  0  0
   13.0842  -15.9254   21.8927 O   0  0  0  0  0  0  0  0  0  0  0  0
   11.2572  -14.6806   21.4470 O   0  0  0  0  0  0  0  0  0  0  0  0
  2  3  2  0
  2  1  1  0
  4  2  1  0
  5  6  1  0
  5  4  1  0
  6  7  1  6
  8  6  1  0
  8  9  2  0
 10  8  1  0
 11 10  1  0
 12 13  1  0
 11 12  1  1
 13 14  2  0
 14 15  1  0
 16 15  1  0
 17 13  1  0
 17 16  2  0
 18 11  1  0
 19 18  2  0
 21 20  1  0
 22 23  1  0
 22 21  1  1
 23 18  1  0
 24 22  1  0
 25 24  1  0
 26 24  2  0
M  END
$$$$
