QHS.pdb
     RDKit          3D

 26 26  0  0  1  0  0  0  0  0999 V2000
   17.0482  -14.6401   18.6961 N   0  0  0  0  0  0  0  0  0  0  0  0
   16.7530  -14.5693   17.2970 C   0  0  0  0  0  0  0  0  0  0  0  0
   17.6375  -14.8981   16.4783 O   0  0  0  0  0  0  0  0  0  0  0  0
   15.4333  -14.1218   16.8836 C   0  0  0  0  0  0  0  0  0  0  0  0
   14.4295  -13.9022   17.9651 C   0  0  0  0  0  0  0  0  0  0  0  0
   13.8710  -15.1360   18.5837 C   0  0  2  0  0  0  0  0  0  0  0  0
   13.3473  -16.0432   17.6142 N   0  0  0  0  0  0  0  0  0  0  0  0
   12.9401  -14.8335   19.7071 C   0  0  0  0  0  0  0  0  0  0  0  0
   13.3394  -14.0257   20.6053 O   0  0  0  0  0  0  0  0  0  0  0  0
   11.6681  -15.3892   19.8203 N   0  0  0  0  0  0  0  0  0  0  0  0
   10.7536  -15.0836   20.9287 C   0  0  1  0  0  0  0  0  0  0  0  0
    9.3423  -15.2856   20.5237 C   0  0  0  0  0  0  0  0  0  0  0  0
    8.7772  -14.2983   19.6119 C   0  0  0  0  0  0  0  0  0  0  0  0
    9.4003  -13.1803   19.1127 C   0  0  0  0  0  0  0  0  0  0  0  0
    8.5526  -12.5144   18.3062 N   0  0  0  0  0  0  0  0  0  0  0  0
    7.4076  -13.2240   18.3097 C   0  0  0  0  0  0  0  0  0  0  0  0
    7.5399  -14.3067   19.1004 N   0  0  0  0  0  0  0  0  0  0  0  0
   11.0730  -16.0833   22.0175 C   0  0  0  0  0  0  0  0  0  0  0  0
   11.5481  -17.2080   21.6960 O   0  0  0  0  0  0  0  0  0  0  0  0
   10.9859  -17.1114   26.8173 O   0  0  0  0  0  0  0  0  0  0  0  0
   10.7525  -16.2114   25.7968 C   0  0  0  0  0  0  0  0  0  0  0  0
   11.0402  -16.7950   24.4334 C   0  0  2  0  0  0  0  0  0  0  0  0
   10.8636  -15.8157   23.3795 N   0  0  0  0  0  0  0  0  0  0  0  0
   10.2435  -18.0099   24.1517 C   0  0  0  0  0  0  0  0  0  0  0  0
   10.7088  -19.2699   24.5301 O   0  0  0  0  0  0  0  0  0  0  0  0
    9.1452  -17.9545   23.5754 O   0  0  0  0  0  0  0  0  0  0  0  0
  2  3  2  0
  2  1  1  0
  4  2  1  0
  5  6  1  0
  5  4  1  0
  6  7  1  6
  8  6  1  0
  8  9  2  0
 10  8  1  0
 11 10  1  0
 12 13  1  0
 11 12  1  6
 13 14  2  0
 14 15  1  0
 16 15  1  0
 17 13  1  0
 17 16  2  0
 18 11  1  0
 19 18  2  0
 21 20  1  0
 22 23  1  0
 22 21  1  1
 23 18  1  0
 24 22  1  0
 25 24  1  0
 26 24  2  0
M  END
$$$$
