QHS.pdb
     RDKit          3D

 26 26  0  0  1  0  0  0  0  0999 V2000
   16.8680  -17.9841   15.8481 N   0  0  0  0  0  0  0  0  0  0  0  0
   16.4887  -16.8940   15.0011 C   0  0  0  0  0  0  0  0  0  0  0  0
   17.3451  -16.3989   14.2381 O   0  0  0  0  0  0  0  0  0  0  0  0
   15.1198  -16.4087   15.0586 C   0  0  0  0  0  0  0  0  0  0  0  0
   14.6074  -16.0021   16.3994 C   0  0  0  0  0  0  0  0  0  0  0  0
   13.1607  -15.6547   16.4562 C   0  0  2  0  0  0  0  0  0  0  0  0
   12.7639  -14.7951   15.3880 N   0  0  0  0  0  0  0  0  0  0  0  0
   12.7444  -15.1862   17.8080 C   0  0  0  0  0  0  0  0  0  0  0  0
   13.1485  -14.0410   18.1876 O   0  0  0  0  0  0  0  0  0  0  0  0
   11.9444  -15.9356   18.6670 N   0  0  0  0  0  0  0  0  0  0  0  0
   11.5306  -15.4640   19.9954 C   0  0  1  0  0  0  0  0  0  0  0  0
   10.0625  -15.5761   20.1650 C   0  0  0  0  0  0  0  0  0  0  0  0
    9.2650  -14.4409   19.7170 C   0  0  0  0  0  0  0  0  0  0  0  0
    9.7300  -13.2393   19.2405 C   0  0  0  0  0  0  0  0  0  0  0  0
    8.6888  -12.4437   18.9320 N   0  0  0  0  0  0  0  0  0  0  0  0
    7.5828  -13.1571   19.2190 C   0  0  0  0  0  0  0  0  0  0  0  0
    7.9282  -14.3692   19.6953 N   0  0  0  0  0  0  0  0  0  0  0  0
   12.1865  -16.3960   20.9893 C   0  0  0  0  0  0  0  0  0  0  0  0
   12.1511  -17.6402   20.7777 O   0  0  0  0  0  0  0  0  0  0  0  0
   15.1366  -15.1717   23.6947 O   0  0  0  0  0  0  0  0  0  0  0  0
   14.9332  -16.4783   23.2980 C   0  0  0  0  0  0  0  0  0  0  0  0
   13.4698  -16.8071   23.1173 C   0  0  2  0  0  0  0  0  0  0  0  0
   12.8378  -15.9373   22.1451 N   0  0  0  0  0  0  0  0  0  0  0  0
   12.7187  -16.7926   24.3923 C   0  0  0  0  0  0  0  0  0  0  0  0
   13.0680  -17.6528   25.4342 O   0  0  0  0  0  0  0  0  0  0  0  0
   11.7618  -16.0243   24.5808 O   0  0  0  0  0  0  0  0  0  0  0  0
  2  3  2  0
  2  1  1  0
  4  2  1  0
  5  6  1  0
  5  4  1  0
  6  7  1  6
  8  6  1  0
  8  9  2  0
 10  8  1  0
 11 10  1  0
 12 13  1  0
 11 12  1  6
 13 14  2  0
 14 15  1  0
 16 15  1  0
 17 13  1  0
 17 16  2  0
 18 11  1  0
 19 18  2  0
 21 20  1  0
 22 23  1  0
 22 21  1  1
 23 18  1  0
 24 22  1  0
 25 24  1  0
 26 24  2  0
M  END
$$$$
