QHS.pdb
     RDKit          3D

 26 26  0  0  1  0  0  0  0  0999 V2000
    5.7060  -14.2393   17.5264 N   0  0  0  0  0  0  0  0  0  0  0  0
    7.0125  -14.0837   16.9619 C   0  0  0  0  0  0  0  0  0  0  0  0
    7.1668  -14.2837   15.7384 O   0  0  0  0  0  0  0  0  0  0  0  0
    8.1081  -13.6943   17.8341 C   0  0  0  0  0  0  0  0  0  0  0  0
    7.7774  -13.4805   19.2730 C   0  0  0  0  0  0  0  0  0  0  0  0
    8.9392  -13.2248   20.1683 C   0  0  2  0  0  0  0  0  0  0  0  0
    9.5660  -11.9701   19.9036 N   0  0  0  0  0  0  0  0  0  0  0  0
    9.8778  -14.3809   20.2205 C   0  0  0  0  0  0  0  0  0  0  0  0
    9.4172  -15.5306   19.9293 O   0  0  0  0  0  0  0  0  0  0  0  0
   11.2205  -14.2638   20.5713 N   0  0  0  0  0  0  0  0  0  0  0  0
   12.1317  -15.4130   20.6564 C   0  0  1  0  0  0  0  0  0  0  0  0
   13.5306  -15.0022   20.3900 C   0  0  0  0  0  0  0  0  0  0  0  0
   13.9557  -14.9992   18.9955 C   0  0  0  0  0  0  0  0  0  0  0  0
   13.3316  -15.6162   17.9385 C   0  0  0  0  0  0  0  0  0  0  0  0
   14.0279  -15.3887   16.8090 N   0  0  0  0  0  0  0  0  0  0  0  0
   15.0809  -14.6311   17.1722 C   0  0  0  0  0  0  0  0  0  0  0  0
   15.0406  -14.3927   18.4976 N   0  0  0  0  0  0  0  0  0  0  0  0
   12.0537  -15.8991   22.0863 C   0  0  0  0  0  0  0  0  0  0  0  0
   12.2465  -15.0762   23.0242 O   0  0  0  0  0  0  0  0  0  0  0  0
   10.4626  -19.6630   23.0474 O   0  0  0  0  0  0  0  0  0  0  0  0
   10.4959  -18.6379   23.9714 C   0  0  0  0  0  0  0  0  0  0  0  0
   11.6848  -17.7254   23.7811 C   0  0  2  0  0  0  0  0  0  0  0  0
   11.7746  -17.2335   22.4206 N   0  0  0  0  0  0  0  0  0  0  0  0
   12.9600  -18.3549   24.1906 C   0  0  0  0  0  0  0  0  0  0  0  0
   13.9625  -18.6076   23.2533 O   0  0  0  0  0  0  0  0  0  0  0  0
   13.1831  -18.6777   25.3686 O   0  0  0  0  0  0  0  0  0  0  0  0
  2  3  2  0
  2  1  1  0
  4  2  1  0
  5  6  1  0
  5  4  1  0
  6  7  1  6
  8  6  1  0
  8  9  2  0
 10  8  1  0
 11 10  1  0
 12 13  1  0
 11 12  1  1
 13 14  2  0
 14 15  1  0
 16 15  1  0
 17 13  1  0
 17 16  2  0
 18 11  1  0
 19 18  2  0
 21 20  1  0
 22 23  1  0
 22 21  1  6
 23 18  1  0
 24 22  1  0
 25 24  1  0
 26 24  2  0
M  END
$$$$
