QHS.pdb
     RDKit          3D

 26 26  0  0  1  0  0  0  0  0999 V2000
   13.9063  -16.7002   14.7719 N   0  0  0  0  0  0  0  0  0  0  0  0
   12.8369  -17.1802   13.9501 C   0  0  0  0  0  0  0  0  0  0  0  0
   13.1147  -17.8380   12.9249 O   0  0  0  0  0  0  0  0  0  0  0  0
   11.4685  -16.8874   14.3432 C   0  0  0  0  0  0  0  0  0  0  0  0
   11.2816  -16.1565   15.6302 C   0  0  0  0  0  0  0  0  0  0  0  0
   11.4009  -16.9838   16.8623 C   0  0  2  0  0  0  0  0  0  0  0  0
   10.5088  -18.0980   16.8597 N   0  0  0  0  0  0  0  0  0  0  0  0
   11.3509  -16.1604   18.1032 C   0  0  0  0  0  0  0  0  0  0  0  0
   12.1408  -15.1665   18.1860 O   0  0  0  0  0  0  0  0  0  0  0  0
   10.4910  -16.4260   19.1661 N   0  0  0  0  0  0  0  0  0  0  0  0
   10.4955  -15.6532   20.4154 C   0  0  1  0  0  0  0  0  0  0  0  0
    9.1164  -15.4489   20.9183 C   0  0  0  0  0  0  0  0  0  0  0  0
    8.2944  -14.4852   20.1965 C   0  0  0  0  0  0  0  0  0  0  0  0
    7.2073  -14.7558   19.4013 C   0  0  0  0  0  0  0  0  0  0  0  0
    6.7152  -13.6055   18.9045 N   0  0  0  0  0  0  0  0  0  0  0  0
    7.5005  -12.6270   19.3949 C   0  0  0  0  0  0  0  0  0  0  0  0
    8.4595  -13.1566   20.1790 N   0  0  0  0  0  0  0  0  0  0  0  0
   11.2381  -16.5002   21.4244 C   0  0  0  0  0  0  0  0  0  0  0  0
   11.1111  -17.7557   21.3817 O   0  0  0  0  0  0  0  0  0  0  0  0
   14.9585  -16.7892   24.5256 O   0  0  0  0  0  0  0  0  0  0  0  0
   14.1834  -16.0560   23.6495 C   0  0  0  0  0  0  0  0  0  0  0  0
   12.8758  -16.7385   23.3231 C   0  0  2  0  0  0  0  0  0  0  0  0
   12.0684  -15.9500   22.4135 N   0  0  0  0  0  0  0  0  0  0  0  0
   12.0990  -17.0939   24.5316 C   0  0  0  0  0  0  0  0  0  0  0  0
   12.5222  -18.1240   25.3725 O   0  0  0  0  0  0  0  0  0  0  0  0
   11.0548  -16.4966   24.8389 O   0  0  0  0  0  0  0  0  0  0  0  0
  2  3  2  0
  2  1  1  0
  4  2  1  0
  5  6  1  0
  5  4  1  0
  6  7  1  1
  8  6  1  0
  8  9  2  0
 10  8  1  0
 11 10  1  0
 12 13  1  0
 11 12  1  1
 13 14  2  0
 14 15  1  0
 16 15  1  0
 17 13  1  0
 17 16  2  0
 18 11  1  0
 19 18  2  0
 21 20  1  0
 22 23  1  0
 22 21  1  1
 23 18  1  0
 24 22  1  0
 25 24  1  0
 26 24  2  0
M  END
$$$$
