QHS.pdb
     RDKit          3D

 26 26  0  0  1  0  0  0  0  0999 V2000
    8.2225  -11.7488   19.7929 N   0  0  0  0  0  0  0  0  0  0  0  0
    7.5060  -12.9367   19.4394 C   0  0  0  0  0  0  0  0  0  0  0  0
    6.3342  -13.0768   19.8494 O   0  0  0  0  0  0  0  0  0  0  0  0
    8.1686  -13.9320   18.6129 C   0  0  0  0  0  0  0  0  0  0  0  0
    9.5661  -13.6290   18.1878 C   0  0  0  0  0  0  0  0  0  0  0  0
   10.2282  -14.6767   17.3627 C   0  0  2  0  0  0  0  0  0  0  0  0
    9.3045  -15.6456   16.8675 N   0  0  0  0  0  0  0  0  0  0  0  0
   11.4230  -15.2568   18.0380 C   0  0  0  0  0  0  0  0  0  0  0  0
   11.4394  -16.5136   18.2348 O   0  0  0  0  0  0  0  0  0  0  0  0
   12.5100  -14.4959   18.4613 N   0  0  0  0  0  0  0  0  0  0  0  0
   13.7059  -15.0800   19.0832 C   0  0  1  0  0  0  0  0  0  0  0  0
   14.8991  -14.2366   18.8351 C   0  0  0  0  0  0  0  0  0  0  0  0
   15.6127  -14.4668   17.5848 C   0  0  0  0  0  0  0  0  0  0  0  0
   15.3952  -15.4792   16.6820 C   0  0  0  0  0  0  0  0  0  0  0  0
   16.2564  -15.3590   15.6542 N   0  0  0  0  0  0  0  0  0  0  0  0
   17.0037  -14.2715   15.9257 C   0  0  0  0  0  0  0  0  0  0  0  0
   16.6162  -13.7276   17.0958 N   0  0  0  0  0  0  0  0  0  0  0  0
   13.4397  -15.0832   20.5719 C   0  0  0  0  0  0  0  0  0  0  0  0
   13.6175  -14.0193   21.2280 O   0  0  0  0  0  0  0  0  0  0  0  0
   11.0870  -18.0039   22.3773 O   0  0  0  0  0  0  0  0  0  0  0  0
   11.3099  -16.7689   22.9526 C   0  0  0  0  0  0  0  0  0  0  0  0
   12.7009  -16.2462   22.6804 C   0  0  2  0  0  0  0  0  0  0  0  0
   13.0006  -16.2238   21.2624 N   0  0  0  0  0  0  0  0  0  0  0  0
   13.7457  -16.9888   23.4199 C   0  0  0  0  0  0  0  0  0  0  0  0
   13.7480  -17.0149   24.8152 O   0  0  0  0  0  0  0  0  0  0  0  0
   14.6481  -17.6087   22.8343 O   0  0  0  0  0  0  0  0  0  0  0  0
  2  3  2  0
  2  1  1  0
  4  2  1  0
  5  6  1  0
  5  4  1  0
  6  7  1  1
  8  6  1  0
  8  9  2  0
 10  8  1  0
 11 10  1  0
 12 13  1  0
 11 12  1  1
 13 14  2  0
 14 15  1  0
 16 15  1  0
 17 13  1  0
 17 16  2  0
 18 11  1  0
 19 18  2  0
 21 20  1  0
 22 23  1  0
 22 21  1  6
 23 18  1  0
 24 22  1  0
 25 24  1  0
 26 24  2  0
M  END
$$$$
