QHS.pdb
     RDKit          3D

 26 26  0  0  1  0  0  0  0  0999 V2000
   10.6853  -21.0954   15.7419 N   0  0  0  0  0  0  0  0  0  0  0  0
   11.8609  -20.2794   15.7816 C   0  0  0  0  0  0  0  0  0  0  0  0
   12.9446  -20.8017   16.1188 O   0  0  0  0  0  0  0  0  0  0  0  0
   11.7487  -18.8752   15.4234 C   0  0  0  0  0  0  0  0  0  0  0  0
   10.4022  -18.3974   14.9942 C   0  0  0  0  0  0  0  0  0  0  0  0
   10.3319  -16.9729   14.5671 C   0  0  2  0  0  0  0  0  0  0  0  0
   11.2703  -16.6655   13.5364 N   0  0  0  0  0  0  0  0  0  0  0  0
   10.3610  -16.0338   15.7236 C   0  0  0  0  0  0  0  0  0  0  0  0
   11.4853  -15.5402   16.0567 O   0  0  0  0  0  0  0  0  0  0  0  0
    9.2280  -15.6765   16.4505 N   0  0  0  0  0  0  0  0  0  0  0  0
    9.2583  -14.7238   17.5684 C   0  0  1  0  0  0  0  0  0  0  0  0
    7.8999  -14.5113   18.1217 C   0  0  0  0  0  0  0  0  0  0  0  0
    7.7942  -13.6140   19.2658 C   0  0  0  0  0  0  0  0  0  0  0  0
    8.0641  -12.2672   19.2892 C   0  0  0  0  0  0  0  0  0  0  0  0
    7.8532  -11.7869   20.5291 N   0  0  0  0  0  0  0  0  0  0  0  0
    7.4533  -12.8396   21.2684 C   0  0  0  0  0  0  0  0  0  0  0  0
    7.4161  -13.9496   20.5057 N   0  0  0  0  0  0  0  0  0  0  0  0
   10.1024  -15.3719   18.6428 C   0  0  0  0  0  0  0  0  0  0  0  0
   10.0983  -16.6299   18.7491 O   0  0  0  0  0  0  0  0  0  0  0  0
   13.8704  -15.0362   21.6545 O   0  0  0  0  0  0  0  0  0  0  0  0
   13.0040  -14.4262   20.7696 C   0  0  0  0  0  0  0  0  0  0  0  0
   11.7429  -15.2281   20.5486 C   0  0  2  0  0  0  0  0  0  0  0  0
   10.8962  -14.6328   19.5339 N   0  0  0  0  0  0  0  0  0  0  0  0
   10.9796  -15.4491   21.7971 C   0  0  0  0  0  0  0  0  0  0  0  0
    9.6748  -14.9719   21.9278 O   0  0  0  0  0  0  0  0  0  0  0  0
   11.4653  -16.0595   22.7630 O   0  0  0  0  0  0  0  0  0  0  0  0
  2  3  2  0
  2  1  1  0
  4  2  1  0
  5  6  1  0
  5  4  1  0
  6  7  1  6
  8  6  1  0
  8  9  2  0
 10  8  1  0
 11 10  1  0
 12 13  1  0
 11 12  1  1
 13 14  2  0
 14 15  1  0
 16 15  1  0
 17 13  1  0
 17 16  2  0
 18 11  1  0
 19 18  2  0
 21 20  1  0
 22 23  1  0
 22 21  1  1
 23 18  1  0
 24 22  1  0
 25 24  1  0
 26 24  2  0
M  END
$$$$
