QHS.pdb
     RDKit          3D

 26 26  0  0  1  0  0  0  0  0999 V2000
   11.4568  -16.4663   12.2673 N   0  0  0  0  0  0  0  0  0  0  0  0
   10.4957  -17.1241   13.0999 C   0  0  0  0  0  0  0  0  0  0  0  0
    9.2805  -16.9285   12.8860 O   0  0  0  0  0  0  0  0  0  0  0  0
   10.9716  -17.9982   14.1593 C   0  0  0  0  0  0  0  0  0  0  0  0
   11.0185  -17.4222   15.5346 C   0  0  0  0  0  0  0  0  0  0  0  0
   11.5782  -18.3149   16.5864 C   0  0  2  0  0  0  0  0  0  0  0  0
   11.7664  -19.6520   16.1236 N   0  0  0  0  0  0  0  0  0  0  0  0
   10.8329  -18.2098   17.8724 C   0  0  0  0  0  0  0  0  0  0  0  0
   10.5811  -17.0445   18.3167 O   0  0  0  0  0  0  0  0  0  0  0  0
   10.4056  -19.3151   18.6041 N   0  0  0  0  0  0  0  0  0  0  0  0
    9.6896  -19.2045   19.8821 C   0  0  1  0  0  0  0  0  0  0  0  0
    9.0551  -20.4928   20.2485 C   0  0  0  0  0  0  0  0  0  0  0  0
    7.8480  -20.8574   19.5168 C   0  0  0  0  0  0  0  0  0  0  0  0
    7.0893  -20.0417   18.7128 C   0  0  0  0  0  0  0  0  0  0  0  0
    6.0509  -20.7392   18.2153 N   0  0  0  0  0  0  0  0  0  0  0  0
    6.1715  -21.9848   18.7140 C   0  0  0  0  0  0  0  0  0  0  0  0
    7.2604  -22.0604   19.5038 N   0  0  0  0  0  0  0  0  0  0  0  0
   10.7424  -18.8919   20.9217 C   0  0  0  0  0  0  0  0  0  0  0  0
   11.9023  -19.3706   20.7817 O   0  0  0  0  0  0  0  0  0  0  0  0
   12.3882  -15.8469   21.8876 O   0  0  0  0  0  0  0  0  0  0  0  0
   11.7886  -16.2731   23.0558 C   0  0  0  0  0  0  0  0  0  0  0  0
   11.4819  -17.7523   23.0426 C   0  0  2  0  0  0  0  0  0  0  0  0
   10.4868  -18.0878   22.0435 N   0  0  0  0  0  0  0  0  0  0  0  0
   11.0768  -18.2641   24.3708 C   0  0  0  0  0  0  0  0  0  0  0  0
   11.9680  -18.2419   25.4444 O   0  0  0  0  0  0  0  0  0  0  0  0
    9.9432  -18.7265   24.5773 O   0  0  0  0  0  0  0  0  0  0  0  0
  2  3  2  0
  2  1  1  0
  4  2  1  0
  5  6  1  0
  5  4  1  0
  6  7  1  6
  8  6  1  0
  8  9  2  0
 10  8  1  0
 11 10  1  0
 12 13  1  0
 11 12  1  1
 13 14  2  0
 14 15  1  0
 16 15  1  0
 17 13  1  0
 17 16  2  0
 18 11  1  0
 19 18  2  0
 21 20  1  0
 22 23  1  0
 22 21  1  1
 23 18  1  0
 24 22  1  0
 25 24  1  0
 26 24  2  0
M  END
$$$$
