EKS.pdb
     RDKit          3D

 25 24  0  0  1  0  0  0  0  0999 V2000
   23.3463  -18.3807  -18.1094 N   0  0  0  0  0  0  0  0  0  0  0  0
   23.2868  -17.0868  -17.5107 C   0  0  1  0  0  0  0  0  0  0  0  0
   24.3754  -16.1475  -17.9307 C   0  0  0  0  0  0  0  0  0  0  0  0
   24.1370  -15.4323  -19.2268 C   0  0  0  0  0  0  0  0  0  0  0  0
   24.7772  -14.1089  -19.2805 C   0  0  0  0  0  0  0  0  0  0  0  0
   24.1776  -13.0878  -18.8215 O   0  0  0  0  0  0  0  0  0  0  0  0
   21.9354  -16.4389  -17.5858 C   0  0  0  0  0  0  0  0  0  0  0  0
   21.3849  -16.3039  -18.7141 O   0  0  0  0  0  0  0  0  0  0  0  0
   26.0382  -13.8963  -19.8155 O   0  0  0  0  0  0  0  0  0  0  0  0
   21.2510  -15.9710  -16.4413 N   0  0  0  0  0  0  0  0  0  0  0  0
   19.9577  -15.3881  -16.3686 C   0  0  1  0  0  0  0  0  0  0  0  0
   18.9880  -16.0063  -15.3816 C   0  0  0  0  0  0  0  0  0  0  0  0
   18.5555  -17.3885  -15.7991 C   0  0  0  0  0  0  0  0  0  0  0  0
   17.5911  -18.0351  -14.8473 C   0  0  0  0  0  0  0  0  0  0  0  0
   17.3134  -19.4580  -15.2521 C   0  0  0  0  0  0  0  0  0  0  0  0
   16.3653  -20.0152  -14.2791 N   0  0  0  0  0  0  0  0  0  0  0  0
   19.8924  -13.9259  -16.4423 C   0  0  0  0  0  0  0  0  0  0  0  0
   20.6604  -13.2561  -15.7099 O   0  0  0  0  0  0  0  0  0  0  0  0
   18.5248  -10.0206  -18.9242 O   0  0  0  0  0  0  0  0  0  0  0  0
   18.3683  -11.3758  -18.7605 C   0  0  0  0  0  0  0  0  0  0  0  0
   18.9645  -11.7846  -17.4291 C   0  0  2  0  0  0  0  0  0  0  0  0
   19.0116  -13.2279  -17.2935 N   0  0  0  0  0  0  0  0  0  0  0  0
   18.1871  -11.2096  -16.3013 C   0  0  0  0  0  0  0  0  0  0  0  0
   18.0775   -9.9715  -16.1711 O   0  0  0  0  0  0  0  0  0  0  0  0
   17.5765  -12.0372  -15.3840 O   0  0  0  0  0  0  0  0  0  0  0  0
  2  7  1  0
  2  1  1  6
  3  2  1  0
  4  3  1  0
  5  4  1  0
  6  5  2  0
  7  8  2  0
  9  5  1  0
 10 11  1  0
 10  7  1  0
 11 12  1  1
 13 12  1  0
 13 14  1  0
 14 15  1  0
 15 16  1  0
 17 18  2  0
 17 11  1  0
 19 20  1  0
 21 20  1  6
 21 22  1  0
 21 23  1  0
 22 17  1  0
 23 25  1  0
 24 23  2  0
M  END
$$$$
