EKS.pdb
     RDKit          3D

 25 24  0  0  1  0  0  0  0  0999 V2000
   20.2726  -12.0319  -16.4693 N   0  0  0  0  0  0  0  0  0  0  0  0
   19.6016  -10.9686  -17.1442 C   0  0  1  0  0  0  0  0  0  0  0  0
   18.1188  -10.9272  -16.9370 C   0  0  0  0  0  0  0  0  0  0  0  0
   17.6594  -11.2420  -15.5449 C   0  0  0  0  0  0  0  0  0  0  0  0
   16.2023  -11.1264  -15.3793 C   0  0  0  0  0  0  0  0  0  0  0  0
   15.4571  -10.9214  -16.3870 O   0  0  0  0  0  0  0  0  0  0  0  0
   20.2286   -9.6209  -16.9386 C   0  0  0  0  0  0  0  0  0  0  0  0
   20.9240   -9.4225  -15.9037 O   0  0  0  0  0  0  0  0  0  0  0  0
   15.5664  -11.2334  -14.1522 O   0  0  0  0  0  0  0  0  0  0  0  0
   20.0712   -8.5599  -17.8589 N   0  0  0  0  0  0  0  0  0  0  0  0
   20.7071   -7.2898  -17.8519 C   0  0  1  0  0  0  0  0  0  0  0  0
   20.5892   -6.4635  -19.1169 C   0  0  0  0  0  0  0  0  0  0  0  0
   21.5653   -5.3152  -19.1390 C   0  0  0  0  0  0  0  0  0  0  0  0
   21.5585   -4.5386  -20.4239 C   0  0  0  0  0  0  0  0  0  0  0  0
   22.6031   -3.4553  -20.3993 C   0  0  0  0  0  0  0  0  0  0  0  0
   22.6173   -2.8275  -21.7266 N   0  0  0  0  0  0  0  0  0  0  0  0
   20.6067   -6.5131  -16.6132 C   0  0  0  0  0  0  0  0  0  0  0  0
   19.4647   -6.2298  -16.1769 O   0  0  0  0  0  0  0  0  0  0  0  0
   22.3250   -5.4203  -12.3542 O   0  0  0  0  0  0  0  0  0  0  0  0
   22.3848   -6.1370  -13.5249 C   0  0  0  0  0  0  0  0  0  0  0  0
   21.6579   -5.3704  -14.6110 C   0  0  2  0  0  0  0  0  0  0  0  0
   21.7260   -6.0652  -15.8823 N   0  0  0  0  0  0  0  0  0  0  0  0
   22.2236   -4.0055  -14.7654 C   0  0  0  0  0  0  0  0  0  0  0  0
   23.3206   -3.8334  -15.3390 O   0  0  0  0  0  0  0  0  0  0  0  0
   21.5432   -2.9111  -14.2769 O   0  0  0  0  0  0  0  0  0  0  0  0
  2  7  1  0
  2  1  1  1
  3  2  1  0
  4  3  1  0
  5  4  1  0
  6  5  2  0
  7  8  2  0
  9  5  1  0
 10 11  1  0
 10  7  1  0
 11 12  1  6
 13 12  1  0
 13 14  1  0
 14 15  1  0
 15 16  1  0
 17 18  2  0
 17 11  1  0
 19 20  1  0
 21 20  1  1
 21 22  1  0
 21 23  1  0
 22 17  1  0
 23 25  1  0
 24 23  2  0
M  END
$$$$
