EKS.pdb
     RDKit          3D

 25 24  0  0  1  0  0  0  0  0999 V2000
   16.9521  -10.4248  -11.3795 N   0  0  0  0  0  0  0  0  0  0  0  0
   17.2993   -9.1737  -11.9714 C   0  0  1  0  0  0  0  0  0  0  0  0
   17.1179   -9.1073  -13.4567 C   0  0  0  0  0  0  0  0  0  0  0  0
   17.8379  -10.1668  -14.2360 C   0  0  0  0  0  0  0  0  0  0  0  0
   19.0932   -9.6880  -14.8352 C   0  0  0  0  0  0  0  0  0  0  0  0
   20.2111  -10.0269  -14.3371 O   0  0  0  0  0  0  0  0  0  0  0  0
   16.6962   -7.9833  -11.2850 C   0  0  0  0  0  0  0  0  0  0  0  0
   16.5160   -6.9234  -11.9470 O   0  0  0  0  0  0  0  0  0  0  0  0
   19.1374   -8.8644  -15.9493 O   0  0  0  0  0  0  0  0  0  0  0  0
   16.3212   -7.9995   -9.9225 N   0  0  0  0  0  0  0  0  0  0  0  0
   15.6222   -7.0016   -9.1922 C   0  0  1  0  0  0  0  0  0  0  0  0
   14.6509   -7.4877   -8.1353 C   0  0  0  0  0  0  0  0  0  0  0  0
   13.4323   -8.1377   -8.7389 C   0  0  0  0  0  0  0  0  0  0  0  0
   12.4678   -8.6782   -7.7231 C   0  0  0  0  0  0  0  0  0  0  0  0
   11.3267   -9.3923   -8.3963 C   0  0  0  0  0  0  0  0  0  0  0  0
   10.4523   -9.9178   -7.3403 N   0  0  0  0  0  0  0  0  0  0  0  0
   16.3892   -5.8142   -8.8054 C   0  0  0  0  0  0  0  0  0  0  0  0
   17.4588   -5.9753   -8.1690 O   0  0  0  0  0  0  0  0  0  0  0  0
   18.3263   -1.7545   -9.6036 O   0  0  0  0  0  0  0  0  0  0  0  0
   17.6761   -2.9204   -9.9287 C   0  0  0  0  0  0  0  0  0  0  0  0
   16.7559   -3.3073   -8.7889 C   0  0  2  0  0  0  0  0  0  0  0  0
   15.9905   -4.4967   -9.1098 N   0  0  0  0  0  0  0  0  0  0  0  0
   15.8252   -2.1974   -8.4592 C   0  0  0  0  0  0  0  0  0  0  0  0
   14.6343   -2.2335   -8.8364 O   0  0  0  0  0  0  0  0  0  0  0  0
   16.2658   -1.1129   -7.7318 O   0  0  0  0  0  0  0  0  0  0  0  0
  2  7  1  0
  2  1  1  1
  3  2  1  0
  4  3  1  0
  5  4  1  0
  6  5  2  0
  7  8  2  0
  9  5  1  0
 10 11  1  0
 10  7  1  0
 11 12  1  1
 13 12  1  0
 13 14  1  0
 14 15  1  0
 15 16  1  0
 17 18  2  0
 17 11  1  0
 19 20  1  0
 21 20  1  6
 21 22  1  0
 21 23  1  0
 22 17  1  0
 23 25  1  0
 24 23  2  0
M  END
$$$$
