EPN.pdb
     RDKit          3D

 25 25  0  0  1  0  0  0  0  0999 V2000
    9.4879  -15.8096   15.1823 N   0  0  0  0  0  0  0  0  0  0  0  0
    8.5136  -15.6358   16.2502 C   0  0  1  0  0  0  0  0  0  0  0  0
    7.6525  -16.8642   16.3699 C   0  0  0  0  0  0  0  0  0  0  0  0
    8.3736  -18.1250   16.6874 C   0  0  0  0  0  0  0  0  0  0  0  0
    7.5452  -19.2963   16.9685 C   0  0  0  0  0  0  0  0  0  0  0  0
    7.9099  -20.1212   17.8452 O   0  0  0  0  0  0  0  0  0  0  0  0
    9.1781  -15.2748   17.5246 C   0  0  0  0  0  0  0  0  0  0  0  0
   10.3880  -15.6241   17.7556 O   0  0  0  0  0  0  0  0  0  0  0  0
    6.3427  -19.5813   16.3205 O   0  0  0  0  0  0  0  0  0  0  0  0
    8.5333  -14.5361   18.5473 N   0  0  0  0  0  0  0  0  0  0  0  0
    7.1537  -14.0986   18.4861 C   0  0  0  0  0  0  0  0  0  0  0  0
    7.2567  -12.7562   19.2277 C   0  0  0  0  0  0  0  0  0  0  0  0
    8.0659  -13.1799   20.4323 C   0  0  0  0  0  0  0  0  0  0  0  0
    9.0986  -14.0747   19.7975 C   0  0  1  0  0  0  0  0  0  0  0  0
    9.3685  -15.2233   20.7210 C   0  0  0  0  0  0  0  0  0  0  0  0
    8.6873  -16.2764   20.6750 O   0  0  0  0  0  0  0  0  0  0  0  0
   13.5661  -16.7859   24.9432 N   0  0  0  0  0  0  0  0  0  0  0  0
   12.7137  -17.0947   23.8486 C   0  0  0  0  0  0  0  0  0  0  0  0
   12.3320  -18.2845   23.7163 O   0  0  0  0  0  0  0  0  0  0  0  0
   12.2578  -16.1014   22.8696 C   0  0  0  0  0  0  0  0  0  0  0  0
   10.7725  -16.1864   22.5880 C   0  0  2  0  0  0  0  0  0  0  0  0
   10.4140  -15.1306   21.6735 N   0  0  0  0  0  0  0  0  0  0  0  0
   10.0841  -15.9482   23.8773 C   0  0  0  0  0  0  0  0  0  0  0  0
    9.6851  -14.8071   24.2391 O   0  0  0  0  0  0  0  0  0  0  0  0
    9.8635  -17.0103   24.7277 O   0  0  0  0  0  0  0  0  0  0  0  0
  2  7  1  0
  2  1  1  6
  3  4  1  0
  3  2  1  0
  5  4  1  0
  6  5  2  0
  7  8  2  0
  9  5  1  0
 10  7  1  0
 10 14  1  0
 11 10  1  0
 12 11  1  0
 12 13  1  0
 13 14  1  0
 14 15  1  1
 15 16  2  0
 17 18  1  0
 18 20  1  0
 19 18  2  0
 21 20  1  1
 21 23  1  0
 22 21  1  0
 22 15  1  0
 23 24  2  0
 23 25  1  0
M  END
$$$$
