EPN.pdb
     RDKit          3D

 25 25  0  0  1  0  0  0  0  0999 V2000
    9.4611  -15.3698   14.6411 N   0  0  0  0  0  0  0  0  0  0  0  0
    8.5823  -15.2443   15.7951 C   0  0  1  0  0  0  0  0  0  0  0  0
    7.8695  -16.5456   16.0467 C   0  0  0  0  0  0  0  0  0  0  0  0
    8.5153  -17.7533   15.4681 C   0  0  0  0  0  0  0  0  0  0  0  0
    8.7242  -18.8791   16.3770 C   0  0  0  0  0  0  0  0  0  0  0  0
    9.8942  -19.2583   16.6403 O   0  0  0  0  0  0  0  0  0  0  0  0
    9.3261  -14.7591   16.9814 C   0  0  0  0  0  0  0  0  0  0  0  0
   10.5992  -14.8768   17.0509 O   0  0  0  0  0  0  0  0  0  0  0  0
    7.6951  -19.5898   16.9961 O   0  0  0  0  0  0  0  0  0  0  0  0
    8.6922  -14.1470   18.0908 N   0  0  0  0  0  0  0  0  0  0  0  0
    7.2777  -13.8402   18.1500 C   0  0  0  0  0  0  0  0  0  0  0  0
    7.3113  -12.5403   18.9696 C   0  0  0  0  0  0  0  0  0  0  0  0
    8.2405  -12.9553   20.0875 C   0  0  0  0  0  0  0  0  0  0  0  0
    9.3019  -13.7085   19.3284 C   0  0  1  0  0  0  0  0  0  0  0  0
    9.7410  -14.8787   20.1546 C   0  0  0  0  0  0  0  0  0  0  0  0
    9.2042  -16.0066   20.0327 O   0  0  0  0  0  0  0  0  0  0  0  0
   12.7752  -17.6814   23.4734 N   0  0  0  0  0  0  0  0  0  0  0  0
   13.3605  -16.4173   23.1912 C   0  0  0  0  0  0  0  0  0  0  0  0
   14.5039  -16.1805   23.6554 O   0  0  0  0  0  0  0  0  0  0  0  0
   12.7027  -15.3792   22.3897 C   0  0  0  0  0  0  0  0  0  0  0  0
   11.3393  -15.7988   21.8819 C   0  0  2  0  0  0  0  0  0  0  0  0
   10.7854  -14.7212   21.0999 N   0  0  0  0  0  0  0  0  0  0  0  0
   10.4878  -16.0015   23.0764 C   0  0  0  0  0  0  0  0  0  0  0  0
    9.7324  -15.1025   23.5384 O   0  0  0  0  0  0  0  0  0  0  0  0
   10.5123  -17.2199   23.7204 O   0  0  0  0  0  0  0  0  0  0  0  0
  2  7  1  0
  2  1  1  6
  3  4  1  0
  3  2  1  0
  5  4  1  0
  6  5  2  0
  7  8  2  0
  9  5  1  0
 10  7  1  0
 10 14  1  0
 11 10  1  0
 12 11  1  0
 12 13  1  0
 13 14  1  0
 14 15  1  1
 15 16  2  0
 17 18  1  0
 18 20  1  0
 19 18  2  0
 21 20  1  1
 21 23  1  0
 22 21  1  0
 22 15  1  0
 23 24  2  0
 23 25  1  0
M  END
$$$$
