EPN.pdb
     RDKit          3D

 25 25  0  0  1  0  0  0  0  0999 V2000
    8.6470  -15.6662   16.6684 N   0  0  0  0  0  0  0  0  0  0  0  0
    7.8475  -15.6296   17.8846 C   0  0  1  0  0  0  0  0  0  0  0  0
    7.0127  -16.8771   17.9928 C   0  0  0  0  0  0  0  0  0  0  0  0
    7.7065  -18.1455   17.6465 C   0  0  0  0  0  0  0  0  0  0  0  0
    6.9448  -19.3784   17.8389 C   0  0  0  0  0  0  0  0  0  0  0  0
    7.5511  -20.4754   17.9436 O   0  0  0  0  0  0  0  0  0  0  0  0
    8.6994  -15.4045   19.0761 C   0  0  0  0  0  0  0  0  0  0  0  0
    9.9439  -15.7048   19.0591 O   0  0  0  0  0  0  0  0  0  0  0  0
    5.5528  -19.4369   17.9184 O   0  0  0  0  0  0  0  0  0  0  0  0
    8.2043  -14.8546   20.2843 N   0  0  0  0  0  0  0  0  0  0  0  0
    6.8331  -14.4310   20.4816 C   0  0  0  0  0  0  0  0  0  0  0  0
    7.0472  -13.2294   21.4159 C   0  0  0  0  0  0  0  0  0  0  0  0
    8.0062  -13.8368   22.4141 C   0  0  0  0  0  0  0  0  0  0  0  0
    8.9361  -14.6002   21.5071 C   0  0  1  0  0  0  0  0  0  0  0  0
    9.3163  -15.8827   22.1820 C   0  0  0  0  0  0  0  0  0  0  0  0
    8.5808  -16.8980   22.1237 O   0  0  0  0  0  0  0  0  0  0  0  0
   12.7775  -17.8953   21.2229 N   0  0  0  0  0  0  0  0  0  0  0  0
   13.1469  -17.0521   22.3059 C   0  0  0  0  0  0  0  0  0  0  0  0
   14.0635  -16.2143   22.1144 O   0  0  0  0  0  0  0  0  0  0  0  0
   12.5166  -17.1083   23.6297 C   0  0  0  0  0  0  0  0  0  0  0  0
   11.0047  -17.1574   23.5636 C   0  0  2  0  0  0  0  0  0  0  0  0
   10.5316  -15.9640   22.9068 N   0  0  0  0  0  0  0  0  0  0  0  0
   10.5205  -17.1496   24.9631 C   0  0  0  0  0  0  0  0  0  0  0  0
   10.6208  -18.1488   25.7272 O   0  0  0  0  0  0  0  0  0  0  0  0
    9.9330  -16.0081   25.4647 O   0  0  0  0  0  0  0  0  0  0  0  0
  2  7  1  0
  2  1  1  6
  3  4  1  0
  3  2  1  0
  5  4  1  0
  6  5  2  0
  7  8  2  0
  9  5  1  0
 10  7  1  0
 10 14  1  0
 11 10  1  0
 12 11  1  0
 12 13  1  0
 13 14  1  0
 14 15  1  1
 15 16  2  0
 17 18  1  0
 18 20  1  0
 19 18  2  0
 21 20  1  1
 21 23  1  0
 22 21  1  0
 22 15  1  0
 23 24  2  0
 23 25  1  0
M  END
$$$$
