EPN.pdb
     RDKit          3D

 25 25  0  0  1  0  0  0  0  0999 V2000
    9.8400  -15.3010   15.0392 N   0  0  0  0  0  0  0  0  0  0  0  0
    8.8518  -15.2572   16.1075 C   0  0  1  0  0  0  0  0  0  0  0  0
    8.0951  -16.5568   16.1660 C   0  0  0  0  0  0  0  0  0  0  0  0
    8.9248  -17.7741   16.3657 C   0  0  0  0  0  0  0  0  0  0  0  0
    8.2054  -19.0417   16.4787 C   0  0  0  0  0  0  0  0  0  0  0  0
    6.9480  -19.0494   16.4455 O   0  0  0  0  0  0  0  0  0  0  0  0
    9.4806  -14.9010   17.4012 C   0  0  0  0  0  0  0  0  0  0  0  0
   10.7038  -15.1949   17.6392 O   0  0  0  0  0  0  0  0  0  0  0  0
    8.8227  -20.2846   16.6252 O   0  0  0  0  0  0  0  0  0  0  0  0
    8.7857  -14.2272   18.4358 N   0  0  0  0  0  0  0  0  0  0  0  0
    7.3924  -13.8384   18.3585 C   0  0  0  0  0  0  0  0  0  0  0  0
    7.4283  -12.5233   19.1534 C   0  0  0  0  0  0  0  0  0  0  0  0
    8.2255  -12.9640   20.3598 C   0  0  0  0  0  0  0  0  0  0  0  0
    9.3051  -13.7949   19.7161 C   0  0  1  0  0  0  0  0  0  0  0  0
    9.5969  -14.9682   20.6009 C   0  0  0  0  0  0  0  0  0  0  0  0
    8.9488  -16.0388   20.5063 O   0  0  0  0  0  0  0  0  0  0  0  0
   14.1958  -14.3553   21.7460 N   0  0  0  0  0  0  0  0  0  0  0  0
   13.3970  -15.5207   21.9013 C   0  0  0  0  0  0  0  0  0  0  0  0
   13.5526  -16.4559   21.0768 O   0  0  0  0  0  0  0  0  0  0  0  0
   12.4050  -15.6882   22.9694 C   0  0  0  0  0  0  0  0  0  0  0  0
   11.0111  -15.9608   22.4447 C   0  0  2  0  0  0  0  0  0  0  0  0
   10.6258  -14.8796   21.5718 N   0  0  0  0  0  0  0  0  0  0  0  0
   10.1103  -15.9623   23.6202 C   0  0  0  0  0  0  0  0  0  0  0  0
    9.2992  -15.0264   23.8615 O   0  0  0  0  0  0  0  0  0  0  0  0
   10.1499  -17.0260   24.4959 O   0  0  0  0  0  0  0  0  0  0  0  0
  2  7  1  0
  2  1  1  6
  3  4  1  0
  3  2  1  0
  5  4  1  0
  6  5  2  0
  7  8  2  0
  9  5  1  0
 10  7  1  0
 10 14  1  0
 11 10  1  0
 12 11  1  0
 12 13  1  0
 13 14  1  0
 14 15  1  1
 15 16  2  0
 17 18  1  0
 18 20  1  0
 19 18  2  0
 21 20  1  1
 21 23  1  0
 22 21  1  0
 22 15  1  0
 23 24  2  0
 23 25  1  0
M  END
$$$$
