EPN.pdb
     RDKit          3D

 25 25  0  0  1  0  0  0  0  0999 V2000
    6.0456  -19.2528   23.9243 N   0  0  0  0  0  0  0  0  0  0  0  0
    6.4809  -17.8844   24.1646 C   0  0  1  0  0  0  0  0  0  0  0  0
    6.8498  -17.7055   25.6126 C   0  0  0  0  0  0  0  0  0  0  0  0
    7.8672  -18.6539   26.1375 C   0  0  0  0  0  0  0  0  0  0  0  0
    8.8265  -18.1137   27.0994 C   0  0  0  0  0  0  0  0  0  0  0  0
    8.4178  -17.4098   28.0584 O   0  0  0  0  0  0  0  0  0  0  0  0
    7.5766  -17.5037   23.2423 C   0  0  0  0  0  0  0  0  0  0  0  0
    8.3652  -18.3892   22.7595 O   0  0  0  0  0  0  0  0  0  0  0  0
   10.2046  -18.3238   27.0364 O   0  0  0  0  0  0  0  0  0  0  0  0
    7.8178  -16.1658   22.8433 N   0  0  0  0  0  0  0  0  0  0  0  0
    7.0440  -15.0300   23.3014 C   0  0  0  0  0  0  0  0  0  0  0  0
    7.0687  -14.1523   22.0398 C   0  0  0  0  0  0  0  0  0  0  0  0
    8.5391  -14.2230   21.6960 C   0  0  0  0  0  0  0  0  0  0  0  0
    8.8290  -15.6835   21.9266 C   0  0  1  0  0  0  0  0  0  0  0  0
   10.1980  -15.8110   22.5219 C   0  0  0  0  0  0  0  0  0  0  0  0
   10.4211  -15.5215   23.7225 O   0  0  0  0  0  0  0  0  0  0  0  0
   11.6261  -18.6547   23.6469 N   0  0  0  0  0  0  0  0  0  0  0  0
   12.5755  -18.8650   22.6103 C   0  0  0  0  0  0  0  0  0  0  0  0
   12.9514  -20.0427   22.3855 O   0  0  0  0  0  0  0  0  0  0  0  0
   13.1368  -17.7839   21.7923 C   0  0  0  0  0  0  0  0  0  0  0  0
   12.6295  -16.4146   22.1926 C   0  0  2  0  0  0  0  0  0  0  0  0
   11.2747  -16.2673   21.7209 N   0  0  0  0  0  0  0  0  0  0  0  0
   13.4829  -15.4270   21.4930 C   0  0  0  0  0  0  0  0  0  0  0  0
   13.1618  -14.9054   20.3898 O   0  0  0  0  0  0  0  0  0  0  0  0
   14.6819  -15.0530   22.0608 O   0  0  0  0  0  0  0  0  0  0  0  0
  2  7  1  0
  2  1  1  1
  3  4  1  0
  3  2  1  0
  5  4  1  0
  6  5  2  0
  7  8  2  0
  9  5  1  0
 10  7  1  0
 10 14  1  0
 11 10  1  0
 12 11  1  0
 12 13  1  0
 13 14  1  0
 14 15  1  1
 15 16  2  0
 17 18  1  0
 18 20  1  0
 19 18  2  0
 21 20  1  6
 21 23  1  0
 22 21  1  0
 22 15  1  0
 23 24  2  0
 23 25  1  0
M  END
$$$$
