EPN.pdb
     RDKit          3D

 25 25  0  0  1  0  0  0  0  0999 V2000
    9.1674  -14.9243   14.5191 N   0  0  0  0  0  0  0  0  0  0  0  0
    8.4561  -15.1246   15.7736 C   0  0  1  0  0  0  0  0  0  0  0  0
    7.9967  -16.5533   15.8855 C   0  0  0  0  0  0  0  0  0  0  0  0
    9.0774  -17.5733   15.9303 C   0  0  0  0  0  0  0  0  0  0  0  0
    8.6582  -18.9577   16.1420 C   0  0  0  0  0  0  0  0  0  0  0  0
    7.7558  -19.4529   15.4190 O   0  0  0  0  0  0  0  0  0  0  0  0
    9.2800  -14.6951   16.9281 C   0  0  0  0  0  0  0  0  0  0  0  0
   10.5586  -14.7202   16.8672 O   0  0  0  0  0  0  0  0  0  0  0  0
    9.1972  -19.8014   17.1141 O   0  0  0  0  0  0  0  0  0  0  0  0
    8.7199  -14.2386   18.1468 N   0  0  0  0  0  0  0  0  0  0  0  0
    7.2969  -14.1466   18.4021 C   0  0  0  0  0  0  0  0  0  0  0  0
    7.2573  -12.8981   19.2977 C   0  0  0  0  0  0  0  0  0  0  0  0
    8.3754  -13.2266   20.2606 C   0  0  0  0  0  0  0  0  0  0  0  0
    9.4212  -13.7769   19.3260 C   0  0  1  0  0  0  0  0  0  0  0  0
   10.1252  -14.9091   20.0096 C   0  0  0  0  0  0  0  0  0  0  0  0
    9.6544  -16.0725   20.0060 O   0  0  0  0  0  0  0  0  0  0  0  0
   14.5993  -14.0091   19.4231 N   0  0  0  0  0  0  0  0  0  0  0  0
   14.1019  -15.2169   19.9834 C   0  0  0  0  0  0  0  0  0  0  0  0
   14.1229  -16.2504   19.2691 O   0  0  0  0  0  0  0  0  0  0  0  0
   13.5679  -15.3198   21.3462 C   0  0  0  0  0  0  0  0  0  0  0  0
   12.0998  -15.6886   21.3801 C   0  0  2  0  0  0  0  0  0  0  0  0
   11.3517  -14.6738   20.6800 N   0  0  0  0  0  0  0  0  0  0  0  0
   11.6941  -15.6761   22.8043 C   0  0  0  0  0  0  0  0  0  0  0  0
   12.1221  -16.5142   23.6448 O   0  0  0  0  0  0  0  0  0  0  0  0
   10.8115  -14.7126   23.2432 O   0  0  0  0  0  0  0  0  0  0  0  0
  2  7  1  0
  2  1  1  6
  3  4  1  0
  3  2  1  0
  5  4  1  0
  6  5  2  0
  7  8  2  0
  9  5  1  0
 10  7  1  0
 10 14  1  0
 11 10  1  0
 12 11  1  0
 12 13  1  0
 13 14  1  0
 14 15  1  1
 15 16  2  0
 17 18  1  0
 18 20  1  0
 19 18  2  0
 21 20  1  1
 21 23  1  0
 22 21  1  0
 22 15  1  0
 23 24  2  0
 23 25  1  0
M  END
$$$$
