EPN.pdb
     RDKit          3D

 25 25  0  0  1  0  0  0  0  0999 V2000
    8.1269  -13.9601   21.0101 N   0  0  0  0  0  0  0  0  0  0  0  0
    7.3763  -14.0936   22.2505 C   0  0  1  0  0  0  0  0  0  0  0  0
    6.5588  -15.3570   22.2272 C   0  0  0  0  0  0  0  0  0  0  0  0
    7.3264  -16.6144   22.0268 C   0  0  0  0  0  0  0  0  0  0  0  0
    6.5694  -17.8615   22.1193 C   0  0  0  0  0  0  0  0  0  0  0  0
    5.3846  -17.9037   21.6990 O   0  0  0  0  0  0  0  0  0  0  0  0
    8.2728  -14.0122   23.4276 C   0  0  0  0  0  0  0  0  0  0  0  0
    9.5021  -14.3598   23.3414 O   0  0  0  0  0  0  0  0  0  0  0  0
    7.0730  -19.0479   22.6543 O   0  0  0  0  0  0  0  0  0  0  0  0
    7.8388  -13.5548   24.6963 N   0  0  0  0  0  0  0  0  0  0  0  0
    6.5181  -13.0204   24.9584 C   0  0  0  0  0  0  0  0  0  0  0  0
    6.8550  -11.9591   26.0180 C   0  0  0  0  0  0  0  0  0  0  0  0
    7.7499  -12.7682   26.9289 C   0  0  0  0  0  0  0  0  0  0  0  0
    8.5955  -13.5143   25.9297 C   0  0  1  0  0  0  0  0  0  0  0  0
    8.8452  -14.8962   26.4519 C   0  0  0  0  0  0  0  0  0  0  0  0
    7.9750  -15.7967   26.3682 O   0  0  0  0  0  0  0  0  0  0  0  0
   11.2611  -17.0566   24.9868 N   0  0  0  0  0  0  0  0  0  0  0  0
   12.2192  -17.0291   26.0363 C   0  0  0  0  0  0  0  0  0  0  0  0
   13.4215  -17.2456   25.7424 O   0  0  0  0  0  0  0  0  0  0  0  0
   11.8795  -16.7621   27.4385 C   0  0  0  0  0  0  0  0  0  0  0  0
   10.4060  -16.4834   27.6477 C   0  0  2  0  0  0  0  0  0  0  0  0
   10.0887  -15.2064   27.0575 N   0  0  0  0  0  0  0  0  0  0  0  0
   10.1971  -16.3921   29.1109 C   0  0  0  0  0  0  0  0  0  0  0  0
   10.0349  -15.2944   29.7115 O   0  0  0  0  0  0  0  0  0  0  0  0
   10.1767  -17.5488   29.8603 O   0  0  0  0  0  0  0  0  0  0  0  0
  2  7  1  0
  2  1  1  6
  3  4  1  0
  3  2  1  0
  5  4  1  0
  6  5  2  0
  7  8  2  0
  9  5  1  0
 10  7  1  0
 10 14  1  0
 11 10  1  0
 12 11  1  0
 12 13  1  0
 13 14  1  0
 14 15  1  1
 15 16  2  0
 17 18  1  0
 18 20  1  0
 19 18  2  0
 21 20  1  1
 21 23  1  0
 22 21  1  0
 22 15  1  0
 23 24  2  0
 23 25  1  0
M  END
$$$$
