LIE.pdb
     RDKit          3D

 26 25  0  0  1  0  0  0  0  0999 V2000
    6.5218  -19.2494   19.9224 C   0  0  0  0  0  0  0  0  0  0  0  0
    6.2759  -17.7806   20.1387 C   0  0  1  0  0  0  0  0  0  0  0  0
    4.8064  -17.5199   20.4693 C   0  0  0  0  0  0  0  0  0  0  0  0
    7.0972  -17.2185   21.2391 C   0  0  0  0  0  0  0  0  0  0  0  0
    6.7802  -15.7842   21.5112 C   0  0  2  0  0  0  0  0  0  0  0  0
    7.1488  -15.0089   20.2874 N   0  0  0  0  0  0  0  0  0  0  0  0
    7.5527  -15.1672   22.6070 C   0  0  0  0  0  0  0  0  0  0  0  0
    8.7601  -14.8279   22.3618 O   0  0  0  0  0  0  0  0  0  0  0  0
    5.3658  -12.0541   26.5154 C   0  0  0  0  0  0  0  0  0  0  0  0
    6.3685  -12.5175   25.4803 C   0  0  0  0  0  0  0  0  0  0  0  0
    7.1716  -13.6800   25.9927 C   0  0  2  0  0  0  0  0  0  0  0  0
    8.0868  -13.2751   27.1278 C   0  0  0  0  0  0  0  0  0  0  0  0
    7.9976  -14.3564   24.9526 C   0  0  2  0  0  0  0  0  0  0  0  0
    7.1020  -14.9019   23.9172 N   0  0  0  0  0  0  0  0  0  0  0  0
    8.8679  -15.4374   25.4955 C   0  0  0  0  0  0  0  0  0  0  0  0
    8.4074  -16.4635   26.0638 O   0  0  0  0  0  0  0  0  0  0  0  0
   10.2840  -15.3611   25.3963 N   0  0  0  0  0  0  0  0  0  0  0  0
   11.1285  -16.5432   25.6107 C   0  0  1  0  0  0  0  0  0  0  0  0
   12.4264  -16.2680   24.8877 C   0  0  0  0  0  0  0  0  0  0  0  0
   13.4546  -17.3336   25.0301 C   0  0  0  0  0  0  0  0  0  0  0  0
   14.6381  -16.9584   24.2100 C   0  0  0  0  0  0  0  0  0  0  0  0
   15.2983  -15.9462   24.5473 O   0  0  0  0  0  0  0  0  0  0  0  0
   11.3354  -16.6684   27.0659 C   0  0  0  0  0  0  0  0  0  0  0  0
   11.0980  -15.6046   27.9111 O   0  0  0  0  0  0  0  0  0  0  0  0
   14.9977  -17.6984   23.1152 O   0  0  0  0  0  0  0  0  0  0  0  0
   11.7313  -17.7358   27.5888 O   0  0  0  0  0  0  0  0  0  0  0  0
  2  3  1  1
  2  1  1  0
  4  2  1  0
  4  5  1  0
  5  7  1  0
  5  6  1  6
  7  8  2  0
 10  9  1  0
 11 10  1  0
 11 12  1  1
 13 11  1  0
 13 14  1  6
 14  7  1  0
 15 16  2  0
 15 13  1  0
 17 15  1  0
 18 23  1  0
 18 17  1  0
 18 19  1  6
 20 19  1  0
 20 21  1  0
 21 25  1  0
 22 21  2  0
 23 24  1  0
 26 23  2  0
M  END
$$$$
