LIE.pdb
     RDKit          3D

 26 25  0  0  1  0  0  0  0  0999 V2000
    6.0765  -18.6402   19.7439 C   0  0  0  0  0  0  0  0  0  0  0  0
    6.2879  -17.1575   19.8915 C   0  0  1  0  0  0  0  0  0  0  0  0
    4.9495  -16.4276   20.0033 C   0  0  0  0  0  0  0  0  0  0  0  0
    7.0972  -16.8108   21.0858 C   0  0  0  0  0  0  0  0  0  0  0  0
    7.1354  -15.3392   21.3404 C   0  0  2  0  0  0  0  0  0  0  0  0
    7.8927  -14.7138   20.2136 N   0  0  0  0  0  0  0  0  0  0  0  0
    7.8547  -14.9318   22.5631 C   0  0  0  0  0  0  0  0  0  0  0  0
    9.1317  -14.9107   22.5189 O   0  0  0  0  0  0  0  0  0  0  0  0
    5.8846  -11.5719   26.4062 C   0  0  0  0  0  0  0  0  0  0  0  0
    6.8811  -12.2157   25.4660 C   0  0  0  0  0  0  0  0  0  0  0  0
    7.3260  -13.5531   25.9878 C   0  0  2  0  0  0  0  0  0  0  0  0
    8.1561  -13.4185   27.2459 C   0  0  0  0  0  0  0  0  0  0  0  0
    8.1026  -14.3630   25.0068 C   0  0  2  0  0  0  0  0  0  0  0  0
    7.2839  -14.5538   23.7964 N   0  0  0  0  0  0  0  0  0  0  0  0
    8.5393  -15.6841   25.5408 C   0  0  0  0  0  0  0  0  0  0  0  0
    7.7332  -16.5295   26.0133 O   0  0  0  0  0  0  0  0  0  0  0  0
    9.9104  -16.0599   25.5423 N   0  0  0  0  0  0  0  0  0  0  0  0
   10.3328  -17.4027   25.9607 C   0  0  1  0  0  0  0  0  0  0  0  0
   11.4735  -17.7868   25.0474 C   0  0  0  0  0  0  0  0  0  0  0  0
   12.5890  -16.8037   24.9997 C   0  0  0  0  0  0  0  0  0  0  0  0
   13.5735  -17.2579   23.9807 C   0  0  0  0  0  0  0  0  0  0  0  0
   14.2574  -18.2800   24.2291 O   0  0  0  0  0  0  0  0  0  0  0  0
   10.7743  -17.2990   27.3644 C   0  0  0  0  0  0  0  0  0  0  0  0
   10.8210  -16.0790   28.0061 O   0  0  0  0  0  0  0  0  0  0  0  0
   13.7294  -16.5781   22.8021 O   0  0  0  0  0  0  0  0  0  0  0  0
   11.1217  -18.3052   28.0251 O   0  0  0  0  0  0  0  0  0  0  0  0
  2  3  1  1
  2  1  1  0
  4  2  1  0
  4  5  1  0
  5  7  1  0
  5  6  1  6
  7  8  2  0
 10  9  1  0
 11 10  1  0
 11 12  1  1
 13 11  1  0
 13 14  1  6
 14  7  1  0
 15 16  2  0
 15 13  1  0
 17 15  1  0
 18 23  1  0
 18 17  1  0
 18 19  1  6
 20 19  1  0
 20 21  1  0
 21 25  1  0
 22 21  2  0
 23 24  1  0
 26 23  2  0
M  END
$$$$
