LIE.pdb
     RDKit          3D

 26 25  0  0  1  0  0  0  0  0999 V2000
    5.5693  -19.8625   20.6629 C   0  0  0  0  0  0  0  0  0  0  0  0
    5.5564  -18.3622   20.5448 C   0  0  1  0  0  0  0  0  0  0  0  0
    4.1866  -17.8003   20.9252 C   0  0  0  0  0  0  0  0  0  0  0  0
    6.5718  -17.7112   21.4088 C   0  0  0  0  0  0  0  0  0  0  0  0
    6.4378  -16.2234   21.4237 C   0  0  2  0  0  0  0  0  0  0  0  0
    6.8865  -15.7245   20.0879 N   0  0  0  0  0  0  0  0  0  0  0  0
    7.2922  -15.5255   22.4041 C   0  0  0  0  0  0  0  0  0  0  0  0
    8.5358  -15.4142   22.1318 O   0  0  0  0  0  0  0  0  0  0  0  0
    7.1138  -11.6456   27.2235 C   0  0  0  0  0  0  0  0  0  0  0  0
    7.9470  -12.5878   26.3812 C   0  0  0  0  0  0  0  0  0  0  0  0
    7.0895  -13.3245   25.3909 C   0  0  2  0  0  0  0  0  0  0  0  0
    5.9713  -14.0847   26.0704 C   0  0  0  0  0  0  0  0  0  0  0  0
    7.8391  -14.2803   24.5271 C   0  0  2  0  0  0  0  0  0  0  0  0
    6.8856  -14.9548   23.6283 N   0  0  0  0  0  0  0  0  0  0  0  0
    8.6175  -15.2916   25.2967 C   0  0  0  0  0  0  0  0  0  0  0  0
    8.0886  -16.3136   25.8101 O   0  0  0  0  0  0  0  0  0  0  0  0
   10.0184  -15.1487   25.4916 N   0  0  0  0  0  0  0  0  0  0  0  0
   10.8593  -16.2971   25.8534 C   0  0  1  0  0  0  0  0  0  0  0  0
   12.2021  -16.0544   25.2047 C   0  0  0  0  0  0  0  0  0  0  0  0
   13.2858  -16.9659   25.6605 C   0  0  0  0  0  0  0  0  0  0  0  0
   14.5363  -16.6091   24.9373 C   0  0  0  0  0  0  0  0  0  0  0  0
   14.5961  -16.8374   23.7051 O   0  0  0  0  0  0  0  0  0  0  0  0
   10.9632  -16.3101   27.3248 C   0  0  0  0  0  0  0  0  0  0  0  0
   11.4187  -17.4264   27.9948 O   0  0  0  0  0  0  0  0  0  0  0  0
   15.5947  -16.0460   25.5993 O   0  0  0  0  0  0  0  0  0  0  0  0
   10.6451  -15.3174   28.0197 O   0  0  0  0  0  0  0  0  0  0  0  0
  2  3  1  1
  2  1  1  0
  4  2  1  0
  4  5  1  0
  5  7  1  0
  5  6  1  6
  7  8  2  0
 10  9  1  0
 11 10  1  0
 11 12  1  1
 13 11  1  0
 13 14  1  6
 14  7  1  0
 15 16  2  0
 15 13  1  0
 17 15  1  0
 18 23  1  0
 18 17  1  0
 18 19  1  6
 20 19  1  0
 20 21  1  0
 21 25  1  0
 22 21  2  0
 23 24  1  0
 26 23  2  0
M  END
$$$$
