LIE.pdb
     RDKit          3D

 26 25  0  0  1  0  0  0  0  0999 V2000
    7.5923  -12.8426   18.7931 C   0  0  0  0  0  0  0  0  0  0  0  0
    7.6275  -14.3471   18.7977 C   0  0  1  0  0  0  0  0  0  0  0  0
    8.4034  -14.8749   17.5910 C   0  0  0  0  0  0  0  0  0  0  0  0
    8.2566  -14.9014   20.0218 C   0  0  0  0  0  0  0  0  0  0  0  0
    7.3550  -14.8245   21.2105 C   0  0  2  0  0  0  0  0  0  0  0  0
    6.4795  -13.6271   21.0261 N   0  0  0  0  0  0  0  0  0  0  0  0
    8.0359  -14.6104   22.5024 C   0  0  0  0  0  0  0  0  0  0  0  0
    9.2354  -14.1706   22.4733 O   0  0  0  0  0  0  0  0  0  0  0  0
    6.2410  -11.5637   26.2068 C   0  0  0  0  0  0  0  0  0  0  0  0
    7.1445  -12.3609   25.2905 C   0  0  0  0  0  0  0  0  0  0  0  0
    7.5001  -13.6855   25.9053 C   0  0  2  0  0  0  0  0  0  0  0  0
    8.2711  -13.5177   27.1965 C   0  0  0  0  0  0  0  0  0  0  0  0
    8.2867  -14.5815   25.0110 C   0  0  2  0  0  0  0  0  0  0  0  0
    7.5038  -14.8373   23.7890 N   0  0  0  0  0  0  0  0  0  0  0  0
    8.6698  -15.8718   25.6509 C   0  0  0  0  0  0  0  0  0  0  0  0
    7.8281  -16.6516   26.1717 O   0  0  0  0  0  0  0  0  0  0  0  0
   10.0270  -16.2915   25.7049 N   0  0  0  0  0  0  0  0  0  0  0  0
   10.3951  -17.6198   26.2116 C   0  0  1  0  0  0  0  0  0  0  0  0
   11.7407  -17.9420   25.6047 C   0  0  0  0  0  0  0  0  0  0  0  0
   12.3603  -19.2003   26.1004 C   0  0  0  0  0  0  0  0  0  0  0  0
   13.7025  -19.3427   25.4741 C   0  0  0  0  0  0  0  0  0  0  0  0
   14.6804  -19.6012   26.2163 O   0  0  0  0  0  0  0  0  0  0  0  0
   10.4749  -17.5149   27.6809 C   0  0  0  0  0  0  0  0  0  0  0  0
   10.3112  -18.6256   28.4822 O   0  0  0  0  0  0  0  0  0  0  0  0
   13.8665  -19.1955   24.1224 O   0  0  0  0  0  0  0  0  0  0  0  0
   10.6926  -16.4233   28.2557 O   0  0  0  0  0  0  0  0  0  0  0  0
  2  3  1  6
  2  1  1  0
  4  2  1  0
  4  5  1  0
  5  7  1  0
  5  6  1  6
  7  8  2  0
 10  9  1  0
 11 10  1  0
 11 12  1  1
 13 11  1  0
 13 14  1  6
 14  7  1  0
 15 16  2  0
 15 13  1  0
 17 15  1  0
 18 23  1  0
 18 17  1  0
 18 19  1  6
 20 19  1  0
 20 21  1  0
 21 25  1  0
 22 21  2  0
 23 24  1  0
 26 23  2  0
M  END
$$$$
