LIE.pdb
     RDKit          3D

 26 25  0  0  1  0  0  0  0  0999 V2000
    7.2282  -12.0225   27.8805 C   0  0  0  0  0  0  0  0  0  0  0  0
    6.4081  -13.0660   27.1711 C   0  0  1  0  0  0  0  0  0  0  0  0
    5.4537  -12.4166   26.1691 C   0  0  0  0  0  0  0  0  0  0  0  0
    7.2429  -14.0473   26.4350 C   0  0  0  0  0  0  0  0  0  0  0  0
    6.4481  -14.8538   25.4605 C   0  0  2  0  0  0  0  0  0  0  0  0
    5.9161  -16.0407   26.1971 N   0  0  0  0  0  0  0  0  0  0  0  0
    7.2181  -15.4122   24.3320 C   0  0  0  0  0  0  0  0  0  0  0  0
    7.8315  -16.5169   24.5233 O   0  0  0  0  0  0  0  0  0  0  0  0
    8.4153  -12.5718   19.5112 C   0  0  0  0  0  0  0  0  0  0  0  0
    8.6174  -13.2974   20.8242 C   0  0  0  0  0  0  0  0  0  0  0  0
    8.0834  -14.7004   20.7508 C   0  0  2  0  0  0  0  0  0  0  0  0
    6.6275  -14.7277   20.3394 C   0  0  0  0  0  0  0  0  0  0  0  0
    8.2194  -15.4719   22.0188 C   0  0  2  0  0  0  0  0  0  0  0  0
    7.3550  -14.8576   23.0422 N   0  0  0  0  0  0  0  0  0  0  0  0
    9.6215  -15.5532   22.5172 C   0  0  0  0  0  0  0  0  0  0  0  0
   10.1015  -14.7299   23.3416 O   0  0  0  0  0  0  0  0  0  0  0  0
   10.4996  -16.5816   22.0785 N   0  0  0  0  0  0  0  0  0  0  0  0
   11.8819  -16.6643   22.5672 C   0  0  1  0  0  0  0  0  0  0  0  0
   11.9669  -17.9409   23.3708 C   0  0  0  0  0  0  0  0  0  0  0  0
   13.3379  -18.2999   23.8232 C   0  0  0  0  0  0  0  0  0  0  0  0
   13.2495  -19.5191   24.6715 C   0  0  0  0  0  0  0  0  0  0  0  0
   12.5300  -19.4778   25.6985 O   0  0  0  0  0  0  0  0  0  0  0  0
   12.7575  -16.7120   21.3809 C   0  0  0  0  0  0  0  0  0  0  0  0
   14.1008  -16.4144   21.4772 O   0  0  0  0  0  0  0  0  0  0  0  0
   13.9356  -20.6571   24.3402 O   0  0  0  0  0  0  0  0  0  0  0  0
   12.3211  -17.0218   20.2481 O   0  0  0  0  0  0  0  0  0  0  0  0
  2  3  1  6
  2  1  1  0
  4  2  1  0
  4  5  1  0
  5  7  1  0
  5  6  1  1
  7  8  2  0
 10  9  1  0
 11 10  1  0
 11 12  1  1
 13 11  1  0
 13 14  1  1
 14  7  1  0
 15 16  2  0
 15 13  1  0
 17 15  1  0
 18 23  1  0
 18 17  1  0
 18 19  1  6
 20 19  1  0
 20 21  1  0
 21 25  1  0
 22 21  2  0
 23 24  1  0
 26 23  2  0
M  END
$$$$
