LIE.pdb
     RDKit          3D

 26 25  0  0  1  0  0  0  0  0999 V2000
    6.9340  -19.6851   20.0251 C   0  0  0  0  0  0  0  0  0  0  0  0
    6.8008  -18.1862   20.0138 C   0  0  1  0  0  0  0  0  0  0  0  0
    5.3311  -17.7720   20.0862 C   0  0  0  0  0  0  0  0  0  0  0  0
    7.5125  -17.5396   21.1439 C   0  0  0  0  0  0  0  0  0  0  0  0
    7.2712  -16.0665   21.2010 C   0  0  2  0  0  0  0  0  0  0  0  0
    7.9084  -15.4656   19.9897 N   0  0  0  0  0  0  0  0  0  0  0  0
    7.8896  -15.3727   22.3476 C   0  0  0  0  0  0  0  0  0  0  0  0
    9.1555  -15.2003   22.3221 O   0  0  0  0  0  0  0  0  0  0  0  0
    6.6596  -11.6359   27.1149 C   0  0  0  0  0  0  0  0  0  0  0  0
    7.6788  -12.4961   26.3989 C   0  0  0  0  0  0  0  0  0  0  0  0
    7.0274  -13.3176   25.3220 C   0  0  2  0  0  0  0  0  0  0  0  0
    5.9027  -14.1705   25.8675 C   0  0  0  0  0  0  0  0  0  0  0  0
    7.9658  -14.2088   24.5828 C   0  0  2  0  0  0  0  0  0  0  0  0
    7.2310  -14.8668   23.4879 N   0  0  0  0  0  0  0  0  0  0  0  0
    8.6177  -15.2328   25.4474 C   0  0  0  0  0  0  0  0  0  0  0  0
    8.0435  -16.2999   25.7927 O   0  0  0  0  0  0  0  0  0  0  0  0
    9.9418  -15.0511   25.9320 N   0  0  0  0  0  0  0  0  0  0  0  0
   10.7750  -16.1956   26.3223 C   0  0  1  0  0  0  0  0  0  0  0  0
   12.1133  -15.9877   25.6525 C   0  0  0  0  0  0  0  0  0  0  0  0
   13.1797  -16.9279   26.0906 C   0  0  0  0  0  0  0  0  0  0  0  0
   14.4239  -16.6120   25.3382 C   0  0  0  0  0  0  0  0  0  0  0  0
   15.4983  -16.5170   25.9792 O   0  0  0  0  0  0  0  0  0  0  0  0
   10.8942  -16.1620   27.7923 C   0  0  0  0  0  0  0  0  0  0  0  0
   11.3923  -17.2429   28.4894 O   0  0  0  0  0  0  0  0  0  0  0  0
   14.3975  -16.4296   23.9811 O   0  0  0  0  0  0  0  0  0  0  0  0
   10.5512  -15.1599   28.4615 O   0  0  0  0  0  0  0  0  0  0  0  0
  2  3  1  1
  2  1  1  0
  4  2  1  0
  4  5  1  0
  5  7  1  0
  5  6  1  6
  7  8  2  0
 10  9  1  0
 11 10  1  0
 11 12  1  1
 13 11  1  0
 13 14  1  6
 14  7  1  0
 15 16  2  0
 15 13  1  0
 17 15  1  0
 18 23  1  0
 18 17  1  0
 18 19  1  6
 20 19  1  0
 20 21  1  0
 21 25  1  0
 22 21  2  0
 23 24  1  0
 26 23  2  0
M  END
$$$$
