LIE.pdb
     RDKit          3D

 26 25  0  0  1  0  0  0  0  0999 V2000
    6.7082  -18.5378   19.1017 C   0  0  0  0  0  0  0  0  0  0  0  0
    6.4181  -17.1245   19.5298 C   0  0  1  0  0  0  0  0  0  0  0  0
    4.9975  -17.0060   20.0816 C   0  0  0  0  0  0  0  0  0  0  0  0
    7.3543  -16.6389   20.5735 C   0  0  0  0  0  0  0  0  0  0  0  0
    6.9934  -15.2784   21.0742 C   0  0  2  0  0  0  0  0  0  0  0  0
    7.3297  -14.3040   19.9917 N   0  0  0  0  0  0  0  0  0  0  0  0
    7.7522  -14.8220   22.2549 C   0  0  0  0  0  0  0  0  0  0  0  0
    8.9727  -14.4862   22.0803 O   0  0  0  0  0  0  0  0  0  0  0  0
    5.6197  -12.0295   26.4656 C   0  0  0  0  0  0  0  0  0  0  0  0
    6.5609  -12.4754   25.3671 C   0  0  0  0  0  0  0  0  0  0  0  0
    7.3109  -13.7135   25.7714 C   0  0  2  0  0  0  0  0  0  0  0  0
    8.1979  -13.4672   26.9724 C   0  0  0  0  0  0  0  0  0  0  0  0
    8.1518  -14.2982   24.6886 C   0  0  2  0  0  0  0  0  0  0  0  0
    7.2751  -14.7094   23.5777 N   0  0  0  0  0  0  0  0  0  0  0  0
    8.9811  -15.4519   25.1381 C   0  0  0  0  0  0  0  0  0  0  0  0
    8.4813  -16.5160   25.5916 O   0  0  0  0  0  0  0  0  0  0  0  0
   10.4006  -15.4060   25.0753 N   0  0  0  0  0  0  0  0  0  0  0  0
   11.2123  -16.6140   25.2710 C   0  0  1  0  0  0  0  0  0  0  0  0
   12.5111  -16.3697   24.5388 C   0  0  0  0  0  0  0  0  0  0  0  0
   13.5441  -17.4214   24.7386 C   0  0  0  0  0  0  0  0  0  0  0  0
   14.7534  -17.0482   23.9562 C   0  0  0  0  0  0  0  0  0  0  0  0
   15.2186  -15.8914   24.0965 O   0  0  0  0  0  0  0  0  0  0  0  0
   11.4283  -16.7590   26.7231 C   0  0  0  0  0  0  0  0  0  0  0  0
   11.8133  -17.9666   27.2668 O   0  0  0  0  0  0  0  0  0  0  0  0
   15.3437  -17.9438   23.1048 O   0  0  0  0  0  0  0  0  0  0  0  0
   11.2724  -15.8003   27.5144 O   0  0  0  0  0  0  0  0  0  0  0  0
  2  3  1  1
  2  1  1  0
  4  2  1  0
  4  5  1  0
  5  7  1  0
  5  6  1  6
  7  8  2  0
 10  9  1  0
 11 10  1  0
 11 12  1  1
 13 11  1  0
 13 14  1  6
 14  7  1  0
 15 16  2  0
 15 13  1  0
 17 15  1  0
 18 23  1  0
 18 17  1  0
 18 19  1  6
 20 19  1  0
 20 21  1  0
 21 25  1  0
 22 21  2  0
 23 24  1  0
 26 23  2  0
M  END
$$$$
