CLE.pdb
     RDKit          3D

 24 23  0  0  1  0  0  0  0  0999 V2000
   27.8278  -18.8014  -16.0230 N   0  0  0  0  0  0  0  0  0  0  0  0
   26.9083  -18.3045  -15.0393 C   0  0  1  0  0  0  0  0  0  0  0  0
   26.1426  -17.1117  -15.5555 C   0  0  0  0  0  0  0  0  0  0  0  0
   27.1544  -15.6303  -15.2766 S   0  0  0  0  0  0  0  0  0  0  0  0
   25.9802  -19.3827  -14.6242 C   0  0  0  0  0  0  0  0  0  0  0  0
   25.7073  -20.2980  -15.4487 O   0  0  0  0  0  0  0  0  0  0  0  0
   26.4254  -22.1349  -11.2454 C   0  0  0  0  0  0  0  0  0  0  0  0
   25.9168  -20.7719  -10.7499 C   0  0  2  0  0  0  0  0  0  0  0  0
   25.9248  -20.8328   -9.2582 C   0  0  0  0  0  0  0  0  0  0  0  0
   24.5773  -20.5839  -11.3791 C   0  0  0  0  0  0  0  0  0  0  0  0
   24.5640  -20.4681  -12.8632 C   0  0  2  0  0  0  0  0  0  0  0  0
   25.4095  -19.3966  -13.3416 N   0  0  0  0  0  0  0  0  0  0  0  0
   23.1539  -20.1226  -13.2750 C   0  0  0  0  0  0  0  0  0  0  0  0
   22.6627  -19.0378  -12.8268 O   0  0  0  0  0  0  0  0  0  0  0  0
   22.3968  -20.9517  -14.1183 N   0  0  0  0  0  0  0  0  0  0  0  0
   21.0268  -20.5261  -14.5443 C   0  0  1  0  0  0  0  0  0  0  0  0
   20.9748  -20.6512  -16.0099 C   0  0  0  0  0  0  0  0  0  0  0  0
   21.1301  -22.0249  -16.5554 C   0  0  0  0  0  0  0  0  0  0  0  0
   21.1999  -22.1665  -18.0126 C   0  0  0  0  0  0  0  0  0  0  0  0
   21.0745  -21.1678  -18.7539 O   0  0  0  0  0  0  0  0  0  0  0  0
   20.0287  -21.2089  -13.7507 C   0  0  0  0  0  0  0  0  0  0  0  0
   18.8264  -20.8986  -13.6692 O   0  0  0  0  0  0  0  0  0  0  0  0
   21.4102  -23.4035  -18.5807 O   0  0  0  0  0  0  0  0  0  0  0  0
   20.4292  -22.3346  -12.9884 O   0  0  0  0  0  0  0  0  0  0  0  0
  2  3  1  0
  2  1  1  6
  4  3  1  0
  5  2  1  0
  5  6  2  0
  8  7  1  6
  8 10  1  0
  8  9  1  0
 11 10  1  1
 11 13  1  0
 12 11  1  0
 12  5  1  0
 13 14  2  0
 13 15  1  0
 15 16  1  0
 16 21  1  0
 16 17  1  6
 18 17  1  0
 19 18  1  0
 20 19  2  0
 21 22  2  0
 21 24  1  0
 23 19  1  0
M  END
$$$$
