CLE.pdb
     RDKit          3D

 24 23  0  0  1  0  0  0  0  0999 V2000
   18.7678  -12.3241  -16.7171 N   0  0  0  0  0  0  0  0  0  0  0  0
   19.5030  -11.3643  -17.4905 C   0  0  1  0  0  0  0  0  0  0  0  0
   18.5894  -10.3211  -18.0844 C   0  0  0  0  0  0  0  0  0  0  0  0
   17.3788  -11.1686  -19.1390 S   0  0  0  0  0  0  0  0  0  0  0  0
   20.5457  -10.7297  -16.6501 C   0  0  0  0  0  0  0  0  0  0  0  0
   20.2381  -10.3492  -15.4872 O   0  0  0  0  0  0  0  0  0  0  0  0
   26.6763  -10.4600  -16.6870 C   0  0  0  0  0  0  0  0  0  0  0  0
   25.4244   -9.8220  -16.0642 C   0  0  2  0  0  0  0  0  0  0  0  0
   25.5263  -10.0386  -14.5906 C   0  0  0  0  0  0  0  0  0  0  0  0
   24.2603  -10.4740  -16.7315 C   0  0  0  0  0  0  0  0  0  0  0  0
   22.9156   -9.9776  -16.3293 C   0  0  2  0  0  0  0  0  0  0  0  0
   21.8537  -10.5498  -17.1273 N   0  0  0  0  0  0  0  0  0  0  0  0
   22.8915   -8.4898  -16.5808 C   0  0  0  0  0  0  0  0  0  0  0  0
   22.8457   -8.1017  -17.7916 O   0  0  0  0  0  0  0  0  0  0  0  0
   22.9182   -7.5541  -15.5341 N   0  0  0  0  0  0  0  0  0  0  0  0
   22.7804   -6.0952  -15.8378 C   0  0  1  0  0  0  0  0  0  0  0  0
   21.5119   -5.9260  -16.5649 C   0  0  0  0  0  0  0  0  0  0  0  0
   20.5138   -5.0209  -15.9378 C   0  0  0  0  0  0  0  0  0  0  0  0
   19.1137   -5.1807  -16.3407 C   0  0  0  0  0  0  0  0  0  0  0  0
   18.8088   -5.9328  -17.2916 O   0  0  0  0  0  0  0  0  0  0  0  0
   23.0054   -5.3180  -14.6389 C   0  0  0  0  0  0  0  0  0  0  0  0
   22.8905   -5.7317  -13.4709 O   0  0  0  0  0  0  0  0  0  0  0  0
   18.1170   -4.5062  -15.6707 O   0  0  0  0  0  0  0  0  0  0  0  0
   23.3920   -3.9616  -14.7785 O   0  0  0  0  0  0  0  0  0  0  0  0
  2  3  1  0
  2  1  1  1
  4  3  1  0
  5  2  1  0
  5  6  2  0
  8  7  1  6
  8 10  1  0
  8  9  1  0
 11 10  1  6
 11 13  1  0
 12 11  1  0
 12  5  1  0
 13 14  2  0
 13 15  1  0
 15 16  1  0
 16 21  1  0
 16 17  1  1
 18 17  1  0
 19 18  1  0
 20 19  2  0
 21 22  2  0
 21 24  1  0
 23 19  1  0
M  END
$$$$
