CLE.pdb
     RDKit          3D

 24 23  0  0  1  0  0  0  0  0999 V2000
   26.9057  -22.5100  -16.0659 N   0  0  0  0  0  0  0  0  0  0  0  0
   26.6606  -21.3212  -15.2999 C   0  0  1  0  0  0  0  0  0  0  0  0
   25.8080  -20.3401  -16.0655 C   0  0  0  0  0  0  0  0  0  0  0  0
   24.5149  -21.2750  -16.9315 S   0  0  0  0  0  0  0  0  0  0  0  0
   26.0228  -21.6736  -14.0095 C   0  0  0  0  0  0  0  0  0  0  0  0
   25.3827  -22.7577  -13.9261 O   0  0  0  0  0  0  0  0  0  0  0  0
   26.0041  -19.3969   -8.2737 C   0  0  0  0  0  0  0  0  0  0  0  0
   25.4519  -20.5184   -9.1678 C   0  0  2  0  0  0  0  0  0  0  0  0
   25.7965  -21.8058   -8.4951 C   0  0  0  0  0  0  0  0  0  0  0  0
   26.0673  -20.3090  -10.5106 C   0  0  0  0  0  0  0  0  0  0  0  0
   25.4932  -21.1135  -11.6240 C   0  0  2  0  0  0  0  0  0  0  0  0
   26.1217  -20.8262  -12.8946 N   0  0  0  0  0  0  0  0  0  0  0  0
   24.0425  -20.7213  -11.7610 C   0  0  0  0  0  0  0  0  0  0  0  0
   23.2885  -20.9071  -10.7531 O   0  0  0  0  0  0  0  0  0  0  0  0
   23.5251  -20.1718  -12.9451 N   0  0  0  0  0  0  0  0  0  0  0  0
   22.0929  -19.7415  -13.0009 C   0  0  1  0  0  0  0  0  0  0  0  0
   21.9434  -18.9013  -14.2002 C   0  0  0  0  0  0  0  0  0  0  0  0
   21.9697  -19.6125  -15.5049 C   0  0  0  0  0  0  0  0  0  0  0  0
   21.9751  -18.7913  -16.7190 C   0  0  0  0  0  0  0  0  0  0  0  0
   20.9007  -18.4128  -17.2338 O   0  0  0  0  0  0  0  0  0  0  0  0
   21.2263  -20.8886  -12.8413 C   0  0  0  0  0  0  0  0  0  0  0  0
   20.0680  -20.8682  -12.3868 O   0  0  0  0  0  0  0  0  0  0  0  0
   23.1670  -18.4234  -17.3031 O   0  0  0  0  0  0  0  0  0  0  0  0
   21.7153  -22.1610  -13.2291 O   0  0  0  0  0  0  0  0  0  0  0  0
  2  3  1  0
  2  1  1  6
  4  3  1  0
  5  2  1  0
  5  6  2  0
  8  7  1  1
  8 10  1  0
  8  9  1  0
 11 10  1  1
 11 13  1  0
 12 11  1  0
 12  5  1  0
 13 14  2  0
 13 15  1  0
 15 16  1  0
 16 21  1  0
 16 17  1  6
 18 17  1  0
 19 18  1  0
 20 19  2  0
 21 22  2  0
 21 24  1  0
 23 19  1  0
M  END
$$$$
