CLE.pdb
     RDKit          3D

 24 23  0  0  1  0  0  0  0  0999 V2000
   19.4235  -13.6977  -17.0928 N   0  0  0  0  0  0  0  0  0  0  0  0
   20.1250  -12.6891  -17.8347 C   0  0  1  0  0  0  0  0  0  0  0  0
   19.1799  -11.8701  -18.6784 C   0  0  0  0  0  0  0  0  0  0  0  0
   18.4049  -12.9774  -19.8905 S   0  0  0  0  0  0  0  0  0  0  0  0
   20.8881  -11.8191  -16.9089 C   0  0  0  0  0  0  0  0  0  0  0  0
   20.3138  -11.3869  -15.8720 O   0  0  0  0  0  0  0  0  0  0  0  0
   26.8264  -10.4038  -16.0947 C   0  0  0  0  0  0  0  0  0  0  0  0
   25.4007  -10.0888  -15.6147 C   0  0  2  0  0  0  0  0  0  0  0  0
   25.3600  -10.4204  -14.1596 C   0  0  0  0  0  0  0  0  0  0  0  0
   24.4918  -10.8919  -16.4834 C   0  0  0  0  0  0  0  0  0  0  0  0
   23.0332  -10.6967  -16.2581 C   0  0  2  0  0  0  0  0  0  0  0  0
   22.2241  -11.4757  -17.1695 N   0  0  0  0  0  0  0  0  0  0  0  0
   22.7248   -9.2464  -16.5381 C   0  0  0  0  0  0  0  0  0  0  0  0
   22.9835   -8.8076  -17.7041 O   0  0  0  0  0  0  0  0  0  0  0  0
   22.1741   -8.3975  -15.5644 N   0  0  0  0  0  0  0  0  0  0  0  0
   21.8802   -6.9699  -15.9034 C   0  0  1  0  0  0  0  0  0  0  0  0
   20.4171   -6.8131  -15.8701 C   0  0  0  0  0  0  0  0  0  0  0  0
   19.9053   -5.4221  -15.9791 C   0  0  0  0  0  0  0  0  0  0  0  0
   18.4511   -5.2386  -15.9854 C   0  0  0  0  0  0  0  0  0  0  0  0
   17.6870   -6.2217  -15.8752 O   0  0  0  0  0  0  0  0  0  0  0  0
   22.6938   -6.0921  -15.0912 C   0  0  0  0  0  0  0  0  0  0  0  0
   23.1153   -6.3417  -13.9473 O   0  0  0  0  0  0  0  0  0  0  0  0
   17.9110   -3.9775  -16.1078 O   0  0  0  0  0  0  0  0  0  0  0  0
   23.0576   -4.8292  -15.6215 O   0  0  0  0  0  0  0  0  0  0  0  0
  2  3  1  0
  2  1  1  1
  4  3  1  0
  5  2  1  0
  5  6  2  0
  8  7  1  6
  8 10  1  0
  8  9  1  0
 11 10  1  6
 11 13  1  0
 12 11  1  0
 12  5  1  0
 13 14  2  0
 13 15  1  0
 15 16  1  0
 16 21  1  0
 16 17  1  1
 18 17  1  0
 19 18  1  0
 20 19  2  0
 21 22  2  0
 21 24  1  0
 23 19  1  0
M  END
$$$$
