CLE.pdb
     RDKit          3D

 24 23  0  0  1  0  0  0  0  0999 V2000
   19.0582  -12.4067  -18.7658 N   0  0  0  0  0  0  0  0  0  0  0  0
   19.8660  -11.2445  -19.0038 C   0  0  1  0  0  0  0  0  0  0  0  0
   19.0287  -10.0788  -19.4684 C   0  0  0  0  0  0  0  0  0  0  0  0
   18.5650  -10.3737  -21.1987 S   0  0  0  0  0  0  0  0  0  0  0  0
   20.6191  -10.8922  -17.7771 C   0  0  0  0  0  0  0  0  0  0  0  0
   20.0231  -10.9382  -16.6660 O   0  0  0  0  0  0  0  0  0  0  0  0
   26.4811  -10.1485  -16.1121 C   0  0  0  0  0  0  0  0  0  0  0  0
   25.0331   -9.8512  -15.6914 C   0  0  2  0  0  0  0  0  0  0  0  0
   24.8277  -10.5225  -14.3738 C   0  0  0  0  0  0  0  0  0  0  0  0
   24.1750  -10.3466  -16.8067 C   0  0  0  0  0  0  0  0  0  0  0  0
   22.7181  -10.0664  -16.6831 C   0  0  2  0  0  0  0  0  0  0  0  0
   21.9695  -10.5131  -17.8372 N   0  0  0  0  0  0  0  0  0  0  0  0
   22.5524   -8.5681  -16.6139 C   0  0  0  0  0  0  0  0  0  0  0  0
   22.4676   -7.9373  -17.7156 O   0  0  0  0  0  0  0  0  0  0  0  0
   22.4922   -7.8781  -15.3923 N   0  0  0  0  0  0  0  0  0  0  0  0
   22.1569   -6.4197  -15.3783 C   0  0  1  0  0  0  0  0  0  0  0  0
   20.8736   -6.2674  -16.0828 C   0  0  0  0  0  0  0  0  0  0  0  0
   20.2606   -4.9142  -16.0408 C   0  0  0  0  0  0  0  0  0  0  0  0
   18.9026   -4.7737  -16.5742 C   0  0  0  0  0  0  0  0  0  0  0  0
   18.0674   -4.0430  -15.9988 O   0  0  0  0  0  0  0  0  0  0  0  0
   22.2809   -5.8976  -14.0351 C   0  0  0  0  0  0  0  0  0  0  0  0
   22.0783   -6.5340  -12.9852 O   0  0  0  0  0  0  0  0  0  0  0  0
   18.5340   -5.4429  -17.7202 O   0  0  0  0  0  0  0  0  0  0  0  0
   22.6658   -4.5434  -13.8721 O   0  0  0  0  0  0  0  0  0  0  0  0
  2  3  1  0
  2  1  1  1
  4  3  1  0
  5  2  1  0
  5  6  2  0
  8  7  1  6
  8 10  1  0
  8  9  1  0
 11 10  1  6
 11 13  1  0
 12 11  1  0
 12  5  1  0
 13 14  2  0
 13 15  1  0
 15 16  1  0
 16 21  1  0
 16 17  1  1
 18 17  1  0
 19 18  1  0
 20 19  2  0
 21 22  2  0
 21 24  1  0
 23 19  1  0
M  END
$$$$
