CLE.pdb
     RDKit          3D

 24 23  0  0  1  0  0  0  0  0999 V2000
   27.8366  -18.1851  -15.9342 N   0  0  0  0  0  0  0  0  0  0  0  0
   26.8853  -17.9699  -14.8812 C   0  0  1  0  0  0  0  0  0  0  0  0
   25.8993  -16.8874  -15.2440 C   0  0  0  0  0  0  0  0  0  0  0  0
   26.6843  -15.2818  -14.9251 S   0  0  0  0  0  0  0  0  0  0  0  0
   26.1814  -19.2360  -14.5690 C   0  0  0  0  0  0  0  0  0  0  0  0
   26.1605  -20.1484  -15.4402 O   0  0  0  0  0  0  0  0  0  0  0  0
   26.9625  -21.7913  -10.9231 C   0  0  0  0  0  0  0  0  0  0  0  0
   26.0604  -20.5799  -10.6388 C   0  0  2  0  0  0  0  0  0  0  0  0
   25.8657  -20.5338   -9.1593 C   0  0  0  0  0  0  0  0  0  0  0  0
   24.8233  -20.7954  -11.4442 C   0  0  0  0  0  0  0  0  0  0  0  0
   24.9806  -20.6947  -12.9212 C   0  0  2  0  0  0  0  0  0  0  0  0
   25.5465  -19.4286  -13.3318 N   0  0  0  0  0  0  0  0  0  0  0  0
   23.6003  -20.7678  -13.5267 C   0  0  0  0  0  0  0  0  0  0  0  0
   22.9526  -19.6784  -13.6400 O   0  0  0  0  0  0  0  0  0  0  0  0
   23.0345  -21.9798  -13.9542 N   0  0  0  0  0  0  0  0  0  0  0  0
   21.6458  -21.9959  -14.5115 C   0  0  1  0  0  0  0  0  0  0  0  0
   20.8165  -21.1666  -13.6221 C   0  0  0  0  0  0  0  0  0  0  0  0
   19.4103  -20.9507  -14.0516 C   0  0  0  0  0  0  0  0  0  0  0  0
   18.5830  -20.0656  -13.2266 C   0  0  0  0  0  0  0  0  0  0  0  0
   18.8542  -18.8490  -13.1326 O   0  0  0  0  0  0  0  0  0  0  0  0
   21.6771  -21.6864  -15.9241 C   0  0  0  0  0  0  0  0  0  0  0  0
   22.6877  -21.3707  -16.5779 O   0  0  0  0  0  0  0  0  0  0  0  0
   17.4930  -20.5658  -12.5493 O   0  0  0  0  0  0  0  0  0  0  0  0
   20.4623  -21.7401  -16.6522 O   0  0  0  0  0  0  0  0  0  0  0  0
  2  3  1  0
  2  1  1  6
  4  3  1  0
  5  2  1  0
  5  6  2  0
  8  7  1  1
  8 10  1  0
  8  9  1  0
 11 10  1  1
 11 13  1  0
 12 11  1  0
 12  5  1  0
 13 14  2  0
 13 15  1  0
 15 16  1  0
 16 21  1  0
 16 17  1  1
 18 17  1  0
 19 18  1  0
 20 19  2  0
 21 22  2  0
 21 24  1  0
 23 19  1  0
M  END
$$$$
