LSK.pdb
     RDKit          3D

 24 23  0  0  1  0  0  0  0  0999 V2000
   29.4875  -22.0629  -12.4466 C   0  0  0  0  0  0  0  0  0  0  0  0
   29.1529  -20.9038  -11.5359 C   0  0  2  0  0  0  0  0  0  0  0  0
   29.8820  -21.0472  -10.2401 C   0  0  0  0  0  0  0  0  0  0  0  0
   27.6634  -20.7609  -11.3579 C   0  0  0  0  0  0  0  0  0  0  0  0
   27.0427  -20.4222  -12.6939 C   0  0  2  0  0  0  0  0  0  0  0  0
   27.7701  -19.3277  -13.3109 N   0  0  0  0  0  0  0  0  0  0  0  0
   25.6143  -20.0002  -12.5274 C   0  0  0  0  0  0  0  0  0  0  0  0
   25.2786  -19.0921  -11.7205 O   0  0  0  0  0  0  0  0  0  0  0  0
   22.9942  -20.3668  -15.4882 O   0  0  0  0  0  0  0  0  0  0  0  0
   22.7194  -19.5723  -14.3755 C   0  0  0  0  0  0  0  0  0  0  0  0
   23.1671  -20.2648  -13.0895 C   0  0  2  0  0  0  0  0  0  0  0  0
   24.5651  -20.6045  -13.2728 N   0  0  0  0  0  0  0  0  0  0  0  0
   22.3336  -21.4178  -12.7568 C   0  0  0  0  0  0  0  0  0  0  0  0
   22.4976  -22.4956  -13.3751 O   0  0  0  0  0  0  0  0  0  0  0  0
   21.3432  -21.3545  -11.7539 N   0  0  0  0  0  0  0  0  0  0  0  0
   20.5439  -22.5529  -11.4896 C   0  0  1  0  0  0  0  0  0  0  0  0
   20.0632  -22.4120  -10.0725 C   0  0  0  0  0  0  0  0  0  0  0  0
   19.2913  -23.6198   -9.6505 C   0  0  0  0  0  0  0  0  0  0  0  0
   18.7438  -23.4631   -8.2420 C   0  0  0  0  0  0  0  0  0  0  0  0
   18.0898  -24.8059   -7.8945 C   0  0  0  0  0  0  0  0  0  0  0  0
   17.6663  -24.7486   -6.5050 N   0  0  0  0  0  0  0  0  0  0  0  0
   19.4876  -22.5829  -12.5025 C   0  0  0  0  0  0  0  0  0  0  0  0
   19.0160  -23.7809  -13.0018 O   0  0  0  0  0  0  0  0  0  0  0  0
   18.9628  -21.5409  -12.9640 O   0  0  0  0  0  0  0  0  0  0  0  0
  2  1  1  6
  2  4  1  0
  3  2  1  0
  5  4  1  0
  5  6  1  1
  7  5  1  0
  7  8  2  0
 10  9  1  0
 11 10  1  6
 11 12  1  0
 12  7  1  0
 13 14  2  0
 13 11  1  0
 15 13  1  0
 16 15  1  0
 16 17  1  1
 17 18  1  0
 19 18  1  0
 20 21  1  0
 20 19  1  0
 22 16  1  0
 23 22  1  0
 24 22  2  0
M  END
$$$$
