LSK.pdb
     RDKit          3D

 24 23  0  0  1  0  0  0  0  0999 V2000
   26.1720  -13.9387  -15.3657 C   0  0  0  0  0  0  0  0  0  0  0  0
   25.8660  -13.6789  -16.8230 C   0  0  2  0  0  0  0  0  0  0  0  0
   27.1368  -13.4824  -17.5831 C   0  0  0  0  0  0  0  0  0  0  0  0
   24.9036  -12.5304  -16.9829 C   0  0  0  0  0  0  0  0  0  0  0  0
   23.6152  -12.8707  -16.2694 C   0  0  2  0  0  0  0  0  0  0  0  0
   23.0215  -14.0547  -16.8638 N   0  0  0  0  0  0  0  0  0  0  0  0
   22.6302  -11.7466  -16.3809 C   0  0  0  0  0  0  0  0  0  0  0  0
   22.1506  -11.3899  -17.4905 O   0  0  0  0  0  0  0  0  0  0  0  0
   19.2092   -9.1532  -14.3401 O   0  0  0  0  0  0  0  0  0  0  0  0
   20.1550  -10.1779  -14.3219 C   0  0  0  0  0  0  0  0  0  0  0  0
   21.2789   -9.8977  -15.3179 C   0  0  2  0  0  0  0  0  0  0  0  0
   22.1870  -11.0256  -15.2383 N   0  0  0  0  0  0  0  0  0  0  0  0
   21.9331   -8.6139  -15.0751 C   0  0  0  0  0  0  0  0  0  0  0  0
   22.8663   -8.5460  -14.2412 O   0  0  0  0  0  0  0  0  0  0  0  0
   21.5438   -7.4407  -15.7552 N   0  0  0  0  0  0  0  0  0  0  0  0
   22.2547   -6.1956  -15.4564 C   0  0  1  0  0  0  0  0  0  0  0  0
   22.0242   -5.3051  -16.6450 C   0  0  0  0  0  0  0  0  0  0  0  0
   22.7104   -3.9899  -16.4648 C   0  0  0  0  0  0  0  0  0  0  0  0
   22.5683   -3.1172  -17.7003 C   0  0  0  0  0  0  0  0  0  0  0  0
   23.2180   -1.7750  -17.3425 C   0  0  0  0  0  0  0  0  0  0  0  0
   23.3513   -1.0040  -18.5677 N   0  0  0  0  0  0  0  0  0  0  0  0
   21.7106   -5.6962  -14.1926 C   0  0  0  0  0  0  0  0  0  0  0  0
   22.5014   -4.9888  -13.3089 O   0  0  0  0  0  0  0  0  0  0  0  0
   20.5178   -5.8803  -13.8498 O   0  0  0  0  0  0  0  0  0  0  0  0
  2  1  1  1
  2  4  1  0
  3  2  1  0
  5  4  1  0
  5  6  1  6
  7  5  1  0
  7  8  2  0
 10  9  1  0
 11 10  1  1
 11 12  1  0
 12  7  1  0
 13 14  2  0
 13 11  1  0
 15 13  1  0
 16 15  1  0
 16 17  1  6
 17 18  1  0
 19 18  1  0
 20 21  1  0
 20 19  1  0
 22 16  1  0
 23 22  1  0
 24 22  2  0
M  END
$$$$
