LSK.pdb
     RDKit          3D

 24 23  0  0  1  0  0  0  0  0999 V2000
   26.4911  -14.8645  -14.8493 C   0  0  0  0  0  0  0  0  0  0  0  0
   26.3559  -14.8687  -16.3548 C   0  0  2  0  0  0  0  0  0  0  0  0
   27.6606  -14.5043  -16.9844 C   0  0  0  0  0  0  0  0  0  0  0  0
   25.2210  -13.9850  -16.8041 C   0  0  0  0  0  0  0  0  0  0  0  0
   23.9439  -14.4610  -16.1504 C   0  0  2  0  0  0  0  0  0  0  0  0
   23.6617  -15.8254  -16.5578 N   0  0  0  0  0  0  0  0  0  0  0  0
   22.7845  -13.6019  -16.5555 C   0  0  0  0  0  0  0  0  0  0  0  0
   22.4254  -13.4933  -17.7586 O   0  0  0  0  0  0  0  0  0  0  0  0
   19.3250  -13.5898  -15.1695 O   0  0  0  0  0  0  0  0  0  0  0  0
   19.7982  -12.2903  -14.9907 C   0  0  0  0  0  0  0  0  0  0  0  0
   20.9356  -11.9873  -15.9645 C   0  0  2  0  0  0  0  0  0  0  0  0
   22.0309  -12.8656  -15.6007 N   0  0  0  0  0  0  0  0  0  0  0  0
   21.3075  -10.5743  -15.9667 C   0  0  0  0  0  0  0  0  0  0  0  0
   22.2653  -10.1882  -15.2564 O   0  0  0  0  0  0  0  0  0  0  0  0
   20.6168   -9.6250  -16.7491 N   0  0  0  0  0  0  0  0  0  0  0  0
   21.0742   -8.2340  -16.7189 C   0  0  1  0  0  0  0  0  0  0  0  0
   20.4069   -7.5650  -17.8877 C   0  0  0  0  0  0  0  0  0  0  0  0
   20.7861   -6.1215  -17.9614 C   0  0  0  0  0  0  0  0  0  0  0  0
   20.1369   -5.4385  -19.1532 C   0  0  0  0  0  0  0  0  0  0  0  0
   20.6670   -3.9996  -19.1518 C   0  0  0  0  0  0  0  0  0  0  0  0
   19.9382   -3.2555  -20.1659 N   0  0  0  0  0  0  0  0  0  0  0  0
   20.7059   -7.7011  -15.4062 C   0  0  0  0  0  0  0  0  0  0  0  0
   21.5041   -6.7732  -14.7668 O   0  0  0  0  0  0  0  0  0  0  0  0
   19.6641   -8.0520  -14.8015 O   0  0  0  0  0  0  0  0  0  0  0  0
  2  1  1  1
  2  4  1  0
  3  2  1  0
  5  4  1  0
  5  6  1  6
  7  5  1  0
  7  8  2  0
 10  9  1  0
 11 10  1  1
 11 12  1  0
 12  7  1  0
 13 14  2  0
 13 11  1  0
 15 13  1  0
 16 15  1  0
 16 17  1  6
 17 18  1  0
 19 18  1  0
 20 21  1  0
 20 19  1  0
 22 16  1  0
 23 22  1  0
 24 22  2  0
M  END
$$$$
