LSK.pdb
     RDKit          3D

 24 23  0  0  1  0  0  0  0  0999 V2000
   27.1084  -18.9329  -17.2644 C   0  0  0  0  0  0  0  0  0  0  0  0
   27.3634  -20.1024  -16.3414 C   0  0  2  0  0  0  0  0  0  0  0  0
   28.4804  -20.9383  -16.8752 C   0  0  0  0  0  0  0  0  0  0  0  0
   26.1033  -20.8928  -16.0998 C   0  0  0  0  0  0  0  0  0  0  0  0
   25.0293  -19.9563  -15.5955 C   0  0  2  0  0  0  0  0  0  0  0  0
   25.5192  -19.2204  -14.4441 N   0  0  0  0  0  0  0  0  0  0  0  0
   23.8083  -20.7191  -15.1790 C   0  0  0  0  0  0  0  0  0  0  0  0
   23.3562  -21.6760  -15.8633 O   0  0  0  0  0  0  0  0  0  0  0  0
   21.4785  -19.3666  -11.9813 O   0  0  0  0  0  0  0  0  0  0  0  0
   21.7068  -20.7386  -12.0818 C   0  0  0  0  0  0  0  0  0  0  0  0
   21.9396  -21.1457  -13.5358 C   0  0  2  0  0  0  0  0  0  0  0  0
   23.0984  -20.4007  -13.9890 N   0  0  0  0  0  0  0  0  0  0  0  0
   20.7585  -20.9364  -14.3702 C   0  0  0  0  0  0  0  0  0  0  0  0
   20.6281  -19.8570  -14.9937 O   0  0  0  0  0  0  0  0  0  0  0  0
   19.7538  -21.9189  -14.4963 N   0  0  0  0  0  0  0  0  0  0  0  0
   18.6596  -21.6771  -15.4393 C   0  0  1  0  0  0  0  0  0  0  0  0
   18.5365  -22.9395  -16.2457 C   0  0  0  0  0  0  0  0  0  0  0  0
   17.5114  -22.7849  -17.3219 C   0  0  0  0  0  0  0  0  0  0  0  0
   17.3971  -24.0449  -18.1630 C   0  0  0  0  0  0  0  0  0  0  0  0
   16.3472  -23.7378  -19.2377 C   0  0  0  0  0  0  0  0  0  0  0  0
   16.3289  -24.8503  -20.1732 N   0  0  0  0  0  0  0  0  0  0  0  0
   17.4836  -21.3367  -14.6369 C   0  0  0  0  0  0  0  0  0  0  0  0
   16.3769  -20.7455  -15.2137 O   0  0  0  0  0  0  0  0  0  0  0  0
   17.4181  -21.5595  -13.4039 O   0  0  0  0  0  0  0  0  0  0  0  0
  2  1  1  6
  2  4  1  0
  3  2  1  0
  5  4  1  0
  5  6  1  1
  7  5  1  0
  7  8  2  0
 10  9  1  0
 11 10  1  1
 11 12  1  0
 12  7  1  0
 13 14  2  0
 13 11  1  0
 15 13  1  0
 16 15  1  0
 16 17  1  1
 17 18  1  0
 19 18  1  0
 20 21  1  0
 20 19  1  0
 22 16  1  0
 23 22  1  0
 24 22  2  0
M  END
$$$$
