LSK.pdb
     RDKit          3D

 24 23  0  0  1  0  0  0  0  0999 V2000
   27.6758  -11.8138  -17.7728 C   0  0  0  0  0  0  0  0  0  0  0  0
   27.7514  -11.5795  -16.2814 C   0  0  2  0  0  0  0  0  0  0  0  0
   28.7752  -12.4828  -15.6752 C   0  0  0  0  0  0  0  0  0  0  0  0
   26.3957  -11.7143  -15.6376 C   0  0  0  0  0  0  0  0  0  0  0  0
   25.4352  -10.7676  -16.3203 C   0  0  2  0  0  0  0  0  0  0  0  0
   25.9055   -9.4017  -16.1771 N   0  0  0  0  0  0  0  0  0  0  0  0
   24.0699  -10.8594  -15.7088 C   0  0  0  0  0  0  0  0  0  0  0  0
   23.4352  -11.9470  -15.6588 O   0  0  0  0  0  0  0  0  0  0  0  0
   22.0348   -7.3633  -14.5865 O   0  0  0  0  0  0  0  0  0  0  0  0
   21.9203   -8.4888  -13.7710 C   0  0  0  0  0  0  0  0  0  0  0  0
   22.0882   -9.7698  -14.5862 C   0  0  2  0  0  0  0  0  0  0  0  0
   23.4220   -9.7220  -15.1537 N   0  0  0  0  0  0  0  0  0  0  0  0
   21.0407   -9.9333  -15.5917 C   0  0  0  0  0  0  0  0  0  0  0  0
   21.2251   -9.4934  -16.7507 O   0  0  0  0  0  0  0  0  0  0  0  0
   19.8199  -10.5755  -15.2956 N   0  0  0  0  0  0  0  0  0  0  0  0
   18.8497  -10.7573  -16.3776 C   0  0  1  0  0  0  0  0  0  0  0  0
   18.3447  -12.1656  -16.2334 C   0  0  0  0  0  0  0  0  0  0  0  0
   17.3186  -12.4716  -17.2757 C   0  0  0  0  0  0  0  0  0  0  0  0
   16.7198  -13.8534  -17.0745 C   0  0  0  0  0  0  0  0  0  0  0  0
   15.7444  -14.0612  -18.2394 C   0  0  0  0  0  0  0  0  0  0  0  0
   15.2242  -15.4156  -18.1484 N   0  0  0  0  0  0  0  0  0  0  0  0
   17.8359   -9.7148  -16.2099 C   0  0  0  0  0  0  0  0  0  0  0  0
   17.1014   -9.2584  -17.2865 O   0  0  0  0  0  0  0  0  0  0  0  0
   17.5836   -9.1888  -15.0991 O   0  0  0  0  0  0  0  0  0  0  0  0
  2  1  1  6
  2  4  1  0
  3  2  1  0
  5  4  1  0
  5  6  1  1
  7  5  1  0
  7  8  2  0
 10  9  1  0
 11 10  1  6
 11 12  1  0
 12  7  1  0
 13 14  2  0
 13 11  1  0
 15 13  1  0
 16 15  1  0
 16 17  1  1
 17 18  1  0
 19 18  1  0
 20 21  1  0
 20 19  1  0
 22 16  1  0
 23 22  1  0
 24 22  2  0
M  END
$$$$
