LSK.pdb
     RDKit          3D

 24 23  0  0  1  0  0  0  0  0999 V2000
   17.7997  -13.0013  -18.9898 C   0  0  0  0  0  0  0  0  0  0  0  0
   18.2965  -13.7384  -17.7672 C   0  0  2  0  0  0  0  0  0  0  0  0
   17.2772  -14.7370  -17.3254 C   0  0  0  0  0  0  0  0  0  0  0  0
   18.6905  -12.7796  -16.6735 C   0  0  0  0  0  0  0  0  0  0  0  0
   19.7912  -11.8797  -17.1869 C   0  0  2  0  0  0  0  0  0  0  0  0
   20.9390  -12.6791  -17.5755 N   0  0  0  0  0  0  0  0  0  0  0  0
   20.2296  -10.9148  -16.1272 C   0  0  0  0  0  0  0  0  0  0  0  0
   19.4039  -10.2130  -15.4838 O   0  0  0  0  0  0  0  0  0  0  0  0
   24.3216  -10.2268  -15.4882 O   0  0  0  0  0  0  0  0  0  0  0  0
   23.4659  -10.2622  -14.3876 C   0  0  0  0  0  0  0  0  0  0  0  0
   22.0587   -9.8145  -14.7788 C   0  0  2  0  0  0  0  0  0  0  0  0
   21.6013  -10.7429  -15.7947 N   0  0  0  0  0  0  0  0  0  0  0  0
   22.0168   -8.4200  -15.2129 C   0  0  0  0  0  0  0  0  0  0  0  0
   22.1767   -8.1471  -16.4257 O   0  0  0  0  0  0  0  0  0  0  0  0
   21.8002   -7.3642  -14.3024 N   0  0  0  0  0  0  0  0  0  0  0  0
   21.7334   -5.9978  -14.8255 C   0  0  1  0  0  0  0  0  0  0  0  0
   20.2787   -5.7448  -15.1062 C   0  0  0  0  0  0  0  0  0  0  0  0
   20.0685   -4.3532  -15.6085 C   0  0  0  0  0  0  0  0  0  0  0  0
   18.6002   -4.0810  -15.8880 C   0  0  0  0  0  0  0  0  0  0  0  0
   18.5475   -2.6938  -16.5394 C   0  0  0  0  0  0  0  0  0  0  0  0
   17.1508   -2.3621  -16.7685 N   0  0  0  0  0  0  0  0  0  0  0  0
   22.3284   -5.1306  -13.8074 C   0  0  0  0  0  0  0  0  0  0  0  0
   22.8456   -3.8945  -14.1412 O   0  0  0  0  0  0  0  0  0  0  0  0
   22.3996   -5.4572  -12.5981 O   0  0  0  0  0  0  0  0  0  0  0  0
  2  1  1  6
  2  4  1  0
  3  2  1  0
  5  4  1  0
  5  6  1  1
  7  5  1  0
  7  8  2  0
 10  9  1  0
 11 10  1  6
 11 12  1  0
 12  7  1  0
 13 14  2  0
 13 11  1  0
 15 13  1  0
 16 15  1  0
 16 17  1  1
 17 18  1  0
 19 18  1  0
 20 21  1  0
 20 19  1  0
 22 16  1  0
 23 22  1  0
 24 22  2  0
M  END
$$$$
