LSK.pdb
     RDKit          3D

 24 23  0  0  1  0  0  0  0  0999 V2000
   17.1778  -15.5988  -18.6198 C   0  0  0  0  0  0  0  0  0  0  0  0
   16.3872  -15.8605  -17.3583 C   0  0  2  0  0  0  0  0  0  0  0  0
   15.0594  -16.4519  -17.7027 C   0  0  0  0  0  0  0  0  0  0  0  0
   16.2741  -14.6160  -16.5161 C   0  0  0  0  0  0  0  0  0  0  0  0
   17.6640  -14.1356  -16.1664 C   0  0  2  0  0  0  0  0  0  0  0  0
   18.2972  -15.0782  -15.2620 N   0  0  0  0  0  0  0  0  0  0  0  0
   17.6125  -12.7994  -15.4895 C   0  0  0  0  0  0  0  0  0  0  0  0
   17.0389  -12.6380  -14.3790 O   0  0  0  0  0  0  0  0  0  0  0  0
   19.9738   -8.8185  -14.6272 O   0  0  0  0  0  0  0  0  0  0  0  0
   19.7833  -10.0391  -15.2742 C   0  0  0  0  0  0  0  0  0  0  0  0
   18.2959  -10.3714  -15.3806 C   0  0  2  0  0  0  0  0  0  0  0  0
   18.2093  -11.6457  -16.0676 N   0  0  0  0  0  0  0  0  0  0  0  0
   17.5324   -9.3116  -16.0354 C   0  0  0  0  0  0  0  0  0  0  0  0
   17.5662   -9.2093  -17.2840 O   0  0  0  0  0  0  0  0  0  0  0  0
   16.7531   -8.3938  -15.2999 N   0  0  0  0  0  0  0  0  0  0  0  0
   15.9229   -7.4390  -16.0375 C   0  0  1  0  0  0  0  0  0  0  0  0
   14.6036   -7.4125  -15.3180 C   0  0  0  0  0  0  0  0  0  0  0  0
   13.6768   -6.4212  -15.9436 C   0  0  0  0  0  0  0  0  0  0  0  0
   12.3146   -6.4352  -15.2708 C   0  0  0  0  0  0  0  0  0  0  0  0
   11.4599   -5.4156  -16.0333 C   0  0  0  0  0  0  0  0  0  0  0  0
   10.1068   -5.4864  -15.5068 N   0  0  0  0  0  0  0  0  0  0  0  0
   16.6511   -6.1692  -16.0442 C   0  0  0  0  0  0  0  0  0  0  0  0
   16.4051   -5.2142  -17.0108 O   0  0  0  0  0  0  0  0  0  0  0  0
   17.5227   -5.8846  -15.1877 O   0  0  0  0  0  0  0  0  0  0  0  0
  2  1  1  6
  2  4  1  0
  3  2  1  0
  5  4  1  0
  5  6  1  1
  7  5  1  0
  7  8  2  0
 10  9  1  0
 11 10  1  6
 11 12  1  0
 12  7  1  0
 13 14  2  0
 13 11  1  0
 15 13  1  0
 16 15  1  0
 16 17  1  1
 17 18  1  0
 19 18  1  0
 20 21  1  0
 20 19  1  0
 22 16  1  0
 23 22  1  0
 24 22  2  0
M  END
$$$$
