LSK.pdb
     RDKit          3D

 24 23  0  0  1  0  0  0  0  0999 V2000
   19.8900  -24.7365  -10.0455 C   0  0  0  0  0  0  0  0  0  0  0  0
   18.4997  -24.1908  -10.2781 C   0  0  2  0  0  0  0  0  0  0  0  0
   18.5816  -22.7902  -10.7909 C   0  0  0  0  0  0  0  0  0  0  0  0
   17.6504  -24.3130   -9.0393 C   0  0  0  0  0  0  0  0  0  0  0  0
   17.6706  -25.7509   -8.5739 C   0  0  2  0  0  0  0  0  0  0  0  0
   17.0892  -26.6060   -9.5928 N   0  0  0  0  0  0  0  0  0  0  0  0
   16.8752  -25.9156   -7.3144 C   0  0  0  0  0  0  0  0  0  0  0  0
   15.6245  -25.7621   -7.2926 O   0  0  0  0  0  0  0  0  0  0  0  0
   18.8804  -26.0740   -3.6536 O   0  0  0  0  0  0  0  0  0  0  0  0
   17.7395  -26.8647   -3.7872 C   0  0  0  0  0  0  0  0  0  0  0  0
   16.7814  -26.2668   -4.8159 C   0  0  2  0  0  0  0  0  0  0  0  0
   17.4933  -26.2540   -6.0794 N   0  0  0  0  0  0  0  0  0  0  0  0
   16.2880  -24.9496   -4.4201 C   0  0  0  0  0  0  0  0  0  0  0  0
   16.9275  -23.9255   -4.7563 O   0  0  0  0  0  0  0  0  0  0  0  0
   15.1057  -24.7946   -3.6659 N   0  0  0  0  0  0  0  0  0  0  0  0
   14.6734  -23.4381   -3.3221 C   0  0  1  0  0  0  0  0  0  0  0  0
   13.4416  -23.1870   -4.1458 C   0  0  0  0  0  0  0  0  0  0  0  0
   12.8785  -21.8326   -3.8607 C   0  0  0  0  0  0  0  0  0  0  0  0
   11.6165  -21.5764   -4.6670 C   0  0  0  0  0  0  0  0  0  0  0  0
   11.1882  -20.1428   -4.3311 C   0  0  0  0  0  0  0  0  0  0  0  0
   10.0237  -19.8246   -5.1410 N   0  0  0  0  0  0  0  0  0  0  0  0
   14.4648  -23.4202   -1.8733 C   0  0  0  0  0  0  0  0  0  0  0  0
   14.5006  -24.5873   -1.1360 O   0  0  0  0  0  0  0  0  0  0  0  0
   14.2460  -22.3630   -1.2342 O   0  0  0  0  0  0  0  0  0  0  0  0
  2  1  1  1
  2  4  1  0
  3  2  1  0
  5  4  1  0
  5  6  1  6
  7  5  1  0
  7  8  2  0
 10  9  1  0
 11 10  1  1
 11 12  1  0
 12  7  1  0
 13 14  2  0
 13 11  1  0
 15 13  1  0
 16 15  1  0
 16 17  1  6
 17 18  1  0
 19 18  1  0
 20 21  1  0
 20 19  1  0
 22 16  1  0
 23 22  1  0
 24 22  2  0
M  END
$$$$
