LSK.pdb
     RDKit          3D

 24 23  0  0  1  0  0  0  0  0999 V2000
   26.9088  -24.9689  -18.0843 C   0  0  0  0  0  0  0  0  0  0  0  0
   27.6002  -24.0598  -17.0942 C   0  0  2  0  0  0  0  0  0  0  0  0
   28.9140  -24.6474  -16.6945 C   0  0  0  0  0  0  0  0  0  0  0  0
   26.7104  -23.7575  -15.9162 C   0  0  0  0  0  0  0  0  0  0  0  0
   25.4337  -23.1235  -16.4192 C   0  0  2  0  0  0  0  0  0  0  0  0
   25.7337  -21.8581  -17.0643 N   0  0  0  0  0  0  0  0  0  0  0  0
   24.4869  -22.8596  -15.2877 C   0  0  0  0  0  0  0  0  0  0  0  0
   24.2259  -23.7360  -14.4205 O   0  0  0  0  0  0  0  0  0  0  0  0
   22.3774  -19.2874  -15.2466 O   0  0  0  0  0  0  0  0  0  0  0  0
   22.7385  -19.8136  -14.0067 C   0  0  0  0  0  0  0  0  0  0  0  0
   22.8781  -21.3330  -14.0811 C   0  0  2  0  0  0  0  0  0  0  0  0
   23.8351  -21.6050  -15.1363 N   0  0  0  0  0  0  0  0  0  0  0  0
   21.5949  -22.0026  -14.2814 C   0  0  0  0  0  0  0  0  0  0  0  0
   21.1896  -22.2217  -15.4469 O   0  0  0  0  0  0  0  0  0  0  0  0
   20.7930  -22.4127  -13.1954 N   0  0  0  0  0  0  0  0  0  0  0  0
   19.5635  -23.1556  -13.4808 C   0  0  1  0  0  0  0  0  0  0  0  0
   19.4130  -24.1347  -12.3504 C   0  0  0  0  0  0  0  0  0  0  0  0
   18.2209  -25.0107  -12.5611 C   0  0  0  0  0  0  0  0  0  0  0  0
   18.1074  -26.0632  -11.4714 C   0  0  0  0  0  0  0  0  0  0  0  0
   16.8915  -26.9210  -11.8419 C   0  0  0  0  0  0  0  0  0  0  0  0
   16.8123  -28.0164  -10.8895 N   0  0  0  0  0  0  0  0  0  0  0  0
   18.4917  -22.1646  -13.5895 C   0  0  0  0  0  0  0  0  0  0  0  0
   17.3717  -22.4111  -14.3587 O   0  0  0  0  0  0  0  0  0  0  0  0
   18.5315  -21.0575  -13.0005 O   0  0  0  0  0  0  0  0  0  0  0  0
  2  1  1  6
  2  4  1  0
  3  2  1  0
  5  4  1  0
  5  6  1  1
  7  5  1  0
  7  8  2  0
 10  9  1  0
 11 10  1  6
 11 12  1  0
 12  7  1  0
 13 14  2  0
 13 11  1  0
 15 13  1  0
 16 15  1  0
 16 17  1  1
 17 18  1  0
 19 18  1  0
 20 21  1  0
 20 19  1  0
 22 16  1  0
 23 22  1  0
 24 22  2  0
M  END
$$$$
