LSK.pdb
     RDKit          3D

 24 23  0  0  1  0  0  0  0  0999 V2000
   24.7328  -16.3427  -18.2618 C   0  0  0  0  0  0  0  0  0  0  0  0
   25.4099  -17.6940  -18.2416 C   0  0  2  0  0  0  0  0  0  0  0  0
   25.9888  -17.9938  -19.5856 C   0  0  0  0  0  0  0  0  0  0  0  0
   24.4719  -18.7680  -17.7543 C   0  0  0  0  0  0  0  0  0  0  0  0
   23.9443  -18.3743  -16.3936 C   0  0  2  0  0  0  0  0  0  0  0  0
   25.0427  -18.2763  -15.4495 N   0  0  0  0  0  0  0  0  0  0  0  0
   22.9755  -19.3962  -15.8805 C   0  0  0  0  0  0  0  0  0  0  0  0
   22.1108  -19.9274  -16.6280 O   0  0  0  0  0  0  0  0  0  0  0  0
   22.3873  -20.0835  -11.6882 O   0  0  0  0  0  0  0  0  0  0  0  0
   22.5175  -21.1377  -12.5917 C   0  0  0  0  0  0  0  0  0  0  0  0
   22.0044  -20.7357  -13.9734 C   0  0  2  0  0  0  0  0  0  0  0  0
   22.9838  -19.8179  -14.5227 N   0  0  0  0  0  0  0  0  0  0  0  0
   20.6549  -20.1772  -13.9272 C   0  0  0  0  0  0  0  0  0  0  0  0
   20.5004  -18.9598  -13.6722 O   0  0  0  0  0  0  0  0  0  0  0  0
   19.5131  -20.9717  -14.1625 N   0  0  0  0  0  0  0  0  0  0  0  0
   18.1935  -20.3558  -14.0068 C   0  0  1  0  0  0  0  0  0  0  0  0
   17.2518  -21.2140  -14.8041 C   0  0  0  0  0  0  0  0  0  0  0  0
   15.8706  -20.6441  -14.7884 C   0  0  0  0  0  0  0  0  0  0  0  0
   14.8700  -21.5991  -15.4169 C   0  0  0  0  0  0  0  0  0  0  0  0
   13.5013  -20.9210  -15.2820 C   0  0  0  0  0  0  0  0  0  0  0  0
   12.5018  -21.8217  -15.8324 N   0  0  0  0  0  0  0  0  0  0  0  0
   17.9216  -20.3073  -12.5693 C   0  0  0  0  0  0  0  0  0  0  0  0
   17.1466  -19.3015  -12.0265 O   0  0  0  0  0  0  0  0  0  0  0  0
   18.3697  -21.1612  -11.7667 O   0  0  0  0  0  0  0  0  0  0  0  0
  2  1  1  6
  2  4  1  0
  3  2  1  0
  5  4  1  0
  5  6  1  1
  7  5  1  0
  7  8  2  0
 10  9  1  0
 11 10  1  1
 11 12  1  0
 12  7  1  0
 13 14  2  0
 13 11  1  0
 15 13  1  0
 16 15  1  0
 16 17  1  6
 17 18  1  0
 19 18  1  0
 20 21  1  0
 20 19  1  0
 22 16  1  0
 23 22  1  0
 24 22  2  0
M  END
$$$$
