CCI.pdb
     RDKit          3D

 21 20  0  0  1  0  0  0  0  0999 V2000
   13.7008   -9.8797   -9.4374 N   0  0  0  0  0  0  0  0  0  0  0  0
   15.0797   -9.9511   -9.9017 C   0  0  1  0  0  0  0  0  0  0  0  0
   15.1590  -10.9641  -11.0225 C   0  0  0  0  0  0  0  0  0  0  0  0
   15.2255  -12.6371  -10.3355 S   0  0  0  0  0  0  0  0  0  0  0  0
   15.3897   -8.6146  -10.5105 C   0  0  0  0  0  0  0  0  0  0  0  0
   14.4995   -7.8383  -10.9320 O   0  0  0  0  0  0  0  0  0  0  0  0
   16.7331   -8.1847  -10.6275 N   0  0  0  0  0  0  0  0  0  0  0  0
   17.0795   -6.9064  -11.1613 C   0  0  1  0  0  0  0  0  0  0  0  0
   16.5256   -5.7777  -10.2891 C   0  0  0  0  0  0  0  0  0  0  0  0
   16.8399   -6.2164   -8.5743 S   0  0  0  0  0  0  0  0  0  0  0  0
   18.5370   -6.6802  -11.2736 C   0  0  0  0  0  0  0  0  0  0  0  0
   19.3264   -7.0184  -10.3542 O   0  0  0  0  0  0  0  0  0  0  0  0
   20.7365   -9.3141  -14.6427 C   0  0  0  0  0  0  0  0  0  0  0  0
   20.4943   -8.4621  -13.3842 C   0  0  0  0  0  0  0  0  0  0  0  0
   20.9214   -7.0603  -13.7107 C   0  0  2  0  0  0  0  0  0  0  0  0
   22.3767   -7.0829  -14.0877 C   0  0  0  0  0  0  0  0  0  0  0  0
   20.6022   -6.0761  -12.5938 C   0  0  2  0  0  0  0  0  0  0  0  0
   19.1531   -6.0696  -12.4205 N   0  0  0  0  0  0  0  0  0  0  0  0
   21.1091   -4.7501  -12.9985 C   0  0  0  0  0  0  0  0  0  0  0  0
   20.4795   -3.8747  -13.6049 O   0  0  0  0  0  0  0  0  0  0  0  0
   22.4438   -4.4411  -12.6643 O   0  0  0  0  0  0  0  0  0  0  0  0
  2  3  1  0
  2  1  1  6
  4  3  1  0
  5  2  1  0
  5  6  2  0
  7  5  1  0
  8  7  1  0
  8 11  1  0
  8  9  1  1
 10  9  1  0
 11 12  2  0
 13 14  1  0
 14 15  1  0
 15 16  1  1
 17 15  1  0
 18 11  1  0
 17 18  1  6
 19 17  1  0
 20 19  2  0
 21 19  1  0
M  END
$$$$
