CCI.pdb
     RDKit          3D

 21 20  0  0  1  0  0  0  0  0999 V2000
   27.7266  -20.6171  -17.1843 N   0  0  0  0  0  0  0  0  0  0  0  0
   27.2957  -21.4326  -16.0568 C   0  0  1  0  0  0  0  0  0  0  0  0
   28.5217  -21.9988  -15.3750 C   0  0  0  0  0  0  0  0  0  0  0  0
   29.0332  -23.5265  -16.1993 S   0  0  0  0  0  0  0  0  0  0  0  0
   26.6566  -20.4928  -15.0763 C   0  0  0  0  0  0  0  0  0  0  0  0
   26.5812  -19.2565  -15.2719 O   0  0  0  0  0  0  0  0  0  0  0  0
   26.1073  -20.9931  -13.8715 N   0  0  0  0  0  0  0  0  0  0  0  0
   25.3161  -20.1830  -13.0016 C   0  0  1  0  0  0  0  0  0  0  0  0
   24.0184  -19.7472  -13.6853 C   0  0  0  0  0  0  0  0  0  0  0  0
   23.1495  -21.2364  -14.1943 S   0  0  0  0  0  0  0  0  0  0  0  0
   24.9277  -20.8586  -11.7443 C   0  0  0  0  0  0  0  0  0  0  0  0
   24.4577  -22.0255  -11.7442 O   0  0  0  0  0  0  0  0  0  0  0  0
   27.3681  -19.0787   -7.3673 C   0  0  0  0  0  0  0  0  0  0  0  0
   26.8464  -20.2180   -8.2607 C   0  0  0  0  0  0  0  0  0  0  0  0
   25.3593  -20.2864   -8.0662 C   0  0  2  0  0  0  0  0  0  0  0  0
   25.0831  -20.9520   -6.7466 C   0  0  0  0  0  0  0  0  0  0  0  0
   24.6458  -20.9481   -9.2372 C   0  0  2  0  0  0  0  0  0  0  0  0
   25.0561  -20.2464  -10.4494 N   0  0  0  0  0  0  0  0  0  0  0  0
   23.1923  -20.8338   -9.0064 C   0  0  0  0  0  0  0  0  0  0  0  0
   22.4289  -20.0035   -9.5146 O   0  0  0  0  0  0  0  0  0  0  0  0
   22.6061  -21.7601   -8.1193 O   0  0  0  0  0  0  0  0  0  0  0  0
  2  3  1  0
  2  1  1  6
  4  3  1  0
  5  2  1  0
  5  6  2  0
  7  5  1  0
  8  7  1  0
  8 11  1  0
  8  9  1  6
 10  9  1  0
 11 12  2  0
 13 14  1  0
 14 15  1  0
 15 16  1  1
 17 15  1  0
 18 11  1  0
 17 18  1  6
 19 17  1  0
 20 19  2  0
 21 19  1  0
M  END
$$$$
