CCI.pdb
     RDKit          3D

 21 20  0  0  1  0  0  0  0  0999 V2000
   17.7068  -14.9946  -18.5868 N   0  0  0  0  0  0  0  0  0  0  0  0
   18.9449  -14.7314  -17.8659 C   0  0  1  0  0  0  0  0  0  0  0  0
   19.9985  -15.7051  -18.3460 C   0  0  0  0  0  0  0  0  0  0  0  0
   19.8907  -17.2437  -17.3992 S   0  0  0  0  0  0  0  0  0  0  0  0
   19.3990  -13.3656  -18.2919 C   0  0  0  0  0  0  0  0  0  0  0  0
   19.1193  -12.8766  -19.4123 O   0  0  0  0  0  0  0  0  0  0  0  0
   20.1766  -12.5727  -17.4145 N   0  0  0  0  0  0  0  0  0  0  0  0
   20.5270  -11.2220  -17.7177 C   0  0  1  0  0  0  0  0  0  0  0  0
   19.2777  -10.3582  -17.9033 C   0  0  0  0  0  0  0  0  0  0  0  0
   19.8263   -8.6741  -18.2108 S   0  0  0  0  0  0  0  0  0  0  0  0
   21.3447  -10.5675  -16.6731 C   0  0  0  0  0  0  0  0  0  0  0  0
   20.9669  -10.5259  -15.4739 O   0  0  0  0  0  0  0  0  0  0  0  0
   26.9536  -10.5179  -14.8795 C   0  0  0  0  0  0  0  0  0  0  0  0
   25.6842   -9.6523  -14.7927 C   0  0  0  0  0  0  0  0  0  0  0  0
   24.7675  -10.1006  -15.8940 C   0  0  2  0  0  0  0  0  0  0  0  0
   25.4917   -9.9548  -17.2035 C   0  0  0  0  0  0  0  0  0  0  0  0
   23.4237   -9.3856  -15.8643 C   0  0  2  0  0  0  0  0  0  0  0  0
   22.6111   -9.9414  -16.9418 N   0  0  0  0  0  0  0  0  0  0  0  0
   23.6724   -7.9434  -16.0569 C   0  0  0  0  0  0  0  0  0  0  0  0
   23.5322   -7.3058  -17.1078 O   0  0  0  0  0  0  0  0  0  0  0  0
   24.1141   -7.2104  -14.9361 O   0  0  0  0  0  0  0  0  0  0  0  0
  2  3  1  0
  2  1  1  6
  4  3  1  0
  5  2  1  0
  5  6  2  0
  7  5  1  0
  8  7  1  0
  8 11  1  0
  8  9  1  1
 10  9  1  0
 11 12  2  0
 13 14  1  0
 14 15  1  0
 15 16  1  6
 17 15  1  0
 18 11  1  0
 17 18  1  6
 19 17  1  0
 20 19  2  0
 21 19  1  0
M  END
$$$$
