CCI.pdb
     RDKit          3D

 21 20  0  0  1  0  0  0  0  0999 V2000
   18.6170  -22.3320  -15.9312 N   0  0  0  0  0  0  0  0  0  0  0  0
   19.2513  -21.4973  -14.9198 C   0  0  1  0  0  0  0  0  0  0  0  0
   18.4548  -21.6041  -13.6381 C   0  0  0  0  0  0  0  0  0  0  0  0
   19.2616  -20.6466  -12.3313 S   0  0  0  0  0  0  0  0  0  0  0  0
   20.5914  -22.1143  -14.6434 C   0  0  0  0  0  0  0  0  0  0  0  0
   20.7278  -23.3098  -14.2902 O   0  0  0  0  0  0  0  0  0  0  0  0
   21.7684  -21.3398  -14.7781 N   0  0  0  0  0  0  0  0  0  0  0  0
   23.0710  -21.8978  -14.6022 C   0  0  1  0  0  0  0  0  0  0  0  0
   23.7034  -22.2532  -15.9495 C   0  0  0  0  0  0  0  0  0  0  0  0
   23.9312  -20.7202  -16.8605 S   0  0  0  0  0  0  0  0  0  0  0  0
   24.0195  -20.9963  -13.9123 C   0  0  0  0  0  0  0  0  0  0  0  0
   23.9375  -19.7461  -14.0258 O   0  0  0  0  0  0  0  0  0  0  0  0
   25.3226  -21.1388   -8.8175 C   0  0  0  0  0  0  0  0  0  0  0  0
   25.0290  -20.6596  -10.2502 C   0  0  0  0  0  0  0  0  0  0  0  0
   26.2696  -20.9021  -11.0602 C   0  0  2  0  0  0  0  0  0  0  0  0
   27.4109  -20.1688  -10.4119 C   0  0  0  0  0  0  0  0  0  0  0  0
   26.0856  -20.5537  -12.5309 C   0  0  2  0  0  0  0  0  0  0  0  0
   25.0873  -21.4697  -13.0735 N   0  0  0  0  0  0  0  0  0  0  0  0
   27.3913  -20.7105  -13.2014 C   0  0  0  0  0  0  0  0  0  0  0  0
   27.8225  -21.7356  -13.7433 O   0  0  0  0  0  0  0  0  0  0  0  0
   28.2388  -19.5839  -13.2326 O   0  0  0  0  0  0  0  0  0  0  0  0
  2  3  1  0
  2  1  1  6
  4  3  1  0
  5  2  1  0
  5  6  2  0
  7  5  1  0
  8  7  1  0
  8 11  1  0
  8  9  1  6
 10  9  1  0
 11 12  2  0
 13 14  1  0
 14 15  1  0
 15 16  1  1
 17 15  1  0
 18 11  1  0
 17 18  1  6
 19 17  1  0
 20 19  2  0
 21 19  1  0
M  END
$$$$
