CCI.pdb
     RDKit          3D

 21 20  0  0  1  0  0  0  0  0999 V2000
   30.0343  -23.0576  -17.0280 N   0  0  0  0  0  0  0  0  0  0  0  0
   28.9829  -22.1601  -17.4871 C   0  0  1  0  0  0  0  0  0  0  0  0
   27.8202  -22.9926  -17.9808 C   0  0  0  0  0  0  0  0  0  0  0  0
   28.1906  -23.6523  -19.6248 S   0  0  0  0  0  0  0  0  0  0  0  0
   28.4967  -21.4238  -16.2728 C   0  0  0  0  0  0  0  0  0  0  0  0
   28.6034  -21.8854  -15.1117 O   0  0  0  0  0  0  0  0  0  0  0  0
   27.8879  -20.1536  -16.4120 N   0  0  0  0  0  0  0  0  0  0  0  0
   27.4125  -19.4102  -15.2893 C   0  0  1  0  0  0  0  0  0  0  0  0
   27.0288  -17.9858  -15.6957 C   0  0  0  0  0  0  0  0  0  0  0  0
   26.4641  -17.1356  -14.2158 S   0  0  0  0  0  0  0  0  0  0  0  0
   26.2221  -20.0022  -14.6408 C   0  0  0  0  0  0  0  0  0  0  0  0
   25.2454  -20.4180  -15.3159 O   0  0  0  0  0  0  0  0  0  0  0  0
   25.6525  -20.3488   -8.8860 C   0  0  0  0  0  0  0  0  0  0  0  0
   25.4157  -19.8827  -10.3334 C   0  0  0  0  0  0  0  0  0  0  0  0
   25.2704  -21.1164  -11.1767 C   0  0  2  0  0  0  0  0  0  0  0  0
   26.5174  -21.9430  -11.0276 C   0  0  0  0  0  0  0  0  0  0  0  0
   24.9268  -20.7978  -12.6253 C   0  0  2  0  0  0  0  0  0  0  0  0
   26.0920  -20.1471  -13.2160 N   0  0  0  0  0  0  0  0  0  0  0  0
   23.7470  -19.9106  -12.6275 C   0  0  0  0  0  0  0  0  0  0  0  0
   22.5978  -20.2127  -12.2832 O   0  0  0  0  0  0  0  0  0  0  0  0
   23.9397  -18.5836  -13.0638 O   0  0  0  0  0  0  0  0  0  0  0  0
  2  3  1  0
  2  1  1  1
  4  3  1  0
  5  2  1  0
  5  6  2  0
  7  5  1  0
  8  7  1  0
  8 11  1  0
  8  9  1  6
 10  9  1  0
 11 12  2  0
 13 14  1  0
 14 15  1  0
 15 16  1  6
 17 15  1  0
 18 11  1  0
 17 18  1  1
 19 17  1  0
 20 19  2  0
 21 19  1  0
M  END
$$$$
