CCI.pdb
     RDKit          3D

 21 20  0  0  1  0  0  0  0  0999 V2000
   27.5586  -33.8759  -16.5852 N   0  0  0  0  0  0  0  0  0  0  0  0
   28.0546  -33.5526  -15.2543 C   0  0  1  0  0  0  0  0  0  0  0  0
   28.3845  -32.0769  -15.2082 C   0  0  0  0  0  0  0  0  0  0  0  0
   30.1647  -31.8376  -15.4290 S   0  0  0  0  0  0  0  0  0  0  0  0
   26.9048  -33.7635  -14.3128 C   0  0  0  0  0  0  0  0  0  0  0  0
   25.7484  -33.3398  -14.5488 O   0  0  0  0  0  0  0  0  0  0  0  0
   27.1029  -34.4660  -13.1001 N   0  0  0  0  0  0  0  0  0  0  0  0
   26.0263  -34.7727  -12.2135 C   0  0  1  0  0  0  0  0  0  0  0  0
   25.3312  -36.0732  -12.6220 C   0  0  0  0  0  0  0  0  0  0  0  0
   24.2694  -35.7009  -14.0241 S   0  0  0  0  0  0  0  0  0  0  0  0
   26.4415  -34.9377  -10.8033 C   0  0  0  0  0  0  0  0  0  0  0  0
   27.4208  -35.6616  -10.4878 O   0  0  0  0  0  0  0  0  0  0  0  0
   27.0915  -32.2839   -5.8539 C   0  0  0  0  0  0  0  0  0  0  0  0
   26.0417  -33.3894   -6.0642 C   0  0  0  0  0  0  0  0  0  0  0  0
   25.6274  -33.3368   -7.5063 C   0  0  2  0  0  0  0  0  0  0  0  0
   24.1255  -33.3040   -7.5680 C   0  0  0  0  0  0  0  0  0  0  0  0
   26.2414  -34.4583   -8.3329 C   0  0  2  0  0  0  0  0  0  0  0  0
   25.7719  -34.2947   -9.7051 N   0  0  0  0  0  0  0  0  0  0  0  0
   25.7996  -35.7426   -7.7547 C   0  0  0  0  0  0  0  0  0  0  0  0
   26.3544  -36.3699   -6.8441 O   0  0  0  0  0  0  0  0  0  0  0  0
   24.6284  -36.3199   -8.2870 O   0  0  0  0  0  0  0  0  0  0  0  0
  2  3  1  0
  2  1  1  6
  4  3  1  0
  5  2  1  0
  5  6  2  0
  7  5  1  0
  8  7  1  0
  8 11  1  0
  8  9  1  6
 10  9  1  0
 11 12  2  0
 13 14  1  0
 14 15  1  0
 15 16  1  1
 17 15  1  0
 18 11  1  0
 17 18  1  6
 19 17  1  0
 20 19  2  0
 21 19  1  0
M  END
$$$$
