CCI.pdb
     RDKit          3D

 21 20  0  0  1  0  0  0  0  0999 V2000
   26.0405  -20.2152   -9.1173 N   0  0  0  0  0  0  0  0  0  0  0  0
   25.0775  -20.9001   -9.9689 C   0  0  1  0  0  0  0  0  0  0  0  0
   23.6899  -20.4101   -9.6183 C   0  0  0  0  0  0  0  0  0  0  0  0
   23.2182  -21.0195   -7.9808 S   0  0  0  0  0  0  0  0  0  0  0  0
   25.3520  -20.4399  -11.3710 C   0  0  0  0  0  0  0  0  0  0  0  0
   25.5634  -19.2384  -11.6615 O   0  0  0  0  0  0  0  0  0  0  0  0
   25.3799  -21.3776  -12.4309 N   0  0  0  0  0  0  0  0  0  0  0  0
   25.5514  -20.9826  -13.7924 C   0  0  1  0  0  0  0  0  0  0  0  0
   26.3896  -22.0065  -14.5606 C   0  0  0  0  0  0  0  0  0  0  0  0
   28.0751  -21.8957  -13.9451 S   0  0  0  0  0  0  0  0  0  0  0  0
   24.2813  -20.8300  -14.5353 C   0  0  0  0  0  0  0  0  0  0  0  0
   23.3089  -21.6035  -14.3386 O   0  0  0  0  0  0  0  0  0  0  0  0
   21.2448  -17.8217  -14.7199 C   0  0  0  0  0  0  0  0  0  0  0  0
   22.4661  -17.3350  -15.5199 C   0  0  0  0  0  0  0  0  0  0  0  0
   22.6312  -18.2672  -16.6851 C   0  0  2  0  0  0  0  0  0  0  0  0
   21.4776  -18.0592  -17.6267 C   0  0  0  0  0  0  0  0  0  0  0  0
   22.8052  -19.7171  -16.2545 C   0  0  2  0  0  0  0  0  0  0  0  0
   24.0633  -19.8048  -15.5199 N   0  0  0  0  0  0  0  0  0  0  0  0
   22.8247  -20.5529  -17.4711 C   0  0  0  0  0  0  0  0  0  0  0  0
   21.8870  -21.2249  -17.9180 O   0  0  0  0  0  0  0  0  0  0  0  0
   24.0284  -20.5953  -18.2044 O   0  0  0  0  0  0  0  0  0  0  0  0
  2  3  1  0
  2  1  1  1
  4  3  1  0
  5  2  1  0
  5  6  2  0
  7  5  1  0
  8  7  1  0
  8 11  1  0
  8  9  1  6
 10  9  1  0
 11 12  2  0
 13 14  1  0
 14 15  1  0
 15 16  1  6
 17 15  1  0
 18 11  1  0
 17 18  1  6
 19 17  1  0
 20 19  2  0
 21 19  1  0
M  END
$$$$
