CCI.pdb
     RDKit          3D

 21 20  0  0  1  0  0  0  0  0999 V2000
   16.2322  -11.1889  -16.2922 N   0  0  0  0  0  0  0  0  0  0  0  0
   17.4163  -11.2883  -15.4497 C   0  0  1  0  0  0  0  0  0  0  0  0
   18.6157  -11.5520  -16.3333 C   0  0  0  0  0  0  0  0  0  0  0  0
   18.6786  -13.3053  -16.7773 S   0  0  0  0  0  0  0  0  0  0  0  0
   17.6202   -9.9290  -14.8464 C   0  0  0  0  0  0  0  0  0  0  0  0
   17.5566   -8.8722  -15.5184 O   0  0  0  0  0  0  0  0  0  0  0  0
   17.8973   -9.8026  -13.4642 N   0  0  0  0  0  0  0  0  0  0  0  0
   18.1027   -8.5339  -12.8420 C   0  0  1  0  0  0  0  0  0  0  0  0
   17.7448   -8.5863  -11.3552 C   0  0  0  0  0  0  0  0  0  0  0  0
   16.0020   -9.0100  -11.2338 S   0  0  0  0  0  0  0  0  0  0  0  0
   19.4963   -8.0450  -12.9265 C   0  0  0  0  0  0  0  0  0  0  0  0
   20.4460   -8.6739  -12.3926 O   0  0  0  0  0  0  0  0  0  0  0  0
   21.9060   -7.7470  -17.1842 C   0  0  0  0  0  0  0  0  0  0  0  0
   21.5762   -7.8462  -15.6843 C   0  0  0  0  0  0  0  0  0  0  0  0
   21.7089   -6.4652  -15.1104 C   0  0  2  0  0  0  0  0  0  0  0  0
   23.1231   -5.9987  -15.3180 C   0  0  0  0  0  0  0  0  0  0  0  0
   21.2547   -6.3884  -13.6593 C   0  0  2  0  0  0  0  0  0  0  0  0
   19.8666   -6.8371  -13.6135 N   0  0  0  0  0  0  0  0  0  0  0  0
   21.3899   -4.9873  -13.2148 C   0  0  0  0  0  0  0  0  0  0  0  0
   20.5381   -4.0962  -13.3190 O   0  0  0  0  0  0  0  0  0  0  0  0
   22.6087   -4.6184  -12.6091 O   0  0  0  0  0  0  0  0  0  0  0  0
  2  3  1  0
  2  1  1  6
  4  3  1  0
  5  2  1  0
  5  6  2  0
  7  5  1  0
  8  7  1  0
  8 11  1  0
  8  9  1  1
 10  9  1  0
 11 12  2  0
 13 14  1  0
 14 15  1  0
 15 16  1  1
 17 15  1  0
 18 11  1  0
 17 18  1  6
 19 17  1  0
 20 19  2  0
 21 19  1  0
M  END
$$$$
