CCI.pdb
     RDKit          3D

 21 20  0  0  1  0  0  0  0  0999 V2000
   28.6244  -20.2530  -16.2259 N   0  0  0  0  0  0  0  0  0  0  0  0
   28.1756  -19.4289  -15.1118 C   0  0  1  0  0  0  0  0  0  0  0  0
   27.4655  -18.2137  -15.6665 C   0  0  0  0  0  0  0  0  0  0  0  0
   26.9562  -17.1275  -14.3115 S   0  0  0  0  0  0  0  0  0  0  0  0
   27.1396  -20.2337  -14.3822 C   0  0  0  0  0  0  0  0  0  0  0  0
   26.2892  -20.9403  -14.9738 O   0  0  0  0  0  0  0  0  0  0  0  0
   27.0955  -20.2145  -12.9677 N   0  0  0  0  0  0  0  0  0  0  0  0
   26.0314  -20.8181  -12.2311 C   0  0  1  0  0  0  0  0  0  0  0  0
   26.2465  -20.6593  -10.7245 C   0  0  0  0  0  0  0  0  0  0  0  0
   24.7665  -21.2625   -9.9011 S   0  0  0  0  0  0  0  0  0  0  0  0
   24.6988  -20.2509  -12.5321 C   0  0  0  0  0  0  0  0  0  0  0  0
   24.4213  -19.0520  -12.2706 O   0  0  0  0  0  0  0  0  0  0  0  0
   23.3355  -20.1963  -16.8447 C   0  0  0  0  0  0  0  0  0  0  0  0
   22.8855  -19.4772  -15.5606 C   0  0  0  0  0  0  0  0  0  0  0  0
   22.0077  -20.4318  -14.8041 C   0  0  2  0  0  0  0  0  0  0  0  0
   20.5735  -20.1136  -15.1242 C   0  0  0  0  0  0  0  0  0  0  0  0
   22.3051  -20.4423  -13.3109 C   0  0  2  0  0  0  0  0  0  0  0  0
   23.6380  -21.0106  -13.1367 N   0  0  0  0  0  0  0  0  0  0  0  0
   21.2718  -21.2619  -12.6480 C   0  0  0  0  0  0  0  0  0  0  0  0
   20.2491  -20.8468  -12.0891 O   0  0  0  0  0  0  0  0  0  0  0  0
   21.4606  -22.6593  -12.6468 O   0  0  0  0  0  0  0  0  0  0  0  0
  2  3  1  0
  2  1  1  6
  4  3  1  0
  5  2  1  0
  5  6  2  0
  7  5  1  0
  8  7  1  0
  8 11  1  0
  8  9  1  1
 10  9  1  0
 11 12  2  0
 13 14  1  0
 14 15  1  0
 15 16  1  1
 17 15  1  0
 18 11  1  0
 17 18  1  6
 19 17  1  0
 20 19  2  0
 21 19  1  0
M  END
$$$$
