GFT.pdb
     RDKit          3D

 23 23  0  0  1  0  0  0  0  0999 V2000
    8.2448  -19.0283   19.6645 N   0  0  0  0  0  0  0  0  0  0  0  0
    7.2678  -18.6144   20.6498 C   0  0  0  0  0  0  0  0  0  0  0  0
    7.9580  -17.7696   21.6588 C   0  0  0  0  0  0  0  0  0  0  0  0
    9.2239  -17.6575   21.6322 O   0  0  0  0  0  0  0  0  0  0  0  0
    7.2529  -17.0809   22.6547 N   0  0  0  0  0  0  0  0  0  0  0  0
    7.9238  -16.2346   23.6542 C   0  0  1  0  0  0  0  0  0  0  0  0
    7.1928  -14.9261   23.6367 C   0  0  0  0  0  0  0  0  0  0  0  0
    7.4031  -14.1218   22.4243 C   0  0  0  0  0  0  0  0  0  0  0  0
    6.5510  -14.3657   21.3435 C   0  0  0  0  0  0  0  0  0  0  0  0
    6.6626  -13.6644   20.1619 C   0  0  0  0  0  0  0  0  0  0  0  0
    7.6310  -12.7074   20.0462 C   0  0  0  0  0  0  0  0  0  0  0  0
    8.4707  -12.4657   21.1085 C   0  0  0  0  0  0  0  0  0  0  0  0
    8.3603  -13.1673   22.2933 C   0  0  0  0  0  0  0  0  0  0  0  0
    7.8741  -16.8981   24.9675 C   0  0  0  0  0  0  0  0  0  0  0  0
    6.8135  -17.4143   25.3518 O   0  0  0  0  0  0  0  0  0  0  0  0
    7.9614  -19.5212   25.2843 C   0  0  0  0  0  0  0  0  0  0  0  0
    9.1931  -19.3754   26.1752 C   0  0  1  0  0  0  0  0  0  0  0  0
   10.2930  -19.6195   25.3530 O   0  0  0  0  0  0  0  0  0  0  0  0
    9.2456  -17.9813   26.7634 C   0  0  2  0  0  0  0  0  0  0  0  0
    9.0192  -16.9562   25.7989 N   0  0  0  0  0  0  0  0  0  0  0  0
   10.4785  -17.7701   27.5617 C   0  0  0  0  0  0  0  0  0  0  0  0
   11.4226  -17.0246   27.1667 O   0  0  0  0  0  0  0  0  0  0  0  0
   10.6593  -18.3848   28.7917 O   0  0  0  0  0  0  0  0  0  0  0  0
  2  1  1  0
  2  3  1  0
  3  5  1  0
  3  4  2  0
  5  6  1  0
  6  7  1  1
  6 14  1  0
  8  9  2  0
  8  7  1  0
 10  9  1  0
 11 10  2  0
 12 11  1  0
 12 13  2  0
 13  8  1  0
 14 20  1  0
 15 14  2  0
 17 16  1  6
 17 18  1  0
 19 21  1  0
 19 17  1  0
 19 20  1  6
 21 23  1  0
 22 21  2  0
M  END
$$$$
