GFT.pdb
     RDKit          3D

 23 23  0  0  1  0  0  0  0  0999 V2000
    5.4924  -19.0954   20.8541 N   0  0  0  0  0  0  0  0  0  0  0  0
    5.3033  -18.9499   22.2822 C   0  0  0  0  0  0  0  0  0  0  0  0
    6.2331  -17.8968   22.7667 C   0  0  0  0  0  0  0  0  0  0  0  0
    7.0968  -17.4015   21.9763 O   0  0  0  0  0  0  0  0  0  0  0  0
    6.1920  -17.4221   24.0844 N   0  0  0  0  0  0  0  0  0  0  0  0
    7.1166  -16.3903   24.5803 C   0  0  1  0  0  0  0  0  0  0  0  0
    6.4077  -15.7214   25.7191 C   0  0  0  0  0  0  0  0  0  0  0  0
    7.0205  -14.4633   26.1692 C   0  0  0  0  0  0  0  0  0  0  0  0
    6.4793  -13.2767   25.6664 C   0  0  0  0  0  0  0  0  0  0  0  0
    6.9791  -12.0437   26.0275 C   0  0  0  0  0  0  0  0  0  0  0  0
    8.0300  -11.9820   26.8988 C   0  0  0  0  0  0  0  0  0  0  0  0
    8.5642  -13.1484   27.3948 C   0  0  0  0  0  0  0  0  0  0  0  0
    8.0646  -14.3847   27.0342 C   0  0  0  0  0  0  0  0  0  0  0  0
    8.3810  -17.0242   24.9889 C   0  0  0  0  0  0  0  0  0  0  0  0
    8.3558  -18.0039   25.7496 O   0  0  0  0  0  0  0  0  0  0  0  0
   11.1349  -17.4747   22.2634 C   0  0  0  0  0  0  0  0  0  0  0  0
   11.8215  -17.0540   23.5610 C   0  0  1  0  0  0  0  0  0  0  0  0
   12.1950  -15.7219   23.3836 O   0  0  0  0  0  0  0  0  0  0  0  0
   10.8664  -17.2062   24.7260 C   0  0  2  0  0  0  0  0  0  0  0  0
    9.6261  -16.5323   24.5267 N   0  0  0  0  0  0  0  0  0  0  0  0
   11.5166  -16.8639   26.0151 C   0  0  0  0  0  0  0  0  0  0  0  0
   11.0812  -15.9467   26.7716 O   0  0  0  0  0  0  0  0  0  0  0  0
   12.6443  -17.5381   26.4593 O   0  0  0  0  0  0  0  0  0  0  0  0
  2  1  1  0
  2  3  1  0
  3  5  1  0
  3  4  2  0
  5  6  1  0
  6  7  1  1
  6 14  1  0
  8  9  2  0
  8  7  1  0
 10  9  1  0
 11 10  2  0
 12 11  1  0
 12 13  2  0
 13  8  1  0
 14 20  1  0
 15 14  2  0
 17 16  1  6
 17 18  1  0
 19 21  1  0
 19 17  1  0
 19 20  1  6
 21 23  1  0
 22 21  2  0
M  END
$$$$
