GFT.pdb
     RDKit          3D

 23 23  0  0  1  0  0  0  0  0999 V2000
    4.6370  -19.1499   23.5914 N   0  0  0  0  0  0  0  0  0  0  0  0
    4.9832  -17.9663   24.3503 C   0  0  0  0  0  0  0  0  0  0  0  0
    6.1079  -17.2855   23.6577 C   0  0  0  0  0  0  0  0  0  0  0  0
    6.6361  -17.8188   22.6318 O   0  0  0  0  0  0  0  0  0  0  0  0
    6.6157  -16.0573   24.1013 N   0  0  0  0  0  0  0  0  0  0  0  0
    7.7887  -15.4191   23.4831 C   0  0  1  0  0  0  0  0  0  0  0  0
    7.6068  -13.9456   23.6893 C   0  0  0  0  0  0  0  0  0  0  0  0
    7.5192  -13.5291   25.0963 C   0  0  0  0  0  0  0  0  0  0  0  0
    6.2391  -13.3425   25.6259 C   0  0  0  0  0  0  0  0  0  0  0  0
    6.0474  -12.9550   26.9349 C   0  0  0  0  0  0  0  0  0  0  0  0
    7.1370  -12.7487   27.7332 C   0  0  0  0  0  0  0  0  0  0  0  0
    8.3976  -12.9318   27.2142 C   0  0  0  0  0  0  0  0  0  0  0  0
    8.5917  -13.3200   25.9028 C   0  0  0  0  0  0  0  0  0  0  0  0
    9.0143  -15.9362   24.1139 C   0  0  0  0  0  0  0  0  0  0  0  0
    8.9575  -16.4191   25.2552 O   0  0  0  0  0  0  0  0  0  0  0  0
   12.9533  -18.4183   22.6439 C   0  0  0  0  0  0  0  0  0  0  0  0
   11.8893  -17.3642   22.3457 C   0  0  1  0  0  0  0  0  0  0  0  0
   10.9194  -18.0048   21.5747 O   0  0  0  0  0  0  0  0  0  0  0  0
   11.3036  -16.8382   23.6391 C   0  0  2  0  0  0  0  0  0  0  0  0
   10.2577  -15.8907   23.4372 N   0  0  0  0  0  0  0  0  0  0  0  0
   12.3603  -16.3541   24.5614 C   0  0  0  0  0  0  0  0  0  0  0  0
   12.8389  -17.0776   25.4837 O   0  0  0  0  0  0  0  0  0  0  0  0
   12.8810  -15.0728   24.4578 O   0  0  0  0  0  0  0  0  0  0  0  0
  2  1  1  0
  2  3  1  0
  3  5  1  0
  3  4  2  0
  5  6  1  0
  6  7  1  1
  6 14  1  0
  8  9  2  0
  8  7  1  0
 10  9  1  0
 11 10  2  0
 12 11  1  0
 12 13  2  0
 13  8  1  0
 14 20  1  0
 15 14  2  0
 17 16  1  1
 17 18  1  0
 19 21  1  0
 19 17  1  0
 19 20  1  6
 21 23  1  0
 22 21  2  0
M  END
$$$$
