GFT.pdb
     RDKit          3D

 23 23  0  0  1  0  0  0  0  0999 V2000
    5.2615  -19.8014   21.4244 N   0  0  0  0  0  0  0  0  0  0  0  0
    5.0892  -19.4092   22.8075 C   0  0  0  0  0  0  0  0  0  0  0  0
    5.9287  -18.2083   23.0556 C   0  0  0  0  0  0  0  0  0  0  0  0
    6.4555  -17.5904   22.0775 O   0  0  0  0  0  0  0  0  0  0  0  0
    6.1645  -17.7243   24.3491 N   0  0  0  0  0  0  0  0  0  0  0  0
    6.9744  -16.5230   24.6064 C   0  0  1  0  0  0  0  0  0  0  0  0
    6.4063  -15.9070   25.8492 C   0  0  0  0  0  0  0  0  0  0  0  0
    6.9298  -14.5705   26.1662 C   0  0  0  0  0  0  0  0  0  0  0  0
    6.0397  -13.4977   26.0627 C   0  0  0  0  0  0  0  0  0  0  0  0
    6.4297  -12.2050   26.3402 C   0  0  0  0  0  0  0  0  0  0  0  0
    7.7191  -11.9682   26.7259 C   0  0  0  0  0  0  0  0  0  0  0  0
    8.5967  -13.0223   26.8284 C   0  0  0  0  0  0  0  0  0  0  0  0
    8.2077  -14.3183   26.5508 C   0  0  0  0  0  0  0  0  0  0  0  0
    8.3870  -16.9101   24.7562 C   0  0  0  0  0  0  0  0  0  0  0  0
    8.7131  -17.6956   25.6593 O   0  0  0  0  0  0  0  0  0  0  0  0
   10.5884  -17.4156   21.4824 C   0  0  0  0  0  0  0  0  0  0  0  0
   11.4165  -16.7026   22.5492 C   0  0  1  0  0  0  0  0  0  0  0  0
   11.5002  -15.3707   22.1439 O   0  0  0  0  0  0  0  0  0  0  0  0
   10.7400  -16.8248   23.8982 C   0  0  2  0  0  0  0  0  0  0  0  0
    9.3795  -16.3990   23.8846 N   0  0  0  0  0  0  0  0  0  0  0  0
   11.5409  -16.1865   24.9720 C   0  0  0  0  0  0  0  0  0  0  0  0
   11.1022  -15.2195   25.6615 O   0  0  0  0  0  0  0  0  0  0  0  0
   12.8221  -16.6219   25.2762 O   0  0  0  0  0  0  0  0  0  0  0  0
  2  1  1  0
  2  3  1  0
  3  5  1  0
  3  4  2  0
  5  6  1  0
  6  7  1  1
  6 14  1  0
  8  9  2  0
  8  7  1  0
 10  9  1  0
 11 10  2  0
 12 11  1  0
 12 13  2  0
 13  8  1  0
 14 20  1  0
 15 14  2  0
 17 16  1  6
 17 18  1  0
 19 21  1  0
 19 17  1  0
 19 20  1  6
 21 23  1  0
 22 21  2  0
M  END
$$$$
