GFT.pdb
     RDKit          3D

 23 23  0  0  1  0  0  0  0  0999 V2000
    5.3257  -19.0905   20.8890 N   0  0  0  0  0  0  0  0  0  0  0  0
    5.2575  -18.9701   22.3304 C   0  0  0  0  0  0  0  0  0  0  0  0
    6.1319  -17.8413   22.7420 C   0  0  0  0  0  0  0  0  0  0  0  0
    6.8778  -17.2722   21.8842 O   0  0  0  0  0  0  0  0  0  0  0  0
    6.1647  -17.3737   24.0624 N   0  0  0  0  0  0  0  0  0  0  0  0
    7.0557  -16.2840   24.4913 C   0  0  1  0  0  0  0  0  0  0  0  0
    6.3670  -15.6264   25.6489 C   0  0  0  0  0  0  0  0  0  0  0  0
    6.9967  -14.3808   26.1105 C   0  0  0  0  0  0  0  0  0  0  0  0
    6.3666  -13.1826   25.7624 C   0  0  0  0  0  0  0  0  0  0  0  0
    6.8740  -11.9602   26.1476 C   0  0  0  0  0  0  0  0  0  0  0  0
    8.0217  -11.9206   26.8882 C   0  0  0  0  0  0  0  0  0  0  0  0
    8.6433  -13.0984   27.2320 C   0  0  0  0  0  0  0  0  0  0  0  0
    8.1363  -14.3243   26.8470 C   0  0  0  0  0  0  0  0  0  0  0  0
    8.3698  -16.8416   24.8515 C   0  0  0  0  0  0  0  0  0  0  0  0
    8.4296  -17.8462   25.5768 O   0  0  0  0  0  0  0  0  0  0  0  0
   10.7567  -17.1044   21.9415 C   0  0  0  0  0  0  0  0  0  0  0  0
   11.6276  -16.7351   23.1404 C   0  0  1  0  0  0  0  0  0  0  0  0
   12.0118  -15.4090   22.9421 O   0  0  0  0  0  0  0  0  0  0  0  0
   10.8383  -16.8924   24.4228 C   0  0  2  0  0  0  0  0  0  0  0  0
    9.5671  -16.2483   24.3822 N   0  0  0  0  0  0  0  0  0  0  0  0
   11.6446  -16.5188   25.6111 C   0  0  0  0  0  0  0  0  0  0  0  0
   11.3191  -15.5664   26.3793 O   0  0  0  0  0  0  0  0  0  0  0  0
   12.8059  -17.2010   25.9423 O   0  0  0  0  0  0  0  0  0  0  0  0
  2  1  1  0
  2  3  1  0
  3  5  1  0
  3  4  2  0
  5  6  1  0
  6  7  1  1
  6 14  1  0
  8  9  2  0
  8  7  1  0
 10  9  1  0
 11 10  2  0
 12 11  1  0
 12 13  2  0
 13  8  1  0
 14 20  1  0
 15 14  2  0
 17 16  1  6
 17 18  1  0
 19 21  1  0
 19 17  1  0
 19 20  1  6
 21 23  1  0
 22 21  2  0
M  END
$$$$
