GFT.pdb
     RDKit          3D

 23 23  0  0  1  0  0  0  0  0999 V2000
    8.3773  -16.6129   18.4255 N   0  0  0  0  0  0  0  0  0  0  0  0
    7.3528  -16.6160   19.4487 C   0  0  0  0  0  0  0  0  0  0  0  0
    7.9058  -15.9538   20.6587 C   0  0  0  0  0  0  0  0  0  0  0  0
    9.1379  -15.6442   20.7044 O   0  0  0  0  0  0  0  0  0  0  0  0
    7.1058  -15.6534   21.7690 N   0  0  0  0  0  0  0  0  0  0  0  0
    7.6500  -15.0381   22.9900 C   0  0  1  0  0  0  0  0  0  0  0  0
    6.4859  -14.3822   23.6694 C   0  0  0  0  0  0  0  0  0  0  0  0
    6.8100  -13.7240   24.9432 C   0  0  0  0  0  0  0  0  0  0  0  0
    7.2847  -12.4109   24.8778 C   0  0  0  0  0  0  0  0  0  0  0  0
    7.6148  -11.7038   26.0142 C   0  0  0  0  0  0  0  0  0  0  0  0
    7.4739  -12.3031   27.2341 C   0  0  0  0  0  0  0  0  0  0  0  0
    7.0070  -13.5951   27.3008 C   0  0  0  0  0  0  0  0  0  0  0  0
    6.6756  -14.3052   26.1632 C   0  0  0  0  0  0  0  0  0  0  0  0
    8.2830  -16.0769   23.8192 C   0  0  0  0  0  0  0  0  0  0  0  0
    7.6382  -17.0914   24.1258 O   0  0  0  0  0  0  0  0  0  0  0  0
   11.0360  -17.9327   22.7607 C   0  0  0  0  0  0  0  0  0  0  0  0
   11.5062  -17.4982   24.1472 C   0  0  1  0  0  0  0  0  0  0  0  0
   12.4671  -16.5098   23.9347 O   0  0  0  0  0  0  0  0  0  0  0  0
   10.3370  -16.9644   24.9475 C   0  0  2  0  0  0  0  0  0  0  0  0
    9.6174  -15.9356   24.2722 N   0  0  0  0  0  0  0  0  0  0  0  0
   10.7430  -16.5864   26.3238 C   0  0  0  0  0  0  0  0  0  0  0  0
   11.2269  -17.4229   27.1419 O   0  0  0  0  0  0  0  0  0  0  0  0
   10.6111  -15.2856   26.7866 O   0  0  0  0  0  0  0  0  0  0  0  0
  2  1  1  0
  2  3  1  0
  3  5  1  0
  3  4  2  0
  5  6  1  0
  6  7  1  1
  6 14  1  0
  8  9  2  0
  8  7  1  0
 10  9  1  0
 11 10  2  0
 12 11  1  0
 12 13  2  0
 13  8  1  0
 14 20  1  0
 15 14  2  0
 17 16  1  6
 17 18  1  0
 19 21  1  0
 19 17  1  0
 19 20  1  6
 21 23  1  0
 22 21  2  0
M  END
$$$$
