NVK.pdb
     RDKit          3D

 25 24  0  0  1  0  0  0  0  0999 V2000
    7.2437  -19.2489   14.9531 N   0  0  0  0  0  0  0  0  0  0  0  0
    8.4624  -18.5645   14.8813 C   0  0  0  0  0  0  0  0  0  0  0  0
    9.0720  -18.6103   13.7594 O   0  0  0  0  0  0  0  0  0  0  0  0
    9.1111  -17.8042   15.9417 C   0  0  0  0  0  0  0  0  0  0  0  0
    8.4574  -17.8213   17.2846 C   0  0  2  0  0  0  0  0  0  0  0  0
    7.0627  -17.4953   17.1339 N   0  0  0  0  0  0  0  0  0  0  0  0
    9.0662  -16.8121   18.2036 C   0  0  0  0  0  0  0  0  0  0  0  0
   10.3161  -16.8229   18.2997 O   0  0  0  0  0  0  0  0  0  0  0  0
    8.3083  -12.7108   20.9442 C   0  0  0  0  0  0  0  0  0  0  0  0
    7.8773  -13.8662   20.0861 C   0  0  2  0  0  0  0  0  0  0  0  0
    6.4404  -14.1632   20.4512 C   0  0  0  0  0  0  0  0  0  0  0  0
    8.7799  -14.9914   19.9254 C   0  0  2  0  0  0  0  0  0  0  0  0
    8.2473  -15.8911   18.9260 N   0  0  0  0  0  0  0  0  0  0  0  0
    9.2670  -15.7593   21.0672 C   0  0  0  0  0  0  0  0  0  0  0  0
    8.5307  -16.6822   21.5072 O   0  0  0  0  0  0  0  0  0  0  0  0
   10.4984  -15.5666   21.7331 N   0  0  0  0  0  0  0  0  0  0  0  0
   10.8463  -16.4827   22.8330 C   0  0  1  0  0  0  0  0  0  0  0  0
   12.1559  -17.1386   22.5552 C   0  0  0  0  0  0  0  0  0  0  0  0
   12.1353  -18.5917   22.9012 C   0  0  0  0  0  0  0  0  0  0  0  0
   12.6848  -19.4001   21.7476 C   0  0  0  0  0  0  0  0  0  0  0  0
   12.5686  -20.8962   22.0721 C   0  0  0  0  0  0  0  0  0  0  0  0
   13.1305  -21.6367   20.9644 N   0  0  0  0  0  0  0  0  0  0  0  0
   10.8333  -15.6657   24.0738 C   0  0  0  0  0  0  0  0  0  0  0  0
   11.0085  -16.2824   25.2862 O   0  0  0  0  0  0  0  0  0  0  0  0
   10.6613  -14.4114   24.0364 O   0  0  0  0  0  0  0  0  0  0  0  0
  1  2  1  0
  2  3  2  0
  2  4  1  0
  4  5  1  0
  5  7  1  0
  5  6  1  6
  7  8  2  0
 10 12  1  0
 10  9  1  1
 10 11  1  0
 13  7  1  0
 12 13  1  6
 14 12  1  0
 14 15  2  0
 16 14  1  0
 17 23  1  0
 17 16  1  0
 17 18  1  6
 19 18  1  0
 20 19  1  0
 21 20  1  0
 21 22  1  0
 23 24  1  0
 25 23  2  0
M  END
$$$$
