NVK.pdb
     RDKit          3D

 25 24  0  0  1  0  0  0  0  0999 V2000
    8.5487  -19.5231   15.3239 N   0  0  0  0  0  0  0  0  0  0  0  0
    9.3599  -18.3838   15.2695 C   0  0  0  0  0  0  0  0  0  0  0  0
    9.9068  -18.1317   14.1428 O   0  0  0  0  0  0  0  0  0  0  0  0
    9.6475  -17.4530   16.3532 C   0  0  0  0  0  0  0  0  0  0  0  0
    8.8439  -17.6000   17.6036 C   0  0  2  0  0  0  0  0  0  0  0  0
    7.4491  -17.4249   17.2907 N   0  0  0  0  0  0  0  0  0  0  0  0
    9.2176  -16.5698   18.6198 C   0  0  0  0  0  0  0  0  0  0  0  0
   10.4411  -16.4327   18.8560 O   0  0  0  0  0  0  0  0  0  0  0  0
    7.4515  -12.9412   19.0870 C   0  0  0  0  0  0  0  0  0  0  0  0
    7.5664  -13.7783   20.3291 C   0  0  2  0  0  0  0  0  0  0  0  0
    7.5699  -12.8190   21.4979 C   0  0  0  0  0  0  0  0  0  0  0  0
    8.5217  -14.8708   20.3491 C   0  0  2  0  0  0  0  0  0  0  0  0
    8.2157  -15.7916   19.2766 N   0  0  0  0  0  0  0  0  0  0  0  0
    8.8147  -15.6177   21.5685 C   0  0  0  0  0  0  0  0  0  0  0  0
    7.8995  -16.3413   22.0442 O   0  0  0  0  0  0  0  0  0  0  0  0
   10.0391  -15.6088   22.2738 N   0  0  0  0  0  0  0  0  0  0  0  0
   10.2442  -16.6190   23.3263 C   0  0  1  0  0  0  0  0  0  0  0  0
   10.5075  -17.9508   22.7102 C   0  0  0  0  0  0  0  0  0  0  0  0
   10.7283  -19.0078   23.7426 C   0  0  0  0  0  0  0  0  0  0  0  0
   10.9159  -20.3488   23.0697 C   0  0  0  0  0  0  0  0  0  0  0  0
   11.1181  -21.4320   24.1387 C   0  0  0  0  0  0  0  0  0  0  0  0
   11.1054  -22.7178   23.4772 N   0  0  0  0  0  0  0  0  0  0  0  0
   11.3567  -16.1166   24.1730 C   0  0  0  0  0  0  0  0  0  0  0  0
   12.2053  -15.1632   23.6713 O   0  0  0  0  0  0  0  0  0  0  0  0
   11.5403  -16.5520   25.3482 O   0  0  0  0  0  0  0  0  0  0  0  0
  1  2  1  0
  2  3  2  0
  2  4  1  0
  4  5  1  0
  5  7  1  0
  5  6  1  6
  7  8  2  0
 10 12  1  0
 10  9  1  6
 10 11  1  0
 13  7  1  0
 12 13  1  6
 14 12  1  0
 14 15  2  0
 16 14  1  0
 17 23  1  0
 17 16  1  0
 17 18  1  6
 19 18  1  0
 20 19  1  0
 21 20  1  0
 21 22  1  0
 23 24  1  0
 25 23  2  0
M  END
$$$$
