VHA.pdb
     RDKit          3D

 23 23  0  0  1  0  0  0  0  0999 V2000
    7.2873  -12.7678   21.2565 C   0  0  0  0  0  0  0  0  0  0  0  0
    8.5022  -13.3124   20.5542 C   0  0  2  0  0  0  0  0  0  0  0  0
    8.4470  -12.8190   19.1146 C   0  0  0  0  0  0  0  0  0  0  0  0
    8.5265  -14.8150   20.5051 C   0  0  2  0  0  0  0  0  0  0  0  0
    7.4662  -15.2562   19.6548 N   0  0  0  0  0  0  0  0  0  0  0  0
    8.4238  -15.4478   21.8245 C   0  0  0  0  0  0  0  0  0  0  0  0
    7.2923  -15.6547   22.3179 O   0  0  0  0  0  0  0  0  0  0  0  0
    9.5528  -15.8458   22.5869 N   0  0  0  0  0  0  0  0  0  0  0  0
    9.4711  -16.3731   23.9220 C   0  0  1  0  0  0  0  0  0  0  0  0
   10.2410  -17.6529   24.0991 C   0  0  0  0  0  0  0  0  0  0  0  0
    9.6580  -18.8026   23.4073 C   0  0  0  0  0  0  0  0  0  0  0  0
    8.5254  -18.8300   22.6215 C   0  0  0  0  0  0  0  0  0  0  0  0
    8.3324  -20.1026   22.1664 N   0  0  0  0  0  0  0  0  0  0  0  0
    9.3326  -20.8553   22.6635 C   0  0  0  0  0  0  0  0  0  0  0  0
   10.1257  -20.0639   23.4093 N   0  0  0  0  0  0  0  0  0  0  0  0
    9.8256  -15.3239   24.9075 C   0  0  0  0  0  0  0  0  0  0  0  0
   10.9933  -14.8044   24.8845 O   0  0  0  0  0  0  0  0  0  0  0  0
    8.0684  -13.1315   27.2990 C   0  0  0  0  0  0  0  0  0  0  0  0
    9.3432  -13.8977   26.9239 C   0  0  2  0  0  0  0  0  0  0  0  0
    8.9502  -14.8386   25.8981 N   0  0  0  0  0  0  0  0  0  0  0  0
    9.8520  -14.5311   28.1431 C   0  0  0  0  0  0  0  0  0  0  0  0
    9.7322  -15.7776   28.2456 O   0  0  0  0  0  0  0  0  0  0  0  0
   10.4409  -13.7659   29.1359 O   0  0  0  0  0  0  0  0  0  0  0  0
  2  1  1  1
  3  2  1  0
  4  5  1  6
  4  2  1  0
  4  6  1  0
  6  7  2  0
  8  6  1  0
  8  9  1  0
  9 16  1  0
 10 11  1  0
  9 10  1  6
 11 12  2  0
 12 13  1  0
 14 13  1  0
 15 11  1  0
 15 14  2  0
 16 20  1  0
 16 17  2  0
 19 18  1  1
 19 21  1  0
 20 19  1  0
 21 22  2  0
 21 23  1  0
M  END
$$$$
