VHA.pdb
     RDKit          3D

 23 23  0  0  1  0  0  0  0  0999 V2000
    7.3342  -13.1916   20.5648 C   0  0  0  0  0  0  0  0  0  0  0  0
    8.6980  -13.0615   19.9410 C   0  0  2  0  0  0  0  0  0  0  0  0
    8.6460  -11.8710   18.9929 C   0  0  0  0  0  0  0  0  0  0  0  0
    9.0846  -14.2615   19.1217 C   0  0  2  0  0  0  0  0  0  0  0  0
    8.1000  -14.4491   18.1032 N   0  0  0  0  0  0  0  0  0  0  0  0
    9.2449  -15.4863   19.9128 C   0  0  0  0  0  0  0  0  0  0  0  0
    8.3293  -16.3397   19.9124 O   0  0  0  0  0  0  0  0  0  0  0  0
   10.3981  -15.7643   20.6920 N   0  0  0  0  0  0  0  0  0  0  0  0
   10.5710  -16.9642   21.4653 C   0  0  1  0  0  0  0  0  0  0  0  0
   11.6670  -17.8509   20.9413 C   0  0  0  0  0  0  0  0  0  0  0  0
   11.3478  -18.5129   19.6764 C   0  0  0  0  0  0  0  0  0  0  0  0
   11.8809  -18.2565   18.4311 C   0  0  0  0  0  0  0  0  0  0  0  0
   11.3092  -19.0996   17.5220 N   0  0  0  0  0  0  0  0  0  0  0  0
   10.4324  -19.8693   18.1949 C   0  0  0  0  0  0  0  0  0  0  0  0
   10.4626  -19.5088   19.4913 N   0  0  0  0  0  0  0  0  0  0  0  0
   10.7124  -16.6290   22.9024 C   0  0  0  0  0  0  0  0  0  0  0  0
   11.6685  -15.8707   23.2831 O   0  0  0  0  0  0  0  0  0  0  0  0
    8.6140  -16.9709   25.9414 C   0  0  0  0  0  0  0  0  0  0  0  0
    9.9956  -16.7532   25.3114 C   0  0  2  0  0  0  0  0  0  0  0  0
    9.8494  -17.0941   23.9134 N   0  0  0  0  0  0  0  0  0  0  0  0
   10.9472  -17.6038   26.0306 C   0  0  0  0  0  0  0  0  0  0  0  0
   11.2006  -17.3128   27.2263 O   0  0  0  0  0  0  0  0  0  0  0  0
   11.5361  -18.6857   25.3975 O   0  0  0  0  0  0  0  0  0  0  0  0
  2  1  1  6
  3  2  1  0
  4  5  1  6
  4  2  1  0
  4  6  1  0
  6  7  2  0
  8  6  1  0
  8  9  1  0
  9 16  1  0
 10 11  1  0
  9 10  1  6
 11 12  2  0
 12 13  1  0
 14 13  1  0
 15 11  1  0
 15 14  2  0
 16 20  1  0
 16 17  2  0
 19 18  1  1
 19 21  1  0
 20 19  1  0
 21 22  2  0
 21 23  1  0
M  END
$$$$
