VHA.pdb
     RDKit          3D

 23 23  0  0  1  0  0  0  0  0999 V2000
    7.7182  -17.3219   17.1269 C   0  0  0  0  0  0  0  0  0  0  0  0
    8.9086  -18.1966   17.4161 C   0  0  2  0  0  0  0  0  0  0  0  0
    8.5219  -19.6201   17.0380 C   0  0  0  0  0  0  0  0  0  0  0  0
    9.2840  -18.2132   18.8720 C   0  0  2  0  0  0  0  0  0  0  0  0
    8.1867  -18.7478   19.6151 N   0  0  0  0  0  0  0  0  0  0  0  0
    9.6660  -16.8972   19.3954 C   0  0  0  0  0  0  0  0  0  0  0  0
   10.7506  -16.3866   19.0356 O   0  0  0  0  0  0  0  0  0  0  0  0
    8.8630  -16.1569   20.3018 N   0  0  0  0  0  0  0  0  0  0  0  0
    9.2839  -14.9328   20.9277 C   0  0  1  0  0  0  0  0  0  0  0  0
    8.3380  -13.7894   20.6828 C   0  0  0  0  0  0  0  0  0  0  0  0
    8.0612  -13.5340   19.2691 C   0  0  0  0  0  0  0  0  0  0  0  0
    6.8332  -13.4868   18.6443 C   0  0  0  0  0  0  0  0  0  0  0  0
    7.0204  -13.2204   17.3184 N   0  0  0  0  0  0  0  0  0  0  0  0
    8.3479  -13.1038   17.1231 C   0  0  0  0  0  0  0  0  0  0  0  0
    8.9663  -13.2942   18.3033 N   0  0  0  0  0  0  0  0  0  0  0  0
    9.5756  -15.1672   22.3621 C   0  0  0  0  0  0  0  0  0  0  0  0
    9.9320  -14.1880   23.1025 O   0  0  0  0  0  0  0  0  0  0  0  0
    8.8882  -17.6537   24.9378 C   0  0  0  0  0  0  0  0  0  0  0  0
    9.9071  -16.6652   24.3568 C   0  0  2  0  0  0  0  0  0  0  0  0
    9.4881  -16.4228   22.9938 N   0  0  0  0  0  0  0  0  0  0  0  0
   11.2317  -17.2812   24.4670 C   0  0  0  0  0  0  0  0  0  0  0  0
   11.6800  -17.4963   25.6208 O   0  0  0  0  0  0  0  0  0  0  0  0
   11.9487  -17.6077   23.3280 O   0  0  0  0  0  0  0  0  0  0  0  0
  2  1  1  1
  3  2  1  0
  4  5  1  1
  4  2  1  0
  4  6  1  0
  6  7  2  0
  8  6  1  0
  8  9  1  0
  9 16  1  0
 10 11  1  0
  9 10  1  1
 11 12  2  0
 12 13  1  0
 14 13  1  0
 15 11  1  0
 15 14  2  0
 16 20  1  0
 16 17  2  0
 19 18  1  6
 19 21  1  0
 20 19  1  0
 21 22  2  0
 21 23  1  0
M  END
$$$$
