VHA.pdb
     RDKit          3D

 23 23  0  0  1  0  0  0  0  0999 V2000
    8.2202  -14.7212   18.2742 C   0  0  0  0  0  0  0  0  0  0  0  0
    8.0655  -13.7093   19.3777 C   0  0  2  0  0  0  0  0  0  0  0  0
    7.8989  -12.3473   18.7175 C   0  0  0  0  0  0  0  0  0  0  0  0
    9.2743  -13.6233   20.2678 C   0  0  2  0  0  0  0  0  0  0  0  0
   10.4075  -13.2979   19.4602 N   0  0  0  0  0  0  0  0  0  0  0  0
    9.5262  -14.8469   21.0368 C   0  0  0  0  0  0  0  0  0  0  0  0
    8.5784  -15.3946   21.6436 O   0  0  0  0  0  0  0  0  0  0  0  0
   10.8045  -15.4558   21.1340 N   0  0  0  0  0  0  0  0  0  0  0  0
   11.0485  -16.7001   21.8118 C   0  0  1  0  0  0  0  0  0  0  0  0
   12.1588  -17.5024   21.1910 C   0  0  0  0  0  0  0  0  0  0  0  0
   11.7843  -18.1834   19.9516 C   0  0  0  0  0  0  0  0  0  0  0  0
   10.5419  -18.6618   19.5932 C   0  0  0  0  0  0  0  0  0  0  0  0
   10.6257  -19.2287   18.3540 N   0  0  0  0  0  0  0  0  0  0  0  0
   11.9041  -19.1034   17.9486 C   0  0  0  0  0  0  0  0  0  0  0  0
   12.5940  -18.4728   18.9171 N   0  0  0  0  0  0  0  0  0  0  0  0
   11.2254  -16.4635   23.2645 C   0  0  0  0  0  0  0  0  0  0  0  0
   12.0193  -15.5441   23.6628 O   0  0  0  0  0  0  0  0  0  0  0  0
    9.5876  -16.2227   26.2093 C   0  0  0  0  0  0  0  0  0  0  0  0
   10.8023  -17.0001   25.6865 C   0  0  2  0  0  0  0  0  0  0  0  0
   10.5673  -17.1942   24.2726 N   0  0  0  0  0  0  0  0  0  0  0  0
   10.8880  -18.2487   26.4481 C   0  0  0  0  0  0  0  0  0  0  0  0
   10.5168  -19.3052   25.8785 O   0  0  0  0  0  0  0  0  0  0  0  0
   11.3643  -18.2439   27.7486 O   0  0  0  0  0  0  0  0  0  0  0  0
  2  1  1  6
  3  2  1  0
  4  5  1  6
  4  2  1  0
  4  6  1  0
  6  7  2  0
  8  6  1  0
  8  9  1  0
  9 16  1  0
 10 11  1  0
  9 10  1  6
 11 12  2  0
 12 13  1  0
 14 13  1  0
 15 11  1  0
 15 14  2  0
 16 20  1  0
 16 17  2  0
 19 18  1  1
 19 21  1  0
 20 19  1  0
 21 22  2  0
 21 23  1  0
M  END
$$$$
