VHA.pdb
     RDKit          3D

 23 23  0  0  1  0  0  0  0  0999 V2000
    9.1578  -12.4107   20.8305 C   0  0  0  0  0  0  0  0  0  0  0  0
    8.4013  -13.3757   19.9574 C   0  0  2  0  0  0  0  0  0  0  0  0
    6.9221  -13.2043   20.2761 C   0  0  0  0  0  0  0  0  0  0  0  0
    8.7486  -14.8123   20.2338 C   0  0  2  0  0  0  0  0  0  0  0  0
    8.1244  -15.6271   19.2396 N   0  0  0  0  0  0  0  0  0  0  0  0
    8.3687  -15.2606   21.5778 C   0  0  0  0  0  0  0  0  0  0  0  0
    7.1645  -15.2252   21.9174 O   0  0  0  0  0  0  0  0  0  0  0  0
    9.3037  -15.7405   22.5316 N   0  0  0  0  0  0  0  0  0  0  0  0
    8.9479  -16.1596   23.8602 C   0  0  1  0  0  0  0  0  0  0  0  0
    9.1151  -17.6383   24.0772 C   0  0  0  0  0  0  0  0  0  0  0  0
    8.2160  -18.4666   23.2734 C   0  0  0  0  0  0  0  0  0  0  0  0
    7.3244  -18.0522   22.3069 C   0  0  0  0  0  0  0  0  0  0  0  0
    6.6810  -19.1445   21.7999 N   0  0  0  0  0  0  0  0  0  0  0  0
    7.1674  -20.2229   22.4438 C   0  0  0  0  0  0  0  0  0  0  0  0
    8.0910  -19.8048   23.3291 N   0  0  0  0  0  0  0  0  0  0  0  0
    9.6532  -15.3272   24.8638 C   0  0  0  0  0  0  0  0  0  0  0  0
   10.9031  -15.0964   24.7270 O   0  0  0  0  0  0  0  0  0  0  0  0
    8.8069  -13.0213   27.6059 C   0  0  0  0  0  0  0  0  0  0  0  0
    9.7622  -14.0847   27.0494 C   0  0  2  0  0  0  0  0  0  0  0  0
    9.0361  -14.7519   25.9913 N   0  0  0  0  0  0  0  0  0  0  0  0
   10.1341  -14.9671   28.1582 C   0  0  0  0  0  0  0  0  0  0  0  0
    9.6550  -16.1285   28.1644 O   0  0  0  0  0  0  0  0  0  0  0  0
   10.9850  -14.5184   29.1546 O   0  0  0  0  0  0  0  0  0  0  0  0
  2  1  1  1
  3  2  1  0
  4  5  1  6
  4  2  1  0
  4  6  1  0
  6  7  2  0
  8  6  1  0
  8  9  1  0
  9 16  1  0
 10 11  1  0
  9 10  1  1
 11 12  2  0
 12 13  1  0
 14 13  1  0
 15 11  1  0
 15 14  2  0
 16 20  1  0
 16 17  2  0
 19 18  1  1
 19 21  1  0
 20 19  1  0
 21 22  2  0
 21 23  1  0
M  END
$$$$
