VHA.pdb
     RDKit          3D

 23 23  0  0  1  0  0  0  0  0999 V2000
    7.2751  -11.3566   25.1483 C   0  0  0  0  0  0  0  0  0  0  0  0
    6.3118  -12.0699   26.0588 C   0  0  2  0  0  0  0  0  0  0  0  0
    6.1638  -11.2175   27.3119 C   0  0  0  0  0  0  0  0  0  0  0  0
    6.8105  -13.4185   26.4989 C   0  0  2  0  0  0  0  0  0  0  0  0
    8.0936  -13.2498   27.1047 N   0  0  0  0  0  0  0  0  0  0  0  0
    6.8806  -14.4022   25.4129 C   0  0  0  0  0  0  0  0  0  0  0  0
    5.8198  -14.8304   24.9053 O   0  0  0  0  0  0  0  0  0  0  0  0
    8.1030  -14.9048   24.8959 N   0  0  0  0  0  0  0  0  0  0  0  0
    8.1851  -15.9009   23.8622 C   0  0  1  0  0  0  0  0  0  0  0  0
    9.1521  -15.5383   22.7689 C   0  0  0  0  0  0  0  0  0  0  0  0
    8.6113  -14.6111   21.7748 C   0  0  0  0  0  0  0  0  0  0  0  0
    7.3273  -14.1157   21.6927 C   0  0  0  0  0  0  0  0  0  0  0  0
    7.2425  -13.2804   20.6161 N   0  0  0  0  0  0  0  0  0  0  0  0
    8.4585  -13.2580   20.0375 C   0  0  0  0  0  0  0  0  0  0  0  0
    9.2760  -14.0622   20.7422 N   0  0  0  0  0  0  0  0  0  0  0  0
    8.4334  -17.2354   24.4581 C   0  0  0  0  0  0  0  0  0  0  0  0
    9.3119  -17.3629   25.3780 O   0  0  0  0  0  0  0  0  0  0  0  0
    6.8746  -20.6178   24.1563 C   0  0  0  0  0  0  0  0  0  0  0  0
    7.9696  -19.6961   24.7081 C   0  0  2  0  0  0  0  0  0  0  0  0
    7.7567  -18.4109   24.0796 N   0  0  0  0  0  0  0  0  0  0  0  0
    9.2626  -20.3047   24.3852 C   0  0  0  0  0  0  0  0  0  0  0  0
    9.9349  -19.7872   23.4585 O   0  0  0  0  0  0  0  0  0  0  0  0
    9.7104  -21.4109   25.0880 O   0  0  0  0  0  0  0  0  0  0  0  0
  2  1  1  6
  3  2  1  0
  4  5  1  6
  4  2  1  0
  4  6  1  0
  6  7  2  0
  8  6  1  0
  8  9  1  0
  9 16  1  0
 10 11  1  0
  9 10  1  6
 11 12  2  0
 12 13  1  0
 14 13  1  0
 15 11  1  0
 15 14  2  0
 16 20  1  0
 16 17  2  0
 19 18  1  6
 19 21  1  0
 20 19  1  0
 21 22  2  0
 21 23  1  0
M  END
$$$$
