VHA.pdb
     RDKit          3D

 23 23  0  0  1  0  0  0  0  0999 V2000
    7.2090  -12.9241   21.7675 C   0  0  0  0  0  0  0  0  0  0  0  0
    8.4072  -13.3047   20.9398 C   0  0  2  0  0  0  0  0  0  0  0  0
    8.2095  -12.6964   19.5579 C   0  0  0  0  0  0  0  0  0  0  0  0
    8.5423  -14.7905   20.7526 C   0  0  2  0  0  0  0  0  0  0  0  0
    7.3707  -15.2705   20.0901 N   0  0  0  0  0  0  0  0  0  0  0  0
    8.7607  -15.5231   22.0046 C   0  0  0  0  0  0  0  0  0  0  0  0
    7.7750  -15.9759   22.6289 O   0  0  0  0  0  0  0  0  0  0  0  0
   10.0473  -15.7519   22.5582 N   0  0  0  0  0  0  0  0  0  0  0  0
   10.2736  -16.4485   23.7955 C   0  0  1  0  0  0  0  0  0  0  0  0
   11.3433  -17.5008   23.6931 C   0  0  0  0  0  0  0  0  0  0  0  0
   10.9183  -18.7214   23.0077 C   0  0  0  0  0  0  0  0  0  0  0  0
    9.6465  -19.0601   22.5973 C   0  0  0  0  0  0  0  0  0  0  0  0
    9.6860  -20.2861   21.9976 N   0  0  0  0  0  0  0  0  0  0  0  0
   10.9663  -20.7026   22.0356 C   0  0  0  0  0  0  0  0  0  0  0  0
   11.7007  -19.7540   22.6456 N   0  0  0  0  0  0  0  0  0  0  0  0
   10.4963  -15.4782   24.8939 C   0  0  0  0  0  0  0  0  0  0  0  0
   11.5710  -14.7864   24.9174 O   0  0  0  0  0  0  0  0  0  0  0  0
    8.5555  -13.6121   27.3255 C   0  0  0  0  0  0  0  0  0  0  0  0
    9.8613  -14.3733   27.0639 C   0  0  2  0  0  0  0  0  0  0  0  0
    9.5891  -15.2506   25.9467 N   0  0  0  0  0  0  0  0  0  0  0  0
   10.2148  -15.0799   28.2976 C   0  0  0  0  0  0  0  0  0  0  0  0
   10.5043  -14.3858   29.3040 O   0  0  0  0  0  0  0  0  0  0  0  0
   10.2238  -16.4644   28.3331 O   0  0  0  0  0  0  0  0  0  0  0  0
  2  1  1  1
  3  2  1  0
  4  5  1  1
  4  2  1  0
  4  6  1  0
  6  7  2  0
  8  6  1  0
  8  9  1  0
  9 16  1  0
 10 11  1  0
  9 10  1  6
 11 12  2  0
 12 13  1  0
 14 13  1  0
 15 11  1  0
 15 14  2  0
 16 20  1  0
 16 17  2  0
 19 18  1  1
 19 21  1  0
 20 19  1  0
 21 22  2  0
 21 23  1  0
M  END
$$$$
