PVH.pdb
     RDKit          3D

 25 26  0  0  1  0  0  0  0  0999 V2000
    8.7184  -17.4717   16.6300 N   0  0  0  0  0  0  0  0  0  0  0  0
    7.9087  -18.4719   15.9286 C   0  0  0  0  0  0  0  0  0  0  0  0
    7.3681  -19.3784   17.0078 C   0  0  0  0  0  0  0  0  0  0  0  0
    7.6314  -18.6233   18.2981 C   0  0  0  0  0  0  0  0  0  0  0  0
    7.9497  -17.2407   17.8181 C   0  0  1  0  0  0  0  0  0  0  0  0
    8.6380  -16.4153   18.8156 C   0  0  0  0  0  0  0  0  0  0  0  0
    9.8962  -16.4563   18.8471 O   0  0  0  0  0  0  0  0  0  0  0  0
    6.5882  -14.0863   21.9994 C   0  0  0  0  0  0  0  0  0  0  0  0
    7.8737  -13.7071   21.3463 C   0  0  2  0  0  0  0  0  0  0  0  0
    7.6800  -12.7602   20.1611 C   0  0  0  0  0  0  0  0  0  0  0  0
    8.6573  -14.9211   20.8443 C   0  0  2  0  0  0  0  0  0  0  0  0
    7.9849  -15.5688   19.7535 N   0  0  0  0  0  0  0  0  0  0  0  0
    9.0093  -15.8348   21.9403 C   0  0  0  0  0  0  0  0  0  0  0  0
    8.3059  -16.8135   22.3001 O   0  0  0  0  0  0  0  0  0  0  0  0
   10.2169  -15.6255   22.6595 N   0  0  0  0  0  0  0  0  0  0  0  0
   10.6162  -16.4937   23.7831 C   0  0  1  0  0  0  0  0  0  0  0  0
   12.1235  -16.4074   23.7909 C   0  0  0  0  0  0  0  0  0  0  0  0
   12.8147  -17.1448   22.7493 C   0  0  0  0  0  0  0  0  0  0  0  0
   12.2693  -18.2390   22.1007 C   0  0  0  0  0  0  0  0  0  0  0  0
   13.1498  -18.6934   21.1995 N   0  0  0  0  0  0  0  0  0  0  0  0
   14.2269  -17.8920   21.2878 C   0  0  0  0  0  0  0  0  0  0  0  0
   14.0240  -16.9544   22.2261 N   0  0  0  0  0  0  0  0  0  0  0  0
   10.0172  -16.0166   25.0291 C   0  0  0  0  0  0  0  0  0  0  0  0
   10.1051  -16.7859   26.1782 O   0  0  0  0  0  0  0  0  0  0  0  0
    9.4246  -14.9315   25.0936 O   0  0  0  0  0  0  0  0  0  0  0  0
  1  2  1  0
  3  2  1  0
  4  3  1  0
  4  5  1  0
  5  1  1  0
  5  6  1  1
  6  7  2  0
  9  8  1  6
  9 10  1  0
 11 13  1  0
 11  9  1  0
 12  6  1  0
 11 12  1  6
 13 14  2  0
 15 16  1  0
 15 13  1  0
 16 23  1  0
 17 18  1  0
 16 17  1  1
 18 22  1  0
 19 20  1  0
 19 18  2  0
 20 21  1  0
 21 22  2  0
 23 24  1  0
 25 23  2  0
M  END
$$$$
