PVH.pdb
     RDKit          3D

 25 26  0  0  1  0  0  0  0  0999 V2000
    8.3185  -14.9512   20.2463 N   0  0  0  0  0  0  0  0  0  0  0  0
    7.3580  -15.3095   19.1989 C   0  0  0  0  0  0  0  0  0  0  0  0
    6.3052  -16.1429   19.8886 C   0  0  0  0  0  0  0  0  0  0  0  0
    6.5575  -15.9159   21.3682 C   0  0  0  0  0  0  0  0  0  0  0  0
    7.4634  -14.7232   21.3744 C   0  0  1  0  0  0  0  0  0  0  0  0
    8.1870  -14.5403   22.6365 C   0  0  0  0  0  0  0  0  0  0  0  0
    9.3451  -15.0261   22.7271 O   0  0  0  0  0  0  0  0  0  0  0  0
    8.5243  -12.5275   27.2018 C   0  0  0  0  0  0  0  0  0  0  0  0
    7.7666  -12.6900   25.9280 C   0  0  2  0  0  0  0  0  0  0  0  0
    6.2887  -13.0114   26.1541 C   0  0  0  0  0  0  0  0  0  0  0  0
    8.3471  -13.7888   25.0362 C   0  0  2  0  0  0  0  0  0  0  0  0
    7.6733  -13.8515   23.7699 N   0  0  0  0  0  0  0  0  0  0  0  0
    8.4067  -15.0819   25.7321 C   0  0  0  0  0  0  0  0  0  0  0  0
    7.4145  -15.8319   25.9193 O   0  0  0  0  0  0  0  0  0  0  0  0
    9.6521  -15.5429   26.2379 N   0  0  0  0  0  0  0  0  0  0  0  0
    9.8028  -16.8814   26.8388 C   0  0  1  0  0  0  0  0  0  0  0  0
   11.1618  -17.3403   26.3672 C   0  0  0  0  0  0  0  0  0  0  0  0
   11.2518  -17.7643   24.9821 C   0  0  0  0  0  0  0  0  0  0  0  0
   10.1619  -17.8241   24.1314 C   0  0  0  0  0  0  0  0  0  0  0  0
   10.5714  -18.2503   22.9296 N   0  0  0  0  0  0  0  0  0  0  0  0
   11.8976  -18.4522   23.0331 C   0  0  0  0  0  0  0  0  0  0  0  0
   12.3095  -18.1579   24.2759 N   0  0  0  0  0  0  0  0  0  0  0  0
    9.7104  -16.7956   28.2958 C   0  0  0  0  0  0  0  0  0  0  0  0
    9.6276  -17.9528   29.0534 O   0  0  0  0  0  0  0  0  0  0  0  0
    9.7036  -15.7068   28.8853 O   0  0  0  0  0  0  0  0  0  0  0  0
  1  2  1  0
  3  2  1  0
  4  3  1  0
  4  5  1  0
  5  1  1  0
  5  6  1  1
  6  7  2  0
  9  8  1  1
  9 10  1  0
 11 13  1  0
 11  9  1  0
 12  6  1  0
 11 12  1  6
 13 14  2  0
 15 16  1  0
 15 13  1  0
 16 23  1  0
 17 18  1  0
 16 17  1  1
 18 22  1  0
 19 20  1  0
 19 18  2  0
 20 21  1  0
 21 22  2  0
 23 24  1  0
 25 23  2  0
M  END
$$$$
