PVH.pdb
     RDKit          3D

 25 26  0  0  1  0  0  0  0  0999 V2000
    8.4069  -15.1642   17.1113 N   0  0  0  0  0  0  0  0  0  0  0  0
    7.9776  -14.7379   15.7765 C   0  0  0  0  0  0  0  0  0  0  0  0
    7.7442  -13.2505   15.8864 C   0  0  0  0  0  0  0  0  0  0  0  0
    8.3921  -12.8660   17.2042 C   0  0  0  0  0  0  0  0  0  0  0  0
    9.2280  -14.0655   17.5291 C   0  0  1  0  0  0  0  0  0  0  0  0
    9.6363  -14.1348   18.9357 C   0  0  0  0  0  0  0  0  0  0  0  0
   10.7993  -13.7530   19.2310 O   0  0  0  0  0  0  0  0  0  0  0  0
    7.1975  -13.3561   22.0960 C   0  0  0  0  0  0  0  0  0  0  0  0
    8.0303  -14.5724   22.3195 C   0  0  2  0  0  0  0  0  0  0  0  0
    8.5696  -14.6676   23.7473 C   0  0  0  0  0  0  0  0  0  0  0  0
    9.2258  -14.6478   21.3682 C   0  0  2  0  0  0  0  0  0  0  0  0
    8.8106  -14.6040   19.9946 N   0  0  0  0  0  0  0  0  0  0  0  0
   10.0998  -15.7877   21.6795 C   0  0  0  0  0  0  0  0  0  0  0  0
    9.8125  -16.9877   21.4358 O   0  0  0  0  0  0  0  0  0  0  0  0
   11.3582  -15.5512   22.2958 N   0  0  0  0  0  0  0  0  0  0  0  0
   12.2989  -16.6474   22.5942 C   0  0  1  0  0  0  0  0  0  0  0  0
   13.6593  -16.0171   22.4157 C   0  0  0  0  0  0  0  0  0  0  0  0
   14.0310  -15.6647   21.0578 C   0  0  0  0  0  0  0  0  0  0  0  0
   13.3311  -16.0892   19.9419 C   0  0  0  0  0  0  0  0  0  0  0  0
   13.9224  -15.5981   18.8451 N   0  0  0  0  0  0  0  0  0  0  0  0
   14.9750  -14.8785   19.2746 C   0  0  0  0  0  0  0  0  0  0  0  0
   15.0407  -14.9189   20.6144 N   0  0  0  0  0  0  0  0  0  0  0  0
   12.0815  -17.1455   23.9519 C   0  0  0  0  0  0  0  0  0  0  0  0
   12.6403  -18.3512   24.3445 O   0  0  0  0  0  0  0  0  0  0  0  0
   11.4043  -16.5169   24.7760 O   0  0  0  0  0  0  0  0  0  0  0  0
  1  2  1  0
  3  2  1  0
  4  3  1  0
  4  5  1  0
  5  1  1  0
  5  6  1  1
  6  7  2  0
  9  8  1  1
  9 10  1  0
 11 13  1  0
 11  9  1  0
 12  6  1  0
 11 12  1  6
 13 14  2  0
 15 16  1  0
 15 13  1  0
 16 23  1  0
 17 18  1  0
 16 17  1  1
 18 22  1  0
 19 20  1  0
 19 18  2  0
 20 21  1  0
 21 22  2  0
 23 24  1  0
 25 23  2  0
M  END
$$$$
