PVH.pdb
     RDKit          3D

 25 26  0  0  1  0  0  0  0  0999 V2000
    8.1631  -15.0120   20.3778 N   0  0  0  0  0  0  0  0  0  0  0  0
    7.2728  -15.4207   19.2877 C   0  0  0  0  0  0  0  0  0  0  0  0
    6.2518  -16.3321   19.9245 C   0  0  0  0  0  0  0  0  0  0  0  0
    6.4275  -16.1079   21.4155 C   0  0  0  0  0  0  0  0  0  0  0  0
    7.2491  -14.8569   21.4715 C   0  0  1  0  0  0  0  0  0  0  0  0
    7.9065  -14.6420   22.7645 C   0  0  0  0  0  0  0  0  0  0  0  0
    9.0910  -15.0481   22.8977 O   0  0  0  0  0  0  0  0  0  0  0  0
    6.9211  -11.5879   25.4134 C   0  0  0  0  0  0  0  0  0  0  0  0
    7.1767  -12.9020   26.0697 C   0  0  2  0  0  0  0  0  0  0  0  0
    7.9681  -12.7706   27.3717 C   0  0  0  0  0  0  0  0  0  0  0  0
    7.9362  -13.8725   25.1636 C   0  0  2  0  0  0  0  0  0  0  0  0
    7.3008  -14.0058   23.8831 N   0  0  0  0  0  0  0  0  0  0  0  0
    8.1866  -15.1585   25.8295 C   0  0  0  0  0  0  0  0  0  0  0  0
    7.2971  -16.0126   26.0777 O   0  0  0  0  0  0  0  0  0  0  0  0
    9.5093  -15.4880   26.2311 N   0  0  0  0  0  0  0  0  0  0  0  0
    9.8427  -16.8000   26.8168 C   0  0  1  0  0  0  0  0  0  0  0  0
   11.2476  -17.0673   26.3326 C   0  0  0  0  0  0  0  0  0  0  0  0
   11.3963  -17.3510   24.9171 C   0  0  0  0  0  0  0  0  0  0  0  0
   10.3315  -17.4030   24.0347 C   0  0  0  0  0  0  0  0  0  0  0  0
   10.7951  -17.6848   22.8102 N   0  0  0  0  0  0  0  0  0  0  0  0
   12.1295  -17.8061   22.9311 C   0  0  0  0  0  0  0  0  0  0  0  0
   12.4936  -17.6039   24.2069 N   0  0  0  0  0  0  0  0  0  0  0  0
    9.7500  -16.7415   28.2752 C   0  0  0  0  0  0  0  0  0  0  0  0
    9.8052  -17.9090   29.0195 O   0  0  0  0  0  0  0  0  0  0  0  0
    9.6217  -15.6675   28.8775 O   0  0  0  0  0  0  0  0  0  0  0  0
  1  2  1  0
  3  2  1  0
  4  3  1  0
  4  5  1  0
  5  1  1  0
  5  6  1  1
  6  7  2  0
  9  8  1  6
  9 10  1  0
 11 13  1  0
 11  9  1  0
 12  6  1  0
 11 12  1  6
 13 14  2  0
 15 16  1  0
 15 13  1  0
 16 23  1  0
 17 18  1  0
 16 17  1  1
 18 22  1  0
 19 20  1  0
 19 18  2  0
 20 21  1  0
 21 22  2  0
 23 24  1  0
 25 23  2  0
M  END
$$$$
