PVH.pdb
     RDKit          3D

 25 26  0  0  1  0  0  0  0  0999 V2000
    8.4885  -14.9433   18.8560 N   0  0  0  0  0  0  0  0  0  0  0  0
    8.6110  -14.1241   17.6469 C   0  0  0  0  0  0  0  0  0  0  0  0
    7.7480  -12.9108   17.8956 C   0  0  0  0  0  0  0  0  0  0  0  0
    7.4582  -12.9561   19.3850 C   0  0  0  0  0  0  0  0  0  0  0  0
    8.4570  -13.9510   19.8905 C   0  0  1  0  0  0  0  0  0  0  0  0
    8.1327  -14.4893   21.2154 C   0  0  0  0  0  0  0  0  0  0  0  0
    8.1295  -13.6923   22.1902 O   0  0  0  0  0  0  0  0  0  0  0  0
    6.1751  -18.1730   23.9630 C   0  0  0  0  0  0  0  0  0  0  0  0
    6.6833  -17.6826   22.6499 C   0  0  2  0  0  0  0  0  0  0  0  0
    7.6459  -18.6654   21.9821 C   0  0  0  0  0  0  0  0  0  0  0  0
    7.4026  -16.3374   22.7646 C   0  0  2  0  0  0  0  0  0  0  0  0
    7.8205  -15.8515   21.4799 N   0  0  0  0  0  0  0  0  0  0  0  0
    8.4875  -16.3813   23.7550 C   0  0  0  0  0  0  0  0  0  0  0  0
    9.6571  -16.7722   23.5075 O   0  0  0  0  0  0  0  0  0  0  0  0
    8.2300  -15.9610   25.0878 N   0  0  0  0  0  0  0  0  0  0  0  0
    9.3042  -15.8511   26.0925 C   0  0  1  0  0  0  0  0  0  0  0  0
    8.7756  -14.8386   27.0801 C   0  0  0  0  0  0  0  0  0  0  0  0
    9.5729  -14.6293   28.2746 C   0  0  0  0  0  0  0  0  0  0  0  0
   10.7786  -15.2675   28.5071 C   0  0  0  0  0  0  0  0  0  0  0  0
   11.2631  -14.8641   29.6888 N   0  0  0  0  0  0  0  0  0  0  0  0
   10.3701  -13.9874   30.1828 C   0  0  0  0  0  0  0  0  0  0  0  0
    9.3467  -13.8453   29.3265 N   0  0  0  0  0  0  0  0  0  0  0  0
    9.5611  -17.1547   26.7037 C   0  0  0  0  0  0  0  0  0  0  0  0
   10.8436  -17.4889   27.1079 O   0  0  0  0  0  0  0  0  0  0  0  0
    8.6574  -17.9835   26.8751 O   0  0  0  0  0  0  0  0  0  0  0  0
  1  2  1  0
  3  2  1  0
  4  3  1  0
  4  5  1  0
  5  1  1  0
  5  6  1  1
  6  7  2  0
  9  8  1  1
  9 10  1  0
 11 13  1  0
 11  9  1  0
 12  6  1  0
 11 12  1  6
 13 14  2  0
 15 16  1  0
 15 13  1  0
 16 23  1  0
 17 18  1  0
 16 17  1  1
 18 22  1  0
 19 20  1  0
 19 18  2  0
 20 21  1  0
 21 22  2  0
 23 24  1  0
 25 23  2  0
M  END
$$$$
