PVH.pdb
     RDKit          3D

 25 26  0  0  1  0  0  0  0  0999 V2000
    6.8973  -14.8465   20.7778 N   0  0  0  0  0  0  0  0  0  0  0  0
    6.5534  -14.4290   19.4157 C   0  0  0  0  0  0  0  0  0  0  0  0
    7.1245  -13.0397   19.2660 C   0  0  0  0  0  0  0  0  0  0  0  0
    8.0622  -12.8904   20.4504 C   0  0  0  0  0  0  0  0  0  0  0  0
    8.2125  -14.2984   20.9382 C   0  0  1  0  0  0  0  0  0  0  0  0
    8.7296  -14.3951   22.3068 C   0  0  0  0  0  0  0  0  0  0  0  0
    9.9604  -14.1987   22.4866 O   0  0  0  0  0  0  0  0  0  0  0  0
    6.1892  -14.4425   25.8725 C   0  0  0  0  0  0  0  0  0  0  0  0
    7.5538  -13.8605   25.7238 C   0  0  2  0  0  0  0  0  0  0  0  0
    7.5322  -12.4270   25.1916 C   0  0  0  0  0  0  0  0  0  0  0  0
    8.4452  -14.6851   24.7935 C   0  0  2  0  0  0  0  0  0  0  0  0
    7.9388  -14.6957   23.4501 N   0  0  0  0  0  0  0  0  0  0  0  0
    8.7022  -16.0279   25.3328 C   0  0  0  0  0  0  0  0  0  0  0  0
    7.8481  -16.9503   25.3736 O   0  0  0  0  0  0  0  0  0  0  0  0
    9.9900  -16.3353   25.8490 N   0  0  0  0  0  0  0  0  0  0  0  0
   10.3300  -17.6814   26.3469 C   0  0  1  0  0  0  0  0  0  0  0  0
   11.7845  -17.8485   25.9780 C   0  0  0  0  0  0  0  0  0  0  0  0
   12.0818  -17.9352   24.5600 C   0  0  0  0  0  0  0  0  0  0  0  0
   11.1185  -18.1594   23.5921 C   0  0  0  0  0  0  0  0  0  0  0  0
   11.7082  -18.1853   22.3898 N   0  0  0  0  0  0  0  0  0  0  0  0
   13.0197  -17.9801   22.6089 C   0  0  0  0  0  0  0  0  0  0  0  0
   13.2459  -17.8287   23.9230 N   0  0  0  0  0  0  0  0  0  0  0  0
   10.1009  -17.7605   27.7891 C   0  0  0  0  0  0  0  0  0  0  0  0
   10.1705  -18.9844   28.4349 O   0  0  0  0  0  0  0  0  0  0  0  0
    9.8427  -16.7551   28.4640 O   0  0  0  0  0  0  0  0  0  0  0  0
  1  2  1  0
  3  2  1  0
  4  3  1  0
  4  5  1  0
  5  1  1  0
  5  6  1  1
  6  7  2  0
  9  8  1  6
  9 10  1  0
 11 13  1  0
 11  9  1  0
 12  6  1  0
 11 12  1  6
 13 14  2  0
 15 16  1  0
 15 13  1  0
 16 23  1  0
 17 18  1  0
 16 17  1  1
 18 22  1  0
 19 20  1  0
 19 18  2  0
 20 21  1  0
 21 22  2  0
 23 24  1  0
 25 23  2  0
M  END
$$$$
