PVH.pdb
     RDKit          3D

 25 26  0  0  1  0  0  0  0  0999 V2000
    7.6878  -18.1258   18.0282 N   0  0  0  0  0  0  0  0  0  0  0  0
    7.3114  -18.5717   16.6838 C   0  0  0  0  0  0  0  0  0  0  0  0
    7.1840  -17.3105   15.8641 C   0  0  0  0  0  0  0  0  0  0  0  0
    7.8370  -16.2401   16.7197 C   0  0  0  0  0  0  0  0  0  0  0  0
    8.5792  -17.0386   17.7466 C   0  0  1  0  0  0  0  0  0  0  0  0
    8.9592  -16.2642   18.9324 C   0  0  0  0  0  0  0  0  0  0  0  0
   10.1821  -16.0238   19.1118 O   0  0  0  0  0  0  0  0  0  0  0  0
    7.5220  -12.8265   20.2496 C   0  0  0  0  0  0  0  0  0  0  0  0
    7.4899  -13.8517   21.3316 C   0  0  2  0  0  0  0  0  0  0  0  0
    7.8445  -13.2770   22.7037 C   0  0  0  0  0  0  0  0  0  0  0  0
    8.4390  -15.0203   21.0610 C   0  0  2  0  0  0  0  0  0  0  0  0
    8.0429  -15.7633   19.8981 N   0  0  0  0  0  0  0  0  0  0  0  0
    8.6281  -15.8574   22.2541 C   0  0  0  0  0  0  0  0  0  0  0  0
    7.7396  -16.5987   22.7473 O   0  0  0  0  0  0  0  0  0  0  0  0
    9.8855  -15.8510   22.9162 N   0  0  0  0  0  0  0  0  0  0  0  0
   10.1793  -16.7583   24.0414 C   0  0  1  0  0  0  0  0  0  0  0  0
   11.6577  -17.0349   23.9082 C   0  0  0  0  0  0  0  0  0  0  0  0
   12.0505  -17.9246   22.8310 C   0  0  0  0  0  0  0  0  0  0  0  0
   11.1448  -18.6168   22.0462 C   0  0  0  0  0  0  0  0  0  0  0  0
   11.8176  -19.3468   21.1472 N   0  0  0  0  0  0  0  0  0  0  0  0
   13.1231  -19.1107   21.3711 C   0  0  0  0  0  0  0  0  0  0  0  0
   13.2641  -18.2495   22.3906 N   0  0  0  0  0  0  0  0  0  0  0  0
    9.8371  -16.1179   25.3108 C   0  0  0  0  0  0  0  0  0  0  0  0
    9.7901  -16.8688   26.4743 O   0  0  0  0  0  0  0  0  0  0  0  0
    9.5837  -14.9081   25.3829 O   0  0  0  0  0  0  0  0  0  0  0  0
  1  2  1  0
  3  2  1  0
  4  3  1  0
  4  5  1  0
  5  1  1  0
  5  6  1  1
  6  7  2  0
  9  8  1  6
  9 10  1  0
 11 13  1  0
 11  9  1  0
 12  6  1  0
 11 12  1  6
 13 14  2  0
 15 16  1  0
 15 13  1  0
 16 23  1  0
 17 18  1  0
 16 17  1  1
 18 22  1  0
 19 20  1  0
 19 18  2  0
 20 21  1  0
 21 22  2  0
 23 24  1  0
 25 23  2  0
M  END
$$$$
