PVH.pdb
     RDKit          3D

 25 26  0  0  1  0  0  0  0  0999 V2000
    8.5348  -14.8470   18.8249 N   0  0  0  0  0  0  0  0  0  0  0  0
    8.6189  -13.9687   17.6547 C   0  0  0  0  0  0  0  0  0  0  0  0
    7.6160  -12.8689   17.9061 C   0  0  0  0  0  0  0  0  0  0  0  0
    7.2672  -13.0088   19.3768 C   0  0  0  0  0  0  0  0  0  0  0  0
    8.3471  -13.9090   19.8930 C   0  0  1  0  0  0  0  0  0  0  0  0
    8.0263  -14.5354   21.1794 C   0  0  0  0  0  0  0  0  0  0  0  0
    7.8457  -13.7824   22.1723 O   0  0  0  0  0  0  0  0  0  0  0  0
    5.8374  -17.9949   21.4641 C   0  0  0  0  0  0  0  0  0  0  0  0
    6.9626  -17.9419   22.4408 C   0  0  2  0  0  0  0  0  0  0  0  0
    6.5776  -18.4819   23.8187 C   0  0  0  0  0  0  0  0  0  0  0  0
    7.5048  -16.5248   22.6350 C   0  0  2  0  0  0  0  0  0  0  0  0
    7.9041  -15.9370   21.3875 N   0  0  0  0  0  0  0  0  0  0  0  0
    8.5511  -16.4773   23.6660 C   0  0  0  0  0  0  0  0  0  0  0  0
    9.7367  -16.8589   23.4900 O   0  0  0  0  0  0  0  0  0  0  0  0
    8.2342  -15.9724   24.9559 N   0  0  0  0  0  0  0  0  0  0  0  0
    9.2657  -15.7755   25.9917 C   0  0  1  0  0  0  0  0  0  0  0  0
    8.6060  -14.8559   26.9910 C   0  0  0  0  0  0  0  0  0  0  0  0
    9.3325  -14.6210   28.2253 C   0  0  0  0  0  0  0  0  0  0  0  0
   10.6425  -14.1766   28.2653 C   0  0  0  0  0  0  0  0  0  0  0  0
   11.0230  -14.0599   29.5441 N   0  0  0  0  0  0  0  0  0  0  0  0
    9.9634  -14.4269   30.2876 C   0  0  0  0  0  0  0  0  0  0  0  0
    8.9398  -14.7666   29.4890 N   0  0  0  0  0  0  0  0  0  0  0  0
    9.6492  -17.0607   26.5749 C   0  0  0  0  0  0  0  0  0  0  0  0
   10.9557  -17.2722   26.9852 O   0  0  0  0  0  0  0  0  0  0  0  0
    8.8336  -17.9812   26.7170 O   0  0  0  0  0  0  0  0  0  0  0  0
  1  2  1  0
  3  2  1  0
  4  3  1  0
  4  5  1  0
  5  1  1  0
  5  6  1  1
  6  7  2  0
  9  8  1  6
  9 10  1  0
 11 13  1  0
 11  9  1  0
 12  6  1  0
 11 12  1  6
 13 14  2  0
 15 16  1  0
 15 13  1  0
 16 23  1  0
 17 18  1  0
 16 17  1  1
 18 22  1  0
 19 20  1  0
 19 18  2  0
 20 21  1  0
 21 22  2  0
 23 24  1  0
 25 23  2  0
M  END
$$$$
