PVH.pdb
     RDKit          3D

 25 26  0  0  1  0  0  0  0  0999 V2000
    8.8636  -14.6189   20.6141 N   0  0  0  0  0  0  0  0  0  0  0  0
    8.0703  -14.8931   19.4126 C   0  0  0  0  0  0  0  0  0  0  0  0
    6.8156  -15.5713   19.9069 C   0  0  0  0  0  0  0  0  0  0  0  0
    6.8239  -15.3286   21.4053 C   0  0  0  0  0  0  0  0  0  0  0  0
    7.8545  -14.2536   21.5648 C   0  0  1  0  0  0  0  0  0  0  0  0
    8.3563  -14.1182   22.9359 C   0  0  0  0  0  0  0  0  0  0  0  0
    9.5543  -14.4357   23.1587 O   0  0  0  0  0  0  0  0  0  0  0  0
    5.6841  -13.2346   26.3187 C   0  0  0  0  0  0  0  0  0  0  0  0
    7.1514  -12.9730   26.3528 C   0  0  2  0  0  0  0  0  0  0  0  0
    7.5049  -11.5293   25.9927 C   0  0  0  0  0  0  0  0  0  0  0  0
    7.9328  -13.8889   25.4092 C   0  0  2  0  0  0  0  0  0  0  0  0
    7.5849  -13.6525   24.0364 N   0  0  0  0  0  0  0  0  0  0  0  0
    7.8257  -15.3001   25.8055 C   0  0  0  0  0  0  0  0  0  0  0  0
    6.9759  -16.1034   25.3423 O   0  0  0  0  0  0  0  0  0  0  0  0
    8.7269  -15.8211   26.7729 N   0  0  0  0  0  0  0  0  0  0  0  0
    9.4030  -17.1191   26.5899 C   0  0  1  0  0  0  0  0  0  0  0  0
   10.1328  -16.9665   25.2770 C   0  0  0  0  0  0  0  0  0  0  0  0
   10.8467  -18.1362   24.7989 C   0  0  0  0  0  0  0  0  0  0  0  0
   10.3028  -19.4086   24.7875 C   0  0  0  0  0  0  0  0  0  0  0  0
   11.2067  -20.2633   24.2912 N   0  0  0  0  0  0  0  0  0  0  0  0
   12.2968  -19.5310   23.9985 C   0  0  0  0  0  0  0  0  0  0  0  0
   12.0788  -18.2430   24.3060 N   0  0  0  0  0  0  0  0  0  0  0  0
   10.3056  -17.3821   27.7101 C   0  0  0  0  0  0  0  0  0  0  0  0
   10.7164  -16.3411   28.5271 O   0  0  0  0  0  0  0  0  0  0  0  0
   10.7223  -18.5214   27.9576 O   0  0  0  0  0  0  0  0  0  0  0  0
  1  2  1  0
  3  2  1  0
  4  3  1  0
  4  5  1  0
  5  1  1  0
  5  6  1  1
  6  7  2  0
  9  8  1  6
  9 10  1  0
 11 13  1  0
 11  9  1  0
 12  6  1  0
 11 12  1  6
 13 14  2  0
 15 16  1  0
 15 13  1  0
 16 23  1  0
 17 18  1  0
 16 17  1  6
 18 22  1  0
 19 20  1  0
 19 18  2  0
 20 21  1  0
 21 22  2  0
 23 24  1  0
 25 23  2  0
M  END
$$$$
