RRE.pdb
     RDKit          3D

 32 31  0  0  1  0  0  0  0  0999 V2000
    7.6338  -13.7693   16.8124 N   0  0  0  0  0  0  0  0  0  0  0  0
    7.7196  -12.9590   18.0035 C   0  0  0  0  0  0  0  0  0  0  0  0
    6.8390  -12.0514   18.2493 N   0  0  0  0  0  0  0  0  0  0  0  0
    8.7708  -13.1343   18.9337 N   0  0  0  0  0  0  0  0  0  0  0  0
    9.8465  -14.0807   18.6513 C   0  0  0  0  0  0  0  0  0  0  0  0
    9.4358  -15.4151   19.2084 C   0  0  0  0  0  0  0  0  0  0  0  0
    9.8458  -15.7063   20.5995 C   0  0  0  0  0  0  0  0  0  0  0  0
   10.8958  -16.7326   20.8146 C   0  0  2  0  0  0  0  0  0  0  0  0
   11.0994  -17.6740   19.7634 N   0  0  0  0  0  0  0  0  0  0  0  0
   10.5839  -17.4080   22.1141 C   0  0  0  0  0  0  0  0  0  0  0  0
   10.3307  -16.6817   23.1102 O   0  0  0  0  0  0  0  0  0  0  0  0
    6.8183  -11.4064   19.0368 N   0  0  0  0  0  0  0  0  0  0  0  0
   10.9397  -22.3110   19.2981 C   0  0  0  0  0  0  0  0  0  0  0  0
   10.3222  -23.2128   20.2134 N   0  0  0  0  0  0  0  0  0  0  0  0
   11.0009  -24.1934   20.6744 N   0  0  0  0  0  0  0  0  0  0  0  0
    8.9684  -23.0385   20.6180 C   0  0  0  0  0  0  0  0  0  0  0  0
    8.7155  -22.4207   21.8914 C   0  0  0  0  0  0  0  0  0  0  0  0
    9.6965  -21.2898   22.0932 C   0  0  0  0  0  0  0  0  0  0  0  0
    9.4976  -20.6262   23.4171 C   0  0  1  0  0  0  0  0  0  0  0  0
   10.4512  -19.4751   23.5572 N   0  0  0  0  0  0  0  0  0  0  0  0
   10.5587  -18.8009   22.2812 C   0  0  0  0  0  0  0  0  0  0  0  0
   11.7619  -19.8648   24.1023 O   0  0  0  0  0  0  0  0  0  0  0  0
   12.3628  -20.8339   23.5754 N   0  0  0  0  0  0  0  0  0  0  0  0
   10.5912  -24.8052   21.4104 C   0  0  1  0  0  0  0  0  0  0  0  0
   12.3724  -19.2077   25.1816 C   0  0  0  0  0  0  0  0  0  0  0  0
   13.7046  -19.6317   25.6676 C   0  0  0  0  0  0  0  0  0  0  0  0
   14.7546  -18.8195   24.9980 C   0  0  0  0  0  0  0  0  0  0  0  0
   14.2299  -17.5081   24.5063 O   0  0  0  0  0  0  0  0  0  0  0  0
   15.2077  -16.6597   23.8070 C   0  0  0  0  0  0  0  0  0  0  0  0
   15.7954  -17.0218   22.7821 O   0  0  0  0  0  0  0  0  0  0  0  0
   13.7387  -19.5329   27.1398 O   0  0  0  0  0  0  0  0  0  0  0  0
   12.7175  -19.0784   27.7493 O   0  0  0  0  0  0  0  0  0  0  0  0
  2  3  2  0
  2  1  1  0
  4  2  1  0
  5  4  1  0
  6  7  1  0
  6  5  1  0
  8 10  1  0
  8  7  1  0
  8  9  1  6
 10 11  2  0
 13 12  1  0
 14 13  2  0
 15 13  1  0
 16 15  1  0
 17 16  1  0
 17 18  1  0
 19 18  1  1
 20 19  1  0
 20 10  1  0
 21 23  1  0
 21 19  1  0
 22 21  2  0
 24 25  1  6
 24 23  1  0
 25 26  1  0
 26 27  1  0
 27 31  1  0
 27 28  2  0
 29 32  1  0
 29 24  1  0
 30 29  2  0
M  END
$$$$
