RRE.pdb
     RDKit          3D

 32 31  0  0  1  0  0  0  0  0999 V2000
   15.0399  -19.2480   15.6493 N   0  0  0  0  0  0  0  0  0  0  0  0
   16.1369  -19.6590   16.4920 C   0  0  0  0  0  0  0  0  0  0  0  0
   17.1922  -20.1976   15.9861 N   0  0  0  0  0  0  0  0  0  0  0  0
   16.0867  -19.4857   17.8951 N   0  0  0  0  0  0  0  0  0  0  0  0
   14.9940  -18.7286   18.4994 C   0  0  0  0  0  0  0  0  0  0  0  0
   13.7110  -19.4372   18.1656 C   0  0  0  0  0  0  0  0  0  0  0  0
   12.4961  -18.9748   18.8715 C   0  0  0  0  0  0  0  0  0  0  0  0
   11.8828  -17.6959   18.4352 C   0  0  2  0  0  0  0  0  0  0  0  0
   12.6025  -16.9349   17.4680 N   0  0  0  0  0  0  0  0  0  0  0  0
   11.6054  -16.9019   19.6741 C   0  0  0  0  0  0  0  0  0  0  0  0
   12.5649  -16.2862   20.2071 O   0  0  0  0  0  0  0  0  0  0  0  0
   18.0135  -20.5361   16.4836 N   0  0  0  0  0  0  0  0  0  0  0  0
    6.4444  -14.0485   18.2450 C   0  0  0  0  0  0  0  0  0  0  0  0
    7.7819  -13.5665   18.3510 N   0  0  0  0  0  0  0  0  0  0  0  0
    8.4696  -13.4000   17.2861 N   0  0  0  0  0  0  0  0  0  0  0  0
    8.3593  -13.2709   19.6183 C   0  0  0  0  0  0  0  0  0  0  0  0
    7.5703  -13.5124   20.7957 C   0  0  0  0  0  0  0  0  0  0  0  0
    8.4167  -14.2385   21.8148 C   0  0  0  0  0  0  0  0  0  0  0  0
    8.5862  -15.6788   21.4549 C   0  0  2  0  0  0  0  0  0  0  0  0
   10.0445  -16.0357   21.4591 N   0  0  0  0  0  0  0  0  0  0  0  0
   10.3390  -16.8074   20.2708 C   0  0  0  0  0  0  0  0  0  0  0  0
   10.4773  -16.7116   22.6932 O   0  0  0  0  0  0  0  0  0  0  0  0
    9.9461  -17.8108   22.9889 N   0  0  0  0  0  0  0  0  0  0  0  0
    9.4628  -13.0955   17.3542 C   0  0  1  0  0  0  0  0  0  0  0  0
   11.4531  -16.1881   23.5553 C   0  0  0  0  0  0  0  0  0  0  0  0
   11.8243  -16.9024   24.7973 C   0  0  0  0  0  0  0  0  0  0  0  0
   13.2767  -16.7178   25.0563 C   0  0  0  0  0  0  0  0  0  0  0  0
   14.1223  -17.2223   23.9306 O   0  0  0  0  0  0  0  0  0  0  0  0
   15.5749  -17.0935   24.1261 C   0  0  0  0  0  0  0  0  0  0  0  0
   16.1242  -16.0135   24.3683 O   0  0  0  0  0  0  0  0  0  0  0  0
   10.9683  -16.4309   25.9034 O   0  0  0  0  0  0  0  0  0  0  0  0
   11.1130  -16.9498   27.0570 O   0  0  0  0  0  0  0  0  0  0  0  0
  2  3  2  0
  2  1  1  0
  4  2  1  0
  5  4  1  0
  6  7  1  0
  6  5  1  0
  8 10  1  0
  8  7  1  0
  8  9  1  6
 10 11  2  0
 13 12  1  0
 14 13  2  0
 15 13  1  0
 16 15  1  0
 17 16  1  0
 17 18  1  0
 19 18  1  6
 20 19  1  0
 20 10  1  0
 21 23  1  0
 21 19  1  0
 22 21  2  0
 24 25  1  1
 24 23  1  0
 25 26  1  0
 26 27  1  0
 27 31  1  0
 27 28  2  0
 29 32  1  0
 29 24  1  0
 30 29  2  0
M  END
$$$$
