RRE.pdb
     RDKit          3D

 32 31  0  0  1  0  0  0  0  0999 V2000
    7.3379  -12.5015   17.9825 N   0  0  0  0  0  0  0  0  0  0  0  0
    7.4892  -13.6067   17.0670 C   0  0  0  0  0  0  0  0  0  0  0  0
    7.4271  -13.4222   15.7935 N   0  0  0  0  0  0  0  0  0  0  0  0
    7.7079  -14.9225   17.5380 N   0  0  0  0  0  0  0  0  0  0  0  0
    7.9629  -15.1582   18.9564 C   0  0  0  0  0  0  0  0  0  0  0  0
    9.4101  -14.8456   19.2162 C   0  0  0  0  0  0  0  0  0  0  0  0
   10.3628  -15.9704   19.0931 C   0  0  0  0  0  0  0  0  0  0  0  0
   10.1584  -17.1533   19.9654 C   0  0  2  0  0  0  0  0  0  0  0  0
    8.8964  -17.8100   19.8725 N   0  0  0  0  0  0  0  0  0  0  0  0
   10.4574  -16.7174   21.3663 C   0  0  0  0  0  0  0  0  0  0  0  0
   11.5826  -16.2027   21.5963 O   0  0  0  0  0  0  0  0  0  0  0  0
    7.4814  -14.1288   15.0624 N   0  0  0  0  0  0  0  0  0  0  0  0
    9.8581  -13.2108   28.8365 C   0  0  0  0  0  0  0  0  0  0  0  0
    8.7013  -13.3045   28.0084 N   0  0  0  0  0  0  0  0  0  0  0  0
    8.2805  -12.2580   27.4064 N   0  0  0  0  0  0  0  0  0  0  0  0
    8.0120  -14.5392   27.8442 C   0  0  0  0  0  0  0  0  0  0  0  0
    7.6679  -14.9515   26.5105 C   0  0  0  0  0  0  0  0  0  0  0  0
    8.8849  -15.5602   25.8542 C   0  0  0  0  0  0  0  0  0  0  0  0
    8.6002  -15.9586   24.4425 C   0  0  2  0  0  0  0  0  0  0  0  0
    9.8468  -16.5020   23.8064 N   0  0  0  0  0  0  0  0  0  0  0  0
    9.5551  -16.8509   22.4325 C   0  0  0  0  0  0  0  0  0  0  0  0
   10.4477  -17.6169   24.5568 O   0  0  0  0  0  0  0  0  0  0  0  0
    9.9125  -18.7501   24.4719 N   0  0  0  0  0  0  0  0  0  0  0  0
    7.5164  -12.3376   26.7038 C   0  0  1  0  0  0  0  0  0  0  0  0
   11.5880  -17.4757   25.3625 C   0  0  0  0  0  0  0  0  0  0  0  0
   12.2012  -18.6539   26.0157 C   0  0  0  0  0  0  0  0  0  0  0  0
   13.6470  -18.3934   26.2443 C   0  0  0  0  0  0  0  0  0  0  0  0
   14.4940  -18.8525   25.1003 O   0  0  0  0  0  0  0  0  0  0  0  0
   15.3860  -17.8325   24.5268 C   0  0  0  0  0  0  0  0  0  0  0  0
   16.5578  -17.6874   24.8912 O   0  0  0  0  0  0  0  0  0  0  0  0
   11.4597  -18.9638   27.2537 O   0  0  0  0  0  0  0  0  0  0  0  0
   10.4528  -18.2486   27.5626 O   0  0  0  0  0  0  0  0  0  0  0  0
  2  3  2  0
  2  1  1  0
  4  2  1  0
  5  4  1  0
  6  7  1  0
  6  5  1  0
  8 10  1  0
  8  7  1  0
  8  9  1  1
 10 11  2  0
 13 12  1  0
 14 13  2  0
 15 13  1  0
 16 15  1  0
 17 16  1  0
 17 18  1  0
 19 18  1  6
 20 19  1  0
 20 10  1  0
 21 23  1  0
 21 19  1  0
 22 21  2  0
 24 25  1  1
 24 23  1  0
 25 26  1  0
 26 27  1  0
 27 31  1  0
 27 28  2  0
 29 32  1  0
 29 24  1  0
 30 29  2  0
M  END
$$$$
