RRE.pdb
     RDKit          3D

 32 31  0  0  1  0  0  0  0  0999 V2000
   13.0190  -20.3803   11.9691 N   0  0  0  0  0  0  0  0  0  0  0  0
   12.2683  -19.7899   13.0510 C   0  0  0  0  0  0  0  0  0  0  0  0
   10.9850  -19.8929   13.0973 N   0  0  0  0  0  0  0  0  0  0  0  0
   12.9160  -19.0805   14.0895 N   0  0  0  0  0  0  0  0  0  0  0  0
   12.1271  -18.3622   15.0865 C   0  0  0  0  0  0  0  0  0  0  0  0
   13.0868  -17.7184   16.0479 C   0  0  0  0  0  0  0  0  0  0  0  0
   12.4929  -16.9069   17.1326 C   0  0  0  0  0  0  0  0  0  0  0  0
   11.4063  -17.5143   17.9403 C   0  0  2  0  0  0  0  0  0  0  0  0
   10.1206  -17.5964   17.3298 N   0  0  0  0  0  0  0  0  0  0  0  0
   11.3599  -16.7682   19.2377 C   0  0  0  0  0  0  0  0  0  0  0  0
   12.4263  -16.6672   19.8983 O   0  0  0  0  0  0  0  0  0  0  0  0
   10.3645  -19.5699   13.8372 N   0  0  0  0  0  0  0  0  0  0  0  0
    6.3782  -14.3047   16.8310 C   0  0  0  0  0  0  0  0  0  0  0  0
    6.9404  -13.5326   17.8895 N   0  0  0  0  0  0  0  0  0  0  0  0
    7.7733  -12.6043   17.6081 N   0  0  0  0  0  0  0  0  0  0  0  0
    6.5903  -13.7799   19.2470 C   0  0  0  0  0  0  0  0  0  0  0  0
    7.2941  -13.0568   20.2713 C   0  0  0  0  0  0  0  0  0  0  0  0
    8.7061  -13.5855   20.3650 C   0  0  0  0  0  0  0  0  0  0  0  0
    8.7605  -14.8570   21.1480 C   0  0  2  0  0  0  0  0  0  0  0  0
   10.1222  -15.4760   21.0185 N   0  0  0  0  0  0  0  0  0  0  0  0
   10.1969  -16.1779   19.7552 C   0  0  0  0  0  0  0  0  0  0  0  0
   10.4874  -16.3293   22.1612 O   0  0  0  0  0  0  0  0  0  0  0  0
    9.9396  -17.4550   22.2640 N   0  0  0  0  0  0  0  0  0  0  0  0
    8.2607  -12.0968   18.3753 C   0  0  1  0  0  0  0  0  0  0  0  0
   11.4164  -15.9468   23.1409 C   0  0  0  0  0  0  0  0  0  0  0  0
   11.7184  -16.8379   24.2835 C   0  0  0  0  0  0  0  0  0  0  0  0
   13.1287  -16.6340   24.7079 C   0  0  0  0  0  0  0  0  0  0  0  0
   14.0378  -17.7012   24.1867 O   0  0  0  0  0  0  0  0  0  0  0  0
   15.4620  -17.5320   24.5147 C   0  0  0  0  0  0  0  0  0  0  0  0
   16.2162  -16.8009   23.8637 O   0  0  0  0  0  0  0  0  0  0  0  0
   10.7416  -16.5924   25.3625 O   0  0  0  0  0  0  0  0  0  0  0  0
    9.9918  -15.5658   25.2912 O   0  0  0  0  0  0  0  0  0  0  0  0
  2  3  2  0
  2  1  1  0
  4  2  1  0
  5  4  1  0
  6  7  1  0
  6  5  1  0
  8 10  1  0
  8  7  1  0
  8  9  1  6
 10 11  2  0
 13 12  1  0
 14 13  2  0
 15 13  1  0
 16 15  1  0
 17 16  1  0
 17 18  1  0
 19 18  1  6
 20 19  1  0
 20 10  1  0
 21 23  1  0
 21 19  1  0
 22 21  2  0
 24 25  1  1
 24 23  1  0
 25 26  1  0
 26 27  1  0
 27 31  1  0
 27 28  2  0
 29 32  1  0
 29 24  1  0
 30 29  2  0
M  END
$$$$
