RRE.pdb
     RDKit          3D

 32 31  0  0  1  0  0  0  0  0999 V2000
    9.2366  -14.0060   18.4015 N   0  0  0  0  0  0  0  0  0  0  0  0
    8.6215  -12.8191   18.9451 C   0  0  0  0  0  0  0  0  0  0  0  0
    9.3405  -11.8362   19.3652 N   0  0  0  0  0  0  0  0  0  0  0  0
    7.2148  -12.6996   19.0349 N   0  0  0  0  0  0  0  0  0  0  0  0
    6.3828  -13.8972   19.1109 C   0  0  0  0  0  0  0  0  0  0  0  0
    7.2629  -15.0351   19.5474 C   0  0  0  0  0  0  0  0  0  0  0  0
    7.1300  -15.4730   20.9540 C   0  0  0  0  0  0  0  0  0  0  0  0
    6.6457  -16.8520   21.2102 C   0  0  2  0  0  0  0  0  0  0  0  0
    5.3755  -17.1991   20.6636 N   0  0  0  0  0  0  0  0  0  0  0  0
    6.6895  -17.0599   22.6924 C   0  0  0  0  0  0  0  0  0  0  0  0
    5.5986  -17.2286   23.2967 O   0  0  0  0  0  0  0  0  0  0  0  0
    9.0150  -10.9499   19.7463 N   0  0  0  0  0  0  0  0  0  0  0  0
    5.3163  -21.5118   26.1970 C   0  0  0  0  0  0  0  0  0  0  0  0
    5.9883  -22.4924   25.4100 N   0  0  0  0  0  0  0  0  0  0  0  0
    5.2983  -23.2887   24.6857 N   0  0  0  0  0  0  0  0  0  0  0  0
    7.4080  -22.5974   25.4199 C   0  0  0  0  0  0  0  0  0  0  0  0
    8.1504  -21.8434   24.4465 C   0  0  0  0  0  0  0  0  0  0  0  0
    8.3490  -20.4368   24.9606 C   0  0  0  0  0  0  0  0  0  0  0  0
    7.9973  -19.4225   23.9213 C   0  0  1  0  0  0  0  0  0  0  0  0
    8.1820  -18.0401   24.4770 N   0  0  0  0  0  0  0  0  0  0  0  0
    7.8759  -17.0767   23.4414 C   0  0  0  0  0  0  0  0  0  0  0  0
    9.5094  -17.8232   25.0757 O   0  0  0  0  0  0  0  0  0  0  0  0
   10.5157  -18.2745   24.4744 N   0  0  0  0  0  0  0  0  0  0  0  0
    5.7769  -24.0240   24.1253 C   0  0  2  0  0  0  0  0  0  0  0  0
    9.7053  -17.1383   26.2847 C   0  0  0  0  0  0  0  0  0  0  0  0
   10.9495  -16.3738   26.5259 C   0  0  0  0  0  0  0  0  0  0  0  0
   10.6582  -15.2320   27.4325 C   0  0  0  0  0  0  0  0  0  0  0  0
   10.5270  -15.6598   28.8596 O   0  0  0  0  0  0  0  0  0  0  0  0
   10.1067  -14.6071   29.7976 C   0  0  0  0  0  0  0  0  0  0  0  0
   10.0556  -14.7817   31.0199 O   0  0  0  0  0  0  0  0  0  0  0  0
   11.9863  -17.2854   27.0480 O   0  0  0  0  0  0  0  0  0  0  0  0
   11.6424  -18.4462   27.4422 O   0  0  0  0  0  0  0  0  0  0  0  0
  2  3  2  0
  2  1  1  0
  4  2  1  0
  5  4  1  0
  6  7  1  0
  6  5  1  0
  8 10  1  0
  8  7  1  0
  8  9  1  1
 10 11  2  0
 13 12  1  0
 14 13  2  0
 15 13  1  0
 16 15  1  0
 17 16  1  0
 17 18  1  0
 19 18  1  1
 20 19  1  0
 20 10  1  0
 21 23  1  0
 21 19  1  0
 22 21  2  0
 24 25  1  1
 24 23  1  0
 25 26  1  0
 26 27  1  0
 27 31  1  0
 27 28  2  0
 29 32  1  0
 29 24  1  0
 30 29  2  0
M  END
$$$$
