RRE.pdb
     RDKit          3D

 32 31  0  0  1  0  0  0  0  0999 V2000
    9.6645  -13.6203   14.9114 N   0  0  0  0  0  0  0  0  0  0  0  0
    8.7279  -14.6081   15.3906 C   0  0  0  0  0  0  0  0  0  0  0  0
    9.0367  -15.8588   15.4039 N   0  0  0  0  0  0  0  0  0  0  0  0
    7.4456  -14.2352   15.8572 N   0  0  0  0  0  0  0  0  0  0  0  0
    7.2015  -14.0951   17.2901 C   0  0  0  0  0  0  0  0  0  0  0  0
    8.4197  -14.6016   18.0105 C   0  0  0  0  0  0  0  0  0  0  0  0
    8.5515  -14.2242   19.4346 C   0  0  0  0  0  0  0  0  0  0  0  0
    7.5495  -14.7571   20.3907 C   0  0  2  0  0  0  0  0  0  0  0  0
    6.2359  -14.2079   20.3179 N   0  0  0  0  0  0  0  0  0  0  0  0
    8.1372  -14.6150   21.7606 C   0  0  0  0  0  0  0  0  0  0  0  0
    7.6475  -13.7431   22.5248 O   0  0  0  0  0  0  0  0  0  0  0  0
    8.4659  -16.6337   15.7362 N   0  0  0  0  0  0  0  0  0  0  0  0
    8.6228  -19.5595   26.0224 C   0  0  0  0  0  0  0  0  0  0  0  0
    7.2854  -19.2297   26.3896 N   0  0  0  0  0  0  0  0  0  0  0  0
    6.7500  -19.8225   27.3880 N   0  0  0  0  0  0  0  0  0  0  0  0
    6.5418  -18.2563   25.6642 C   0  0  0  0  0  0  0  0  0  0  0  0
    7.0226  -16.9013   25.6590 C   0  0  0  0  0  0  0  0  0  0  0  0
    8.1016  -16.7659   24.6105 C   0  0  0  0  0  0  0  0  0  0  0  0
    8.6509  -15.3769   24.5706 C   0  0  1  0  0  0  0  0  0  0  0  0
    9.7638  -15.2989   23.5659 N   0  0  0  0  0  0  0  0  0  0  0  0
    9.1999  -15.3977   22.2368 C   0  0  0  0  0  0  0  0  0  0  0  0
   10.8330  -16.2833   23.8005 O   0  0  0  0  0  0  0  0  0  0  0  0
   10.6420  -17.4698   23.4348 N   0  0  0  0  0  0  0  0  0  0  0  0
    5.7914  -19.5560   27.6944 C   0  0  2  0  0  0  0  0  0  0  0  0
   12.0540  -15.9617   24.4127 C   0  0  0  0  0  0  0  0  0  0  0  0
   13.2380  -16.8327   24.2389 C   0  0  0  0  0  0  0  0  0  0  0  0
   14.4360  -15.9902   23.9828 C   0  0  0  0  0  0  0  0  0  0  0  0
   15.6717  -16.8079   23.7796 O   0  0  0  0  0  0  0  0  0  0  0  0
   16.8905  -16.0433   23.4721 C   0  0  0  0  0  0  0  0  0  0  0  0
   16.9987  -14.8346   23.7054 O   0  0  0  0  0  0  0  0  0  0  0  0
   13.3779  -17.7042   25.4219 O   0  0  0  0  0  0  0  0  0  0  0  0
   12.8987  -17.3122   26.5344 O   0  0  0  0  0  0  0  0  0  0  0  0
  2  3  2  0
  2  1  1  0
  4  2  1  0
  5  4  1  0
  6  7  1  0
  6  5  1  0
  8 10  1  0
  8  7  1  0
  8  9  1  1
 10 11  2  0
 13 12  1  0
 14 13  2  0
 15 13  1  0
 16 15  1  0
 17 16  1  0
 17 18  1  0
 19 18  1  6
 20 19  1  0
 20 10  1  0
 21 23  1  0
 21 19  1  0
 22 21  2  0
 24 25  1  6
 24 23  1  0
 25 26  1  0
 26 27  1  0
 27 31  1  0
 27 28  2  0
 29 32  1  0
 29 24  1  0
 30 29  2  0
M  END
$$$$
