RRE.pdb
     RDKit          3D

 32 31  0  0  1  0  0  0  0  0999 V2000
   16.1928  -19.3295   20.1035 N   0  0  0  0  0  0  0  0  0  0  0  0
   15.2010  -18.3568   19.7126 C   0  0  0  0  0  0  0  0  0  0  0  0
   14.1382  -18.1774   20.4182 N   0  0  0  0  0  0  0  0  0  0  0  0
   15.3637  -17.5744   18.5453 N   0  0  0  0  0  0  0  0  0  0  0  0
   15.3550  -18.2113   17.2313 C   0  0  0  0  0  0  0  0  0  0  0  0
   13.9985  -17.9838   16.6248 C   0  0  0  0  0  0  0  0  0  0  0  0
   13.9702  -17.3963   15.2676 C   0  0  0  0  0  0  0  0  0  0  0  0
   12.7986  -16.5658   14.8937 C   0  0  2  0  0  0  0  0  0  0  0  0
   12.6903  -16.1870   13.5236 N   0  0  0  0  0  0  0  0  0  0  0  0
   12.8021  -15.3753   15.8019 C   0  0  0  0  0  0  0  0  0  0  0  0
   12.6463  -14.2386   15.2847 O   0  0  0  0  0  0  0  0  0  0  0  0
   13.3701  -17.5367   20.2283 N   0  0  0  0  0  0  0  0  0  0  0  0
    7.0067  -12.1244   20.7743 C   0  0  0  0  0  0  0  0  0  0  0  0
    7.5413  -12.7981   19.6373 N   0  0  0  0  0  0  0  0  0  0  0  0
    8.0741  -12.1105   18.7002 N   0  0  0  0  0  0  0  0  0  0  0  0
    7.4896  -14.2168   19.5308 C   0  0  0  0  0  0  0  0  0  0  0  0
    8.3198  -14.8534   18.5446 C   0  0  0  0  0  0  0  0  0  0  0  0
    9.7628  -14.4929   18.8091 C   0  0  0  0  0  0  0  0  0  0  0  0
   10.6788  -15.1660   17.8393 C   0  0  2  0  0  0  0  0  0  0  0  0
   12.1040  -14.8237   18.1644 N   0  0  0  0  0  0  0  0  0  0  0  0
   12.9690  -15.4575   17.1927 C   0  0  0  0  0  0  0  0  0  0  0  0
   12.4807  -15.1453   19.5507 O   0  0  0  0  0  0  0  0  0  0  0  0
   12.1588  -16.2690   20.0108 N   0  0  0  0  0  0  0  0  0  0  0  0
    8.4435  -12.5898   17.8531 C   0  0  2  0  0  0  0  0  0  0  0  0
   13.1807  -14.2585   20.3831 C   0  0  0  0  0  0  0  0  0  0  0  0
   14.1331  -14.7666   21.3958 C   0  0  0  0  0  0  0  0  0  0  0  0
   13.5297  -15.9285   22.1003 C   0  0  0  0  0  0  0  0  0  0  0  0
   14.4532  -16.5161   23.1195 O   0  0  0  0  0  0  0  0  0  0  0  0
   13.9129  -17.6552   23.8780 C   0  0  0  0  0  0  0  0  0  0  0  0
   12.7920  -17.6413   24.3980 O   0  0  0  0  0  0  0  0  0  0  0  0
   15.4170  -15.0826   20.7398 O   0  0  0  0  0  0  0  0  0  0  0  0
   15.4958  -16.1247   20.0127 O   0  0  0  0  0  0  0  0  0  0  0  0
  2  3  2  0
  2  1  1  0
  4  2  1  0
  5  4  1  0
  6  7  1  0
  6  5  1  0
  8 10  1  0
  8  7  1  0
  8  9  1  6
 10 11  2  0
 13 12  1  0
 14 13  2  0
 15 13  1  0
 16 15  1  0
 17 16  1  0
 17 18  1  0
 19 18  1  6
 20 19  1  0
 20 10  1  0
 21 23  1  0
 21 19  1  0
 22 21  2  0
 24 25  1  1
 24 23  1  0
 25 26  1  0
 26 27  1  0
 27 31  1  0
 27 28  2  0
 29 32  1  0
 29 24  1  0
 30 29  2  0
M  END
$$$$
