RRE.pdb
     RDKit          3D

 32 31  0  0  1  0  0  0  0  0999 V2000
    8.8978  -14.0369   13.6766 N   0  0  0  0  0  0  0  0  0  0  0  0
    9.1418  -14.8459   14.8464 C   0  0  0  0  0  0  0  0  0  0  0  0
   10.2125  -15.5552   14.9470 N   0  0  0  0  0  0  0  0  0  0  0  0
    8.2150  -14.8865   15.9144 N   0  0  0  0  0  0  0  0  0  0  0  0
    8.0435  -13.7215   16.7780 C   0  0  0  0  0  0  0  0  0  0  0  0
    6.9188  -14.0222   17.7290 C   0  0  0  0  0  0  0  0  0  0  0  0
    7.2329  -13.9421   19.1722 C   0  0  0  0  0  0  0  0  0  0  0  0
    8.1740  -14.9416   19.7356 C   0  0  2  0  0  0  0  0  0  0  0  0
    8.3504  -16.1472   18.9952 N   0  0  0  0  0  0  0  0  0  0  0  0
    7.7323  -15.2109   21.1408 C   0  0  0  0  0  0  0  0  0  0  0  0
    7.5226  -14.2235   21.8924 O   0  0  0  0  0  0  0  0  0  0  0  0
   10.4808  -16.1650   15.7169 N   0  0  0  0  0  0  0  0  0  0  0  0
    9.4547  -20.3733   26.6403 C   0  0  0  0  0  0  0  0  0  0  0  0
    8.1361  -20.4816   27.1714 N   0  0  0  0  0  0  0  0  0  0  0  0
    7.9848  -20.6909   28.4236 N   0  0  0  0  0  0  0  0  0  0  0  0
    6.9925  -20.3619   26.3320 C   0  0  0  0  0  0  0  0  0  0  0  0
    7.2022  -20.1027   24.9334 C   0  0  0  0  0  0  0  0  0  0  0  0
    7.0932  -18.6163   24.6866 C   0  0  0  0  0  0  0  0  0  0  0  0
    7.3241  -18.2848   23.2481 C   0  0  2  0  0  0  0  0  0  0  0  0
    7.3187  -16.7950   23.0624 N   0  0  0  0  0  0  0  0  0  0  0  0
    7.5403  -16.4988   21.6633 C   0  0  0  0  0  0  0  0  0  0  0  0
    8.2644  -16.0925   23.9451 O   0  0  0  0  0  0  0  0  0  0  0  0
    9.4918  -16.1760   23.6913 N   0  0  0  0  0  0  0  0  0  0  0  0
    7.0294  -20.6854   28.8371 C   0  0  2  0  0  0  0  0  0  0  0  0
    7.8623  -15.3351   25.0559 C   0  0  0  0  0  0  0  0  0  0  0  0
    8.8438  -14.5268   25.8136 C   0  0  0  0  0  0  0  0  0  0  0  0
    8.3601  -13.1239   25.9057 C   0  0  0  0  0  0  0  0  0  0  0  0
    6.9948  -13.0330   26.5095 O   0  0  0  0  0  0  0  0  0  0  0  0
    6.4800  -11.6683   26.7025 C   0  0  0  0  0  0  0  0  0  0  0  0
    7.1462  -10.6596   26.4464 O   0  0  0  0  0  0  0  0  0  0  0  0
    9.0762  -15.1530   27.1298 O   0  0  0  0  0  0  0  0  0  0  0  0
    8.3336  -16.1228   27.4888 O   0  0  0  0  0  0  0  0  0  0  0  0
  2  3  2  0
  2  1  1  0
  4  2  1  0
  5  4  1  0
  6  7  1  0
  6  5  1  0
  8 10  1  0
  8  7  1  0
  8  9  1  6
 10 11  2  0
 13 12  1  0
 14 13  2  0
 15 13  1  0
 16 15  1  0
 17 16  1  0
 17 18  1  0
 19 18  1  6
 20 19  1  0
 20 10  1  0
 21 23  1  0
 21 19  1  0
 22 21  2  0
 24 25  1  1
 24 23  1  0
 25 26  1  0
 26 27  1  0
 27 31  1  0
 27 28  2  0
 29 32  1  0
 29 24  1  0
 30 29  2  0
M  END
$$$$
