MYL.pdb
     RDKit          3D

 29 29  0  0  1  0  0  0  0  0999 V2000
    7.9514  -11.8612   19.9940 C   0  0  0  0  0  0  0  0  0  0  0  0
    7.2699  -13.0498   18.8407 S   0  0  0  0  0  0  0  0  0  0  0  0
    8.2482  -14.5471   18.6947 C   0  0  0  0  0  0  0  0  0  0  0  0
    8.5764  -15.1569   20.0382 C   0  0  0  0  0  0  0  0  0  0  0  0
    9.4273  -16.3723   19.9432 C   0  0  2  0  0  0  0  0  0  0  0  0
    8.7908  -17.3290   19.0589 N   0  0  0  0  0  0  0  0  0  0  0  0
    9.7016  -17.0194   21.2406 C   0  0  0  0  0  0  0  0  0  0  0  0
    9.7539  -18.2839   21.3221 O   0  0  0  0  0  0  0  0  0  0  0  0
   12.8941  -21.8202   20.1276 O   0  0  0  0  0  0  0  0  0  0  0  0
   12.6627  -20.6834   20.8914 C   0  0  0  0  0  0  0  0  0  0  0  0
   11.8705  -20.7136   22.0230 C   0  0  0  0  0  0  0  0  0  0  0  0
   11.6637  -19.5521   22.7607 C   0  0  0  0  0  0  0  0  0  0  0  0
   12.2319  -18.3620   22.3913 C   0  0  0  0  0  0  0  0  0  0  0  0
   12.0129  -17.1500   23.1584 C   0  0  0  0  0  0  0  0  0  0  0  0
   10.6200  -16.8697   23.6043 C   0  0  2  0  0  0  0  0  0  0  0  0
    9.9200  -16.3175   22.4524 N   0  0  0  0  0  0  0  0  0  0  0  0
   10.6167  -15.9362   24.7470 C   0  0  0  0  0  0  0  0  0  0  0  0
   11.2780  -16.2089   25.7809 O   0  0  0  0  0  0  0  0  0  0  0  0
   13.0210  -18.3343   21.2629 C   0  0  0  0  0  0  0  0  0  0  0  0
   13.2407  -19.4933   20.5076 C   0  0  0  0  0  0  0  0  0  0  0  0
    7.5019  -11.8638   27.4257 C   0  0  0  0  0  0  0  0  0  0  0  0
    7.0663  -13.1247   26.7563 C   0  0  1  0  0  0  0  0  0  0  0  0
    5.6481  -12.8665   26.2308 C   0  0  0  0  0  0  0  0  0  0  0  0
    7.9061  -13.5535   25.5887 C   0  0  0  0  0  0  0  0  0  0  0  0
    9.1959  -14.2199   25.9391 C   0  0  2  0  0  0  0  0  0  0  0  0
    9.8966  -14.7144   24.7602 N   0  0  0  0  0  0  0  0  0  0  0  0
    9.0833  -15.3322   26.9017 C   0  0  0  0  0  0  0  0  0  0  0  0
    9.6636  -15.2597   28.1590 O   0  0  0  0  0  0  0  0  0  0  0  0
    8.4602  -16.3901   26.6305 O   0  0  0  0  0  0  0  0  0  0  0  0
  2  1  1  0
  3  2  1  0
  4  3  1  0
  4  5  1  0
  5  6  1  6
  7  5  1  0
  7  8  2  0
  9 10  1  0
 10 20  2  0
 10 11  1  0
 11 12  2  0
 12 13  1  0
 13 14  1  0
 15 14  1  6
 15 16  1  0
 16  7  1  0
 17 15  1  0
 18 17  2  0
 19 13  2  0
 20 19  1  0
 22 21  1  6
 22 24  1  0
 23 22  1  0
 25 24  1  6
 25 26  1  0
 25 27  1  0
 26 17  1  0
 27 28  1  0
 29 27  2  0
M  END
$$$$
