MYL.pdb
     RDKit          3D

 29 29  0  0  1  0  0  0  0  0999 V2000
    9.0366  -11.9406   19.6135 C   0  0  0  0  0  0  0  0  0  0  0  0
    8.0438  -12.7563   18.3660 S   0  0  0  0  0  0  0  0  0  0  0  0
    7.9106  -14.5299   18.6046 C   0  0  0  0  0  0  0  0  0  0  0  0
    7.3248  -14.8900   19.9506 C   0  0  0  0  0  0  0  0  0  0  0  0
    7.3029  -16.3532   20.2128 C   0  0  2  0  0  0  0  0  0  0  0  0
    6.2929  -16.9702   19.3751 N   0  0  0  0  0  0  0  0  0  0  0  0
    7.0479  -16.7096   21.6218 C   0  0  0  0  0  0  0  0  0  0  0  0
    5.8600  -16.7397   22.0652 O   0  0  0  0  0  0  0  0  0  0  0  0
    8.3036  -20.2433   29.6864 O   0  0  0  0  0  0  0  0  0  0  0  0
    8.2856  -19.8430   28.3566 C   0  0  0  0  0  0  0  0  0  0  0  0
    7.1060  -19.7180   27.6481 C   0  0  0  0  0  0  0  0  0  0  0  0
    7.1314  -19.3138   26.3170 C   0  0  0  0  0  0  0  0  0  0  0  0
    8.3104  -19.0321   25.6796 C   0  0  0  0  0  0  0  0  0  0  0  0
    8.3371  -18.6146   24.2902 C   0  0  0  0  0  0  0  0  0  0  0  0
    7.8225  -17.2522   23.9794 C   0  0  2  0  0  0  0  0  0  0  0  0
    8.0603  -17.0342   22.5590 N   0  0  0  0  0  0  0  0  0  0  0  0
    8.4988  -16.2378   24.8106 C   0  0  0  0  0  0  0  0  0  0  0  0
    9.7055  -15.9561   24.5975 O   0  0  0  0  0  0  0  0  0  0  0  0
    9.4849  -19.1576   26.3877 C   0  0  0  0  0  0  0  0  0  0  0  0
    9.4793  -19.5630   27.7284 C   0  0  0  0  0  0  0  0  0  0  0  0
    5.8032  -11.8138   26.7054 C   0  0  0  0  0  0  0  0  0  0  0  0
    6.8540  -12.7321   26.1759 C   0  0  1  0  0  0  0  0  0  0  0  0
    7.8675  -11.8479   25.4377 C   0  0  0  0  0  0  0  0  0  0  0  0
    7.6091  -13.5085   27.2149 C   0  0  0  0  0  0  0  0  0  0  0  0
    8.5467  -14.5429   26.6842 C   0  0  2  0  0  0  0  0  0  0  0  0
    7.8620  -15.5366   25.8662 N   0  0  0  0  0  0  0  0  0  0  0  0
    9.3319  -15.2585   27.7078 C   0  0  0  0  0  0  0  0  0  0  0  0
   10.4621  -14.6913   28.2770 O   0  0  0  0  0  0  0  0  0  0  0  0
    9.0161  -16.4071   28.1102 O   0  0  0  0  0  0  0  0  0  0  0  0
  2  1  1  0
  3  2  1  0
  4  3  1  0
  4  5  1  0
  5  6  1  6
  7  5  1  0
  7  8  2  0
  9 10  1  0
 10 20  2  0
 10 11  1  0
 11 12  2  0
 12 13  1  0
 13 14  1  0
 15 14  1  1
 15 16  1  0
 16  7  1  0
 17 15  1  0
 18 17  2  0
 19 13  2  0
 20 19  1  0
 22 21  1  1
 22 24  1  0
 23 22  1  0
 25 24  1  1
 25 26  1  0
 25 27  1  0
 26 17  1  0
 27 28  1  0
 29 27  2  0
M  END
$$$$
