MYL.pdb
     RDKit          3D

 29 29  0  0  1  0  0  0  0  0999 V2000
    8.4896  -11.6664   18.5981 C   0  0  0  0  0  0  0  0  0  0  0  0
    8.6152  -12.7257   20.0366 S   0  0  0  0  0  0  0  0  0  0  0  0
    7.2445  -13.8720   20.2029 C   0  0  0  0  0  0  0  0  0  0  0  0
    7.2861  -14.9767   19.1722 C   0  0  0  0  0  0  0  0  0  0  0  0
    8.4058  -15.9331   19.3763 C   0  0  2  0  0  0  0  0  0  0  0  0
    8.3155  -16.9876   18.3852 N   0  0  0  0  0  0  0  0  0  0  0  0
    8.4468  -16.5354   20.7227 C   0  0  0  0  0  0  0  0  0  0  0  0
    7.4164  -17.1026   21.1972 O   0  0  0  0  0  0  0  0  0  0  0  0
   10.9077  -23.0069   20.8971 O   0  0  0  0  0  0  0  0  0  0  0  0
   10.8805  -21.7372   21.4596 C   0  0  0  0  0  0  0  0  0  0  0  0
   10.2863  -21.4937   22.6829 C   0  0  0  0  0  0  0  0  0  0  0  0
   10.2808  -20.2067   23.2116 C   0  0  0  0  0  0  0  0  0  0  0  0
   10.8564  -19.1588   22.5437 C   0  0  0  0  0  0  0  0  0  0  0  0
   10.8470  -17.8159   23.0932 C   0  0  0  0  0  0  0  0  0  0  0  0
    9.5952  -17.0251   22.9350 C   0  0  2  0  0  0  0  0  0  0  0  0
    9.5873  -16.5329   21.5641 N   0  0  0  0  0  0  0  0  0  0  0  0
    9.5487  -15.9219   23.9138 C   0  0  0  0  0  0  0  0  0  0  0  0
   10.2873  -14.9162   23.7601 O   0  0  0  0  0  0  0  0  0  0  0  0
   11.4480  -19.4039   21.3244 C   0  0  0  0  0  0  0  0  0  0  0  0
   11.4635  -20.6927   20.7761 C   0  0  0  0  0  0  0  0  0  0  0  0
    7.9470  -11.7475   26.6614 C   0  0  0  0  0  0  0  0  0  0  0  0
    7.1847  -12.9931   26.9696 C   0  0  1  0  0  0  0  0  0  0  0  0
    5.7024  -12.5978   26.9904 C   0  0  0  0  0  0  0  0  0  0  0  0
    7.3390  -14.1026   25.9706 C   0  0  0  0  0  0  0  0  0  0  0  0
    8.6535  -14.8109   25.9994 C   0  0  2  0  0  0  0  0  0  0  0  0
    8.7019  -15.9175   25.0516 N   0  0  0  0  0  0  0  0  0  0  0  0
    9.0569  -15.3260   27.3217 C   0  0  0  0  0  0  0  0  0  0  0  0
    9.7616  -14.5375   28.2187 O   0  0  0  0  0  0  0  0  0  0  0  0
    8.7827  -16.4946   27.6957 O   0  0  0  0  0  0  0  0  0  0  0  0
  2  1  1  0
  3  2  1  0
  4  3  1  0
  4  5  1  0
  5  6  1  6
  7  5  1  0
  7  8  2  0
  9 10  1  0
 10 20  2  0
 10 11  1  0
 11 12  2  0
 12 13  1  0
 13 14  1  0
 15 14  1  1
 15 16  1  0
 16  7  1  0
 17 15  1  0
 18 17  2  0
 19 13  2  0
 20 19  1  0
 22 21  1  6
 22 24  1  0
 23 22  1  0
 25 24  1  1
 25 26  1  0
 25 27  1  0
 26 17  1  0
 27 28  1  0
 29 27  2  0
M  END
$$$$
