MYL.pdb
     RDKit          3D

 29 29  0  0  1  0  0  0  0  0999 V2000
    7.8413  -19.3363   16.5295 C   0  0  0  0  0  0  0  0  0  0  0  0
    6.4429  -20.0468   17.3936 S   0  0  0  0  0  0  0  0  0  0  0  0
    6.4569  -19.7298   19.1598 C   0  0  0  0  0  0  0  0  0  0  0  0
    7.4262  -18.6354   19.5434 C   0  0  0  0  0  0  0  0  0  0  0  0
    7.5158  -18.4132   21.0106 C   0  0  2  0  0  0  0  0  0  0  0  0
    6.2160  -18.0078   21.5092 N   0  0  0  0  0  0  0  0  0  0  0  0
    8.5220  -17.4099   21.4083 C   0  0  0  0  0  0  0  0  0  0  0  0
    9.7541  -17.6283   21.2016 O   0  0  0  0  0  0  0  0  0  0  0  0
    8.0874  -13.5639   16.2034 O   0  0  0  0  0  0  0  0  0  0  0  0
    8.2113  -13.6230   17.5856 C   0  0  0  0  0  0  0  0  0  0  0  0
    7.3760  -12.9102   18.4241 C   0  0  0  0  0  0  0  0  0  0  0  0
    7.5334  -12.9971   19.8038 C   0  0  0  0  0  0  0  0  0  0  0  0
    8.5075  -13.7810   20.3626 C   0  0  0  0  0  0  0  0  0  0  0  0
    8.6742  -13.8684   21.8013 C   0  0  0  0  0  0  0  0  0  0  0  0
    9.2003  -15.1495   22.3484 C   0  0  2  0  0  0  0  0  0  0  0  0
    8.2143  -16.1725   22.0271 N   0  0  0  0  0  0  0  0  0  0  0  0
    9.4244  -15.0419   23.8029 C   0  0  0  0  0  0  0  0  0  0  0  0
   10.3794  -14.3509   24.2403 O   0  0  0  0  0  0  0  0  0  0  0  0
    9.3391  -14.4904   19.5247 C   0  0  0  0  0  0  0  0  0  0  0  0
    9.1959  -14.4157   18.1334 C   0  0  0  0  0  0  0  0  0  0  0  0
    6.4489  -12.5112   26.7500 C   0  0  0  0  0  0  0  0  0  0  0  0
    7.6751  -13.2626   26.3506 C   0  0  1  0  0  0  0  0  0  0  0  0
    8.8614  -12.5141   26.9722 C   0  0  0  0  0  0  0  0  0  0  0  0
    7.7405  -14.6834   26.8298 C   0  0  0  0  0  0  0  0  0  0  0  0
    8.8096  -15.5198   26.2069 C   0  0  2  0  0  0  0  0  0  0  0  0
    8.6119  -15.6841   24.7718 N   0  0  0  0  0  0  0  0  0  0  0  0
    8.9793  -16.8601   26.7995 C   0  0  0  0  0  0  0  0  0  0  0  0
    9.2632  -17.0223   28.1471 O   0  0  0  0  0  0  0  0  0  0  0  0
    8.8747  -17.9107   26.1168 O   0  0  0  0  0  0  0  0  0  0  0  0
  2  1  1  0
  3  2  1  0
  4  3  1  0
  4  5  1  0
  5  6  1  6
  7  5  1  0
  7  8  2  0
  9 10  1  0
 10 20  2  0
 10 11  1  0
 11 12  2  0
 12 13  1  0
 13 14  1  0
 15 14  1  1
 15 16  1  0
 16  7  1  0
 17 15  1  0
 18 17  2  0
 19 13  2  0
 20 19  1  0
 22 21  1  1
 22 24  1  0
 23 22  1  0
 25 24  1  1
 25 26  1  0
 25 27  1  0
 26 17  1  0
 27 28  1  0
 29 27  2  0
M  END
$$$$
