MYL.pdb
     RDKit          3D

 29 29  0  0  1  0  0  0  0  0999 V2000
    4.8974  -11.9177   25.8414 C   0  0  0  0  0  0  0  0  0  0  0  0
    5.9800  -13.3441   25.8150 S   0  0  0  0  0  0  0  0  0  0  0  0
    5.1019  -14.9073   25.7390 C   0  0  0  0  0  0  0  0  0  0  0  0
    6.0362  -16.0954   25.7242 C   0  0  0  0  0  0  0  0  0  0  0  0
    6.2479  -16.6634   24.3668 C   0  0  2  0  0  0  0  0  0  0  0  0
    5.6334  -17.9751   24.3004 N   0  0  0  0  0  0  0  0  0  0  0  0
    7.6657  -16.7718   23.9728 C   0  0  0  0  0  0  0  0  0  0  0  0
    8.2507  -17.8967   24.0058 O   0  0  0  0  0  0  0  0  0  0  0  0
    7.2093  -13.4583   17.7308 O   0  0  0  0  0  0  0  0  0  0  0  0
    7.9337  -13.7009   18.8908 C   0  0  0  0  0  0  0  0  0  0  0  0
    8.0070  -12.7738   19.9125 C   0  0  0  0  0  0  0  0  0  0  0  0
    8.7437  -13.0559   21.0586 C   0  0  0  0  0  0  0  0  0  0  0  0
    9.4080  -14.2445   21.2049 C   0  0  0  0  0  0  0  0  0  0  0  0
   10.1795  -14.5370   22.3984 C   0  0  0  0  0  0  0  0  0  0  0  0
    9.8526  -15.7928   23.1289 C   0  0  2  0  0  0  0  0  0  0  0  0
    8.4608  -15.6799   23.5435 N   0  0  0  0  0  0  0  0  0  0  0  0
   10.7550  -15.9748   24.2820 C   0  0  0  0  0  0  0  0  0  0  0  0
   11.9987  -16.0197   24.1035 O   0  0  0  0  0  0  0  0  0  0  0  0
    9.3335  -15.1671   20.1851 C   0  0  0  0  0  0  0  0  0  0  0  0
    8.5969  -14.9011   19.0238 C   0  0  0  0  0  0  0  0  0  0  0  0
    9.0376  -14.4075   29.1952 C   0  0  0  0  0  0  0  0  0  0  0  0
    9.9115  -14.6735   28.0149 C   0  0  1  0  0  0  0  0  0  0  0  0
   10.9667  -13.5599   27.9996 C   0  0  0  0  0  0  0  0  0  0  0  0
   10.6429  -15.9839   28.0413 C   0  0  0  0  0  0  0  0  0  0  0  0
   11.1900  -16.4376   26.7278 C   0  0  2  0  0  0  0  0  0  0  0  0
   10.3023  -16.1070   25.6196 N   0  0  0  0  0  0  0  0  0  0  0  0
   11.5047  -17.8765   26.6454 C   0  0  0  0  0  0  0  0  0  0  0  0
   10.9237  -18.6880   25.6827 O   0  0  0  0  0  0  0  0  0  0  0  0
   12.3087  -18.4311   27.4372 O   0  0  0  0  0  0  0  0  0  0  0  0
  2  1  1  0
  3  2  1  0
  4  3  1  0
  4  5  1  0
  5  6  1  1
  7  5  1  0
  7  8  2  0
  9 10  1  0
 10 20  2  0
 10 11  1  0
 11 12  2  0
 12 13  1  0
 13 14  1  0
 15 14  1  1
 15 16  1  0
 16  7  1  0
 17 15  1  0
 18 17  2  0
 19 13  2  0
 20 19  1  0
 22 21  1  1
 22 24  1  0
 23 22  1  0
 25 24  1  1
 25 26  1  0
 25 27  1  0
 26 17  1  0
 27 28  1  0
 29 27  2  0
M  END
$$$$
