MYL.pdb
     RDKit          3D

 29 29  0  0  1  0  0  0  0  0999 V2000
    7.3337  -11.9657   19.1107 C   0  0  0  0  0  0  0  0  0  0  0  0
    7.1632  -13.4582   18.1357 S   0  0  0  0  0  0  0  0  0  0  0  0
    7.9814  -14.8824   18.8586 C   0  0  0  0  0  0  0  0  0  0  0  0
    8.8777  -14.5085   20.0167 C   0  0  0  0  0  0  0  0  0  0  0  0
    9.4516  -15.6840   20.7230 C   0  0  2  0  0  0  0  0  0  0  0  0
    8.4084  -16.6700   20.9280 N   0  0  0  0  0  0  0  0  0  0  0  0
   10.0761  -15.3622   22.0206 C   0  0  0  0  0  0  0  0  0  0  0  0
   11.1470  -14.6838   22.0602 O   0  0  0  0  0  0  0  0  0  0  0  0
   10.8551  -15.1741   30.9669 O   0  0  0  0  0  0  0  0  0  0  0  0
   10.4463  -15.2432   29.6414 C   0  0  0  0  0  0  0  0  0  0  0  0
   10.3574  -14.1173   28.8455 C   0  0  0  0  0  0  0  0  0  0  0  0
    9.9434  -14.2298   27.5219 C   0  0  0  0  0  0  0  0  0  0  0  0
    9.6168  -15.4432   26.9775 C   0  0  0  0  0  0  0  0  0  0  0  0
    9.1812  -15.5599   25.5983 C   0  0  0  0  0  0  0  0  0  0  0  0
   10.2373  -15.5527   24.5486 C   0  0  2  0  0  0  0  0  0  0  0  0
    9.5585  -15.7643   23.2773 N   0  0  0  0  0  0  0  0  0  0  0  0
   11.2428  -16.5995   24.8141 C   0  0  0  0  0  0  0  0  0  0  0  0
   11.8980  -16.5814   25.8869 O   0  0  0  0  0  0  0  0  0  0  0  0
    9.7060  -16.5641   27.7727 C   0  0  0  0  0  0  0  0  0  0  0  0
   10.1208  -16.4707   29.1073 C   0  0  0  0  0  0  0  0  0  0  0  0
   10.8011  -20.8207   21.4861 C   0  0  0  0  0  0  0  0  0  0  0  0
   10.9016  -20.1599   22.8206 C   0  0  1  0  0  0  0  0  0  0  0  0
   10.2384  -21.1119   23.8245 C   0  0  0  0  0  0  0  0  0  0  0  0
   12.2988  -19.9010   23.3039 C   0  0  0  0  0  0  0  0  0  0  0  0
   12.4490  -18.7432   24.2353 C   0  0  2  0  0  0  0  0  0  0  0  0
   11.5304  -17.6575   23.9144 N   0  0  0  0  0  0  0  0  0  0  0  0
   13.8098  -18.1792   24.3166 C   0  0  0  0  0  0  0  0  0  0  0  0
   14.8854  -18.9478   24.7354 O   0  0  0  0  0  0  0  0  0  0  0  0
   14.0574  -16.9847   24.0120 O   0  0  0  0  0  0  0  0  0  0  0  0
  2  1  1  0
  3  2  1  0
  4  3  1  0
  4  5  1  0
  5  6  1  1
  7  5  1  0
  7  8  2  0
  9 10  1  0
 10 20  2  0
 10 11  1  0
 11 12  2  0
 12 13  1  0
 13 14  1  0
 15 14  1  1
 15 16  1  0
 16  7  1  0
 17 15  1  0
 18 17  2  0
 19 13  2  0
 20 19  1  0
 22 21  1  6
 22 24  1  0
 23 22  1  0
 25 24  1  6
 25 26  1  0
 25 27  1  0
 26 17  1  0
 27 28  1  0
 29 27  2  0
M  END
$$$$
