MYL.pdb
     RDKit          3D

 29 29  0  0  1  0  0  0  0  0999 V2000
    7.4855  -18.0070   29.0211 C   0  0  0  0  0  0  0  0  0  0  0  0
    6.5747  -19.5489   29.0288 S   0  0  0  0  0  0  0  0  0  0  0  0
    6.1794  -20.1546   27.3865 C   0  0  0  0  0  0  0  0  0  0  0  0
    6.9637  -19.4479   26.3050 C   0  0  0  0  0  0  0  0  0  0  0  0
    6.5217  -19.7988   24.9297 C   0  0  2  0  0  0  0  0  0  0  0  0
    6.8038  -21.1997   24.6837 N   0  0  0  0  0  0  0  0  0  0  0  0
    7.1468  -18.9851   23.8693 C   0  0  0  0  0  0  0  0  0  0  0  0
    8.1427  -19.4353   23.2258 O   0  0  0  0  0  0  0  0  0  0  0  0
    8.6393  -11.8015   18.7225 O   0  0  0  0  0  0  0  0  0  0  0  0
    8.1288  -12.7861   19.5586 C   0  0  0  0  0  0  0  0  0  0  0  0
    7.9048  -14.0755   19.1154 C   0  0  0  0  0  0  0  0  0  0  0  0
    7.3922  -15.0327   19.9854 C   0  0  0  0  0  0  0  0  0  0  0  0
    7.0991  -14.7285   21.2881 C   0  0  0  0  0  0  0  0  0  0  0  0
    6.5606  -15.7258   22.1942 C   0  0  0  0  0  0  0  0  0  0  0  0
    7.5067  -16.7485   22.7198 C   0  0  2  0  0  0  0  0  0  0  0  0
    6.7098  -17.6899   23.4947 N   0  0  0  0  0  0  0  0  0  0  0  0
    8.5568  -16.1143   23.5398 C   0  0  0  0  0  0  0  0  0  0  0  0
    9.4570  -15.4324   22.9873 O   0  0  0  0  0  0  0  0  0  0  0  0
    7.3230  -13.4426   21.7276 C   0  0  0  0  0  0  0  0  0  0  0  0
    7.8386  -12.4655   20.8666 C   0  0  0  0  0  0  0  0  0  0  0  0
   10.3898  -13.0504   27.7050 C   0  0  0  0  0  0  0  0  0  0  0  0
   10.0763  -14.4769   28.0125 C   0  0  1  0  0  0  0  0  0  0  0  0
    9.4714  -14.4914   29.4224 C   0  0  0  0  0  0  0  0  0  0  0  0
    9.0852  -15.1280   27.0925 C   0  0  0  0  0  0  0  0  0  0  0  0
    9.6192  -15.5263   25.7559 C   0  0  2  0  0  0  0  0  0  0  0  0
    8.6229  -16.2242   24.9523 N   0  0  0  0  0  0  0  0  0  0  0  0
   10.8379  -16.3569   25.7921 C   0  0  0  0  0  0  0  0  0  0  0  0
   10.7861  -17.6991   26.1366 O   0  0  0  0  0  0  0  0  0  0  0  0
   11.9724  -15.8914   25.5141 O   0  0  0  0  0  0  0  0  0  0  0  0
  2  1  1  0
  3  2  1  0
  4  3  1  0
  4  5  1  0
  5  6  1  6
  7  5  1  0
  7  8  2  0
  9 10  1  0
 10 20  2  0
 10 11  1  0
 11 12  2  0
 12 13  1  0
 13 14  1  0
 15 14  1  1
 15 16  1  0
 16  7  1  0
 17 15  1  0
 18 17  2  0
 19 13  2  0
 20 19  1  0
 22 21  1  6
 22 24  1  0
 23 22  1  0
 25 24  1  1
 25 26  1  0
 25 27  1  0
 26 17  1  0
 27 28  1  0
 29 27  2  0
M  END
$$$$
