WAE.pdb
     RDKit          3D

 29 30  0  0  1  0  0  0  0  0999 V2000
   25.2060  -20.0361   -8.6057 N   0  0  0  0  0  0  0  0  0  0  0  0
   26.3262  -20.3072   -9.5022 C   0  0  1  0  0  0  0  0  0  0  0  0
   27.4390  -20.8264   -8.6389 C   0  0  0  0  0  0  0  0  0  0  0  0
   27.6951  -19.9633   -7.4579 C   0  0  0  0  0  0  0  0  0  0  0  0
   27.4521  -18.6003   -7.3834 C   0  0  0  0  0  0  0  0  0  0  0  0
   27.8231  -18.2160   -6.1498 N   0  0  0  0  0  0  0  0  0  0  0  0
   28.2833  -19.2508   -5.4456 C   0  0  0  0  0  0  0  0  0  0  0  0
   28.7824  -19.3951   -4.1510 C   0  0  0  0  0  0  0  0  0  0  0  0
   29.2030  -20.6116   -3.6582 C   0  0  0  0  0  0  0  0  0  0  0  0
   29.1363  -21.7368   -4.4565 C   0  0  0  0  0  0  0  0  0  0  0  0
   28.6394  -21.5839   -5.7405 C   0  0  0  0  0  0  0  0  0  0  0  0
   28.2158  -20.3665   -6.2412 C   0  0  0  0  0  0  0  0  0  0  0  0
   25.9341  -21.2725  -10.5603 C   0  0  0  0  0  0  0  0  0  0  0  0
   24.8809  -21.9557  -10.4855 O   0  0  0  0  0  0  0  0  0  0  0  0
   27.4884  -21.0999  -14.0264 C   0  0  0  0  0  0  0  0  0  0  0  0
   26.3369  -21.0765  -13.0486 C   0  0  2  0  0  0  0  0  0  0  0  0
   26.7292  -21.4848  -11.7296 N   0  0  0  0  0  0  0  0  0  0  0  0
   25.2085  -21.8845  -13.5816 C   0  0  0  0  0  0  0  0  0  0  0  0
   24.8004  -21.6433  -14.7446 O   0  0  0  0  0  0  0  0  0  0  0  0
   24.5890  -22.9082  -12.8190 N   0  0  0  0  0  0  0  0  0  0  0  0
   23.5286  -23.7555  -13.3791 C   0  0  1  0  0  0  0  0  0  0  0  0
   22.2022  -23.0503  -13.3295 C   0  0  0  0  0  0  0  0  0  0  0  0
   21.0709  -23.7833  -13.9572 C   0  0  0  0  0  0  0  0  0  0  0  0
   19.8343  -22.9756  -13.8378 C   0  0  0  0  0  0  0  0  0  0  0  0
   19.6689  -22.0031  -14.6062 O   0  0  0  0  0  0  0  0  0  0  0  0
   23.9430  -24.2022  -14.7091 C   0  0  0  0  0  0  0  0  0  0  0  0
   23.2241  -24.9070  -15.4553 O   0  0  0  0  0  0  0  0  0  0  0  0
   18.8388  -23.2429  -12.9093 O   0  0  0  0  0  0  0  0  0  0  0  0
   25.1928  -23.8535  -15.2206 O   0  0  0  0  0  0  0  0  0  0  0  0
  2  1  1  1
  2  3  1  0
  2 13  1  0
  3  4  1  0
  4 12  1  0
  5  6  1  0
  5  4  2  0
  6  7  1  0
  7 12  2  0
  7  8  1  0
  8  9  2  0
  9 10  1  0
 11 10  2  0
 12 11  1  0
 13 14  2  0
 16 15  1  6
 17 13  1  0
 17 16  1  0
 18 16  1  0
 18 19  2  0
 20 18  1  0
 21 20  1  0
 21 26  1  0
 21 22  1  6
 23 24  1  0
 23 22  1  0
 24 25  2  0
 26 27  2  0
 26 29  1  0
 28 24  1  0
M  END
$$$$
