WAE.pdb
     RDKit          3D

 29 30  0  0  1  0  0  0  0  0999 V2000
   24.5925  -11.8580  -18.1799 N   0  0  0  0  0  0  0  0  0  0  0  0
   23.3007  -11.6511  -17.5313 C   0  0  1  0  0  0  0  0  0  0  0  0
   23.5564  -11.7226  -16.0539 C   0  0  0  0  0  0  0  0  0  0  0  0
   23.9786  -13.0762  -15.6127 C   0  0  0  0  0  0  0  0  0  0  0  0
   25.1479  -13.3774  -14.9313 C   0  0  0  0  0  0  0  0  0  0  0  0
   25.1374  -14.7065  -14.7297 N   0  0  0  0  0  0  0  0  0  0  0  0
   24.0364  -15.2583  -15.2411 C   0  0  0  0  0  0  0  0  0  0  0  0
   23.5476  -16.5633  -15.3042 C   0  0  0  0  0  0  0  0  0  0  0  0
   22.3473  -16.8687  -15.9090 C   0  0  0  0  0  0  0  0  0  0  0  0
   21.5886  -15.8640  -16.4771 C   0  0  0  0  0  0  0  0  0  0  0  0
   22.0820  -14.5713  -16.4096 C   0  0  0  0  0  0  0  0  0  0  0  0
   23.2853  -14.2580  -15.8045 C   0  0  0  0  0  0  0  0  0  0  0  0
   22.7065  -10.3531  -17.9401 C   0  0  0  0  0  0  0  0  0  0  0  0
   23.3422   -9.2711  -17.8587 O   0  0  0  0  0  0  0  0  0  0  0  0
   19.6412   -9.2295  -19.8469 C   0  0  0  0  0  0  0  0  0  0  0  0
   20.7658   -9.0190  -18.8603 C   0  0  2  0  0  0  0  0  0  0  0  0
   21.3750  -10.2529  -18.4519 N   0  0  0  0  0  0  0  0  0  0  0  0
   20.2792   -8.2166  -17.7072 C   0  0  0  0  0  0  0  0  0  0  0  0
   19.8825   -8.8257  -16.6830 O   0  0  0  0  0  0  0  0  0  0  0  0
   20.2521   -6.7982  -17.7345 N   0  0  0  0  0  0  0  0  0  0  0  0
   19.7741   -6.0119  -16.5903 C   0  0  1  0  0  0  0  0  0  0  0  0
   20.0284   -4.5467  -16.8084 C   0  0  0  0  0  0  0  0  0  0  0  0
   18.9827   -3.8308  -17.5864 C   0  0  0  0  0  0  0  0  0  0  0  0
   19.2916   -2.3818  -17.6093 C   0  0  0  0  0  0  0  0  0  0  0  0
   20.3523   -1.9796  -17.0831 O   0  0  0  0  0  0  0  0  0  0  0  0
   18.3785   -6.3663  -16.3318 C   0  0  0  0  0  0  0  0  0  0  0  0
   17.5968   -6.7825  -17.2183 O   0  0  0  0  0  0  0  0  0  0  0  0
   18.4585   -1.4364  -18.1895 O   0  0  0  0  0  0  0  0  0  0  0  0
   17.8404   -6.2535  -15.0500 O   0  0  0  0  0  0  0  0  0  0  0  0
  2  1  1  6
  2  3  1  0
  2 13  1  0
  3  4  1  0
  4 12  1  0
  5  6  1  0
  5  4  2  0
  6  7  1  0
  7 12  2  0
  7  8  1  0
  8  9  2  0
  9 10  1  0
 11 10  2  0
 12 11  1  0
 13 14  2  0
 16 15  1  6
 17 13  1  0
 17 16  1  0
 18 16  1  0
 18 19  2  0
 20 18  1  0
 21 20  1  0
 21 26  1  0
 21 22  1  6
 23 24  1  0
 23 22  1  0
 24 25  2  0
 26 27  2  0
 26 29  1  0
 28 24  1  0
M  END
$$$$
