WAE.pdb
     RDKit          3D

 29 30  0  0  1  0  0  0  0  0999 V2000
   36.9542  -24.6429    5.2921 N   0  0  0  0  0  0  0  0  0  0  0  0
   36.1603  -24.0590    6.3695 C   0  0  1  0  0  0  0  0  0  0  0  0
   34.7881  -24.6560    6.2511 C   0  0  0  0  0  0  0  0  0  0  0  0
   33.9935  -24.0471    5.1543 C   0  0  0  0  0  0  0  0  0  0  0  0
   33.7949  -24.5968    3.8971 C   0  0  0  0  0  0  0  0  0  0  0  0
   33.0241  -23.7275    3.2208 N   0  0  0  0  0  0  0  0  0  0  0  0
   32.7265  -22.6676    3.9734 C   0  0  0  0  0  0  0  0  0  0  0  0
   31.9805  -21.5082    3.7606 C   0  0  0  0  0  0  0  0  0  0  0  0
   31.8287  -20.5445    4.7341 C   0  0  0  0  0  0  0  0  0  0  0  0
   32.4268  -20.7132    5.9676 C   0  0  0  0  0  0  0  0  0  0  0  0
   33.1656  -21.8674    6.1698 C   0  0  0  0  0  0  0  0  0  0  0  0
   33.3220  -22.8383    5.1975 C   0  0  0  0  0  0  0  0  0  0  0  0
   36.7825  -24.3295    7.6903 C   0  0  0  0  0  0  0  0  0  0  0  0
   37.1902  -25.4737    8.0160 O   0  0  0  0  0  0  0  0  0  0  0  0
   37.7899  -22.2647   10.7283 C   0  0  0  0  0  0  0  0  0  0  0  0
   37.4628  -23.5448    9.9955 C   0  0  2  0  0  0  0  0  0  0  0  0
   36.9571  -23.3060    8.6736 N   0  0  0  0  0  0  0  0  0  0  0  0
   36.5394  -24.3719   10.8163 C   0  0  0  0  0  0  0  0  0  0  0  0
   35.3033  -24.1923   10.6854 O   0  0  0  0  0  0  0  0  0  0  0  0
   37.0136  -25.3464   11.7321 N   0  0  0  0  0  0  0  0  0  0  0  0
   36.1155  -26.3334   12.3447 C   0  0  1  0  0  0  0  0  0  0  0  0
   35.7205  -27.3852   11.3463 C   0  0  0  0  0  0  0  0  0  0  0  0
   34.3792  -27.2028   10.7309 C   0  0  0  0  0  0  0  0  0  0  0  0
   34.1028  -28.3301    9.8097 C   0  0  0  0  0  0  0  0  0  0  0  0
   35.0308  -28.7735    9.0987 O   0  0  0  0  0  0  0  0  0  0  0  0
   36.7444  -26.8420   13.5637 C   0  0  0  0  0  0  0  0  0  0  0  0
   37.9836  -26.9689   13.6996 O   0  0  0  0  0  0  0  0  0  0  0  0
   32.8560  -28.9270    9.6921 O   0  0  0  0  0  0  0  0  0  0  0  0
   35.9702  -27.2193   14.6608 O   0  0  0  0  0  0  0  0  0  0  0  0
  2  1  1  6
  2  3  1  0
  2 13  1  0
  3  4  1  0
  4 12  1  0
  5  6  1  0
  5  4  2  0
  6  7  1  0
  7 12  2  0
  7  8  1  0
  8  9  2  0
  9 10  1  0
 11 10  2  0
 12 11  1  0
 13 14  2  0
 16 15  1  1
 17 13  1  0
 17 16  1  0
 18 16  1  0
 18 19  2  0
 20 18  1  0
 21 20  1  0
 21 26  1  0
 21 22  1  6
 23 24  1  0
 23 22  1  0
 24 25  2  0
 26 27  2  0
 26 29  1  0
 28 24  1  0
M  END
$$$$
