WAE.pdb
     RDKit          3D

 29 30  0  0  1  0  0  0  0  0999 V2000
   28.5566  -20.2104  -16.1434 N   0  0  0  0  0  0  0  0  0  0  0  0
   27.6014  -19.5945  -15.2266 C   0  0  1  0  0  0  0  0  0  0  0  0
   26.5157  -19.0090  -16.0820 C   0  0  0  0  0  0  0  0  0  0  0  0
   26.9496  -17.7792  -16.7923 C   0  0  0  0  0  0  0  0  0  0  0  0
   27.1238  -17.6544  -18.1621 C   0  0  0  0  0  0  0  0  0  0  0  0
   27.5198  -16.3883  -18.3799 N   0  0  0  0  0  0  0  0  0  0  0  0
   27.6052  -15.7110  -17.2343 C   0  0  0  0  0  0  0  0  0  0  0  0
   27.9606  -14.4021  -16.9081 C   0  0  0  0  0  0  0  0  0  0  0  0
   27.9661  -13.9458  -15.6076 C   0  0  0  0  0  0  0  0  0  0  0  0
   27.6112  -14.7967  -14.5791 C   0  0  0  0  0  0  0  0  0  0  0  0
   27.2599  -16.0945  -14.9126 C   0  0  0  0  0  0  0  0  0  0  0  0
   27.2523  -16.5588  -16.2151 C   0  0  0  0  0  0  0  0  0  0  0  0
   27.0815  -20.5919  -14.2571 C   0  0  0  0  0  0  0  0  0  0  0  0
   27.6540  -21.6940  -14.0592 O   0  0  0  0  0  0  0  0  0  0  0  0
   26.4565  -21.2704  -11.2837 C   0  0  0  0  0  0  0  0  0  0  0  0
   25.4608  -21.2122  -12.4184 C   0  0  2  0  0  0  0  0  0  0  0  0
   25.8980  -20.3612  -13.4885 N   0  0  0  0  0  0  0  0  0  0  0  0
   24.1241  -20.8254  -11.8948 C   0  0  0  0  0  0  0  0  0  0  0  0
   24.0061  -19.7105  -11.3288 O   0  0  0  0  0  0  0  0  0  0  0  0
   22.9931  -21.6734  -12.0168 N   0  0  0  0  0  0  0  0  0  0  0  0
   21.7787  -21.2460  -12.7228 C   0  0  1  0  0  0  0  0  0  0  0  0
   22.1090  -20.7717  -14.1103 C   0  0  0  0  0  0  0  0  0  0  0  0
   20.9375  -20.4154  -14.9539 C   0  0  0  0  0  0  0  0  0  0  0  0
   20.5410  -19.0143  -14.6796 C   0  0  0  0  0  0  0  0  0  0  0  0
   21.0903  -18.0921  -15.3210 O   0  0  0  0  0  0  0  0  0  0  0  0
   20.7958  -22.3274  -12.6558 C   0  0  0  0  0  0  0  0  0  0  0  0
   21.0445  -23.5078  -12.9949 O   0  0  0  0  0  0  0  0  0  0  0  0
   19.5827  -18.6661  -13.7390 O   0  0  0  0  0  0  0  0  0  0  0  0
   19.5006  -22.0856  -12.1982 O   0  0  0  0  0  0  0  0  0  0  0  0
  2  1  1  6
  2  3  1  0
  2 13  1  0
  3  4  1  0
  4 12  1  0
  5  6  1  0
  5  4  2  0
  6  7  1  0
  7 12  2  0
  7  8  1  0
  8  9  2  0
  9 10  1  0
 11 10  2  0
 12 11  1  0
 13 14  2  0
 16 15  1  1
 17 13  1  0
 17 16  1  0
 18 16  1  0
 18 19  2  0
 20 18  1  0
 21 20  1  0
 21 26  1  0
 21 22  1  6
 23 24  1  0
 23 22  1  0
 24 25  2  0
 26 27  2  0
 26 29  1  0
 28 24  1  0
M  END
$$$$
