WAE.pdb
     RDKit          3D

 29 30  0  0  1  0  0  0  0  0999 V2000
  -16.0164  -34.3990    3.3524 N   0  0  0  0  0  0  0  0  0  0  0  0
  -16.7085  -35.2036    2.3495 C   0  0  1  0  0  0  0  0  0  0  0  0
  -16.2442  -36.6167    2.5514 C   0  0  0  0  0  0  0  0  0  0  0  0
  -14.8276  -36.8146    2.1523 C   0  0  0  0  0  0  0  0  0  0  0  0
  -14.3635  -36.9448    0.8524 C   0  0  0  0  0  0  0  0  0  0  0  0
  -13.0317  -37.1057    0.9398 N   0  0  0  0  0  0  0  0  0  0  0  0
  -12.6307  -37.0848    2.2114 C   0  0  0  0  0  0  0  0  0  0  0  0
  -11.3897  -37.2057    2.8370 C   0  0  0  0  0  0  0  0  0  0  0  0
  -11.2500  -37.1477    4.2070 C   0  0  0  0  0  0  0  0  0  0  0  0
  -12.3628  -36.9644    5.0043 C   0  0  0  0  0  0  0  0  0  0  0  0
  -13.5908  -36.8455    4.3743 C   0  0  0  0  0  0  0  0  0  0  0  0
  -13.7381  -36.9028    3.0005 C   0  0  0  0  0  0  0  0  0  0  0  0
  -18.1807  -35.0671    2.4869 C   0  0  0  0  0  0  0  0  0  0  0  0
  -18.9651  -36.0242    2.2632 O   0  0  0  0  0  0  0  0  0  0  0  0
  -20.3307  -34.9305    4.4503 C   0  0  0  0  0  0  0  0  0  0  0  0
  -20.0755  -33.7588    3.5313 C   0  0  2  0  0  0  0  0  0  0  0  0
  -18.7977  -33.8392    2.8823 N   0  0  0  0  0  0  0  0  0  0  0  0
  -20.2543  -32.4859    4.2783 C   0  0  0  0  0  0  0  0  0  0  0  0
  -19.2289  -31.8827    4.6810 O   0  0  0  0  0  0  0  0  0  0  0  0
  -21.5377  -31.9424    4.5442 N   0  0  0  0  0  0  0  0  0  0  0  0
  -21.9673  -30.6593    3.9741 C   0  0  1  0  0  0  0  0  0  0  0  0
  -22.0320  -29.5995    5.0379 C   0  0  0  0  0  0  0  0  0  0  0  0
  -20.8532  -29.5363    5.9420 C   0  0  0  0  0  0  0  0  0  0  0  0
  -19.9620  -28.4329    5.5128 C   0  0  0  0  0  0  0  0  0  0  0  0
  -18.7329  -28.6454    5.4257 O   0  0  0  0  0  0  0  0  0  0  0  0
  -21.1040  -30.3426    2.8363 C   0  0  0  0  0  0  0  0  0  0  0  0
  -21.4584  -30.4795    1.6422 O   0  0  0  0  0  0  0  0  0  0  0  0
  -20.4227  -27.1626    5.1987 O   0  0  0  0  0  0  0  0  0  0  0  0
  -19.8107  -29.8602    3.0359 O   0  0  0  0  0  0  0  0  0  0  0  0
  2  1  1  1
  2  3  1  0
  2 13  1  0
  3  4  1  0
  4 12  1  0
  5  6  1  0
  5  4  2  0
  6  7  1  0
  7 12  2  0
  7  8  1  0
  8  9  2  0
  9 10  1  0
 11 10  2  0
 12 11  1  0
 13 14  2  0
 16 15  1  1
 17 13  1  0
 17 16  1  0
 18 16  1  0
 18 19  2  0
 20 18  1  0
 21 20  1  0
 21 26  1  0
 21 22  1  1
 23 24  1  0
 23 22  1  0
 24 25  2  0
 26 27  2  0
 26 29  1  0
 28 24  1  0
M  END
$$$$
