WAE.pdb
     RDKit          3D

 29 30  0  0  1  0  0  0  0  0999 V2000
   25.1079  -19.9644  -13.7266 N   0  0  0  0  0  0  0  0  0  0  0  0
   25.2399  -21.3563  -13.3053 C   0  0  1  0  0  0  0  0  0  0  0  0
   25.9910  -21.3324  -12.0059 C   0  0  0  0  0  0  0  0  0  0  0  0
   27.3156  -20.6715  -12.1246 C   0  0  0  0  0  0  0  0  0  0  0  0
   27.6034  -19.5719  -12.9185 C   0  0  0  0  0  0  0  0  0  0  0  0
   28.9068  -19.3005  -12.7320 N   0  0  0  0  0  0  0  0  0  0  0  0
   29.4549  -20.1596  -11.8718 C   0  0  0  0  0  0  0  0  0  0  0  0
   30.7379  -20.3184  -11.3477 C   0  0  0  0  0  0  0  0  0  0  0  0
   31.0452  -21.3184  -10.4503 C   0  0  0  0  0  0  0  0  0  0  0  0
   30.0649  -22.2025  -10.0441 C   0  0  0  0  0  0  0  0  0  0  0  0
   28.7940  -22.0371  -10.5698 C   0  0  0  0  0  0  0  0  0  0  0  0
   28.4789  -21.0362  -11.4704 C   0  0  0  0  0  0  0  0  0  0  0  0
   23.9068  -21.9975  -13.1760 C   0  0  0  0  0  0  0  0  0  0  0  0
   23.7654  -23.1610  -12.7202 O   0  0  0  0  0  0  0  0  0  0  0  0
   22.7521  -19.2502  -12.2718 C   0  0  0  0  0  0  0  0  0  0  0  0
   21.9561  -20.4621  -12.6964 C   0  0  2  0  0  0  0  0  0  0  0  0
   22.7013  -21.3319  -13.5615 N   0  0  0  0  0  0  0  0  0  0  0  0
   20.6666  -20.0310  -13.2977 C   0  0  0  0  0  0  0  0  0  0  0  0
   19.9227  -19.2709  -12.6298 O   0  0  0  0  0  0  0  0  0  0  0  0
   20.2605  -20.4515  -14.5906 N   0  0  0  0  0  0  0  0  0  0  0  0
   20.3236  -19.5540  -15.7509 C   0  0  1  0  0  0  0  0  0  0  0  0
   21.6054  -18.7691  -15.7474 C   0  0  0  0  0  0  0  0  0  0  0  0
   21.8121  -17.8878  -16.9271 C   0  0  0  0  0  0  0  0  0  0  0  0
   23.2646  -17.7180  -17.1662 C   0  0  0  0  0  0  0  0  0  0  0  0
   24.0501  -18.6145  -16.7884 O   0  0  0  0  0  0  0  0  0  0  0  0
   20.0819  -20.3394  -16.9612 C   0  0  0  0  0  0  0  0  0  0  0  0
   20.3881  -21.5496  -17.0710 O   0  0  0  0  0  0  0  0  0  0  0  0
   23.8064  -16.6057  -17.7937 O   0  0  0  0  0  0  0  0  0  0  0  0
   19.4825  -19.7595  -18.0790 O   0  0  0  0  0  0  0  0  0  0  0  0
  2  1  1  1
  2  3  1  0
  2 13  1  0
  3  4  1  0
  4 12  1  0
  5  6  1  0
  5  4  2  0
  6  7  1  0
  7 12  2  0
  7  8  1  0
  8  9  2  0
  9 10  1  0
 11 10  2  0
 12 11  1  0
 13 14  2  0
 16 15  1  6
 17 13  1  0
 17 16  1  0
 18 16  1  0
 18 19  2  0
 20 18  1  0
 21 20  1  0
 21 26  1  0
 21 22  1  6
 23 24  1  0
 23 22  1  0
 24 25  2  0
 26 27  2  0
 26 29  1  0
 28 24  1  0
M  END
$$$$
