SMY.pdb
     RDKit          3D

 27 27  0  0  1  0  0  0  0  0999 V2000
   14.9503   -9.3055  -14.0865 O   0  0  0  0  0  0  0  0  0  0  0  0
   15.5598   -9.5579  -15.2917 C   0  0  0  0  0  0  0  0  0  0  0  0
   16.3992  -10.8054  -15.3023 C   0  0  2  0  0  0  0  0  0  0  0  0
   16.0051  -11.7657  -14.3235 N   0  0  0  0  0  0  0  0  0  0  0  0
   17.8143  -10.4034  -15.0546 C   0  0  0  0  0  0  0  0  0  0  0  0
   18.4649  -11.1534  -14.2841 O   0  0  0  0  0  0  0  0  0  0  0  0
   24.6324   -9.9101  -14.7847 C   0  0  0  0  0  0  0  0  0  0  0  0
   22.9484  -10.4803  -15.1146 S   0  0  0  0  0  0  0  0  0  0  0  0
   22.0841   -9.3078  -16.2443 C   0  0  0  0  0  0  0  0  0  0  0  0
   20.6752   -9.8309  -16.3998 C   0  0  0  0  0  0  0  0  0  0  0  0
   19.7429   -8.8783  -15.6837 C   0  0  2  0  0  0  0  0  0  0  0  0
   18.3719   -9.2652  -15.6451 N   0  0  0  0  0  0  0  0  0  0  0  0
   19.9669   -7.4609  -15.9279 C   0  0  0  0  0  0  0  0  0  0  0  0
   19.4739   -6.9288  -16.9890 O   0  0  0  0  0  0  0  0  0  0  0  0
   21.8945    1.0978  -14.8752 O   0  0  0  0  0  0  0  0  0  0  0  0
   21.6870   -0.2565  -14.6790 C   0  0  0  0  0  0  0  0  0  0  0  0
   22.7134   -1.1530  -14.8733 C   0  0  0  0  0  0  0  0  0  0  0  0
   22.5141   -2.5023  -14.6797 C   0  0  0  0  0  0  0  0  0  0  0  0
   21.2832   -3.0325  -14.2826 C   0  0  0  0  0  0  0  0  0  0  0  0
   21.1126   -4.4878  -14.0957 C   0  0  0  0  0  0  0  0  0  0  0  0
   20.8945   -5.2352  -15.3946 C   0  0  2  0  0  0  0  0  0  0  0  0
   20.7045   -6.6438  -15.0446 N   0  0  0  0  0  0  0  0  0  0  0  0
   21.9753   -5.0551  -16.3603 C   0  0  0  0  0  0  0  0  0  0  0  0
   21.8014   -4.1785  -17.4196 O   0  0  0  0  0  0  0  0  0  0  0  0
   20.2629   -2.1157  -14.0920 C   0  0  0  0  0  0  0  0  0  0  0  0
   20.4661   -0.7660  -14.2866 C   0  0  0  0  0  0  0  0  0  0  0  0
   23.0807   -5.6522  -16.3007 O   0  0  0  0  0  0  0  0  0  0  0  0
  2  1  1  0
  3  2  1  0
  3  4  1  1
  5  6  2  0
  5  3  1  0
  7  8  1  0
  8  9  1  0
  9 10  1  0
 11 10  1  6
 11 12  1  0
 12  5  1  0
 13 14  2  0
 13 11  1  0
 16 15  1  0
 17 16  2  0
 18 17  1  0
 19 18  2  0
 19 25  1  0
 20 19  1  0
 21 20  1  1
 21 22  1  0
 22 13  1  0
 23 21  1  0
 24 23  1  0
 25 26  2  0
 26 16  1  0
 27 23  2  0
M  END
$$$$
