SMY.pdb
     RDKit          3D

 27 27  0  0  1  0  0  0  0  0999 V2000
   30.7161  -22.0829  -19.4689 O   0  0  0  0  0  0  0  0  0  0  0  0
   29.8043  -21.2785  -18.8292 C   0  0  0  0  0  0  0  0  0  0  0  0
   29.2080  -20.2130  -19.7068 C   0  0  2  0  0  0  0  0  0  0  0  0
   30.1785  -19.3399  -20.2825 N   0  0  0  0  0  0  0  0  0  0  0  0
   28.2615  -19.4152  -18.8741 C   0  0  0  0  0  0  0  0  0  0  0  0
   28.6697  -18.2785  -18.5265 O   0  0  0  0  0  0  0  0  0  0  0  0
   23.9966  -15.3358  -19.0656 C   0  0  0  0  0  0  0  0  0  0  0  0
   24.6726  -16.2935  -20.4424 S   0  0  0  0  0  0  0  0  0  0  0  0
   25.1592  -17.9781  -19.8739 C   0  0  0  0  0  0  0  0  0  0  0  0
   25.6513  -17.8200  -18.4542 C   0  0  0  0  0  0  0  0  0  0  0  0
   25.9276  -19.2007  -17.9005 C   0  0  2  0  0  0  0  0  0  0  0  0
   27.0049  -19.9078  -18.5090 N   0  0  0  0  0  0  0  0  0  0  0  0
   24.7586  -20.0152  -17.6024 C   0  0  0  0  0  0  0  0  0  0  0  0
   24.3774  -20.8912  -18.4621 O   0  0  0  0  0  0  0  0  0  0  0  0
   17.7122  -23.5181  -13.5066 O   0  0  0  0  0  0  0  0  0  0  0  0
   18.8726  -22.8266  -13.8085 C   0  0  0  0  0  0  0  0  0  0  0  0
   18.8253  -21.4825  -14.1012 C   0  0  0  0  0  0  0  0  0  0  0  0
   19.9762  -20.7878  -14.4024 C   0  0  0  0  0  0  0  0  0  0  0  0
   21.2360  -21.3929  -14.4288 C   0  0  0  0  0  0  0  0  0  0  0  0
   22.4427  -20.6107  -14.7660 C   0  0  0  0  0  0  0  0  0  0  0  0
   22.8262  -20.7050  -16.2281 C   0  0  2  0  0  0  0  0  0  0  0  0
   24.0246  -19.8830  -16.4042 N   0  0  0  0  0  0  0  0  0  0  0  0
   21.7556  -20.3090  -17.1391 C   0  0  0  0  0  0  0  0  0  0  0  0
   20.9427  -21.2831  -17.6970 O   0  0  0  0  0  0  0  0  0  0  0  0
   21.2638  -22.7453  -14.1318 C   0  0  0  0  0  0  0  0  0  0  0  0
   20.1099  -23.4371  -13.8307 C   0  0  0  0  0  0  0  0  0  0  0  0
   21.5104  -19.1189  -17.4639 O   0  0  0  0  0  0  0  0  0  0  0  0
  2  1  1  0
  3  2  1  0
  3  4  1  1
  5  6  2  0
  5  3  1  0
  7  8  1  0
  8  9  1  0
  9 10  1  0
 11 10  1  6
 11 12  1  0
 12  5  1  0
 13 14  2  0
 13 11  1  0
 16 15  1  0
 17 16  2  0
 18 17  1  0
 19 18  2  0
 19 25  1  0
 20 19  1  0
 21 20  1  1
 21 22  1  0
 22 13  1  0
 23 21  1  0
 24 23  1  0
 25 26  2  0
 26 16  1  0
 27 23  2  0
M  END
$$$$
