SMY.pdb
     RDKit          3D

 27 27  0  0  1  0  0  0  0  0999 V2000
   26.6276  -16.7268  -15.6288 O   0  0  0  0  0  0  0  0  0  0  0  0
   27.8848  -17.0193  -16.0994 C   0  0  0  0  0  0  0  0  0  0  0  0
   27.8897  -17.8375  -17.3610 C   0  0  2  0  0  0  0  0  0  0  0  0
   27.2314  -17.2014  -18.4553 N   0  0  0  0  0  0  0  0  0  0  0  0
   27.2118  -19.1331  -17.0653 C   0  0  0  0  0  0  0  0  0  0  0  0
   26.0035  -19.2032  -17.4037 O   0  0  0  0  0  0  0  0  0  0  0  0
   31.1792  -24.5316  -18.2597 C   0  0  0  0  0  0  0  0  0  0  0  0
   30.2805  -24.1276  -16.7434 S   0  0  0  0  0  0  0  0  0  0  0  0
   29.1530  -22.6973  -17.0279 C   0  0  0  0  0  0  0  0  0  0  0  0
   28.3381  -22.5431  -15.7650 C   0  0  0  0  0  0  0  0  0  0  0  0
   27.3408  -21.4272  -15.9876 C   0  0  2  0  0  0  0  0  0  0  0  0
   27.8843  -20.1943  -16.4515 N   0  0  0  0  0  0  0  0  0  0  0  0
   26.2997  -21.2904  -14.9795 C   0  0  0  0  0  0  0  0  0  0  0  0
   26.5230  -20.5486  -13.9539 O   0  0  0  0  0  0  0  0  0  0  0  0
   19.6025  -18.9178  -10.3396 O   0  0  0  0  0  0  0  0  0  0  0  0
   20.6452  -19.2391  -11.1913 C   0  0  0  0  0  0  0  0  0  0  0  0
   20.4114  -19.4393  -12.5328 C   0  0  0  0  0  0  0  0  0  0  0  0
   21.4444  -19.7592  -13.3863 C   0  0  0  0  0  0  0  0  0  0  0  0
   22.7655  -19.8973  -12.9512 C   0  0  0  0  0  0  0  0  0  0  0  0
   23.8405  -20.2505  -13.9006 C   0  0  0  0  0  0  0  0  0  0  0  0
   24.0739  -21.7429  -14.0102 C   0  0  2  0  0  0  0  0  0  0  0  0
   25.0509  -21.9398  -15.0823 N   0  0  0  0  0  0  0  0  0  0  0  0
   22.8520  -22.5094  -14.2394 C   0  0  0  0  0  0  0  0  0  0  0  0
   22.1642  -23.0322  -13.1557 O   0  0  0  0  0  0  0  0  0  0  0  0
   22.9814  -19.6923  -11.5986 C   0  0  0  0  0  0  0  0  0  0  0  0
   21.9451  -19.3721  -10.7476 C   0  0  0  0  0  0  0  0  0  0  0  0
   22.3652  -22.7368  -15.3766 O   0  0  0  0  0  0  0  0  0  0  0  0
  2  1  1  0
  3  2  1  0
  3  4  1  6
  5  6  2  0
  5  3  1  0
  7  8  1  0
  8  9  1  0
  9 10  1  0
 11 10  1  1
 11 12  1  0
 12  5  1  0
 13 14  2  0
 13 11  1  0
 16 15  1  0
 17 16  2  0
 18 17  1  0
 19 18  2  0
 19 25  1  0
 20 19  1  0
 21 20  1  6
 21 22  1  0
 22 13  1  0
 23 21  1  0
 24 23  1  0
 25 26  2  0
 26 16  1  0
 27 23  2  0
M  END
$$$$
