SMY.pdb
     RDKit          3D

 27 27  0  0  1  0  0  0  0  0999 V2000
   31.4746   -7.7167  -17.8640 O   0  0  0  0  0  0  0  0  0  0  0  0
   30.1972   -8.2213  -17.8292 C   0  0  0  0  0  0  0  0  0  0  0  0
   30.0632   -9.5878  -18.4421 C   0  0  2  0  0  0  0  0  0  0  0  0
   30.3515   -9.6164  -19.8391 N   0  0  0  0  0  0  0  0  0  0  0  0
   28.6626  -10.0506  -18.2196 C   0  0  0  0  0  0  0  0  0  0  0  0
   27.8389   -9.7389  -19.1161 O   0  0  0  0  0  0  0  0  0  0  0  0
   23.9654  -15.5595  -15.4085 C   0  0  0  0  0  0  0  0  0  0  0  0
   25.6098  -14.8110  -15.3350 S   0  0  0  0  0  0  0  0  0  0  0  0
   25.5522  -13.0745  -15.9508 C   0  0  0  0  0  0  0  0  0  0  0  0
   26.9839  -12.5942  -15.9974 C   0  0  0  0  0  0  0  0  0  0  0  0
   27.0079  -11.2718  -16.7323 C   0  0  2  0  0  0  0  0  0  0  0  0
   28.2990  -10.7825  -17.0849 N   0  0  0  0  0  0  0  0  0  0  0  0
   26.0851  -10.2554  -16.2485 C   0  0  0  0  0  0  0  0  0  0  0  0
   26.5220   -9.3535  -15.4437 O   0  0  0  0  0  0  0  0  0  0  0  0
   21.3870   -3.1685  -15.9689 O   0  0  0  0  0  0  0  0  0  0  0  0
   22.1682   -4.3000  -16.1281 C   0  0  0  0  0  0  0  0  0  0  0  0
   22.1917   -4.9654  -17.3328 C   0  0  0  0  0  0  0  0  0  0  0  0
   22.9669   -6.0922  -17.4985 C   0  0  0  0  0  0  0  0  0  0  0  0
   23.7604   -6.6176  -16.4746 C   0  0  0  0  0  0  0  0  0  0  0  0
   24.5692   -7.8338  -16.6943 C   0  0  0  0  0  0  0  0  0  0  0  0
   23.9074   -9.0931  -16.1749 C   0  0  2  0  0  0  0  0  0  0  0  0
   24.7263  -10.2184  -16.6284 N   0  0  0  0  0  0  0  0  0  0  0  0
   22.5134   -9.2328  -16.5877 C   0  0  0  0  0  0  0  0  0  0  0  0
   21.5102   -8.7267  -15.7764 O   0  0  0  0  0  0  0  0  0  0  0  0
   23.7239   -5.9349  -15.2702 C   0  0  0  0  0  0  0  0  0  0  0  0
   22.9469   -4.8076  -15.1082 C   0  0  0  0  0  0  0  0  0  0  0  0
   22.1462   -9.7932  -17.6521 O   0  0  0  0  0  0  0  0  0  0  0  0
  2  1  1  0
  3  2  1  0
  3  4  1  6
  5  6  2  0
  5  3  1  0
  7  8  1  0
  8  9  1  0
  9 10  1  0
 11 10  1  1
 11 12  1  0
 12  5  1  0
 13 14  2  0
 13 11  1  0
 16 15  1  0
 17 16  2  0
 18 17  1  0
 19 18  2  0
 19 25  1  0
 20 19  1  0
 21 20  1  6
 21 22  1  0
 22 13  1  0
 23 21  1  0
 24 23  1  0
 25 26  2  0
 26 16  1  0
 27 23  2  0
M  END
$$$$
