SMY.pdb
     RDKit          3D

 27 27  0  0  1  0  0  0  0  0999 V2000
   18.2445   -7.6484  -21.4469 O   0  0  0  0  0  0  0  0  0  0  0  0
   18.4680   -8.0481  -20.1515 C   0  0  0  0  0  0  0  0  0  0  0  0
   19.3706   -9.2444  -20.0285 C   0  0  2  0  0  0  0  0  0  0  0  0
   18.7071  -10.4854  -20.2636 N   0  0  0  0  0  0  0  0  0  0  0  0
   19.9396   -9.2447  -18.6494 C   0  0  0  0  0  0  0  0  0  0  0  0
   19.1808   -9.6839  -17.7491 O   0  0  0  0  0  0  0  0  0  0  0  0
   26.4182  -10.0302  -14.3351 C   0  0  0  0  0  0  0  0  0  0  0  0
   25.7061   -9.7241  -15.9689 S   0  0  0  0  0  0  0  0  0  0  0  0
   23.9395   -9.2209  -15.8145 C   0  0  0  0  0  0  0  0  0  0  0  0
   23.4151   -9.0790  -17.2244 C   0  0  0  0  0  0  0  0  0  0  0  0
   21.9315   -8.7931  -17.1429 C   0  0  2  0  0  0  0  0  0  0  0  0
   21.2333   -8.7846  -18.3851 N   0  0  0  0  0  0  0  0  0  0  0  0
   21.5331   -7.7444  -16.2155 C   0  0  0  0  0  0  0  0  0  0  0  0
   21.6057   -6.5190  -16.5965 O   0  0  0  0  0  0  0  0  0  0  0  0
   17.3401   -3.5198   -9.6770 O   0  0  0  0  0  0  0  0  0  0  0  0
   17.8404   -4.4547  -10.5667 C   0  0  0  0  0  0  0  0  0  0  0  0
   18.5480   -5.5426  -10.1081 C   0  0  0  0  0  0  0  0  0  0  0  0
   19.0488   -6.4771  -10.9877 C   0  0  0  0  0  0  0  0  0  0  0  0
   18.8726   -6.3796  -12.3710 C   0  0  0  0  0  0  0  0  0  0  0  0
   19.4351   -7.4008  -13.2779 C   0  0  0  0  0  0  0  0  0  0  0  0
   20.6137   -6.8982  -14.0854 C   0  0  2  0  0  0  0  0  0  0  0  0
   21.0679   -8.0181  -14.9114 N   0  0  0  0  0  0  0  0  0  0  0  0
   21.6928   -6.3533  -13.2659 C   0  0  0  0  0  0  0  0  0  0  0  0
   22.6685   -7.2051  -12.7727 O   0  0  0  0  0  0  0  0  0  0  0  0
   18.1583   -5.2788  -12.8137 C   0  0  0  0  0  0  0  0  0  0  0  0
   17.6586   -4.3457  -11.9302 C   0  0  0  0  0  0  0  0  0  0  0  0
   21.8052   -5.1369  -12.9663 O   0  0  0  0  0  0  0  0  0  0  0  0
  2  1  1  0
  3  2  1  0
  3  4  1  1
  5  6  2  0
  5  3  1  0
  7  8  1  0
  8  9  1  0
  9 10  1  0
 11 10  1  6
 11 12  1  0
 12  5  1  0
 13 14  2  0
 13 11  1  0
 16 15  1  0
 17 16  2  0
 18 17  1  0
 19 18  2  0
 19 25  1  0
 20 19  1  0
 21 20  1  1
 21 22  1  0
 22 13  1  0
 23 21  1  0
 24 23  1  0
 25 26  2  0
 26 16  1  0
 27 23  2  0
M  END
$$$$
