MAT.pdb
     RDKit          3D

 21 20  0  0  1  0  0  0  0  0999 V2000
   25.0650  -21.9350  -20.2837 C   0  0  0  0  0  0  0  0  0  0  0  0
   25.8910  -20.3679  -20.3974 S   0  0  0  0  0  0  0  0  0  0  0  0
   26.0300  -19.4091  -18.9098 C   0  0  0  0  0  0  0  0  0  0  0  0
   24.8402  -19.3941  -17.9990 C   0  0  0  0  0  0  0  0  0  0  0  0
   25.0475  -18.5080  -16.8292 C   0  0  2  0  0  0  0  0  0  0  0  0
   26.1992  -18.9460  -16.0667 N   0  0  0  0  0  0  0  0  0  0  0  0
   23.8248  -18.4747  -15.9383 C   0  0  0  0  0  0  0  0  0  0  0  0
   23.7712  -19.2737  -14.9692 O   0  0  0  0  0  0  0  0  0  0  0  0
   20.8360  -16.2220  -15.5547 C   0  0  0  0  0  0  0  0  0  0  0  0
   21.6314  -17.5051  -15.3516 C   0  0  2  0  0  0  0  0  0  0  0  0
   22.7796  -17.5576  -16.2091 N   0  0  0  0  0  0  0  0  0  0  0  0
   20.7466  -18.6968  -15.5322 C   0  0  0  0  0  0  0  0  0  0  0  0
   20.6612  -19.2183  -16.6600 O   0  0  0  0  0  0  0  0  0  0  0  0
   19.4271  -20.7412  -12.0811 C   0  0  0  0  0  0  0  0  0  0  0  0
   19.6046  -21.3342  -13.4452 C   0  0  1  0  0  0  0  0  0  0  0  0
   18.8107  -22.4783  -13.5864 O   0  0  0  0  0  0  0  0  0  0  0  0
   19.1455  -20.3841  -14.5546 C   0  0  2  0  0  0  0  0  0  0  0  0
   20.0215  -19.2242  -14.4540 N   0  0  0  0  0  0  0  0  0  0  0  0
   17.7389  -20.0394  -14.3539 C   0  0  0  0  0  0  0  0  0  0  0  0
   17.4228  -18.9129  -13.9156 O   0  0  0  0  0  0  0  0  0  0  0  0
   16.7505  -20.9543  -14.6467 O   0  0  0  0  0  0  0  0  0  0  0  0
  2  1  1  0
  3  4  1  0
  3  2  1  0
  4  5  1  0
  5  7  1  0
  5  6  1  1
  7 11  1  0
  7  8  2  0
 10  9  1  6
 10 12  1  0
 11 10  1  0
 12 18  1  0
 12 13  2  0
 15 17  1  0
 15 14  1  1
 16 15  1  0
 17 19  1  0
 17 18  1  1
 19 21  1  0
 20 19  2  0
M  END
$$$$
