MAT.pdb
     RDKit          3D

 21 20  0  0  1  0  0  0  0  0999 V2000
   25.7997  -15.2008  -15.1500 C   0  0  0  0  0  0  0  0  0  0  0  0
   24.7195  -13.7922  -15.1607 S   0  0  0  0  0  0  0  0  0  0  0  0
   24.9727  -12.5796  -16.4323 C   0  0  0  0  0  0  0  0  0  0  0  0
   24.1158  -11.3515  -16.3786 C   0  0  0  0  0  0  0  0  0  0  0  0
   22.6933  -11.6778  -16.1200 C   0  0  2  0  0  0  0  0  0  0  0  0
   22.1263  -12.3801  -17.2535 N   0  0  0  0  0  0  0  0  0  0  0  0
   21.8848  -10.4316  -15.8317 C   0  0  0  0  0  0  0  0  0  0  0  0
   21.5804   -9.6825  -16.7942 O   0  0  0  0  0  0  0  0  0  0  0  0
   20.0884   -9.0021  -12.8505 C   0  0  0  0  0  0  0  0  0  0  0  0
   20.7477   -8.9443  -14.2224 C   0  0  2  0  0  0  0  0  0  0  0  0
   21.4921  -10.1375  -14.5028 N   0  0  0  0  0  0  0  0  0  0  0  0
   21.5963   -7.7186  -14.3376 C   0  0  0  0  0  0  0  0  0  0  0  0
   22.8177   -7.8079  -14.1104 O   0  0  0  0  0  0  0  0  0  0  0  0
   21.5698   -3.0127  -15.9644 C   0  0  0  0  0  0  0  0  0  0  0  0
   20.9069   -4.3243  -15.6743 C   0  0  1  0  0  0  0  0  0  0  0  0
   20.6474   -5.0132  -16.8648 O   0  0  0  0  0  0  0  0  0  0  0  0
   21.8019   -5.2575  -14.8542 C   0  0  2  0  0  0  0  0  0  0  0  0
   21.0333   -6.4851  -14.6952 N   0  0  0  0  0  0  0  0  0  0  0  0
   22.1212   -4.6297  -13.5730 C   0  0  0  0  0  0  0  0  0  0  0  0
   21.2989   -4.6633  -12.6329 O   0  0  0  0  0  0  0  0  0  0  0  0
   23.3318   -3.9961  -13.3920 O   0  0  0  0  0  0  0  0  0  0  0  0
  2  1  1  0
  3  4  1  0
  3  2  1  0
  4  5  1  0
  5  7  1  0
  5  6  1  6
  7 11  1  0
  7  8  2  0
 10  9  1  1
 10 12  1  0
 11 10  1  0
 12 18  1  0
 12 13  2  0
 15 17  1  0
 15 14  1  6
 16 15  1  0
 17 19  1  0
 17 18  1  1
 19 21  1  0
 20 19  2  0
M  END
$$$$
