MAT.pdb
     RDKit          3D

 21 20  0  0  1  0  0  0  0  0999 V2000
   13.9870  -14.7475  -17.2680 C   0  0  0  0  0  0  0  0  0  0  0  0
   14.9513  -14.1923  -15.8850 S   0  0  0  0  0  0  0  0  0  0  0  0
   16.6795  -14.5981  -15.8800 C   0  0  0  0  0  0  0  0  0  0  0  0
   17.6451  -13.4525  -15.8578 C   0  0  0  0  0  0  0  0  0  0  0  0
   18.0795  -13.0658  -17.2210 C   0  0  2  0  0  0  0  0  0  0  0  0
   18.8075  -14.1538  -17.8423 N   0  0  0  0  0  0  0  0  0  0  0  0
   18.9406  -11.8218  -17.1939 C   0  0  0  0  0  0  0  0  0  0  0  0
   19.8241  -11.7274  -16.3045 O   0  0  0  0  0  0  0  0  0  0  0  0
   19.3057   -8.7357  -19.3378 C   0  0  0  0  0  0  0  0  0  0  0  0
   19.5119   -9.5968  -18.0984 C   0  0  2  0  0  0  0  0  0  0  0  0
   18.7380  -10.8026  -18.1567 N   0  0  0  0  0  0  0  0  0  0  0  0
   19.2182   -8.8059  -16.8639 C   0  0  0  0  0  0  0  0  0  0  0  0
   18.0318   -8.6369  -16.5247 O   0  0  0  0  0  0  0  0  0  0  0  0
   20.8594   -9.3903  -13.4682 C   0  0  0  0  0  0  0  0  0  0  0  0
   21.1021   -7.9747  -13.8939 C   0  0  1  0  0  0  0  0  0  0  0  0
   22.3221   -7.8721  -14.5723 O   0  0  0  0  0  0  0  0  0  0  0  0
   20.0456   -7.4779  -14.8845 C   0  0  2  0  0  0  0  0  0  0  0  0
   20.2566   -8.2601  -16.0954 N   0  0  0  0  0  0  0  0  0  0  0  0
   20.2205   -6.0439  -15.1095 C   0  0  0  0  0  0  0  0  0  0  0  0
   19.9265   -5.2252  -14.2128 O   0  0  0  0  0  0  0  0  0  0  0  0
   20.7112   -5.5839  -16.3127 O   0  0  0  0  0  0  0  0  0  0  0  0
  2  1  1  0
  3  4  1  0
  3  2  1  0
  4  5  1  0
  5  7  1  0
  5  6  1  1
  7 11  1  0
  7  8  2  0
 10  9  1  6
 10 12  1  0
 11 10  1  0
 12 18  1  0
 12 13  2  0
 15 17  1  0
 15 14  1  6
 16 15  1  0
 17 19  1  0
 17 18  1  6
 19 21  1  0
 20 19  2  0
M  END
$$$$
