MAT.pdb
     RDKit          3D

 21 20  0  0  1  0  0  0  0  0999 V2000
   28.1513  -10.3230  -16.3767 C   0  0  0  0  0  0  0  0  0  0  0  0
   27.4864  -11.9020  -16.8411 S   0  0  0  0  0  0  0  0  0  0  0  0
   25.8675  -12.3141  -16.2402 C   0  0  0  0  0  0  0  0  0  0  0  0
   24.8289  -11.2354  -16.2950 C   0  0  0  0  0  0  0  0  0  0  0  0
   23.5089  -11.7107  -15.8170 C   0  0  2  0  0  0  0  0  0  0  0  0
   22.9213  -12.6146  -16.7851 N   0  0  0  0  0  0  0  0  0  0  0  0
   22.5674  -10.5550  -15.5564 C   0  0  0  0  0  0  0  0  0  0  0  0
   21.9993  -10.0155  -16.5395 O   0  0  0  0  0  0  0  0  0  0  0  0
   21.0600   -8.9275  -12.5168 C   0  0  0  0  0  0  0  0  0  0  0  0
   21.4734   -9.0006  -13.9810 C   0  0  2  0  0  0  0  0  0  0  0  0
   22.3472  -10.1101  -14.2297 N   0  0  0  0  0  0  0  0  0  0  0  0
   22.0820   -7.7048  -14.4124 C   0  0  0  0  0  0  0  0  0  0  0  0
   23.3229   -7.6078  -14.4582 O   0  0  0  0  0  0  0  0  0  0  0  0
   20.3425   -5.4305  -17.2873 C   0  0  0  0  0  0  0  0  0  0  0  0
   20.6451   -4.6966  -16.0170 C   0  0  1  0  0  0  0  0  0  0  0  0
   19.5441   -4.7416  -15.1539 O   0  0  0  0  0  0  0  0  0  0  0  0
   21.7964   -5.3375  -15.2372 C   0  0  2  0  0  0  0  0  0  0  0  0
   21.2753   -6.6121  -14.7612 N   0  0  0  0  0  0  0  0  0  0  0  0
   22.1979   -4.4556  -14.1425 C   0  0  0  0  0  0  0  0  0  0  0  0
   21.8536   -4.7114  -12.9690 O   0  0  0  0  0  0  0  0  0  0  0  0
   22.9595   -3.3351  -14.3961 O   0  0  0  0  0  0  0  0  0  0  0  0
  2  1  1  0
  3  4  1  0
  3  2  1  0
  4  5  1  0
  5  7  1  0
  5  6  1  6
  7 11  1  0
  7  8  2  0
 10  9  1  1
 10 12  1  0
 11 10  1  0
 12 18  1  0
 12 13  2  0
 15 17  1  0
 15 14  1  6
 16 15  1  0
 17 19  1  0
 17 18  1  1
 19 21  1  0
 20 19  2  0
M  END
$$$$
