MAT.pdb
     RDKit          3D

 21 20  0  0  1  0  0  0  0  0999 V2000
   27.3240  -18.0804   -7.6436 C   0  0  0  0  0  0  0  0  0  0  0  0
   27.7021  -19.7883   -7.3414 S   0  0  0  0  0  0  0  0  0  0  0  0
   26.8499  -20.9983   -8.3218 C   0  0  0  0  0  0  0  0  0  0  0  0
   26.0168  -20.4865   -9.4573 C   0  0  0  0  0  0  0  0  0  0  0  0
   25.5162  -21.5846  -10.3177 C   0  0  2  0  0  0  0  0  0  0  0  0
   26.6201  -22.2298  -10.9995 N   0  0  0  0  0  0  0  0  0  0  0  0
   24.5128  -21.0783  -11.3309 C   0  0  0  0  0  0  0  0  0  0  0  0
   24.8619  -21.0181  -12.5371 O   0  0  0  0  0  0  0  0  0  0  0  0
   20.8647  -20.0914  -11.2121 C   0  0  0  0  0  0  0  0  0  0  0  0
   22.1844  -20.4642  -11.8752 C   0  0  2  0  0  0  0  0  0  0  0  0
   23.2186  -20.6879  -10.9074 N   0  0  0  0  0  0  0  0  0  0  0  0
   22.5734  -19.4230  -12.8753 C   0  0  0  0  0  0  0  0  0  0  0  0
   23.0913  -18.3643  -12.4724 O   0  0  0  0  0  0  0  0  0  0  0  0
   24.9758  -19.5479  -15.7040 C   0  0  0  0  0  0  0  0  0  0  0  0
   23.5969  -19.3576  -16.2575 C   0  0  1  0  0  0  0  0  0  0  0  0
   22.9927  -20.5973  -16.4973 O   0  0  0  0  0  0  0  0  0  0  0  0
   22.6704  -18.6403  -15.2720 C   0  0  2  0  0  0  0  0  0  0  0  0
   22.3619  -19.6280  -14.2463 N   0  0  0  0  0  0  0  0  0  0  0  0
   21.4758  -18.1732  -15.9735 C   0  0  0  0  0  0  0  0  0  0  0  0
   20.3642  -18.6934  -15.7395 O   0  0  0  0  0  0  0  0  0  0  0  0
   21.5662  -17.1552  -16.8984 O   0  0  0  0  0  0  0  0  0  0  0  0
  2  1  1  0
  3  4  1  0
  3  2  1  0
  4  5  1  0
  5  7  1  0
  5  6  1  6
  7 11  1  0
  7  8  2  0
 10  9  1  1
 10 12  1  0
 11 10  1  0
 12 18  1  0
 12 13  2  0
 15 17  1  0
 15 14  1  1
 16 15  1  0
 17 19  1  0
 17 18  1  1
 19 21  1  0
 20 19  2  0
M  END
$$$$
