MAT.pdb
     RDKit          3D

 21 20  0  0  1  0  0  0  0  0999 V2000
   26.5519  -14.2071  -20.4976 C   0  0  0  0  0  0  0  0  0  0  0  0
   25.8356  -12.9064  -21.4702 S   0  0  0  0  0  0  0  0  0  0  0  0
   24.1196  -12.5382  -21.2030 C   0  0  0  0  0  0  0  0  0  0  0  0
   23.7828  -11.7116  -19.9994 C   0  0  0  0  0  0  0  0  0  0  0  0
   24.1083  -12.4132  -18.7351 C   0  0  2  0  0  0  0  0  0  0  0  0
   23.2702  -13.5853  -18.5824 N   0  0  0  0  0  0  0  0  0  0  0  0
   23.9390  -11.5020  -17.5389 C   0  0  0  0  0  0  0  0  0  0  0  0
   22.7728  -11.1992  -17.1802 O   0  0  0  0  0  0  0  0  0  0  0  0
   26.1880  -10.1259  -14.8630 C   0  0  0  0  0  0  0  0  0  0  0  0
   24.9238  -10.1654  -15.7116 C   0  0  2  0  0  0  0  0  0  0  0  0
   25.0807  -11.0150  -16.8562 N   0  0  0  0  0  0  0  0  0  0  0  0
   24.5165   -8.7797  -16.0984 C   0  0  0  0  0  0  0  0  0  0  0  0
   25.1919   -8.1681  -16.9476 O   0  0  0  0  0  0  0  0  0  0  0  0
   21.7413   -7.7810  -17.8761 C   0  0  0  0  0  0  0  0  0  0  0  0
   21.5833   -7.0542  -16.5758 C   0  0  1  0  0  0  0  0  0  0  0  0
   20.8113   -7.8098  -15.6857 O   0  0  0  0  0  0  0  0  0  0  0  0
   22.9226   -6.8376  -15.8661 C   0  0  2  0  0  0  0  0  0  0  0  0
   23.3934   -8.1720  -15.5188 N   0  0  0  0  0  0  0  0  0  0  0  0
   22.7229   -5.9931  -14.6895 C   0  0  0  0  0  0  0  0  0  0  0  0
   22.7256   -6.4958  -13.5457 O   0  0  0  0  0  0  0  0  0  0  0  0
   22.5304   -4.6358  -14.8326 O   0  0  0  0  0  0  0  0  0  0  0  0
  2  1  1  0
  3  4  1  0
  3  2  1  0
  4  5  1  0
  5  7  1  0
  5  6  1  1
  7 11  1  0
  7  8  2  0
 10  9  1  6
 10 12  1  0
 11 10  1  0
 12 18  1  0
 12 13  2  0
 15 17  1  0
 15 14  1  6
 16 15  1  0
 17 19  1  0
 17 18  1  1
 19 21  1  0
 20 19  2  0
M  END
$$$$
