MAT.pdb
     RDKit          3D

 21 20  0  0  1  0  0  0  0  0999 V2000
   23.6377  -11.7162  -21.0775 C   0  0  0  0  0  0  0  0  0  0  0  0
   22.2099  -12.7570  -20.9063 S   0  0  0  0  0  0  0  0  0  0  0  0
   20.6716  -11.9708  -20.4976 C   0  0  0  0  0  0  0  0  0  0  0  0
   20.6561  -11.1056  -19.2742 C   0  0  0  0  0  0  0  0  0  0  0  0
   20.8514  -11.8937  -18.0343 C   0  0  2  0  0  0  0  0  0  0  0  0
   19.7553  -12.8240  -17.8540 N   0  0  0  0  0  0  0  0  0  0  0  0
   20.9668  -10.9955  -16.8219 C   0  0  0  0  0  0  0  0  0  0  0  0
   19.9372  -10.3918  -16.4270 O   0  0  0  0  0  0  0  0  0  0  0  0
   23.5131  -10.3098  -14.1636 C   0  0  0  0  0  0  0  0  0  0  0  0
   22.3486   -9.9363  -15.0715 C   0  0  2  0  0  0  0  0  0  0  0  0
   22.2138  -10.8545  -16.1647 N   0  0  0  0  0  0  0  0  0  0  0  0
   22.4927   -8.5251  -15.5443 C   0  0  0  0  0  0  0  0  0  0  0  0
   23.2126   -8.2916  -16.5335 O   0  0  0  0  0  0  0  0  0  0  0  0
   20.0899   -6.3532  -16.9293 C   0  0  0  0  0  0  0  0  0  0  0  0
   20.5515   -5.6433  -15.6937 C   0  0  1  0  0  0  0  0  0  0  0  0
   19.7236   -5.9613  -14.6108 O   0  0  0  0  0  0  0  0  0  0  0  0
   21.9575   -6.0749  -15.2680 C   0  0  2  0  0  0  0  0  0  0  0  0
   21.8311   -7.4762  -14.8896 N   0  0  0  0  0  0  0  0  0  0  0  0
   22.4131   -5.2371  -14.1599 C   0  0  0  0  0  0  0  0  0  0  0  0
   22.4022   -5.6782  -12.9910 O   0  0  0  0  0  0  0  0  0  0  0  0
   22.8582   -3.9541  -14.3958 O   0  0  0  0  0  0  0  0  0  0  0  0
  2  1  1  0
  3  4  1  0
  3  2  1  0
  4  5  1  0
  5  7  1  0
  5  6  1  1
  7 11  1  0
  7  8  2  0
 10  9  1  6
 10 12  1  0
 11 10  1  0
 12 18  1  0
 12 13  2  0
 15 17  1  0
 15 14  1  6
 16 15  1  0
 17 19  1  0
 17 18  1  1
 19 21  1  0
 20 19  2  0
M  END
$$$$
