MAT.pdb
     RDKit          3D

 21 20  0  0  1  0  0  0  0  0999 V2000
   26.6720  -13.7414  -22.9534 C   0  0  0  0  0  0  0  0  0  0  0  0
   25.4964  -12.8462  -21.9698 S   0  0  0  0  0  0  0  0  0  0  0  0
   25.1780  -13.4481  -20.3304 C   0  0  0  0  0  0  0  0  0  0  0  0
   24.1815  -12.6869  -19.5100 C   0  0  0  0  0  0  0  0  0  0  0  0
   24.0079  -13.2751  -18.1607 C   0  0  2  0  0  0  0  0  0  0  0  0
   23.3876  -14.5809  -18.2594 N   0  0  0  0  0  0  0  0  0  0  0  0
   23.1762  -12.3778  -17.2703 C   0  0  0  0  0  0  0  0  0  0  0  0
   21.9353  -12.3284  -17.4659 O   0  0  0  0  0  0  0  0  0  0  0  0
   23.7356  -10.6486  -14.0042 C   0  0  0  0  0  0  0  0  0  0  0  0
   23.0060  -10.8700  -15.3228 C   0  0  2  0  0  0  0  0  0  0  0  0
   23.8021  -11.6222  -16.2485 N   0  0  0  0  0  0  0  0  0  0  0  0
   22.5695   -9.5612  -15.8991 C   0  0  0  0  0  0  0  0  0  0  0  0
   23.3712   -8.9134  -16.5982 O   0  0  0  0  0  0  0  0  0  0  0  0
   19.2275   -9.0439  -17.7907 C   0  0  0  0  0  0  0  0  0  0  0  0
   19.3207   -8.1197  -16.6155 C   0  0  1  0  0  0  0  0  0  0  0  0
   18.7479   -8.7112  -15.4836 O   0  0  0  0  0  0  0  0  0  0  0  0
   20.7711   -7.8219  -16.2257 C   0  0  2  0  0  0  0  0  0  0  0  0
   21.2799   -9.0646  -15.6606 N   0  0  0  0  0  0  0  0  0  0  0  0
   20.8044   -6.7186  -15.2669 C   0  0  0  0  0  0  0  0  0  0  0  0
   21.0505   -6.9386  -14.0619 O   0  0  0  0  0  0  0  0  0  0  0  0
   20.5647   -5.4272  -15.6847 O   0  0  0  0  0  0  0  0  0  0  0  0
  2  1  1  0
  3  4  1  0
  3  2  1  0
  4  5  1  0
  5  7  1  0
  5  6  1  6
  7 11  1  0
  7  8  2  0
 10  9  1  1
 10 12  1  0
 11 10  1  0
 12 18  1  0
 12 13  2  0
 15 17  1  0
 15 14  1  6
 16 15  1  0
 17 19  1  0
 17 18  1  1
 19 21  1  0
 20 19  2  0
M  END
$$$$
