MAT.pdb
     RDKit          3D

 21 20  0  0  1  0  0  0  0  0999 V2000
   16.4637  -12.0445  -21.6242 C   0  0  0  0  0  0  0  0  0  0  0  0
   17.1405  -10.9668  -20.3866 S   0  0  0  0  0  0  0  0  0  0  0  0
   17.9855  -11.7226  -19.0205 C   0  0  0  0  0  0  0  0  0  0  0  0
   18.5438  -10.8042  -17.9763 C   0  0  0  0  0  0  0  0  0  0  0  0
   19.2073  -11.5484  -16.8797 C   0  0  2  0  0  0  0  0  0  0  0  0
   18.2527  -12.4062  -16.2071 N   0  0  0  0  0  0  0  0  0  0  0  0
   19.8444  -10.6072  -15.8806 C   0  0  0  0  0  0  0  0  0  0  0  0
   19.0916   -9.9156  -15.1489 O   0  0  0  0  0  0  0  0  0  0  0  0
   23.2920  -10.0726  -14.5100 C   0  0  0  0  0  0  0  0  0  0  0  0
   21.8628   -9.6522  -14.8275 C   0  0  2  0  0  0  0  0  0  0  0  0
   21.2557  -10.5248  -15.7900 N   0  0  0  0  0  0  0  0  0  0  0  0
   21.8295   -8.2247  -15.2709 C   0  0  0  0  0  0  0  0  0  0  0  0
   22.0687   -7.9587  -16.4639 O   0  0  0  0  0  0  0  0  0  0  0  0
   19.2549   -5.6647  -13.6858 C   0  0  0  0  0  0  0  0  0  0  0  0
   20.0804   -5.3981  -14.9070 C   0  0  1  0  0  0  0  0  0  0  0  0
   20.0915   -4.0291  -15.1985 O   0  0  0  0  0  0  0  0  0  0  0  0
   21.5496   -5.7810  -14.7086 C   0  0  2  0  0  0  0  0  0  0  0  0
   21.5344   -7.1966  -14.3641 N   0  0  0  0  0  0  0  0  0  0  0  0
   22.1328   -4.9562  -13.6517 C   0  0  0  0  0  0  0  0  0  0  0  0
   22.2515   -5.4083  -12.4931 O   0  0  0  0  0  0  0  0  0  0  0  0
   22.5564   -3.6733  -13.9251 O   0  0  0  0  0  0  0  0  0  0  0  0
  2  1  1  0
  3  4  1  0
  3  2  1  0
  4  5  1  0
  5  7  1  0
  5  6  1  1
  7 11  1  0
  7  8  2  0
 10  9  1  6
 10 12  1  0
 11 10  1  0
 12 18  1  0
 12 13  2  0
 15 17  1  0
 15 14  1  1
 16 15  1  0
 17 19  1  0
 17 18  1  1
 19 21  1  0
 20 19  2  0
M  END
$$$$
