MAT.pdb
     RDKit          3D

 21 20  0  0  1  0  0  0  0  0999 V2000
   27.1236  -18.4586   -7.7853 C   0  0  0  0  0  0  0  0  0  0  0  0
   26.2901  -19.9573   -7.3271 S   0  0  0  0  0  0  0  0  0  0  0  0
   25.7403  -21.0190   -8.6394 C   0  0  0  0  0  0  0  0  0  0  0  0
   25.8181  -20.4717  -10.0322 C   0  0  0  0  0  0  0  0  0  0  0  0
   25.4479  -21.4850  -11.0484 C   0  0  2  0  0  0  0  0  0  0  0  0
   26.4200  -22.5595  -11.0619 N   0  0  0  0  0  0  0  0  0  0  0  0
   25.3428  -20.8709  -12.4275 C   0  0  0  0  0  0  0  0  0  0  0  0
   26.4052  -20.6201  -13.0510 O   0  0  0  0  0  0  0  0  0  0  0  0
   22.4954  -20.4771  -14.8524 C   0  0  0  0  0  0  0  0  0  0  0  0
   23.9380  -20.3331  -14.3851 C   0  0  2  0  0  0  0  0  0  0  0  0
   24.0685  -20.5947  -12.9812 N   0  0  0  0  0  0  0  0  0  0  0  0
   24.4687  -18.9842  -14.7519 C   0  0  0  0  0  0  0  0  0  0  0  0
   24.1996  -18.0119  -14.0214 O   0  0  0  0  0  0  0  0  0  0  0  0
   26.8194  -18.6267  -18.3384 C   0  0  0  0  0  0  0  0  0  0  0  0
   27.1057  -17.8842  -17.0693 C   0  0  1  0  0  0  0  0  0  0  0  0
   27.7192  -16.6578  -17.3499 O   0  0  0  0  0  0  0  0  0  0  0  0
   25.8279  -17.5310  -16.3033 C   0  0  2  0  0  0  0  0  0  0  0  0
   25.2573  -18.8089  -15.8981 N   0  0  0  0  0  0  0  0  0  0  0  0
   24.9306  -16.7699  -17.1711 C   0  0  0  0  0  0  0  0  0  0  0  0
   24.0159  -17.3492  -17.7945 O   0  0  0  0  0  0  0  0  0  0  0  0
   25.0866  -15.4073  -17.3083 O   0  0  0  0  0  0  0  0  0  0  0  0
  2  1  1  0
  3  4  1  0
  3  2  1  0
  4  5  1  0
  5  7  1  0
  5  6  1  6
  7 11  1  0
  7  8  2  0
 10  9  1  1
 10 12  1  0
 11 10  1  0
 12 18  1  0
 12 13  2  0
 15 17  1  0
 15 14  1  6
 16 15  1  0
 17 19  1  0
 17 18  1  6
 19 21  1  0
 20 19  2  0
M  END
$$$$
