FQR.pdb
     RDKit          3D

 32 32  0  0  1  0  0  0  0  0999 V2000
   27.5119  -22.0629  -10.1147 N   0  0  0  0  0  0  0  0  0  0  0  0
   26.8010  -20.7906  -10.0590 C   0  0  1  0  0  0  0  0  0  0  0  0
   27.8626  -19.7739   -9.6547 C   0  0  0  0  0  0  0  0  0  0  0  0
   28.1664  -19.9280   -8.2267 C   0  0  0  0  0  0  0  0  0  0  0  0
   29.3836  -20.5166   -7.8739 C   0  0  0  0  0  0  0  0  0  0  0  0
   29.7453  -20.7111   -6.5621 C   0  0  0  0  0  0  0  0  0  0  0  0
   28.8686  -20.3083   -5.5802 C   0  0  0  0  0  0  0  0  0  0  0  0
   27.6390  -19.7137   -5.8730 C   0  0  0  0  0  0  0  0  0  0  0  0
   27.3451  -19.5508   -7.1914 C   0  0  0  0  0  0  0  0  0  0  0  0
   26.3485  -20.4892  -11.4575 C   0  0  0  0  0  0  0  0  0  0  0  0
   27.1856  -20.4452  -12.3629 O   0  0  0  0  0  0  0  0  0  0  0  0
   23.5736  -24.2597  -14.5059 N   0  0  0  0  0  0  0  0  0  0  0  0
   24.9845  -23.9992  -14.3672 C   0  0  0  0  0  0  0  0  0  0  0  0
   25.7614  -24.5785  -15.1566 O   0  0  0  0  0  0  0  0  0  0  0  0
   25.3906  -23.0620  -13.2934 C   0  0  0  0  0  0  0  0  0  0  0  0
   24.2646  -22.4694  -12.5155 C   0  0  0  0  0  0  0  0  0  0  0  0
   24.1625  -20.9642  -12.6295 C   0  0  2  0  0  0  0  0  0  0  0  0
   24.9892  -20.2741  -11.6773 N   0  0  0  0  0  0  0  0  0  0  0  0
   22.7326  -20.5955  -12.5794 C   0  0  0  0  0  0  0  0  0  0  0  0
   22.0601  -20.8817  -11.5249 O   0  0  0  0  0  0  0  0  0  0  0  0
   16.7990  -17.8157  -18.6350 N   0  0  0  0  0  0  0  0  0  0  0  0
   18.2128  -17.7395  -18.4118 C   0  0  0  0  0  0  0  0  0  0  0  0
   18.9597  -17.0445  -19.1677 N   0  0  0  0  0  0  0  0  0  0  0  0
   18.8016  -18.4387  -17.3332 N   0  0  0  0  0  0  0  0  0  0  0  0
   20.1957  -18.4498  -17.0932 C   0  0  0  0  0  0  0  0  0  0  0  0
   20.6720  -19.3206  -15.9724 C   0  0  0  0  0  0  0  0  0  0  0  0
   20.2240  -18.7349  -14.6678 C   0  0  0  0  0  0  0  0  0  0  0  0
   20.5975  -19.5622  -13.4477 C   0  0  2  0  0  0  0  0  0  0  0  0
   22.0092  -19.9414  -13.5948 N   0  0  0  0  0  0  0  0  0  0  0  0
   19.8124  -20.7988  -13.4596 C   0  0  0  0  0  0  0  0  0  0  0  0
   18.5023  -20.8125  -13.0451 O   0  0  0  0  0  0  0  0  0  0  0  0
   20.3263  -21.8706  -13.8509 O   0  0  0  0  0  0  0  0  0  0  0  0
  2  1  1  6
  3  2  1  0
  3  4  1  0
  4  5  2  0
  5  6  1  0
  7  6  2  0
  8  7  1  0
  9  4  1  0
  9  8  2  0
 10 11  2  0
 10  2  1  0
 12 13  1  0
 13 14  2  0
 15 13  1  0
 15 16  1  0
 17 16  1  1
 17 18  1  0
 18 10  1  0
 19 29  1  0
 19 17  1  0
 20 19  2  0
 22 21  1  0
 22 23  2  0
 24 22  1  0
 25 24  1  0
 26 27  1  0
 26 25  1  0
 28 27  1  6
 28 29  1  0
 28 30  1  0
 30 31  1  0
 32 30  2  0
M  END
$$$$
