FQR.pdb
     RDKit          3D

 32 32  0  0  1  0  0  0  0  0999 V2000
   26.9354  -21.5611  -12.8270 N   0  0  0  0  0  0  0  0  0  0  0  0
   26.1756  -21.2926  -11.6114 C   0  0  1  0  0  0  0  0  0  0  0  0
   27.0116  -20.2676  -10.8534 C   0  0  0  0  0  0  0  0  0  0  0  0
   28.2889  -20.8750  -10.4601 C   0  0  0  0  0  0  0  0  0  0  0  0
   29.3424  -20.8411  -11.3774 C   0  0  0  0  0  0  0  0  0  0  0  0
   30.5690  -21.3953  -11.0985 C   0  0  0  0  0  0  0  0  0  0  0  0
   30.7456  -21.9985   -9.8737 C   0  0  0  0  0  0  0  0  0  0  0  0
   29.7295  -22.0617   -8.9173 C   0  0  0  0  0  0  0  0  0  0  0  0
   28.5417  -21.4927   -9.2588 C   0  0  0  0  0  0  0  0  0  0  0  0
   24.8904  -20.6482  -12.0409 C   0  0  0  0  0  0  0  0  0  0  0  0
   24.8630  -19.4286  -12.2258 O   0  0  0  0  0  0  0  0  0  0  0  0
   24.2058  -20.3457  -16.3039 N   0  0  0  0  0  0  0  0  0  0  0  0
   23.0659  -21.2236  -16.3922 C   0  0  0  0  0  0  0  0  0  0  0  0
   22.9001  -21.8530  -17.4593 O   0  0  0  0  0  0  0  0  0  0  0  0
   22.1862  -21.3016  -15.2020 C   0  0  0  0  0  0  0  0  0  0  0  0
   22.5660  -20.3982  -14.0779 C   0  0  0  0  0  0  0  0  0  0  0  0
   22.4892  -21.0473  -12.7134 C   0  0  2  0  0  0  0  0  0  0  0  0
   23.7734  -21.4624  -12.2186 N   0  0  0  0  0  0  0  0  0  0  0  0
   21.4789  -22.1238  -12.7729 C   0  0  0  0  0  0  0  0  0  0  0  0
   21.8786  -23.3362  -12.9006 O   0  0  0  0  0  0  0  0  0  0  0  0
   16.7084  -24.3041   -7.2352 N   0  0  0  0  0  0  0  0  0  0  0  0
   17.9538  -24.5322   -6.5631 C   0  0  0  0  0  0  0  0  0  0  0  0
   18.0189  -25.2788   -5.5381 N   0  0  0  0  0  0  0  0  0  0  0  0
   19.1402  -23.9284   -7.0393 N   0  0  0  0  0  0  0  0  0  0  0  0
   19.1531  -22.9817   -8.0904 C   0  0  0  0  0  0  0  0  0  0  0  0
   18.8936  -23.5106   -9.4668 C   0  0  0  0  0  0  0  0  0  0  0  0
   19.7206  -22.7441  -10.4539 C   0  0  0  0  0  0  0  0  0  0  0  0
   19.2191  -22.8232  -11.8874 C   0  0  2  0  0  0  0  0  0  0  0  0
   20.0831  -21.9555  -12.6991 N   0  0  0  0  0  0  0  0  0  0  0  0
   17.8663  -22.2640  -11.9439 C   0  0  0  0  0  0  0  0  0  0  0  0
   16.7659  -23.0366  -11.6606 O   0  0  0  0  0  0  0  0  0  0  0  0
   17.6902  -21.0643  -12.2533 O   0  0  0  0  0  0  0  0  0  0  0  0
  2  1  1  6
  3  2  1  0
  3  4  1  0
  4  5  2  0
  5  6  1  0
  7  6  2  0
  8  7  1  0
  9  4  1  0
  9  8  2  0
 10 11  2  0
 10  2  1  0
 12 13  1  0
 13 14  2  0
 15 13  1  0
 15 16  1  0
 17 16  1  6
 17 18  1  0
 18 10  1  0
 19 29  1  0
 19 17  1  0
 20 19  2  0
 22 21  1  0
 22 23  2  0
 24 22  1  0
 25 24  1  0
 26 27  1  0
 26 25  1  0
 28 27  1  1
 28 29  1  0
 28 30  1  0
 30 31  1  0
 32 30  2  0
M  END
$$$$
