FQR.pdb
     RDKit          3D

 32 32  0  0  1  0  0  0  0  0999 V2000
   26.1855  -20.7269  -13.8545 N   0  0  0  0  0  0  0  0  0  0  0  0
   25.6309  -21.0097  -12.5356 C   0  0  1  0  0  0  0  0  0  0  0  0
   26.4240  -20.1194  -11.5856 C   0  0  0  0  0  0  0  0  0  0  0  0
   27.8207  -20.5698  -11.5471 C   0  0  0  0  0  0  0  0  0  0  0  0
   28.1696  -21.5488  -10.6132 C   0  0  0  0  0  0  0  0  0  0  0  0
   29.4555  -22.0209  -10.4989 C   0  0  0  0  0  0  0  0  0  0  0  0
   30.4151  -21.5006  -11.3377 C   0  0  0  0  0  0  0  0  0  0  0  0
   30.1248  -20.5215  -12.2907 C   0  0  0  0  0  0  0  0  0  0  0  0
   28.8324  -20.1003  -12.3501 C   0  0  0  0  0  0  0  0  0  0  0  0
   24.2047  -20.5440  -12.5598 C   0  0  0  0  0  0  0  0  0  0  0  0
   23.9640  -19.3605  -12.8120 O   0  0  0  0  0  0  0  0  0  0  0  0
   21.9940  -18.9825  -15.5565 N   0  0  0  0  0  0  0  0  0  0  0  0
   22.4768  -20.3222  -15.7794 C   0  0  0  0  0  0  0  0  0  0  0  0
   23.1958  -20.5199  -16.7825 O   0  0  0  0  0  0  0  0  0  0  0  0
   22.0746  -21.3524  -14.7928 C   0  0  0  0  0  0  0  0  0  0  0  0
   21.2516  -20.8483  -13.6559 C   0  0  0  0  0  0  0  0  0  0  0  0
   21.7880  -21.2261  -12.2925 C   0  0  2  0  0  0  0  0  0  0  0  0
   23.2033  -21.4773  -12.2985 N   0  0  0  0  0  0  0  0  0  0  0  0
   20.9706  -22.3406  -11.7699 C   0  0  0  0  0  0  0  0  0  0  0  0
   21.0183  -23.4730  -12.3710 O   0  0  0  0  0  0  0  0  0  0  0  0
   15.8770  -24.8948   -6.3480 N   0  0  0  0  0  0  0  0  0  0  0  0
   16.9020  -25.6047   -5.6409 C   0  0  0  0  0  0  0  0  0  0  0  0
   16.6792  -26.7484   -5.1363 N   0  0  0  0  0  0  0  0  0  0  0  0
   18.1902  -25.0396   -5.4986 N   0  0  0  0  0  0  0  0  0  0  0  0
   18.6917  -24.0404   -6.3654 C   0  0  0  0  0  0  0  0  0  0  0  0
   18.7224  -24.3775   -7.8238 C   0  0  0  0  0  0  0  0  0  0  0  0
   19.3130  -23.2286   -8.5834 C   0  0  0  0  0  0  0  0  0  0  0  0
   19.4952  -23.4878  -10.0708 C   0  0  2  0  0  0  0  0  0  0  0  0
   20.1224  -22.2909  -10.6474 N   0  0  0  0  0  0  0  0  0  0  0  0
   18.1745  -23.6264  -10.6893 C   0  0  0  0  0  0  0  0  0  0  0  0
   17.5988  -24.8616  -10.8656 O   0  0  0  0  0  0  0  0  0  0  0  0
   17.5447  -22.6141  -11.0695 O   0  0  0  0  0  0  0  0  0  0  0  0
  2  1  1  6
  3  2  1  0
  3  4  1  0
  4  5  2  0
  5  6  1  0
  7  6  2  0
  8  7  1  0
  9  4  1  0
  9  8  2  0
 10 11  2  0
 10  2  1  0
 12 13  1  0
 13 14  2  0
 15 13  1  0
 15 16  1  0
 17 16  1  6
 17 18  1  0
 18 10  1  0
 19 29  1  0
 19 17  1  0
 20 19  2  0
 22 21  1  0
 22 23  2  0
 24 22  1  0
 25 24  1  0
 26 27  1  0
 26 25  1  0
 28 27  1  1
 28 29  1  0
 28 30  1  0
 30 31  1  0
 32 30  2  0
M  END
$$$$
