FQR.pdb
     RDKit          3D

 32 32  0  0  1  0  0  0  0  0999 V2000
   25.2822  -21.0754   -7.3338 N   0  0  0  0  0  0  0  0  0  0  0  0
   26.0821  -20.3792   -8.3351 C   0  0  1  0  0  0  0  0  0  0  0  0
   27.5232  -20.7461   -7.9995 C   0  0  0  0  0  0  0  0  0  0  0  0
   27.9122  -20.0945   -6.7427 C   0  0  0  0  0  0  0  0  0  0  0  0
   27.6300  -18.7341   -6.5935 C   0  0  0  0  0  0  0  0  0  0  0  0
   27.9688  -18.0407   -5.4560 C   0  0  0  0  0  0  0  0  0  0  0  0
   28.6056  -18.7237   -4.4445 C   0  0  0  0  0  0  0  0  0  0  0  0
   28.9122  -20.0834   -4.5373 C   0  0  0  0  0  0  0  0  0  0  0  0
   28.5479  -20.7078   -5.6900 C   0  0  0  0  0  0  0  0  0  0  0  0
   25.7256  -20.9792   -9.6634 C   0  0  0  0  0  0  0  0  0  0  0  0
   25.8491  -22.1961   -9.8249 O   0  0  0  0  0  0  0  0  0  0  0  0
   21.0872  -19.0740  -13.1519 N   0  0  0  0  0  0  0  0  0  0  0  0
   21.1241  -20.0510  -12.0927 C   0  0  0  0  0  0  0  0  0  0  0  0
   20.0375  -20.3820  -11.5711 O   0  0  0  0  0  0  0  0  0  0  0  0
   22.4562  -20.5789  -11.7139 C   0  0  0  0  0  0  0  0  0  0  0  0
   23.6017  -20.0030  -12.4756 C   0  0  0  0  0  0  0  0  0  0  0  0
   24.9561  -20.5007  -12.0206 C   0  0  2  0  0  0  0  0  0  0  0  0
   25.2620  -20.1295  -10.6660 N   0  0  0  0  0  0  0  0  0  0  0  0
   25.9611  -20.0713  -13.0149 C   0  0  0  0  0  0  0  0  0  0  0  0
   26.3918  -18.8636  -12.9722 O   0  0  0  0  0  0  0  0  0  0  0  0
   30.9813  -24.9826  -16.6433 N   0  0  0  0  0  0  0  0  0  0  0  0
   29.7520  -25.4041  -16.0385 C   0  0  0  0  0  0  0  0  0  0  0  0
   29.6744  -26.5032  -15.4074 N   0  0  0  0  0  0  0  0  0  0  0  0
   28.5983  -24.5920  -16.1315 N   0  0  0  0  0  0  0  0  0  0  0  0
   28.5078  -23.4814  -17.0029 C   0  0  0  0  0  0  0  0  0  0  0  0
   27.6423  -22.3471  -16.5492 C   0  0  0  0  0  0  0  0  0  0  0  0
   28.3256  -21.6225  -15.4295 C   0  0  0  0  0  0  0  0  0  0  0  0
   27.5785  -20.3967  -14.9276 C   0  0  2  0  0  0  0  0  0  0  0  0
   26.5149  -20.8715  -14.0323 N   0  0  0  0  0  0  0  0  0  0  0  0
   26.9279  -19.7436  -16.0662 C   0  0  0  0  0  0  0  0  0  0  0  0
   27.6364  -18.9326  -16.9198 O   0  0  0  0  0  0  0  0  0  0  0  0
   25.7072  -19.9156  -16.2812 O   0  0  0  0  0  0  0  0  0  0  0  0
  2  1  1  1
  3  2  1  0
  3  4  1  0
  4  5  2  0
  5  6  1  0
  7  6  2  0
  8  7  1  0
  9  4  1  0
  9  8  2  0
 10 11  2  0
 10  2  1  0
 12 13  1  0
 13 14  2  0
 15 13  1  0
 15 16  1  0
 17 16  1  6
 17 18  1  0
 18 10  1  0
 19 29  1  0
 19 17  1  0
 20 19  2  0
 22 21  1  0
 22 23  2  0
 24 22  1  0
 25 24  1  0
 26 27  1  0
 26 25  1  0
 28 27  1  6
 28 29  1  0
 28 30  1  0
 30 31  1  0
 32 30  2  0
M  END
$$$$
