FQR.pdb
     RDKit          3D

 32 32  0  0  1  0  0  0  0  0999 V2000
   17.0020  -29.3579   -3.6536 N   0  0  0  0  0  0  0  0  0  0  0  0
   16.9059  -27.9783   -4.1166 C   0  0  1  0  0  0  0  0  0  0  0  0
   18.1217  -27.2842   -3.5132 C   0  0  0  0  0  0  0  0  0  0  0  0
   17.8783  -27.0254   -2.0888 C   0  0  0  0  0  0  0  0  0  0  0  0
   16.9717  -26.0177   -1.7499 C   0  0  0  0  0  0  0  0  0  0  0  0
   16.6918  -25.6995   -0.4422 C   0  0  0  0  0  0  0  0  0  0  0  0
   17.3347  -26.4053    0.5497 C   0  0  0  0  0  0  0  0  0  0  0  0
   18.2497  -27.4233    0.2708 C   0  0  0  0  0  0  0  0  0  0  0  0
   18.4789  -27.6863   -1.0442 C   0  0  0  0  0  0  0  0  0  0  0  0
   17.0587  -28.0138   -5.6089 C   0  0  0  0  0  0  0  0  0  0  0  0
   17.7094  -28.9268   -6.1240 O   0  0  0  0  0  0  0  0  0  0  0  0
   14.6860  -23.2912   -9.3013 N   0  0  0  0  0  0  0  0  0  0  0  0
   14.9605  -24.3319  -10.2601 C   0  0  0  0  0  0  0  0  0  0  0  0
   14.5839  -24.1492  -11.4379 O   0  0  0  0  0  0  0  0  0  0  0  0
   15.6690  -25.5338   -9.7603 C   0  0  0  0  0  0  0  0  0  0  0  0
   15.8030  -25.6146   -8.2773 C   0  0  0  0  0  0  0  0  0  0  0  0
   16.4799  -26.8762   -7.7880 C   0  0  2  0  0  0  0  0  0  0  0  0
   16.4502  -27.0076   -6.3569 N   0  0  0  0  0  0  0  0  0  0  0  0
   17.8326  -26.9310   -8.3798 C   0  0  0  0  0  0  0  0  0  0  0  0
   18.7587  -26.2071   -7.8659 O   0  0  0  0  0  0  0  0  0  0  0  0
   22.7096  -33.1679  -11.1142 N   0  0  0  0  0  0  0  0  0  0  0  0
   23.6936  -32.3274  -10.4978 C   0  0  0  0  0  0  0  0  0  0  0  0
   24.9323  -32.5897  -10.5920 N   0  0  0  0  0  0  0  0  0  0  0  0
   23.2961  -31.1798   -9.7738 N   0  0  0  0  0  0  0  0  0  0  0  0
   21.9409  -30.8212   -9.5842 C   0  0  0  0  0  0  0  0  0  0  0  0
   21.5610  -29.4250   -9.9684 C   0  0  0  0  0  0  0  0  0  0  0  0
   20.1145  -29.2011   -9.6469 C   0  0  0  0  0  0  0  0  0  0  0  0
   19.6160  -27.7958   -9.9456 C   0  0  2  0  0  0  0  0  0  0  0  0
   18.2252  -27.7190   -9.4785 N   0  0  0  0  0  0  0  0  0  0  0  0
   19.5975  -27.6020  -11.3975 C   0  0  0  0  0  0  0  0  0  0  0  0
   20.7500  -27.3224  -12.0916 O   0  0  0  0  0  0  0  0  0  0  0  0
   18.5234  -27.6891  -12.0337 O   0  0  0  0  0  0  0  0  0  0  0  0
  2  1  1  1
  3  2  1  0
  3  4  1  0
  4  5  2  0
  5  6  1  0
  7  6  2  0
  8  7  1  0
  9  4  1  0
  9  8  2  0
 10 11  2  0
 10  2  1  0
 12 13  1  0
 13 14  2  0
 15 13  1  0
 15 16  1  0
 17 16  1  1
 17 18  1  0
 18 10  1  0
 19 29  1  0
 19 17  1  0
 20 19  2  0
 22 21  1  0
 22 23  2  0
 24 22  1  0
 25 24  1  0
 26 27  1  0
 26 25  1  0
 28 27  1  6
 28 29  1  0
 28 30  1  0
 30 31  1  0
 32 30  2  0
M  END
$$$$
