IIS.pdb
     RDKit          3D

 23 22  0  0  1  0  0  0  0  0999 V2000
   11.6491  -16.1751   30.8526 C   0  0  0  0  0  0  0  0  0  0  0  0
   10.3311  -16.6069   30.3103 C   0  0  0  0  0  0  0  0  0  0  0  0
   10.0482  -16.1522   28.8978 C   0  0  2  0  0  0  0  0  0  0  0  0
   10.2202  -14.6714   28.8678 C   0  0  0  0  0  0  0  0  0  0  0  0
    8.6956  -16.6494   28.4731 C   0  0  2  0  0  0  0  0  0  0  0  0
    8.7510  -18.1171   28.5951 N   0  0  0  0  0  0  0  0  0  0  0  0
    8.3815  -16.3693   27.0506 C   0  0  0  0  0  0  0  0  0  0  0  0
    8.5013  -17.2705   26.1497 O   0  0  0  0  0  0  0  0  0  0  0  0
    5.7562  -11.7308   26.0686 C   0  0  0  0  0  0  0  0  0  0  0  0
    5.9046  -13.2381   25.8357 C   0  0  0  0  0  0  0  0  0  0  0  0
    7.1777  -13.4212   25.0590 C   0  0  2  0  0  0  0  0  0  0  0  0
    6.8561  -13.1487   23.5880 C   0  0  0  0  0  0  0  0  0  0  0  0
    7.7262  -14.8291   25.1570 C   0  0  2  0  0  0  0  0  0  0  0  0
    7.9304  -15.1165   26.5568 N   0  0  0  0  0  0  0  0  0  0  0  0
    9.0161  -14.8936   24.4067 C   0  0  0  0  0  0  0  0  0  0  0  0
   10.0486  -14.3072   24.8045 O   0  0  0  0  0  0  0  0  0  0  0  0
   10.6743  -18.1467   23.6359 O   0  0  0  0  0  0  0  0  0  0  0  0
   11.2035  -16.8711   23.4279 C   0  0  0  0  0  0  0  0  0  0  0  0
   10.2559  -16.1152   22.5570 C   0  0  2  0  0  0  0  0  0  0  0  0
    9.0733  -15.6380   23.2135 N   0  0  0  0  0  0  0  0  0  0  0  0
    9.9919  -16.7794   21.2444 C   0  0  0  0  0  0  0  0  0  0  0  0
   10.9799  -17.1418   20.5699 O   0  0  0  0  0  0  0  0  0  0  0  0
    8.7024  -16.9652   20.8246 O   0  0  0  0  0  0  0  0  0  0  0  0
  1  2  1  0
  2  3  1  0
  3  5  1  0
  3  4  1  1
  5  7  1  0
  5  6  1  6
  7  8  2  0
  9 10  1  0
 10 11  1  0
 11 13  1  0
 11 12  1  6
 13 14  1  1
 14  7  1  0
 15 16  2  0
 15 13  1  0
 17 18  1  0
 19 18  1  1
 19 20  1  0
 19 21  1  0
 20 15  1  0
 21 23  1  0
 22 21  2  0
M  END
$$$$
