IIS.pdb
     RDKit          3D

 23 22  0  0  1  0  0  0  0  0999 V2000
    6.9618  -22.0622   26.3577 C   0  0  0  0  0  0  0  0  0  0  0  0
    6.0880  -20.8992   26.0389 C   0  0  0  0  0  0  0  0  0  0  0  0
    6.7995  -19.7289   25.4017 C   0  0  2  0  0  0  0  0  0  0  0  0
    7.9974  -19.4316   26.2384 C   0  0  0  0  0  0  0  0  0  0  0  0
    5.8360  -18.5885   25.2331 C   0  0  2  0  0  0  0  0  0  0  0  0
    4.8352  -19.0501   24.2546 N   0  0  0  0  0  0  0  0  0  0  0  0
    6.4527  -17.3743   24.6448 C   0  0  0  0  0  0  0  0  0  0  0  0
    6.6481  -17.2675   23.3845 O   0  0  0  0  0  0  0  0  0  0  0  0
    6.1222  -12.4246   26.9343 C   0  0  0  0  0  0  0  0  0  0  0  0
    6.1774  -13.4233   25.7733 C   0  0  0  0  0  0  0  0  0  0  0  0
    7.5675  -13.9935   25.7736 C   0  0  2  0  0  0  0  0  0  0  0  0
    8.5071  -12.9014   25.2581 C   0  0  0  0  0  0  0  0  0  0  0  0
    7.7092  -15.1919   24.8590 C   0  0  2  0  0  0  0  0  0  0  0  0
    6.8753  -16.2429   25.3919 N   0  0  0  0  0  0  0  0  0  0  0  0
    9.1429  -15.6100   24.8363 C   0  0  0  0  0  0  0  0  0  0  0  0
    9.7612  -15.9275   25.8780 O   0  0  0  0  0  0  0  0  0  0  0  0
   11.1077  -15.6062   21.1008 O   0  0  0  0  0  0  0  0  0  0  0  0
   11.2585  -16.7332   21.9119 C   0  0  0  0  0  0  0  0  0  0  0  0
   11.0644  -16.3100   23.3300 C   0  0  2  0  0  0  0  0  0  0  0  0
    9.8215  -15.6484   23.6038 N   0  0  0  0  0  0  0  0  0  0  0  0
   12.2557  -15.6246   23.9171 C   0  0  0  0  0  0  0  0  0  0  0  0
   12.0703  -14.5265   24.4849 O   0  0  0  0  0  0  0  0  0  0  0  0
   13.4913  -16.2046   23.8155 O   0  0  0  0  0  0  0  0  0  0  0  0
  1  2  1  0
  2  3  1  0
  3  5  1  0
  3  4  1  1
  5  7  1  0
  5  6  1  6
  7  8  2  0
  9 10  1  0
 10 11  1  0
 11 13  1  0
 11 12  1  6
 13 14  1  1
 14  7  1  0
 15 16  2  0
 15 13  1  0
 17 18  1  0
 19 18  1  6
 19 20  1  0
 19 21  1  0
 20 15  1  0
 21 23  1  0
 22 21  2  0
M  END
$$$$
