IIS.pdb
     RDKit          3D

 23 22  0  0  1  0  0  0  0  0999 V2000
    8.8351  -12.5600   27.7558 C   0  0  0  0  0  0  0  0  0  0  0  0
    8.0182  -13.5986   27.0690 C   0  0  0  0  0  0  0  0  0  0  0  0
    6.9428  -13.0569   26.1567 C   0  0  2  0  0  0  0  0  0  0  0  0
    6.0503  -12.1985   26.9874 C   0  0  0  0  0  0  0  0  0  0  0  0
    6.2627  -14.1965   25.4525 C   0  0  2  0  0  0  0  0  0  0  0  0
    5.9127  -15.1670   26.5050 N   0  0  0  0  0  0  0  0  0  0  0  0
    7.1471  -14.9207   24.5069 C   0  0  0  0  0  0  0  0  0  0  0  0
    7.5793  -16.0976   24.7639 O   0  0  0  0  0  0  0  0  0  0  0  0
    7.5096  -12.4306   19.9080 C   0  0  0  0  0  0  0  0  0  0  0  0
    7.2154  -13.7763   20.5793 C   0  0  0  0  0  0  0  0  0  0  0  0
    8.5346  -14.2978   21.0745 C   0  0  2  0  0  0  0  0  0  0  0  0
    9.1155  -15.1855   19.9717 C   0  0  0  0  0  0  0  0  0  0  0  0
    8.3988  -15.1440   22.3227 C   0  0  2  0  0  0  0  0  0  0  0  0
    7.5906  -14.4025   23.2613 N   0  0  0  0  0  0  0  0  0  0  0  0
    9.7613  -15.3990   22.8789 C   0  0  0  0  0  0  0  0  0  0  0  0
   10.2223  -14.7427   23.8407 O   0  0  0  0  0  0  0  0  0  0  0  0
   10.3217  -19.0330   23.8920 O   0  0  0  0  0  0  0  0  0  0  0  0
   11.0210  -17.8745   24.2375 C   0  0  0  0  0  0  0  0  0  0  0  0
   11.5100  -17.2384   22.9789 C   0  0  2  0  0  0  0  0  0  0  0  0
   10.5534  -16.4101   22.3033 N   0  0  0  0  0  0  0  0  0  0  0  0
   12.2364  -18.1822   22.0759 C   0  0  0  0  0  0  0  0  0  0  0  0
   11.7805  -18.3474   20.9238 O   0  0  0  0  0  0  0  0  0  0  0  0
   13.3552  -18.8284   22.5276 O   0  0  0  0  0  0  0  0  0  0  0  0
  1  2  1  0
  2  3  1  0
  3  5  1  0
  3  4  1  1
  5  7  1  0
  5  6  1  1
  7  8  2  0
  9 10  1  0
 10 11  1  0
 11 13  1  0
 11 12  1  6
 13 14  1  1
 14  7  1  0
 15 16  2  0
 15 13  1  0
 17 18  1  0
 19 18  1  1
 19 20  1  0
 19 21  1  0
 20 15  1  0
 21 23  1  0
 22 21  2  0
M  END
$$$$
