IIS.pdb
     RDKit          3D

 23 22  0  0  1  0  0  0  0  0999 V2000
    7.7943  -17.5569   19.9745 C   0  0  0  0  0  0  0  0  0  0  0  0
    8.0742  -16.1362   20.3223 C   0  0  0  0  0  0  0  0  0  0  0  0
    6.8472  -15.2679   20.4725 C   0  0  2  0  0  0  0  0  0  0  0  0
    6.1065  -15.3226   19.1795 C   0  0  0  0  0  0  0  0  0  0  0  0
    7.2580  -13.8933   20.9186 C   0  0  2  0  0  0  0  0  0  0  0  0
    8.2432  -13.4272   19.9265 N   0  0  0  0  0  0  0  0  0  0  0  0
    7.9577  -13.8796   22.2266 C   0  0  0  0  0  0  0  0  0  0  0  0
    9.2354  -13.8734   22.3011 O   0  0  0  0  0  0  0  0  0  0  0  0
    5.7878  -11.5650   26.6171 C   0  0  0  0  0  0  0  0  0  0  0  0
    6.8448  -11.9766   25.5868 C   0  0  0  0  0  0  0  0  0  0  0  0
    7.1203  -13.4343   25.8248 C   0  0  2  0  0  0  0  0  0  0  0  0
    7.8761  -13.5436   27.1508 C   0  0  0  0  0  0  0  0  0  0  0  0
    7.9888  -14.0498   24.7480 C   0  0  2  0  0  0  0  0  0  0  0  0
    7.3063  -13.8717   23.4885 N   0  0  0  0  0  0  0  0  0  0  0  0
    8.1735  -15.5002   25.0528 C   0  0  0  0  0  0  0  0  0  0  0  0
    7.2602  -16.3394   24.8795 O   0  0  0  0  0  0  0  0  0  0  0  0
   11.0991  -17.3610   23.5690 O   0  0  0  0  0  0  0  0  0  0  0  0
   10.0204  -17.9425   24.2389 C   0  0  0  0  0  0  0  0  0  0  0  0
    9.9004  -17.2880   25.5750 C   0  0  2  0  0  0  0  0  0  0  0  0
    9.4147  -15.9386   25.5512 N   0  0  0  0  0  0  0  0  0  0  0  0
   11.0996  -17.4831   26.4454 C   0  0  0  0  0  0  0  0  0  0  0  0
   11.6262  -16.4641   26.9422 O   0  0  0  0  0  0  0  0  0  0  0  0
   11.5798  -18.7456   26.6667 O   0  0  0  0  0  0  0  0  0  0  0  0
  1  2  1  0
  2  3  1  0
  3  5  1  0
  3  4  1  6
  5  7  1  0
  5  6  1  6
  7  8  2  0
  9 10  1  0
 10 11  1  0
 11 13  1  0
 11 12  1  1
 13 14  1  6
 14  7  1  0
 15 16  2  0
 15 13  1  0
 17 18  1  0
 19 18  1  6
 19 20  1  0
 19 21  1  0
 20 15  1  0
 21 23  1  0
 22 21  2  0
M  END
$$$$
