IIS.pdb
     RDKit          3D

 23 22  0  0  1  0  0  0  0  0999 V2000
    7.5981  -12.1329   28.3740 C   0  0  0  0  0  0  0  0  0  0  0  0
    6.7189  -12.7614   27.3494 C   0  0  0  0  0  0  0  0  0  0  0  0
    7.4284  -13.6847   26.3871 C   0  0  2  0  0  0  0  0  0  0  0  0
    8.6100  -12.9461   25.8564 C   0  0  0  0  0  0  0  0  0  0  0  0
    6.4561  -14.1695   25.3493 C   0  0  2  0  0  0  0  0  0  0  0  0
    5.5315  -15.0732   26.0568 N   0  0  0  0  0  0  0  0  0  0  0  0
    7.0866  -14.9841   24.2818 C   0  0  0  0  0  0  0  0  0  0  0  0
    7.1627  -16.2586   24.3705 O   0  0  0  0  0  0  0  0  0  0  0  0
    7.5501  -12.3048   19.8673 C   0  0  0  0  0  0  0  0  0  0  0  0
    7.1163  -13.6477   20.4644 C   0  0  0  0  0  0  0  0  0  0  0  0
    8.3798  -14.3775   20.8226 C   0  0  2  0  0  0  0  0  0  0  0  0
    8.7374  -15.2764   19.6370 C   0  0  0  0  0  0  0  0  0  0  0  0
    8.2195  -15.2636   22.0400 C   0  0  2  0  0  0  0  0  0  0  0  0
    7.6513  -14.4540   23.0914 N   0  0  0  0  0  0  0  0  0  0  0  0
    9.5632  -15.7824   22.4349 C   0  0  0  0  0  0  0  0  0  0  0  0
   10.4927  -15.0226   22.7914 O   0  0  0  0  0  0  0  0  0  0  0  0
   10.1631  -19.8757   21.9506 O   0  0  0  0  0  0  0  0  0  0  0  0
   10.8817  -19.3061   23.0040 C   0  0  0  0  0  0  0  0  0  0  0  0
   11.0158  -17.8444   22.7335 C   0  0  2  0  0  0  0  0  0  0  0  0
    9.7927  -17.1707   22.4054 N   0  0  0  0  0  0  0  0  0  0  0  0
   12.1537  -17.5071   21.8252 C   0  0  0  0  0  0  0  0  0  0  0  0
   13.3014  -17.8487   22.1837 O   0  0  0  0  0  0  0  0  0  0  0  0
   11.9126  -16.8442   20.6522 O   0  0  0  0  0  0  0  0  0  0  0  0
  1  2  1  0
  2  3  1  0
  3  5  1  0
  3  4  1  6
  5  7  1  0
  5  6  1  1
  7  8  2  0
  9 10  1  0
 10 11  1  0
 11 13  1  0
 11 12  1  6
 13 14  1  1
 14  7  1  0
 15 16  2  0
 15 13  1  0
 17 18  1  0
 19 18  1  6
 19 20  1  0
 19 21  1  0
 20 15  1  0
 21 23  1  0
 22 21  2  0
M  END
$$$$
