IIS.pdb
     RDKit          3D

 23 22  0  0  1  0  0  0  0  0999 V2000
    6.7730  -11.3021   27.9765 C   0  0  0  0  0  0  0  0  0  0  0  0
    6.1120  -12.2965   27.0865 C   0  0  0  0  0  0  0  0  0  0  0  0
    7.0603  -13.1695   26.2987 C   0  0  2  0  0  0  0  0  0  0  0  0
    8.0527  -12.2674   25.6470 C   0  0  0  0  0  0  0  0  0  0  0  0
    6.2754  -14.0430   25.3616 C   0  0  2  0  0  0  0  0  0  0  0  0
    5.5379  -14.9890   26.2178 N   0  0  0  0  0  0  0  0  0  0  0  0
    7.1259  -14.8732   24.4737 C   0  0  0  0  0  0  0  0  0  0  0  0
    7.5494  -16.0244   24.8391 O   0  0  0  0  0  0  0  0  0  0  0  0
    7.6804  -12.8630   19.5482 C   0  0  0  0  0  0  0  0  0  0  0  0
    7.3227  -14.0493   20.4498 C   0  0  0  0  0  0  0  0  0  0  0  0
    8.6158  -14.5335   21.0421 C   0  0  2  0  0  0  0  0  0  0  0  0
    9.2427  -15.5010   20.0359 C   0  0  0  0  0  0  0  0  0  0  0  0
    8.4197  -15.2848   22.3421 C   0  0  2  0  0  0  0  0  0  0  0  0
    7.5438  -14.4916   23.1713 N   0  0  0  0  0  0  0  0  0  0  0  0
    9.7504  -15.4668   22.9953 C   0  0  0  0  0  0  0  0  0  0  0  0
   10.4252  -14.4987   23.4144 O   0  0  0  0  0  0  0  0  0  0  0  0
   10.6254  -18.3681   25.4537 O   0  0  0  0  0  0  0  0  0  0  0  0
   11.5685  -18.4304   24.4256 C   0  0  0  0  0  0  0  0  0  0  0  0
   11.5385  -17.1303   23.6929 C   0  0  2  0  0  0  0  0  0  0  0  0
   10.2630  -16.7691   23.1449 N   0  0  0  0  0  0  0  0  0  0  0  0
   12.6767  -16.9553   22.7402 C   0  0  0  0  0  0  0  0  0  0  0  0
   12.4011  -16.8082   21.5299 O   0  0  0  0  0  0  0  0  0  0  0  0
   13.9624  -16.9644   23.2095 O   0  0  0  0  0  0  0  0  0  0  0  0
  1  2  1  0
  2  3  1  0
  3  5  1  0
  3  4  1  6
  5  7  1  0
  5  6  1  1
  7  8  2  0
  9 10  1  0
 10 11  1  0
 11 13  1  0
 11 12  1  6
 13 14  1  1
 14  7  1  0
 15 16  2  0
 15 13  1  0
 17 18  1  0
 19 18  1  6
 19 20  1  0
 19 21  1  0
 20 15  1  0
 21 23  1  0
 22 21  2  0
M  END
$$$$
