IIS.pdb
     RDKit          3D

 23 22  0  0  1  0  0  0  0  0999 V2000
    4.3030  -21.2701   22.1774 C   0  0  0  0  0  0  0  0  0  0  0  0
    4.1863  -20.1393   23.1394 C   0  0  0  0  0  0  0  0  0  0  0  0
    5.3115  -19.1336   23.0735 C   0  0  2  0  0  0  0  0  0  0  0  0
    6.5907  -19.8979   23.1299 C   0  0  0  0  0  0  0  0  0  0  0  0
    5.1296  -18.1071   24.1553 C   0  0  2  0  0  0  0  0  0  0  0  0
    3.7916  -17.5285   23.9387 N   0  0  0  0  0  0  0  0  0  0  0  0
    6.0839  -16.9748   24.0639 C   0  0  0  0  0  0  0  0  0  0  0  0
    6.5326  -16.5685   22.9362 O   0  0  0  0  0  0  0  0  0  0  0  0
    5.7756  -12.3967   26.6601 C   0  0  0  0  0  0  0  0  0  0  0  0
    6.0545  -13.4588   25.5913 C   0  0  0  0  0  0  0  0  0  0  0  0
    7.3320  -14.1385   25.9958 C   0  0  2  0  0  0  0  0  0  0  0  0
    8.4561  -13.1086   25.8651 C   0  0  0  0  0  0  0  0  0  0  0  0
    7.6781  -15.3130   25.1049 C   0  0  2  0  0  0  0  0  0  0  0  0
    6.5812  -16.2486   25.1783 N   0  0  0  0  0  0  0  0  0  0  0  0
    8.9420  -15.9346   25.6018 C   0  0  0  0  0  0  0  0  0  0  0  0
    8.9490  -16.7936   26.5131 O   0  0  0  0  0  0  0  0  0  0  0  0
   11.4039  -17.9701   22.6006 O   0  0  0  0  0  0  0  0  0  0  0  0
   10.4143  -17.1903   23.2031 C   0  0  0  0  0  0  0  0  0  0  0  0
   11.0600  -16.3683   24.2686 C   0  0  2  0  0  0  0  0  0  0  0  0
   10.1655  -15.5424   25.0271 N   0  0  0  0  0  0  0  0  0  0  0  0
   12.2944  -15.6607   23.8113 C   0  0  0  0  0  0  0  0  0  0  0  0
   12.1783  -14.4700   23.4488 O   0  0  0  0  0  0  0  0  0  0  0  0
   13.4919  -16.3234   23.7990 O   0  0  0  0  0  0  0  0  0  0  0  0
  1  2  1  0
  2  3  1  0
  3  5  1  0
  3  4  1  1
  5  7  1  0
  5  6  1  6
  7  8  2  0
  9 10  1  0
 10 11  1  0
 11 13  1  0
 11 12  1  6
 13 14  1  1
 14  7  1  0
 15 16  2  0
 15 13  1  0
 17 18  1  0
 19 18  1  6
 19 20  1  0
 19 21  1  0
 20 15  1  0
 21 23  1  0
 22 21  2  0
M  END
$$$$
