IIS.pdb
     RDKit          3D

 23 22  0  0  1  0  0  0  0  0999 V2000
    6.2302  -11.0897   27.2088 C   0  0  0  0  0  0  0  0  0  0  0  0
    6.6375  -12.4029   27.7809 C   0  0  0  0  0  0  0  0  0  0  0  0
    7.3983  -13.2983   26.8314 C   0  0  2  0  0  0  0  0  0  0  0  0
    8.5660  -12.5188   26.3293 C   0  0  0  0  0  0  0  0  0  0  0  0
    6.4656  -13.8110   25.7710 C   0  0  2  0  0  0  0  0  0  0  0  0
    5.4869  -14.6598   26.4736 N   0  0  0  0  0  0  0  0  0  0  0  0
    7.1270  -14.6890   24.7748 C   0  0  0  0  0  0  0  0  0  0  0  0
    7.4031  -15.9105   25.0393 O   0  0  0  0  0  0  0  0  0  0  0  0
    7.4477  -12.5117   19.9127 C   0  0  0  0  0  0  0  0  0  0  0  0
    7.0373  -13.7142   20.7692 C   0  0  0  0  0  0  0  0  0  0  0  0
    8.3139  -14.3613   21.2265 C   0  0  2  0  0  0  0  0  0  0  0  0
    8.7455  -15.3394   20.1317 C   0  0  0  0  0  0  0  0  0  0  0  0
    8.1445  -15.1502   22.5078 C   0  0  2  0  0  0  0  0  0  0  0  0
    7.5091  -14.2810   23.4693 N   0  0  0  0  0  0  0  0  0  0  0  0
    9.4922  -15.5795   22.9874 C   0  0  0  0  0  0  0  0  0  0  0  0
   10.3686  -14.7562   23.3373 O   0  0  0  0  0  0  0  0  0  0  0  0
   10.0637  -19.6788   23.3470 O   0  0  0  0  0  0  0  0  0  0  0  0
   10.8770  -18.8778   24.1516 C   0  0  0  0  0  0  0  0  0  0  0  0
   11.0168  -17.5485   23.4873 C   0  0  2  0  0  0  0  0  0  0  0  0
    9.7872  -16.9544   23.0483 N   0  0  0  0  0  0  0  0  0  0  0  0
   12.1080  -17.5026   22.4670 C   0  0  0  0  0  0  0  0  0  0  0  0
   11.7993  -17.1632   21.3042 O   0  0  0  0  0  0  0  0  0  0  0  0
   13.3875  -17.8301   22.8261 O   0  0  0  0  0  0  0  0  0  0  0  0
  1  2  1  0
  2  3  1  0
  3  5  1  0
  3  4  1  6
  5  7  1  0
  5  6  1  1
  7  8  2  0
  9 10  1  0
 10 11  1  0
 11 13  1  0
 11 12  1  6
 13 14  1  1
 14  7  1  0
 15 16  2  0
 15 13  1  0
 17 18  1  0
 19 18  1  6
 19 20  1  0
 19 21  1  0
 20 15  1  0
 21 23  1  0
 22 21  2  0
M  END
$$$$
