KIG.pdb
     RDKit          3D

 22 21  0  0  1  0  0  0  0  0999 V2000
   21.0268  -19.4454  -14.4653 N   0  0  0  0  0  0  0  0  0  0  0  0
   21.8774  -20.5810  -14.3409 C   0  0  1  0  0  0  0  0  0  0  0  0
   22.0257  -21.4170  -15.5616 C   0  0  0  0  0  0  0  0  0  0  0  0
   21.1391  -21.0175  -16.6869 C   0  0  0  0  0  0  0  0  0  0  0  0
   21.2064  -21.8788  -17.9018 C   0  0  0  0  0  0  0  0  0  0  0  0
   20.9905  -23.3414  -17.4738 C   0  0  0  0  0  0  0  0  0  0  0  0
   20.9886  -24.1960  -18.6399 N   0  0  0  0  0  0  0  0  0  0  0  0
   23.1882  -20.1537  -13.7796 C   0  0  0  0  0  0  0  0  0  0  0  0
   23.5547  -18.9592  -14.0509 O   0  0  0  0  0  0  0  0  0  0  0  0
   23.8076  -21.3810   -9.0535 C   0  0  0  0  0  0  0  0  0  0  0  0
   24.4936  -20.4870  -10.0158 C   0  0  0  0  0  0  0  0  0  0  0  0
   25.3974  -21.1194  -11.0241 C   0  0  2  0  0  0  0  0  0  0  0  0
   26.8218  -20.7315  -10.5760 C   0  0  0  0  0  0  0  0  0  0  0  0
   25.2430  -20.5792  -12.4367 C   0  0  2  0  0  0  0  0  0  0  0  0
   23.9700  -21.0217  -12.9975 N   0  0  0  0  0  0  0  0  0  0  0  0
   26.3134  -21.1986  -13.2601 C   0  0  0  0  0  0  0  0  0  0  0  0
   26.2563  -22.4808  -13.3686 O   0  0  0  0  0  0  0  0  0  0  0  0
   27.3484  -20.5181  -13.9141 N   0  0  0  0  0  0  0  0  0  0  0  0
   28.3167  -21.3306  -14.6760 C   0  0  0  0  0  0  0  0  0  0  0  0
   28.0371  -21.2766  -16.1119 C   0  0  0  0  0  0  0  0  0  0  0  0
   26.8611  -21.0891  -16.5005 O   0  0  0  0  0  0  0  0  0  0  0  0
   29.0616  -21.4314  -17.0059 O   0  0  0  0  0  0  0  0  0  0  0  0
  2  1  1  6
  3  2  1  0
  4  3  1  0
  5  4  1  0
  6  5  1  0
  7  6  1  0
  8  2  1  0
  8  9  2  0
 11 10  1  0
 12 11  1  0
 12 13  1  1
 14 15  1  6
 14 12  1  0
 15  8  1  0
 16 14  1  0
 17 16  2  0
 18 16  1  0
 19 18  1  0
 20 19  1  0
 20 22  1  0
 21 20  2  0
M  END
$$$$
