KIG.pdb
     RDKit          3D

 22 21  0  0  1  0  0  0  0  0999 V2000
   24.4347  -25.3565  -14.3031 N   0  0  0  0  0  0  0  0  0  0  0  0
   24.0543  -24.3515  -15.2380 C   0  0  1  0  0  0  0  0  0  0  0  0
   22.7310  -23.7153  -15.0037 C   0  0  0  0  0  0  0  0  0  0  0  0
   21.6054  -24.6782  -14.8703 C   0  0  0  0  0  0  0  0  0  0  0  0
   21.3575  -25.5527  -16.0520 C   0  0  0  0  0  0  0  0  0  0  0  0
   20.0810  -26.3721  -15.7914 C   0  0  0  0  0  0  0  0  0  0  0  0
   19.8744  -27.3105  -16.8718 N   0  0  0  0  0  0  0  0  0  0  0  0
   25.1527  -23.3544  -15.3612 C   0  0  0  0  0  0  0  0  0  0  0  0
   25.4065  -22.6636  -14.3156 O   0  0  0  0  0  0  0  0  0  0  0  0
   29.0758  -25.2917  -16.8901 C   0  0  0  0  0  0  0  0  0  0  0  0
   28.7672  -23.9708  -16.2939 C   0  0  0  0  0  0  0  0  0  0  0  0
   28.2024  -22.9203  -17.1945 C   0  0  2  0  0  0  0  0  0  0  0  0
   29.2937  -21.8323  -17.2651 C   0  0  0  0  0  0  0  0  0  0  0  0
   26.9593  -22.2299  -16.6569 C   0  0  2  0  0  0  0  0  0  0  0  0
   25.8636  -23.1899  -16.5629 N   0  0  0  0  0  0  0  0  0  0  0  0
   26.5549  -21.2141  -17.6628 C   0  0  0  0  0  0  0  0  0  0  0  0
   27.3784  -20.2369  -17.8245 O   0  0  0  0  0  0  0  0  0  0  0  0
   25.3845  -21.2358  -18.4320 N   0  0  0  0  0  0  0  0  0  0  0  0
   25.1965  -20.1454  -19.4088 C   0  0  0  0  0  0  0  0  0  0  0  0
   24.3193  -19.1028  -18.8740 C   0  0  0  0  0  0  0  0  0  0  0  0
   23.9252  -19.1827  -17.6876 O   0  0  0  0  0  0  0  0  0  0  0  0
   23.9438  -18.0591  -19.6756 O   0  0  0  0  0  0  0  0  0  0  0  0
  2  1  1  1
  3  2  1  0
  4  3  1  0
  5  4  1  0
  6  5  1  0
  7  6  1  0
  8  2  1  0
  8  9  2  0
 11 10  1  0
 12 11  1  0
 12 13  1  1
 14 15  1  6
 14 12  1  0
 15  8  1  0
 16 14  1  0
 17 16  2  0
 18 16  1  0
 19 18  1  0
 20 19  1  0
 20 22  1  0
 21 20  2  0
M  END
$$$$
