KIG.pdb
     RDKit          3D

 22 21  0  0  1  0  0  0  0  0999 V2000
   24.0029  -20.9798   -9.1835 N   0  0  0  0  0  0  0  0  0  0  0  0
   23.8249  -20.6832  -10.5652 C   0  0  1  0  0  0  0  0  0  0  0  0
   22.6086  -19.9000  -10.9089 C   0  0  0  0  0  0  0  0  0  0  0  0
   21.6322  -20.6303  -11.7604 C   0  0  0  0  0  0  0  0  0  0  0  0
   21.0367  -21.8567  -11.1572 C   0  0  0  0  0  0  0  0  0  0  0  0
   20.1460  -22.5349  -12.2134 C   0  0  0  0  0  0  0  0  0  0  0  0
   19.5230  -23.7093  -11.6450 N   0  0  0  0  0  0  0  0  0  0  0  0
   25.0700  -20.0669  -11.0995 C   0  0  0  0  0  0  0  0  0  0  0  0
   25.4927  -19.0280  -10.4859 O   0  0  0  0  0  0  0  0  0  0  0  0
   28.4398  -21.3235  -10.1753 C   0  0  0  0  0  0  0  0  0  0  0  0
   28.9721  -20.8264  -11.4657 C   0  0  0  0  0  0  0  0  0  0  0  0
   28.1018  -20.9659  -12.6726 C   0  0  2  0  0  0  0  0  0  0  0  0
   29.0194  -20.6199  -13.8634 C   0  0  0  0  0  0  0  0  0  0  0  0
   26.9470  -19.9791  -12.7355 C   0  0  2  0  0  0  0  0  0  0  0  0
   25.7349  -20.6046  -12.2155 N   0  0  0  0  0  0  0  0  0  0  0  0
   26.6986  -19.6892  -14.1712 C   0  0  0  0  0  0  0  0  0  0  0  0
   25.7211  -20.3358  -14.7054 O   0  0  0  0  0  0  0  0  0  0  0  0
   27.4191  -18.7898  -14.9674 N   0  0  0  0  0  0  0  0  0  0  0  0
   26.8747  -18.4837  -16.3046 C   0  0  0  0  0  0  0  0  0  0  0  0
   27.3751  -19.4258  -17.3069 C   0  0  0  0  0  0  0  0  0  0  0  0
   28.5893  -19.7340  -17.3059 O   0  0  0  0  0  0  0  0  0  0  0  0
   26.5117  -19.9546  -18.2276 O   0  0  0  0  0  0  0  0  0  0  0  0
  2  1  1  1
  3  2  1  0
  4  3  1  0
  5  4  1  0
  6  5  1  0
  7  6  1  0
  8  2  1  0
  8  9  2  0
 11 10  1  0
 12 11  1  0
 12 13  1  6
 14 15  1  6
 14 12  1  0
 15  8  1  0
 16 14  1  0
 17 16  2  0
 18 16  1  0
 19 18  1  0
 20 19  1  0
 20 22  1  0
 21 20  2  0
M  END
$$$$
