KIG.pdb
     RDKit          3D

 22 21  0  0  1  0  0  0  0  0999 V2000
   28.0412  -21.8572  -14.9792 N   0  0  0  0  0  0  0  0  0  0  0  0
   27.7530  -20.7415  -14.1421 C   0  0  1  0  0  0  0  0  0  0  0  0
   27.3383  -19.4964  -14.8410 C   0  0  0  0  0  0  0  0  0  0  0  0
   27.4676  -19.5549  -16.3214 C   0  0  0  0  0  0  0  0  0  0  0  0
   28.2952  -18.4816  -16.9424 C   0  0  0  0  0  0  0  0  0  0  0  0
   27.4053  -17.6783  -17.9076 C   0  0  0  0  0  0  0  0  0  0  0  0
   28.1965  -16.6692  -18.5755 N   0  0  0  0  0  0  0  0  0  0  0  0
   26.7848  -21.1543  -13.0896 C   0  0  0  0  0  0  0  0  0  0  0  0
   26.0415  -22.1562  -13.3695 O   0  0  0  0  0  0  0  0  0  0  0  0
   27.8785  -19.7128   -7.8215 C   0  0  0  0  0  0  0  0  0  0  0  0
   27.3894  -20.5342   -8.9536 C   0  0  0  0  0  0  0  0  0  0  0  0
   26.0529  -20.1933   -9.5288 C   0  0  2  0  0  0  0  0  0  0  0  0
   25.0328  -20.7392   -8.5085 C   0  0  0  0  0  0  0  0  0  0  0  0
   25.7372  -20.8853  -10.8451 C   0  0  2  0  0  0  0  0  0  0  0  0
   26.7009  -20.4746  -11.8618 N   0  0  0  0  0  0  0  0  0  0  0  0
   24.4080  -20.3924  -11.2894 C   0  0  0  0  0  0  0  0  0  0  0  0
   24.3810  -19.1747  -11.7084 O   0  0  0  0  0  0  0  0  0  0  0  0
   23.2155  -21.1272  -11.2939 N   0  0  0  0  0  0  0  0  0  0  0  0
   22.0127  -20.4616  -11.8311 C   0  0  0  0  0  0  0  0  0  0  0  0
   21.5982  -21.0635  -13.0994 C   0  0  0  0  0  0  0  0  0  0  0  0
   22.3191  -21.9429  -13.6249 O   0  0  0  0  0  0  0  0  0  0  0  0
   20.4326  -20.6577  -13.6907 O   0  0  0  0  0  0  0  0  0  0  0  0
  2  1  1  6
  3  2  1  0
  4  3  1  0
  5  4  1  0
  6  5  1  0
  7  6  1  0
  8  2  1  0
  8  9  2  0
 11 10  1  0
 12 11  1  0
 12 13  1  1
 14 15  1  6
 14 12  1  0
 15  8  1  0
 16 14  1  0
 17 16  2  0
 18 16  1  0
 19 18  1  0
 20 19  1  0
 20 22  1  0
 21 20  2  0
M  END
$$$$
