KIG.pdb
     RDKit          3D

 22 21  0  0  1  0  0  0  0  0999 V2000
   14.1485  -10.0952  -13.9185 N   0  0  0  0  0  0  0  0  0  0  0  0
   15.3555  -10.1800  -13.1670 C   0  0  1  0  0  0  0  0  0  0  0  0
   16.4717  -10.9190  -13.8140 C   0  0  0  0  0  0  0  0  0  0  0  0
   16.1420  -12.3210  -14.1852 C   0  0  0  0  0  0  0  0  0  0  0  0
   17.2278  -13.0837  -14.8647 C   0  0  0  0  0  0  0  0  0  0  0  0
   16.7249  -14.5139  -15.1302 C   0  0  0  0  0  0  0  0  0  0  0  0
   17.7487  -15.2724  -15.8134 N   0  0  0  0  0  0  0  0  0  0  0  0
   15.7553   -8.8162  -12.7244 C   0  0  0  0  0  0  0  0  0  0  0  0
   15.2860   -7.8422  -13.4068 O   0  0  0  0  0  0  0  0  0  0  0  0
   14.4568   -7.8916   -8.4251 C   0  0  0  0  0  0  0  0  0  0  0  0
   15.0784   -6.9900   -9.4233 C   0  0  0  0  0  0  0  0  0  0  0  0
   16.5426   -7.1458   -9.6791 C   0  0  2  0  0  0  0  0  0  0  0  0
   17.1706   -5.8212   -9.1989 C   0  0  0  0  0  0  0  0  0  0  0  0
   16.9165   -7.2767  -11.1468 C   0  0  2  0  0  0  0  0  0  0  0  0
   16.6008   -8.6218  -11.6181 N   0  0  0  0  0  0  0  0  0  0  0  0
   18.3917   -7.1256  -11.2364 C   0  0  0  0  0  0  0  0  0  0  0  0
   19.0777   -7.9757  -10.5538 O   0  0  0  0  0  0  0  0  0  0  0  0
   19.0778   -6.1624  -11.9871 N   0  0  0  0  0  0  0  0  0  0  0  0
   20.5511   -6.2470  -12.0116 C   0  0  0  0  0  0  0  0  0  0  0  0
   21.1307   -5.1435  -12.7789 C   0  0  0  0  0  0  0  0  0  0  0  0
   20.3725   -4.3705  -13.4088 O   0  0  0  0  0  0  0  0  0  0  0  0
   22.4885   -4.9729  -12.7968 O   0  0  0  0  0  0  0  0  0  0  0  0
  2  1  1  6
  3  2  1  0
  4  3  1  0
  5  4  1  0
  6  5  1  0
  7  6  1  0
  8  2  1  0
  8  9  2  0
 11 10  1  0
 12 11  1  0
 12 13  1  6
 14 15  1  1
 14 12  1  0
 15  8  1  0
 16 14  1  0
 17 16  2  0
 18 16  1  0
 19 18  1  0
 20 19  1  0
 20 22  1  0
 21 20  2  0
M  END
$$$$
