KIG.pdb
     RDKit          3D

 22 21  0  0  1  0  0  0  0  0999 V2000
   22.8591  -15.4942  -16.0669 N   0  0  0  0  0  0  0  0  0  0  0  0
   23.6728  -14.3736  -15.7342 C   0  0  1  0  0  0  0  0  0  0  0  0
   25.1413  -14.6032  -15.7765 C   0  0  0  0  0  0  0  0  0  0  0  0
   25.5322  -15.9931  -16.1331 C   0  0  0  0  0  0  0  0  0  0  0  0
   26.6025  -16.6010  -15.2921 C   0  0  0  0  0  0  0  0  0  0  0  0
   26.9726  -17.9700  -15.8903 C   0  0  0  0  0  0  0  0  0  0  0  0
   28.0182  -18.5811  -15.1008 N   0  0  0  0  0  0  0  0  0  0  0  0
   23.2548  -13.2028  -16.5529 C   0  0  0  0  0  0  0  0  0  0  0  0
   23.8795  -13.0346  -17.6557 O   0  0  0  0  0  0  0  0  0  0  0  0
   19.0655  -13.7339  -17.2908 C   0  0  0  0  0  0  0  0  0  0  0  0
   19.7002  -12.5772  -17.9652 C   0  0  0  0  0  0  0  0  0  0  0  0
   20.1803  -11.4532  -17.1052 C   0  0  2  0  0  0  0  0  0  0  0  0
   19.6797  -10.1752  -17.8095 C   0  0  0  0  0  0  0  0  0  0  0  0
   21.6927  -11.3205  -17.0261 C   0  0  2  0  0  0  0  0  0  0  0  0
   22.2307  -12.3382  -16.1284 N   0  0  0  0  0  0  0  0  0  0  0  0
   21.9832  -10.0028  -16.4045 C   0  0  0  0  0  0  0  0  0  0  0  0
   21.8847   -8.9866  -17.1898 O   0  0  0  0  0  0  0  0  0  0  0  0
   22.3408   -9.7823  -15.0682 N   0  0  0  0  0  0  0  0  0  0  0  0
   22.6471   -8.3946  -14.6699 C   0  0  0  0  0  0  0  0  0  0  0  0
   21.4840   -7.7527  -14.0553 C   0  0  0  0  0  0  0  0  0  0  0  0
   20.3638   -8.3074  -14.1364 O   0  0  0  0  0  0  0  0  0  0  0  0
   21.6371   -6.5593  -13.4031 O   0  0  0  0  0  0  0  0  0  0  0  0
  2  1  1  6
  3  2  1  0
  4  3  1  0
  5  4  1  0
  6  5  1  0
  7  6  1  0
  8  2  1  0
  8  9  2  0
 11 10  1  0
 12 11  1  0
 12 13  1  6
 14 15  1  1
 14 12  1  0
 15  8  1  0
 16 14  1  0
 17 16  2  0
 18 16  1  0
 19 18  1  0
 20 19  1  0
 20 22  1  0
 21 20  2  0
M  END
$$$$
