KIG.pdb
     RDKit          3D

 22 21  0  0  1  0  0  0  0  0999 V2000
   27.5695  -20.3631  -16.6409 N   0  0  0  0  0  0  0  0  0  0  0  0
   26.6081  -19.6592  -15.8606 C   0  0  1  0  0  0  0  0  0  0  0  0
   25.4670  -19.0725  -16.6119 C   0  0  0  0  0  0  0  0  0  0  0  0
   25.8272  -17.8983  -17.4506 C   0  0  0  0  0  0  0  0  0  0  0  0
   27.0519  -18.0507  -18.2869 C   0  0  0  0  0  0  0  0  0  0  0  0
   27.2050  -16.7919  -19.1592 C   0  0  0  0  0  0  0  0  0  0  0  0
   28.3227  -16.9563  -20.0615 N   0  0  0  0  0  0  0  0  0  0  0  0
   26.1643  -20.5227  -14.7322 C   0  0  0  0  0  0  0  0  0  0  0  0
   26.1592  -21.7817  -14.9544 O   0  0  0  0  0  0  0  0  0  0  0  0
   27.9131  -21.4622  -11.0256 C   0  0  0  0  0  0  0  0  0  0  0  0
   27.1652  -20.2120  -10.7547 C   0  0  0  0  0  0  0  0  0  0  0  0
   25.7046  -20.1974  -11.0711 C   0  0  2  0  0  0  0  0  0  0  0  0
   25.0565  -21.0819   -9.9859 C   0  0  0  0  0  0  0  0  0  0  0  0
   25.3407  -20.8360  -12.4018 C   0  0  2  0  0  0  0  0  0  0  0  0
   25.7752  -19.9747  -13.4974 N   0  0  0  0  0  0  0  0  0  0  0  0
   23.8577  -20.8967  -12.4656 C   0  0  0  0  0  0  0  0  0  0  0  0
   23.3035  -21.7427  -11.6679 O   0  0  0  0  0  0  0  0  0  0  0  0
   23.0359  -20.1252  -13.2971 N   0  0  0  0  0  0  0  0  0  0  0  0
   21.5782  -20.2253  -13.0892 C   0  0  0  0  0  0  0  0  0  0  0  0
   20.9682  -21.1386  -14.0569 C   0  0  0  0  0  0  0  0  0  0  0  0
   21.7006  -21.7488  -14.8695 O   0  0  0  0  0  0  0  0  0  0  0  0
   19.6106  -21.3118  -14.0597 O   0  0  0  0  0  0  0  0  0  0  0  0
  2  1  1  6
  3  2  1  0
  4  3  1  0
  5  4  1  0
  6  5  1  0
  7  6  1  0
  8  2  1  0
  8  9  2  0
 11 10  1  0
 12 11  1  0
 12 13  1  1
 14 15  1  6
 14 12  1  0
 15  8  1  0
 16 14  1  0
 17 16  2  0
 18 16  1  0
 19 18  1  0
 20 19  1  0
 20 22  1  0
 21 20  2  0
M  END
$$$$
