KIG.pdb
     RDKit          3D

 22 21  0  0  1  0  0  0  0  0999 V2000
   27.0737  -21.7939  -15.7497 N   0  0  0  0  0  0  0  0  0  0  0  0
   26.3159  -20.7027  -15.2362 C   0  0  1  0  0  0  0  0  0  0  0  0
   25.7017  -19.8055  -16.2503 C   0  0  0  0  0  0  0  0  0  0  0  0
   26.6672  -19.2392  -17.2296 C   0  0  0  0  0  0  0  0  0  0  0  0
   26.6679  -19.8725  -18.5791 C   0  0  0  0  0  0  0  0  0  0  0  0
   25.3106  -19.5925  -19.2485 C   0  0  0  0  0  0  0  0  0  0  0  0
   25.2927  -20.1675  -20.5750 N   0  0  0  0  0  0  0  0  0  0  0  0
   25.3236  -21.2142  -14.2515 C   0  0  0  0  0  0  0  0  0  0  0  0
   24.9005  -22.4051  -14.4448 O   0  0  0  0  0  0  0  0  0  0  0  0
   26.4713  -20.1617   -9.7983 C   0  0  0  0  0  0  0  0  0  0  0  0
   25.4050  -21.0793  -10.2637 C   0  0  0  0  0  0  0  0  0  0  0  0
   24.1710  -20.4679  -10.8441 C   0  0  2  0  0  0  0  0  0  0  0  0
   23.0177  -20.9971   -9.9667 C   0  0  0  0  0  0  0  0  0  0  0  0
   23.8536  -20.9125  -12.2628 C   0  0  2  0  0  0  0  0  0  0  0  0
   24.8838  -20.4246  -13.1747 N   0  0  0  0  0  0  0  0  0  0  0  0
   22.5839  -20.2480  -12.6545 C   0  0  0  0  0  0  0  0  0  0  0  0
   22.6157  -18.9606  -12.6732 O   0  0  0  0  0  0  0  0  0  0  0  0
   21.3890  -20.8919  -13.0007 N   0  0  0  0  0  0  0  0  0  0  0  0
   20.2718  -20.0438  -13.4599 C   0  0  0  0  0  0  0  0  0  0  0  0
   19.2101  -19.9789  -12.4543 C   0  0  0  0  0  0  0  0  0  0  0  0
   19.2811  -20.7108  -11.4402 O   0  0  0  0  0  0  0  0  0  0  0  0
   18.1587  -19.1220  -12.6363 O   0  0  0  0  0  0  0  0  0  0  0  0
  2  1  1  6
  3  2  1  0
  4  3  1  0
  5  4  1  0
  6  5  1  0
  7  6  1  0
  8  2  1  0
  8  9  2  0
 11 10  1  0
 12 11  1  0
 12 13  1  1
 14 15  1  6
 14 12  1  0
 15  8  1  0
 16 14  1  0
 17 16  2  0
 18 16  1  0
 19 18  1  0
 20 19  1  0
 20 22  1  0
 21 20  2  0
M  END
$$$$
