KIG.pdb
     RDKit          3D

 22 21  0  0  1  0  0  0  0  0999 V2000
   24.3544  -25.5889  -15.2590 N   0  0  0  0  0  0  0  0  0  0  0  0
   24.9862  -24.3148  -15.1807 C   0  0  1  0  0  0  0  0  0  0  0  0
   24.9982  -23.5187  -16.4364 C   0  0  0  0  0  0  0  0  0  0  0  0
   25.9563  -24.0103  -17.4622 C   0  0  0  0  0  0  0  0  0  0  0  0
   27.2602  -24.5129  -16.9428 C   0  0  0  0  0  0  0  0  0  0  0  0
   28.1346  -24.9251  -18.1404 C   0  0  0  0  0  0  0  0  0  0  0  0
   29.3583  -25.5314  -17.6657 N   0  0  0  0  0  0  0  0  0  0  0  0
   24.4225  -23.5569  -14.0303 C   0  0  0  0  0  0  0  0  0  0  0  0
   23.2571  -23.9094  -13.6400 O   0  0  0  0  0  0  0  0  0  0  0  0
   24.7800  -20.8299   -9.1677 C   0  0  0  0  0  0  0  0  0  0  0  0
   25.1861  -20.1714  -10.4315 C   0  0  0  0  0  0  0  0  0  0  0  0
   25.6674  -21.0461  -11.5435 C   0  0  2  0  0  0  0  0  0  0  0  0
   26.3079  -20.0775  -12.5591 C   0  0  0  0  0  0  0  0  0  0  0  0
   24.5650  -21.7721  -12.2978 C   0  0  2  0  0  0  0  0  0  0  0  0
   25.1389  -22.5150  -13.4156 N   0  0  0  0  0  0  0  0  0  0  0  0
   23.6790  -20.7328  -12.8827 C   0  0  0  0  0  0  0  0  0  0  0  0
   23.1449  -19.9211  -12.0372 O   0  0  0  0  0  0  0  0  0  0  0  0
   23.3900  -20.5662  -14.2431 N   0  0  0  0  0  0  0  0  0  0  0  0
   22.6650  -19.3421  -14.6358 C   0  0  0  0  0  0  0  0  0  0  0  0
   21.2190  -19.5687  -14.6570 C   0  0  0  0  0  0  0  0  0  0  0  0
   20.7734  -20.7085  -14.3898 O   0  0  0  0  0  0  0  0  0  0  0  0
   20.3777  -18.5349  -14.9675 O   0  0  0  0  0  0  0  0  0  0  0  0
  2  1  1  6
  3  2  1  0
  4  3  1  0
  5  4  1  0
  6  5  1  0
  7  6  1  0
  8  2  1  0
  8  9  2  0
 11 10  1  0
 12 11  1  0
 12 13  1  6
 14 15  1  6
 14 12  1  0
 15  8  1  0
 16 14  1  0
 17 16  2  0
 18 16  1  0
 19 18  1  0
 20 19  1  0
 20 22  1  0
 21 20  2  0
M  END
$$$$
