KIG.pdb
     RDKit          3D

 22 21  0  0  1  0  0  0  0  0999 V2000
   20.6820  -20.7284  -12.0248 N   0  0  0  0  0  0  0  0  0  0  0  0
   21.6911  -20.9878  -12.9960 C   0  0  1  0  0  0  0  0  0  0  0  0
   21.3394  -20.6546  -14.4017 C   0  0  0  0  0  0  0  0  0  0  0  0
   20.4935  -21.6741  -15.0777 C   0  0  0  0  0  0  0  0  0  0  0  0
   20.9158  -23.0918  -14.8934 C   0  0  0  0  0  0  0  0  0  0  0  0
   20.0324  -23.9824  -15.7852 C   0  0  0  0  0  0  0  0  0  0  0  0
   20.4431  -25.3627  -15.6560 N   0  0  0  0  0  0  0  0  0  0  0  0
   22.9657  -20.3535  -12.5613 C   0  0  0  0  0  0  0  0  0  0  0  0
   22.9105  -19.1049  -12.2922 O   0  0  0  0  0  0  0  0  0  0  0  0
   24.5887  -20.3848   -9.1070 C   0  0  0  0  0  0  0  0  0  0  0  0
   25.9291  -20.8327   -9.5524 C   0  0  0  0  0  0  0  0  0  0  0  0
   26.0600  -21.3359  -10.9535 C   0  0  2  0  0  0  0  0  0  0  0  0
   27.5718  -21.2769  -11.2548 C   0  0  0  0  0  0  0  0  0  0  0  0
   25.3913  -20.4624  -12.0028 C   0  0  2  0  0  0  0  0  0  0  0  0
   24.1559  -21.0943  -12.4562 N   0  0  0  0  0  0  0  0  0  0  0  0
   26.3032  -20.4125  -13.1746 C   0  0  0  0  0  0  0  0  0  0  0  0
   26.5309  -21.5435  -13.7473 O   0  0  0  0  0  0  0  0  0  0  0  0
   26.9144  -19.2648  -13.6955 N   0  0  0  0  0  0  0  0  0  0  0  0
   27.7325  -19.4273  -14.9130 C   0  0  0  0  0  0  0  0  0  0  0  0
   26.9293  -19.2248  -16.1199 C   0  0  0  0  0  0  0  0  0  0  0  0
   25.6803  -19.2008  -16.0278 O   0  0  0  0  0  0  0  0  0  0  0  0
   27.5530  -19.0650  -17.3275 O   0  0  0  0  0  0  0  0  0  0  0  0
  2  1  1  1
  3  2  1  0
  4  3  1  0
  5  4  1  0
  6  5  1  0
  7  6  1  0
  8  2  1  0
  8  9  2  0
 11 10  1  0
 12 11  1  0
 12 13  1  6
 14 15  1  6
 14 12  1  0
 15  8  1  0
 16 14  1  0
 17 16  2  0
 18 16  1  0
 19 18  1  0
 20 19  1  0
 20 22  1  0
 21 20  2  0
M  END
$$$$
