KIG.pdb
     RDKit          3D

 22 21  0  0  1  0  0  0  0  0999 V2000
   28.2073  -20.7465  -14.9118 N   0  0  0  0  0  0  0  0  0  0  0  0
   27.8129  -19.8804  -13.8521 C   0  0  1  0  0  0  0  0  0  0  0  0
   27.4198  -18.5034  -14.2522 C   0  0  0  0  0  0  0  0  0  0  0  0
   27.8917  -18.1021  -15.6044 C   0  0  0  0  0  0  0  0  0  0  0  0
   26.8716  -18.1598  -16.6900 C   0  0  0  0  0  0  0  0  0  0  0  0
   27.5363  -17.7177  -18.0059 C   0  0  0  0  0  0  0  0  0  0  0  0
   26.6033  -17.8713  -19.0997 N   0  0  0  0  0  0  0  0  0  0  0  0
   26.7718  -20.5542  -13.0287 C   0  0  0  0  0  0  0  0  0  0  0  0
   26.2634  -21.6178  -13.5235 O   0  0  0  0  0  0  0  0  0  0  0  0
   27.2157  -20.0630   -7.6098 C   0  0  0  0  0  0  0  0  0  0  0  0
   26.8749  -20.6717   -8.9171 C   0  0  0  0  0  0  0  0  0  0  0  0
   25.5438  -20.3386   -9.5092 C   0  0  2  0  0  0  0  0  0  0  0  0
   24.5347  -21.2003   -8.7223 C   0  0  0  0  0  0  0  0  0  0  0  0
   25.3842  -20.7369  -10.9676 C   0  0  2  0  0  0  0  0  0  0  0  0
   26.3778  -20.0417  -11.7803 N   0  0  0  0  0  0  0  0  0  0  0  0
   24.0517  -20.2507  -11.4094 C   0  0  0  0  0  0  0  0  0  0  0  0
   23.7330  -19.0688  -11.0087 O   0  0  0  0  0  0  0  0  0  0  0  0
   23.1413  -20.9531  -12.2093 N   0  0  0  0  0  0  0  0  0  0  0  0
   21.8528  -20.2967  -12.5040 C   0  0  0  0  0  0  0  0  0  0  0  0
   21.0412  -21.1097  -13.4112 C   0  0  0  0  0  0  0  0  0  0  0  0
   21.5002  -22.1939  -13.8388 O   0  0  0  0  0  0  0  0  0  0  0  0
   19.7964  -20.6746  -13.7777 O   0  0  0  0  0  0  0  0  0  0  0  0
  2  1  1  6
  3  2  1  0
  4  3  1  0
  5  4  1  0
  6  5  1  0
  7  6  1  0
  8  2  1  0
  8  9  2  0
 11 10  1  0
 12 11  1  0
 12 13  1  1
 14 15  1  6
 14 12  1  0
 15  8  1  0
 16 14  1  0
 17 16  2  0
 18 16  1  0
 19 18  1  0
 20 19  1  0
 20 22  1  0
 21 20  2  0
M  END
$$$$
