KIG.pdb
     RDKit          3D

 22 21  0  0  1  0  0  0  0  0999 V2000
   27.4402  -21.2501  -14.5756 N   0  0  0  0  0  0  0  0  0  0  0  0
   26.8306  -20.2204  -13.8032 C   0  0  1  0  0  0  0  0  0  0  0  0
   25.8171  -19.3932  -14.5100 C   0  0  0  0  0  0  0  0  0  0  0  0
   26.3312  -18.7011  -15.7219 C   0  0  0  0  0  0  0  0  0  0  0  0
   26.9917  -17.3857  -15.4855 C   0  0  0  0  0  0  0  0  0  0  0  0
   26.0095  -16.2696  -15.8837 C   0  0  0  0  0  0  0  0  0  0  0  0
   26.6478  -14.9811  -15.7336 N   0  0  0  0  0  0  0  0  0  0  0  0
   26.3094  -20.8006  -12.5353 C   0  0  0  0  0  0  0  0  0  0  0  0
   25.9539  -22.0279  -12.5817 O   0  0  0  0  0  0  0  0  0  0  0  0
   26.3566  -21.4770   -7.0710 C   0  0  0  0  0  0  0  0  0  0  0  0
   25.7166  -20.2515   -7.6041 C   0  0  0  0  0  0  0  0  0  0  0  0
   26.1726  -19.7577   -8.9389 C   0  0  2  0  0  0  0  0  0  0  0  0
   25.4367  -18.4163   -9.1363 C   0  0  0  0  0  0  0  0  0  0  0  0
   25.7618  -20.6351  -10.1105 C   0  0  2  0  0  0  0  0  0  0  0  0
   26.2178  -20.0342  -11.3603 N   0  0  0  0  0  0  0  0  0  0  0  0
   24.2768  -20.6392  -10.1529 C   0  0  0  0  0  0  0  0  0  0  0  0
   23.6954  -21.1699   -9.1334 O   0  0  0  0  0  0  0  0  0  0  0  0
   23.4798  -20.1217  -11.1820 N   0  0  0  0  0  0  0  0  0  0  0  0
   22.0186  -20.1283  -10.9747 C   0  0  0  0  0  0  0  0  0  0  0  0
   21.3413  -20.9057  -12.0136 C   0  0  0  0  0  0  0  0  0  0  0  0
   22.0250  -21.4881  -12.8869 O   0  0  0  0  0  0  0  0  0  0  0  0
   19.9750  -20.9847  -12.0156 O   0  0  0  0  0  0  0  0  0  0  0  0
  2  1  1  6
  3  2  1  0
  4  3  1  0
  5  4  1  0
  6  5  1  0
  7  6  1  0
  8  2  1  0
  8  9  2  0
 11 10  1  0
 12 11  1  0
 12 13  1  6
 14 15  1  6
 14 12  1  0
 15  8  1  0
 16 14  1  0
 17 16  2  0
 18 16  1  0
 19 18  1  0
 20 19  1  0
 20 22  1  0
 21 20  2  0
M  END
$$$$
