MLL.pdb
     RDKit          3D

 25 24  0  0  1  0  0  0  0  0999 V2000
    6.6841  -11.1977   26.7695 C   0  0  0  0  0  0  0  0  0  0  0  0
    4.9305  -11.5794   26.4610 S   0  0  0  0  0  0  0  0  0  0  0  0
    4.6298  -13.3605   26.6334 C   0  0  0  0  0  0  0  0  0  0  0  0
    5.2014  -14.0382   25.4296 C   0  0  0  0  0  0  0  0  0  0  0  0
    6.4462  -14.8179   25.6936 C   0  0  2  0  0  0  0  0  0  0  0  0
    7.4156  -14.0088   26.3835 N   0  0  0  0  0  0  0  0  0  0  0  0
    7.0591  -15.3916   24.4694 C   0  0  0  0  0  0  0  0  0  0  0  0
    6.6971  -16.5242   24.0558 O   0  0  0  0  0  0  0  0  0  0  0  0
    7.2367  -14.3775   20.4319 C   0  0  0  0  0  0  0  0  0  0  0  0
    8.1471  -13.5290   21.2555 C   0  0  2  0  0  0  0  0  0  0  0  0
    8.5563  -12.2548   20.5767 C   0  0  0  0  0  0  0  0  0  0  0  0
    9.3316  -14.3385   21.7275 C   0  0  0  0  0  0  0  0  0  0  0  0
    8.9425  -15.3565   22.7675 C   0  0  2  0  0  0  0  0  0  0  0  0
    8.0560  -14.7229   23.7153 N   0  0  0  0  0  0  0  0  0  0  0  0
   10.1412  -15.9361   23.4419 C   0  0  0  0  0  0  0  0  0  0  0  0
   11.0513  -16.4562   22.7444 O   0  0  0  0  0  0  0  0  0  0  0  0
   11.0695  -13.3457   27.3984 C   0  0  0  0  0  0  0  0  0  0  0  0
   11.0634  -14.8605   27.3822 C   0  0  2  0  0  0  0  0  0  0  0  0
   10.9465  -15.3703   28.7827 C   0  0  0  0  0  0  0  0  0  0  0  0
   12.0347  -15.4943   26.4814 C   0  0  0  0  0  0  0  0  0  0  0  0
   11.5770  -16.4273   25.4249 C   0  0  2  0  0  0  0  0  0  0  0  0
   10.3054  -15.9285   24.8442 N   0  0  0  0  0  0  0  0  0  0  0  0
   11.3305  -17.8155   25.7982 C   0  0  0  0  0  0  0  0  0  0  0  0
   10.1871  -18.3188   25.7900 O   0  0  0  0  0  0  0  0  0  0  0  0
   12.4136  -18.6247   26.1823 O   0  0  0  0  0  0  0  0  0  0  0  0
  2  3  1  0
  2  1  1  0
  3  4  1  0
  4  5  1  0
  5  6  1  6
  7  8  2  0
  7  5  1  0
 10  9  1  6
 10 12  1  0
 11 10  1  0
 13 12  1  6
 13 14  1  0
 14  7  1  0
 15 13  1  0
 16 15  2  0
 18 19  1  1
 18 17  1  0
 21 20  1  1
 20 18  1  0
 21 22  1  0
 22 15  1  0
 23 25  1  0
 23 21  1  0
 24 23  2  0
M  END
$$$$
