MLL.pdb
     RDKit          3D

 25 24  0  0  1  0  0  0  0  0999 V2000
    9.8193  -19.3257   16.5386 C   0  0  0  0  0  0  0  0  0  0  0  0
    8.9570  -20.6967   17.3710 S   0  0  0  0  0  0  0  0  0  0  0  0
    8.8046  -20.3636   19.1481 C   0  0  0  0  0  0  0  0  0  0  0  0
    9.5071  -19.0748   19.4325 C   0  0  0  0  0  0  0  0  0  0  0  0
    9.4667  -18.6528   20.8632 C   0  0  2  0  0  0  0  0  0  0  0  0
    8.1730  -18.9180   21.4347 N   0  0  0  0  0  0  0  0  0  0  0  0
    9.8188  -17.2261   21.0724 C   0  0  0  0  0  0  0  0  0  0  0  0
   10.9998  -16.8345   20.8798 O   0  0  0  0  0  0  0  0  0  0  0  0
    8.8848  -13.3936   19.2219 C   0  0  0  0  0  0  0  0  0  0  0  0
    7.6974  -13.9635   19.9235 C   0  0  2  0  0  0  0  0  0  0  0  0
    6.4139  -13.2560   19.6011 C   0  0  0  0  0  0  0  0  0  0  0  0
    7.9562  -14.0425   21.4094 C   0  0  0  0  0  0  0  0  0  0  0  0
    9.1828  -14.8571   21.7273 C   0  0  2  0  0  0  0  0  0  0  0  0
    8.8797  -16.2487   21.4876 N   0  0  0  0  0  0  0  0  0  0  0  0
    9.6426  -14.6305   23.1290 C   0  0  0  0  0  0  0  0  0  0  0  0
   10.3297  -13.6099   23.3964 O   0  0  0  0  0  0  0  0  0  0  0  0
    6.2441  -12.5044   26.5639 C   0  0  0  0  0  0  0  0  0  0  0  0
    7.5494  -13.2651   26.6756 C   0  0  2  0  0  0  0  0  0  0  0  0
    8.5551  -12.4207   27.3903 C   0  0  0  0  0  0  0  0  0  0  0  0
    7.9702  -13.9934   25.4719 C   0  0  0  0  0  0  0  0  0  0  0  0
    9.0835  -14.9692   25.5389 C   0  0  2  0  0  0  0  0  0  0  0  0
    9.3394  -15.5185   24.1839 N   0  0  0  0  0  0  0  0  0  0  0  0
    8.9294  -16.1233   26.4174 C   0  0  0  0  0  0  0  0  0  0  0  0
    8.9119  -16.0202   27.6623 O   0  0  0  0  0  0  0  0  0  0  0  0
    8.7946  -17.4026   25.8511 O   0  0  0  0  0  0  0  0  0  0  0  0
  2  3  1  0
  2  1  1  0
  3  4  1  0
  4  5  1  0
  5  6  1  6
  7  8  2  0
  7  5  1  0
 10  9  1  6
 10 12  1  0
 11 10  1  0
 13 12  1  1
 13 14  1  0
 14  7  1  0
 15 13  1  0
 16 15  2  0
 18 19  1  6
 18 17  1  0
 21 20  1  6
 20 18  1  0
 21 22  1  0
 22 15  1  0
 23 25  1  0
 23 21  1  0
 24 23  2  0
M  END
$$$$
