MLL.pdb
     RDKit          3D

 25 24  0  0  1  0  0  0  0  0999 V2000
    9.0472  -18.4101   16.1268 C   0  0  0  0  0  0  0  0  0  0  0  0
   10.1753  -19.7260   16.6851 S   0  0  0  0  0  0  0  0  0  0  0  0
   10.1137  -19.8894   18.4912 C   0  0  0  0  0  0  0  0  0  0  0  0
   10.1419  -18.5133   19.0749 C   0  0  0  0  0  0  0  0  0  0  0  0
   10.1361  -18.4757   20.5667 C   0  0  2  0  0  0  0  0  0  0  0  0
    8.9044  -19.0107   21.0835 N   0  0  0  0  0  0  0  0  0  0  0  0
   10.3632  -17.1205   21.1281 C   0  0  0  0  0  0  0  0  0  0  0  0
   11.5213  -16.6267   21.1318 O   0  0  0  0  0  0  0  0  0  0  0  0
    8.5650  -13.2735   19.9763 C   0  0  0  0  0  0  0  0  0  0  0  0
    7.6230  -14.1132   20.7730 C   0  0  2  0  0  0  0  0  0  0  0  0
    6.2090  -13.6111   20.7532 C   0  0  0  0  0  0  0  0  0  0  0  0
    8.1495  -14.3018   22.1760 C   0  0  0  0  0  0  0  0  0  0  0  0
    9.4920  -14.9850   22.1891 C   0  0  2  0  0  0  0  0  0  0  0  0
    9.3259  -16.3248   21.6763 N   0  0  0  0  0  0  0  0  0  0  0  0
   10.0894  -14.9924   23.5568 C   0  0  0  0  0  0  0  0  0  0  0  0
   10.7626  -14.0007   23.9423 O   0  0  0  0  0  0  0  0  0  0  0  0
    8.6018  -13.4027   28.3830 C   0  0  0  0  0  0  0  0  0  0  0  0
    9.6314  -14.3735   27.8423 C   0  0  2  0  0  0  0  0  0  0  0  0
   10.9985  -13.9189   28.2416 C   0  0  0  0  0  0  0  0  0  0  0  0
    9.4167  -14.8311   26.4636 C   0  0  0  0  0  0  0  0  0  0  0  0
   10.2824  -15.8836   25.8814 C   0  0  2  0  0  0  0  0  0  0  0  0
    9.9331  -16.0735   24.4513 N   0  0  0  0  0  0  0  0  0  0  0  0
   10.2439  -17.2114   26.4837 C   0  0  0  0  0  0  0  0  0  0  0  0
   10.8733  -17.4932   27.5255 O   0  0  0  0  0  0  0  0  0  0  0  0
    9.4724  -18.2173   25.8768 O   0  0  0  0  0  0  0  0  0  0  0  0
  2  3  1  0
  2  1  1  0
  3  4  1  0
  4  5  1  0
  5  6  1  6
  7  8  2  0
  7  5  1  0
 10  9  1  1
 10 12  1  0
 11 10  1  0
 13 12  1  1
 13 14  1  0
 14  7  1  0
 15 13  1  0
 16 15  2  0
 18 19  1  6
 18 17  1  0
 21 20  1  1
 20 18  1  0
 21 22  1  0
 22 15  1  0
 23 25  1  0
 23 21  1  0
 24 23  2  0
M  END
$$$$
