MLL.pdb
     RDKit          3D

 25 24  0  0  1  0  0  0  0  0999 V2000
   10.1615  -21.4660   16.5186 C   0  0  0  0  0  0  0  0  0  0  0  0
   10.8441  -20.0803   17.4829 S   0  0  0  0  0  0  0  0  0  0  0  0
    9.8016  -19.7399   18.9285 C   0  0  0  0  0  0  0  0  0  0  0  0
   10.3909  -18.5709   19.6506 C   0  0  0  0  0  0  0  0  0  0  0  0
    9.6878  -18.2095   20.9163 C   0  0  2  0  0  0  0  0  0  0  0  0
    8.2759  -18.4632   20.8034 N   0  0  0  0  0  0  0  0  0  0  0  0
    9.9074  -16.8032   21.3376 C   0  0  0  0  0  0  0  0  0  0  0  0
   11.0770  -16.3798   21.5322 O   0  0  0  0  0  0  0  0  0  0  0  0
    9.0370  -13.2472   19.3201 C   0  0  0  0  0  0  0  0  0  0  0  0
    7.7729  -13.7584   19.9268 C   0  0  2  0  0  0  0  0  0  0  0  0
    6.5396  -13.0871   19.3974 C   0  0  0  0  0  0  0  0  0  0  0  0
    7.8577  -13.7059   21.4338 C   0  0  0  0  0  0  0  0  0  0  0  0
    9.0164  -14.5098   21.9634 C   0  0  2  0  0  0  0  0  0  0  0  0
    8.8503  -15.8806   21.5402 N   0  0  0  0  0  0  0  0  0  0  0  0
    9.1228  -14.4044   23.4484 C   0  0  0  0  0  0  0  0  0  0  0  0
    9.6219  -13.3678   23.9599 O   0  0  0  0  0  0  0  0  0  0  0  0
    6.0988  -12.3094   26.8457 C   0  0  0  0  0  0  0  0  0  0  0  0
    7.4084  -13.0589   26.7102 C   0  0  2  0  0  0  0  0  0  0  0  0
    8.4900  -12.1008   26.3265 C   0  0  0  0  0  0  0  0  0  0  0  0
    7.3363  -14.3524   26.0188 C   0  0  0  0  0  0  0  0  0  0  0  0
    8.5684  -15.1374   25.7701 C   0  0  2  0  0  0  0  0  0  0  0  0
    8.6841  -15.4259   24.3187 N   0  0  0  0  0  0  0  0  0  0  0  0
    8.7095  -16.4215   26.4471 C   0  0  0  0  0  0  0  0  0  0  0  0
    8.5953  -16.5424   27.6854 O   0  0  0  0  0  0  0  0  0  0  0  0
    8.9838  -17.5710   25.6863 O   0  0  0  0  0  0  0  0  0  0  0  0
  2  3  1  0
  2  1  1  0
  3  4  1  0
  4  5  1  0
  5  6  1  6
  7  8  2  0
  7  5  1  0
 10  9  1  6
 10 12  1  0
 11 10  1  0
 13 12  1  1
 13 14  1  0
 14  7  1  0
 15 13  1  0
 16 15  2  0
 18 19  1  6
 18 17  1  0
 21 20  1  6
 20 18  1  0
 21 22  1  0
 22 15  1  0
 23 25  1  0
 23 21  1  0
 24 23  2  0
M  END
$$$$
