MLL.pdb
     RDKit          3D

 25 24  0  0  1  0  0  0  0  0999 V2000
    7.4377  -20.2419   26.4507 C   0  0  0  0  0  0  0  0  0  0  0  0
    5.9703  -19.3957   25.7825 S   0  0  0  0  0  0  0  0  0  0  0  0
    5.8980  -19.5816   23.9790 C   0  0  0  0  0  0  0  0  0  0  0  0
    7.2525  -19.2616   23.4329 C   0  0  0  0  0  0  0  0  0  0  0  0
    7.2410  -18.6658   22.0648 C   0  0  2  0  0  0  0  0  0  0  0  0
    7.5138  -19.6700   21.0710 N   0  0  0  0  0  0  0  0  0  0  0  0
    8.1883  -17.5348   21.9010 C   0  0  0  0  0  0  0  0  0  0  0  0
    9.4172  -17.7604   21.7467 O   0  0  0  0  0  0  0  0  0  0  0  0
    8.8564  -14.2738   19.1601 C   0  0  0  0  0  0  0  0  0  0  0  0
    7.6253  -14.0530   19.9743 C   0  0  2  0  0  0  0  0  0  0  0  0
    6.7403  -12.9653   19.4400 C   0  0  0  0  0  0  0  0  0  0  0  0
    7.9889  -13.8419   21.4249 C   0  0  0  0  0  0  0  0  0  0  0  0
    8.6740  -15.0457   22.0172 C   0  0  2  0  0  0  0  0  0  0  0  0
    7.7824  -16.1766   21.9076 N   0  0  0  0  0  0  0  0  0  0  0  0
    9.0796  -14.8035   23.4330 C   0  0  0  0  0  0  0  0  0  0  0  0
   10.1320  -14.1550   23.6718 O   0  0  0  0  0  0  0  0  0  0  0  0
    6.2643  -11.8866   26.8705 C   0  0  0  0  0  0  0  0  0  0  0  0
    7.5861  -12.6030   26.6847 C   0  0  2  0  0  0  0  0  0  0  0  0
    8.4732  -11.7849   25.8022 C   0  0  0  0  0  0  0  0  0  0  0  0
    7.5017  -14.0502   26.4504 C   0  0  0  0  0  0  0  0  0  0  0  0
    8.6612  -14.7869   25.8946 C   0  0  2  0  0  0  0  0  0  0  0  0
    8.3287  -15.2735   24.5324 N   0  0  0  0  0  0  0  0  0  0  0  0
    9.1483  -15.9495   26.6284 C   0  0  0  0  0  0  0  0  0  0  0  0
    9.4591  -15.8970   27.8373 O   0  0  0  0  0  0  0  0  0  0  0  0
    9.2755  -17.1787   25.9588 O   0  0  0  0  0  0  0  0  0  0  0  0
  2  3  1  0
  2  1  1  0
  3  4  1  0
  4  5  1  0
  5  6  1  6
  7  8  2  0
  7  5  1  0
 10  9  1  6
 10 12  1  0
 11 10  1  0
 13 12  1  1
 13 14  1  0
 14  7  1  0
 15 13  1  0
 16 15  2  0
 18 19  1  6
 18 17  1  0
 21 20  1  1
 20 18  1  0
 21 22  1  0
 22 15  1  0
 23 25  1  0
 23 21  1  0
 24 23  2  0
M  END
$$$$
