MLL.pdb
     RDKit          3D

 25 24  0  0  1  0  0  0  0  0999 V2000
    7.2661  -20.5816   23.5338 C   0  0  0  0  0  0  0  0  0  0  0  0
    5.7394  -20.1166   22.6569 S   0  0  0  0  0  0  0  0  0  0  0  0
    5.8861  -18.4421   21.9736 C   0  0  0  0  0  0  0  0  0  0  0  0
    6.8617  -17.6882   22.8192 C   0  0  0  0  0  0  0  0  0  0  0  0
    7.0043  -16.2468   22.4604 C   0  0  2  0  0  0  0  0  0  0  0  0
    7.5404  -16.1045   21.1326 N   0  0  0  0  0  0  0  0  0  0  0  0
    7.8366  -15.4755   23.4173 C   0  0  0  0  0  0  0  0  0  0  0  0
    9.0646  -15.3114   23.1933 O   0  0  0  0  0  0  0  0  0  0  0  0
    7.6708  -11.4784   25.4569 C   0  0  0  0  0  0  0  0  0  0  0  0
    6.5992  -12.3945   25.9465 C   0  0  2  0  0  0  0  0  0  0  0  0
    5.5789  -11.7150   26.8121 C   0  0  0  0  0  0  0  0  0  0  0  0
    7.2099  -13.6038   26.6141 C   0  0  0  0  0  0  0  0  0  0  0  0
    8.1168  -14.3658   25.6834 C   0  0  2  0  0  0  0  0  0  0  0  0
    7.3186  -14.8952   24.6024 N   0  0  0  0  0  0  0  0  0  0  0  0
    8.8535  -15.4477   26.4006 C   0  0  0  0  0  0  0  0  0  0  0  0
    8.2149  -16.4323   26.8568 O   0  0  0  0  0  0  0  0  0  0  0  0
   11.8119  -18.1736   24.6828 C   0  0  0  0  0  0  0  0  0  0  0  0
   12.4230  -16.9291   25.2932 C   0  0  2  0  0  0  0  0  0  0  0  0
   13.7793  -16.7041   24.7059 C   0  0  0  0  0  0  0  0  0  0  0  0
   12.2501  -16.7771   26.7435 C   0  0  0  0  0  0  0  0  0  0  0  0
   10.9037  -16.5407   27.3157 C   0  0  2  0  0  0  0  0  0  0  0  0
   10.2517  -15.4192   26.5942 N   0  0  0  0  0  0  0  0  0  0  0  0
   10.8110  -16.2135   28.7340 C   0  0  0  0  0  0  0  0  0  0  0  0
   11.2881  -16.9491   29.6240 O   0  0  0  0  0  0  0  0  0  0  0  0
   10.1633  -15.0284   29.1231 O   0  0  0  0  0  0  0  0  0  0  0  0
  2  3  1  0
  2  1  1  0
  3  4  1  0
  4  5  1  0
  5  6  1  6
  7  8  2  0
  7  5  1  0
 10  9  1  1
 10 12  1  0
 11 10  1  0
 13 12  1  1
 13 14  1  0
 14  7  1  0
 15 13  1  0
 16 15  2  0
 18 19  1  1
 18 17  1  0
 21 20  1  6
 20 18  1  0
 21 22  1  0
 22 15  1  0
 23 25  1  0
 23 21  1  0
 24 23  2  0
M  END
$$$$
