MLL.pdb
     RDKit          3D

 25 24  0  0  1  0  0  0  0  0999 V2000
    7.1624  -18.7893   26.9234 C   0  0  0  0  0  0  0  0  0  0  0  0
    6.1324  -20.1075   26.2042 S   0  0  0  0  0  0  0  0  0  0  0  0
    5.9665  -19.8757   24.4122 C   0  0  0  0  0  0  0  0  0  0  0  0
    7.0176  -18.9049   23.9787 C   0  0  0  0  0  0  0  0  0  0  0  0
    6.9781  -18.5602   22.5273 C   0  0  2  0  0  0  0  0  0  0  0  0
    7.0822  -19.7470   21.7204 N   0  0  0  0  0  0  0  0  0  0  0  0
    8.0230  -17.5884   22.1184 C   0  0  0  0  0  0  0  0  0  0  0  0
    9.1976  -17.9834   21.8965 O   0  0  0  0  0  0  0  0  0  0  0  0
    8.1145  -14.7485   19.0091 C   0  0  0  0  0  0  0  0  0  0  0  0
    7.2887  -14.1998   20.1245 C   0  0  2  0  0  0  0  0  0  0  0  0
    6.4612  -13.0119   19.7297 C   0  0  0  0  0  0  0  0  0  0  0  0
    8.1555  -13.9252   21.3305 C   0  0  0  0  0  0  0  0  0  0  0  0
    8.7895  -15.1810   21.8691 C   0  0  2  0  0  0  0  0  0  0  0  0
    7.7723  -16.2025   21.9577 N   0  0  0  0  0  0  0  0  0  0  0  0
    9.4418  -14.9421   23.1901 C   0  0  0  0  0  0  0  0  0  0  0  0
   10.5042  -14.2684   23.2416 O   0  0  0  0  0  0  0  0  0  0  0  0
    6.4440  -12.1782   27.1486 C   0  0  0  0  0  0  0  0  0  0  0  0
    7.7946  -12.8293   26.9322 C   0  0  2  0  0  0  0  0  0  0  0  0
    8.8713  -11.8077   27.1110 C   0  0  0  0  0  0  0  0  0  0  0  0
    7.8838  -13.7540   25.7949 C   0  0  0  0  0  0  0  0  0  0  0  0
    9.0638  -14.6369   25.6394 C   0  0  2  0  0  0  0  0  0  0  0  0
    8.9167  -15.4424   24.4014 N   0  0  0  0  0  0  0  0  0  0  0  0
    9.3509  -15.5891   26.7062 C   0  0  0  0  0  0  0  0  0  0  0  0
    9.4583  -15.2435   27.9020 O   0  0  0  0  0  0  0  0  0  0  0  0
    9.5139  -16.9480   26.3865 O   0  0  0  0  0  0  0  0  0  0  0  0
  2  3  1  0
  2  1  1  0
  3  4  1  0
  4  5  1  0
  5  6  1  6
  7  8  2  0
  7  5  1  0
 10  9  1  6
 10 12  1  0
 11 10  1  0
 13 12  1  1
 13 14  1  0
 14  7  1  0
 15 13  1  0
 16 15  2  0
 18 19  1  6
 18 17  1  0
 21 20  1  1
 20 18  1  0
 21 22  1  0
 22 15  1  0
 23 25  1  0
 23 21  1  0
 24 23  2  0
M  END
$$$$
