MLL.pdb
     RDKit          3D

 25 24  0  0  1  0  0  0  0  0999 V2000
    7.4883  -19.5847   26.8269 C   0  0  0  0  0  0  0  0  0  0  0  0
    5.8727  -20.0842   26.1515 S   0  0  0  0  0  0  0  0  0  0  0  0
    5.8831  -19.9785   24.3401 C   0  0  0  0  0  0  0  0  0  0  0  0
    6.8466  -18.9033   23.9515 C   0  0  0  0  0  0  0  0  0  0  0  0
    6.9767  -18.6941   22.4797 C   0  0  2  0  0  0  0  0  0  0  0  0
    7.2238  -19.9429   21.8090 N   0  0  0  0  0  0  0  0  0  0  0  0
    8.0288  -17.7148   22.1092 C   0  0  0  0  0  0  0  0  0  0  0  0
    9.2253  -18.0894   21.9949 O   0  0  0  0  0  0  0  0  0  0  0  0
    8.6338  -14.7761   18.9417 C   0  0  0  0  0  0  0  0  0  0  0  0
    7.5600  -14.2965   19.8604 C   0  0  2  0  0  0  0  0  0  0  0  0
    6.8094  -13.1076   19.3362 C   0  0  0  0  0  0  0  0  0  0  0  0
    8.1211  -14.0621   21.2430 C   0  0  0  0  0  0  0  0  0  0  0  0
    8.7602  -15.3019   21.8116 C   0  0  2  0  0  0  0  0  0  0  0  0
    7.7613  -16.3435   21.8689 N   0  0  0  0  0  0  0  0  0  0  0  0
    9.3588  -15.0430   23.1541 C   0  0  0  0  0  0  0  0  0  0  0  0
   10.4487  -14.4177   23.2344 O   0  0  0  0  0  0  0  0  0  0  0  0
    6.1677  -12.1402   26.9069 C   0  0  0  0  0  0  0  0  0  0  0  0
    7.5288  -12.7896   26.7637 C   0  0  2  0  0  0  0  0  0  0  0  0
    8.5930  -11.7611   26.9749 C   0  0  0  0  0  0  0  0  0  0  0  0
    7.6731  -13.7326   25.6473 C   0  0  0  0  0  0  0  0  0  0  0  0
    8.8597  -14.6164   25.5633 C   0  0  2  0  0  0  0  0  0  0  0  0
    8.7524  -15.4717   24.3549 N   0  0  0  0  0  0  0  0  0  0  0  0
    9.1167  -15.5239   26.6758 C   0  0  0  0  0  0  0  0  0  0  0  0
    9.1999  -15.1282   27.8579 O   0  0  0  0  0  0  0  0  0  0  0  0
    9.2776  -16.8961   26.4180 O   0  0  0  0  0  0  0  0  0  0  0  0
  2  3  1  0
  2  1  1  0
  3  4  1  0
  4  5  1  0
  5  6  1  6
  7  8  2  0
  7  5  1  0
 10  9  1  6
 10 12  1  0
 11 10  1  0
 13 12  1  1
 13 14  1  0
 14  7  1  0
 15 13  1  0
 16 15  2  0
 18 19  1  6
 18 17  1  0
 21 20  1  1
 20 18  1  0
 21 22  1  0
 22 15  1  0
 23 25  1  0
 23 21  1  0
 24 23  2  0
M  END
$$$$
