YVM.pdb
     RDKit          3D

 28 28  0  0  1  0  0  0  0  0999 V2000
    8.6651  -13.4507   15.8877 O   0  0  0  0  0  0  0  0  0  0  0  0
    8.3195  -13.8530   17.1723 C   0  0  0  0  0  0  0  0  0  0  0  0
    7.6274  -12.9734   17.9554 C   0  0  0  0  0  0  0  0  0  0  0  0
    7.2754  -13.3643   19.2439 C   0  0  0  0  0  0  0  0  0  0  0  0
    7.6151  -14.6046   19.7182 C   0  0  0  0  0  0  0  0  0  0  0  0
    7.2587  -15.0550   21.0805 C   0  0  0  0  0  0  0  0  0  0  0  0
    6.8152  -16.5241   21.0879 C   0  0  2  0  0  0  0  0  0  0  0  0
    5.5083  -16.5449   20.4559 N   0  0  0  0  0  0  0  0  0  0  0  0
    6.7306  -16.9167   22.5162 C   0  0  0  0  0  0  0  0  0  0  0  0
    5.8923  -16.3253   23.2388 O   0  0  0  0  0  0  0  0  0  0  0  0
    8.3117  -15.4631   18.9018 C   0  0  0  0  0  0  0  0  0  0  0  0
    8.6849  -15.1256   17.6174 C   0  0  0  0  0  0  0  0  0  0  0  0
    6.8031  -20.4797   24.1956 C   0  0  0  0  0  0  0  0  0  0  0  0
    7.8581  -19.5820   24.8030 C   0  0  2  0  0  0  0  0  0  0  0  0
    8.0768  -19.8947   26.2596 C   0  0  0  0  0  0  0  0  0  0  0  0
    7.5704  -18.1258   24.5592 C   0  0  2  0  0  0  0  0  0  0  0  0
    7.5336  -17.9169   23.1242 N   0  0  0  0  0  0  0  0  0  0  0  0
    8.5346  -17.2247   25.2261 C   0  0  0  0  0  0  0  0  0  0  0  0
    9.6806  -17.1308   24.7162 O   0  0  0  0  0  0  0  0  0  0  0  0
    6.2046  -12.4079   27.9772 C   0  0  0  0  0  0  0  0  0  0  0  0
    7.9037  -11.7964   28.1115 S   0  0  0  0  0  0  0  0  0  0  0  0
    9.1001  -13.1714   27.9456 C   0  0  0  0  0  0  0  0  0  0  0  0
    8.3678  -14.2982   27.2979 C   0  0  0  0  0  0  0  0  0  0  0  0
    9.1952  -15.4859   26.9307 C   0  0  2  0  0  0  0  0  0  0  0  0
    8.2510  -16.4765   26.3805 N   0  0  0  0  0  0  0  0  0  0  0  0
    9.9091  -16.0716   28.0925 C   0  0  0  0  0  0  0  0  0  0  0  0
    9.3447  -17.0818   28.8508 O   0  0  0  0  0  0  0  0  0  0  0  0
   11.0554  -15.6505   28.4095 O   0  0  0  0  0  0  0  0  0  0  0  0
  2 12  2  0
  2  1  1  0
  3  2  1  0
  4  5  1  0
  4  3  2  0
  5 11  2  0
  6  5  1  0
  7  6  1  0
  7  8  1  1
  9 10  2  0
  9  7  1  0
 11 12  1  0
 14 13  1  1
 14 16  1  0
 15 14  1  0
 16 17  1  6
 17  9  1  0
 18 19  2  0
 18 16  1  0
 20 21  1  0
 22 21  1  0
 23 22  1  0
 24 23  1  1
 24 25  1  0
 25 18  1  0
 26 24  1  0
 27 26  1  0
 28 26  2  0
M  END
$$$$
