YVM.pdb
     RDKit          3D

 28 28  0  0  1  0  0  0  0  0999 V2000
    7.1678  -11.2884   26.4436 O   0  0  0  0  0  0  0  0  0  0  0  0
    6.9989  -12.6552   26.2573 C   0  0  0  0  0  0  0  0  0  0  0  0
    7.9877  -13.3415   25.6112 C   0  0  0  0  0  0  0  0  0  0  0  0
    7.8306  -14.7107   25.4184 C   0  0  0  0  0  0  0  0  0  0  0  0
    6.7086  -15.3581   25.8664 C   0  0  0  0  0  0  0  0  0  0  0  0
    6.5066  -16.8108   25.6802 C   0  0  0  0  0  0  0  0  0  0  0  0
    5.9342  -17.1244   24.2913 C   0  0  2  0  0  0  0  0  0  0  0  0
    5.4665  -18.4972   24.3580 N   0  0  0  0  0  0  0  0  0  0  0  0
    7.0670  -16.9854   23.3432 C   0  0  0  0  0  0  0  0  0  0  0  0
    7.8266  -17.9721   23.1875 O   0  0  0  0  0  0  0  0  0  0  0  0
    5.7345  -14.6351   26.5122 C   0  0  0  0  0  0  0  0  0  0  0  0
    5.8405  -13.2770   26.7291 C   0  0  0  0  0  0  0  0  0  0  0  0
    7.0506  -14.5860   20.0418 C   0  0  0  0  0  0  0  0  0  0  0  0
    8.3176  -14.4881   20.8620 C   0  0  2  0  0  0  0  0  0  0  0  0
    9.5146  -14.1968   19.9960 C   0  0  0  0  0  0  0  0  0  0  0  0
    8.5170  -15.6924   21.7411 C   0  0  2  0  0  0  0  0  0  0  0  0
    7.3526  -15.8116   22.5979 N   0  0  0  0  0  0  0  0  0  0  0  0
    9.7741  -15.6416   22.5179 C   0  0  0  0  0  0  0  0  0  0  0  0
   10.8502  -15.6045   21.8677 O   0  0  0  0  0  0  0  0  0  0  0  0
   10.2277  -12.9388   28.4741 C   0  0  0  0  0  0  0  0  0  0  0  0
   11.0746  -14.5307   28.6398 S   0  0  0  0  0  0  0  0  0  0  0  0
   11.8194  -15.0352   27.0459 C   0  0  0  0  0  0  0  0  0  0  0  0
   10.7083  -15.0817   26.0516 C   0  0  0  0  0  0  0  0  0  0  0  0
   11.1017  -15.4237   24.6522 C   0  0  2  0  0  0  0  0  0  0  0  0
    9.8379  -15.6323   23.9210 N   0  0  0  0  0  0  0  0  0  0  0  0
   11.9314  -16.6516   24.5712 C   0  0  0  0  0  0  0  0  0  0  0  0
   11.3788  -17.8737   24.2322 O   0  0  0  0  0  0  0  0  0  0  0  0
   13.1682  -16.5974   24.8142 O   0  0  0  0  0  0  0  0  0  0  0  0
  2 12  2  0
  2  1  1  0
  3  2  1  0
  4  5  1  0
  4  3  2  0
  5 11  2  0
  6  5  1  0
  7  6  1  0
  7  8  1  1
  9 10  2  0
  9  7  1  0
 11 12  1  0
 14 13  1  6
 14 16  1  0
 15 14  1  0
 16 17  1  1
 17  9  1  0
 18 19  2  0
 18 16  1  0
 20 21  1  0
 22 21  1  0
 23 22  1  0
 24 23  1  1
 24 25  1  0
 25 18  1  0
 26 24  1  0
 27 26  1  0
 28 26  2  0
M  END
$$$$
