YVM.pdb
     RDKit          3D

 28 28  0  0  1  0  0  0  0  0999 V2000
   10.2277  -23.7587   16.8535 O   0  0  0  0  0  0  0  0  0  0  0  0
   10.4176  -22.6100   17.6122 C   0  0  0  0  0  0  0  0  0  0  0  0
   11.0352  -22.7366   18.8241 C   0  0  0  0  0  0  0  0  0  0  0  0
   11.2313  -21.5937   19.5935 C   0  0  0  0  0  0  0  0  0  0  0  0
   10.8145  -20.3669   19.1463 C   0  0  0  0  0  0  0  0  0  0  0  0
   11.0055  -19.1311   19.9351 C   0  0  0  0  0  0  0  0  0  0  0  0
   10.4367  -17.9063   19.2060 C   0  0  2  0  0  0  0  0  0  0  0  0
   11.4337  -17.5376   18.2171 N   0  0  0  0  0  0  0  0  0  0  0  0
   10.2848  -16.8519   20.2388 C   0  0  0  0  0  0  0  0  0  0  0  0
   11.3072  -16.2049   20.5718 O   0  0  0  0  0  0  0  0  0  0  0  0
   10.1967  -20.2778   17.9219 C   0  0  0  0  0  0  0  0  0  0  0  0
    9.9780  -21.3788   17.1202 C   0  0  0  0  0  0  0  0  0  0  0  0
    7.2755  -14.3015   20.5136 C   0  0  0  0  0  0  0  0  0  0  0  0
    7.5780  -14.9290   21.8561 C   0  0  2  0  0  0  0  0  0  0  0  0
    7.3033  -13.9730   22.9866 C   0  0  0  0  0  0  0  0  0  0  0  0
    8.9653  -15.5081   21.9103 C   0  0  2  0  0  0  0  0  0  0  0  0
    9.0610  -16.5229   20.8782 N   0  0  0  0  0  0  0  0  0  0  0  0
    9.3206  -16.0384   23.2441 C   0  0  0  0  0  0  0  0  0  0  0  0
    9.1058  -17.2601   23.4524 O   0  0  0  0  0  0  0  0  0  0  0  0
   10.4386  -11.8763   28.0378 C   0  0  0  0  0  0  0  0  0  0  0  0
   11.2622  -13.3525   28.6871 S   0  0  0  0  0  0  0  0  0  0  0  0
   10.5557  -14.8671   27.9411 C   0  0  0  0  0  0  0  0  0  0  0  0
   10.5308  -14.6445   26.4662 C   0  0  0  0  0  0  0  0  0  0  0  0
   10.0690  -15.8008   25.6416 C   0  0  2  0  0  0  0  0  0  0  0  0
    9.8768  -15.2692   24.2794 N   0  0  0  0  0  0  0  0  0  0  0  0
    8.7957  -16.3851   26.1315 C   0  0  0  0  0  0  0  0  0  0  0  0
    7.5722  -15.8417   25.7828 O   0  0  0  0  0  0  0  0  0  0  0  0
    8.8116  -17.3983   26.8831 O   0  0  0  0  0  0  0  0  0  0  0  0
  2 12  2  0
  2  1  1  0
  3  2  1  0
  4  5  1  0
  4  3  2  0
  5 11  2  0
  6  5  1  0
  7  6  1  0
  7  8  1  6
  9 10  2  0
  9  7  1  0
 11 12  1  0
 14 13  1  6
 14 16  1  0
 15 14  1  0
 16 17  1  6
 17  9  1  0
 18 19  2  0
 18 16  1  0
 20 21  1  0
 22 21  1  0
 23 22  1  0
 24 23  1  1
 24 25  1  0
 25 18  1  0
 26 24  1  0
 27 26  1  0
 28 26  2  0
M  END
$$$$
