YVM.pdb
     RDKit          3D

 28 28  0  0  1  0  0  0  0  0999 V2000
    6.8015  -10.6692   26.7811 O   0  0  0  0  0  0  0  0  0  0  0  0
    6.8042  -12.0570   26.7086 C   0  0  0  0  0  0  0  0  0  0  0  0
    5.6209  -12.7116   26.9022 C   0  0  0  0  0  0  0  0  0  0  0  0
    5.6103  -14.1014   26.8322 C   0  0  0  0  0  0  0  0  0  0  0  0
    6.7612  -14.7998   26.5747 C   0  0  0  0  0  0  0  0  0  0  0  0
    6.7890  -16.2757   26.4927 C   0  0  0  0  0  0  0  0  0  0  0  0
    6.1426  -16.7780   25.1947 C   0  0  2  0  0  0  0  0  0  0  0  0
    5.6947  -18.1303   25.4746 N   0  0  0  0  0  0  0  0  0  0  0  0
    7.2183  -16.7660   24.1729 C   0  0  0  0  0  0  0  0  0  0  0  0
    8.0754  -17.6818   24.2123 O   0  0  0  0  0  0  0  0  0  0  0  0
    7.9332  -14.1074   26.3853 C   0  0  0  0  0  0  0  0  0  0  0  0
    7.9988  -12.7308   26.4441 C   0  0  0  0  0  0  0  0  0  0  0  0
    6.8097  -15.1246   20.5297 C   0  0  0  0  0  0  0  0  0  0  0  0
    8.1564  -14.7988   21.1365 C   0  0  2  0  0  0  0  0  0  0  0  0
    9.2356  -14.7442   20.0878 C   0  0  0  0  0  0  0  0  0  0  0  0
    8.5009  -15.7182   22.2760 C   0  0  2  0  0  0  0  0  0  0  0  0
    7.3463  -15.7889   23.1513 N   0  0  0  0  0  0  0  0  0  0  0  0
    9.7227  -15.3096   23.0018 C   0  0  0  0  0  0  0  0  0  0  0  0
    9.6499  -14.2738   23.7116 O   0  0  0  0  0  0  0  0  0  0  0  0
    9.6332  -14.3695   28.6331 C   0  0  0  0  0  0  0  0  0  0  0  0
   10.7847  -15.4230   27.7149 S   0  0  0  0  0  0  0  0  0  0  0  0
   10.5647  -15.2017   25.9114 C   0  0  0  0  0  0  0  0  0  0  0  0
   11.4645  -16.1892   25.2477 C   0  0  0  0  0  0  0  0  0  0  0  0
   12.0236  -15.7742   23.9265 C   0  0  2  0  0  0  0  0  0  0  0  0
   10.9445  -16.0002   22.9468 N   0  0  0  0  0  0  0  0  0  0  0  0
   13.2215  -16.5587   23.5363 C   0  0  0  0  0  0  0  0  0  0  0  0
   14.4956  -16.1535   23.8917 O   0  0  0  0  0  0  0  0  0  0  0  0
   13.0930  -17.6196   22.8657 O   0  0  0  0  0  0  0  0  0  0  0  0
  2 12  2  0
  2  1  1  0
  3  2  1  0
  4  5  1  0
  4  3  2  0
  5 11  2  0
  6  5  1  0
  7  6  1  0
  7  8  1  1
  9 10  2  0
  9  7  1  0
 11 12  1  0
 14 13  1  6
 14 16  1  0
 15 14  1  0
 16 17  1  1
 17  9  1  0
 18 19  2  0
 18 16  1  0
 20 21  1  0
 22 21  1  0
 23 22  1  0
 24 23  1  1
 24 25  1  0
 25 18  1  0
 26 24  1  0
 27 26  1  0
 28 26  2  0
M  END
$$$$
