YVM.pdb
     RDKit          3D

 28 28  0  0  1  0  0  0  0  0999 V2000
    7.2985  -21.2322   30.2483 O   0  0  0  0  0  0  0  0  0  0  0  0
    7.4976  -20.5745   29.0403 C   0  0  0  0  0  0  0  0  0  0  0  0
    8.5606  -20.9540   28.2710 C   0  0  0  0  0  0  0  0  0  0  0  0
    8.7709  -20.3031   27.0590 C   0  0  0  0  0  0  0  0  0  0  0  0
    7.9303  -19.3027   26.6449 C   0  0  0  0  0  0  0  0  0  0  0  0
    8.1215  -18.5888   25.3645 C   0  0  0  0  0  0  0  0  0  0  0  0
    6.9035  -18.7496   24.4449 C   0  0  2  0  0  0  0  0  0  0  0  0
    6.8741  -20.1520   24.0704 N   0  0  0  0  0  0  0  0  0  0  0  0
    7.1633  -17.8821   23.2696 C   0  0  0  0  0  0  0  0  0  0  0  0
    7.7036  -18.4029   22.2637 O   0  0  0  0  0  0  0  0  0  0  0  0
    6.8710  -18.9476   27.4453 C   0  0  0  0  0  0  0  0  0  0  0  0
    6.6178  -19.5603   28.6549 C   0  0  0  0  0  0  0  0  0  0  0  0
    5.5384  -14.9637   21.2879 C   0  0  0  0  0  0  0  0  0  0  0  0
    6.7569  -14.4348   22.0113 C   0  0  2  0  0  0  0  0  0  0  0  0
    7.4837  -13.4046   21.1879 C   0  0  0  0  0  0  0  0  0  0  0  0
    7.6593  -15.5418   22.4836 C   0  0  2  0  0  0  0  0  0  0  0  0
    6.8427  -16.5010   23.2028 N   0  0  0  0  0  0  0  0  0  0  0  0
    8.7935  -15.0572   23.2993 C   0  0  0  0  0  0  0  0  0  0  0  0
    8.6082  -14.0157   23.9797 O   0  0  0  0  0  0  0  0  0  0  0  0
   10.7217  -14.3204   28.9534 C   0  0  0  0  0  0  0  0  0  0  0  0
    9.2890  -14.4849   27.8582 S   0  0  0  0  0  0  0  0  0  0  0  0
    9.7610  -14.1488   26.1222 C   0  0  0  0  0  0  0  0  0  0  0  0
   10.5283  -15.3381   25.6509 C   0  0  0  0  0  0  0  0  0  0  0  0
   11.1112  -15.2345   24.2798 C   0  0  2  0  0  0  0  0  0  0  0  0
   10.0498  -15.6825   23.3590 N   0  0  0  0  0  0  0  0  0  0  0  0
   12.3155  -16.0832   24.1007 C   0  0  0  0  0  0  0  0  0  0  0  0
   13.5719  -15.6395   24.4729 O   0  0  0  0  0  0  0  0  0  0  0  0
   12.2089  -17.2361   23.5993 O   0  0  0  0  0  0  0  0  0  0  0  0
  2 12  2  0
  2  1  1  0
  3  2  1  0
  4  5  1  0
  4  3  2  0
  5 11  2  0
  6  5  1  0
  7  6  1  0
  7  8  1  6
  9 10  2  0
  9  7  1  0
 11 12  1  0
 14 13  1  6
 14 16  1  0
 15 14  1  0
 16 17  1  1
 17  9  1  0
 18 19  2  0
 18 16  1  0
 20 21  1  0
 22 21  1  0
 23 22  1  0
 24 23  1  1
 24 25  1  0
 25 18  1  0
 26 24  1  0
 27 26  1  0
 28 26  2  0
M  END
$$$$
