YVM.pdb
     RDKit          3D

 28 28  0  0  1  0  0  0  0  0999 V2000
    7.5412  -22.4601   29.3159 O   0  0  0  0  0  0  0  0  0  0  0  0
    7.6136  -21.4903   28.3232 C   0  0  0  0  0  0  0  0  0  0  0  0
    6.4452  -21.0562   27.7642 C   0  0  0  0  0  0  0  0  0  0  0  0
    6.5043  -20.0852   26.7689 C   0  0  0  0  0  0  0  0  0  0  0  0
    7.7079  -19.5747   26.3574 C   0  0  0  0  0  0  0  0  0  0  0  0
    7.8103  -18.5428   25.3037 C   0  0  0  0  0  0  0  0  0  0  0  0
    7.1481  -19.0053   23.9989 C   0  0  2  0  0  0  0  0  0  0  0  0
    7.7478  -20.2899   23.6858 N   0  0  0  0  0  0  0  0  0  0  0  0
    7.4971  -17.9839   22.9808 C   0  0  0  0  0  0  0  0  0  0  0  0
    8.4590  -18.2261   22.2121 O   0  0  0  0  0  0  0  0  0  0  0  0
    8.8630  -20.0354   26.9426 C   0  0  0  0  0  0  0  0  0  0  0  0
    8.8603  -20.9960   27.9326 C   0  0  0  0  0  0  0  0  0  0  0  0
    5.5904  -15.5221   20.5851 C   0  0  0  0  0  0  0  0  0  0  0  0
    6.3862  -14.7376   21.6045 C   0  0  2  0  0  0  0  0  0  0  0  0
    6.9241  -13.4587   21.0193 C   0  0  0  0  0  0  0  0  0  0  0  0
    7.4555  -15.5738   22.2526 C   0  0  2  0  0  0  0  0  0  0  0  0
    6.8175  -16.7489   22.8149 N   0  0  0  0  0  0  0  0  0  0  0  0
    8.2393  -14.8313   23.2631 C   0  0  0  0  0  0  0  0  0  0  0  0
    7.9128  -13.6359   23.4787 O   0  0  0  0  0  0  0  0  0  0  0  0
    7.3522  -11.5273   26.3512 C   0  0  0  0  0  0  0  0  0  0  0  0
    8.9437  -11.8629   27.1471 S   0  0  0  0  0  0  0  0  0  0  0  0
    9.2090  -13.6649   27.3264 C   0  0  0  0  0  0  0  0  0  0  0  0
    8.8139  -14.2853   26.0286 C   0  0  0  0  0  0  0  0  0  0  0  0
    9.9373  -14.6676   25.1218 C   0  0  2  0  0  0  0  0  0  0  0  0
    9.3131  -15.3742   23.9877 N   0  0  0  0  0  0  0  0  0  0  0  0
   10.9285  -15.5570   25.7767 C   0  0  0  0  0  0  0  0  0  0  0  0
   12.1803  -15.0953   26.1425 O   0  0  0  0  0  0  0  0  0  0  0  0
   10.6399  -16.7626   26.0117 O   0  0  0  0  0  0  0  0  0  0  0  0
  2 12  2  0
  2  1  1  0
  3  2  1  0
  4  5  1  0
  4  3  2  0
  5 11  2  0
  6  5  1  0
  7  6  1  0
  7  8  1  6
  9 10  2  0
  9  7  1  0
 11 12  1  0
 14 13  1  6
 14 16  1  0
 15 14  1  0
 16 17  1  1
 17  9  1  0
 18 19  2  0
 18 16  1  0
 20 21  1  0
 22 21  1  0
 23 22  1  0
 24 23  1  1
 24 25  1  0
 25 18  1  0
 26 24  1  0
 27 26  1  0
 28 26  2  0
M  END
$$$$
