YVM.pdb
     RDKit          3D

 28 28  0  0  1  0  0  0  0  0999 V2000
    8.8913  -13.8381   15.6815 O   0  0  0  0  0  0  0  0  0  0  0  0
    8.4272  -14.1701   16.9486 C   0  0  0  0  0  0  0  0  0  0  0  0
    8.3877  -15.4919   17.2913 C   0  0  0  0  0  0  0  0  0  0  0  0
    7.9250  -15.8374   18.5575 C   0  0  0  0  0  0  0  0  0  0  0  0
    7.5174  -14.8735   19.4427 C   0  0  0  0  0  0  0  0  0  0  0  0
    7.0203  -15.2020   20.7957 C   0  0  0  0  0  0  0  0  0  0  0  0
    6.6993  -16.6968   20.9282 C   0  0  2  0  0  0  0  0  0  0  0  0
    5.3883  -16.8734   20.3299 N   0  0  0  0  0  0  0  0  0  0  0  0
    6.6708  -16.9796   22.3844 C   0  0  0  0  0  0  0  0  0  0  0  0
    5.7450  -16.4723   23.0628 O   0  0  0  0  0  0  0  0  0  0  0  0
    7.5713  -13.5537   19.0631 C   0  0  0  0  0  0  0  0  0  0  0  0
    8.0212  -13.1574   17.8209 C   0  0  0  0  0  0  0  0  0  0  0  0
    6.8922  -20.3329   24.1541 C   0  0  0  0  0  0  0  0  0  0  0  0
    7.9032  -19.4075   24.7939 C   0  0  2  0  0  0  0  0  0  0  0  0
    8.0537  -19.6874   26.2658 C   0  0  0  0  0  0  0  0  0  0  0  0
    7.6078  -17.9609   24.5057 C   0  0  2  0  0  0  0  0  0  0  0  0
    7.6197  -17.7858   23.0658 N   0  0  0  0  0  0  0  0  0  0  0  0
    8.5374  -17.0329   25.1848 C   0  0  0  0  0  0  0  0  0  0  0  0
    9.7437  -17.0663   24.8302 O   0  0  0  0  0  0  0  0  0  0  0  0
    7.6633  -11.1029   27.5684 C   0  0  0  0  0  0  0  0  0  0  0  0
    6.4486  -12.3562   28.0505 S   0  0  0  0  0  0  0  0  0  0  0  0
    7.1726  -14.0336   27.9404 C   0  0  0  0  0  0  0  0  0  0  0  0
    8.3578  -13.9283   27.0406 C   0  0  0  0  0  0  0  0  0  0  0  0
    9.1160  -15.1946   26.8129 C   0  0  2  0  0  0  0  0  0  0  0  0
    8.1587  -16.1275   26.1897 N   0  0  0  0  0  0  0  0  0  0  0  0
    9.6398  -15.7857   28.0695 C   0  0  0  0  0  0  0  0  0  0  0  0
   10.7984  -15.3136   28.6599 O   0  0  0  0  0  0  0  0  0  0  0  0
    9.0280  -16.7399   28.6236 O   0  0  0  0  0  0  0  0  0  0  0  0
  2 12  2  0
  2  1  1  0
  3  2  1  0
  4  5  1  0
  4  3  2  0
  5 11  2  0
  6  5  1  0
  7  6  1  0
  7  8  1  1
  9 10  2  0
  9  7  1  0
 11 12  1  0
 14 13  1  1
 14 16  1  0
 15 14  1  0
 16 17  1  6
 17  9  1  0
 18 19  2  0
 18 16  1  0
 20 21  1  0
 22 21  1  0
 23 22  1  0
 24 23  1  1
 24 25  1  0
 25 18  1  0
 26 24  1  0
 27 26  1  0
 28 26  2  0
M  END
$$$$
