YVM.pdb
     RDKit          3D

 28 28  0  0  1  0  0  0  0  0999 V2000
    8.8216  -12.6822   16.9612 O   0  0  0  0  0  0  0  0  0  0  0  0
    8.4060  -13.2576   18.1560 C   0  0  0  0  0  0  0  0  0  0  0  0
    7.1810  -12.9041   18.6462 C   0  0  0  0  0  0  0  0  0  0  0  0
    6.7533  -13.4734   19.8419 C   0  0  0  0  0  0  0  0  0  0  0  0
    7.5431  -14.3694   20.5143 C   0  0  0  0  0  0  0  0  0  0  0  0
    7.1229  -14.9946   21.7864 C   0  0  0  0  0  0  0  0  0  0  0  0
    7.2681  -16.5215   21.7363 C   0  0  2  0  0  0  0  0  0  0  0  0
    6.1688  -16.9957   20.9150 N   0  0  0  0  0  0  0  0  0  0  0  0
    7.1357  -16.9894   23.1381 C   0  0  0  0  0  0  0  0  0  0  0  0
    6.0072  -17.3817   23.5218 O   0  0  0  0  0  0  0  0  0  0  0  0
    8.7698  -14.7013   19.9909 C   0  0  0  0  0  0  0  0  0  0  0  0
    9.2411  -14.1665   18.8100 C   0  0  0  0  0  0  0  0  0  0  0  0
    8.7679  -19.9342   24.4061 C   0  0  0  0  0  0  0  0  0  0  0  0
    7.6711  -19.1306   25.0686 C   0  0  2  0  0  0  0  0  0  0  0  0
    6.3844  -19.2060   24.2901 C   0  0  0  0  0  0  0  0  0  0  0  0
    8.0972  -17.7155   25.3492 C   0  0  2  0  0  0  0  0  0  0  0  0
    8.1988  -17.0244   24.0780 N   0  0  0  0  0  0  0  0  0  0  0  0
    9.3513  -17.6312   26.1280 C   0  0  0  0  0  0  0  0  0  0  0  0
   10.4063  -18.0164   25.5617 O   0  0  0  0  0  0  0  0  0  0  0  0
    8.4755  -11.7370   27.5686 C   0  0  0  0  0  0  0  0  0  0  0  0
    9.4999  -12.8749   28.5355 S   0  0  0  0  0  0  0  0  0  0  0  0
    9.7440  -14.4490   27.6341 C   0  0  0  0  0  0  0  0  0  0  0  0
   10.5014  -15.3514   28.5492 C   0  0  0  0  0  0  0  0  0  0  0  0
   10.7125  -16.7462   28.0591 C   0  0  2  0  0  0  0  0  0  0  0  0
    9.4341  -17.1525   27.4459 N   0  0  0  0  0  0  0  0  0  0  0  0
   11.0644  -17.6918   29.1475 C   0  0  0  0  0  0  0  0  0  0  0  0
   12.3408  -17.7358   29.6794 O   0  0  0  0  0  0  0  0  0  0  0  0
   10.1932  -18.4794   29.6086 O   0  0  0  0  0  0  0  0  0  0  0  0
  2 12  2  0
  2  1  1  0
  3  2  1  0
  4  5  1  0
  4  3  2  0
  5 11  2  0
  6  5  1  0
  7  6  1  0
  7  8  1  6
  9 10  2  0
  9  7  1  0
 11 12  1  0
 14 13  1  6
 14 16  1  0
 15 14  1  0
 16 17  1  6
 17  9  1  0
 18 19  2  0
 18 16  1  0
 20 21  1  0
 22 21  1  0
 23 22  1  0
 24 23  1  1
 24 25  1  0
 25 18  1  0
 26 24  1  0
 27 26  1  0
 28 26  2  0
M  END
$$$$
