YVM.pdb
     RDKit          3D

 28 28  0  0  1  0  0  0  0  0999 V2000
   18.0268  -16.9839   17.8339 O   0  0  0  0  0  0  0  0  0  0  0  0
   16.9120  -16.3721   18.3946 C   0  0  0  0  0  0  0  0  0  0  0  0
   16.0255  -17.1560   19.0771 C   0  0  0  0  0  0  0  0  0  0  0  0
   14.9050  -16.5554   19.6432 C   0  0  0  0  0  0  0  0  0  0  0  0
   14.6941  -15.2067   19.5195 C   0  0  0  0  0  0  0  0  0  0  0  0
   13.5163  -14.5335   20.1070 C   0  0  0  0  0  0  0  0  0  0  0  0
   12.2287  -14.8977   19.3556 C   0  0  2  0  0  0  0  0  0  0  0  0
   12.2741  -14.1520   18.1107 N   0  0  0  0  0  0  0  0  0  0  0  0
   11.1110  -14.4414   20.2180 C   0  0  0  0  0  0  0  0  0  0  0  0
   11.0368  -13.2172   20.4839 O   0  0  0  0  0  0  0  0  0  0  0  0
   15.6075  -14.4496   18.8257 C   0  0  0  0  0  0  0  0  0  0  0  0
   16.7340  -14.9947   18.2456 C   0  0  0  0  0  0  0  0  0  0  0  0
    7.6519  -14.7075   19.4728 C   0  0  0  0  0  0  0  0  0  0  0  0
    7.7354  -15.2119   20.8964 C   0  0  2  0  0  0  0  0  0  0  0  0
    6.5138  -14.8302   21.6897 C   0  0  0  0  0  0  0  0  0  0  0  0
    9.0161  -14.7989   21.5687 C   0  0  2  0  0  0  0  0  0  0  0  0
   10.1170  -15.2945   20.7647 N   0  0  0  0  0  0  0  0  0  0  0  0
    9.1064  -15.2532   22.9730 C   0  0  0  0  0  0  0  0  0  0  0  0
    9.8384  -16.2486   23.2088 O   0  0  0  0  0  0  0  0  0  0  0  0
    7.1569  -10.0762   26.9672 C   0  0  0  0  0  0  0  0  0  0  0  0
    6.7871  -11.8478   27.0263 S   0  0  0  0  0  0  0  0  0  0  0  0
    8.1244  -12.8136   26.2333 C   0  0  0  0  0  0  0  0  0  0  0  0
    7.6909  -14.2408   26.2563 C   0  0  0  0  0  0  0  0  0  0  0  0
    8.4978  -15.1791   25.4202 C   0  0  2  0  0  0  0  0  0  0  0  0
    8.4323  -14.6475   24.0460 N   0  0  0  0  0  0  0  0  0  0  0  0
    7.9720  -16.5668   25.4419 C   0  0  0  0  0  0  0  0  0  0  0  0
    8.4706  -17.5128   26.3197 O   0  0  0  0  0  0  0  0  0  0  0  0
    7.0515  -16.9078   24.6494 O   0  0  0  0  0  0  0  0  0  0  0  0
  2 12  2  0
  2  1  1  0
  3  2  1  0
  4  5  1  0
  4  3  2  0
  5 11  2  0
  6  5  1  0
  7  6  1  0
  7  8  1  6
  9 10  2  0
  9  7  1  0
 11 12  1  0
 14 13  1  6
 14 16  1  0
 15 14  1  0
 16 17  1  6
 17  9  1  0
 18 19  2  0
 18 16  1  0
 20 21  1  0
 22 21  1  0
 23 22  1  0
 24 23  1  1
 24 25  1  0
 25 18  1  0
 26 24  1  0
 27 26  1  0
 28 26  2  0
M  END
$$$$
