YVM.pdb
     RDKit          3D

 28 28  0  0  1  0  0  0  0  0999 V2000
    8.9866  -18.7335   28.0368 O   0  0  0  0  0  0  0  0  0  0  0  0
    8.1096  -18.8003   26.9608 C   0  0  0  0  0  0  0  0  0  0  0  0
    7.3261  -17.7113   26.7033 C   0  0  0  0  0  0  0  0  0  0  0  0
    6.4438  -17.7656   25.6286 C   0  0  0  0  0  0  0  0  0  0  0  0
    6.3614  -18.8868   24.8444 C   0  0  0  0  0  0  0  0  0  0  0  0
    5.4368  -18.9814   23.6948 C   0  0  0  0  0  0  0  0  0  0  0  0
    6.1509  -19.5058   22.4417 C   0  0  2  0  0  0  0  0  0  0  0  0
    7.0726  -20.5249   22.9103 N   0  0  0  0  0  0  0  0  0  0  0  0
    6.8754  -18.3441   21.8699 C   0  0  0  0  0  0  0  0  0  0  0  0
    6.9132  -18.2331   20.6205 O   0  0  0  0  0  0  0  0  0  0  0  0
    7.1653  -19.9634   25.1336 C   0  0  0  0  0  0  0  0  0  0  0  0
    8.0564  -19.9616   26.1865 C   0  0  0  0  0  0  0  0  0  0  0  0
    6.6661  -16.1410   19.9956 C   0  0  0  0  0  0  0  0  0  0  0  0
    7.0011  -15.4459   21.2965 C   0  0  2  0  0  0  0  0  0  0  0  0
    7.2898  -13.9836   21.0826 C   0  0  0  0  0  0  0  0  0  0  0  0
    8.0977  -16.1498   22.0480 C   0  0  2  0  0  0  0  0  0  0  0  0
    7.5305  -17.3470   22.6389 N   0  0  0  0  0  0  0  0  0  0  0  0
    8.7531  -15.2904   23.0572 C   0  0  0  0  0  0  0  0  0  0  0  0
    9.5209  -14.3891   22.6328 O   0  0  0  0  0  0  0  0  0  0  0  0
    6.1406  -11.0339   27.0813 C   0  0  0  0  0  0  0  0  0  0  0  0
    6.8283  -12.4084   28.0388 S   0  0  0  0  0  0  0  0  0  0  0  0
    8.3993  -12.9880   27.3000 C   0  0  0  0  0  0  0  0  0  0  0  0
    8.0327  -13.9286   26.2017 C   0  0  0  0  0  0  0  0  0  0  0  0
    9.1725  -14.4785   25.4087 C   0  0  2  0  0  0  0  0  0  0  0  0
    8.5719  -15.4187   24.4441 N   0  0  0  0  0  0  0  0  0  0  0  0
   10.1654  -15.1942   26.2481 C   0  0  0  0  0  0  0  0  0  0  0  0
   10.4363  -16.5373   26.0569 O   0  0  0  0  0  0  0  0  0  0  0  0
   10.7839  -14.5798   27.1602 O   0  0  0  0  0  0  0  0  0  0  0  0
  2 12  2  0
  2  1  1  0
  3  2  1  0
  4  5  1  0
  4  3  2  0
  5 11  2  0
  6  5  1  0
  7  6  1  0
  7  8  1  1
  9 10  2  0
  9  7  1  0
 11 12  1  0
 14 13  1  6
 14 16  1  0
 15 14  1  0
 16 17  1  1
 17  9  1  0
 18 19  2  0
 18 16  1  0
 20 21  1  0
 22 21  1  0
 23 22  1  0
 24 23  1  1
 24 25  1  0
 25 18  1  0
 26 24  1  0
 27 26  1  0
 28 26  2  0
M  END
$$$$
