VRV.pdb
     RDKit          3D

 26 25  0  0  1  0  0  0  0  0999 V2000
   26.4391  -17.4475  -16.2375 C   0  0  0  0  0  0  0  0  0  0  0  0
   27.2992  -18.4445  -16.9834 C   0  0  1  0  0  0  0  0  0  0  0  0
   28.4716  -17.6648  -17.5620 C   0  0  0  0  0  0  0  0  0  0  0  0
   27.7745  -19.4757  -15.9843 C   0  0  2  0  0  0  0  0  0  0  0  0
   28.6335  -20.3861  -16.7206 N   0  0  0  0  0  0  0  0  0  0  0  0
   26.6548  -20.1953  -15.3462 C   0  0  0  0  0  0  0  0  0  0  0  0
   25.9469  -20.9372  -16.0843 O   0  0  0  0  0  0  0  0  0  0  0  0
   24.4584  -19.4304   -9.1790 N   0  0  0  0  0  0  0  0  0  0  0  0
   24.7230  -20.7360   -8.6784 C   0  0  0  0  0  0  0  0  0  0  0  0
   23.8737  -21.2823   -7.8517 N   0  0  0  0  0  0  0  0  0  0  0  0
   25.8770  -21.4715   -9.0379 N   0  0  0  0  0  0  0  0  0  0  0  0
   26.8996  -20.8696   -9.8500 C   0  0  0  0  0  0  0  0  0  0  0  0
   26.7020  -21.1133  -11.3290 C   0  0  0  0  0  0  0  0  0  0  0  0
   25.4202  -20.5825  -11.8437 C   0  0  0  0  0  0  0  0  0  0  0  0
   25.2358  -20.7895  -13.3251 C   0  0  2  0  0  0  0  0  0  0  0  0
   26.3424  -20.0948  -13.9701 N   0  0  0  0  0  0  0  0  0  0  0  0
   23.9403  -20.2024  -13.7322 C   0  0  0  0  0  0  0  0  0  0  0  0
   23.8081  -18.9630  -13.6701 O   0  0  0  0  0  0  0  0  0  0  0  0
   24.0621  -22.2053   -7.4093 C   0  0  0  0  0  0  0  0  0  0  0  0
   22.1773  -20.4802  -16.9335 C   0  0  1  0  0  0  0  0  0  0  0  0
   21.1063  -20.7851  -15.9097 C   0  0  0  0  0  0  0  0  0  0  0  0
   19.8187  -20.1229  -16.3121 C   0  0  2  0  0  0  0  0  0  0  0  0
   21.6103  -20.3303  -14.5618 N   0  0  0  0  0  0  0  0  0  0  0  0
   22.8421  -20.9579  -14.1879 C   0  0  0  0  0  0  0  0  0  0  0  0
   20.5274  -20.5499  -13.5726 O   0  0  0  0  0  0  0  0  0  0  0  0
   19.4397  -19.6954  -13.4177 O   0  0  0  0  0  0  0  0  0  0  0  0
  2  3  1  1
  2  1  1  0
  4  2  1  0
  4  5  1  6
  6  4  1  0
  6  7  2  0
  9  8  1  0
 10  9  2  0
 11  9  1  0
 12 13  1  0
 12 11  1  0
 13 14  1  0
 15 14  1  1
 15 16  1  0
 16  6  1  0
 17 15  1  0
 18 17  2  0
 20 19  1  6
 20 22  1  0
 21 20  1  0
 22 24  1  0
 22 23  1  1
 23 17  1  0
 24 25  1  0
 26 24  2  0
M  END
$$$$
