VRV.pdb
     RDKit          3D

 26 25  0  0  1  0  0  0  0  0999 V2000
   29.1491  -21.6475  -19.1149 C   0  0  0  0  0  0  0  0  0  0  0  0
   27.9456  -22.2118  -18.3916 C   0  0  1  0  0  0  0  0  0  0  0  0
   28.4807  -23.1103  -17.2856 C   0  0  0  0  0  0  0  0  0  0  0  0
   27.1707  -21.0473  -17.8164 C   0  0  2  0  0  0  0  0  0  0  0  0
   28.1612  -20.0854  -17.3664 N   0  0  0  0  0  0  0  0  0  0  0  0
   26.2822  -21.4567  -16.7111 C   0  0  0  0  0  0  0  0  0  0  0  0
   25.3553  -22.2708  -16.9838 O   0  0  0  0  0  0  0  0  0  0  0  0
   23.5466  -19.8243   -9.8848 N   0  0  0  0  0  0  0  0  0  0  0  0
   24.2171  -20.7289   -9.0145 C   0  0  0  0  0  0  0  0  0  0  0  0
   23.6741  -21.0228   -7.8647 N   0  0  0  0  0  0  0  0  0  0  0  0
   25.4577  -21.3250   -9.3425 N   0  0  0  0  0  0  0  0  0  0  0  0
   26.1689  -20.9210  -10.5250 C   0  0  0  0  0  0  0  0  0  0  0  0
   25.4418  -21.2724  -11.8032 C   0  0  0  0  0  0  0  0  0  0  0  0
   26.2161  -20.9548  -13.0235 C   0  0  0  0  0  0  0  0  0  0  0  0
   25.4972  -21.3085  -14.3001 C   0  0  2  0  0  0  0  0  0  0  0  0
   26.4178  -20.9882  -15.3831 N   0  0  0  0  0  0  0  0  0  0  0  0
   24.2678  -20.4915  -14.3986 C   0  0  0  0  0  0  0  0  0  0  0  0
   24.3780  -19.2497  -14.3424 O   0  0  0  0  0  0  0  0  0  0  0  0
   24.1581  -21.6336   -7.1749 C   0  0  0  0  0  0  0  0  0  0  0  0
   20.6780  -21.7403  -16.1403 C   0  0  1  0  0  0  0  0  0  0  0  0
   21.1135  -20.3016  -15.9712 C   0  0  0  0  0  0  0  0  0  0  0  0
   21.9704  -19.8923  -17.1361 C   0  0  1  0  0  0  0  0  0  0  0  0
   21.8226  -20.1844  -14.6442 N   0  0  0  0  0  0  0  0  0  0  0  0
   22.9751  -21.0297  -14.5531 C   0  0  0  0  0  0  0  0  0  0  0  0
   20.8306  -20.4441  -13.5729 O   0  0  0  0  0  0  0  0  0  0  0  0
   19.7729  -19.5888  -13.2777 O   0  0  0  0  0  0  0  0  0  0  0  0
  2  3  1  1
  2  1  1  0
  4  2  1  0
  4  5  1  1
  6  4  1  0
  6  7  2  0
  9  8  1  0
 10  9  2  0
 11  9  1  0
 12 13  1  0
 12 11  1  0
 13 14  1  0
 15 14  1  1
 15 16  1  0
 16  6  1  0
 17 15  1  0
 18 17  2  0
 20 19  1  6
 20 22  1  0
 21 20  1  0
 22 24  1  0
 22 23  1  6
 23 17  1  0
 24 25  1  0
 26 24  2  0
M  END
$$$$
