VRV.pdb
     RDKit          3D

 26 25  0  0  1  0  0  0  0  0999 V2000
   17.8179  -14.0297  -16.0536 C   0  0  0  0  0  0  0  0  0  0  0  0
   18.6141  -15.2909  -16.3094 C   0  0  1  0  0  0  0  0  0  0  0  0
   17.6075  -16.4252  -16.4405 C   0  0  0  0  0  0  0  0  0  0  0  0
   19.3799  -15.0944  -17.5987 C   0  0  2  0  0  0  0  0  0  0  0  0
   20.2064  -16.2772  -17.7623 N   0  0  0  0  0  0  0  0  0  0  0  0
   20.2000  -13.8672  -17.5818 C   0  0  0  0  0  0  0  0  0  0  0  0
   21.2904  -13.9075  -16.9449 O   0  0  0  0  0  0  0  0  0  0  0  0
   18.9968   -7.5741  -21.9509 N   0  0  0  0  0  0  0  0  0  0  0  0
   20.3296   -7.8825  -22.3432 C   0  0  0  0  0  0  0  0  0  0  0  0
   21.1031   -6.9221  -22.7707 N   0  0  0  0  0  0  0  0  0  0  0  0
   20.8553   -9.1952  -22.2928 N   0  0  0  0  0  0  0  0  0  0  0  0
   20.0162  -10.3010  -21.9181 C   0  0  0  0  0  0  0  0  0  0  0  0
   20.5821  -11.1140  -20.7759 C   0  0  0  0  0  0  0  0  0  0  0  0
   20.1227  -10.6547  -19.4464 C   0  0  0  0  0  0  0  0  0  0  0  0
   20.6651  -11.4775  -18.3061 C   0  0  2  0  0  0  0  0  0  0  0  0
   19.8284  -12.6683  -18.2344 N   0  0  0  0  0  0  0  0  0  0  0  0
   20.5636  -10.6900  -17.0578 C   0  0  0  0  0  0  0  0  0  0  0  0
   19.4527  -10.6183  -16.4935 O   0  0  0  0  0  0  0  0  0  0  0  0
   22.0808   -7.1063  -23.0758 C   0  0  0  0  0  0  0  0  0  0  0  0
   23.9721   -9.2429  -14.9109 C   0  0  1  0  0  0  0  0  0  0  0  0
   22.7314   -9.8278  -14.2732 C   0  0  0  0  0  0  0  0  0  0  0  0
   22.9049  -11.3100  -14.0955 C   0  0  1  0  0  0  0  0  0  0  0  0
   21.5505   -9.4697  -15.1420 N   0  0  0  0  0  0  0  0  0  0  0  0
   21.6469  -10.0136  -16.4632 C   0  0  0  0  0  0  0  0  0  0  0  0
   21.4105   -7.9934  -15.1346 O   0  0  0  0  0  0  0  0  0  0  0  0
   20.9560   -7.2673  -14.0375 O   0  0  0  0  0  0  0  0  0  0  0  0
  2  3  1  6
  2  1  1  0
  4  2  1  0
  4  5  1  1
  6  4  1  0
  6  7  2  0
  9  8  1  0
 10  9  2  0
 11  9  1  0
 12 13  1  0
 12 11  1  0
 13 14  1  0
 15 14  1  6
 15 16  1  0
 16  6  1  0
 17 15  1  0
 18 17  2  0
 20 19  1  1
 20 22  1  0
 21 20  1  0
 22 24  1  0
 22 23  1  6
 23 17  1  0
 24 25  1  0
 26 24  2  0
M  END
$$$$
