VRV.pdb
     RDKit          3D

 26 25  0  0  1  0  0  0  0  0999 V2000
   27.6760  -16.7980  -20.8614 C   0  0  0  0  0  0  0  0  0  0  0  0
   27.0628  -17.8540  -19.9676 C   0  0  1  0  0  0  0  0  0  0  0  0
   28.0990  -18.1809  -18.9015 C   0  0  0  0  0  0  0  0  0  0  0  0
   25.8167  -17.2614  -19.3486 C   0  0  2  0  0  0  0  0  0  0  0  0
   26.1832  -15.9309  -18.8967 N   0  0  0  0  0  0  0  0  0  0  0  0
   25.3001  -18.0809  -18.2349 C   0  0  0  0  0  0  0  0  0  0  0  0
   24.8724  -19.2363  -18.5153 O   0  0  0  0  0  0  0  0  0  0  0  0
   25.8516  -22.1137  -11.7035 N   0  0  0  0  0  0  0  0  0  0  0  0
   25.7810  -20.7685  -11.2443 C   0  0  0  0  0  0  0  0  0  0  0  0
   25.5096  -20.5408   -9.9882 N   0  0  0  0  0  0  0  0  0  0  0  0
   25.9904  -19.6593  -12.0973 N   0  0  0  0  0  0  0  0  0  0  0  0
   26.4534  -19.8546  -13.4444 C   0  0  0  0  0  0  0  0  0  0  0  0
   26.6472  -18.5586  -14.1984 C   0  0  0  0  0  0  0  0  0  0  0  0
   25.3753  -17.8827  -14.5375 C   0  0  0  0  0  0  0  0  0  0  0  0
   24.7228  -18.4210  -15.7849 C   0  0  2  0  0  0  0  0  0  0  0  0
   25.2623  -17.6408  -16.8909 N   0  0  0  0  0  0  0  0  0  0  0  0
   23.2591  -18.2347  -15.6773 C   0  0  0  0  0  0  0  0  0  0  0  0
   22.8176  -17.0715  -15.5794 O   0  0  0  0  0  0  0  0  0  0  0  0
   25.4514  -19.5725   -9.6112 C   0  0  0  0  0  0  0  0  0  0  0  0
   20.5842  -19.3626  -17.9142 C   0  0  1  0  0  0  0  0  0  0  0  0
   20.0848  -19.7652  -16.5442 C   0  0  0  0  0  0  0  0  0  0  0  0
   18.6195  -19.4522  -16.4280 C   0  0  2  0  0  0  0  0  0  0  0  0
   20.9265  -19.0509  -15.5152 N   0  0  0  0  0  0  0  0  0  0  0  0
   22.3286  -19.2923  -15.6789 C   0  0  0  0  0  0  0  0  0  0  0  0
   20.4278  -19.4348  -14.1724 O   0  0  0  0  0  0  0  0  0  0  0  0
   19.4669  -18.7123  -13.4711 O   0  0  0  0  0  0  0  0  0  0  0  0
  2  3  1  1
  2  1  1  0
  4  2  1  0
  4  5  1  1
  6  4  1  0
  6  7  2  0
  9  8  1  0
 10  9  2  0
 11  9  1  0
 12 13  1  0
 12 11  1  0
 13 14  1  0
 15 14  1  1
 15 16  1  0
 16  6  1  0
 17 15  1  0
 18 17  2  0
 20 19  1  6
 20 22  1  0
 21 20  1  0
 22 24  1  0
 22 23  1  1
 23 17  1  0
 24 25  1  0
 26 24  2  0
M  END
$$$$
