VRV.pdb
     RDKit          3D

 26 25  0  0  1  0  0  0  0  0999 V2000
   17.4521  -14.0211  -15.5304 C   0  0  0  0  0  0  0  0  0  0  0  0
   18.0596  -15.3948  -15.7144 C   0  0  1  0  0  0  0  0  0  0  0  0
   16.9068  -16.3888  -15.7008 C   0  0  0  0  0  0  0  0  0  0  0  0
   18.7688  -15.4057  -17.0502 C   0  0  2  0  0  0  0  0  0  0  0  0
   19.4442  -16.6882  -17.1388 N   0  0  0  0  0  0  0  0  0  0  0  0
   19.7233  -14.2881  -17.1869 C   0  0  0  0  0  0  0  0  0  0  0  0
   20.8795  -14.4510  -16.7040 O   0  0  0  0  0  0  0  0  0  0  0  0
   22.1560  -10.6121  -22.4665 N   0  0  0  0  0  0  0  0  0  0  0  0
   21.0554  -11.0135  -23.2746 C   0  0  0  0  0  0  0  0  0  0  0  0
   21.2840  -11.4716  -24.4751 N   0  0  0  0  0  0  0  0  0  0  0  0
   19.7142  -10.9336  -22.8311 N   0  0  0  0  0  0  0  0  0  0  0  0
   19.4168  -10.5438  -21.4795 C   0  0  0  0  0  0  0  0  0  0  0  0
   20.1083  -11.4063  -20.4481 C   0  0  0  0  0  0  0  0  0  0  0  0
   19.7343  -11.0686  -19.0568 C   0  0  0  0  0  0  0  0  0  0  0  0
   20.3584  -11.9777  -18.0294 C   0  0  2  0  0  0  0  0  0  0  0  0
   19.4095  -13.0639  -17.8227 N   0  0  0  0  0  0  0  0  0  0  0  0
   20.5631  -11.2155  -16.7780 C   0  0  0  0  0  0  0  0  0  0  0  0
   19.5651  -10.9555  -16.0752 O   0  0  0  0  0  0  0  0  0  0  0  0
   20.5066  -11.7546  -25.1065 C   0  0  0  0  0  0  0  0  0  0  0  0
   23.1822  -10.0534  -12.9197 C   0  0  1  0  0  0  0  0  0  0  0  0
   23.2286  -10.5996  -14.3296 C   0  0  0  0  0  0  0  0  0  0  0  0
   24.4870  -10.1383  -15.0094 C   0  0  2  0  0  0  0  0  0  0  0  0
   21.9740  -10.1550  -15.0408 N   0  0  0  0  0  0  0  0  0  0  0  0
   21.8190  -10.7634  -16.3279 C   0  0  0  0  0  0  0  0  0  0  0  0
   21.9849   -8.6732  -15.1007 O   0  0  0  0  0  0  0  0  0  0  0  0
   21.6568   -7.8555  -14.0232 O   0  0  0  0  0  0  0  0  0  0  0  0
  2  3  1  6
  2  1  1  0
  4  2  1  0
  4  5  1  1
  6  4  1  0
  6  7  2  0
  9  8  1  0
 10  9  2  0
 11  9  1  0
 12 13  1  0
 12 11  1  0
 13 14  1  0
 15 14  1  6
 15 16  1  0
 16  6  1  0
 17 15  1  0
 18 17  2  0
 20 19  1  1
 20 22  1  0
 21 20  1  0
 22 24  1  0
 22 23  1  6
 23 17  1  0
 24 25  1  0
 26 24  2  0
M  END
$$$$
