VRV.pdb
     RDKit          3D

 26 25  0  0  1  0  0  0  0  0999 V2000
   27.6774  -13.3774  -16.8736 C   0  0  0  0  0  0  0  0  0  0  0  0
   27.0182  -12.1229  -17.4043 C   0  0  1  0  0  0  0  0  0  0  0  0
   25.5998  -12.1062  -16.8519 C   0  0  0  0  0  0  0  0  0  0  0  0
   27.8116  -10.9398  -16.8962 C   0  0  2  0  0  0  0  0  0  0  0  0
   27.0656   -9.7559  -17.2846 N   0  0  0  0  0  0  0  0  0  0  0  0
   29.1834  -10.9098  -17.4402 C   0  0  0  0  0  0  0  0  0  0  0  0
   29.9573  -11.8534  -17.1132 O   0  0  0  0  0  0  0  0  0  0  0  0
   34.3116  -11.7217  -21.9455 N   0  0  0  0  0  0  0  0  0  0  0  0
   34.5398  -10.6129  -22.8080 C   0  0  0  0  0  0  0  0  0  0  0  0
   35.6704  -10.5351  -23.4551 N   0  0  0  0  0  0  0  0  0  0  0  0
   33.5884   -9.5820  -22.9932 N   0  0  0  0  0  0  0  0  0  0  0  0
   32.2883   -9.6742  -22.3861 C   0  0  0  0  0  0  0  0  0  0  0  0
   32.3366   -9.6506  -20.8751 C   0  0  0  0  0  0  0  0  0  0  0  0
   31.0000   -9.7300  -20.2453 C   0  0  0  0  0  0  0  0  0  0  0  0
   31.0471   -9.7741  -18.7396 C   0  0  2  0  0  0  0  0  0  0  0  0
   29.6640   -9.8912  -18.2962 N   0  0  0  0  0  0  0  0  0  0  0  0
   31.6518   -8.5185  -18.2432 C   0  0  0  0  0  0  0  0  0  0  0  0
   30.9395   -7.4944  -18.2061 O   0  0  0  0  0  0  0  0  0  0  0  0
   35.8843   -9.7323  -24.0819 C   0  0  0  0  0  0  0  0  0  0  0  0
   35.0106   -8.3337  -15.7444 C   0  0  1  0  0  0  0  0  0  0  0  0
   33.9122   -7.2968  -15.8275 C   0  0  0  0  0  0  0  0  0  0  0  0
   32.7813   -7.6840  -14.9166 C   0  0  1  0  0  0  0  0  0  0  0  0
   33.4946   -7.1783  -17.2729 N   0  0  0  0  0  0  0  0  0  0  0  0
   32.9867   -8.4060  -17.8075 C   0  0  0  0  0  0  0  0  0  0  0  0
   34.6491   -6.6495  -18.0389 O   0  0  0  0  0  0  0  0  0  0  0  0
   35.1501   -5.3599  -17.8862 O   0  0  0  0  0  0  0  0  0  0  0  0
  2  3  1  1
  2  1  1  0
  4  2  1  0
  4  5  1  6
  6  4  1  0
  6  7  2  0
  9  8  1  0
 10  9  2  0
 11  9  1  0
 12 13  1  0
 12 11  1  0
 13 14  1  0
 15 14  1  6
 15 16  1  0
 16  6  1  0
 17 15  1  0
 18 17  2  0
 20 19  1  1
 20 22  1  0
 21 20  1  0
 22 24  1  0
 22 23  1  1
 23 17  1  0
 24 25  1  0
 26 24  2  0
M  END
$$$$
