VRV.pdb
     RDKit          3D

 26 25  0  0  1  0  0  0  0  0999 V2000
   23.2370  -27.4375  -14.9713 C   0  0  0  0  0  0  0  0  0  0  0  0
   22.8370  -26.0012  -14.7124 C   0  0  1  0  0  0  0  0  0  0  0  0
   23.2162  -25.6940  -13.2706 C   0  0  0  0  0  0  0  0  0  0  0  0
   23.6135  -25.1301  -15.6744 C   0  0  2  0  0  0  0  0  0  0  0  0
   25.0037  -25.5313  -15.5511 N   0  0  0  0  0  0  0  0  0  0  0  0
   23.4447  -23.6917  -15.3891 C   0  0  0  0  0  0  0  0  0  0  0  0
   22.2916  -23.2006  -15.5489 O   0  0  0  0  0  0  0  0  0  0  0  0
   23.9764  -19.8128   -9.9909 N   0  0  0  0  0  0  0  0  0  0  0  0
   25.0512  -20.4966   -9.3562 C   0  0  0  0  0  0  0  0  0  0  0  0
   25.0717  -20.5751   -8.0537 N   0  0  0  0  0  0  0  0  0  0  0  0
   26.1079  -21.0963  -10.0813 N   0  0  0  0  0  0  0  0  0  0  0  0
   26.3261  -20.7592  -11.4619 C   0  0  0  0  0  0  0  0  0  0  0  0
   25.1984  -21.2030  -12.3658 C   0  0  0  0  0  0  0  0  0  0  0  0
   25.5032  -21.0411  -13.8047 C   0  0  0  0  0  0  0  0  0  0  0  0
   24.3583  -21.4218  -14.7079 C   0  0  2  0  0  0  0  0  0  0  0  0
   24.4958  -22.8516  -14.9524 N   0  0  0  0  0  0  0  0  0  0  0  0
   24.4727  -20.6609  -15.9715 C   0  0  0  0  0  0  0  0  0  0  0  0
   25.5402  -20.7392  -16.6133 O   0  0  0  0  0  0  0  0  0  0  0  0
   25.8138  -21.1052   -7.5524 C   0  0  0  0  0  0  0  0  0  0  0  0
   21.2204  -18.6625  -17.8869 C   0  0  1  0  0  0  0  0  0  0  0  0
   22.3894  -19.2692  -18.6309 C   0  0  0  0  0  0  0  0  0  0  0  0
   22.0621  -20.6833  -19.0202 C   0  0  1  0  0  0  0  0  0  0  0  0
   23.6072  -19.1653  -17.7456 N   0  0  0  0  0  0  0  0  0  0  0  0
   23.4479  -19.8505  -16.4982 C   0  0  0  0  0  0  0  0  0  0  0  0
   23.9266  -17.7270  -17.5770 O   0  0  0  0  0  0  0  0  0  0  0  0
   24.5692  -16.9612  -18.5455 O   0  0  0  0  0  0  0  0  0  0  0  0
  2  3  1  1
  2  1  1  0
  4  2  1  0
  4  5  1  1
  6  4  1  0
  6  7  2  0
  9  8  1  0
 10  9  2  0
 11  9  1  0
 12 13  1  0
 12 11  1  0
 13 14  1  0
 15 14  1  1
 15 16  1  0
 16  6  1  0
 17 15  1  0
 18 17  2  0
 20 19  1  6
 20 22  1  0
 21 20  1  0
 22 24  1  0
 22 23  1  1
 23 17  1  0
 24 25  1  0
 26 24  2  0
M  END
$$$$
