VRV.pdb
     RDKit          3D

 26 25  0  0  1  0  0  0  0  0999 V2000
   28.1605  -17.4760  -17.6502 C   0  0  0  0  0  0  0  0  0  0  0  0
   27.1884  -18.2076  -16.7503 C   0  0  1  0  0  0  0  0  0  0  0  0
   25.8655  -18.2781  -17.5001 C   0  0  0  0  0  0  0  0  0  0  0  0
   27.7463  -19.5916  -16.5042 C   0  0  2  0  0  0  0  0  0  0  0  0
   27.9335  -20.1907  -17.8138 N   0  0  0  0  0  0  0  0  0  0  0  0
   26.8549  -20.4137  -15.6627 C   0  0  0  0  0  0  0  0  0  0  0  0
   25.9812  -21.1104  -16.2522 O   0  0  0  0  0  0  0  0  0  0  0  0
   28.3896  -21.0177   -7.5893 N   0  0  0  0  0  0  0  0  0  0  0  0
   27.1592  -20.3390   -7.8149 C   0  0  0  0  0  0  0  0  0  0  0  0
   26.7260  -19.4965   -6.9173 N   0  0  0  0  0  0  0  0  0  0  0  0
   26.3779  -20.5421   -8.9769 N   0  0  0  0  0  0  0  0  0  0  0  0
   26.3495  -21.8283   -9.6189 C   0  0  0  0  0  0  0  0  0  0  0  0
   25.7215  -21.7909  -10.9937 C   0  0  0  0  0  0  0  0  0  0  0  0
   26.5792  -21.1448  -12.0118 C   0  0  0  0  0  0  0  0  0  0  0  0
   25.9856  -21.1636  -13.3970 C   0  0  2  0  0  0  0  0  0  0  0  0
   26.9318  -20.4573  -14.2507 N   0  0  0  0  0  0  0  0  0  0  0  0
   24.6824  -20.4639  -13.3682 C   0  0  0  0  0  0  0  0  0  0  0  0
   24.6525  -19.2884  -12.9500 O   0  0  0  0  0  0  0  0  0  0  0  0
   25.8334  -18.9768   -7.0451 C   0  0  0  0  0  0  0  0  0  0  0  0
   21.3280  -21.4949  -15.6512 C   0  0  1  0  0  0  0  0  0  0  0  0
   21.5834  -20.1276  -15.0567 C   0  0  0  0  0  0  0  0  0  0  0  0
   22.4197  -19.3129  -16.0030 C   0  0  1  0  0  0  0  0  0  0  0  0
   22.2335  -20.3219  -13.7087 N   0  0  0  0  0  0  0  0  0  0  0  0
   23.4682  -21.0434  -13.7856 C   0  0  0  0  0  0  0  0  0  0  0  0
   21.2428  -20.9676  -12.8139 O   0  0  0  0  0  0  0  0  0  0  0  0
   21.3719  -22.2663  -12.3301 O   0  0  0  0  0  0  0  0  0  0  0  0
  2  3  1  6
  2  1  1  0
  4  2  1  0
  4  5  1  6
  6  4  1  0
  6  7  2  0
  9  8  1  0
 10  9  2  0
 11  9  1  0
 12 13  1  0
 12 11  1  0
 13 14  1  0
 15 14  1  1
 15 16  1  0
 16  6  1  0
 17 15  1  0
 18 17  2  0
 20 19  1  6
 20 22  1  0
 21 20  1  0
 22 24  1  0
 22 23  1  6
 23 17  1  0
 24 25  1  0
 26 24  2  0
M  END
$$$$
