VRV.pdb
     RDKit          3D

 26 25  0  0  1  0  0  0  0  0999 V2000
   29.5825  -19.4203  -13.9505 C   0  0  0  0  0  0  0  0  0  0  0  0
   28.8095  -19.4523  -15.2511 C   0  0  1  0  0  0  0  0  0  0  0  0
   29.7442  -20.0350  -16.3018 C   0  0  0  0  0  0  0  0  0  0  0  0
   27.6042  -20.3422  -15.0446 C   0  0  2  0  0  0  0  0  0  0  0  0
   26.9162  -20.3939  -16.3224 N   0  0  0  0  0  0  0  0  0  0  0  0
   26.7146  -19.8422  -13.9781 C   0  0  0  0  0  0  0  0  0  0  0  0
   26.5065  -18.5968  -13.9335 O   0  0  0  0  0  0  0  0  0  0  0  0
   19.8412  -21.4615  -15.1007 N   0  0  0  0  0  0  0  0  0  0  0  0
   20.3605  -20.6578  -14.0473 C   0  0  0  0  0  0  0  0  0  0  0  0
   19.9460  -19.4262  -13.9260 N   0  0  0  0  0  0  0  0  0  0  0  0
   21.3162  -21.1383  -13.1212 N   0  0  0  0  0  0  0  0  0  0  0  0
   21.3869  -20.5856  -11.7958 C   0  0  0  0  0  0  0  0  0  0  0  0
   22.7811  -20.1452  -11.4107 C   0  0  0  0  0  0  0  0  0  0  0  0
   23.8176  -20.5722  -12.3766 C   0  0  0  0  0  0  0  0  0  0  0  0
   25.2175  -20.2022  -11.9582 C   0  0  2  0  0  0  0  0  0  0  0  0
   26.0946  -20.6781  -13.0199 N   0  0  0  0  0  0  0  0  0  0  0  0
   25.5285  -20.8779  -10.6794 C   0  0  0  0  0  0  0  0  0  0  0  0
   25.5962  -22.1241  -10.6712 O   0  0  0  0  0  0  0  0  0  0  0  0
   20.2292  -18.8340  -13.1184 C   0  0  0  0  0  0  0  0  0  0  0  0
   26.3157  -18.8337   -7.0056 C   0  0  1  0  0  0  0  0  0  0  0  0
   26.9434  -20.1730   -7.3222 C   0  0  0  0  0  0  0  0  0  0  0  0
   28.3136  -19.9647   -7.9035 C   0  0  1  0  0  0  0  0  0  0  0  0
   26.0124  -20.9137   -8.2508 N   0  0  0  0  0  0  0  0  0  0  0  0
   25.7546  -20.2001   -9.4653 C   0  0  0  0  0  0  0  0  0  0  0  0
   24.7765  -21.2343   -7.4965 O   0  0  0  0  0  0  0  0  0  0  0  0
   24.7400  -22.1030   -6.4096 O   0  0  0  0  0  0  0  0  0  0  0  0
  2  3  1  6
  2  1  1  0
  4  2  1  0
  4  5  1  6
  6  4  1  0
  6  7  2  0
  9  8  1  0
 10  9  2  0
 11  9  1  0
 12 13  1  0
 12 11  1  0
 13 14  1  0
 15 14  1  6
 15 16  1  0
 16  6  1  0
 17 15  1  0
 18 17  2  0
 20 19  1  1
 20 22  1  0
 21 20  1  0
 22 24  1  0
 22 23  1  6
 23 17  1  0
 24 25  1  0
 26 24  2  0
M  END
$$$$
