VRV.pdb
     RDKit          3D

 26 25  0  0  1  0  0  0  0  0999 V2000
   20.5232  -30.4837   -9.2737 C   0  0  0  0  0  0  0  0  0  0  0  0
   19.6686  -30.2384  -10.4982 C   0  0  1  0  0  0  0  0  0  0  0  0
   18.2228  -30.2025  -10.0232 C   0  0  0  0  0  0  0  0  0  0  0  0
   20.0801  -28.9058  -11.0832 C   0  0  2  0  0  0  0  0  0  0  0  0
   21.4563  -29.0635  -11.5193 N   0  0  0  0  0  0  0  0  0  0  0  0
   19.9503  -27.8029  -10.1109 C   0  0  0  0  0  0  0  0  0  0  0  0
   20.9516  -27.5515   -9.3826 O   0  0  0  0  0  0  0  0  0  0  0  0
   16.7654  -22.4756  -12.9339 N   0  0  0  0  0  0  0  0  0  0  0  0
   17.8825  -21.8543  -12.3083 C   0  0  0  0  0  0  0  0  0  0  0  0
   18.8365  -21.3667  -13.0536 N   0  0  0  0  0  0  0  0  0  0  0  0
   18.0063  -21.7444  -10.9031 N   0  0  0  0  0  0  0  0  0  0  0  0
   17.1085  -22.4577  -10.0357 C   0  0  0  0  0  0  0  0  0  0  0  0
   17.8009  -23.5154   -9.2063 C   0  0  0  0  0  0  0  0  0  0  0  0
   18.0055  -24.7881   -9.9328 C   0  0  0  0  0  0  0  0  0  0  0  0
   18.6721  -25.8539   -9.1014 C   0  0  2  0  0  0  0  0  0  0  0  0
   18.7769  -27.0273   -9.9589 N   0  0  0  0  0  0  0  0  0  0  0  0
   17.8249  -26.1404   -7.9229 C   0  0  0  0  0  0  0  0  0  0  0  0
   16.7571  -26.7615   -8.1002 O   0  0  0  0  0  0  0  0  0  0  0  0
   19.6868  -20.9360  -12.6359 C   0  0  0  0  0  0  0  0  0  0  0  0
   19.0658  -27.0051   -4.2116 C   0  0  1  0  0  0  0  0  0  0  0  0
   17.9502  -25.9841   -4.1754 C   0  0  0  0  0  0  0  0  0  0  0  0
   17.0263  -26.2849   -3.0288 C   0  0  2  0  0  0  0  0  0  0  0  0
   17.2573  -26.0065   -5.5159 N   0  0  0  0  0  0  0  0  0  0  0  0
   18.1496  -25.7548   -6.6074 C   0  0  0  0  0  0  0  0  0  0  0  0
   16.1278  -25.0471   -5.4612 O   0  0  0  0  0  0  0  0  0  0  0  0
   14.8663  -25.3684   -4.9686 O   0  0  0  0  0  0  0  0  0  0  0  0
  2  3  1  1
  2  1  1  0
  4  2  1  0
  4  5  1  1
  6  4  1  0
  6  7  2  0
  9  8  1  0
 10  9  2  0
 11  9  1  0
 12 13  1  0
 12 11  1  0
 13 14  1  0
 15 14  1  6
 15 16  1  0
 16  6  1  0
 17 15  1  0
 18 17  2  0
 20 19  1  1
 20 22  1  0
 21 20  1  0
 22 24  1  0
 22 23  1  6
 23 17  1  0
 24 25  1  0
 26 24  2  0
M  END
$$$$
