VRV.pdb
     RDKit          3D

 26 25  0  0  1  0  0  0  0  0999 V2000
   16.0676  -13.0023  -16.6331 C   0  0  0  0  0  0  0  0  0  0  0  0
   15.9809  -11.5749  -16.1379 C   0  0  1  0  0  0  0  0  0  0  0  0
   14.5152  -11.3080  -15.8256 C   0  0  0  0  0  0  0  0  0  0  0  0
   16.8285  -11.4719  -14.8896 C   0  0  2  0  0  0  0  0  0  0  0  0
   16.4886  -12.6244  -14.0740 N   0  0  0  0  0  0  0  0  0  0  0  0
   16.5967  -10.2115  -14.1574 C   0  0  0  0  0  0  0  0  0  0  0  0
   16.9264   -9.1369  -14.7344 O   0  0  0  0  0  0  0  0  0  0  0  0
   10.9196   -8.7249   -7.4422 N   0  0  0  0  0  0  0  0  0  0  0  0
   11.5221   -7.4696   -7.7365 C   0  0  0  0  0  0  0  0  0  0  0  0
   11.0678   -6.3954   -7.1508 N   0  0  0  0  0  0  0  0  0  0  0  0
   12.5976   -7.3342   -8.6458 N   0  0  0  0  0  0  0  0  0  0  0  0
   12.9930   -8.4402   -9.4750 C   0  0  0  0  0  0  0  0  0  0  0  0
   14.1936   -8.1325  -10.3409 C   0  0  0  0  0  0  0  0  0  0  0  0
   14.5284   -9.2210  -11.2857 C   0  0  0  0  0  0  0  0  0  0  0  0
   15.7190   -8.9146  -12.1576 C   0  0  2  0  0  0  0  0  0  0  0  0
   16.0321  -10.1513  -12.8616 N   0  0  0  0  0  0  0  0  0  0  0  0
   16.8488   -8.5019  -11.2961 C   0  0  0  0  0  0  0  0  0  0  0  0
   17.2737   -9.3147  -10.4499 O   0  0  0  0  0  0  0  0  0  0  0  0
   11.4522   -5.4532   -7.3688 C   0  0  0  0  0  0  0  0  0  0  0  0
   20.9881   -6.2195  -10.5709 C   0  0  1  0  0  0  0  0  0  0  0  0
   19.7881   -6.4308  -11.4674 C   0  0  0  0  0  0  0  0  0  0  0  0
   19.4496   -5.1465  -12.1705 C   0  0  2  0  0  0  0  0  0  0  0  0
   18.6586   -6.9547  -10.6146 N   0  0  0  0  0  0  0  0  0  0  0  0
   17.4779   -7.2437  -11.3718 C   0  0  0  0  0  0  0  0  0  0  0  0
   18.4200   -5.9782   -9.5243 O   0  0  0  0  0  0  0  0  0  0  0  0
   19.1558   -5.9462   -8.3432 O   0  0  0  0  0  0  0  0  0  0  0  0
  2  3  1  1
  2  1  1  0
  4  2  1  0
  4  5  1  1
  6  4  1  0
  6  7  2  0
  9  8  1  0
 10  9  2  0
 11  9  1  0
 12 13  1  0
 12 11  1  0
 13 14  1  0
 15 14  1  1
 15 16  1  0
 16  6  1  0
 17 15  1  0
 18 17  2  0
 20 19  1  6
 20 22  1  0
 21 20  1  0
 22 24  1  0
 22 23  1  1
 23 17  1  0
 24 25  1  0
 26 24  2  0
M  END
$$$$
