CQL.pdb
     RDKit          3D

 24 23  0  0  1  0  0  0  0  0999 V2000
   27.8726  -20.4744  -16.2501 N   0  0  0  0  0  0  0  0  0  0  0  0
   28.1916  -20.9358  -14.9350 C   0  0  1  0  0  0  0  0  0  0  0  0
   29.6755  -20.9131  -14.7297 C   0  0  0  0  0  0  0  0  0  0  0  0
   30.3158  -22.4246  -15.5660 S   0  0  0  0  0  0  0  0  0  0  0  0
   27.4470  -20.1119  -13.9016 C   0  0  0  0  0  0  0  0  0  0  0  0
   27.6930  -18.9007  -13.9180 O   0  0  0  0  0  0  0  0  0  0  0  0
   21.6587  -19.8416  -13.2610 N   0  0  0  0  0  0  0  0  0  0  0  0
   21.8820  -20.5013  -11.9995 C   0  0  0  0  0  0  0  0  0  0  0  0
   20.8539  -20.8649  -11.3909 O   0  0  0  0  0  0  0  0  0  0  0  0
   23.2699  -20.6927  -11.5425 C   0  0  0  0  0  0  0  0  0  0  0  0
   24.3145  -20.0962  -12.4277 C   0  0  0  0  0  0  0  0  0  0  0  0
   25.7301  -20.3046  -11.9840 C   0  0  2  0  0  0  0  0  0  0  0  0
   26.5778  -20.7324  -13.0356 N   0  0  0  0  0  0  0  0  0  0  0  0
   25.8649  -20.9727  -10.6678 C   0  0  0  0  0  0  0  0  0  0  0  0
   26.3080  -22.1217  -10.5110 O   0  0  0  0  0  0  0  0  0  0  0  0
   29.0680  -20.7685   -6.5464 C   0  0  0  0  0  0  0  0  0  0  0  0
   27.6567  -20.1630   -6.3235 C   0  0  1  0  0  0  0  0  0  0  0  0
   27.9278  -18.9114   -5.4909 C   0  0  0  0  0  0  0  0  0  0  0  0
   27.0202  -19.9237   -7.6377 C   0  0  0  0  0  0  0  0  0  0  0  0
   25.9505  -20.8051   -8.1300 C   0  0  2  0  0  0  0  0  0  0  0  0
   25.4832  -20.3073   -9.4477 N   0  0  0  0  0  0  0  0  0  0  0  0
   24.8078  -21.1093   -7.2757 C   0  0  0  0  0  0  0  0  0  0  0  0
   23.6280  -20.7874   -7.4668 O   0  0  0  0  0  0  0  0  0  0  0  0
   25.0406  -21.8443   -6.0998 O   0  0  0  0  0  0  0  0  0  0  0  0
  2  1  1  6
  2  3  1  0
  3  4  1  0
  5  2  1  0
  6  5  2  0
  7  8  1  0
  8 10  1  0
  9  8  2  0
 10 11  1  0
 12 11  1  6
 12 13  1  0
 13  5  1  0
 14 21  1  0
 14 12  1  0
 15 14  2  0
 17 16  1  6
 18 17  1  0
 20 19  1  1
 19 17  1  0
 20 22  1  0
 20 21  1  0
 22 24  1  0
 23 22  2  0
M  END
$$$$
