CQL.pdb
     RDKit          3D

 24 23  0  0  1  0  0  0  0  0999 V2000
   19.9582  -16.8612  -16.6684 N   0  0  0  0  0  0  0  0  0  0  0  0
   19.2575  -15.8408  -15.9529 C   0  0  1  0  0  0  0  0  0  0  0  0
   19.2465  -16.1570  -14.4885 C   0  0  0  0  0  0  0  0  0  0  0  0
   18.3384  -17.7522  -14.3315 S   0  0  0  0  0  0  0  0  0  0  0  0
   19.8682  -14.4849  -16.2524 C   0  0  0  0  0  0  0  0  0  0  0  0
   21.0993  -14.4753  -16.3623 O   0  0  0  0  0  0  0  0  0  0  0  0
   15.6466   -9.7869  -17.2527 N   0  0  0  0  0  0  0  0  0  0  0  0
   16.8871   -9.0567  -17.3193 C   0  0  0  0  0  0  0  0  0  0  0  0
   16.7840   -7.8399  -17.5805 O   0  0  0  0  0  0  0  0  0  0  0  0
   18.1451   -9.7848  -17.0758 C   0  0  0  0  0  0  0  0  0  0  0  0
   17.9874  -11.2446  -16.8023 C   0  0  0  0  0  0  0  0  0  0  0  0
   19.2606  -11.9948  -16.5570 C   0  0  2  0  0  0  0  0  0  0  0  0
   19.0529  -13.3847  -16.3761 N   0  0  0  0  0  0  0  0  0  0  0  0
   20.2067  -11.3096  -15.6446 C   0  0  0  0  0  0  0  0  0  0  0  0
   20.0928  -11.2893  -14.4086 O   0  0  0  0  0  0  0  0  0  0  0  0
   24.9264  -10.6493  -13.4628 C   0  0  0  0  0  0  0  0  0  0  0  0
   24.8821   -9.9661  -14.8554 C   0  0  1  0  0  0  0  0  0  0  0  0
   26.2282  -10.3297  -15.4793 C   0  0  0  0  0  0  0  0  0  0  0  0
   23.6923  -10.4468  -15.5922 C   0  0  0  0  0  0  0  0  0  0  0  0
   22.3426   -9.9912  -15.2257 C   0  0  2  0  0  0  0  0  0  0  0  0
   21.3581  -10.6059  -16.1507 N   0  0  0  0  0  0  0  0  0  0  0  0
   22.0707   -8.5653  -15.0803 C   0  0  0  0  0  0  0  0  0  0  0  0
   22.3242   -7.8548  -14.0990 O   0  0  0  0  0  0  0  0  0  0  0  0
   21.4524   -7.8991  -16.1530 O   0  0  0  0  0  0  0  0  0  0  0  0
  2  1  1  6
  2  3  1  0
  3  4  1  0
  5  2  1  0
  6  5  2  0
  7  8  1  0
  8 10  1  0
  9  8  2  0
 10 11  1  0
 12 11  1  1
 12 13  1  0
 13  5  1  0
 14 21  1  0
 14 12  1  0
 15 14  2  0
 17 16  1  1
 18 17  1  0
 20 19  1  6
 19 17  1  0
 20 22  1  0
 20 21  1  0
 22 24  1  0
 23 22  2  0
M  END
$$$$
