CQL.pdb
     RDKit          3D

 24 23  0  0  1  0  0  0  0  0999 V2000
   25.2108  -22.4140  -12.9723 N   0  0  0  0  0  0  0  0  0  0  0  0
   24.6580  -21.1152  -12.7449 C   0  0  1  0  0  0  0  0  0  0  0  0
   25.4123  -20.4211  -11.6522 C   0  0  0  0  0  0  0  0  0  0  0  0
   24.8424  -21.1999  -10.0829 S   0  0  0  0  0  0  0  0  0  0  0  0
   24.6446  -20.3235  -14.0386 C   0  0  0  0  0  0  0  0  0  0  0  0
   25.6024  -20.5309  -14.7920 O   0  0  0  0  0  0  0  0  0  0  0  0
   19.3355  -19.6268  -16.9249 N   0  0  0  0  0  0  0  0  0  0  0  0
   20.1094  -18.6587  -17.6601 C   0  0  0  0  0  0  0  0  0  0  0  0
   19.5832  -18.2308  -18.7087 O   0  0  0  0  0  0  0  0  0  0  0  0
   21.4238  -18.2586  -17.1272 C   0  0  0  0  0  0  0  0  0  0  0  0
   21.8409  -18.9646  -15.8789 C   0  0  0  0  0  0  0  0  0  0  0  0
   23.2212  -18.6476  -15.3905 C   0  0  2  0  0  0  0  0  0  0  0  0
   23.6125  -19.4508  -14.2908 N   0  0  0  0  0  0  0  0  0  0  0  0
   23.5325  -17.1994  -15.3383 C   0  0  0  0  0  0  0  0  0  0  0  0
   23.1329  -16.4317  -14.4483 O   0  0  0  0  0  0  0  0  0  0  0  0
   26.8274  -12.9934  -15.1567 C   0  0  0  0  0  0  0  0  0  0  0  0
   26.6051  -13.5143  -16.6015 C   0  0  1  0  0  0  0  0  0  0  0  0
   27.9846  -13.3921  -17.2460 C   0  0  0  0  0  0  0  0  0  0  0  0
   26.0536  -14.8860  -16.5414 C   0  0  0  0  0  0  0  0  0  0  0  0
   24.6189  -15.1133  -16.3098 C   0  0  2  0  0  0  0  0  0  0  0  0
   24.3493  -16.5723  -16.3466 N   0  0  0  0  0  0  0  0  0  0  0  0
   23.6307  -14.4011  -17.1125 C   0  0  0  0  0  0  0  0  0  0  0  0
   23.1322  -14.7728  -18.1827 O   0  0  0  0  0  0  0  0  0  0  0  0
   23.1783  -13.1537  -16.6472 O   0  0  0  0  0  0  0  0  0  0  0  0
  2  1  1  6
  2  3  1  0
  3  4  1  0
  5  2  1  0
  6  5  2  0
  7  8  1  0
  8 10  1  0
  9  8  2  0
 10 11  1  0
 12 11  1  1
 12 13  1  0
 13  5  1  0
 14 21  1  0
 14 12  1  0
 15 14  2  0
 17 16  1  1
 18 17  1  0
 20 19  1  6
 19 17  1  0
 20 22  1  0
 20 21  1  0
 22 24  1  0
 23 22  2  0
M  END
$$$$
