CQL.pdb
     RDKit          3D

 24 23  0  0  1  0  0  0  0  0999 V2000
   14.1510  -13.0324  -18.1406 N   0  0  0  0  0  0  0  0  0  0  0  0
   15.3287  -12.7563  -17.3785 C   0  0  1  0  0  0  0  0  0  0  0  0
   16.2173  -13.9623  -17.3532 C   0  0  0  0  0  0  0  0  0  0  0  0
   15.4110  -15.1493  -16.1978 S   0  0  0  0  0  0  0  0  0  0  0  0
   16.0275  -11.5282  -17.9304 C   0  0  0  0  0  0  0  0  0  0  0  0
   15.6789  -11.1913  -19.0675 O   0  0  0  0  0  0  0  0  0  0  0  0
   16.3625   -5.8128  -17.6920 N   0  0  0  0  0  0  0  0  0  0  0  0
   15.5185   -6.6876  -16.9181 C   0  0  0  0  0  0  0  0  0  0  0  0
   14.6043   -6.1280  -16.2772 O   0  0  0  0  0  0  0  0  0  0  0  0
   15.7922   -8.1354  -16.9476 C   0  0  0  0  0  0  0  0  0  0  0  0
   16.9401   -8.5439  -17.8114 C   0  0  0  0  0  0  0  0  0  0  0  0
   17.7438   -9.7036  -17.3081 C   0  0  2  0  0  0  0  0  0  0  0  0
   16.9747  -10.8855  -17.1689 N   0  0  0  0  0  0  0  0  0  0  0  0
   18.6948   -9.3622  -16.2238 C   0  0  0  0  0  0  0  0  0  0  0  0
   18.4186   -9.4059  -15.0143 O   0  0  0  0  0  0  0  0  0  0  0  0
   22.6033  -10.2441  -13.1421 C   0  0  0  0  0  0  0  0  0  0  0  0
   23.1746   -9.7712  -14.5053 C   0  0  1  0  0  0  0  0  0  0  0  0
   24.2902  -10.7731  -14.7967 C   0  0  0  0  0  0  0  0  0  0  0  0
   22.0809   -9.7340  -15.5012 C   0  0  0  0  0  0  0  0  0  0  0  0
   21.0220   -8.7162  -15.4218 C   0  0  2  0  0  0  0  0  0  0  0  0
   20.0450   -8.9501  -16.5142 N   0  0  0  0  0  0  0  0  0  0  0  0
   21.3753   -7.3022  -15.3601 C   0  0  0  0  0  0  0  0  0  0  0  0
   21.4002   -6.4987  -16.3013 O   0  0  0  0  0  0  0  0  0  0  0  0
   21.7331   -6.7657  -14.1106 O   0  0  0  0  0  0  0  0  0  0  0  0
  2  1  1  6
  2  3  1  0
  3  4  1  0
  5  2  1  0
  6  5  2  0
  7  8  1  0
  8 10  1  0
  9  8  2  0
 10 11  1  0
 12 11  1  1
 12 13  1  0
 13  5  1  0
 14 21  1  0
 14 12  1  0
 15 14  2  0
 17 16  1  1
 18 17  1  0
 20 19  1  6
 19 17  1  0
 20 22  1  0
 20 21  1  0
 22 24  1  0
 23 22  2  0
M  END
$$$$
