CQL.pdb
     RDKit          3D

 24 23  0  0  1  0  0  0  0  0999 V2000
   24.3639  -17.1294  -18.4917 N   0  0  0  0  0  0  0  0  0  0  0  0
   24.0130  -17.5994  -17.1879 C   0  0  1  0  0  0  0  0  0  0  0  0
   22.5797  -17.2760  -16.8950 C   0  0  0  0  0  0  0  0  0  0  0  0
   22.3040  -17.7817  -15.1450 S   0  0  0  0  0  0  0  0  0  0  0  0
   24.3118  -19.0822  -17.0734 C   0  0  0  0  0  0  0  0  0  0  0  0
   23.6085  -19.8162  -17.7767 O   0  0  0  0  0  0  0  0  0  0  0  0
   29.8006  -21.6000  -17.1187 N   0  0  0  0  0  0  0  0  0  0  0  0
   29.0570  -22.6941  -16.5472 C   0  0  0  0  0  0  0  0  0  0  0  0
   29.6637  -23.7838  -16.4827 O   0  0  0  0  0  0  0  0  0  0  0  0
   27.6775  -22.4447  -16.0926 C   0  0  0  0  0  0  0  0  0  0  0  0
   27.1699  -21.0626  -16.3430 C   0  0  0  0  0  0  0  0  0  0  0  0
   25.7985  -20.7746  -15.8134 C   0  0  2  0  0  0  0  0  0  0  0  0
   25.3048  -19.5119  -16.2251 N   0  0  0  0  0  0  0  0  0  0  0  0
   25.5938  -21.1732  -14.4006 C   0  0  0  0  0  0  0  0  0  0  0  0
   26.5060  -21.5271  -13.6365 O   0  0  0  0  0  0  0  0  0  0  0  0
   25.7029  -21.9958   -9.4886 C   0  0  0  0  0  0  0  0  0  0  0  0
   24.9399  -20.7822  -10.0828 C   0  0  1  0  0  0  0  0  0  0  0  0
   25.5835  -19.5791   -9.3960 C   0  0  0  0  0  0  0  0  0  0  0  0
   25.0615  -20.8095  -11.5573 C   0  0  0  0  0  0  0  0  0  0  0  0
   24.0906  -21.5457  -12.3813 C   0  0  2  0  0  0  0  0  0  0  0  0
   24.2818  -21.1695  -13.8041 N   0  0  0  0  0  0  0  0  0  0  0  0
   22.6727  -21.5108  -12.0402 C   0  0  0  0  0  0  0  0  0  0  0  0
   22.1218  -22.0749  -11.0861 O   0  0  0  0  0  0  0  0  0  0  0  0
   21.8135  -20.7661  -12.8675 O   0  0  0  0  0  0  0  0  0  0  0  0
  2  1  1  6
  2  3  1  0
  3  4  1  0
  5  2  1  0
  6  5  2  0
  7  8  1  0
  8 10  1  0
  9  8  2  0
 10 11  1  0
 12 11  1  1
 12 13  1  0
 13  5  1  0
 14 21  1  0
 14 12  1  0
 15 14  2  0
 17 16  1  1
 18 17  1  0
 20 19  1  1
 19 17  1  0
 20 22  1  0
 20 21  1  0
 22 24  1  0
 23 22  2  0
M  END
$$$$
