CQL.pdb
     RDKit          3D

 24 23  0  0  1  0  0  0  0  0999 V2000
   13.9257  -12.9551  -15.9271 N   0  0  0  0  0  0  0  0  0  0  0  0
   14.3885  -11.7831  -15.2515 C   0  0  1  0  0  0  0  0  0  0  0  0
   14.5338  -12.0598  -13.7862 C   0  0  0  0  0  0  0  0  0  0  0  0
   12.8174  -12.2472  -13.1435 S   0  0  0  0  0  0  0  0  0  0  0  0
   15.6781  -11.2952  -15.8838 C   0  0  0  0  0  0  0  0  0  0  0  0
   16.4455  -12.1852  -16.2671 O   0  0  0  0  0  0  0  0  0  0  0  0
   16.0282   -6.9480  -19.8057 N   0  0  0  0  0  0  0  0  0  0  0  0
   17.2836   -6.5967  -19.1915 C   0  0  0  0  0  0  0  0  0  0  0  0
   18.0447   -5.8899  -19.8848 O   0  0  0  0  0  0  0  0  0  0  0  0
   17.5597   -7.0837  -17.8282 C   0  0  0  0  0  0  0  0  0  0  0  0
   16.4912   -7.9427  -17.2358 C   0  0  0  0  0  0  0  0  0  0  0  0
   16.9746   -9.1460  -16.4857 C   0  0  2  0  0  0  0  0  0  0  0  0
   15.9155   -9.9450  -15.9881 N   0  0  0  0  0  0  0  0  0  0  0  0
   18.1271   -8.8850  -15.5910 C   0  0  0  0  0  0  0  0  0  0  0  0
   18.0371   -8.3432  -14.4777 O   0  0  0  0  0  0  0  0  0  0  0  0
   22.6007  -10.4751  -13.1532 C   0  0  0  0  0  0  0  0  0  0  0  0
   22.9419   -9.9414  -14.5698 C   0  0  1  0  0  0  0  0  0  0  0  0
   24.0297  -10.8939  -15.0625 C   0  0  0  0  0  0  0  0  0  0  0  0
   21.7080   -9.9129  -15.3859 C   0  0  0  0  0  0  0  0  0  0  0  0
   20.6166   -8.9782  -15.0718 C   0  0  2  0  0  0  0  0  0  0  0  0
   19.4668   -9.2606  -15.9667 N   0  0  0  0  0  0  0  0  0  0  0  0
   20.8773   -7.5435  -15.0290 C   0  0  0  0  0  0  0  0  0  0  0  0
   20.8813   -6.7581  -15.9856 O   0  0  0  0  0  0  0  0  0  0  0  0
   21.1599   -6.9616  -13.7806 O   0  0  0  0  0  0  0  0  0  0  0  0
  2  1  1  6
  2  3  1  0
  3  4  1  0
  5  2  1  0
  6  5  2  0
  7  8  1  0
  8 10  1  0
  9  8  2  0
 10 11  1  0
 12 11  1  1
 12 13  1  0
 13  5  1  0
 14 21  1  0
 14 12  1  0
 15 14  2  0
 17 16  1  1
 18 17  1  0
 20 19  1  6
 19 17  1  0
 20 22  1  0
 20 21  1  0
 22 24  1  0
 23 22  2  0
M  END
$$$$
