CQL.pdb
     RDKit          3D

 24 23  0  0  1  0  0  0  0  0999 V2000
   16.2912  -14.3681  -17.9405 N   0  0  0  0  0  0  0  0  0  0  0  0
   16.2103  -13.1136  -17.2595 C   0  0  1  0  0  0  0  0  0  0  0  0
   15.8677  -13.3342  -15.8177 C   0  0  0  0  0  0  0  0  0  0  0  0
   14.1222  -13.9234  -15.8064 S   0  0  0  0  0  0  0  0  0  0  0  0
   17.5031  -12.3410  -17.4404 C   0  0  0  0  0  0  0  0  0  0  0  0
   18.5361  -13.0099  -17.3243 O   0  0  0  0  0  0  0  0  0  0  0  0
   18.9190   -7.0158  -20.5423 N   0  0  0  0  0  0  0  0  0  0  0  0
   18.1129   -8.0993  -21.0451 C   0  0  0  0  0  0  0  0  0  0  0  0
   17.9574   -8.1268  -22.2839 O   0  0  0  0  0  0  0  0  0  0  0  0
   17.5545   -9.0653  -20.0823 C   0  0  0  0  0  0  0  0  0  0  0  0
   17.8909   -8.7981  -18.6519 C   0  0  0  0  0  0  0  0  0  0  0  0
   18.4221   -9.9705  -17.8856 C   0  0  2  0  0  0  0  0  0  0  0  0
   17.4576  -10.9933  -17.7084 N   0  0  0  0  0  0  0  0  0  0  0  0
   19.2706   -9.6077  -16.7257 C   0  0  0  0  0  0  0  0  0  0  0  0
   18.8426   -9.4466  -15.5716 O   0  0  0  0  0  0  0  0  0  0  0  0
   23.1239  -10.1057  -13.1872 C   0  0  0  0  0  0  0  0  0  0  0  0
   23.7180   -9.8182  -14.5917 C   0  0  1  0  0  0  0  0  0  0  0  0
   24.8924  -10.7897  -14.6931 C   0  0  0  0  0  0  0  0  0  0  0  0
   22.6593   -9.9961  -15.6101 C   0  0  0  0  0  0  0  0  0  0  0  0
   21.5331   -9.0543  -15.7006 C   0  0  2  0  0  0  0  0  0  0  0  0
   20.6922   -9.4183  -16.8681 N   0  0  0  0  0  0  0  0  0  0  0  0
   21.7842   -7.6172  -15.6929 C   0  0  0  0  0  0  0  0  0  0  0  0
   22.0158   -6.9067  -14.7062 O   0  0  0  0  0  0  0  0  0  0  0  0
   21.7651   -6.9378  -16.9237 O   0  0  0  0  0  0  0  0  0  0  0  0
  2  1  1  6
  2  3  1  0
  3  4  1  0
  5  2  1  0
  6  5  2  0
  7  8  1  0
  8 10  1  0
  9  8  2  0
 10 11  1  0
 12 11  1  1
 12 13  1  0
 13  5  1  0
 14 21  1  0
 14 12  1  0
 15 14  2  0
 17 16  1  1
 18 17  1  0
 20 19  1  6
 19 17  1  0
 20 22  1  0
 20 21  1  0
 22 24  1  0
 23 22  2  0
M  END
$$$$
