CQL.pdb
     RDKit          3D

 24 23  0  0  1  0  0  0  0  0999 V2000
   28.2958  -20.7956  -16.6239 N   0  0  0  0  0  0  0  0  0  0  0  0
   27.8818  -20.0407  -15.4825 C   0  0  1  0  0  0  0  0  0  0  0  0
   27.3549  -18.7062  -15.9142 C   0  0  0  0  0  0  0  0  0  0  0  0
   28.8409  -17.6683  -16.2435 S   0  0  0  0  0  0  0  0  0  0  0  0
   26.8716  -20.8334  -14.6750 C   0  0  0  0  0  0  0  0  0  0  0  0
   26.2948  -21.7348  -15.2937 O   0  0  0  0  0  0  0  0  0  0  0  0
   24.7190  -21.1835   -7.4941 N   0  0  0  0  0  0  0  0  0  0  0  0
   25.4618  -20.5792   -8.5709 C   0  0  0  0  0  0  0  0  0  0  0  0
   26.4231  -19.8601   -8.2267 O   0  0  0  0  0  0  0  0  0  0  0  0
   25.0409  -20.8545   -9.9561 C   0  0  0  0  0  0  0  0  0  0  0  0
   26.0714  -20.5673  -10.9984 C   0  0  0  0  0  0  0  0  0  0  0  0
   25.6264  -20.7642  -12.4152 C   0  0  2  0  0  0  0  0  0  0  0  0
   26.6581  -20.5165  -13.3543 N   0  0  0  0  0  0  0  0  0  0  0  0
   24.2757  -20.2299  -12.7104 C   0  0  0  0  0  0  0  0  0  0  0  0
   24.0389  -19.0408  -12.9768 O   0  0  0  0  0  0  0  0  0  0  0  0
   21.4099  -18.8966  -16.2105 C   0  0  0  0  0  0  0  0  0  0  0  0
   21.2933  -20.4280  -15.9885 C   0  0  1  0  0  0  0  0  0  0  0  0
   21.5394  -21.0144  -17.3774 C   0  0  0  0  0  0  0  0  0  0  0  0
   22.2599  -20.8405  -14.9468 C   0  0  0  0  0  0  0  0  0  0  0  0
   21.9183  -20.7438  -13.5193 C   0  0  2  0  0  0  0  0  0  0  0  0
   23.1160  -21.0855  -12.7123 N   0  0  0  0  0  0  0  0  0  0  0  0
   20.7489  -21.4460  -13.0020 C   0  0  0  0  0  0  0  0  0  0  0  0
   20.6993  -22.6159  -12.6009 O   0  0  0  0  0  0  0  0  0  0  0  0
   19.5315  -20.7449  -12.9428 O   0  0  0  0  0  0  0  0  0  0  0  0
  2  1  1  6
  2  3  1  0
  3  4  1  0
  5  2  1  0
  6  5  2  0
  7  8  1  0
  8 10  1  0
  9  8  2  0
 10 11  1  0
 12 11  1  1
 12 13  1  0
 13  5  1  0
 14 21  1  0
 14 12  1  0
 15 14  2  0
 17 16  1  6
 18 17  1  0
 20 19  1  6
 19 17  1  0
 20 22  1  0
 20 21  1  0
 22 24  1  0
 23 22  2  0
M  END
$$$$
