CQL.pdb
     RDKit          3D

 24 23  0  0  1  0  0  0  0  0999 V2000
   18.3878  -11.9047  -15.5041 N   0  0  0  0  0  0  0  0  0  0  0  0
   17.6561  -10.7040  -15.2449 C   0  0  1  0  0  0  0  0  0  0  0  0
   16.1912  -10.9422  -15.4498 C   0  0  0  0  0  0  0  0  0  0  0  0
   15.9215  -10.8430  -17.2695 S   0  0  0  0  0  0  0  0  0  0  0  0
   17.9749  -10.1927  -13.8528 C   0  0  0  0  0  0  0  0  0  0  0  0
   18.1542  -11.0685  -12.9991 O   0  0  0  0  0  0  0  0  0  0  0  0
   21.8772   -5.6469  -12.7004 N   0  0  0  0  0  0  0  0  0  0  0  0
   20.7814   -5.2613  -13.5531 C   0  0  0  0  0  0  0  0  0  0  0  0
   20.9594   -4.2241  -14.2253 O   0  0  0  0  0  0  0  0  0  0  0  0
   19.5715   -6.1026  -13.5662 C   0  0  0  0  0  0  0  0  0  0  0  0
   19.6007   -7.2659  -12.6299 C   0  0  0  0  0  0  0  0  0  0  0  0
   18.3131   -8.0205  -12.5003 C   0  0  2  0  0  0  0  0  0  0  0  0
   18.0404   -8.8384  -13.6246 N   0  0  0  0  0  0  0  0  0  0  0  0
   17.1969   -7.2294  -11.9299 C   0  0  0  0  0  0  0  0  0  0  0  0
   16.3832   -6.5819  -12.6079 O   0  0  0  0  0  0  0  0  0  0  0  0
   12.8874   -6.7210   -8.8665 C   0  0  0  0  0  0  0  0  0  0  0  0
   14.1692   -6.4979   -8.0208 C   0  0  1  0  0  0  0  0  0  0  0  0
   13.8516   -7.1861   -6.6946 C   0  0  0  0  0  0  0  0  0  0  0  0
   15.3332   -7.0428   -8.7541 C   0  0  0  0  0  0  0  0  0  0  0  0
   15.8615   -6.3608   -9.9454 C   0  0  2  0  0  0  0  0  0  0  0  0
   16.9756   -7.1645  -10.5073 N   0  0  0  0  0  0  0  0  0  0  0  0
   16.2467   -4.9559   -9.8685 C   0  0  0  0  0  0  0  0  0  0  0  0
   17.3779   -4.5045   -9.6476 O   0  0  0  0  0  0  0  0  0  0  0  0
   15.2464   -3.9864  -10.0592 O   0  0  0  0  0  0  0  0  0  0  0  0
  2  1  1  1
  2  3  1  0
  3  4  1  0
  5  2  1  0
  6  5  2  0
  7  8  1  0
  8 10  1  0
  9  8  2  0
 10 11  1  0
 12 11  1  6
 12 13  1  0
 13  5  1  0
 14 21  1  0
 14 12  1  0
 15 14  2  0
 17 16  1  6
 18 17  1  0
 20 19  1  1
 19 17  1  0
 20 22  1  0
 20 21  1  0
 22 24  1  0
 23 22  2  0
M  END
$$$$
