PML.pdb
     RDKit          3D

 24 24  0  0  1  0  0  0  0  0999 V2000
    8.1827  -15.3787   19.0093 N   0  0  0  0  0  0  0  0  0  0  0  0
    8.5148  -14.6625   17.7664 C   0  0  0  0  0  0  0  0  0  0  0  0
    7.7605  -13.3474   17.8647 C   0  0  0  0  0  0  0  0  0  0  0  0
    7.2656  -13.3048   19.3035 C   0  0  0  0  0  0  0  0  0  0  0  0
    8.2452  -14.2800   19.9592 C   0  0  1  0  0  0  0  0  0  0  0  0
    7.8418  -14.6690   21.3088 C   0  0  0  0  0  0  0  0  0  0  0  0
    7.7050  -13.7769   22.1824 O   0  0  0  0  0  0  0  0  0  0  0  0
    6.4132  -20.9523   23.3578 C   0  0  0  0  0  0  0  0  0  0  0  0
    5.4291  -20.0307   22.1680 S   0  0  0  0  0  0  0  0  0  0  0  0
    5.7594  -18.2761   22.1977 C   0  0  0  0  0  0  0  0  0  0  0  0
    6.8496  -17.8207   23.1016 C   0  0  0  0  0  0  0  0  0  0  0  0
    7.1151  -16.3444   23.0405 C   0  0  2  0  0  0  0  0  0  0  0  0
    7.5894  -16.0136   21.7066 N   0  0  0  0  0  0  0  0  0  0  0  0
    7.9799  -15.8868   24.1231 C   0  0  0  0  0  0  0  0  0  0  0  0
    9.2503  -16.0455   24.0816 O   0  0  0  0  0  0  0  0  0  0  0  0
    6.3404  -11.5086   26.9637 C   0  0  0  0  0  0  0  0  0  0  0  0
    7.2017  -12.5231   26.2484 C   0  0  1  0  0  0  0  0  0  0  0  0
    8.2402  -11.8555   25.3692 C   0  0  0  0  0  0  0  0  0  0  0  0
    7.7269  -13.6206   27.0755 C   0  0  0  0  0  0  0  0  0  0  0  0
    8.3384  -14.8062   26.3858 C   0  0  2  0  0  0  0  0  0  0  0  0
    7.4967  -15.2334   25.2865 N   0  0  0  0  0  0  0  0  0  0  0  0
    8.6250  -15.9345   27.2442 C   0  0  0  0  0  0  0  0  0  0  0  0
    9.6539  -15.9196   28.1777 O   0  0  0  0  0  0  0  0  0  0  0  0
    7.9583  -16.9933   27.1936 O   0  0  0  0  0  0  0  0  0  0  0  0
  1  2  1  0
  3  2  1  0
  4  5  1  0
  4  3  1  0
  5  1  1  0
  5  6  1  1
  7  6  2  0
  8  9  1  0
  9 10  1  0
 10 11  1  0
 12 11  1  6
 12 13  1  0
 13  6  1  0
 14 15  2  0
 14 12  1  0
 17 16  1  1
 17 18  1  0
 20 19  1  1
 19 17  1  0
 20 21  1  0
 21 14  1  0
 22 23  1  0
 22 20  1  0
 24 22  2  0
M  END
$$$$
