PML.pdb
     RDKit          3D

 24 24  0  0  1  0  0  0  0  0999 V2000
    7.3977  -18.2614   21.4299 N   0  0  0  0  0  0  0  0  0  0  0  0
    6.9266  -18.9835   20.2363 C   0  0  0  0  0  0  0  0  0  0  0  0
    6.5199  -17.8928   19.2601 C   0  0  0  0  0  0  0  0  0  0  0  0
    7.0541  -16.6115   19.8844 C   0  0  0  0  0  0  0  0  0  0  0  0
    8.1405  -17.1837   20.7971 C   0  0  1  0  0  0  0  0  0  0  0  0
    8.6520  -16.2049   21.7540 C   0  0  0  0  0  0  0  0  0  0  0  0
    9.7270  -15.6083   21.4962 O   0  0  0  0  0  0  0  0  0  0  0  0
    5.3763  -11.2224   25.4906 C   0  0  0  0  0  0  0  0  0  0  0  0
    6.3632  -12.3853   26.4428 S   0  0  0  0  0  0  0  0  0  0  0  0
    7.6929  -13.1113   25.4978 C   0  0  0  0  0  0  0  0  0  0  0  0
    7.3343  -14.2554   24.6171 C   0  0  0  0  0  0  0  0  0  0  0  0
    8.4942  -14.8213   23.8503 C   0  0  2  0  0  0  0  0  0  0  0  0
    8.0033  -15.8766   22.9793 N   0  0  0  0  0  0  0  0  0  0  0  0
    9.5991  -15.2153   24.7183 C   0  0  0  0  0  0  0  0  0  0  0  0
   10.7313  -14.6176   24.6786 O   0  0  0  0  0  0  0  0  0  0  0  0
    9.1477  -14.7744   29.6489 C   0  0  0  0  0  0  0  0  0  0  0  0
    9.7736  -14.9657   28.2872 C   0  0  1  0  0  0  0  0  0  0  0  0
   10.7867  -13.8813   27.9793 C   0  0  0  0  0  0  0  0  0  0  0  0
   10.2337  -16.3277   27.9747 C   0  0  0  0  0  0  0  0  0  0  0  0
   10.5907  -16.6531   26.5528 C   0  0  2  0  0  0  0  0  0  0  0  0
    9.5114  -16.2677   25.6662 N   0  0  0  0  0  0  0  0  0  0  0  0
   10.9478  -18.0337   26.3107 C   0  0  0  0  0  0  0  0  0  0  0  0
   10.2069  -18.8608   25.4758 O   0  0  0  0  0  0  0  0  0  0  0  0
   11.9501  -18.5631   26.8429 O   0  0  0  0  0  0  0  0  0  0  0  0
  1  2  1  0
  3  2  1  0
  4  5  1  0
  4  3  1  0
  5  1  1  0
  5  6  1  1
  7  6  2  0
  8  9  1  0
  9 10  1  0
 10 11  1  0
 12 11  1  1
 12 13  1  0
 13  6  1  0
 14 15  2  0
 14 12  1  0
 17 16  1  1
 17 18  1  0
 20 19  1  1
 19 17  1  0
 20 21  1  0
 21 14  1  0
 22 23  1  0
 22 20  1  0
 24 22  2  0
M  END
$$$$
