PML.pdb
     RDKit          3D

 24 24  0  0  1  0  0  0  0  0999 V2000
    8.0977  -15.7865   19.6190 N   0  0  0  0  0  0  0  0  0  0  0  0
    8.0335  -15.5695   18.1641 C   0  0  0  0  0  0  0  0  0  0  0  0
    7.7381  -14.0876   18.0069 C   0  0  0  0  0  0  0  0  0  0  0  0
    7.9285  -13.5163   19.4049 C   0  0  0  0  0  0  0  0  0  0  0  0
    8.8236  -14.5929   20.0214 C   0  0  1  0  0  0  0  0  0  0  0  0
    8.9507  -14.4642   21.4714 C   0  0  0  0  0  0  0  0  0  0  0  0
   10.0188  -14.0073   21.9491 O   0  0  0  0  0  0  0  0  0  0  0  0
    4.8562  -11.2166   25.7349 C   0  0  0  0  0  0  0  0  0  0  0  0
    6.4488  -12.0120   25.9886 S   0  0  0  0  0  0  0  0  0  0  0  0
    6.4137  -13.7669   25.6610 C   0  0  0  0  0  0  0  0  0  0  0  0
    6.5339  -14.1792   24.2367 C   0  0  0  0  0  0  0  0  0  0  0  0
    7.9488  -14.3838   23.7787 C   0  0  2  0  0  0  0  0  0  0  0  0
    7.9282  -14.8280   22.3945 N   0  0  0  0  0  0  0  0  0  0  0  0
    8.7095  -15.2425   24.6806 C   0  0  0  0  0  0  0  0  0  0  0  0
    8.8880  -16.4866   24.4333 O   0  0  0  0  0  0  0  0  0  0  0  0
   12.6206  -15.7608   28.8421 C   0  0  0  0  0  0  0  0  0  0  0  0
   11.1401  -15.5941   29.0929 C   0  0  1  0  0  0  0  0  0  0  0  0
   10.8624  -15.1000   30.4985 C   0  0  0  0  0  0  0  0  0  0  0  0
   10.3840  -14.8902   28.0453 C   0  0  0  0  0  0  0  0  0  0  0  0
   10.1294  -15.6012   26.7473 C   0  0  2  0  0  0  0  0  0  0  0  0
    9.3103  -14.7791   25.8798 N   0  0  0  0  0  0  0  0  0  0  0  0
    9.5359  -16.9142   26.8734 C   0  0  0  0  0  0  0  0  0  0  0  0
    8.1830  -17.1003   27.1288 O   0  0  0  0  0  0  0  0  0  0  0  0
   10.2120  -17.9620   26.7588 O   0  0  0  0  0  0  0  0  0  0  0  0
  1  2  1  0
  3  2  1  0
  4  5  1  0
  4  3  1  0
  5  1  1  0
  5  6  1  1
  7  6  2  0
  8  9  1  0
  9 10  1  0
 10 11  1  0
 12 11  1  1
 12 13  1  0
 13  6  1  0
 14 15  2  0
 14 12  1  0
 17 16  1  6
 17 18  1  0
 20 19  1  1
 19 17  1  0
 20 21  1  0
 21 14  1  0
 22 23  1  0
 22 20  1  0
 24 22  2  0
M  END
$$$$
