PML.pdb
     RDKit          3D

 24 24  0  0  1  0  0  0  0  0999 V2000
    7.6331  -15.2095   20.2635 N   0  0  0  0  0  0  0  0  0  0  0  0
    7.5616  -14.9676   18.8128 C   0  0  0  0  0  0  0  0  0  0  0  0
    7.8213  -13.4790   18.6559 C   0  0  0  0  0  0  0  0  0  0  0  0
    8.2957  -13.0332   20.0319 C   0  0  0  0  0  0  0  0  0  0  0  0
    8.7702  -14.3702   20.6045 C   0  0  1  0  0  0  0  0  0  0  0  0
    9.0266  -14.3135   22.0420 C   0  0  0  0  0  0  0  0  0  0  0  0
   10.0543  -13.7192   22.4524 O   0  0  0  0  0  0  0  0  0  0  0  0
    6.5644  -12.0771   27.2451 C   0  0  0  0  0  0  0  0  0  0  0  0
    5.6434  -12.1215   25.7014 S   0  0  0  0  0  0  0  0  0  0  0  0
    6.2968  -13.3016   24.5314 C   0  0  0  0  0  0  0  0  0  0  0  0
    7.0534  -14.4500   25.0985 C   0  0  0  0  0  0  0  0  0  0  0  0
    8.3860  -14.6830   24.4476 C   0  0  2  0  0  0  0  0  0  0  0  0
    8.1758  -14.8965   23.0250 N   0  0  0  0  0  0  0  0  0  0  0  0
    9.1567  -15.7294   25.1112 C   0  0  0  0  0  0  0  0  0  0  0  0
    9.3844  -16.8568   24.5474 O   0  0  0  0  0  0  0  0  0  0  0  0
   10.8287  -13.7880   27.2593 C   0  0  0  0  0  0  0  0  0  0  0  0
   11.4875  -14.6412   28.3180 C   0  0  1  0  0  0  0  0  0  0  0  0
   11.4194  -13.9895   29.6847 C   0  0  0  0  0  0  0  0  0  0  0  0
   11.1289  -16.0680   28.3113 C   0  0  0  0  0  0  0  0  0  0  0  0
   10.4496  -16.6288   27.0950 C   0  0  2  0  0  0  0  0  0  0  0  0
    9.7146  -15.5860   26.4081 N   0  0  0  0  0  0  0  0  0  0  0  0
    9.5760  -17.7542   27.3446 C   0  0  0  0  0  0  0  0  0  0  0  0
    8.2003  -17.6858   27.1625 O   0  0  0  0  0  0  0  0  0  0  0  0
   10.0131  -18.8587   27.7408 O   0  0  0  0  0  0  0  0  0  0  0  0
  1  2  1  0
  3  2  1  0
  4  5  1  0
  4  3  1  0
  5  1  1  0
  5  6  1  1
  7  6  2  0
  8  9  1  0
  9 10  1  0
 10 11  1  0
 12 11  1  1
 12 13  1  0
 13  6  1  0
 14 15  2  0
 14 12  1  0
 17 16  1  6
 17 18  1  0
 20 19  1  1
 19 17  1  0
 20 21  1  0
 21 14  1  0
 22 23  1  0
 22 20  1  0
 24 22  2  0
M  END
$$$$
