PML.pdb
     RDKit          3D

 24 24  0  0  1  0  0  0  0  0999 V2000
    7.3957  -17.3880   20.7909 N   0  0  0  0  0  0  0  0  0  0  0  0
    7.0537  -17.8459   19.4338 C   0  0  0  0  0  0  0  0  0  0  0  0
    7.1213  -16.5945   18.5751 C   0  0  0  0  0  0  0  0  0  0  0  0
    7.7713  -15.5547   19.4769 C   0  0  0  0  0  0  0  0  0  0  0  0
    8.4771  -16.4666   20.4823 C   0  0  1  0  0  0  0  0  0  0  0  0
    8.9658  -15.7470   21.6564 C   0  0  0  0  0  0  0  0  0  0  0  0
   10.0473  -15.1135   21.5735 O   0  0  0  0  0  0  0  0  0  0  0  0
    6.8711  -12.0257   27.0668 C   0  0  0  0  0  0  0  0  0  0  0  0
    5.9988  -12.1929   25.5034 S   0  0  0  0  0  0  0  0  0  0  0  0
    6.9048  -13.1469   24.2961 C   0  0  0  0  0  0  0  0  0  0  0  0
    7.5087  -14.4200   24.7729 C   0  0  0  0  0  0  0  0  0  0  0  0
    8.7183  -14.8499   23.9947 C   0  0  2  0  0  0  0  0  0  0  0  0
    8.2874  -15.7152   22.9089 N   0  0  0  0  0  0  0  0  0  0  0  0
    9.7585  -15.4169   24.8467 C   0  0  0  0  0  0  0  0  0  0  0  0
   10.9929  -15.1103   24.6952 O   0  0  0  0  0  0  0  0  0  0  0  0
    9.8321  -14.9933   29.8332 C   0  0  0  0  0  0  0  0  0  0  0  0
    9.9893  -14.8186   28.3408 C   0  0  1  0  0  0  0  0  0  0  0  0
   10.0922  -13.3563   27.9559 C   0  0  0  0  0  0  0  0  0  0  0  0
   10.9855  -15.6851   27.6917 C   0  0  0  0  0  0  0  0  0  0  0  0
   10.4978  -16.8121   26.8273 C   0  0  2  0  0  0  0  0  0  0  0  0
    9.4944  -16.3316   25.8991 N   0  0  0  0  0  0  0  0  0  0  0  0
    9.9851  -17.9582   27.5455 C   0  0  0  0  0  0  0  0  0  0  0  0
   10.7639  -18.6946   28.4294 O   0  0  0  0  0  0  0  0  0  0  0  0
    8.8044  -18.3526   27.4099 O   0  0  0  0  0  0  0  0  0  0  0  0
  1  2  1  0
  3  2  1  0
  4  5  1  0
  4  3  1  0
  5  1  1  0
  5  6  1  1
  7  6  2  0
  8  9  1  0
  9 10  1  0
 10 11  1  0
 12 11  1  1
 12 13  1  0
 13  6  1  0
 14 15  2  0
 14 12  1  0
 17 16  1  1
 17 18  1  0
 20 19  1  1
 19 17  1  0
 20 21  1  0
 21 14  1  0
 22 23  1  0
 22 20  1  0
 24 22  2  0
M  END
$$$$
