PML.pdb
     RDKit          3D

 24 24  0  0  1  0  0  0  0  0999 V2000
    8.0068  -19.0687   21.6360 N   0  0  0  0  0  0  0  0  0  0  0  0
    7.4953  -19.9446   20.5687 C   0  0  0  0  0  0  0  0  0  0  0  0
    6.5942  -19.0507   19.7337 C   0  0  0  0  0  0  0  0  0  0  0  0
    6.8819  -17.6458   20.2437 C   0  0  0  0  0  0  0  0  0  0  0  0
    8.2609  -17.8589   20.8710 C   0  0  1  0  0  0  0  0  0  0  0  0
    8.6859  -16.7359   21.7038 C   0  0  0  0  0  0  0  0  0  0  0  0
    9.7132  -16.0916   21.3761 O   0  0  0  0  0  0  0  0  0  0  0  0
    6.2844  -11.1736   26.8397 C   0  0  0  0  0  0  0  0  0  0  0  0
    5.9736  -12.7712   26.0751 S   0  0  0  0  0  0  0  0  0  0  0  0
    7.2930  -13.2963   24.9926 C   0  0  0  0  0  0  0  0  0  0  0  0
    7.1269  -14.6216   24.3375 C   0  0  0  0  0  0  0  0  0  0  0  0
    8.3275  -15.0698   23.5557 C   0  0  2  0  0  0  0  0  0  0  0  0
    8.0026  -16.3162   22.8815 N   0  0  0  0  0  0  0  0  0  0  0  0
    9.5382  -15.1171   24.3689 C   0  0  0  0  0  0  0  0  0  0  0  0
   10.3306  -14.1143   24.4539 O   0  0  0  0  0  0  0  0  0  0  0  0
   10.2653  -14.0215   29.0359 C   0  0  0  0  0  0  0  0  0  0  0  0
   10.2463  -15.2260   28.1241 C   0  0  1  0  0  0  0  0  0  0  0  0
    8.8325  -15.6971   27.8479 C   0  0  0  0  0  0  0  0  0  0  0  0
   11.0992  -15.1427   26.9282 C   0  0  0  0  0  0  0  0  0  0  0  0
   11.1033  -16.3000   25.9711 C   0  0  2  0  0  0  0  0  0  0  0  0
    9.9278  -16.2528   25.1253 N   0  0  0  0  0  0  0  0  0  0  0  0
   11.2058  -17.6047   26.5869 C   0  0  0  0  0  0  0  0  0  0  0  0
   10.2559  -18.5994   26.3905 O   0  0  0  0  0  0  0  0  0  0  0  0
   12.1614  -17.9122   27.3354 O   0  0  0  0  0  0  0  0  0  0  0  0
  1  2  1  0
  3  2  1  0
  4  5  1  0
  4  3  1  0
  5  1  1  0
  5  6  1  1
  7  6  2  0
  8  9  1  0
  9 10  1  0
 10 11  1  0
 12 11  1  1
 12 13  1  0
 13  6  1  0
 14 15  2  0
 14 12  1  0
 17 16  1  6
 17 18  1  0
 20 19  1  1
 19 17  1  0
 20 21  1  0
 21 14  1  0
 22 23  1  0
 22 20  1  0
 24 22  2  0
M  END
$$$$
