PML.pdb
     RDKit          3D

 24 24  0  0  1  0  0  0  0  0999 V2000
    8.2654  -19.2226   21.9428 N   0  0  0  0  0  0  0  0  0  0  0  0
    7.9289  -20.2506   20.9437 C   0  0  0  0  0  0  0  0  0  0  0  0
    7.4427  -19.4698   19.7346 C   0  0  0  0  0  0  0  0  0  0  0  0
    7.8024  -18.0250   20.0508 C   0  0  0  0  0  0  0  0  0  0  0  0
    8.9075  -18.2382   21.0871 C   0  0  1  0  0  0  0  0  0  0  0  0
    9.2650  -17.0119   21.7968 C   0  0  0  0  0  0  0  0  0  0  0  0
   10.3247  -16.4154   21.4823 O   0  0  0  0  0  0  0  0  0  0  0  0
    6.1192  -12.3674   27.1484 C   0  0  0  0  0  0  0  0  0  0  0  0
    6.5709  -12.5098   25.4137 S   0  0  0  0  0  0  0  0  0  0  0  0
    7.0978  -14.1549   24.9615 C   0  0  0  0  0  0  0  0  0  0  0  0
    7.5623  -14.3420   23.5608 C   0  0  0  0  0  0  0  0  0  0  0  0
    8.8166  -15.1578   23.4384 C   0  0  2  0  0  0  0  0  0  0  0  0
    8.4799  -16.4384   22.8382 N   0  0  0  0  0  0  0  0  0  0  0  0
    9.5477  -15.2511   24.6979 C   0  0  0  0  0  0  0  0  0  0  0  0
   10.0718  -14.2204   25.2489 O   0  0  0  0  0  0  0  0  0  0  0  0
    9.5254  -13.4145   28.8452 C   0  0  0  0  0  0  0  0  0  0  0  0
   10.1486  -14.2491   27.7508 C   0  0  1  0  0  0  0  0  0  0  0  0
   11.6503  -14.0552   27.6850 C   0  0  0  0  0  0  0  0  0  0  0  0
    9.7182  -15.6546   27.6876 C   0  0  0  0  0  0  0  0  0  0  0  0
   10.3864  -16.5629   26.6958 C   0  0  2  0  0  0  0  0  0  0  0  0
    9.7291  -16.4662   25.4081 N   0  0  0  0  0  0  0  0  0  0  0  0
   10.4701  -17.9507   27.0946 C   0  0  0  0  0  0  0  0  0  0  0  0
    9.7658  -18.9574   26.4461 O   0  0  0  0  0  0  0  0  0  0  0  0
   11.1859  -18.3242   28.0518 O   0  0  0  0  0  0  0  0  0  0  0  0
  1  2  1  0
  3  2  1  0
  4  5  1  0
  4  3  1  0
  5  1  1  0
  5  6  1  1
  7  6  2  0
  8  9  1  0
  9 10  1  0
 10 11  1  0
 12 11  1  1
 12 13  1  0
 13  6  1  0
 14 15  2  0
 14 12  1  0
 17 16  1  1
 17 18  1  0
 20 19  1  1
 19 17  1  0
 20 21  1  0
 21 14  1  0
 22 23  1  0
 22 20  1  0
 24 22  2  0
M  END
$$$$
