PML.pdb
     RDKit          3D

 24 24  0  0  1  0  0  0  0  0999 V2000
    8.0493  -18.3462   21.2992 N   0  0  0  0  0  0  0  0  0  0  0  0
    7.4916  -19.0437   20.1285 C   0  0  0  0  0  0  0  0  0  0  0  0
    6.5667  -18.0289   19.4783 C   0  0  0  0  0  0  0  0  0  0  0  0
    6.8839  -16.7213   20.1901 C   0  0  0  0  0  0  0  0  0  0  0  0
    8.2838  -17.0322   20.7232 C   0  0  1  0  0  0  0  0  0  0  0  0
    8.7482  -16.0539   21.7044 C   0  0  0  0  0  0  0  0  0  0  0  0
    9.8702  -15.5138   21.5390 O   0  0  0  0  0  0  0  0  0  0  0  0
    6.1294  -10.5659   26.2226 C   0  0  0  0  0  0  0  0  0  0  0  0
    6.3281  -12.3372   26.4599 S   0  0  0  0  0  0  0  0  0  0  0  0
    7.6683  -13.0248   25.5011 C   0  0  0  0  0  0  0  0  0  0  0  0
    7.3138  -14.1085   24.5457 C   0  0  0  0  0  0  0  0  0  0  0  0
    8.4836  -14.6492   23.7758 C   0  0  2  0  0  0  0  0  0  0  0  0
    8.0022  -15.6655   22.8544 N   0  0  0  0  0  0  0  0  0  0  0  0
    9.5718  -15.0844   24.6451 C   0  0  0  0  0  0  0  0  0  0  0  0
   10.6431  -14.3948   24.7778 O   0  0  0  0  0  0  0  0  0  0  0  0
    9.2238  -14.7962   29.5038 C   0  0  0  0  0  0  0  0  0  0  0  0
    9.7784  -15.0040   28.1139 C   0  0  1  0  0  0  0  0  0  0  0  0
   10.8638  -13.9977   27.7878 C   0  0  0  0  0  0  0  0  0  0  0  0
   10.1132  -16.3907   27.7540 C   0  0  0  0  0  0  0  0  0  0  0  0
   10.5601  -16.6767   26.3491 C   0  0  2  0  0  0  0  0  0  0  0  0
    9.5324  -16.2805   25.4077 N   0  0  0  0  0  0  0  0  0  0  0  0
   10.9476  -18.0470   26.0958 C   0  0  0  0  0  0  0  0  0  0  0  0
   12.0348  -18.6431   26.7226 O   0  0  0  0  0  0  0  0  0  0  0  0
   10.3215  -18.7764   25.2933 O   0  0  0  0  0  0  0  0  0  0  0  0
  1  2  1  0
  3  2  1  0
  4  5  1  0
  4  3  1  0
  5  1  1  0
  5  6  1  1
  7  6  2  0
  8  9  1  0
  9 10  1  0
 10 11  1  0
 12 11  1  1
 12 13  1  0
 13  6  1  0
 14 15  2  0
 14 12  1  0
 17 16  1  1
 17 18  1  0
 20 19  1  1
 19 17  1  0
 20 21  1  0
 21 14  1  0
 22 23  1  0
 22 20  1  0
 24 22  2  0
M  END
$$$$
