SWL.pdb
     RDKit          3D

 29 30  0  0  1  0  0  0  0  0999 V2000
   16.4118  -13.4087  -17.7141 O   0  0  0  0  0  0  0  0  0  0  0  0
   17.3115  -12.3752  -17.4616 C   0  0  0  0  0  0  0  0  0  0  0  0
   18.2933  -12.3387  -18.5923 C   0  0  2  0  0  0  0  0  0  0  0  0
   19.1399  -13.4903  -18.5706 N   0  0  0  0  0  0  0  0  0  0  0  0
   19.1035  -11.0832  -18.5923 C   0  0  0  0  0  0  0  0  0  0  0  0
   20.3711  -11.1224  -18.5149 O   0  0  0  0  0  0  0  0  0  0  0  0
   18.5069   -9.8060  -18.6771 N   0  0  0  0  0  0  0  0  0  0  0  0
   19.3290   -8.6267  -18.6374 C   0  0  1  0  0  0  0  0  0  0  0  0
   18.6049   -7.4466  -19.2057 C   0  0  0  0  0  0  0  0  0  0  0  0
   19.3730   -6.2116  -19.3194 C   0  0  0  0  0  0  0  0  0  0  0  0
   20.7461   -6.0464  -19.1115 C   0  0  0  0  0  0  0  0  0  0  0  0
   21.0910   -4.7796  -19.3384 N   0  0  0  0  0  0  0  0  0  0  0  0
   19.9865   -4.1108  -19.6873 C   0  0  0  0  0  0  0  0  0  0  0  0
   19.8210   -2.7855  -20.0101 C   0  0  0  0  0  0  0  0  0  0  0  0
   18.5755   -2.2641  -20.3410 C   0  0  0  0  0  0  0  0  0  0  0  0
   17.4799   -3.1021  -20.3442 C   0  0  0  0  0  0  0  0  0  0  0  0
   17.6813   -4.4353  -20.0136 C   0  0  0  0  0  0  0  0  0  0  0  0
   18.9034   -4.9751  -19.6836 C   0  0  0  0  0  0  0  0  0  0  0  0
   19.6333   -8.3159  -17.2183 C   0  0  0  0  0  0  0  0  0  0  0  0
   18.7166   -8.4025  -16.3706 O   0  0  0  0  0  0  0  0  0  0  0  0
   21.0925  -10.1639  -13.2232 C   0  0  0  0  0  0  0  0  0  0  0  0
   21.9543   -9.9701  -14.4071 C   0  0  2  0  0  0  0  0  0  0  0  0
   23.3043  -10.6750  -14.0870 C   0  0  0  0  0  0  0  0  0  0  0  0
   22.2575   -8.6333  -14.9118 C   0  0  0  0  0  0  0  0  0  0  0  0
   21.1573   -7.7496  -15.3071 C   0  0  2  0  0  0  0  0  0  0  0  0
   20.9172   -7.9243  -16.7741 N   0  0  0  0  0  0  0  0  0  0  0  0
   21.3439   -6.3321  -15.0961 C   0  0  0  0  0  0  0  0  0  0  0  0
   21.2209   -5.7993  -13.7921 O   0  0  0  0  0  0  0  0  0  0  0  0
   21.6124   -5.4876  -15.9707 O   0  0  0  0  0  0  0  0  0  0  0  0
  1  2  1  0
  2  3  1  0
  3  4  1  1
  3  5  1  0
  5  6  2  0
  5  7  1  0
  7  8  1  0
  8 19  1  0
  8  9  1  1
 10  9  1  0
 10 11  2  0
 12 11  1  0
 13 12  1  0
 14 13  2  0
 15 14  1  0
 16 15  2  0
 16 17  1  0
 17 18  2  0
 18 13  1  0
 18 10  1  0
 19 20  2  0
 22 21  1  1
 22 24  1  0
 23 22  1  0
 25 24  1  6
 26 25  1  0
 26 19  1  0
 27 28  1  0
 27 25  1  0
 29 27  2  0
M  END
$$$$
