SWL.pdb
     RDKit          3D

 29 30  0  0  1  0  0  0  0  0999 V2000
   28.1604  -20.3880  -17.5924 O   0  0  0  0  0  0  0  0  0  0  0  0
   27.4775  -19.5707  -16.6940 C   0  0  0  0  0  0  0  0  0  0  0  0
   26.3767  -18.8870  -17.4455 C   0  0  2  0  0  0  0  0  0  0  0  0
   26.8637  -17.7232  -18.1176 N   0  0  0  0  0  0  0  0  0  0  0  0
   25.2210  -18.5460  -16.5618 C   0  0  0  0  0  0  0  0  0  0  0  0
   25.2404  -17.5068  -15.8309 O   0  0  0  0  0  0  0  0  0  0  0  0
   24.0639  -19.3529  -16.4960 N   0  0  0  0  0  0  0  0  0  0  0  0
   23.0103  -19.0215  -15.5750 C   0  0  1  0  0  0  0  0  0  0  0  0
   21.6892  -18.9439  -16.2741 C   0  0  0  0  0  0  0  0  0  0  0  0
   21.4360  -17.7296  -17.0420 C   0  0  0  0  0  0  0  0  0  0  0  0
   21.2710  -16.4327  -16.5454 C   0  0  0  0  0  0  0  0  0  0  0  0
   21.0875  -15.5802  -17.5526 N   0  0  0  0  0  0  0  0  0  0  0  0
   21.1264  -16.2789  -18.6926 C   0  0  0  0  0  0  0  0  0  0  0  0
   20.9822  -15.8575  -19.9925 C   0  0  0  0  0  0  0  0  0  0  0  0
   21.0441  -16.7462  -21.0597 C   0  0  0  0  0  0  0  0  0  0  0  0
   21.2559  -18.0848  -20.8030 C   0  0  0  0  0  0  0  0  0  0  0  0
   21.3976  -18.4774  -19.4790 C   0  0  0  0  0  0  0  0  0  0  0  0
   21.3412  -17.6175  -18.4060 C   0  0  0  0  0  0  0  0  0  0  0  0
   22.9124  -20.1059  -14.5662 C   0  0  0  0  0  0  0  0  0  0  0  0
   22.9692  -21.2957  -14.9503 O   0  0  0  0  0  0  0  0  0  0  0  0
   25.6906  -21.9927  -11.6594 C   0  0  0  0  0  0  0  0  0  0  0  0
   24.9727  -20.7618  -11.2701 C   0  0  2  0  0  0  0  0  0  0  0  0
   25.6183  -20.2800   -9.9386 C   0  0  0  0  0  0  0  0  0  0  0  0
   23.5230  -20.7557  -11.0908 C   0  0  0  0  0  0  0  0  0  0  0  0
   22.6570  -21.0196  -12.2432 C   0  0  2  0  0  0  0  0  0  0  0  0
   22.7572  -19.8587  -13.1828 N   0  0  0  0  0  0  0  0  0  0  0  0
   21.2481  -21.2028  -11.9791 C   0  0  0  0  0  0  0  0  0  0  0  0
   20.3336  -20.1859  -12.3381 O   0  0  0  0  0  0  0  0  0  0  0  0
   20.7231  -22.1985  -11.4469 O   0  0  0  0  0  0  0  0  0  0  0  0
  1  2  1  0
  2  3  1  0
  3  4  1  1
  3  5  1  0
  5  6  2  0
  5  7  1  0
  7  8  1  0
  8 19  1  0
  8  9  1  6
 10  9  1  0
 10 11  2  0
 12 11  1  0
 13 12  1  0
 14 13  2  0
 15 14  1  0
 16 15  2  0
 16 17  1  0
 17 18  2  0
 18 13  1  0
 18 10  1  0
 19 20  2  0
 22 21  1  1
 22 24  1  0
 23 22  1  0
 25 24  1  1
 26 25  1  0
 26 19  1  0
 27 28  1  0
 27 25  1  0
 29 27  2  0
M  END
$$$$
