SWL.pdb
     RDKit          3D

 29 30  0  0  1  0  0  0  0  0999 V2000
   27.7779  -18.8034  -15.4625 O   0  0  0  0  0  0  0  0  0  0  0  0
   27.1790  -20.0566  -15.5737 C   0  0  0  0  0  0  0  0  0  0  0  0
   27.9717  -21.0164  -14.7405 C   0  0  2  0  0  0  0  0  0  0  0  0
   28.2047  -22.2358  -15.4491 N   0  0  0  0  0  0  0  0  0  0  0  0
   27.3227  -21.2838  -13.4214 C   0  0  0  0  0  0  0  0  0  0  0  0
   26.3483  -22.0935  -13.3237 O   0  0  0  0  0  0  0  0  0  0  0  0
   27.7550  -20.6566  -12.2322 N   0  0  0  0  0  0  0  0  0  0  0  0
   27.0212  -20.8521  -11.0110 C   0  0  1  0  0  0  0  0  0  0  0  0
   27.6900  -20.1600   -9.8648 C   0  0  0  0  0  0  0  0  0  0  0  0
   27.0767  -20.3431   -8.5538 C   0  0  0  0  0  0  0  0  0  0  0  0
   25.8299  -20.9116   -8.2744 C   0  0  0  0  0  0  0  0  0  0  0  0
   25.6257  -20.9348   -6.9580 N   0  0  0  0  0  0  0  0  0  0  0  0
   26.6995  -20.3986   -6.3676 C   0  0  0  0  0  0  0  0  0  0  0  0
   26.9644  -20.1921   -5.0352 C   0  0  0  0  0  0  0  0  0  0  0  0
   28.1490  -19.6028   -4.6086 C   0  0  0  0  0  0  0  0  0  0  0  0
   29.0801  -19.2166   -5.5504 C   0  0  0  0  0  0  0  0  0  0  0  0
   28.7816  -19.4395   -6.8877 C   0  0  0  0  0  0  0  0  0  0  0  0
   27.6174  -20.0214   -7.3347 C   0  0  0  0  0  0  0  0  0  0  0  0
   25.6770  -20.2430  -11.1702 C   0  0  0  0  0  0  0  0  0  0  0  0
   25.5897  -19.0053  -11.3337 O   0  0  0  0  0  0  0  0  0  0  0  0
   23.2239  -18.7014  -14.3232 C   0  0  0  0  0  0  0  0  0  0  0  0
   23.4581  -20.1343  -14.0517 C   0  0  2  0  0  0  0  0  0  0  0  0
   23.0097  -20.9018  -15.3291 C   0  0  0  0  0  0  0  0  0  0  0  0
   22.8522  -20.7951  -12.8984 C   0  0  0  0  0  0  0  0  0  0  0  0
   23.1985  -20.3416  -11.5486 C   0  0  2  0  0  0  0  0  0  0  0  0
   24.4820  -20.9983  -11.1464 N   0  0  0  0  0  0  0  0  0  0  0  0
   22.2521  -20.6293  -10.4950 C   0  0  0  0  0  0  0  0  0  0  0  0
   21.2685  -19.6701  -10.1605 O   0  0  0  0  0  0  0  0  0  0  0  0
   22.2013  -21.6722   -9.8168 O   0  0  0  0  0  0  0  0  0  0  0  0
  1  2  1  0
  2  3  1  0
  3  4  1  6
  3  5  1  0
  5  6  2  0
  5  7  1  0
  7  8  1  0
  8 19  1  0
  8  9  1  1
 10  9  1  0
 10 11  2  0
 12 11  1  0
 13 12  1  0
 14 13  2  0
 15 14  1  0
 16 15  2  0
 16 17  1  0
 17 18  2  0
 18 13  1  0
 18 10  1  0
 19 20  2  0
 22 21  1  6
 22 24  1  0
 23 22  1  0
 25 24  1  6
 26 25  1  0
 26 19  1  0
 27 28  1  0
 27 25  1  0
 29 27  2  0
M  END
$$$$
