SWL.pdb
     RDKit          3D

 29 30  0  0  1  0  0  0  0  0999 V2000
   26.7611  -27.0086  -15.5513 O   0  0  0  0  0  0  0  0  0  0  0  0
   25.8856  -26.4449  -16.4771 C   0  0  0  0  0  0  0  0  0  0  0  0
   26.6365  -25.3915  -17.2324 C   0  0  2  0  0  0  0  0  0  0  0  0
   27.9221  -25.8701  -17.6342 N   0  0  0  0  0  0  0  0  0  0  0  0
   26.7613  -24.1228  -16.4528 C   0  0  0  0  0  0  0  0  0  0  0  0
   27.7998  -23.8783  -15.7628 O   0  0  0  0  0  0  0  0  0  0  0  0
   25.7426  -23.1447  -16.4445 N   0  0  0  0  0  0  0  0  0  0  0  0
   25.9291  -21.9218  -15.7111 C   0  0  1  0  0  0  0  0  0  0  0  0
   25.5872  -20.7323  -16.5527 C   0  0  0  0  0  0  0  0  0  0  0  0
   26.5585  -19.6438  -16.5562 C   0  0  0  0  0  0  0  0  0  0  0  0
   27.6154  -19.4551  -17.4525 C   0  0  0  0  0  0  0  0  0  0  0  0
   28.2677  -18.3319  -17.1561 N   0  0  0  0  0  0  0  0  0  0  0  0
   27.6712  -17.7803  -16.0935 C   0  0  0  0  0  0  0  0  0  0  0  0
   27.9740  -16.6276  -15.4096 C   0  0  0  0  0  0  0  0  0  0  0  0
   27.2340  -16.2163  -14.3070 C   0  0  0  0  0  0  0  0  0  0  0  0
   26.1688  -16.9883  -13.8918 C   0  0  0  0  0  0  0  0  0  0  0  0
   25.8895  -18.1464  -14.6045 C   0  0  0  0  0  0  0  0  0  0  0  0
   26.6061  -18.5739  -15.6988 C   0  0  0  0  0  0  0  0  0  0  0  0
   25.0005  -21.9244  -14.5532 C   0  0  0  0  0  0  0  0  0  0  0  0
   23.8494  -22.3924  -14.7024 O   0  0  0  0  0  0  0  0  0  0  0  0
   27.5177  -21.5610  -11.2272 C   0  0  0  0  0  0  0  0  0  0  0  0
   26.3720  -20.6878  -10.9003 C   0  0  2  0  0  0  0  0  0  0  0  0
   26.6495  -20.1132   -9.4809 C   0  0  0  0  0  0  0  0  0  0  0  0
   25.0032  -21.1977  -10.9156 C   0  0  0  0  0  0  0  0  0  0  0  0
   24.3211  -21.3818  -12.1994 C   0  0  2  0  0  0  0  0  0  0  0  0
   25.3554  -21.4205  -13.2806 N   0  0  0  0  0  0  0  0  0  0  0  0
   23.3689  -20.3671  -12.5899 C   0  0  0  0  0  0  0  0  0  0  0  0
   22.1101  -20.3089  -11.9487 O   0  0  0  0  0  0  0  0  0  0  0  0
   23.5374  -19.4990  -13.4664 O   0  0  0  0  0  0  0  0  0  0  0  0
  1  2  1  0
  2  3  1  0
  3  4  1  1
  3  5  1  0
  5  6  2  0
  5  7  1  0
  7  8  1  0
  8 19  1  0
  8  9  1  6
 10  9  1  0
 10 11  2  0
 12 11  1  0
 13 12  1  0
 14 13  2  0
 15 14  1  0
 16 15  2  0
 16 17  1  0
 17 18  2  0
 18 13  1  0
 18 10  1  0
 19 20  2  0
 22 21  1  1
 22 24  1  0
 23 22  1  0
 25 24  1  1
 26 25  1  0
 26 19  1  0
 27 28  1  0
 27 25  1  0
 29 27  2  0
M  END
$$$$
