SWL.pdb
     RDKit          3D

 29 30  0  0  1  0  0  0  0  0999 V2000
   13.9334  -20.3718    4.8401 O   0  0  0  0  0  0  0  0  0  0  0  0
   13.7754  -19.0426    4.4530 C   0  0  0  0  0  0  0  0  0  0  0  0
   14.7523  -18.7694    3.3508 C   0  0  2  0  0  0  0  0  0  0  0  0
   14.6797  -19.7797    2.3422 N   0  0  0  0  0  0  0  0  0  0  0  0
   16.1494  -18.6269    3.8610 C   0  0  0  0  0  0  0  0  0  0  0  0
   17.1329  -19.1130    3.2199 O   0  0  0  0  0  0  0  0  0  0  0  0
   16.4421  -17.9530    5.0671 N   0  0  0  0  0  0  0  0  0  0  0  0
   17.8036  -17.8501    5.5186 C   0  0  1  0  0  0  0  0  0  0  0  0
   18.0527  -16.5311    6.1805 C   0  0  0  0  0  0  0  0  0  0  0  0
   18.0578  -15.3620    5.3079 C   0  0  0  0  0  0  0  0  0  0  0  0
   17.2502  -15.1376    4.1883 C   0  0  0  0  0  0  0  0  0  0  0  0
   17.5217  -13.9432    3.6642 N   0  0  0  0  0  0  0  0  0  0  0  0
   18.4821  -13.3796    4.4053 C   0  0  0  0  0  0  0  0  0  0  0  0
   19.1043  -12.1622    4.2678 C   0  0  0  0  0  0  0  0  0  0  0  0
   20.1017  -11.7484    5.1434 C   0  0  0  0  0  0  0  0  0  0  0  0
   20.4736  -12.5845    6.1756 C   0  0  0  0  0  0  0  0  0  0  0  0
   19.8253  -13.8071    6.2864 C   0  0  0  0  0  0  0  0  0  0  0  0
   18.8352  -14.2386    5.4336 C   0  0  0  0  0  0  0  0  0  0  0  0
   18.0405  -18.9055    6.5351 C   0  0  0  0  0  0  0  0  0  0  0  0
   17.1371  -19.1615    7.3625 O   0  0  0  0  0  0  0  0  0  0  0  0
   21.1673  -24.1278    7.4217 C   0  0  0  0  0  0  0  0  0  0  0  0
   20.2531  -23.0596    7.8743 C   0  0  2  0  0  0  0  0  0  0  0  0
   18.8806  -23.7418    8.1439 C   0  0  0  0  0  0  0  0  0  0  0  0
   20.0093  -21.8747    7.0555 C   0  0  0  0  0  0  0  0  0  0  0  0
   19.3841  -20.6980    7.6654 C   0  0  2  0  0  0  0  0  0  0  0  0
   19.2454  -19.6410    6.6147 N   0  0  0  0  0  0  0  0  0  0  0  0
   20.0831  -20.0792    8.7686 C   0  0  0  0  0  0  0  0  0  0  0  0
   21.0704  -19.1012    8.5075 O   0  0  0  0  0  0  0  0  0  0  0  0
   19.9081  -20.3196    9.9776 O   0  0  0  0  0  0  0  0  0  0  0  0
  1  2  1  0
  2  3  1  0
  3  4  1  6
  3  5  1  0
  5  6  2  0
  5  7  1  0
  7  8  1  0
  8 19  1  0
  8  9  1  1
 10  9  1  0
 10 11  2  0
 12 11  1  0
 13 12  1  0
 14 13  2  0
 15 14  1  0
 16 15  2  0
 16 17  1  0
 17 18  2  0
 18 13  1  0
 18 10  1  0
 19 20  2  0
 22 21  1  6
 22 24  1  0
 23 22  1  0
 25 24  1  6
 26 25  1  0
 26 19  1  0
 27 28  1  0
 27 25  1  0
 29 27  2  0
M  END
$$$$
