SWL.pdb
     RDKit          3D

 29 30  0  0  1  0  0  0  0  0999 V2000
   28.6867  -20.6058  -16.8210 O   0  0  0  0  0  0  0  0  0  0  0  0
   27.7621  -19.9697  -15.9953 C   0  0  0  0  0  0  0  0  0  0  0  0
   26.9225  -19.0752  -16.8549 C   0  0  2  0  0  0  0  0  0  0  0  0
   27.6536  -17.9113  -17.2475 N   0  0  0  0  0  0  0  0  0  0  0  0
   25.6399  -18.6974  -16.1878 C   0  0  0  0  0  0  0  0  0  0  0  0
   25.5424  -17.6216  -15.5188 O   0  0  0  0  0  0  0  0  0  0  0  0
   24.4865  -19.5085  -16.2669 N   0  0  0  0  0  0  0  0  0  0  0  0
   23.2683  -19.0864  -15.6296 C   0  0  1  0  0  0  0  0  0  0  0  0
   22.1286  -19.0782  -16.5997 C   0  0  0  0  0  0  0  0  0  0  0  0
   22.0544  -17.9313  -17.4984 C   0  0  0  0  0  0  0  0  0  0  0  0
   22.7304  -17.7606  -18.7107 C   0  0  0  0  0  0  0  0  0  0  0  0
   22.3859  -16.5983  -19.2634 N   0  0  0  0  0  0  0  0  0  0  0  0
   21.5064  -16.0030  -18.4502 C   0  0  0  0  0  0  0  0  0  0  0  0
   20.8681  -14.7925  -18.5735 C   0  0  0  0  0  0  0  0  0  0  0  0
   19.9826  -14.3315  -17.6060 C   0  0  0  0  0  0  0  0  0  0  0  0
   19.7413  -15.1126  -16.4949 C   0  0  0  0  0  0  0  0  0  0  0  0
   20.4020  -16.3298  -16.4011 C   0  0  0  0  0  0  0  0  0  0  0  0
   21.2817  -16.8081  -17.3451 C   0  0  0  0  0  0  0  0  0  0  0  0
   22.9340  -20.0647  -14.5647 C   0  0  0  0  0  0  0  0  0  0  0  0
   23.1679  -21.2780  -14.7634 O   0  0  0  0  0  0  0  0  0  0  0  0
   21.9120  -21.2528   -9.0710 C   0  0  0  0  0  0  0  0  0  0  0  0
   23.0556  -21.3424  -10.0016 C   0  0  2  0  0  0  0  0  0  0  0  0
   24.3312  -21.0543   -9.1581 C   0  0  0  0  0  0  0  0  0  0  0  0
   23.1195  -20.5155  -11.2040 C   0  0  0  0  0  0  0  0  0  0  0  0
   22.1476  -20.7362  -12.2784 C   0  0  2  0  0  0  0  0  0  0  0  0
   22.3605  -19.6902  -13.3277 N   0  0  0  0  0  0  0  0  0  0  0  0
   20.7483  -20.6707  -11.9233 C   0  0  0  0  0  0  0  0  0  0  0  0
   20.0436  -21.8642  -11.6435 O   0  0  0  0  0  0  0  0  0  0  0  0
   20.0605  -19.6369  -11.8317 O   0  0  0  0  0  0  0  0  0  0  0  0
  1  2  1  0
  2  3  1  0
  3  4  1  1
  3  5  1  0
  5  6  2  0
  5  7  1  0
  7  8  1  0
  8 19  1  0
  8  9  1  6
 10  9  1  0
 10 11  2  0
 12 11  1  0
 13 12  1  0
 14 13  2  0
 15 14  1  0
 16 15  2  0
 16 17  1  0
 17 18  2  0
 18 13  1  0
 18 10  1  0
 19 20  2  0
 22 21  1  1
 22 24  1  0
 23 22  1  0
 25 24  1  1
 26 25  1  0
 26 19  1  0
 27 28  1  0
 27 25  1  0
 29 27  2  0
M  END
$$$$
