SWL.pdb
     RDKit          3D

 29 30  0  0  1  0  0  0  0  0999 V2000
   27.4319  -24.1678  -16.5975 O   0  0  0  0  0  0  0  0  0  0  0  0
   27.7983  -23.4907  -17.7588 C   0  0  0  0  0  0  0  0  0  0  0  0
   28.3812  -22.1718  -17.3532 C   0  0  2  0  0  0  0  0  0  0  0  0
   29.5887  -22.3542  -16.6103 N   0  0  0  0  0  0  0  0  0  0  0  0
   27.4060  -21.3387  -16.5866 C   0  0  0  0  0  0  0  0  0  0  0  0
   27.7631  -20.7071  -15.5434 O   0  0  0  0  0  0  0  0  0  0  0  0
   26.0552  -21.2141  -16.9790 N   0  0  0  0  0  0  0  0  0  0  0  0
   25.2047  -20.2553  -16.3266 C   0  0  1  0  0  0  0  0  0  0  0  0
   24.1253  -19.7792  -17.2476 C   0  0  0  0  0  0  0  0  0  0  0  0
   23.1873  -18.8081  -16.6948 C   0  0  0  0  0  0  0  0  0  0  0  0
   21.8452  -19.0208  -16.3641 C   0  0  0  0  0  0  0  0  0  0  0  0
   21.3199  -17.9064  -15.8568 N   0  0  0  0  0  0  0  0  0  0  0  0
   22.2762  -16.9712  -15.8459 C   0  0  0  0  0  0  0  0  0  0  0  0
   22.2281  -15.6632  -15.4279 C   0  0  0  0  0  0  0  0  0  0  0  0
   23.3383  -14.8301  -15.5049 C   0  0  0  0  0  0  0  0  0  0  0  0
   24.5170  -15.3335  -16.0151 C   0  0  0  0  0  0  0  0  0  0  0  0
   24.5320  -16.6587  -16.4283 C   0  0  0  0  0  0  0  0  0  0  0  0
   23.4473  -17.5030  -16.3614 C   0  0  0  0  0  0  0  0  0  0  0  0
   24.5420  -20.9227  -15.1783 C   0  0  0  0  0  0  0  0  0  0  0  0
   24.1442  -22.1018  -15.3117 O   0  0  0  0  0  0  0  0  0  0  0  0
   26.6024  -22.0771  -11.3173 C   0  0  0  0  0  0  0  0  0  0  0  0
   25.9756  -20.7430  -11.4127 C   0  0  2  0  0  0  0  0  0  0  0  0
   26.4075  -19.9633  -10.1370 C   0  0  0  0  0  0  0  0  0  0  0  0
   24.5297  -20.5947  -11.5582 C   0  0  0  0  0  0  0  0  0  0  0  0
   23.8748  -21.1040  -12.7662 C   0  0  2  0  0  0  0  0  0  0  0  0
   24.3370  -20.2870  -13.9321 N   0  0  0  0  0  0  0  0  0  0  0  0
   22.4304  -21.0672  -12.7966 C   0  0  0  0  0  0  0  0  0  0  0  0
   21.7741  -20.2051  -13.7052 O   0  0  0  0  0  0  0  0  0  0  0  0
   21.6625  -21.7376  -12.0818 O   0  0  0  0  0  0  0  0  0  0  0  0
  1  2  1  0
  2  3  1  0
  3  4  1  1
  3  5  1  0
  5  6  2  0
  5  7  1  0
  7  8  1  0
  8 19  1  0
  8  9  1  6
 10  9  1  0
 10 11  2  0
 12 11  1  0
 13 12  1  0
 14 13  2  0
 15 14  1  0
 16 15  2  0
 16 17  1  0
 17 18  2  0
 18 13  1  0
 18 10  1  0
 19 20  2  0
 22 21  1  1
 22 24  1  0
 23 22  1  0
 25 24  1  1
 26 25  1  0
 26 19  1  0
 27 28  1  0
 27 25  1  0
 29 27  2  0
M  END
$$$$
