SWL.pdb
     RDKit          3D

 29 30  0  0  1  0  0  0  0  0999 V2000
   30.0193  -21.1111  -17.7167 O   0  0  0  0  0  0  0  0  0  0  0  0
   29.7974  -21.2052  -16.3444 C   0  0  0  0  0  0  0  0  0  0  0  0
   28.3289  -21.4116  -16.1329 C   0  0  2  0  0  0  0  0  0  0  0  0
   27.6016  -21.1801  -17.3415 N   0  0  0  0  0  0  0  0  0  0  0  0
   27.7971  -20.5656  -15.0220 C   0  0  0  0  0  0  0  0  0  0  0  0
   28.2969  -19.4245  -14.7716 O   0  0  0  0  0  0  0  0  0  0  0  0
   26.7255  -20.9880  -14.2049 N   0  0  0  0  0  0  0  0  0  0  0  0
   26.1711  -20.0894  -13.2285 C   0  0  1  0  0  0  0  0  0  0  0  0
   24.7743  -19.6942  -13.5928 C   0  0  0  0  0  0  0  0  0  0  0  0
   24.6213  -18.9256  -14.8233 C   0  0  0  0  0  0  0  0  0  0  0  0
   23.8766  -19.2768  -15.9538 C   0  0  0  0  0  0  0  0  0  0  0  0
   23.9516  -18.3088  -16.8662 N   0  0  0  0  0  0  0  0  0  0  0  0
   24.7227  -17.3358  -16.3683 C   0  0  0  0  0  0  0  0  0  0  0  0
   25.1056  -16.1395  -16.9254 C   0  0  0  0  0  0  0  0  0  0  0  0
   25.9312  -15.2492  -16.2484 C   0  0  0  0  0  0  0  0  0  0  0  0
   26.3756  -15.5791  -14.9848 C   0  0  0  0  0  0  0  0  0  0  0  0
   25.9703  -16.7947  -14.4509 C   0  0  0  0  0  0  0  0  0  0  0  0
   25.1534  -17.6918  -15.1003 C   0  0  0  0  0  0  0  0  0  0  0  0
   26.1035  -20.7978  -11.9259 C   0  0  0  0  0  0  0  0  0  0  0  0
   26.0708  -22.0488  -11.9191 O   0  0  0  0  0  0  0  0  0  0  0  0
   29.0721  -20.9361   -8.6483 C   0  0  0  0  0  0  0  0  0  0  0  0
   28.0425  -19.8843   -8.5235 C   0  0  2  0  0  0  0  0  0  0  0  0
   28.4692  -18.9932   -7.3212 C   0  0  0  0  0  0  0  0  0  0  0  0
   26.6321  -20.2226   -8.3497 C   0  0  0  0  0  0  0  0  0  0  0  0
   25.9246  -20.9216   -9.4261 C   0  0  2  0  0  0  0  0  0  0  0  0
   26.0743  -20.1234  -10.6835 N   0  0  0  0  0  0  0  0  0  0  0  0
   24.5059  -21.1341   -9.2512 C   0  0  0  0  0  0  0  0  0  0  0  0
   23.5992  -20.5971  -10.1938 O   0  0  0  0  0  0  0  0  0  0  0  0
   23.9657  -21.7642   -8.3230 O   0  0  0  0  0  0  0  0  0  0  0  0
  1  2  1  0
  2  3  1  0
  3  4  1  6
  3  5  1  0
  5  6  2  0
  5  7  1  0
  7  8  1  0
  8 19  1  0
  8  9  1  6
 10  9  1  0
 10 11  2  0
 12 11  1  0
 13 12  1  0
 14 13  2  0
 15 14  1  0
 16 15  2  0
 16 17  1  0
 17 18  2  0
 18 13  1  0
 18 10  1  0
 19 20  2  0
 22 21  1  1
 22 24  1  0
 23 22  1  0
 25 24  1  1
 26 25  1  0
 26 19  1  0
 27 28  1  0
 27 25  1  0
 29 27  2  0
M  END
$$$$
