ADQ.pdb
     RDKit          3D

 23 22  0  0  1  0  0  0  0  0999 V2000
    9.2065  -19.4047   18.7782 C   0  0  0  0  0  0  0  0  0  0  0  0
    9.4606  -18.0568   19.4170 C   0  0  2  0  0  0  0  0  0  0  0  0
   10.0532  -17.1951   18.4339 N   0  0  0  0  0  0  0  0  0  0  0  0
   10.3191  -18.1924   20.6288 C   0  0  0  0  0  0  0  0  0  0  0  0
    9.9332  -18.9567   21.5430 O   0  0  0  0  0  0  0  0  0  0  0  0
   11.5263  -17.4664   20.7119 N   0  0  0  0  0  0  0  0  0  0  0  0
   12.3923  -17.5623   21.8702 C   0  0  1  0  0  0  0  0  0  0  0  0
   13.7793  -17.0686   21.5680 C   0  0  0  0  0  0  0  0  0  0  0  0
   14.5218  -18.1030   20.8237 C   0  0  0  0  0  0  0  0  0  0  0  0
   14.3664  -19.3503   20.9965 O   0  0  0  0  0  0  0  0  0  0  0  0
   11.8465  -16.7901   23.0178 C   0  0  0  0  0  0  0  0  0  0  0  0
   11.6610  -15.5629   22.8390 O   0  0  0  0  0  0  0  0  0  0  0  0
   15.4639  -17.7091   19.8586 O   0  0  0  0  0  0  0  0  0  0  0  0
    7.3010  -15.0458   22.8646 N   0  0  0  0  0  0  0  0  0  0  0  0
    7.8763  -14.2884   23.9414 C   0  0  0  0  0  0  0  0  0  0  0  0
    7.4102  -13.1210   24.1342 O   0  0  0  0  0  0  0  0  0  0  0  0
    8.9457  -14.8344   24.7857 C   0  0  0  0  0  0  0  0  0  0  0  0
    9.4249  -16.1896   24.4218 C   0  0  0  0  0  0  0  0  0  0  0  0
   10.6121  -16.6371   25.1835 C   0  0  2  0  0  0  0  0  0  0  0  0
   11.5366  -17.3504   24.2581 N   0  0  0  0  0  0  0  0  0  0  0  0
   10.4736  -17.4691   26.3493 C   0  0  0  0  0  0  0  0  0  0  0  0
   10.3419  -18.7152   26.2917 O   0  0  0  0  0  0  0  0  0  0  0  0
   10.4765  -16.9402   27.6491 O   0  0  0  0  0  0  0  0  0  0  0  0
  2  4  1  0
  2  3  1  0
  2  1  1  6
  4  5  2  0
  6  7  1  0
  6  4  1  0
  7 11  1  0
  7  8  1  6
  9  8  1  0
 10  9  2  0
 11 20  1  0
 11 12  2  0
 13  9  1  0
 14 15  1  0
 15 17  1  0
 16 15  2  0
 17 18  1  0
 19 18  1  6
 20 19  1  0
 21 19  1  0
 21 23  1  0
 22 21  2  0
M  END
$$$$
