ADQ.pdb
     RDKit          3D

 23 22  0  0  1  0  0  0  0  0999 V2000
    6.9299  -21.3290   13.5049 C   0  0  0  0  0  0  0  0  0  0  0  0
    7.7201  -20.2737   14.2474 C   0  0  2  0  0  0  0  0  0  0  0  0
    8.0484  -19.2232   13.3263 N   0  0  0  0  0  0  0  0  0  0  0  0
    8.9366  -20.8617   14.8784 C   0  0  0  0  0  0  0  0  0  0  0  0
    8.9176  -22.0781   15.1767 O   0  0  0  0  0  0  0  0  0  0  0  0
   10.0609  -20.0436   15.1191 N   0  0  0  0  0  0  0  0  0  0  0  0
   11.2762  -20.5752   15.7033 C   0  0  1  0  0  0  0  0  0  0  0  0
   12.4995  -19.9019   15.1472 C   0  0  0  0  0  0  0  0  0  0  0  0
   13.6960  -20.6989   15.4764 C   0  0  0  0  0  0  0  0  0  0  0  0
   14.2278  -20.7377   16.6278 O   0  0  0  0  0  0  0  0  0  0  0  0
   11.2751  -20.4243   17.1827 C   0  0  0  0  0  0  0  0  0  0  0  0
   10.9489  -19.3025   17.6382 O   0  0  0  0  0  0  0  0  0  0  0  0
   14.3024  -21.4714   14.4717 O   0  0  0  0  0  0  0  0  0  0  0  0
    9.3653  -22.1763   23.5855 N   0  0  0  0  0  0  0  0  0  0  0  0
    9.1888  -22.4934   22.1954 C   0  0  0  0  0  0  0  0  0  0  0  0
    8.6401  -23.6087   21.9269 O   0  0  0  0  0  0  0  0  0  0  0  0
    9.6131  -21.5739   21.1328 C   0  0  0  0  0  0  0  0  0  0  0  0
   10.4814  -22.1595   20.0832 C   0  0  0  0  0  0  0  0  0  0  0  0
   11.4899  -21.2230   19.5392 C   0  0  2  0  0  0  0  0  0  0  0  0
   11.6116  -21.4467   18.0712 N   0  0  0  0  0  0  0  0  0  0  0  0
   12.8296  -21.1909   20.0633 C   0  0  0  0  0  0  0  0  0  0  0  0
   13.6623  -22.1100   19.8758 O   0  0  0  0  0  0  0  0  0  0  0  0
   13.3061  -20.1166   20.8302 O   0  0  0  0  0  0  0  0  0  0  0  0
  2  4  1  0
  2  3  1  0
  2  1  1  6
  4  5  2  0
  6  7  1  0
  6  4  1  0
  7 11  1  0
  7  8  1  6
  9  8  1  0
 10  9  2  0
 11 20  1  0
 11 12  2  0
 13  9  1  0
 14 15  1  0
 15 17  1  0
 16 15  2  0
 17 18  1  0
 19 18  1  1
 20 19  1  0
 21 19  1  0
 21 23  1  0
 22 21  2  0
M  END
$$$$
