ADQ.pdb
     RDKit          3D

 23 22  0  0  1  0  0  0  0  0999 V2000
    7.7672  -12.2708   20.0097 C   0  0  0  0  0  0  0  0  0  0  0  0
    7.9786  -13.3133   18.9337 C   0  0  2  0  0  0  0  0  0  0  0  0
    6.7853  -13.3923   18.1401 N   0  0  0  0  0  0  0  0  0  0  0  0
    8.3395  -14.6317   19.5297 C   0  0  0  0  0  0  0  0  0  0  0  0
    7.4153  -15.4394   19.7795 O   0  0  0  0  0  0  0  0  0  0  0  0
    9.6935  -14.9300   19.7925 N   0  0  0  0  0  0  0  0  0  0  0  0
   10.1006  -16.2225   20.3069 C   0  0  1  0  0  0  0  0  0  0  0  0
   11.3337  -16.7315   19.6144 C   0  0  0  0  0  0  0  0  0  0  0  0
   11.6140  -18.1113   20.0535 C   0  0  0  0  0  0  0  0  0  0  0  0
   10.7205  -18.9353   20.4177 O   0  0  0  0  0  0  0  0  0  0  0  0
   10.3605  -16.1641   21.7699 C   0  0  0  0  0  0  0  0  0  0  0  0
   11.0319  -15.1913   22.1884 O   0  0  0  0  0  0  0  0  0  0  0  0
   12.9433  -18.5657   20.0782 O   0  0  0  0  0  0  0  0  0  0  0  0
    6.9120  -18.6683   26.4850 N   0  0  0  0  0  0  0  0  0  0  0  0
    8.0181  -18.0138   27.1272 C   0  0  0  0  0  0  0  0  0  0  0  0
    8.0174  -18.0018   28.3988 O   0  0  0  0  0  0  0  0  0  0  0  0
    9.1027  -17.3937   26.3567 C   0  0  0  0  0  0  0  0  0  0  0  0
    8.9770  -17.4820   24.8819 C   0  0  0  0  0  0  0  0  0  0  0  0
   10.1242  -16.9119   24.1410 C   0  0  2  0  0  0  0  0  0  0  0  0
    9.9041  -17.1171   22.6817 N   0  0  0  0  0  0  0  0  0  0  0  0
   11.4703  -17.3379   24.4183 C   0  0  0  0  0  0  0  0  0  0  0  0
   11.9249  -18.4517   24.0630 O   0  0  0  0  0  0  0  0  0  0  0  0
   12.3817  -16.5284   25.1136 O   0  0  0  0  0  0  0  0  0  0  0  0
  2  4  1  0
  2  3  1  0
  2  1  1  1
  4  5  2  0
  6  7  1  0
  6  4  1  0
  7 11  1  0
  7  8  1  6
  9  8  1  0
 10  9  2  0
 11 20  1  0
 11 12  2  0
 13  9  1  0
 14 15  1  0
 15 17  1  0
 16 15  2  0
 17 18  1  0
 19 18  1  1
 20 19  1  0
 21 19  1  0
 21 23  1  0
 22 21  2  0
M  END
$$$$
