ADQ.pdb
     RDKit          3D

 23 22  0  0  1  0  0  0  0  0999 V2000
    7.1309  -13.1053   19.8116 C   0  0  0  0  0  0  0  0  0  0  0  0
    8.5184  -13.2858   20.3874 C   0  0  2  0  0  0  0  0  0  0  0  0
    9.4583  -13.3099   19.3030 N   0  0  0  0  0  0  0  0  0  0  0  0
    8.5958  -14.5212   21.2191 C   0  0  0  0  0  0  0  0  0  0  0  0
    7.7278  -14.6911   22.1060 O   0  0  0  0  0  0  0  0  0  0  0  0
    9.6304  -15.4527   20.9879 N   0  0  0  0  0  0  0  0  0  0  0  0
    9.8336  -16.5938   21.8582 C   0  0  1  0  0  0  0  0  0  0  0  0
   10.7349  -17.6182   21.2280 C   0  0  0  0  0  0  0  0  0  0  0  0
   10.1309  -18.1042   19.9733 C   0  0  0  0  0  0  0  0  0  0  0  0
   10.7251  -18.1010   18.8521 O   0  0  0  0  0  0  0  0  0  0  0  0
   10.4140  -16.1809   23.1635 C   0  0  0  0  0  0  0  0  0  0  0  0
   11.3848  -15.3880   23.1273 O   0  0  0  0  0  0  0  0  0  0  0  0
    8.8191  -18.6068   19.9941 O   0  0  0  0  0  0  0  0  0  0  0  0
    9.7873  -12.9436   28.0535 N   0  0  0  0  0  0  0  0  0  0  0  0
    8.7006  -13.4494   27.2615 C   0  0  0  0  0  0  0  0  0  0  0  0
    7.5453  -12.9770   27.5048 O   0  0  0  0  0  0  0  0  0  0  0  0
    8.9102  -14.4577   26.2155 C   0  0  0  0  0  0  0  0  0  0  0  0
   10.3237  -14.7423   25.8694 C   0  0  0  0  0  0  0  0  0  0  0  0
   10.6173  -16.1764   25.6527 C   0  0  2  0  0  0  0  0  0  0  0  0
    9.9426  -16.6217   24.4011 N   0  0  0  0  0  0  0  0  0  0  0  0
   10.3060  -17.1565   26.6592 C   0  0  0  0  0  0  0  0  0  0  0  0
    9.4871  -18.0894   26.4791 O   0  0  0  0  0  0  0  0  0  0  0  0
   10.9035  -17.1390   27.9289 O   0  0  0  0  0  0  0  0  0  0  0  0
  2  4  1  0
  2  3  1  0
  2  1  1  6
  4  5  2  0
  6  7  1  0
  6  4  1  0
  7 11  1  0
  7  8  1  6
  9  8  1  0
 10  9  2  0
 11 20  1  0
 11 12  2  0
 13  9  1  0
 14 15  1  0
 15 17  1  0
 16 15  2  0
 17 18  1  0
 19 18  1  1
 20 19  1  0
 21 19  1  0
 21 23  1  0
 22 21  2  0
M  END
$$$$
