ADQ.pdb
     RDKit          3D

 23 22  0  0  1  0  0  0  0  0999 V2000
    7.2669  -14.5643   15.6657 C   0  0  0  0  0  0  0  0  0  0  0  0
    8.4285  -14.1111   16.5229 C   0  0  2  0  0  0  0  0  0  0  0  0
    9.4103  -13.5043   15.6697 N   0  0  0  0  0  0  0  0  0  0  0  0
    8.9948  -15.2497   17.3018 C   0  0  0  0  0  0  0  0  0  0  0  0
    8.2174  -15.9156   18.0237 O   0  0  0  0  0  0  0  0  0  0  0  0
   10.3719  -15.5424   17.2060 N   0  0  0  0  0  0  0  0  0  0  0  0
   10.9887  -16.5696   18.0216 C   0  0  1  0  0  0  0  0  0  0  0  0
   12.3459  -16.9510   17.5004 C   0  0  0  0  0  0  0  0  0  0  0  0
   12.1965  -17.7708   16.2835 C   0  0  0  0  0  0  0  0  0  0  0  0
   11.7868  -18.9717   16.2830 O   0  0  0  0  0  0  0  0  0  0  0  0
   11.1233  -16.1284   19.4353 C   0  0  0  0  0  0  0  0  0  0  0  0
   11.9132  -15.1811   19.6612 O   0  0  0  0  0  0  0  0  0  0  0  0
   12.5202  -17.2109   15.0362 O   0  0  0  0  0  0  0  0  0  0  0  0
    6.4969  -14.4788   22.8274 N   0  0  0  0  0  0  0  0  0  0  0  0
    7.5843  -14.3807   23.7614 C   0  0  0  0  0  0  0  0  0  0  0  0
    7.3327  -13.8270   24.8782 O   0  0  0  0  0  0  0  0  0  0  0  0
    8.9211  -14.9000   23.4487 C   0  0  0  0  0  0  0  0  0  0  0  0
    9.0827  -15.4912   22.0985 C   0  0  0  0  0  0  0  0  0  0  0  0
   10.4327  -16.0365   21.8336 C   0  0  2  0  0  0  0  0  0  0  0  0
   10.4292  -16.7032   20.5011 N   0  0  0  0  0  0  0  0  0  0  0  0
   11.0540  -16.9541   22.7515 C   0  0  0  0  0  0  0  0  0  0  0  0
   11.0623  -18.1966   22.5799 O   0  0  0  0  0  0  0  0  0  0  0  0
   11.7031  -16.5197   23.9174 O   0  0  0  0  0  0  0  0  0  0  0  0
  2  4  1  0
  2  3  1  0
  2  1  1  6
  4  5  2  0
  6  7  1  0
  6  4  1  0
  7 11  1  0
  7  8  1  6
  9  8  1  0
 10  9  2  0
 11 20  1  0
 11 12  2  0
 13  9  1  0
 14 15  1  0
 15 17  1  0
 16 15  2  0
 17 18  1  0
 19 18  1  1
 20 19  1  0
 21 19  1  0
 21 23  1  0
 22 21  2  0
M  END
$$$$
