ADQ.pdb
     RDKit          3D

 23 22  0  0  1  0  0  0  0  0999 V2000
    6.8582  -13.0776   19.1233 C   0  0  0  0  0  0  0  0  0  0  0  0
    8.2336  -13.1579   19.7487 C   0  0  2  0  0  0  0  0  0  0  0  0
    9.1875  -13.4257   18.7103 N   0  0  0  0  0  0  0  0  0  0  0  0
    8.2736  -14.1924   20.8221 C   0  0  0  0  0  0  0  0  0  0  0  0
    7.4226  -14.1252   21.7386 O   0  0  0  0  0  0  0  0  0  0  0  0
    9.2553  -15.2051   20.7771 N   0  0  0  0  0  0  0  0  0  0  0  0
    9.2540  -16.3067   21.7190 C   0  0  1  0  0  0  0  0  0  0  0  0
   10.1411  -17.4298   21.2600 C   0  0  0  0  0  0  0  0  0  0  0  0
    9.9994  -18.5781   22.1747 C   0  0  0  0  0  0  0  0  0  0  0  0
    9.8630  -18.4712   23.4317 O   0  0  0  0  0  0  0  0  0  0  0  0
    9.6973  -15.8646   23.0678 C   0  0  0  0  0  0  0  0  0  0  0  0
   10.6746  -15.0803   23.1149 O   0  0  0  0  0  0  0  0  0  0  0  0
   10.0122  -19.8802   21.6468 O   0  0  0  0  0  0  0  0  0  0  0  0
    5.7951  -12.6101   25.5316 N   0  0  0  0  0  0  0  0  0  0  0  0
    6.8209  -12.5562   26.5361 C   0  0  0  0  0  0  0  0  0  0  0  0
    6.7195  -11.6385   27.4105 O   0  0  0  0  0  0  0  0  0  0  0  0
    7.9305  -13.5168   26.5601 C   0  0  0  0  0  0  0  0  0  0  0  0
    8.0178  -14.4292   25.3946 C   0  0  0  0  0  0  0  0  0  0  0  0
    9.1468  -15.3839   25.4559 C   0  0  2  0  0  0  0  0  0  0  0  0
    9.0932  -16.2697   24.2590 N   0  0  0  0  0  0  0  0  0  0  0  0
    9.3293  -16.2428   26.5959 C   0  0  0  0  0  0  0  0  0  0  0  0
    9.0135  -17.4568   26.5984 O   0  0  0  0  0  0  0  0  0  0  0  0
    9.8804  -15.7788   27.8002 O   0  0  0  0  0  0  0  0  0  0  0  0
  2  4  1  0
  2  3  1  0
  2  1  1  6
  4  5  2  0
  6  7  1  0
  6  4  1  0
  7 11  1  0
  7  8  1  6
  9  8  1  0
 10  9  2  0
 11 20  1  0
 11 12  2  0
 13  9  1  0
 14 15  1  0
 15 17  1  0
 16 15  2  0
 17 18  1  0
 19 18  1  1
 20 19  1  0
 21 19  1  0
 21 23  1  0
 22 21  2  0
M  END
$$$$
