ADQ.pdb
     RDKit          3D

 23 22  0  0  1  0  0  0  0  0999 V2000
    6.7395  -13.2073   19.2691 C   0  0  0  0  0  0  0  0  0  0  0  0
    8.1059  -13.1740   19.9179 C   0  0  2  0  0  0  0  0  0  0  0  0
    9.0982  -13.3072   18.8894 N   0  0  0  0  0  0  0  0  0  0  0  0
    8.2320  -14.2384   20.9546 C   0  0  0  0  0  0  0  0  0  0  0  0
    7.3465  -14.3103   21.8376 O   0  0  0  0  0  0  0  0  0  0  0  0
    9.3300  -15.1240   20.9138 N   0  0  0  0  0  0  0  0  0  0  0  0
    9.4537  -16.2243   21.8490 C   0  0  1  0  0  0  0  0  0  0  0  0
   10.5330  -17.1850   21.4354 C   0  0  0  0  0  0  0  0  0  0  0  0
   10.0963  -17.9371   20.2441 C   0  0  0  0  0  0  0  0  0  0  0  0
   10.2769  -17.5439   19.0513 O   0  0  0  0  0  0  0  0  0  0  0  0
    9.7462  -15.7352   23.2226 C   0  0  0  0  0  0  0  0  0  0  0  0
   10.5480  -14.7766   23.3247 O   0  0  0  0  0  0  0  0  0  0  0  0
    9.4388  -19.1671   20.4135 O   0  0  0  0  0  0  0  0  0  0  0  0
    5.7254  -12.6714   26.8931 N   0  0  0  0  0  0  0  0  0  0  0  0
    7.1407  -12.4818   26.7349 C   0  0  0  0  0  0  0  0  0  0  0  0
    7.5414  -11.2905   26.5412 O   0  0  0  0  0  0  0  0  0  0  0  0
    8.0834  -13.6050   26.8004 C   0  0  0  0  0  0  0  0  0  0  0  0
    8.2282  -14.3976   25.5556 C   0  0  0  0  0  0  0  0  0  0  0  0
    9.2102  -15.5005   25.6505 C   0  0  2  0  0  0  0  0  0  0  0  0
    9.1850  -16.2778   24.3796 N   0  0  0  0  0  0  0  0  0  0  0  0
    9.1454  -16.4597   26.7211 C   0  0  0  0  0  0  0  0  0  0  0  0
    8.7264  -17.6321   26.5681 O   0  0  0  0  0  0  0  0  0  0  0  0
    9.5513  -16.1490   28.0281 O   0  0  0  0  0  0  0  0  0  0  0  0
  2  4  1  0
  2  3  1  0
  2  1  1  6
  4  5  2  0
  6  7  1  0
  6  4  1  0
  7 11  1  0
  7  8  1  6
  9  8  1  0
 10  9  2  0
 11 20  1  0
 11 12  2  0
 13  9  1  0
 14 15  1  0
 15 17  1  0
 16 15  2  0
 17 18  1  0
 19 18  1  6
 20 19  1  0
 21 19  1  0
 21 23  1  0
 22 21  2  0
M  END
$$$$
