ADQ.pdb
     RDKit          3D

 23 22  0  0  1  0  0  0  0  0999 V2000
    7.0837  -13.3076   18.7736 C   0  0  0  0  0  0  0  0  0  0  0  0
    8.3627  -13.2314   19.5782 C   0  0  2  0  0  0  0  0  0  0  0  0
    9.4723  -13.2808   18.6692 N   0  0  0  0  0  0  0  0  0  0  0  0
    8.4235  -14.3241   20.5911 C   0  0  0  0  0  0  0  0  0  0  0  0
    7.4248  -14.5047   21.3253 O   0  0  0  0  0  0  0  0  0  0  0  0
    9.5880  -15.1146   20.6940 N   0  0  0  0  0  0  0  0  0  0  0  0
    9.7072  -16.1663   21.6841 C   0  0  1  0  0  0  0  0  0  0  0  0
   10.9098  -17.0318   21.4317 C   0  0  0  0  0  0  0  0  0  0  0  0
   10.6509  -17.9149   20.2791 C   0  0  0  0  0  0  0  0  0  0  0  0
    9.5396  -18.4862   20.0585 O   0  0  0  0  0  0  0  0  0  0  0  0
    9.7982  -15.6062   23.0586 C   0  0  0  0  0  0  0  0  0  0  0  0
   10.8036  -14.9037   23.3196 O   0  0  0  0  0  0  0  0  0  0  0  0
   11.6811  -18.1537   19.3540 O   0  0  0  0  0  0  0  0  0  0  0  0
    5.5870  -12.2687   27.4668 N   0  0  0  0  0  0  0  0  0  0  0  0
    6.7384  -12.1891   26.6111 C   0  0  0  0  0  0  0  0  0  0  0  0
    6.8368  -11.1555   25.8769 O   0  0  0  0  0  0  0  0  0  0  0  0
    7.7586  -13.2443   26.5877 C   0  0  0  0  0  0  0  0  0  0  0  0
    7.8213  -14.0519   25.3457 C   0  0  0  0  0  0  0  0  0  0  0  0
    8.9133  -15.0504   25.3270 C   0  0  2  0  0  0  0  0  0  0  0  0
    8.8411  -15.8183   24.0522 N   0  0  0  0  0  0  0  0  0  0  0  0
    9.0503  -16.0179   26.3832 C   0  0  0  0  0  0  0  0  0  0  0  0
    9.0845  -15.7078   27.5981 O   0  0  0  0  0  0  0  0  0  0  0  0
    9.1564  -17.3936   26.1270 O   0  0  0  0  0  0  0  0  0  0  0  0
  2  4  1  0
  2  3  1  0
  2  1  1  6
  4  5  2  0
  6  7  1  0
  6  4  1  0
  7 11  1  0
  7  8  1  6
  9  8  1  0
 10  9  2  0
 11 20  1  0
 11 12  2  0
 13  9  1  0
 14 15  1  0
 15 17  1  0
 16 15  2  0
 17 18  1  0
 19 18  1  1
 20 19  1  0
 21 19  1  0
 21 23  1  0
 22 21  2  0
M  END
$$$$
