STA.pdb
     RDKit          3D

 19 18  0  0  1  0  0  0  0  0999 V2000
   16.4901  -12.3350  -17.3210 O   0  0  0  0  0  0  0  0  0  0  0  0
   17.4153  -11.8703  -16.4019 C   0  0  0  0  0  0  0  0  0  0  0  0
   17.7201  -10.4146  -16.6649 C   0  0  2  0  0  0  0  0  0  0  0  0
   18.4725  -10.3473  -17.9029 N   0  0  0  0  0  0  0  0  0  0  0  0
   18.5564   -9.8029  -15.6045 C   0  0  0  0  0  0  0  0  0  0  0  0
   18.1951   -9.8499  -14.3991 O   0  0  0  0  0  0  0  0  0  0  0  0
   21.8936  -10.6677  -14.4096 C   0  0  0  0  0  0  0  0  0  0  0  0
   21.9865   -9.2358  -14.8811 C   0  0  1  0  0  0  0  0  0  0  0  0
   22.4087   -9.3232  -16.2236 O   0  0  0  0  0  0  0  0  0  0  0  0
   20.6208   -8.5315  -14.8360 C   0  0  2  0  0  0  0  0  0  0  0  0
   19.7840   -9.1442  -15.8777 N   0  0  0  0  0  0  0  0  0  0  0  0
   20.7585   -7.0850  -15.0999 C   0  0  0  0  0  0  0  0  0  0  0  0
   21.0763   -6.6954  -16.2724 O   0  0  0  0  0  0  0  0  0  0  0  0
   19.8828   -3.8147  -13.6957 C   0  0  0  0  0  0  0  0  0  0  0  0
   20.9181   -4.6736  -14.4023 C   0  0  2  0  0  0  0  0  0  0  0  0
   20.5641   -6.0601  -14.1547 N   0  0  0  0  0  0  0  0  0  0  0  0
   22.2595   -4.3680  -13.8247 C   0  0  0  0  0  0  0  0  0  0  0  0
   22.6481   -4.9877  -12.8108 O   0  0  0  0  0  0  0  0  0  0  0  0
   23.0977   -3.4184  -14.3708 O   0  0  0  0  0  0  0  0  0  0  0  0
  1  2  1  0
  2  3  1  0
  3  4  1  6
  5  3  1  0
  6  5  2  0
  8  7  1  6
  8  9  1  0
  8 10  1  0
 10 11  1  6
 11  5  1  0
 12 10  1  0
 12 16  1  0
 13 12  2  0
 15 16  1  0
 15 14  1  1
 15 17  1  0
 17 18  2  0
 17 19  1  0
M  END
$$$$
