STA.pdb
     RDKit          3D

 19 18  0  0  1  0  0  0  0  0999 V2000
   14.5508   -9.5742  -15.4025 O   0  0  0  0  0  0  0  0  0  0  0  0
   15.8518   -9.3004  -15.0164 C   0  0  0  0  0  0  0  0  0  0  0  0
   16.7890  -10.3433  -15.5776 C   0  0  2  0  0  0  0  0  0  0  0  0
   16.5907  -11.5593  -14.8124 N   0  0  0  0  0  0  0  0  0  0  0  0
   18.2159   -9.9637  -15.4443 C   0  0  0  0  0  0  0  0  0  0  0  0
   18.9501  -10.5276  -14.5906 O   0  0  0  0  0  0  0  0  0  0  0  0
   22.2689   -8.0170  -17.4813 C   0  0  0  0  0  0  0  0  0  0  0  0
   20.8360   -8.4939  -17.5098 C   0  0  1  0  0  0  0  0  0  0  0  0
   20.9002   -9.8028  -18.0302 O   0  0  0  0  0  0  0  0  0  0  0  0
   20.2265   -8.5506  -16.0997 C   0  0  2  0  0  0  0  0  0  0  0  0
   18.8248   -8.9667  -16.2511 N   0  0  0  0  0  0  0  0  0  0  0  0
   20.2816   -7.2294  -15.4420 C   0  0  0  0  0  0  0  0  0  0  0  0
   19.5288   -6.2919  -15.8685 O   0  0  0  0  0  0  0  0  0  0  0  0
   21.9793   -5.6726  -12.4909 C   0  0  0  0  0  0  0  0  0  0  0  0
   21.1083   -5.5799  -13.7324 C   0  0  2  0  0  0  0  0  0  0  0  0
   21.1078   -6.8928  -14.3532 N   0  0  0  0  0  0  0  0  0  0  0  0
   21.7045   -4.5690  -14.6538 C   0  0  0  0  0  0  0  0  0  0  0  0
   22.5268   -4.9366  -15.5209 O   0  0  0  0  0  0  0  0  0  0  0  0
   21.3813   -3.2297  -14.5865 O   0  0  0  0  0  0  0  0  0  0  0  0
  1  2  1  0
  2  3  1  0
  3  4  1  1
  5  3  1  0
  6  5  2  0
  8  7  1  1
  8  9  1  0
  8 10  1  0
 10 11  1  6
 11  5  1  0
 12 10  1  0
 12 16  1  0
 13 12  2  0
 15 16  1  0
 15 14  1  1
 15 17  1  0
 17 18  2  0
 17 19  1  0
M  END
$$$$
