STA.pdb
     RDKit          3D

 19 18  0  0  1  0  0  0  0  0999 V2000
   16.1367   -9.2554  -19.3369 O   0  0  0  0  0  0  0  0  0  0  0  0
   16.7241   -9.1593  -18.0870 C   0  0  0  0  0  0  0  0  0  0  0  0
   17.9635  -10.0204  -18.0295 C   0  0  2  0  0  0  0  0  0  0  0  0
   17.5272  -11.3987  -17.9141 N   0  0  0  0  0  0  0  0  0  0  0  0
   18.8135   -9.7247  -16.8514 C   0  0  0  0  0  0  0  0  0  0  0  0
   18.4253  -10.0251  -15.6918 O   0  0  0  0  0  0  0  0  0  0  0  0
   23.2605   -8.9866  -14.9145 C   0  0  0  0  0  0  0  0  0  0  0  0
   22.3003   -9.3550  -16.0207 C   0  0  1  0  0  0  0  0  0  0  0  0
   22.1958  -10.7598  -15.9567 O   0  0  0  0  0  0  0  0  0  0  0  0
   20.9082   -8.7438  -15.7937 C   0  0  2  0  0  0  0  0  0  0  0  0
   20.0844   -9.1008  -16.9576 N   0  0  0  0  0  0  0  0  0  0  0  0
   20.9850   -7.2737  -15.6747 C   0  0  0  0  0  0  0  0  0  0  0  0
   21.4419   -6.5948  -16.6533 O   0  0  0  0  0  0  0  0  0  0  0  0
   19.5952   -4.5383  -13.6621 C   0  0  0  0  0  0  0  0  0  0  0  0
   20.7725   -5.0864  -14.4510 C   0  0  2  0  0  0  0  0  0  0  0  0
   20.5875   -6.5233  -14.5520 N   0  0  0  0  0  0  0  0  0  0  0  0
   22.0271   -4.7744  -13.7060 C   0  0  0  0  0  0  0  0  0  0  0  0
   22.4550   -5.5848  -12.8556 O   0  0  0  0  0  0  0  0  0  0  0  0
   22.7419   -3.6143  -13.9202 O   0  0  0  0  0  0  0  0  0  0  0  0
  1  2  1  0
  2  3  1  0
  3  4  1  1
  5  3  1  0
  6  5  2  0
  8  7  1  1
  8  9  1  0
  8 10  1  0
 10 11  1  6
 11  5  1  0
 12 10  1  0
 12 16  1  0
 13 12  2  0
 15 16  1  0
 15 14  1  1
 15 17  1  0
 17 18  2  0
 17 19  1  0
M  END
$$$$
