STA.pdb
     RDKit          3D

 19 18  0  0  1  0  0  0  0  0999 V2000
   16.1987   -9.7291  -19.2066 O   0  0  0  0  0  0  0  0  0  0  0  0
   16.6704   -9.2838  -17.9835 C   0  0  0  0  0  0  0  0  0  0  0  0
   17.6291  -10.2941  -17.3992 C   0  0  2  0  0  0  0  0  0  0  0  0
   16.8387  -11.4072  -16.9096 N   0  0  0  0  0  0  0  0  0  0  0  0
   18.3981   -9.7578  -16.2508 C   0  0  0  0  0  0  0  0  0  0  0  0
   17.8829   -9.7111  -15.1027 O   0  0  0  0  0  0  0  0  0  0  0  0
   22.7279   -9.1027  -14.0836 C   0  0  0  0  0  0  0  0  0  0  0  0
   21.7992   -9.6008  -15.1656 C   0  0  1  0  0  0  0  0  0  0  0  0
   21.4679  -10.9164  -14.7812 O   0  0  0  0  0  0  0  0  0  0  0  0
   20.5102   -8.7664  -15.2384 C   0  0  2  0  0  0  0  0  0  0  0  0
   19.7283   -9.2770  -16.3736 N   0  0  0  0  0  0  0  0  0  0  0  0
   20.8126   -7.3363  -15.4500 C   0  0  0  0  0  0  0  0  0  0  0  0
   21.4085   -6.9797  -16.5202 O   0  0  0  0  0  0  0  0  0  0  0  0
   19.7878   -4.0457  -14.1558 C   0  0  0  0  0  0  0  0  0  0  0  0
   20.8635   -4.9087  -14.7935 C   0  0  2  0  0  0  0  0  0  0  0  0
   20.4949   -6.2937  -14.5592 N   0  0  0  0  0  0  0  0  0  0  0  0
   22.1678   -4.5994  -14.1382 C   0  0  0  0  0  0  0  0  0  0  0  0
   22.8180   -3.5967  -14.5054 O   0  0  0  0  0  0  0  0  0  0  0  0
   22.6911   -5.3845  -13.1320 O   0  0  0  0  0  0  0  0  0  0  0  0
  1  2  1  0
  2  3  1  0
  3  4  1  1
  5  3  1  0
  6  5  2  0
  8  7  1  1
  8  9  1  0
  8 10  1  0
 10 11  1  6
 11  5  1  0
 12 10  1  0
 12 16  1  0
 13 12  2  0
 15 16  1  0
 15 14  1  1
 15 17  1  0
 17 18  2  0
 17 19  1  0
M  END
$$$$
