STA.pdb
     RDKit          3D

 19 18  0  0  1  0  0  0  0  0999 V2000
   15.2441  -12.4414  -15.2979 O   0  0  0  0  0  0  0  0  0  0  0  0
   15.7878  -11.2596  -15.7715 C   0  0  0  0  0  0  0  0  0  0  0  0
   16.8583  -10.7669  -14.8269 C   0  0  2  0  0  0  0  0  0  0  0  0
   16.1888  -10.2197  -13.6626 N   0  0  0  0  0  0  0  0  0  0  0  0
   17.6856   -9.6845  -15.4117 C   0  0  0  0  0  0  0  0  0  0  0  0
   18.3576   -9.8878  -16.4571 O   0  0  0  0  0  0  0  0  0  0  0  0
   16.4106   -6.4020  -16.6389 C   0  0  0  0  0  0  0  0  0  0  0  0
   17.4748   -6.1103  -15.6075 C   0  0  1  0  0  0  0  0  0  0  0  0
   16.7739   -5.9802  -14.3908 O   0  0  0  0  0  0  0  0  0  0  0  0
   18.4775   -7.2685  -15.4803 C   0  0  2  0  0  0  0  0  0  0  0  0
   17.7677   -8.3866  -14.8423 N   0  0  0  0  0  0  0  0  0  0  0  0
   19.6364   -6.8812  -14.6509 C   0  0  0  0  0  0  0  0  0  0  0  0
   19.5115   -6.8589  -13.3815 O   0  0  0  0  0  0  0  0  0  0  0  0
   23.2910   -6.3332  -15.1382 C   0  0  0  0  0  0  0  0  0  0  0  0
   22.0430   -6.2533  -14.2752 C   0  0  2  0  0  0  0  0  0  0  0  0
   20.9078   -6.5254  -15.1392 N   0  0  0  0  0  0  0  0  0  0  0  0
   21.9474   -4.8763  -13.7087 C   0  0  0  0  0  0  0  0  0  0  0  0
   21.2607   -4.0146  -14.2995 O   0  0  0  0  0  0  0  0  0  0  0  0
   22.5936   -4.5116  -12.5459 O   0  0  0  0  0  0  0  0  0  0  0  0
  1  2  1  0
  2  3  1  0
  3  4  1  1
  5  3  1  0
  6  5  2  0
  8  7  1  6
  8  9  1  0
  8 10  1  0
 10 11  1  1
 11  5  1  0
 12 10  1  0
 12 16  1  0
 13 12  2  0
 15 16  1  0
 15 14  1  6
 15 17  1  0
 17 18  2  0
 17 19  1  0
M  END
$$$$
