STA.pdb
     RDKit          3D

 19 18  0  0  1  0  0  0  0  0999 V2000
   16.0304  -11.0871  -18.0819 O   0  0  0  0  0  0  0  0  0  0  0  0
   16.7513  -10.5927  -17.0083 C   0  0  0  0  0  0  0  0  0  0  0  0
   18.1175  -11.2349  -16.9621 C   0  0  2  0  0  0  0  0  0  0  0  0
   17.9321  -12.6173  -16.5648 N   0  0  0  0  0  0  0  0  0  0  0  0
   19.0146  -10.6038  -15.9647 C   0  0  0  0  0  0  0  0  0  0  0  0
   18.7876  -10.7278  -14.7322 O   0  0  0  0  0  0  0  0  0  0  0  0
   23.4277   -8.9786  -14.6514 C   0  0  0  0  0  0  0  0  0  0  0  0
   22.4394   -9.6843  -15.5495 C   0  0  1  0  0  0  0  0  0  0  0  0
   22.4799  -11.0339  -15.1428 O   0  0  0  0  0  0  0  0  0  0  0  0
   21.0110   -9.1508  -15.3547 C   0  0  2  0  0  0  0  0  0  0  0  0
   20.1550   -9.8412  -16.3301 N   0  0  0  0  0  0  0  0  0  0  0  0
   20.9502   -7.6937  -15.5878 C   0  0  0  0  0  0  0  0  0  0  0  0
   21.3116   -7.2307  -16.7203 O   0  0  0  0  0  0  0  0  0  0  0  0
   19.5055   -4.6691  -13.9976 C   0  0  0  0  0  0  0  0  0  0  0  0
   20.5371   -5.3059  -14.9137 C   0  0  2  0  0  0  0  0  0  0  0  0
   20.5156   -6.7345  -14.6537 N   0  0  0  0  0  0  0  0  0  0  0  0
   21.8767   -4.7372  -14.5845 C   0  0  0  0  0  0  0  0  0  0  0  0
   22.3028   -3.7543  -15.2291 O   0  0  0  0  0  0  0  0  0  0  0  0
   22.6731   -5.2584  -13.5861 O   0  0  0  0  0  0  0  0  0  0  0  0
  1  2  1  0
  2  3  1  0
  3  4  1  1
  5  3  1  0
  6  5  2  0
  8  7  1  1
  8  9  1  0
  8 10  1  0
 10 11  1  6
 11  5  1  0
 12 10  1  0
 12 16  1  0
 13 12  2  0
 15 16  1  0
 15 14  1  1
 15 17  1  0
 17 18  2  0
 17 19  1  0
M  END
$$$$
