YWL.pdb
     RDKit          3D

 35 37  0  0  1  0  0  0  0  0999 V2000
   14.1770  -24.0169   18.5834 O   0  0  0  0  0  0  0  0  0  0  0  0
   13.6989  -22.8288   19.1186 C   0  0  0  0  0  0  0  0  0  0  0  0
   13.1245  -22.7981   20.3676 C   0  0  0  0  0  0  0  0  0  0  0  0
   12.6520  -21.6170   20.8933 C   0  0  0  0  0  0  0  0  0  0  0  0
   12.7311  -20.4255   20.2024 C   0  0  0  0  0  0  0  0  0  0  0  0
   12.2412  -19.1500   20.7299 C   0  0  0  0  0  0  0  0  0  0  0  0
   11.5867  -19.2589   22.0847 C   0  0  2  0  0  0  0  0  0  0  0  0
   10.4597  -20.1483   22.0173 N   0  0  0  0  0  0  0  0  0  0  0  0
   11.2120  -17.8950   22.5366 C   0  0  0  0  0  0  0  0  0  0  0  0
   12.0585  -16.9693   22.4444 O   0  0  0  0  0  0  0  0  0  0  0  0
   13.3079  -20.4539   18.9472 C   0  0  0  0  0  0  0  0  0  0  0  0
   13.7864  -21.6472   18.4133 C   0  0  0  0  0  0  0  0  0  0  0  0
    9.9405  -17.5554   23.0763 N   0  0  0  0  0  0  0  0  0  0  0  0
    9.5900  -16.2471   23.5660 C   0  0  1  0  0  0  0  0  0  0  0  0
    8.1394  -15.9217   23.5522 C   0  0  0  0  0  0  0  0  0  0  0  0
    7.7622  -14.5477   23.8414 C   0  0  0  0  0  0  0  0  0  0  0  0
    7.9287  -13.4742   22.9825 C   0  0  0  0  0  0  0  0  0  0  0  0
    7.4820  -12.3520   23.5799 N   0  0  0  0  0  0  0  0  0  0  0  0
    7.0165  -12.6458   24.8257 C   0  0  0  0  0  0  0  0  0  0  0  0
    6.4665  -11.8498   25.8003 C   0  0  0  0  0  0  0  0  0  0  0  0
    6.0661  -12.4051   26.9886 C   0  0  0  0  0  0  0  0  0  0  0  0
    6.2390  -13.7637   27.1496 C   0  0  0  0  0  0  0  0  0  0  0  0
    6.7910  -14.5544   26.1681 C   0  0  0  0  0  0  0  0  0  0  0  0
    7.1986  -14.0211   24.9731 C   0  0  0  0  0  0  0  0  0  0  0  0
   10.2318  -16.0593   24.9036 C   0  0  0  0  0  0  0  0  0  0  0  0
   11.0103  -15.0967   25.1183 O   0  0  0  0  0  0  0  0  0  0  0  0
   10.9572  -13.9507   27.8351 C   0  0  0  0  0  0  0  0  0  0  0  0
    9.6133  -14.6841   27.8815 C   0  0  2  0  0  0  0  0  0  0  0  0
    8.6304  -13.9687   28.7571 C   0  0  0  0  0  0  0  0  0  0  0  0
    9.8051  -16.1215   28.2749 C   0  0  0  0  0  0  0  0  0  0  0  0
   10.6389  -16.8387   27.2900 C   0  0  2  0  0  0  0  0  0  0  0  0
    9.9965  -16.9469   25.9850 N   0  0  0  0  0  0  0  0  0  0  0  0
   11.1236  -18.1230   27.7740 C   0  0  0  0  0  0  0  0  0  0  0  0
   10.8929  -19.2884   26.9995 O   0  0  0  0  0  0  0  0  0  0  0  0
   11.7452  -18.3377   28.8312 O   0  0  0  0  0  0  0  0  0  0  0  0
  2  1  1  0
  3  2  2  0
  4  3  1  0
  5  4  2  0
  5 11  1  0
  6  5  1  0
  7  6  1  0
  7  8  1  6
  9 13  1  0
  9  7  1  0
 10  9  2  0
 11 12  2  0
 12  2  1  0
 14 25  1  0
 14 13  1  0
 14 15  1  1
 16 17  2  0
 16 15  1  0
 18 17  1  0
 19 24  2  0
 19 18  1  0
 20 19  1  0
 21 22  1  0
 21 20  2  0
 22 23  2  0
 23 24  1  0
 24 16  1  0
 25 32  1  0
 26 25  2  0
 28 27  1  1
 28 30  1  0
 29 28  1  0
 31 33  1  0
 31 30  1  1
 32 31  1  0
 33 34  1  0
 35 33  2  0
M  END
$$$$
