YWL.pdb
     RDKit          3D

 35 37  0  0  1  0  0  0  0  0999 V2000
   11.8314  -22.2272   16.8779 O   0  0  0  0  0  0  0  0  0  0  0  0
   11.7680  -21.2302   17.8417 C   0  0  0  0  0  0  0  0  0  0  0  0
   11.6455  -21.5442   19.1749 C   0  0  0  0  0  0  0  0  0  0  0  0
   11.5830  -20.5515   20.1261 C   0  0  0  0  0  0  0  0  0  0  0  0
   11.6397  -19.2140   19.7924 C   0  0  0  0  0  0  0  0  0  0  0  0
   11.5782  -18.1309   20.7765 C   0  0  0  0  0  0  0  0  0  0  0  0
   10.4991  -17.1135   20.5001 C   0  0  2  0  0  0  0  0  0  0  0  0
   10.8615  -16.3064   19.3676 N   0  0  0  0  0  0  0  0  0  0  0  0
   10.2854  -16.3094   21.7299 C   0  0  0  0  0  0  0  0  0  0  0  0
   11.0446  -15.3329   21.9582 O   0  0  0  0  0  0  0  0  0  0  0  0
   11.7628  -18.8961   18.4535 C   0  0  0  0  0  0  0  0  0  0  0  0
   11.8261  -19.8985   17.4894 C   0  0  0  0  0  0  0  0  0  0  0  0
    9.2645  -16.5702   22.6855 N   0  0  0  0  0  0  0  0  0  0  0  0
    9.2900  -16.1041   24.0479 C   0  0  1  0  0  0  0  0  0  0  0  0
    8.1427  -16.5258   24.8942 C   0  0  0  0  0  0  0  0  0  0  0  0
    7.1981  -15.4964   25.2967 C   0  0  0  0  0  0  0  0  0  0  0  0
    5.9591  -15.7272   25.8707 C   0  0  0  0  0  0  0  0  0  0  0  0
    5.3481  -14.5484   26.1011 N   0  0  0  0  0  0  0  0  0  0  0  0
    6.1499  -13.5253   25.6945 C   0  0  0  0  0  0  0  0  0  0  0  0
    5.9705  -12.1641   25.7253 C   0  0  0  0  0  0  0  0  0  0  0  0
    6.9542  -11.3358   25.2488 C   0  0  0  0  0  0  0  0  0  0  0  0
    8.0988  -11.9227   24.7519 C   0  0  0  0  0  0  0  0  0  0  0  0
    8.2708  -13.2876   24.7244 C   0  0  0  0  0  0  0  0  0  0  0  0
    7.3012  -14.1345   25.1948 C   0  0  0  0  0  0  0  0  0  0  0  0
   10.6225  -16.4439   24.6353 C   0  0  0  0  0  0  0  0  0  0  0  0
   11.6757  -15.9151   24.1994 O   0  0  0  0  0  0  0  0  0  0  0  0
   11.4021  -14.6137   28.2837 C   0  0  0  0  0  0  0  0  0  0  0  0
   10.0032  -14.7348   27.6720 C   0  0  2  0  0  0  0  0  0  0  0  0
    8.9935  -13.9556   28.4583 C   0  0  0  0  0  0  0  0  0  0  0  0
    9.6205  -16.1778   27.5011 C   0  0  0  0  0  0  0  0  0  0  0  0
   10.7853  -16.9974   27.1123 C   0  0  2  0  0  0  0  0  0  0  0  0
   10.7636  -17.3686   25.7019 N   0  0  0  0  0  0  0  0  0  0  0  0
   10.9959  -18.1458   27.9814 C   0  0  0  0  0  0  0  0  0  0  0  0
   10.0405  -19.1939   27.9900 O   0  0  0  0  0  0  0  0  0  0  0  0
   11.9540  -18.3336   28.7538 O   0  0  0  0  0  0  0  0  0  0  0  0
  2  1  1  0
  3  2  2  0
  4  3  1  0
  5  4  2  0
  5 11  1  0
  6  5  1  0
  7  6  1  0
  7  8  1  6
  9 13  1  0
  9  7  1  0
 10  9  2  0
 11 12  2  0
 12  2  1  0
 14 25  1  0
 14 13  1  0
 14 15  1  1
 16 17  2  0
 16 15  1  0
 18 17  1  0
 19 24  2  0
 19 18  1  0
 20 19  1  0
 21 22  1  0
 21 20  2  0
 22 23  2  0
 23 24  1  0
 24 16  1  0
 25 32  1  0
 26 25  2  0
 28 27  1  1
 28 30  1  0
 29 28  1  0
 31 33  1  0
 31 30  1  1
 32 31  1  0
 33 34  1  0
 35 33  2  0
M  END
$$$$
