YWL.pdb
     RDKit          3D

 35 37  0  0  1  0  0  0  0  0999 V2000
   13.1236  -20.3213   16.0626 O   0  0  0  0  0  0  0  0  0  0  0  0
   12.8414  -19.6183   17.2257 C   0  0  0  0  0  0  0  0  0  0  0  0
   13.8219  -19.3746   18.1586 C   0  0  0  0  0  0  0  0  0  0  0  0
   13.5363  -18.6770   19.3102 C   0  0  0  0  0  0  0  0  0  0  0  0
   12.2716  -18.1961   19.5793 C   0  0  0  0  0  0  0  0  0  0  0  0
   11.9309  -17.4487   20.7920 C   0  0  0  0  0  0  0  0  0  0  0  0
   10.4516  -17.2128   20.9703 C   0  0  2  0  0  0  0  0  0  0  0  0
    9.9181  -16.5381   19.8189 N   0  0  0  0  0  0  0  0  0  0  0  0
   10.2457  -16.4486   22.2267 C   0  0  0  0  0  0  0  0  0  0  0  0
   10.9719  -15.4477   22.4562 O   0  0  0  0  0  0  0  0  0  0  0  0
   11.2847  -18.4396   18.6435 C   0  0  0  0  0  0  0  0  0  0  0  0
   11.5712  -19.1450   17.4779 C   0  0  0  0  0  0  0  0  0  0  0  0
    9.2676  -16.7747   23.2067 N   0  0  0  0  0  0  0  0  0  0  0  0
    9.1135  -16.0834   24.4607 C   0  0  1  0  0  0  0  0  0  0  0  0
    7.9327  -16.4786   25.2729 C   0  0  0  0  0  0  0  0  0  0  0  0
    6.8544  -15.5111   25.3952 C   0  0  0  0  0  0  0  0  0  0  0  0
    5.5150  -15.8218   25.5609 C   0  0  0  0  0  0  0  0  0  0  0  0
    4.7977  -14.6828   25.6241 N   0  0  0  0  0  0  0  0  0  0  0  0
    5.6259  -13.6081   25.5048 C   0  0  0  0  0  0  0  0  0  0  0  0
    5.3693  -12.2591   25.5131 C   0  0  0  0  0  0  0  0  0  0  0  0
    6.4026  -11.3677   25.3776 C   0  0  0  0  0  0  0  0  0  0  0  0
    7.6749  -11.8805   25.2367 C   0  0  0  0  0  0  0  0  0  0  0  0
    7.9237  -13.2338   25.2292 C   0  0  0  0  0  0  0  0  0  0  0  0
    6.9067  -14.1429   25.3628 C   0  0  0  0  0  0  0  0  0  0  0  0
   10.4072  -16.1691   25.2060 C   0  0  0  0  0  0  0  0  0  0  0  0
   11.2323  -15.2218   25.1811 O   0  0  0  0  0  0  0  0  0  0  0  0
   11.4703  -14.4305   28.1001 C   0  0  0  0  0  0  0  0  0  0  0  0
   10.1453  -15.1930   28.0048 C   0  0  2  0  0  0  0  0  0  0  0  0
    9.0959  -14.5762   28.8784 C   0  0  0  0  0  0  0  0  0  0  0  0
   10.3513  -16.6546   28.2856 C   0  0  0  0  0  0  0  0  0  0  0  0
   11.2989  -17.2550   27.3257 C   0  0  2  0  0  0  0  0  0  0  0  0
   10.7639  -17.3100   25.9700 N   0  0  0  0  0  0  0  0  0  0  0  0
   11.8239  -18.5400   27.7638 C   0  0  0  0  0  0  0  0  0  0  0  0
   11.6395  -19.6813   26.9423 O   0  0  0  0  0  0  0  0  0  0  0  0
   12.4442  -18.7747   28.8174 O   0  0  0  0  0  0  0  0  0  0  0  0
  2  1  1  0
  3  2  2  0
  4  3  1  0
  5  4  2  0
  5 11  1  0
  6  5  1  0
  7  6  1  0
  7  8  1  6
  9 13  1  0
  9  7  1  0
 10  9  2  0
 11 12  2  0
 12  2  1  0
 14 25  1  0
 14 13  1  0
 14 15  1  1
 16 17  2  0
 16 15  1  0
 18 17  1  0
 19 24  2  0
 19 18  1  0
 20 19  1  0
 21 22  1  0
 21 20  2  0
 22 23  2  0
 23 24  1  0
 24 16  1  0
 25 32  1  0
 26 25  2  0
 28 27  1  1
 28 30  1  0
 29 28  1  0
 31 33  1  0
 31 30  1  1
 32 31  1  0
 33 34  1  0
 35 33  2  0
M  END
$$$$
