YWL.pdb
     RDKit          3D

 35 37  0  0  1  0  0  0  0  0999 V2000
   12.4984  -25.5925   22.5094 O   0  0  0  0  0  0  0  0  0  0  0  0
   12.3801  -24.2312   22.2652 C   0  0  0  0  0  0  0  0  0  0  0  0
   12.1271  -23.7609   20.9979 C   0  0  0  0  0  0  0  0  0  0  0  0
   12.0109  -22.4100   20.7616 C   0  0  0  0  0  0  0  0  0  0  0  0
   12.1406  -21.4773   21.7698 C   0  0  0  0  0  0  0  0  0  0  0  0
   12.0215  -20.0331   21.5566 C   0  0  0  0  0  0  0  0  0  0  0  0
   10.6039  -19.5596   21.3513 C   0  0  2  0  0  0  0  0  0  0  0  0
   10.2489  -19.6555   19.9620 N   0  0  0  0  0  0  0  0  0  0  0  0
   10.4903  -18.1752   21.8759 C   0  0  0  0  0  0  0  0  0  0  0  0
   11.3949  -17.3449   21.6034 O   0  0  0  0  0  0  0  0  0  0  0  0
   12.3948  -21.9474   23.0439 C   0  0  0  0  0  0  0  0  0  0  0  0
   12.5129  -23.3134   23.2854 C   0  0  0  0  0  0  0  0  0  0  0  0
    9.4112  -17.7134   22.6795 N   0  0  0  0  0  0  0  0  0  0  0  0
    9.3073  -16.3780   23.2089 C   0  0  1  0  0  0  0  0  0  0  0  0
    7.9280  -15.9081   23.5042 C   0  0  0  0  0  0  0  0  0  0  0  0
    7.7459  -14.4855   23.7429 C   0  0  0  0  0  0  0  0  0  0  0  0
    8.1951  -13.4709   22.9143 C   0  0  0  0  0  0  0  0  0  0  0  0
    7.8640  -12.2791   23.4492 N   0  0  0  0  0  0  0  0  0  0  0  0
    7.1995  -12.4683   24.6229 C   0  0  0  0  0  0  0  0  0  0  0  0
    6.6654  -11.5740   25.5178 C   0  0  0  0  0  0  0  0  0  0  0  0
    6.0294  -12.0327   26.6429 C   0  0  0  0  0  0  0  0  0  0  0  0
    5.9559  -13.3979   26.8238 C   0  0  0  0  0  0  0  0  0  0  0  0
    6.4938  -14.2873   25.9224 C   0  0  0  0  0  0  0  0  0  0  0  0
    7.1342  -13.8516   24.7915 C   0  0  0  0  0  0  0  0  0  0  0  0
   10.2405  -16.2601   24.3714 C   0  0  0  0  0  0  0  0  0  0  0  0
   11.1039  -15.3484   24.4181 O   0  0  0  0  0  0  0  0  0  0  0  0
   11.1340  -14.4790   28.3585 C   0  0  0  0  0  0  0  0  0  0  0  0
    9.9157  -14.3983   27.4338 C   0  0  2  0  0  0  0  0  0  0  0  0
    8.9337  -13.3727   27.9119 C   0  0  0  0  0  0  0  0  0  0  0  0
    9.2972  -15.7551   27.2493 C   0  0  0  0  0  0  0  0  0  0  0  0
   10.3110  -16.7571   26.8646 C   0  0  2  0  0  0  0  0  0  0  0  0
   10.1986  -17.1600   25.4673 N   0  0  0  0  0  0  0  0  0  0  0  0
   10.3610  -17.8993   27.7654 C   0  0  0  0  0  0  0  0  0  0  0  0
   11.5276  -18.1210   28.5408 O   0  0  0  0  0  0  0  0  0  0  0  0
    9.4667  -18.7454   27.9507 O   0  0  0  0  0  0  0  0  0  0  0  0
  2  1  1  0
  3  2  2  0
  4  3  1  0
  5  4  2  0
  5 11  1  0
  6  5  1  0
  7  6  1  0
  7  8  1  6
  9 13  1  0
  9  7  1  0
 10  9  2  0
 11 12  2  0
 12  2  1  0
 14 25  1  0
 14 13  1  0
 14 15  1  1
 16 17  2  0
 16 15  1  0
 18 17  1  0
 19 24  2  0
 19 18  1  0
 20 19  1  0
 21 22  1  0
 21 20  2  0
 22 23  2  0
 23 24  1  0
 24 16  1  0
 25 32  1  0
 26 25  2  0
 28 27  1  1
 28 30  1  0
 29 28  1  0
 31 33  1  0
 31 30  1  1
 32 31  1  0
 33 34  1  0
 35 33  2  0
M  END
$$$$
