YWL.pdb
     RDKit          3D

 35 37  0  0  1  0  0  0  0  0999 V2000
    7.5053  -11.9928   16.4946 O   0  0  0  0  0  0  0  0  0  0  0  0
    7.7296  -12.7997   17.6016 C   0  0  0  0  0  0  0  0  0  0  0  0
    8.8401  -12.6199   18.3925 C   0  0  0  0  0  0  0  0  0  0  0  0
    9.0574  -13.4231   19.4889 C   0  0  0  0  0  0  0  0  0  0  0  0
    8.1845  -14.4316   19.8414 C   0  0  0  0  0  0  0  0  0  0  0  0
    8.3817  -15.3042   21.0011 C   0  0  0  0  0  0  0  0  0  0  0  0
    9.5183  -16.2837   20.8438 C   0  0  2  0  0  0  0  0  0  0  0  0
    9.2639  -17.1592   19.7329 N   0  0  0  0  0  0  0  0  0  0  0  0
    9.6863  -17.0180   22.1234 C   0  0  0  0  0  0  0  0  0  0  0  0
    8.8733  -17.9337   22.4108 O   0  0  0  0  0  0  0  0  0  0  0  0
    7.0681  -14.6141   19.0482 C   0  0  0  0  0  0  0  0  0  0  0  0
    6.8461  -13.8031   17.9387 C   0  0  0  0  0  0  0  0  0  0  0  0
   10.7202  -16.7542   23.0641 N   0  0  0  0  0  0  0  0  0  0  0  0
   10.5506  -16.8104   24.4931 C   0  0  1  0  0  0  0  0  0  0  0  0
   11.7883  -16.6259   25.2960 C   0  0  0  0  0  0  0  0  0  0  0  0
   11.6580  -16.6817   26.7430 C   0  0  0  0  0  0  0  0  0  0  0  0
   11.7851  -17.8246   27.5147 C   0  0  0  0  0  0  0  0  0  0  0  0
   11.5905  -17.5113   28.8107 N   0  0  0  0  0  0  0  0  0  0  0  0
   11.3345  -16.1789   28.9304 C   0  0  0  0  0  0  0  0  0  0  0  0
   11.0794  -15.3990   30.0316 C   0  0  0  0  0  0  0  0  0  0  0  0
   10.8550  -14.0548   29.8778 C   0  0  0  0  0  0  0  0  0  0  0  0
   10.8975  -13.5419   28.5985 C   0  0  0  0  0  0  0  0  0  0  0  0
   11.1538  -14.3302   27.5003 C   0  0  0  0  0  0  0  0  0  0  0  0
   11.3805  -15.6757   27.6300 C   0  0  0  0  0  0  0  0  0  0  0  0
    9.4475  -15.8745   24.8721 C   0  0  0  0  0  0  0  0  0  0  0  0
    9.6631  -14.6452   25.0173 O   0  0  0  0  0  0  0  0  0  0  0  0
    8.0621  -13.4030   27.1269 C   0  0  0  0  0  0  0  0  0  0  0  0
    7.0614  -13.8885   26.0739 C   0  0  2  0  0  0  0  0  0  0  0  0
    6.0306  -12.8426   25.7764 C   0  0  0  0  0  0  0  0  0  0  0  0
    6.4569  -15.2026   26.4805 C   0  0  0  0  0  0  0  0  0  0  0  0
    7.4402  -16.2989   26.3749 C   0  0  2  0  0  0  0  0  0  0  0  0
    8.1178  -16.3214   25.0835 N   0  0  0  0  0  0  0  0  0  0  0  0
    6.8921  -17.5990   26.7327 C   0  0  0  0  0  0  0  0  0  0  0  0
    6.9741  -18.6664   25.8025 O   0  0  0  0  0  0  0  0  0  0  0  0
    6.3352  -17.9072   27.8027 O   0  0  0  0  0  0  0  0  0  0  0  0
  2  1  1  0
  3  2  2  0
  4  3  1  0
  5  4  2  0
  5 11  1  0
  6  5  1  0
  7  6  1  0
  7  8  1  6
  9 13  1  0
  9  7  1  0
 10  9  2  0
 11 12  2  0
 12  2  1  0
 14 25  1  0
 14 13  1  0
 14 15  1  1
 16 17  2  0
 16 15  1  0
 18 17  1  0
 19 24  2  0
 19 18  1  0
 20 19  1  0
 21 22  1  0
 21 20  2  0
 22 23  2  0
 23 24  1  0
 24 16  1  0
 25 32  1  0
 26 25  2  0
 28 27  1  1
 28 30  1  0
 29 28  1  0
 31 33  1  0
 31 30  1  6
 32 31  1  0
 33 34  1  0
 35 33  2  0
M  END
$$$$
