YWL.pdb
     RDKit          3D

 35 37  0  0  1  0  0  0  0  0999 V2000
   13.7985  -22.5890   16.7326 O   0  0  0  0  0  0  0  0  0  0  0  0
   13.3640  -21.6157   17.6217 C   0  0  0  0  0  0  0  0  0  0  0  0
   12.3635  -21.8826   18.5267 C   0  0  0  0  0  0  0  0  0  0  0  0
   11.9366  -20.9135   19.4059 C   0  0  0  0  0  0  0  0  0  0  0  0
   12.4839  -19.6472   19.4210 C   0  0  0  0  0  0  0  0  0  0  0  0
   12.0569  -18.5919   20.3425 C   0  0  0  0  0  0  0  0  0  0  0  0
   10.8735  -17.7942   19.8534 C   0  0  2  0  0  0  0  0  0  0  0  0
   11.2206  -17.0835   18.6535 N   0  0  0  0  0  0  0  0  0  0  0  0
   10.4323  -16.8903   20.9456 C   0  0  0  0  0  0  0  0  0  0  0  0
   10.9387  -15.7419   21.0271 O   0  0  0  0  0  0  0  0  0  0  0  0
   13.4893  -19.3768   18.5127 C   0  0  0  0  0  0  0  0  0  0  0  0
   13.9228  -20.3553   17.6224 C   0  0  0  0  0  0  0  0  0  0  0  0
    9.4600  -17.2378   21.9240 N   0  0  0  0  0  0  0  0  0  0  0  0
    9.0479  -16.3746   23.0007 C   0  0  1  0  0  0  0  0  0  0  0  0
    7.5801  -16.1981   23.1586 C   0  0  0  0  0  0  0  0  0  0  0  0
    7.1190  -15.4697   24.3294 C   0  0  0  0  0  0  0  0  0  0  0  0
    6.4680  -16.0301   25.4157 C   0  0  0  0  0  0  0  0  0  0  0  0
    6.1758  -15.0632   26.3076 N   0  0  0  0  0  0  0  0  0  0  0  0
    6.6166  -13.8601   25.8456 C   0  0  0  0  0  0  0  0  0  0  0  0
    6.5560  -12.6011   26.3906 C   0  0  0  0  0  0  0  0  0  0  0  0
    7.0903  -11.5371   25.7100 C   0  0  0  0  0  0  0  0  0  0  0  0
    7.6744  -11.7893   24.4865 C   0  0  0  0  0  0  0  0  0  0  0  0
    7.7310  -13.0539   23.9473 C   0  0  0  0  0  0  0  0  0  0  0  0
    7.2033  -14.1318   24.6093 C   0  0  0  0  0  0  0  0  0  0  0  0
    9.7336  -16.8240   24.2513 C   0  0  0  0  0  0  0  0  0  0  0  0
    9.4462  -17.9235   24.7875 O   0  0  0  0  0  0  0  0  0  0  0  0
    9.4175  -13.3461   28.8051 C   0  0  0  0  0  0  0  0  0  0  0  0
   10.2347  -14.5429   28.3094 C   0  0  2  0  0  0  0  0  0  0  0  0
   11.6399  -14.4971   28.8271 C   0  0  0  0  0  0  0  0  0  0  0  0
   10.1690  -14.6483   26.8120 C   0  0  0  0  0  0  0  0  0  0  0  0
   10.8431  -15.8710   26.3319 C   0  0  2  0  0  0  0  0  0  0  0  0
   10.7316  -16.0420   24.8877 N   0  0  0  0  0  0  0  0  0  0  0  0
   10.4498  -17.0679   27.0608 C   0  0  0  0  0  0  0  0  0  0  0  0
   11.4525  -17.9459   27.5457 O   0  0  0  0  0  0  0  0  0  0  0  0
    9.2901  -17.4352   27.3256 O   0  0  0  0  0  0  0  0  0  0  0  0
  2  1  1  0
  3  2  2  0
  4  3  1  0
  5  4  2  0
  5 11  1  0
  6  5  1  0
  7  6  1  0
  7  8  1  6
  9 13  1  0
  9  7  1  0
 10  9  2  0
 11 12  2  0
 12  2  1  0
 14 25  1  0
 14 13  1  0
 14 15  1  1
 16 17  2  0
 16 15  1  0
 18 17  1  0
 19 24  2  0
 19 18  1  0
 20 19  1  0
 21 22  1  0
 21 20  2  0
 22 23  2  0
 23 24  1  0
 24 16  1  0
 25 32  1  0
 26 25  2  0
 28 27  1  6
 28 30  1  0
 29 28  1  0
 31 33  1  0
 31 30  1  1
 32 31  1  0
 33 34  1  0
 35 33  2  0
M  END
$$$$
