YWL.pdb
     RDKit          3D

 35 37  0  0  1  0  0  0  0  0999 V2000
    7.0572  -13.3919   15.7102 O   0  0  0  0  0  0  0  0  0  0  0  0
    7.4606  -13.6167   17.0191 C   0  0  0  0  0  0  0  0  0  0  0  0
    8.0341  -14.8117   17.3856 C   0  0  0  0  0  0  0  0  0  0  0  0
    8.4322  -15.0290   18.6851 C   0  0  0  0  0  0  0  0  0  0  0  0
    8.2773  -14.0726   19.6672 C   0  0  0  0  0  0  0  0  0  0  0  0
    8.6902  -14.2672   21.0589 C   0  0  0  0  0  0  0  0  0  0  0  0
    9.1528  -15.6691   21.3696 C   0  0  2  0  0  0  0  0  0  0  0  0
    8.1244  -16.6139   21.0300 N   0  0  0  0  0  0  0  0  0  0  0  0
    9.5349  -15.7310   22.8032 C   0  0  0  0  0  0  0  0  0  0  0  0
   10.5098  -15.0444   23.2034 O   0  0  0  0  0  0  0  0  0  0  0  0
    7.7014  -12.8711   19.3014 C   0  0  0  0  0  0  0  0  0  0  0  0
    7.2979  -12.6489   17.9877 C   0  0  0  0  0  0  0  0  0  0  0  0
    8.8641  -16.5264   23.7732 N   0  0  0  0  0  0  0  0  0  0  0  0
    9.3230  -16.7157   25.1251 C   0  0  1  0  0  0  0  0  0  0  0  0
    8.2785  -16.6209   26.1788 C   0  0  0  0  0  0  0  0  0  0  0  0
    7.3336  -15.5201   26.0828 C   0  0  0  0  0  0  0  0  0  0  0  0
    6.0083  -15.6341   25.6975 C   0  0  0  0  0  0  0  0  0  0  0  0
    5.4345  -14.4149   25.7084 N   0  0  0  0  0  0  0  0  0  0  0  0
    6.3459  -13.4789   26.0937 C   0  0  0  0  0  0  0  0  0  0  0  0
    6.2372  -12.1198   26.2578 C   0  0  0  0  0  0  0  0  0  0  0  0
    7.3257  -11.3934   26.6680 C   0  0  0  0  0  0  0  0  0  0  0  0
    8.5002  -12.0777   26.9002 C   0  0  0  0  0  0  0  0  0  0  0  0
    8.6009  -13.4398   26.7332 C   0  0  0  0  0  0  0  0  0  0  0  0
    7.5264  -14.1858   26.3238 C   0  0  0  0  0  0  0  0  0  0  0  0
   10.1130  -17.9843   25.1793 C   0  0  0  0  0  0  0  0  0  0  0  0
   10.0679  -18.8153   24.2378 O   0  0  0  0  0  0  0  0  0  0  0  0
   15.5809  -17.5127   24.9083 C   0  0  0  0  0  0  0  0  0  0  0  0
   14.5397  -18.5999   25.1910 C   0  0  2  0  0  0  0  0  0  0  0  0
   14.5996  -19.6930   24.1680 C   0  0  0  0  0  0  0  0  0  0  0  0
   13.1680  -18.0012   25.3238 C   0  0  0  0  0  0  0  0  0  0  0  0
   12.2945  -18.8464   26.1618 C   0  0  2  0  0  0  0  0  0  0  0  0
   10.9437  -18.3098   26.2822 N   0  0  0  0  0  0  0  0  0  0  0  0
   12.8770  -19.1689   27.4562 C   0  0  0  0  0  0  0  0  0  0  0  0
   13.5288  -20.4161   27.6324 O   0  0  0  0  0  0  0  0  0  0  0  0
   12.8762  -18.4544   28.4757 O   0  0  0  0  0  0  0  0  0  0  0  0
  2  1  1  0
  3  2  2  0
  4  3  1  0
  5  4  2  0
  5 11  1  0
  6  5  1  0
  7  6  1  0
  7  8  1  1
  9 13  1  0
  9  7  1  0
 10  9  2  0
 11 12  2  0
 12  2  1  0
 14 25  1  0
 14 13  1  0
 14 15  1  1
 16 17  2  0
 16 15  1  0
 18 17  1  0
 19 24  2  0
 19 18  1  0
 20 19  1  0
 21 22  1  0
 21 20  2  0
 22 23  2  0
 23 24  1  0
 24 16  1  0
 25 32  1  0
 26 25  2  0
 28 27  1  6
 28 30  1  0
 29 28  1  0
 31 33  1  0
 31 30  1  1
 32 31  1  0
 33 34  1  0
 35 33  2  0
M  END
$$$$
