YWL.pdb
     RDKit          3D

 35 37  0  0  1  0  0  0  0  0999 V2000
    7.6661  -14.1048   14.9695 O   0  0  0  0  0  0  0  0  0  0  0  0
    8.0028  -14.1310   16.3158 C   0  0  0  0  0  0  0  0  0  0  0  0
    8.9166  -15.0388   16.7972 C   0  0  0  0  0  0  0  0  0  0  0  0
    9.2466  -15.0602   18.1333 C   0  0  0  0  0  0  0  0  0  0  0  0
    8.6847  -14.1849   19.0396 C   0  0  0  0  0  0  0  0  0  0  0  0
    9.0125  -14.1767   20.4671 C   0  0  0  0  0  0  0  0  0  0  0  0
    9.5167  -15.5002   20.9868 C   0  0  2  0  0  0  0  0  0  0  0  0
    8.6470  -16.5612   20.5585 N   0  0  0  0  0  0  0  0  0  0  0  0
    9.6272  -15.4133   22.4649 C   0  0  0  0  0  0  0  0  0  0  0  0
   10.3148  -14.4896   22.9707 O   0  0  0  0  0  0  0  0  0  0  0  0
    7.7662  -13.2718   18.5582 C   0  0  0  0  0  0  0  0  0  0  0  0
    7.4308  -13.2482   17.2073 C   0  0  0  0  0  0  0  0  0  0  0  0
    8.9989  -16.3175   23.3657 N   0  0  0  0  0  0  0  0  0  0  0  0
    8.9942  -16.1641   24.7977 C   0  0  1  0  0  0  0  0  0  0  0  0
    7.7090  -16.4806   25.4748 C   0  0  0  0  0  0  0  0  0  0  0  0
    6.7219  -15.4166   25.5611 C   0  0  0  0  0  0  0  0  0  0  0  0
    5.3489  -15.5932   25.5218 C   0  0  0  0  0  0  0  0  0  0  0  0
    4.7424  -14.3934   25.6137 N   0  0  0  0  0  0  0  0  0  0  0  0
    5.6784  -13.4092   25.7146 C   0  0  0  0  0  0  0  0  0  0  0  0
    5.5536  -12.0467   25.8330 C   0  0  0  0  0  0  0  0  0  0  0  0
    6.6765  -11.2647   25.9245 C   0  0  0  0  0  0  0  0  0  0  0  0
    7.9010  -11.8982   25.8926 C   0  0  0  0  0  0  0  0  0  0  0  0
    8.0174  -13.2640   25.7737 C   0  0  0  0  0  0  0  0  0  0  0  0
    6.9092  -14.0651   25.6804 C   0  0  0  0  0  0  0  0  0  0  0  0
   10.1629  -16.9132   25.3538 C   0  0  0  0  0  0  0  0  0  0  0  0
   10.9246  -17.5734   24.6037 O   0  0  0  0  0  0  0  0  0  0  0  0
   10.8622  -14.1311   28.6252 C   0  0  0  0  0  0  0  0  0  0  0  0
   11.0653  -15.6006   29.0063 C   0  0  2  0  0  0  0  0  0  0  0  0
   11.1796  -15.7694   30.4906 C   0  0  0  0  0  0  0  0  0  0  0  0
   12.2315  -16.1868   28.2621 C   0  0  0  0  0  0  0  0  0  0  0  0
   11.7877  -17.2043   27.2886 C   0  0  2  0  0  0  0  0  0  0  0  0
   10.4676  -16.9160   26.7394 N   0  0  0  0  0  0  0  0  0  0  0  0
   11.8895  -18.5657   27.7934 C   0  0  0  0  0  0  0  0  0  0  0  0
   10.7547  -19.4143   27.7345 O   0  0  0  0  0  0  0  0  0  0  0  0
   12.8943  -19.1050   28.2928 O   0  0  0  0  0  0  0  0  0  0  0  0
  2  1  1  0
  3  2  2  0
  4  3  1  0
  5  4  2  0
  5 11  1  0
  6  5  1  0
  7  6  1  0
  7  8  1  1
  9 13  1  0
  9  7  1  0
 10  9  2  0
 11 12  2  0
 12  2  1  0
 14 25  1  0
 14 13  1  0
 14 15  1  1
 16 17  2  0
 16 15  1  0
 18 17  1  0
 19 24  2  0
 19 18  1  0
 20 19  1  0
 21 22  1  0
 21 20  2  0
 22 23  2  0
 23 24  1  0
 24 16  1  0
 25 32  1  0
 26 25  2  0
 28 27  1  1
 28 30  1  0
 29 28  1  0
 31 33  1  0
 31 30  1  1
 32 31  1  0
 33 34  1  0
 35 33  2  0
M  END
$$$$
