YMT.pdb
     RDKit          3D

 28 28  0  0  1  0  0  0  0  0999 V2000
    4.1358  -23.2056   26.0773 O   0  0  0  0  0  0  0  0  0  0  0  0
    4.8541  -22.4087   25.1962 C   0  0  0  0  0  0  0  0  0  0  0  0
    5.9239  -21.6472   25.6496 C   0  0  0  0  0  0  0  0  0  0  0  0
    6.6529  -20.8481   24.7940 C   0  0  0  0  0  0  0  0  0  0  0  0
    6.3604  -20.7621   23.4489 C   0  0  0  0  0  0  0  0  0  0  0  0
    7.1681  -19.8902   22.5551 C   0  0  0  0  0  0  0  0  0  0  0  0
    6.3689  -18.6176   22.3534 C   0  0  2  0  0  0  0  0  0  0  0  0
    6.0345  -18.5761   20.9478 N   0  0  0  0  0  0  0  0  0  0  0  0
    7.1244  -17.4094   22.7037 C   0  0  0  0  0  0  0  0  0  0  0  0
    7.9443  -16.9715   21.8643 O   0  0  0  0  0  0  0  0  0  0  0  0
    5.2890  -21.5259   23.0003 C   0  0  0  0  0  0  0  0  0  0  0  0
    4.5589  -22.3256   23.8546 C   0  0  0  0  0  0  0  0  0  0  0  0
    6.5588  -11.0213   26.5882 C   0  0  0  0  0  0  0  0  0  0  0  0
    6.5518  -12.7602   27.0634 S   0  0  0  0  0  0  0  0  0  0  0  0
    7.7644  -13.6887   26.0236 C   0  0  0  0  0  0  0  0  0  0  0  0
    7.0596  -14.8050   25.3718 C   0  0  0  0  0  0  0  0  0  0  0  0
    7.8174  -15.6507   24.3995 C   0  0  2  0  0  0  0  0  0  0  0  0
    6.9385  -16.7610   23.9386 N   0  0  0  0  0  0  0  0  0  0  0  0
    9.0364  -16.2823   24.8662 C   0  0  0  0  0  0  0  0  0  0  0  0
    9.0336  -17.1341   25.7906 O   0  0  0  0  0  0  0  0  0  0  0  0
   11.6247  -17.4117   22.2662 C   0  0  0  0  0  0  0  0  0  0  0  0
   12.3433  -16.7860   23.4239 C   0  0  1  0  0  0  0  0  0  0  0  0
   12.7858  -15.5099   23.0926 O   0  0  0  0  0  0  0  0  0  0  0  0
   11.4564  -16.7577   24.6613 C   0  0  2  0  0  0  0  0  0  0  0  0
   10.2926  -15.9734   24.2982 N   0  0  0  0  0  0  0  0  0  0  0  0
   12.1322  -16.1025   25.7883 C   0  0  0  0  0  0  0  0  0  0  0  0
   13.2208  -16.6788   26.3862 O   0  0  0  0  0  0  0  0  0  0  0  0
   11.7040  -15.0050   26.2035 O   0  0  0  0  0  0  0  0  0  0  0  0
  2  1  1  0
  3  2  2  0
  4  3  1  0
  5  4  2  0
  5 11  1  0
  6  7  1  0
  6  5  1  0
  7  9  1  0
  7  8  1  6
  9 18  1  0
 10  9  2  0
 11 12  2  0
 12  2  1  0
 14 15  1  0
 14 13  1  0
 16 15  1  0
 17 16  1  1
 17 19  1  0
 18 17  1  0
 19 20  2  0
 22 21  1  6
 22 24  1  0
 23 22  1  0
 24 26  1  0
 25 19  1  0
 24 25  1  6
 26 28  2  0
 26 27  1  0
M  END
$$$$
