YMT.pdb
     RDKit          3D

 28 28  0  0  1  0  0  0  0  0999 V2000
    0.6825  -19.8441   20.1127 O   0  0  0  0  0  0  0  0  0  0  0  0
    1.9035  -19.5758   20.7163 C   0  0  0  0  0  0  0  0  0  0  0  0
    1.9844  -18.6704   21.7669 C   0  0  0  0  0  0  0  0  0  0  0  0
    3.1854  -18.3873   22.3828 C   0  0  0  0  0  0  0  0  0  0  0  0
    4.3651  -18.9847   21.9909 C   0  0  0  0  0  0  0  0  0  0  0  0
    5.6423  -18.6560   22.6780 C   0  0  0  0  0  0  0  0  0  0  0  0
    6.0616  -17.2862   22.1812 C   0  0  2  0  0  0  0  0  0  0  0  0
    6.5694  -17.4865   20.8429 N   0  0  0  0  0  0  0  0  0  0  0  0
    7.1104  -16.6776   23.0074 C   0  0  0  0  0  0  0  0  0  0  0  0
    8.2995  -16.9788   22.7542 O   0  0  0  0  0  0  0  0  0  0  0  0
    4.2788  -19.8898   20.9392 C   0  0  0  0  0  0  0  0  0  0  0  0
    3.0785  -20.1741   20.3221 C   0  0  0  0  0  0  0  0  0  0  0  0
    6.6641  -10.9826   26.0415 C   0  0  0  0  0  0  0  0  0  0  0  0
    7.1844  -12.0023   27.4341 S   0  0  0  0  0  0  0  0  0  0  0  0
    8.0724  -13.4962   26.8070 C   0  0  0  0  0  0  0  0  0  0  0  0
    7.2529  -14.1160   25.7525 C   0  0  0  0  0  0  0  0  0  0  0  0
    7.8224  -15.2772   25.0027 C   0  0  2  0  0  0  0  0  0  0  0  0
    6.7972  -15.7855   24.0496 N   0  0  0  0  0  0  0  0  0  0  0  0
    8.2491  -16.4296   25.7724 C   0  0  0  0  0  0  0  0  0  0  0  0
    7.4429  -17.1098   26.4561 O   0  0  0  0  0  0  0  0  0  0  0  0
   10.3809  -19.2863   24.4438 C   0  0  0  0  0  0  0  0  0  0  0  0
   11.0043  -18.7588   25.7013 C   0  0  1  0  0  0  0  0  0  0  0  0
   12.0883  -17.9402   25.4034 O   0  0  0  0  0  0  0  0  0  0  0  0
    9.9753  -18.0237   26.5495 C   0  0  2  0  0  0  0  0  0  0  0  0
    9.5980  -16.8496   25.7874 N   0  0  0  0  0  0  0  0  0  0  0  0
   10.5496  -17.5892   27.8292 C   0  0  0  0  0  0  0  0  0  0  0  0
   10.7492  -16.2609   28.0949 O   0  0  0  0  0  0  0  0  0  0  0  0
   10.8587  -18.4467   28.6831 O   0  0  0  0  0  0  0  0  0  0  0  0
  2  1  1  0
  3  2  2  0
  4  3  1  0
  5  4  2  0
  5 11  1  0
  6  7  1  0
  6  5  1  0
  7  9  1  0
  7  8  1  6
  9 18  1  0
 10  9  2  0
 11 12  2  0
 12  2  1  0
 14 15  1  0
 14 13  1  0
 16 15  1  0
 17 16  1  1
 17 19  1  0
 18 17  1  0
 19 20  2  0
 22 21  1  6
 22 24  1  0
 23 22  1  0
 24 26  1  0
 25 19  1  0
 24 25  1  6
 26 28  2  0
 26 27  1  0
M  END
$$$$
