YMT.pdb
     RDKit          3D

 28 28  0  0  1  0  0  0  0  0999 V2000
   11.9716  -20.1809   29.7708 O   0  0  0  0  0  0  0  0  0  0  0  0
   11.1707  -20.0896   28.6404 C   0  0  0  0  0  0  0  0  0  0  0  0
   10.1811  -21.0349   28.4019 C   0  0  0  0  0  0  0  0  0  0  0  0
    9.3727  -20.9657   27.2867 C   0  0  0  0  0  0  0  0  0  0  0  0
    9.5027  -19.9593   26.3527 C   0  0  0  0  0  0  0  0  0  0  0  0
    8.6133  -19.9154   25.1616 C   0  0  0  0  0  0  0  0  0  0  0  0
    7.2906  -19.3406   25.6295 C   0  0  2  0  0  0  0  0  0  0  0  0
    6.2829  -20.3085   25.2594 N   0  0  0  0  0  0  0  0  0  0  0  0
    6.9749  -18.0532   25.0000 C   0  0  0  0  0  0  0  0  0  0  0  0
    6.4531  -18.0740   23.8616 O   0  0  0  0  0  0  0  0  0  0  0  0
   10.4945  -19.0159   26.5959 C   0  0  0  0  0  0  0  0  0  0  0  0
   11.3037  -19.0837   27.7107 C   0  0  0  0  0  0  0  0  0  0  0  0
    5.9571  -10.3749   26.7539 C   0  0  0  0  0  0  0  0  0  0  0  0
    6.3398  -12.0758   27.2123 S   0  0  0  0  0  0  0  0  0  0  0  0
    6.5455  -13.0949   25.6850 C   0  0  0  0  0  0  0  0  0  0  0  0
    6.8113  -14.4862   26.0864 C   0  0  0  0  0  0  0  0  0  0  0  0
    6.9791  -15.5138   25.0136 C   0  0  2  0  0  0  0  0  0  0  0  0
    7.2468  -16.8342   25.6481 N   0  0  0  0  0  0  0  0  0  0  0  0
    8.0482  -15.3148   24.0543 C   0  0  0  0  0  0  0  0  0  0  0  0
    9.1839  -15.8320   24.2055 O   0  0  0  0  0  0  0  0  0  0  0  0
    7.9310  -12.7563   20.7784 C   0  0  0  0  0  0  0  0  0  0  0  0
    7.4832  -14.1734   20.5793 C   0  0  1  0  0  0  0  0  0  0  0  0
    7.7373  -14.5878   19.2763 O   0  0  0  0  0  0  0  0  0  0  0  0
    8.1458  -15.0986   21.5909 C   0  0  2  0  0  0  0  0  0  0  0  0
    7.8630  -14.5301   22.8941 N   0  0  0  0  0  0  0  0  0  0  0  0
    9.6014  -15.1419   21.4024 C   0  0  0  0  0  0  0  0  0  0  0  0
   10.4499  -14.6926   22.3785 O   0  0  0  0  0  0  0  0  0  0  0  0
   10.0665  -15.5953   20.3355 O   0  0  0  0  0  0  0  0  0  0  0  0
  2  1  1  0
  3  2  2  0
  4  3  1  0
  5  4  2  0
  5 11  1  0
  6  7  1  0
  6  5  1  0
  7  9  1  0
  7  8  1  6
  9 18  1  0
 10  9  2  0
 11 12  2  0
 12  2  1  0
 14 15  1  0
 14 13  1  0
 16 15  1  0
 17 16  1  1
 17 19  1  0
 18 17  1  0
 19 20  2  0
 22 21  1  6
 22 24  1  0
 23 22  1  0
 24 26  1  0
 25 19  1  0
 24 25  1  1
 26 28  2  0
 26 27  1  0
M  END
$$$$
