YMT.pdb
     RDKit          3D

 28 28  0  0  1  0  0  0  0  0999 V2000
    7.2892  -13.2421   15.4246 O   0  0  0  0  0  0  0  0  0  0  0  0
    7.3580  -13.7968   16.6954 C   0  0  0  0  0  0  0  0  0  0  0  0
    7.5257  -12.9836   17.8092 C   0  0  0  0  0  0  0  0  0  0  0  0
    7.5967  -13.5106   19.0817 C   0  0  0  0  0  0  0  0  0  0  0  0
    7.5057  -14.8668   19.3158 C   0  0  0  0  0  0  0  0  0  0  0  0
    7.5860  -15.4005   20.7015 C   0  0  0  0  0  0  0  0  0  0  0  0
    8.9773  -15.0775   21.2104 C   0  0  2  0  0  0  0  0  0  0  0  0
    9.8855  -15.8786   20.4214 N   0  0  0  0  0  0  0  0  0  0  0  0
    9.1549  -15.4063   22.6294 C   0  0  0  0  0  0  0  0  0  0  0  0
   10.1160  -16.1469   22.9398 O   0  0  0  0  0  0  0  0  0  0  0  0
    7.3381  -15.6762   18.1981 C   0  0  0  0  0  0  0  0  0  0  0  0
    7.2669  -15.1507   16.9249 C   0  0  0  0  0  0  0  0  0  0  0  0
    6.3958  -11.1653   26.6721 C   0  0  0  0  0  0  0  0  0  0  0  0
    6.4522  -12.6019   27.7596 S   0  0  0  0  0  0  0  0  0  0  0  0
    7.7861  -13.7497   27.1967 C   0  0  0  0  0  0  0  0  0  0  0  0
    7.7056  -13.8738   25.7319 C   0  0  0  0  0  0  0  0  0  0  0  0
    8.6698  -14.7857   25.0437 C   0  0  2  0  0  0  0  0  0  0  0  0
    8.2787  -14.9095   23.6121 N   0  0  0  0  0  0  0  0  0  0  0  0
    8.7807  -16.1437   25.5396 C   0  0  0  0  0  0  0  0  0  0  0  0
    7.8247  -16.9573   25.4736 O   0  0  0  0  0  0  0  0  0  0  0  0
   11.6178  -19.9187   26.6308 C   0  0  0  0  0  0  0  0  0  0  0  0
   11.3681  -18.5446   26.0851 C   0  0  1  0  0  0  0  0  0  0  0  0
   11.4056  -18.5565   24.6950 O   0  0  0  0  0  0  0  0  0  0  0  0
   10.0450  -17.9905   26.5959 C   0  0  2  0  0  0  0  0  0  0  0  0
    9.9765  -16.6230   26.1196 N   0  0  0  0  0  0  0  0  0  0  0  0
   10.0009  -17.9800   28.0636 C   0  0  0  0  0  0  0  0  0  0  0  0
    9.6063  -19.0893   28.7626 O   0  0  0  0  0  0  0  0  0  0  0  0
   10.3283  -16.9428   28.6777 O   0  0  0  0  0  0  0  0  0  0  0  0
  2  1  1  0
  3  2  2  0
  4  3  1  0
  5  4  2  0
  5 11  1  0
  6  7  1  0
  6  5  1  0
  7  9  1  0
  7  8  1  6
  9 18  1  0
 10  9  2  0
 11 12  2  0
 12  2  1  0
 14 15  1  0
 14 13  1  0
 16 15  1  0
 17 16  1  1
 17 19  1  0
 18 17  1  0
 19 20  2  0
 22 21  1  6
 22 24  1  0
 23 22  1  0
 24 26  1  0
 25 19  1  0
 24 25  1  1
 26 28  2  0
 26 27  1  0
M  END
$$$$
