YMT.pdb
     RDKit          3D

 28 28  0  0  1  0  0  0  0  0999 V2000
   -0.4346  -20.9478   22.8488 O   0  0  0  0  0  0  0  0  0  0  0  0
    0.8383  -20.4289   23.0429 C   0  0  0  0  0  0  0  0  0  0  0  0
    1.9329  -21.2766   23.1580 C   0  0  0  0  0  0  0  0  0  0  0  0
    3.2071  -20.7854   23.3509 C   0  0  0  0  0  0  0  0  0  0  0  0
    3.4620  -19.4329   23.4397 C   0  0  0  0  0  0  0  0  0  0  0  0
    4.8489  -18.9383   23.6477 C   0  0  0  0  0  0  0  0  0  0  0  0
    5.0262  -17.7458   22.7282 C   0  0  2  0  0  0  0  0  0  0  0  0
    4.9947  -18.2726   21.3826 N   0  0  0  0  0  0  0  0  0  0  0  0
    6.2988  -17.0470   22.9413 C   0  0  0  0  0  0  0  0  0  0  0  0
    7.2701  -17.3733   22.2211 O   0  0  0  0  0  0  0  0  0  0  0  0
    2.3634  -18.5889   23.3240 C   0  0  0  0  0  0  0  0  0  0  0  0
    1.0885  -19.0785   23.1310 C   0  0  0  0  0  0  0  0  0  0  0  0
    8.1088  -12.2257   27.8296 C   0  0  0  0  0  0  0  0  0  0  0  0
    6.5357  -12.5681   27.0186 S   0  0  0  0  0  0  0  0  0  0  0  0
    6.6303  -14.1971   26.1519 C   0  0  0  0  0  0  0  0  0  0  0  0
    7.3359  -14.0040   24.8742 C   0  0  0  0  0  0  0  0  0  0  0  0
    7.6565  -15.2106   24.0520 C   0  0  2  0  0  0  0  0  0  0  0  0
    6.4293  -16.0439   23.9194 N   0  0  0  0  0  0  0  0  0  0  0  0
    8.6870  -16.1042   24.5441 C   0  0  0  0  0  0  0  0  0  0  0  0
    8.4631  -16.9427   25.4535 O   0  0  0  0  0  0  0  0  0  0  0  0
   10.8419  -18.0487   22.1258 C   0  0  0  0  0  0  0  0  0  0  0  0
   11.7387  -17.4494   23.1674 C   0  0  1  0  0  0  0  0  0  0  0  0
   12.4032  -16.3382   22.6597 O   0  0  0  0  0  0  0  0  0  0  0  0
   10.9515  -17.0951   24.4217 C   0  0  2  0  0  0  0  0  0  0  0  0
    9.9984  -16.0796   24.0191 N   0  0  0  0  0  0  0  0  0  0  0  0
   11.8250  -16.5348   25.4605 C   0  0  0  0  0  0  0  0  0  0  0  0
   12.8093  -17.2934   26.0353 O   0  0  0  0  0  0  0  0  0  0  0  0
   11.6636  -15.3499   25.8214 O   0  0  0  0  0  0  0  0  0  0  0  0
  2  1  1  0
  3  2  2  0
  4  3  1  0
  5  4  2  0
  5 11  1  0
  6  7  1  0
  6  5  1  0
  7  9  1  0
  7  8  1  6
  9 18  1  0
 10  9  2  0
 11 12  2  0
 12  2  1  0
 14 15  1  0
 14 13  1  0
 16 15  1  0
 17 16  1  1
 17 19  1  0
 18 17  1  0
 19 20  2  0
 22 21  1  6
 22 24  1  0
 23 22  1  0
 24 26  1  0
 25 19  1  0
 24 25  1  6
 26 28  2  0
 26 27  1  0
M  END
$$$$
