YMT.pdb
     RDKit          3D

 28 28  0  0  1  0  0  0  0  0999 V2000
   11.2136  -14.5086   30.1603 O   0  0  0  0  0  0  0  0  0  0  0  0
   10.3762  -14.6632   29.0638 C   0  0  0  0  0  0  0  0  0  0  0  0
    9.8945  -15.9197   28.7189 C   0  0  0  0  0  0  0  0  0  0  0  0
    9.0614  -16.0990   27.6346 C   0  0  0  0  0  0  0  0  0  0  0  0
    8.6635  -15.0456   26.8382 C   0  0  0  0  0  0  0  0  0  0  0  0
    7.7638  -15.2753   25.6766 C   0  0  0  0  0  0  0  0  0  0  0  0
    8.5176  -16.1736   24.7155 C   0  0  2  0  0  0  0  0  0  0  0  0
    9.8800  -15.6911   24.7054 N   0  0  0  0  0  0  0  0  0  0  0  0
    7.9802  -16.1252   23.3510 C   0  0  0  0  0  0  0  0  0  0  0  0
    6.7916  -16.4811   23.1802 O   0  0  0  0  0  0  0  0  0  0  0  0
    9.1484  -13.7903   27.1875 C   0  0  0  0  0  0  0  0  0  0  0  0
    9.9816  -13.6094   28.2716 C   0  0  0  0  0  0  0  0  0  0  0  0
    7.8263  -11.7060   19.0307 C   0  0  0  0  0  0  0  0  0  0  0  0
    6.8920  -11.7895   20.5701 S   0  0  0  0  0  0  0  0  0  0  0  0
    7.1922  -13.4196   21.3862 C   0  0  0  0  0  0  0  0  0  0  0  0
    7.9874  -14.2575   20.4734 C   0  0  0  0  0  0  0  0  0  0  0  0
    8.2608  -15.6733   20.8678 C   0  0  2  0  0  0  0  0  0  0  0  0
    8.7683  -15.6948   22.2677 N   0  0  0  0  0  0  0  0  0  0  0  0
    9.2328  -16.4126   20.0860 C   0  0  0  0  0  0  0  0  0  0  0  0
    8.9144  -17.0309   19.0389 O   0  0  0  0  0  0  0  0  0  0  0  0
   12.5660  -14.9323   19.1230 C   0  0  0  0  0  0  0  0  0  0  0  0
   12.8175  -16.3133   19.6500 C   0  0  1  0  0  0  0  0  0  0  0  0
   13.3396  -16.2576   20.9378 O   0  0  0  0  0  0  0  0  0  0  0  0
   11.5461  -17.1501   19.6067 C   0  0  2  0  0  0  0  0  0  0  0  0
   10.5935  -16.4699   20.4620 N   0  0  0  0  0  0  0  0  0  0  0  0
   11.7758  -18.4994   20.1384 C   0  0  0  0  0  0  0  0  0  0  0  0
   12.7057  -19.3292   19.5713 O   0  0  0  0  0  0  0  0  0  0  0  0
   11.1113  -18.8907   21.1209 O   0  0  0  0  0  0  0  0  0  0  0  0
  2  1  1  0
  3  2  2  0
  4  3  1  0
  5  4  2  0
  5 11  1  0
  6  7  1  0
  6  5  1  0
  7  9  1  0
  7  8  1  6
  9 18  1  0
 10  9  2  0
 11 12  2  0
 12  2  1  0
 14 15  1  0
 14 13  1  0
 16 15  1  0
 17 16  1  6
 17 19  1  0
 18 17  1  0
 19 20  2  0
 22 21  1  1
 22 24  1  0
 23 22  1  0
 24 26  1  0
 25 19  1  0
 24 25  1  1
 26 28  2  0
 26 27  1  0
M  END
$$$$
