YMT.pdb
     RDKit          3D

 28 28  0  0  1  0  0  0  0  0999 V2000
    6.9714  -13.4686   15.3536 O   0  0  0  0  0  0  0  0  0  0  0  0
    7.2387  -14.0220   16.5985 C   0  0  0  0  0  0  0  0  0  0  0  0
    7.2775  -15.4011   16.7609 C   0  0  0  0  0  0  0  0  0  0  0  0
    7.5411  -15.9747   17.9871 C   0  0  0  0  0  0  0  0  0  0  0  0
    7.7791  -15.2138   19.1125 C   0  0  0  0  0  0  0  0  0  0  0  0
    8.0605  -15.8661   20.4190 C   0  0  0  0  0  0  0  0  0  0  0  0
    9.2446  -15.1357   21.0219 C   0  0  2  0  0  0  0  0  0  0  0  0
   10.4230  -15.7604   20.4649 N   0  0  0  0  0  0  0  0  0  0  0  0
    9.2918  -15.2384   22.4849 C   0  0  0  0  0  0  0  0  0  0  0  0
   10.2198  -15.9095   22.9920 O   0  0  0  0  0  0  0  0  0  0  0  0
    7.7390  -13.8344   18.9447 C   0  0  0  0  0  0  0  0  0  0  0  0
    7.4756  -13.2592   17.7191 C   0  0  0  0  0  0  0  0  0  0  0  0
    6.8063  -10.5201   26.8102 C   0  0  0  0  0  0  0  0  0  0  0  0
    6.0662  -12.1332   27.1259 S   0  0  0  0  0  0  0  0  0  0  0  0
    7.3037  -13.4593   26.7738 C   0  0  0  0  0  0  0  0  0  0  0  0
    7.4259  -13.6059   25.3140 C   0  0  0  0  0  0  0  0  0  0  0  0
    8.4350  -14.5713   24.7805 C   0  0  2  0  0  0  0  0  0  0  0  0
    8.3305  -14.6068   23.2954 N   0  0  0  0  0  0  0  0  0  0  0  0
    8.3388  -15.9516   25.2143 C   0  0  0  0  0  0  0  0  0  0  0  0
    7.3220  -16.6535   24.9826 O   0  0  0  0  0  0  0  0  0  0  0  0
    9.7173  -18.9320   24.2003 C   0  0  0  0  0  0  0  0  0  0  0  0
   10.1721  -18.8008   25.6230 C   0  0  1  0  0  0  0  0  0  0  0  0
   11.4695  -18.3029   25.6776 O   0  0  0  0  0  0  0  0  0  0  0  0
    9.2128  -17.9278   26.4206 C   0  0  2  0  0  0  0  0  0  0  0  0
    9.3907  -16.5799   25.9177 N   0  0  0  0  0  0  0  0  0  0  0  0
    9.5407  -17.9429   27.8519 C   0  0  0  0  0  0  0  0  0  0  0  0
    9.4710  -19.1025   28.5765 O   0  0  0  0  0  0  0  0  0  0  0  0
    9.8868  -16.8809   28.4110 O   0  0  0  0  0  0  0  0  0  0  0  0
  2  1  1  0
  3  2  2  0
  4  3  1  0
  5  4  2  0
  5 11  1  0
  6  7  1  0
  6  5  1  0
  7  9  1  0
  7  8  1  6
  9 18  1  0
 10  9  2  0
 11 12  2  0
 12  2  1  0
 14 15  1  0
 14 13  1  0
 16 15  1  0
 17 16  1  1
 17 19  1  0
 18 17  1  0
 19 20  2  0
 22 21  1  6
 22 24  1  0
 23 22  1  0
 24 26  1  0
 25 19  1  0
 24 25  1  6
 26 28  2  0
 26 27  1  0
M  END
$$$$
