YMT.pdb
     RDKit          3D

 28 28  0  0  1  0  0  0  0  0999 V2000
    4.5560  -19.8551   16.7743 O   0  0  0  0  0  0  0  0  0  0  0  0
    5.3905  -19.4355   17.8014 C   0  0  0  0  0  0  0  0  0  0  0  0
    6.5026  -18.6496   17.5269 C   0  0  0  0  0  0  0  0  0  0  0  0
    7.3463  -18.2201   18.5297 C   0  0  0  0  0  0  0  0  0  0  0  0
    7.1326  -18.5463   19.8526 C   0  0  0  0  0  0  0  0  0  0  0  0
    8.0629  -18.0654   20.9084 C   0  0  0  0  0  0  0  0  0  0  0  0
    7.9503  -16.5535   20.9295 C   0  0  2  0  0  0  0  0  0  0  0  0
    8.6863  -16.0835   19.7777 N   0  0  0  0  0  0  0  0  0  0  0  0
    8.5224  -15.9570   22.1419 C   0  0  0  0  0  0  0  0  0  0  0  0
    9.7700  -15.8788   22.2196 O   0  0  0  0  0  0  0  0  0  0  0  0
    6.0185  -19.3330   20.1220 C   0  0  0  0  0  0  0  0  0  0  0  0
    5.1737  -19.7633   19.1203 C   0  0  0  0  0  0  0  0  0  0  0  0
    6.7651  -10.6596   26.4149 C   0  0  0  0  0  0  0  0  0  0  0  0
    6.2198  -12.3138   26.8794 S   0  0  0  0  0  0  0  0  0  0  0  0
    7.5308  -13.5406   26.4436 C   0  0  0  0  0  0  0  0  0  0  0  0
    7.2759  -14.0286   25.0781 C   0  0  0  0  0  0  0  0  0  0  0  0
    8.2561  -14.9800   24.4708 C   0  0  2  0  0  0  0  0  0  0  0  0
    7.7026  -15.4872   23.1847 N   0  0  0  0  0  0  0  0  0  0  0  0
    8.6118  -16.1583   25.2375 C   0  0  0  0  0  0  0  0  0  0  0  0
    7.7660  -17.0390   25.5364 O   0  0  0  0  0  0  0  0  0  0  0  0
   11.0881  -18.6242   24.3111 C   0  0  0  0  0  0  0  0  0  0  0  0
   11.4518  -18.2017   25.7030 C   0  0  1  0  0  0  0  0  0  0  0  0
   12.5282  -17.3214   25.6811 O   0  0  0  0  0  0  0  0  0  0  0  0
   10.2530  -17.5888   26.4142 C   0  0  2  0  0  0  0  0  0  0  0  0
    9.9341  -16.3778   25.6838 N   0  0  0  0  0  0  0  0  0  0  0  0
   10.5798  -17.2299   27.8001 C   0  0  0  0  0  0  0  0  0  0  0  0
   10.6031  -15.9206   28.2000 O   0  0  0  0  0  0  0  0  0  0  0  0
   10.8396  -18.1347   28.6210 O   0  0  0  0  0  0  0  0  0  0  0  0
  2  1  1  0
  3  2  2  0
  4  3  1  0
  5  4  2  0
  5 11  1  0
  6  7  1  0
  6  5  1  0
  7  9  1  0
  7  8  1  6
  9 18  1  0
 10  9  2  0
 11 12  2  0
 12  2  1  0
 14 15  1  0
 14 13  1  0
 16 15  1  0
 17 16  1  1
 17 19  1  0
 18 17  1  0
 19 20  2  0
 22 21  1  6
 22 24  1  0
 23 22  1  0
 24 26  1  0
 25 19  1  0
 24 25  1  6
 26 28  2  0
 26 27  1  0
M  END
$$$$
