YMT.pdb
     RDKit          3D

 28 28  0  0  1  0  0  0  0  0999 V2000
    8.2808  -14.4913   14.8390 O   0  0  0  0  0  0  0  0  0  0  0  0
    8.3992  -14.1942   16.1900 C   0  0  0  0  0  0  0  0  0  0  0  0
    9.2002  -14.9750   17.0137 C   0  0  0  0  0  0  0  0  0  0  0  0
    9.3342  -14.7001   18.3585 C   0  0  0  0  0  0  0  0  0  0  0  0
    8.6833  -13.6405   18.9551 C   0  0  0  0  0  0  0  0  0  0  0  0
    8.8510  -13.3731   20.4083 C   0  0  0  0  0  0  0  0  0  0  0  0
    8.6906  -14.7048   21.1153 C   0  0  2  0  0  0  0  0  0  0  0  0
    7.3211  -15.1104   20.8940 N   0  0  0  0  0  0  0  0  0  0  0  0
    8.9386  -14.6164   22.5588 C   0  0  0  0  0  0  0  0  0  0  0  0
    9.9227  -13.9422   22.9404 O   0  0  0  0  0  0  0  0  0  0  0  0
    7.8829  -12.8624   18.1265 C   0  0  0  0  0  0  0  0  0  0  0  0
    7.7479  -13.1359   16.7814 C   0  0  0  0  0  0  0  0  0  0  0  0
    6.7178  -11.1223   26.8253 C   0  0  0  0  0  0  0  0  0  0  0  0
    6.1241  -12.7154   27.4246 S   0  0  0  0  0  0  0  0  0  0  0  0
    7.3538  -14.0292   27.0061 C   0  0  0  0  0  0  0  0  0  0  0  0
    7.3607  -14.2115   25.5451 C   0  0  0  0  0  0  0  0  0  0  0  0
    8.3289  -15.1871   24.9571 C   0  0  2  0  0  0  0  0  0  0  0  0
    8.1030  -15.2644   23.4871 N   0  0  0  0  0  0  0  0  0  0  0  0
    8.2777  -16.5551   25.4350 C   0  0  0  0  0  0  0  0  0  0  0  0
    7.2217  -17.2358   25.3951 O   0  0  0  0  0  0  0  0  0  0  0  0
    9.6189  -19.5194   24.2297 C   0  0  0  0  0  0  0  0  0  0  0  0
   10.1892  -19.4114   25.6122 C   0  0  1  0  0  0  0  0  0  0  0  0
   11.4918  -18.9264   25.5672 O   0  0  0  0  0  0  0  0  0  0  0  0
    9.3071  -18.5400   26.4960 C   0  0  2  0  0  0  0  0  0  0  0  0
    9.4196  -17.1950   25.9668 N   0  0  0  0  0  0  0  0  0  0  0  0
    9.7785  -18.5391   27.8867 C   0  0  0  0  0  0  0  0  0  0  0  0
    9.7473  -19.6821   28.6399 O   0  0  0  0  0  0  0  0  0  0  0  0
   10.2125  -17.4789   28.3845 O   0  0  0  0  0  0  0  0  0  0  0  0
  2  1  1  0
  3  2  2  0
  4  3  1  0
  5  4  2  0
  5 11  1  0
  6  7  1  0
  6  5  1  0
  7  9  1  0
  7  8  1  1
  9 18  1  0
 10  9  2  0
 11 12  2  0
 12  2  1  0
 14 15  1  0
 14 13  1  0
 16 15  1  0
 17 16  1  1
 17 19  1  0
 18 17  1  0
 19 20  2  0
 22 21  1  6
 22 24  1  0
 23 22  1  0
 24 26  1  0
 25 19  1  0
 24 25  1  6
 26 28  2  0
 26 27  1  0
M  END
$$$$
