YMT.pdb
     RDKit          3D

 28 28  0  0  1  0  0  0  0  0999 V2000
    4.1688  -23.0309   15.6244 O   0  0  0  0  0  0  0  0  0  0  0  0
    5.2548  -22.3719   16.1846 C   0  0  0  0  0  0  0  0  0  0  0  0
    6.4390  -22.2361   15.4711 C   0  0  0  0  0  0  0  0  0  0  0  0
    7.5314  -21.5858   16.0056 C   0  0  0  0  0  0  0  0  0  0  0  0
    7.5072  -21.0381   17.2712 C   0  0  0  0  0  0  0  0  0  0  0  0
    8.7038  -20.3433   17.8160 C   0  0  0  0  0  0  0  0  0  0  0  0
    8.5739  -18.8845   17.4236 C   0  0  2  0  0  0  0  0  0  0  0  0
    9.2175  -18.7601   16.1354 N   0  0  0  0  0  0  0  0  0  0  0  0
    9.2258  -17.9786   18.3763 C   0  0  0  0  0  0  0  0  0  0  0  0
   10.4744  -17.8899   18.3346 O   0  0  0  0  0  0  0  0  0  0  0  0
    6.3200  -21.1769   17.9811 C   0  0  0  0  0  0  0  0  0  0  0  0
    5.2266  -21.8269   17.4479 C   0  0  0  0  0  0  0  0  0  0  0  0
    7.1822  -11.6913   20.5356 C   0  0  0  0  0  0  0  0  0  0  0  0
    7.0465  -13.0106   21.7564 S   0  0  0  0  0  0  0  0  0  0  0  0
    8.4677  -14.1757   21.5661 C   0  0  0  0  0  0  0  0  0  0  0  0
    8.1162  -15.1752   20.5437 C   0  0  0  0  0  0  0  0  0  0  0  0
    9.1073  -16.2505   20.2334 C   0  0  2  0  0  0  0  0  0  0  0  0
    8.4791  -17.2327   19.3069 N   0  0  0  0  0  0  0  0  0  0  0  0
    9.6220  -17.0300   21.3425 C   0  0  0  0  0  0  0  0  0  0  0  0
    9.0292  -18.0529   21.7696 O   0  0  0  0  0  0  0  0  0  0  0  0
   13.4640  -16.3133   22.5666 C   0  0  0  0  0  0  0  0  0  0  0  0
   12.8422  -17.6635   22.7633 C   0  0  1  0  0  0  0  0  0  0  0  0
   13.4867  -18.3545   23.7836 O   0  0  0  0  0  0  0  0  0  0  0  0
   11.3500  -17.5382   23.0396 C   0  0  2  0  0  0  0  0  0  0  0  0
   10.8237  -16.6791   21.9973 N   0  0  0  0  0  0  0  0  0  0  0  0
   11.0987  -16.9067   24.3412 C   0  0  0  0  0  0  0  0  0  0  0  0
   11.3910  -17.5610   25.5078 O   0  0  0  0  0  0  0  0  0  0  0  0
   10.6112  -15.7573   24.3791 O   0  0  0  0  0  0  0  0  0  0  0  0
  2  1  1  0
  3  2  2  0
  4  3  1  0
  5  4  2  0
  5 11  1  0
  6  7  1  0
  6  5  1  0
  7  9  1  0
  7  8  1  6
  9 18  1  0
 10  9  2  0
 11 12  2  0
 12  2  1  0
 14 15  1  0
 14 13  1  0
 16 15  1  0
 17 16  1  1
 17 19  1  0
 18 17  1  0
 19 20  2  0
 22 21  1  1
 22 24  1  0
 23 22  1  0
 24 26  1  0
 25 19  1  0
 24 25  1  6
 26 28  2  0
 26 27  1  0
M  END
$$$$
