YMT.pdb
     RDKit          3D

 28 28  0  0  1  0  0  0  0  0999 V2000
    7.7064  -13.8222   15.1840 O   0  0  0  0  0  0  0  0  0  0  0  0
    8.1286  -13.8113   16.5065 C   0  0  0  0  0  0  0  0  0  0  0  0
    7.3334  -13.2427   17.4935 C   0  0  0  0  0  0  0  0  0  0  0  0
    7.7305  -13.2198   18.8140 C   0  0  0  0  0  0  0  0  0  0  0  0
    8.9328  -13.7574   19.2237 C   0  0  0  0  0  0  0  0  0  0  0  0
    9.3292  -13.7155   20.6565 C   0  0  0  0  0  0  0  0  0  0  0  0
    8.9295  -15.0497   21.2558 C   0  0  2  0  0  0  0  0  0  0  0  0
    7.4934  -15.1344   21.1162 N   0  0  0  0  0  0  0  0  0  0  0  0
    9.2821  -15.1643   22.6756 C   0  0  0  0  0  0  0  0  0  0  0  0
   10.4965  -15.2542   22.9686 O   0  0  0  0  0  0  0  0  0  0  0  0
    9.7249  -14.3250   18.2323 C   0  0  0  0  0  0  0  0  0  0  0  0
    9.3291  -14.3488   16.9112 C   0  0  0  0  0  0  0  0  0  0  0  0
    5.8325  -11.7474   26.0758 C   0  0  0  0  0  0  0  0  0  0  0  0
    6.8150  -12.1842   27.5226 S   0  0  0  0  0  0  0  0  0  0  0  0
    7.8436  -13.6715   27.1437 C   0  0  0  0  0  0  0  0  0  0  0  0
    7.7368  -13.9563   25.7031 C   0  0  0  0  0  0  0  0  0  0  0  0
    8.6189  -15.0143   25.1224 C   0  0  2  0  0  0  0  0  0  0  0  0
    8.2943  -15.1735   23.6777 N   0  0  0  0  0  0  0  0  0  0  0  0
    8.5365  -16.3450   25.6926 C   0  0  0  0  0  0  0  0  0  0  0  0
    7.4461  -16.9634   25.7860 O   0  0  0  0  0  0  0  0  0  0  0  0
    9.9203  -19.5039   24.6848 C   0  0  0  0  0  0  0  0  0  0  0  0
   10.4437  -19.2629   26.0690 C   0  0  1  0  0  0  0  0  0  0  0  0
   11.7530  -18.7964   26.0222 O   0  0  0  0  0  0  0  0  0  0  0  0
    9.5425  -18.2996   26.8295 C   0  0  2  0  0  0  0  0  0  0  0  0
    9.6844  -17.0171   26.1686 N   0  0  0  0  0  0  0  0  0  0  0  0
    9.9698  -18.1582   28.2272 C   0  0  0  0  0  0  0  0  0  0  0  0
    9.9008  -19.2163   29.0934 O   0  0  0  0  0  0  0  0  0  0  0  0
   10.4007  -17.0559   28.6262 O   0  0  0  0  0  0  0  0  0  0  0  0
  2  1  1  0
  3  2  2  0
  4  3  1  0
  5  4  2  0
  5 11  1  0
  6  7  1  0
  6  5  1  0
  7  9  1  0
  7  8  1  1
  9 18  1  0
 10  9  2  0
 11 12  2  0
 12  2  1  0
 14 15  1  0
 14 13  1  0
 16 15  1  0
 17 16  1  1
 17 19  1  0
 18 17  1  0
 19 20  2  0
 22 21  1  6
 22 24  1  0
 23 22  1  0
 24 26  1  0
 25 19  1  0
 24 25  1  6
 26 28  2  0
 26 27  1  0
M  END
$$$$
