LYR.pdb
     RDKit          3D

 32 32  0  0  1  0  0  0  0  0999 V2000
    8.9509  -15.1338   16.6280 C   0  0  0  0  0  0  0  0  0  0  0  0
    8.0522  -14.3149   17.5279 C   0  0  2  0  0  0  0  0  0  0  0  0
    7.5641  -13.0711   16.8234 C   0  0  0  0  0  0  0  0  0  0  0  0
    8.8498  -13.8959   18.7384 C   0  0  0  0  0  0  0  0  0  0  0  0
    9.1413  -15.1341   19.5728 C   0  0  2  0  0  0  0  0  0  0  0  0
    8.1652  -16.1620   19.3643 N   0  0  0  0  0  0  0  0  0  0  0  0
    9.2402  -14.8001   21.0109 C   0  0  0  0  0  0  0  0  0  0  0  0
   10.1781  -14.1299   21.5003 O   0  0  0  0  0  0  0  0  0  0  0  0
    6.4941  -13.2127   29.2279 O   0  0  0  0  0  0  0  0  0  0  0  0
    6.5628  -13.5344   27.8716 C   0  0  0  0  0  0  0  0  0  0  0  0
    6.6043  -12.5576   26.8981 C   0  0  0  0  0  0  0  0  0  0  0  0
    6.6730  -12.9109   25.5449 C   0  0  0  0  0  0  0  0  0  0  0  0
    6.7007  -14.2304   25.1530 C   0  0  0  0  0  0  0  0  0  0  0  0
    6.7673  -14.6351   23.7391 C   0  0  0  0  0  0  0  0  0  0  0  0
    8.1622  -14.8584   23.2827 C   0  0  2  0  0  0  0  0  0  0  0  0
    8.2317  -15.2546   21.8865 N   0  0  0  0  0  0  0  0  0  0  0  0
    8.8595  -15.8827   24.0666 C   0  0  0  0  0  0  0  0  0  0  0  0
    8.5651  -17.0864   23.9256 O   0  0  0  0  0  0  0  0  0  0  0  0
    6.6579  -15.1892   26.1531 C   0  0  0  0  0  0  0  0  0  0  0  0
    6.5900  -14.8429   27.4922 C   0  0  0  0  0  0  0  0  0  0  0  0
   16.7155  -15.6537   22.5604 N   0  0  0  0  0  0  0  0  0  0  0  0
   16.1388  -16.9483   22.4993 C   0  0  0  0  0  0  0  0  0  0  0  0
   16.5973  -17.8631   21.7158 N   0  0  0  0  0  0  0  0  0  0  0  0
   15.0380  -17.2244   23.3222 N   0  0  0  0  0  0  0  0  0  0  0  0
   14.2822  -16.1291   23.9951 C   0  0  0  0  0  0  0  0  0  0  0  0
   13.1756  -16.7738   24.7171 C   0  0  0  0  0  0  0  0  0  0  0  0
   12.1330  -16.0522   25.4123 C   0  0  0  0  0  0  0  0  0  0  0  0
   10.7652  -16.5627   25.6110 C   0  0  2  0  0  0  0  0  0  0  0  0
    9.8617  -15.5156   24.9796 N   0  0  0  0  0  0  0  0  0  0  0  0
   10.3221  -16.6694   27.0082 C   0  0  0  0  0  0  0  0  0  0  0  0
    9.5912  -15.6986   27.4681 O   0  0  0  0  0  0  0  0  0  0  0  0
   10.5695  -17.6702   27.9142 O   0  0  0  0  0  0  0  0  0  0  0  0
  2  3  1  6
  2  1  1  0
  4  2  1  0
  5  4  1  0
  5  6  1  1
  7  5  1  0
  8  7  2  0
  9 10  1  0
 10 11  2  0
 10 20  1  0
 11 12  1  0
 12 13  2  0
 13 14  1  0
 15 14  1  1
 15 16  1  0
 16  7  1  0
 17 15  1  0
 17 18  2  0
 19 13  1  0
 20 19  2  0
 21 22  1  0
 22 24  1  0
 23 22  2  0
 24 25  1  0
 25 26  1  0
 26 27  1  0
 28 29  1  0
 28 27  1  1
 29 17  1  0
 30 28  1  0
 31 30  2  0
 32 30  1  0
M  END
$$$$
