LYR.pdb
     RDKit          3D

 32 32  0  0  1  0  0  0  0  0999 V2000
    7.3900  -13.8729   17.8368 C   0  0  0  0  0  0  0  0  0  0  0  0
    7.3321  -13.3857   19.2677 C   0  0  2  0  0  0  0  0  0  0  0  0
    7.0882  -11.8962   19.3259 C   0  0  0  0  0  0  0  0  0  0  0  0
    8.6607  -13.6777   19.9209 C   0  0  0  0  0  0  0  0  0  0  0  0
    8.5432  -14.9902   20.6810 C   0  0  2  0  0  0  0  0  0  0  0  0
    7.1771  -15.3477   20.9239 N   0  0  0  0  0  0  0  0  0  0  0  0
    9.2983  -14.9425   21.9526 C   0  0  0  0  0  0  0  0  0  0  0  0
   10.5122  -14.6426   22.0230 O   0  0  0  0  0  0  0  0  0  0  0  0
   10.8271  -14.8848   30.6465 O   0  0  0  0  0  0  0  0  0  0  0  0
   10.2215  -14.8496   29.3896 C   0  0  0  0  0  0  0  0  0  0  0  0
   10.1613  -13.6875   28.6483 C   0  0  0  0  0  0  0  0  0  0  0  0
    9.5471  -13.6829   27.3901 C   0  0  0  0  0  0  0  0  0  0  0  0
    8.9916  -14.8272   26.8636 C   0  0  0  0  0  0  0  0  0  0  0  0
    8.3340  -14.8547   25.5467 C   0  0  0  0  0  0  0  0  0  0  0  0
    9.2766  -15.2042   24.4541 C   0  0  2  0  0  0  0  0  0  0  0  0
    8.6271  -15.2487   23.1551 N   0  0  0  0  0  0  0  0  0  0  0  0
    9.9336  -16.4982   24.6628 C   0  0  0  0  0  0  0  0  0  0  0  0
    9.2710  -17.5532   24.6029 O   0  0  0  0  0  0  0  0  0  0  0  0
    9.0673  -15.9790   27.6309 C   0  0  0  0  0  0  0  0  0  0  0  0
    9.6742  -15.9868   28.8757 C   0  0  0  0  0  0  0  0  0  0  0  0
   15.0280  -14.4836   20.0435 N   0  0  0  0  0  0  0  0  0  0  0  0
   13.8594  -15.2002   19.6783 C   0  0  0  0  0  0  0  0  0  0  0  0
   13.2696  -15.0127   18.5478 N   0  0  0  0  0  0  0  0  0  0  0  0
   13.3438  -16.1364   20.5853 N   0  0  0  0  0  0  0  0  0  0  0  0
   13.8897  -16.2545   21.9679 C   0  0  0  0  0  0  0  0  0  0  0  0
   13.1287  -17.3289   22.6223 C   0  0  0  0  0  0  0  0  0  0  0  0
   13.2200  -17.6439   24.0305 C   0  0  0  0  0  0  0  0  0  0  0  0
   12.0560  -17.8831   24.9016 C   0  0  2  0  0  0  0  0  0  0  0  0
   11.3110  -16.5581   24.9310 N   0  0  0  0  0  0  0  0  0  0  0  0
   12.3637  -18.1892   26.3058 C   0  0  0  0  0  0  0  0  0  0  0  0
   12.6206  -17.1808   27.0839 O   0  0  0  0  0  0  0  0  0  0  0  0
   12.4144  -19.4116   26.9277 O   0  0  0  0  0  0  0  0  0  0  0  0
  2  3  1  6
  2  1  1  0
  4  2  1  0
  5  4  1  0
  5  6  1  1
  7  5  1  0
  8  7  2  0
  9 10  1  0
 10 11  2  0
 10 20  1  0
 11 12  1  0
 12 13  2  0
 13 14  1  0
 15 14  1  1
 15 16  1  0
 16  7  1  0
 17 15  1  0
 17 18  2  0
 19 13  1  0
 20 19  2  0
 21 22  1  0
 22 24  1  0
 23 22  2  0
 24 25  1  0
 25 26  1  0
 26 27  1  0
 28 29  1  0
 28 27  1  6
 29 17  1  0
 30 28  1  0
 31 30  2  0
 32 30  1  0
M  END
$$$$
