LYR.pdb
     RDKit          3D

 32 32  0  0  1  0  0  0  0  0999 V2000
    7.1824  -14.2086   18.3720 C   0  0  0  0  0  0  0  0  0  0  0  0
    7.3880  -13.5998   19.7414 C   0  0  2  0  0  0  0  0  0  0  0  0
    7.1709  -12.1053   19.7107 C   0  0  0  0  0  0  0  0  0  0  0  0
    8.8104  -13.8668   20.1689 C   0  0  0  0  0  0  0  0  0  0  0  0
    8.8628  -15.2342   20.8336 C   0  0  2  0  0  0  0  0  0  0  0  0
    7.5534  -15.7723   21.0547 N   0  0  0  0  0  0  0  0  0  0  0  0
    9.6216  -15.1844   22.1028 C   0  0  0  0  0  0  0  0  0  0  0  0
   10.8234  -14.8396   22.1747 O   0  0  0  0  0  0  0  0  0  0  0  0
   11.1007  -15.3923   30.8037 O   0  0  0  0  0  0  0  0  0  0  0  0
   10.5597  -15.2188   29.5289 C   0  0  0  0  0  0  0  0  0  0  0  0
   10.6636  -14.0184   28.8567 C   0  0  0  0  0  0  0  0  0  0  0  0
   10.1107  -13.8741   27.5785 C   0  0  0  0  0  0  0  0  0  0  0  0
    9.4544  -14.9165   26.9636 C   0  0  0  0  0  0  0  0  0  0  0  0
    8.8576  -14.7958   25.6233 C   0  0  0  0  0  0  0  0  0  0  0  0
    9.6322  -15.5334   24.5937 C   0  0  2  0  0  0  0  0  0  0  0  0
    8.9685  -15.5416   23.3012 N   0  0  0  0  0  0  0  0  0  0  0  0
    9.8883  -16.9281   24.9664 C   0  0  0  0  0  0  0  0  0  0  0  0
    8.9439  -17.7394   25.0405 O   0  0  0  0  0  0  0  0  0  0  0  0
    9.3659  -16.1099   27.6631 C   0  0  0  0  0  0  0  0  0  0  0  0
    9.9118  -16.2557   28.9274 C   0  0  0  0  0  0  0  0  0  0  0  0
   14.0814  -18.0977   19.4326 N   0  0  0  0  0  0  0  0  0  0  0  0
   12.7509  -18.5876   19.4780 C   0  0  0  0  0  0  0  0  0  0  0  0
   12.0203  -18.6769   18.4200 N   0  0  0  0  0  0  0  0  0  0  0  0
   12.2304  -18.9820   20.7184 N   0  0  0  0  0  0  0  0  0  0  0  0
   12.9425  -18.6680   21.9904 C   0  0  0  0  0  0  0  0  0  0  0  0
   12.1842  -19.3290   23.0626 C   0  0  0  0  0  0  0  0  0  0  0  0
   12.4875  -19.1952   24.4700 C   0  0  0  0  0  0  0  0  0  0  0  0
   11.4983  -18.8268   25.4979 C   0  0  2  0  0  0  0  0  0  0  0  0
   11.1965  -17.3589   25.2416 N   0  0  0  0  0  0  0  0  0  0  0  0
   11.9704  -18.8914   26.8882 C   0  0  0  0  0  0  0  0  0  0  0  0
   12.4765  -17.8039   27.3875 O   0  0  0  0  0  0  0  0  0  0  0  0
   11.9481  -19.9554   27.7548 O   0  0  0  0  0  0  0  0  0  0  0  0
  2  3  1  6
  2  1  1  0
  4  2  1  0
  5  4  1  0
  5  6  1  1
  7  5  1  0
  8  7  2  0
  9 10  1  0
 10 11  2  0
 10 20  1  0
 11 12  1  0
 12 13  2  0
 13 14  1  0
 15 14  1  1
 15 16  1  0
 16  7  1  0
 17 15  1  0
 17 18  2  0
 19 13  1  0
 20 19  2  0
 21 22  1  0
 22 24  1  0
 23 22  2  0
 24 25  1  0
 25 26  1  0
 26 27  1  0
 28 29  1  0
 28 27  1  6
 29 17  1  0
 30 28  1  0
 31 30  2  0
 32 30  1  0
M  END
$$$$
