LYR.pdb
     RDKit          3D

 32 32  0  0  1  0  0  0  0  0999 V2000
    7.9436  -14.7516   18.3154 C   0  0  0  0  0  0  0  0  0  0  0  0
    7.4071  -13.8943   19.4403 C   0  0  2  0  0  0  0  0  0  0  0  0
    7.2536  -12.4566   19.0032 C   0  0  0  0  0  0  0  0  0  0  0  0
    8.3913  -13.9434   20.5831 C   0  0  0  0  0  0  0  0  0  0  0  0
    8.4274  -15.3647   21.1244 C   0  0  2  0  0  0  0  0  0  0  0  0
    7.1419  -15.9944   21.0606 N   0  0  0  0  0  0  0  0  0  0  0  0
    8.9506  -15.3981   22.5080 C   0  0  0  0  0  0  0  0  0  0  0  0
   10.0794  -14.9608   22.8292 O   0  0  0  0  0  0  0  0  0  0  0  0
    6.5144  -10.1502   26.4893 O   0  0  0  0  0  0  0  0  0  0  0  0
    6.7684  -11.5153   26.3485 C   0  0  0  0  0  0  0  0  0  0  0  0
    7.9210  -12.0909   26.8420 C   0  0  0  0  0  0  0  0  0  0  0  0
    8.1484  -13.4636   26.6856 C   0  0  0  0  0  0  0  0  0  0  0  0
    7.2364  -14.2685   26.0409 C   0  0  0  0  0  0  0  0  0  0  0  0
    7.4478  -15.7135   25.8552 C   0  0  0  0  0  0  0  0  0  0  0  0
    8.5624  -16.0035   24.9183 C   0  0  2  0  0  0  0  0  0  0  0  0
    8.1457  -15.9486   23.5274 N   0  0  0  0  0  0  0  0  0  0  0  0
    9.1678  -17.3194   25.1453 C   0  0  0  0  0  0  0  0  0  0  0  0
    8.5253  -18.3566   24.8865 O   0  0  0  0  0  0  0  0  0  0  0  0
    6.0881  -13.6623   25.5559 C   0  0  0  0  0  0  0  0  0  0  0  0
    5.8603  -12.3049   25.7091 C   0  0  0  0  0  0  0  0  0  0  0  0
   15.6233  -17.8807   22.0885 N   0  0  0  0  0  0  0  0  0  0  0  0
   15.5005  -19.2939   22.0767 C   0  0  0  0  0  0  0  0  0  0  0  0
   16.4026  -20.0527   21.5557 N   0  0  0  0  0  0  0  0  0  0  0  0
   14.3578  -19.8660   22.6529 N   0  0  0  0  0  0  0  0  0  0  0  0
   13.2950  -19.0188   23.2664 C   0  0  0  0  0  0  0  0  0  0  0  0
   13.3648  -19.2536   24.7160 C   0  0  0  0  0  0  0  0  0  0  0  0
   12.5598  -18.5506   25.6899 C   0  0  0  0  0  0  0  0  0  0  0  0
   11.1176  -18.7770   25.8890 C   0  0  2  0  0  0  0  0  0  0  0  0
   10.4728  -17.4202   25.6547 N   0  0  0  0  0  0  0  0  0  0  0  0
   10.7163  -19.1707   27.2470 C   0  0  0  0  0  0  0  0  0  0  0  0
   10.2787  -18.2277   28.0264 O   0  0  0  0  0  0  0  0  0  0  0  0
   10.7322  -20.4174   27.8204 O   0  0  0  0  0  0  0  0  0  0  0  0
  2  3  1  6
  2  1  1  0
  4  2  1  0
  5  4  1  0
  5  6  1  1
  7  5  1  0
  8  7  2  0
  9 10  1  0
 10 11  2  0
 10 20  1  0
 11 12  1  0
 12 13  2  0
 13 14  1  0
 15 14  1  1
 15 16  1  0
 16  7  1  0
 17 15  1  0
 17 18  2  0
 19 13  1  0
 20 19  2  0
 21 22  1  0
 22 24  1  0
 23 22  2  0
 24 25  1  0
 25 26  1  0
 26 27  1  0
 28 29  1  0
 28 27  1  1
 29 17  1  0
 30 28  1  0
 31 30  2  0
 32 30  1  0
M  END
$$$$
