LYR.pdb
     RDKit          3D

 32 32  0  0  1  0  0  0  0  0999 V2000
    8.0213  -14.4225   18.0426 C   0  0  0  0  0  0  0  0  0  0  0  0
    7.3762  -13.6058   19.1403 C   0  0  2  0  0  0  0  0  0  0  0  0
    7.1088  -12.1918   18.6812 C   0  0  0  0  0  0  0  0  0  0  0  0
    8.3251  -13.5557   20.3125 C   0  0  0  0  0  0  0  0  0  0  0  0
    8.5309  -14.9735   20.8240 C   0  0  2  0  0  0  0  0  0  0  0  0
    7.2915  -15.6804   20.9552 N   0  0  0  0  0  0  0  0  0  0  0  0
    9.2666  -14.9787   22.1078 C   0  0  0  0  0  0  0  0  0  0  0  0
   10.3963  -14.4591   22.2573 O   0  0  0  0  0  0  0  0  0  0  0  0
    5.5864  -10.9715   26.8240 O   0  0  0  0  0  0  0  0  0  0  0  0
    6.2325  -12.1721   26.5260 C   0  0  0  0  0  0  0  0  0  0  0  0
    5.5263  -13.3110   26.1975 C   0  0  0  0  0  0  0  0  0  0  0  0
    6.2022  -14.5014   25.9033 C   0  0  0  0  0  0  0  0  0  0  0  0
    7.5770  -14.5670   25.9339 C   0  0  0  0  0  0  0  0  0  0  0  0
    8.3175  -15.8039   25.6353 C   0  0  0  0  0  0  0  0  0  0  0  0
    9.3023  -15.6198   24.5397 C   0  0  2  0  0  0  0  0  0  0  0  0
    8.6754  -15.5978   23.2290 N   0  0  0  0  0  0  0  0  0  0  0  0
   10.3309  -16.6644   24.5187 C   0  0  0  0  0  0  0  0  0  0  0  0
   10.0410  -17.8204   24.1512 O   0  0  0  0  0  0  0  0  0  0  0  0
    8.2592  -13.4074   26.2671 C   0  0  0  0  0  0  0  0  0  0  0  0
    7.5936  -12.2285   26.5585 C   0  0  0  0  0  0  0  0  0  0  0  0
   18.2013  -15.6781   23.3184 N   0  0  0  0  0  0  0  0  0  0  0  0
   18.3686  -17.0845   23.2385 C   0  0  0  0  0  0  0  0  0  0  0  0
   19.5175  -17.6452   23.4017 N   0  0  0  0  0  0  0  0  0  0  0  0
   17.2406  -17.8735   22.9735 N   0  0  0  0  0  0  0  0  0  0  0  0
   15.9185  -17.2543   22.6698 C   0  0  0  0  0  0  0  0  0  0  0  0
   15.2043  -17.1558   23.9511 C   0  0  0  0  0  0  0  0  0  0  0  0
   13.8559  -16.6525   24.0898 C   0  0  0  0  0  0  0  0  0  0  0  0
   12.7601  -17.3918   24.7406 C   0  0  2  0  0  0  0  0  0  0  0  0
   11.6469  -16.3704   24.9116 N   0  0  0  0  0  0  0  0  0  0  0  0
   13.0438  -17.8903   26.0938 C   0  0  0  0  0  0  0  0  0  0  0  0
   13.8724  -18.8864   26.1908 O   0  0  0  0  0  0  0  0  0  0  0  0
   12.5537  -17.4424   27.2950 O   0  0  0  0  0  0  0  0  0  0  0  0
  2  3  1  6
  2  1  1  0
  4  2  1  0
  5  4  1  0
  5  6  1  1
  7  5  1  0
  8  7  2  0
  9 10  1  0
 10 11  2  0
 10 20  1  0
 11 12  1  0
 12 13  2  0
 13 14  1  0
 15 14  1  1
 15 16  1  0
 16  7  1  0
 17 15  1  0
 17 18  2  0
 19 13  1  0
 20 19  2  0
 21 22  1  0
 22 24  1  0
 23 22  2  0
 24 25  1  0
 25 26  1  0
 26 27  1  0
 28 29  1  0
 28 27  1  1
 29 17  1  0
 30 28  1  0
 31 30  2  0
 32 30  1  0
M  END
$$$$
