LYR.pdb
     RDKit          3D

 32 32  0  0  1  0  0  0  0  0999 V2000
    7.9287  -13.6012   17.8264 C   0  0  0  0  0  0  0  0  0  0  0  0
    7.7369  -13.0117   19.2062 C   0  0  2  0  0  0  0  0  0  0  0  0
    7.4910  -11.5232   19.1327 C   0  0  0  0  0  0  0  0  0  0  0  0
    8.9976  -13.2485   20.0012 C   0  0  0  0  0  0  0  0  0  0  0  0
    8.9402  -14.6523   20.5845 C   0  0  2  0  0  0  0  0  0  0  0  0
    7.5952  -15.1362   20.6837 N   0  0  0  0  0  0  0  0  0  0  0  0
    9.6091  -14.7126   21.9029 C   0  0  0  0  0  0  0  0  0  0  0  0
   10.7973  -14.3638   22.0899 O   0  0  0  0  0  0  0  0  0  0  0  0
   10.5788  -15.1366   30.6397 O   0  0  0  0  0  0  0  0  0  0  0  0
   10.0369  -15.1734   29.3540 C   0  0  0  0  0  0  0  0  0  0  0  0
    9.7285  -16.3663   28.7333 C   0  0  0  0  0  0  0  0  0  0  0  0
    9.1858  -16.3718   27.4426 C   0  0  0  0  0  0  0  0  0  0  0  0
    8.9476  -15.1977   26.7643 C   0  0  0  0  0  0  0  0  0  0  0  0
    8.3833  -15.1692   25.4049 C   0  0  0  0  0  0  0  0  0  0  0  0
    9.4340  -15.2312   24.3579 C   0  0  2  0  0  0  0  0  0  0  0  0
    8.8813  -15.1859   23.0148 N   0  0  0  0  0  0  0  0  0  0  0  0
   10.2610  -16.4380   24.4535 C   0  0  0  0  0  0  0  0  0  0  0  0
    9.7525  -17.5613   24.2661 O   0  0  0  0  0  0  0  0  0  0  0  0
    9.2673  -14.0153   27.4132 C   0  0  0  0  0  0  0  0  0  0  0  0
    9.8041  -14.0067   28.6897 C   0  0  0  0  0  0  0  0  0  0  0  0
   16.3317  -16.2173   19.5525 N   0  0  0  0  0  0  0  0  0  0  0  0
   15.0581  -15.5954   19.4943 C   0  0  0  0  0  0  0  0  0  0  0  0
   14.8722  -14.4774   18.8805 N   0  0  0  0  0  0  0  0  0  0  0  0
   13.9801  -16.2287   20.1283 N   0  0  0  0  0  0  0  0  0  0  0  0
   14.2011  -17.2529   21.1894 C   0  0  0  0  0  0  0  0  0  0  0  0
   13.2948  -16.9059   22.2938 C   0  0  0  0  0  0  0  0  0  0  0  0
   13.5691  -17.1875   23.6852 C   0  0  0  0  0  0  0  0  0  0  0  0
   12.5392  -17.5520   24.6738 C   0  0  2  0  0  0  0  0  0  0  0  0
   11.6289  -16.3371   24.7562 N   0  0  0  0  0  0  0  0  0  0  0  0
   13.0217  -17.7720   26.0446 C   0  0  0  0  0  0  0  0  0  0  0  0
   13.7280  -18.8424   26.2537 O   0  0  0  0  0  0  0  0  0  0  0  0
   12.8347  -16.9907   27.1572 O   0  0  0  0  0  0  0  0  0  0  0  0
  2  3  1  6
  2  1  1  0
  4  2  1  0
  5  4  1  0
  5  6  1  1
  7  5  1  0
  8  7  2  0
  9 10  1  0
 10 11  2  0
 10 20  1  0
 11 12  1  0
 12 13  2  0
 13 14  1  0
 15 14  1  1
 15 16  1  0
 16  7  1  0
 17 15  1  0
 17 18  2  0
 19 13  1  0
 20 19  2  0
 21 22  1  0
 22 24  1  0
 23 22  2  0
 24 25  1  0
 25 26  1  0
 26 27  1  0
 28 29  1  0
 28 27  1  6
 29 17  1  0
 30 28  1  0
 31 30  2  0
 32 30  1  0
M  END
$$$$
