LYR.pdb
     RDKit          3D

 32 32  0  0  1  0  0  0  0  0999 V2000
    7.2080  -14.1233   18.1624 C   0  0  0  0  0  0  0  0  0  0  0  0
    6.5863  -13.5090   19.3971 C   0  0  2  0  0  0  0  0  0  0  0  0
    5.8495  -12.2346   19.0587 C   0  0  0  0  0  0  0  0  0  0  0  0
    7.6924  -13.1773   20.3685 C   0  0  0  0  0  0  0  0  0  0  0  0
    8.3458  -14.4770   20.8135 C   0  0  2  0  0  0  0  0  0  0  0  0
    7.3947  -15.5427   20.9273 N   0  0  0  0  0  0  0  0  0  0  0  0
    9.0780  -14.3003   22.0870 C   0  0  0  0  0  0  0  0  0  0  0  0
   10.0000  -13.4671   22.2425 O   0  0  0  0  0  0  0  0  0  0  0  0
   10.9153  -15.1745   30.6963 O   0  0  0  0  0  0  0  0  0  0  0  0
   10.3055  -15.1074   29.4428 C   0  0  0  0  0  0  0  0  0  0  0  0
   10.2727  -13.9347   28.7167 C   0  0  0  0  0  0  0  0  0  0  0  0
    9.6535  -13.8978   27.4614 C   0  0  0  0  0  0  0  0  0  0  0  0
    9.0659  -15.0204   26.9229 C   0  0  0  0  0  0  0  0  0  0  0  0
    8.4023  -15.0137   25.6088 C   0  0  0  0  0  0  0  0  0  0  0  0
    9.3749  -14.9912   24.4873 C   0  0  2  0  0  0  0  0  0  0  0  0
    8.7286  -15.1061   23.1910 N   0  0  0  0  0  0  0  0  0  0  0  0
   10.3725  -16.0617   24.5787 C   0  0  0  0  0  0  0  0  0  0  0  0
   11.0755  -16.1758   25.6026 O   0  0  0  0  0  0  0  0  0  0  0  0
    9.1146  -16.1835   27.6752 C   0  0  0  0  0  0  0  0  0  0  0  0
    9.7264  -16.2232   28.9169 C   0  0  0  0  0  0  0  0  0  0  0  0
   14.3254  -14.2755   17.5495 N   0  0  0  0  0  0  0  0  0  0  0  0
   15.3224  -14.8300   18.3926 C   0  0  0  0  0  0  0  0  0  0  0  0
   16.5563  -14.9099   18.0289 N   0  0  0  0  0  0  0  0  0  0  0  0
   14.9374  -15.3004   19.6558 N   0  0  0  0  0  0  0  0  0  0  0  0
   13.5334  -15.1593   20.1380 C   0  0  0  0  0  0  0  0  0  0  0  0
   13.4884  -15.7848   21.4677 C   0  0  0  0  0  0  0  0  0  0  0  0
   12.2766  -15.9714   22.2342 C   0  0  0  0  0  0  0  0  0  0  0  0
   11.9187  -17.2234   22.9236 C   0  0  2  0  0  0  0  0  0  0  0  0
   10.5426  -16.9640   23.5158 N   0  0  0  0  0  0  0  0  0  0  0  0
   12.7716  -17.5891   24.0633 C   0  0  0  0  0  0  0  0  0  0  0  0
   12.5104  -17.0159   25.1998 O   0  0  0  0  0  0  0  0  0  0  0  0
   13.8223  -18.4712   24.1023 O   0  0  0  0  0  0  0  0  0  0  0  0
  2  3  1  6
  2  1  1  0
  4  2  1  0
  5  4  1  0
  5  6  1  1
  7  5  1  0
  8  7  2  0
  9 10  1  0
 10 11  2  0
 10 20  1  0
 11 12  1  0
 12 13  2  0
 13 14  1  0
 15 14  1  1
 15 16  1  0
 16  7  1  0
 17 15  1  0
 17 18  2  0
 19 13  1  0
 20 19  2  0
 21 22  1  0
 22 24  1  0
 23 22  2  0
 24 25  1  0
 25 26  1  0
 26 27  1  0
 28 29  1  0
 28 27  1  1
 29 17  1  0
 30 28  1  0
 31 30  2  0
 32 30  1  0
M  END
$$$$
