LYR.pdb
     RDKit          3D

 32 32  0  0  1  0  0  0  0  0999 V2000
    6.9659  -13.6571   18.5123 C   0  0  0  0  0  0  0  0  0  0  0  0
    7.2887  -13.0666   19.8671 C   0  0  2  0  0  0  0  0  0  0  0  0
    7.3185  -11.5575   19.8098 C   0  0  0  0  0  0  0  0  0  0  0  0
    8.6544  -13.5555   20.2829 C   0  0  0  0  0  0  0  0  0  0  0  0
    8.5202  -14.9863   20.7821 C   0  0  2  0  0  0  0  0  0  0  0  0
    7.1503  -15.3593   20.9756 N   0  0  0  0  0  0  0  0  0  0  0  0
    9.2927  -15.1944   22.0268 C   0  0  0  0  0  0  0  0  0  0  0  0
   10.5406  -15.2963   22.0549 O   0  0  0  0  0  0  0  0  0  0  0  0
   11.1052  -15.2397   30.6532 O   0  0  0  0  0  0  0  0  0  0  0  0
   10.4347  -15.2006   29.4298 C   0  0  0  0  0  0  0  0  0  0  0  0
    9.8323  -16.3227   28.8995 C   0  0  0  0  0  0  0  0  0  0  0  0
    9.1666  -16.2530   27.6696 C   0  0  0  0  0  0  0  0  0  0  0  0
    9.0961  -15.0736   26.9629 C   0  0  0  0  0  0  0  0  0  0  0  0
    8.4089  -14.9681   25.6653 C   0  0  0  0  0  0  0  0  0  0  0  0
    9.2738  -15.3890   24.5344 C   0  0  2  0  0  0  0  0  0  0  0  0
    8.5990  -15.2844   23.2519 N   0  0  0  0  0  0  0  0  0  0  0  0
    9.7537  -16.7679   24.6687 C   0  0  0  0  0  0  0  0  0  0  0  0
    8.9570  -17.7211   24.5578 O   0  0  0  0  0  0  0  0  0  0  0  0
    9.7104  -13.9633   27.5206 C   0  0  0  0  0  0  0  0  0  0  0  0
   10.3695  -14.0291   28.7368 C   0  0  0  0  0  0  0  0  0  0  0  0
   16.8736  -19.9884   24.7606 N   0  0  0  0  0  0  0  0  0  0  0  0
   16.5263  -21.0960   23.9450 C   0  0  0  0  0  0  0  0  0  0  0  0
   17.1913  -22.1996   23.9740 N   0  0  0  0  0  0  0  0  0  0  0  0
   15.4244  -20.9698   23.0877 N   0  0  0  0  0  0  0  0  0  0  0  0
   14.7436  -19.6576   22.8923 C   0  0  0  0  0  0  0  0  0  0  0  0
   13.6549  -19.6060   23.8790 C   0  0  0  0  0  0  0  0  0  0  0  0
   12.7415  -18.4939   24.0195 C   0  0  0  0  0  0  0  0  0  0  0  0
   11.6378  -18.4483   24.9944 C   0  0  2  0  0  0  0  0  0  0  0  0
   11.1112  -17.0238   24.9225 N   0  0  0  0  0  0  0  0  0  0  0  0
   12.0197  -18.6529   26.3988 C   0  0  0  0  0  0  0  0  0  0  0  0
   11.8947  -19.8566   26.8718 O   0  0  0  0  0  0  0  0  0  0  0  0
   12.5047  -17.7381   27.2996 O   0  0  0  0  0  0  0  0  0  0  0  0
  2  3  1  6
  2  1  1  0
  4  2  1  0
  5  4  1  0
  5  6  1  1
  7  5  1  0
  8  7  2  0
  9 10  1  0
 10 11  2  0
 10 20  1  0
 11 12  1  0
 12 13  2  0
 13 14  1  0
 15 14  1  1
 15 16  1  0
 16  7  1  0
 17 15  1  0
 17 18  2  0
 19 13  1  0
 20 19  2  0
 21 22  1  0
 22 24  1  0
 23 22  2  0
 24 25  1  0
 25 26  1  0
 26 27  1  0
 28 29  1  0
 28 27  1  6
 29 17  1  0
 30 28  1  0
 31 30  2  0
 32 30  1  0
M  END
$$$$
