LYR.pdb
     RDKit          3D

 32 32  0  0  1  0  0  0  0  0999 V2000
   10.2167  -18.5418   15.7068 C   0  0  0  0  0  0  0  0  0  0  0  0
    9.0920  -17.5734   15.9991 C   0  0  2  0  0  0  0  0  0  0  0  0
    8.8477  -16.6532   14.8264 C   0  0  0  0  0  0  0  0  0  0  0  0
    9.4874  -16.7347   17.1897 C   0  0  0  0  0  0  0  0  0  0  0  0
    9.6483  -17.6535   18.3914 C   0  0  2  0  0  0  0  0  0  0  0  0
    8.5364  -18.5457   18.5357 N   0  0  0  0  0  0  0  0  0  0  0  0
    9.8531  -16.8785   19.6350 C   0  0  0  0  0  0  0  0  0  0  0  0
   10.8365  -16.1265   19.8249 O   0  0  0  0  0  0  0  0  0  0  0  0
    7.0534  -11.2067   18.7946 O   0  0  0  0  0  0  0  0  0  0  0  0
    7.2441  -12.2860   19.6587 C   0  0  0  0  0  0  0  0  0  0  0  0
    6.4888  -13.4361   19.5565 C   0  0  0  0  0  0  0  0  0  0  0  0
    6.7029  -14.5028   20.4379 C   0  0  0  0  0  0  0  0  0  0  0  0
    7.6639  -14.4333   21.4212 C   0  0  0  0  0  0  0  0  0  0  0  0
    7.9103  -15.5345   22.3667 C   0  0  0  0  0  0  0  0  0  0  0  0
    9.0750  -16.3660   21.9713 C   0  0  2  0  0  0  0  0  0  0  0  0
    8.8981  -16.9834   20.6680 N   0  0  0  0  0  0  0  0  0  0  0  0
    9.3606  -17.4369   22.9312 C   0  0  0  0  0  0  0  0  0  0  0  0
    8.7420  -18.5178   22.8647 O   0  0  0  0  0  0  0  0  0  0  0  0
    8.4069  -13.2658   21.4994 C   0  0  0  0  0  0  0  0  0  0  0  0
    8.1976  -12.2092   20.6291 C   0  0  0  0  0  0  0  0  0  0  0  0
   14.0133  -22.7996   20.3412 N   0  0  0  0  0  0  0  0  0  0  0  0
   14.6642  -22.6847   21.5963 C   0  0  0  0  0  0  0  0  0  0  0  0
   15.5461  -23.5390   21.9882 N   0  0  0  0  0  0  0  0  0  0  0  0
   14.3267  -21.6041   22.4231 N   0  0  0  0  0  0  0  0  0  0  0  0
   13.2741  -20.6258   22.0248 C   0  0  0  0  0  0  0  0  0  0  0  0
   13.0684  -19.7455   23.1842 C   0  0  0  0  0  0  0  0  0  0  0  0
   12.0950  -18.6771   23.2270 C   0  0  0  0  0  0  0  0  0  0  0  0
   11.2182  -18.4028   24.3789 C   0  0  2  0  0  0  0  0  0  0  0  0
   10.3310  -17.2527   23.9297 N   0  0  0  0  0  0  0  0  0  0  0  0
   11.8933  -17.9238   25.5934 C   0  0  0  0  0  0  0  0  0  0  0  0
   12.1776  -16.6571   25.6462 O   0  0  0  0  0  0  0  0  0  0  0  0
   12.2695  -18.6354   26.7049 O   0  0  0  0  0  0  0  0  0  0  0  0
  2  3  1  6
  2  1  1  0
  4  2  1  0
  5  4  1  0
  5  6  1  1
  7  5  1  0
  8  7  2  0
  9 10  1  0
 10 11  2  0
 10 20  1  0
 11 12  1  0
 12 13  2  0
 13 14  1  0
 15 14  1  1
 15 16  1  0
 16  7  1  0
 17 15  1  0
 17 18  2  0
 19 13  1  0
 20 19  2  0
 21 22  1  0
 22 24  1  0
 23 22  2  0
 24 25  1  0
 25 26  1  0
 26 27  1  0
 28 29  1  0
 28 27  1  6
 29 17  1  0
 30 28  1  0
 31 30  2  0
 32 30  1  0
M  END
$$$$
