LYR.pdb
     RDKit          3D

 32 32  0  0  1  0  0  0  0  0999 V2000
    6.7645  -13.5627   19.9722 C   0  0  0  0  0  0  0  0  0  0  0  0
    8.1860  -13.1420   19.6712 C   0  0  2  0  0  0  0  0  0  0  0  0
    8.2211  -12.0516   18.6265 C   0  0  0  0  0  0  0  0  0  0  0  0
    8.9306  -14.3402   19.1356 C   0  0  0  0  0  0  0  0  0  0  0  0
    9.0167  -15.3839   20.2391 C   0  0  2  0  0  0  0  0  0  0  0  0
    8.4335  -14.9188   21.4624 N   0  0  0  0  0  0  0  0  0  0  0  0
   10.4151  -15.8121   20.4639 C   0  0  0  0  0  0  0  0  0  0  0  0
   11.0504  -16.5390   19.6661 O   0  0  0  0  0  0  0  0  0  0  0  0
   15.3997  -15.6799   16.2865 O   0  0  0  0  0  0  0  0  0  0  0  0
   14.9204  -15.4029   17.5676 C   0  0  0  0  0  0  0  0  0  0  0  0
   15.1647  -14.1936   18.1851 C   0  0  0  0  0  0  0  0  0  0  0  0
   14.6707  -13.9443   19.4714 C   0  0  0  0  0  0  0  0  0  0  0  0
   13.9349  -14.8906   20.1484 C   0  0  0  0  0  0  0  0  0  0  0  0
   13.4061  -14.6620   21.5032 C   0  0  0  0  0  0  0  0  0  0  0  0
   12.4605  -15.7259   21.9252 C   0  0  2  0  0  0  0  0  0  0  0  0
   11.0781  -15.3860   21.6339 N   0  0  0  0  0  0  0  0  0  0  0  0
   12.5475  -16.0282   23.3572 C   0  0  0  0  0  0  0  0  0  0  0  0
   12.2496  -15.1579   24.1995 O   0  0  0  0  0  0  0  0  0  0  0  0
   13.7056  -16.0956   19.5028 C   0  0  0  0  0  0  0  0  0  0  0  0
   14.1927  -16.3451   18.2308 C   0  0  0  0  0  0  0  0  0  0  0  0
   11.5282  -23.1855   27.8460 N   0  0  0  0  0  0  0  0  0  0  0  0
   11.4432  -22.2019   28.8646 C   0  0  0  0  0  0  0  0  0  0  0  0
   11.5137  -22.5067   30.1149 N   0  0  0  0  0  0  0  0  0  0  0  0
   11.2777  -20.8632   28.4830 N   0  0  0  0  0  0  0  0  0  0  0  0
   11.1035  -20.4837   27.0515 C   0  0  0  0  0  0  0  0  0  0  0  0
   12.0371  -19.3759   26.8013 C   0  0  0  0  0  0  0  0  0  0  0  0
   12.1643  -18.6952   25.5319 C   0  0  0  0  0  0  0  0  0  0  0  0
   13.1224  -17.6071   25.2693 C   0  0  2  0  0  0  0  0  0  0  0  0
   12.9661  -17.2974   23.7890 N   0  0  0  0  0  0  0  0  0  0  0  0
   14.5403  -17.9499   25.4489 C   0  0  0  0  0  0  0  0  0  0  0  0
   14.9997  -17.9298   26.6641 O   0  0  0  0  0  0  0  0  0  0  0  0
   15.4666  -18.3008   24.4991 O   0  0  0  0  0  0  0  0  0  0  0  0
  2  3  1  6
  2  1  1  0
  4  2  1  0
  5  4  1  0
  5  6  1  1
  7  5  1  0
  8  7  2  0
  9 10  1  0
 10 11  2  0
 10 20  1  0
 11 12  1  0
 12 13  2  0
 13 14  1  0
 15 14  1  1
 15 16  1  0
 16  7  1  0
 17 15  1  0
 17 18  2  0
 19 13  1  0
 20 19  2  0
 21 22  1  0
 22 24  1  0
 23 22  2  0
 24 25  1  0
 25 26  1  0
 26 27  1  0
 28 29  1  0
 28 27  1  6
 29 17  1  0
 30 28  1  0
 31 30  2  0
 32 30  1  0
M  END
$$$$
