LYR.pdb
     RDKit          3D

 32 32  0  0  1  0  0  0  0  0999 V2000
    8.1941  -13.7980   18.2740 C   0  0  0  0  0  0  0  0  0  0  0  0
    7.3826  -13.1183   19.3546 C   0  0  2  0  0  0  0  0  0  0  0  0
    7.1233  -11.6705   19.0109 C   0  0  0  0  0  0  0  0  0  0  0  0
    8.1704  -13.1698   20.6407 C   0  0  0  0  0  0  0  0  0  0  0  0
    8.3596  -14.6285   21.0291 C   0  0  2  0  0  0  0  0  0  0  0  0
    7.1075  -15.3060   21.1912 N   0  0  0  0  0  0  0  0  0  0  0  0
    9.1775  -14.7547   22.2556 C   0  0  0  0  0  0  0  0  0  0  0  0
   10.4037  -14.5031   22.2957 O   0  0  0  0  0  0  0  0  0  0  0  0
   11.0816  -15.2316   30.8439 O   0  0  0  0  0  0  0  0  0  0  0  0
   10.4150  -15.1574   29.6200 C   0  0  0  0  0  0  0  0  0  0  0  0
    9.8217  -16.2658   29.0516 C   0  0  0  0  0  0  0  0  0  0  0  0
    9.1597  -16.1608   27.8223 C   0  0  0  0  0  0  0  0  0  0  0  0
    9.0838  -14.9597   27.1537 C   0  0  0  0  0  0  0  0  0  0  0  0
    8.4002  -14.8168   25.8576 C   0  0  0  0  0  0  0  0  0  0  0  0
    9.2531  -15.2470   24.7211 C   0  0  2  0  0  0  0  0  0  0  0  0
    8.5554  -15.1797   23.4483 N   0  0  0  0  0  0  0  0  0  0  0  0
    9.7577  -16.6149   24.8752 C   0  0  0  0  0  0  0  0  0  0  0  0
    8.9603  -17.5646   25.0083 O   0  0  0  0  0  0  0  0  0  0  0  0
    9.6889  -13.8640   27.7491 C   0  0  0  0  0  0  0  0  0  0  0  0
   10.3443  -13.9647   28.9648 C   0  0  0  0  0  0  0  0  0  0  0  0
    9.8524  -18.1295   20.3636 N   0  0  0  0  0  0  0  0  0  0  0  0
   10.9464  -18.5902   19.5869 C   0  0  0  0  0  0  0  0  0  0  0  0
   10.7769  -19.2048   18.4668 N   0  0  0  0  0  0  0  0  0  0  0  0
   12.2439  -18.3623   20.0662 N   0  0  0  0  0  0  0  0  0  0  0  0
   12.4782  -17.6261   21.3417 C   0  0  0  0  0  0  0  0  0  0  0  0
   12.1894  -18.5760   22.4260 C   0  0  0  0  0  0  0  0  0  0  0  0
   12.6062  -18.3897   23.7980 C   0  0  0  0  0  0  0  0  0  0  0  0
   11.6779  -18.2848   24.9374 C   0  0  2  0  0  0  0  0  0  0  0  0
   11.1400  -16.8642   24.8739 N   0  0  0  0  0  0  0  0  0  0  0  0
   12.2869  -18.4126   26.2688 C   0  0  0  0  0  0  0  0  0  0  0  0
   12.6385  -17.3112   26.8617 O   0  0  0  0  0  0  0  0  0  0  0  0
   12.5377  -19.5508   26.9935 O   0  0  0  0  0  0  0  0  0  0  0  0
  2  3  1  6
  2  1  1  0
  4  2  1  0
  5  4  1  0
  5  6  1  1
  7  5  1  0
  8  7  2  0
  9 10  1  0
 10 11  2  0
 10 20  1  0
 11 12  1  0
 12 13  2  0
 13 14  1  0
 15 14  1  1
 15 16  1  0
 16  7  1  0
 17 15  1  0
 17 18  2  0
 19 13  1  0
 20 19  2  0
 21 22  1  0
 22 24  1  0
 23 22  2  0
 24 25  1  0
 25 26  1  0
 26 27  1  0
 28 29  1  0
 28 27  1  6
 29 17  1  0
 30 28  1  0
 31 30  2  0
 32 30  1  0
M  END
$$$$
