LYR.pdb
     RDKit          3D

 32 32  0  0  1  0  0  0  0  0999 V2000
    6.2339  -13.6597   18.8262 C   0  0  0  0  0  0  0  0  0  0  0  0
    7.3121  -13.0527   19.6965 C   0  0  2  0  0  0  0  0  0  0  0  0
    7.4955  -11.5848   19.3912 C   0  0  0  0  0  0  0  0  0  0  0  0
    8.6102  -13.7660   19.4080 C   0  0  0  0  0  0  0  0  0  0  0  0
    8.6012  -15.0957   20.1471 C   0  0  2  0  0  0  0  0  0  0  0  0
    7.2959  -15.6862   20.1708 N   0  0  0  0  0  0  0  0  0  0  0  0
    9.1259  -14.9478   21.5227 C   0  0  0  0  0  0  0  0  0  0  0  0
   10.2993  -14.5928   21.7787 O   0  0  0  0  0  0  0  0  0  0  0  0
    9.1486  -13.8437   30.2514 O   0  0  0  0  0  0  0  0  0  0  0  0
    8.7462  -14.0880   28.9376 C   0  0  0  0  0  0  0  0  0  0  0  0
    8.4529  -15.3619   28.4963 C   0  0  0  0  0  0  0  0  0  0  0  0
    8.0516  -15.5762   27.1721 C   0  0  0  0  0  0  0  0  0  0  0  0
    7.9400  -14.5312   26.2828 C   0  0  0  0  0  0  0  0  0  0  0  0
    7.5261  -14.7234   24.8832 C   0  0  0  0  0  0  0  0  0  0  0  0
    8.6733  -15.0389   23.9952 C   0  0  2  0  0  0  0  0  0  0  0  0
    8.2697  -15.2178   22.6109 N   0  0  0  0  0  0  0  0  0  0  0  0
    9.3924  -16.2493   24.4044 C   0  0  0  0  0  0  0  0  0  0  0  0
    8.8507  -17.3670   24.2916 O   0  0  0  0  0  0  0  0  0  0  0  0
    8.2410  -13.2631   26.7547 C   0  0  0  0  0  0  0  0  0  0  0  0
    8.6381  -13.0480   28.0638 C   0  0  0  0  0  0  0  0  0  0  0  0
   13.1623  -15.2356   19.7906 N   0  0  0  0  0  0  0  0  0  0  0  0
   14.0227  -15.2331   20.9184 C   0  0  0  0  0  0  0  0  0  0  0  0
   15.0213  -14.4238   21.0129 N   0  0  0  0  0  0  0  0  0  0  0  0
   13.7653  -16.1443   21.9522 N   0  0  0  0  0  0  0  0  0  0  0  0
   12.6108  -17.0855   21.8829 C   0  0  0  0  0  0  0  0  0  0  0  0
   12.6843  -17.9193   23.0915 C   0  0  0  0  0  0  0  0  0  0  0  0
   12.6600  -17.3958   24.4391 C   0  0  0  0  0  0  0  0  0  0  0  0
   11.4711  -17.4069   25.3093 C   0  0  2  0  0  0  0  0  0  0  0  0
   10.6937  -16.1580   24.9251 N   0  0  0  0  0  0  0  0  0  0  0  0
   11.7345  -17.2752   26.7492 C   0  0  0  0  0  0  0  0  0  0  0  0
   11.6907  -16.0757   27.2468 O   0  0  0  0  0  0  0  0  0  0  0  0
   12.0206  -18.2575   27.6640 O   0  0  0  0  0  0  0  0  0  0  0  0
  2  3  1  6
  2  1  1  0
  4  2  1  0
  5  4  1  0
  5  6  1  1
  7  5  1  0
  8  7  2  0
  9 10  1  0
 10 11  2  0
 10 20  1  0
 11 12  1  0
 12 13  2  0
 13 14  1  0
 15 14  1  1
 15 16  1  0
 16  7  1  0
 17 15  1  0
 17 18  2  0
 19 13  1  0
 20 19  2  0
 21 22  1  0
 22 24  1  0
 23 22  2  0
 24 25  1  0
 25 26  1  0
 26 27  1  0
 28 29  1  0
 28 27  1  6
 29 17  1  0
 30 28  1  0
 31 30  2  0
 32 30  1  0
M  END
$$$$
