WGD.pdb
     RDKit          3D

 27 28  0  0  1  0  0  0  0  0999 V2000
   26.1149  -22.4435  -12.1408 N   0  0  0  0  0  0  0  0  0  0  0  0
   25.6850  -21.1798  -11.6398 C   0  0  1  0  0  0  0  0  0  0  0  0
   26.8467  -20.2620  -11.4402 C   0  0  0  0  0  0  0  0  0  0  0  0
   27.8412  -20.7846  -10.4752 C   0  0  0  0  0  0  0  0  0  0  0  0
   28.9443  -21.5927  -10.7840 C   0  0  0  0  0  0  0  0  0  0  0  0
   29.5975  -21.8874   -9.6550 N   0  0  0  0  0  0  0  0  0  0  0  0
   28.9862  -21.3146   -8.5955 C   0  0  0  0  0  0  0  0  0  0  0  0
   29.2480  -21.2979   -7.2351 C   0  0  0  0  0  0  0  0  0  0  0  0
   28.4455  -20.6111   -6.3714 C   0  0  0  0  0  0  0  0  0  0  0  0
   27.3639  -19.9265   -6.8539 C   0  0  0  0  0  0  0  0  0  0  0  0
   27.1127  -19.9509   -8.2143 C   0  0  0  0  0  0  0  0  0  0  0  0
   27.8990  -20.6330   -9.1147 C   0  0  0  0  0  0  0  0  0  0  0  0
   24.7046  -20.6144  -12.6114 C   0  0  0  0  0  0  0  0  0  0  0  0
   23.9394  -19.6583  -12.3106 O   0  0  0  0  0  0  0  0  0  0  0  0
   24.6174  -21.1690  -13.9414 N   0  0  0  0  0  0  0  0  0  0  0  0
   23.7274  -20.5777  -14.8655 C   0  0  0  0  0  0  0  0  0  0  0  0
   22.4098  -21.2909  -14.8719 C   0  0  0  0  0  0  0  0  0  0  0  0
   22.3757  -22.4927  -15.3115 O   0  0  0  0  0  0  0  0  0  0  0  0
   21.2397  -20.6687  -14.4169 N   0  0  0  0  0  0  0  0  0  0  0  0
   20.2064  -21.2937  -13.6334 C   0  0  1  0  0  0  0  0  0  0  0  0
   20.6564  -22.2642  -12.5784 C   0  0  0  0  0  0  0  0  0  0  0  0
   19.4692  -22.9395  -12.0014 C   0  0  0  0  0  0  0  0  0  0  0  0
   18.8773  -22.5480  -10.9502 O   0  0  0  0  0  0  0  0  0  0  0  0
   19.0920  -20.4353  -13.2767 C   0  0  0  0  0  0  0  0  0  0  0  0
   17.7929  -20.8855  -13.4484 O   0  0  0  0  0  0  0  0  0  0  0  0
   18.9226  -24.0785  -12.6031 O   0  0  0  0  0  0  0  0  0  0  0  0
   19.2646  -19.2988  -12.8177 O   0  0  0  0  0  0  0  0  0  0  0  0
  2  1  1  6
  3  2  1  0
  3  4  1  0
  4  5  2  0
  6  5  1  0
  7  6  1  0
  8  7  2  0
  9  8  1  0
 10 11  1  0
 10  9  2  0
 11 12  2  0
 12  7  1  0
 12  4  1  0
 13 15  1  0
 13  2  1  0
 14 13  2  0
 16 15  1  0
 17 19  1  0
 17 16  1  0
 18 17  2  0
 20 19  1  0
 20 21  1  1
 22 21  1  0
 22 26  1  0
 23 22  2  0
 24 25  1  0
 24 20  1  0
 27 24  2  0
M  END
$$$$
