WGD.pdb
     RDKit          3D

 27 28  0  0  1  0  0  0  0  0999 V2000
   27.3892  -21.1281  -10.6372 N   0  0  0  0  0  0  0  0  0  0  0  0
   26.1366  -21.1674   -9.9575 C   0  0  1  0  0  0  0  0  0  0  0  0
   26.2974  -20.7908   -8.5207 C   0  0  0  0  0  0  0  0  0  0  0  0
   27.7137  -20.7161   -8.0945 C   0  0  0  0  0  0  0  0  0  0  0  0
   28.8177  -21.1945   -8.8138 C   0  0  0  0  0  0  0  0  0  0  0  0
   29.9288  -20.9745   -8.1029 N   0  0  0  0  0  0  0  0  0  0  0  0
   29.6264  -20.3679   -6.9346 C   0  0  0  0  0  0  0  0  0  0  0  0
   30.3853  -19.9244   -5.8635 C   0  0  0  0  0  0  0  0  0  0  0  0
   29.8012  -19.3225   -4.7874 C   0  0  0  0  0  0  0  0  0  0  0  0
   28.4440  -19.1526   -4.7629 C   0  0  0  0  0  0  0  0  0  0  0  0
   27.6970  -19.5998   -5.8381 C   0  0  0  0  0  0  0  0  0  0  0  0
   28.2511  -20.2119   -6.9393 C   0  0  0  0  0  0  0  0  0  0  0  0
   25.2062  -20.2394  -10.6632 C   0  0  0  0  0  0  0  0  0  0  0  0
   24.2244  -19.7044  -10.0802 O   0  0  0  0  0  0  0  0  0  0  0  0
   25.4238  -19.9348  -12.0574 N   0  0  0  0  0  0  0  0  0  0  0  0
   25.2107  -20.9515  -13.0148 C   0  0  0  0  0  0  0  0  0  0  0  0
   23.7554  -21.0769  -13.3484 C   0  0  0  0  0  0  0  0  0  0  0  0
   23.4108  -21.9323  -14.2362 O   0  0  0  0  0  0  0  0  0  0  0  0
   22.7897  -20.2820  -12.7167 N   0  0  0  0  0  0  0  0  0  0  0  0
   21.3735  -20.3195  -12.9718 C   0  0  1  0  0  0  0  0  0  0  0  0
   20.4775  -19.8476  -11.8619 C   0  0  0  0  0  0  0  0  0  0  0  0
   19.0749  -20.2030  -12.1856 C   0  0  0  0  0  0  0  0  0  0  0  0
   18.6986  -21.3728  -12.4992 O   0  0  0  0  0  0  0  0  0  0  0  0
   20.9743  -19.9464  -14.3163 C   0  0  0  0  0  0  0  0  0  0  0  0
   20.2819  -20.8506  -15.1054 O   0  0  0  0  0  0  0  0  0  0  0  0
   18.0616  -19.2381  -12.1622 O   0  0  0  0  0  0  0  0  0  0  0  0
   21.2344  -18.8323  -14.7887 O   0  0  0  0  0  0  0  0  0  0  0  0
  2  1  1  6
  3  2  1  0
  3  4  1  0
  4  5  2  0
  6  5  1  0
  7  6  1  0
  8  7  2  0
  9  8  1  0
 10 11  1  0
 10  9  2  0
 11 12  2  0
 12  7  1  0
 12  4  1  0
 13 15  1  0
 13  2  1  0
 14 13  2  0
 16 15  1  0
 17 19  1  0
 17 16  1  0
 18 17  2  0
 20 19  1  0
 20 21  1  1
 22 21  1  0
 22 26  1  0
 23 22  2  0
 24 25  1  0
 24 20  1  0
 27 24  2  0
M  END
$$$$
