WGD.pdb
     RDKit          3D

 27 28  0  0  1  0  0  0  0  0999 V2000
   25.4607  -19.4804   -9.6252 N   0  0  0  0  0  0  0  0  0  0  0  0
   26.7198  -20.1101   -9.8507 C   0  0  1  0  0  0  0  0  0  0  0  0
   26.9172  -21.2582   -8.9154 C   0  0  0  0  0  0  0  0  0  0  0  0
   26.8673  -20.8613   -7.4895 C   0  0  0  0  0  0  0  0  0  0  0  0
   25.7336  -20.8870   -6.6654 C   0  0  0  0  0  0  0  0  0  0  0  0
   26.0669  -20.4337   -5.4523 N   0  0  0  0  0  0  0  0  0  0  0  0
   27.3759  -20.1026   -5.4180 C   0  0  0  0  0  0  0  0  0  0  0  0
   28.2097  -19.6024   -4.4310 C   0  0  0  0  0  0  0  0  0  0  0  0
   29.5298  -19.3626   -4.6786 C   0  0  0  0  0  0  0  0  0  0  0  0
   30.0416  -19.6197   -5.9209 C   0  0  0  0  0  0  0  0  0  0  0  0
   29.1990  -20.1188   -6.8983 C   0  0  0  0  0  0  0  0  0  0  0  0
   27.8630  -20.3718   -6.6855 C   0  0  0  0  0  0  0  0  0  0  0  0
   26.7586  -20.5540  -11.2741 C   0  0  0  0  0  0  0  0  0  0  0  0
   25.8154  -20.3143  -12.0761 O   0  0  0  0  0  0  0  0  0  0  0  0
   27.9052  -21.2819  -11.7635 N   0  0  0  0  0  0  0  0  0  0  0  0
   28.2890  -21.1149  -13.1128 C   0  0  0  0  0  0  0  0  0  0  0  0
   27.2697  -21.7077  -14.0371 C   0  0  0  0  0  0  0  0  0  0  0  0
   27.5785  -21.8388  -15.2725 O   0  0  0  0  0  0  0  0  0  0  0  0
   26.0084  -22.1065  -13.5751 N   0  0  0  0  0  0  0  0  0  0  0  0
   24.9912  -22.7524  -14.3627 C   0  0  1  0  0  0  0  0  0  0  0  0
   24.3411  -23.9646  -13.7582 C   0  0  0  0  0  0  0  0  0  0  0  0
   23.3366  -24.5013  -14.7076 C   0  0  0  0  0  0  0  0  0  0  0  0
   22.1557  -24.0509  -14.8134 O   0  0  0  0  0  0  0  0  0  0  0  0
   24.1158  -21.8598  -15.0997 C   0  0  0  0  0  0  0  0  0  0  0  0
   23.8354  -20.5995  -14.5970 O   0  0  0  0  0  0  0  0  0  0  0  0
   23.6467  -25.5651  -15.5623 O   0  0  0  0  0  0  0  0  0  0  0  0
   23.6041  -22.1904  -16.1772 O   0  0  0  0  0  0  0  0  0  0  0  0
  2  1  1  1
  3  2  1  0
  3  4  1  0
  4  5  2  0
  6  5  1  0
  7  6  1  0
  8  7  2  0
  9  8  1  0
 10 11  1  0
 10  9  2  0
 11 12  2  0
 12  7  1  0
 12  4  1  0
 13 15  1  0
 13  2  1  0
 14 13  2  0
 16 15  1  0
 17 19  1  0
 17 16  1  0
 18 17  2  0
 20 19  1  0
 20 21  1  1
 22 21  1  0
 22 26  1  0
 23 22  2  0
 24 25  1  0
 24 20  1  0
 27 24  2  0
M  END
$$$$
