WGD.pdb
     RDKit          3D

 27 28  0  0  1  0  0  0  0  0999 V2000
   24.6025  -21.0000  -11.4572 N   0  0  0  0  0  0  0  0  0  0  0  0
   25.9915  -20.8928  -11.7605 C   0  0  1  0  0  0  0  0  0  0  0  0
   26.8185  -21.5790  -10.7228 C   0  0  0  0  0  0  0  0  0  0  0  0
   26.7562  -20.9177   -9.3992 C   0  0  0  0  0  0  0  0  0  0  0  0
   25.5890  -20.5893   -8.6954 C   0  0  0  0  0  0  0  0  0  0  0  0
   25.9260  -19.9803   -7.5536 N   0  0  0  0  0  0  0  0  0  0  0  0
   27.2693  -19.8821   -7.4525 C   0  0  0  0  0  0  0  0  0  0  0  0
   28.1197  -19.3577   -6.4925 C   0  0  0  0  0  0  0  0  0  0  0  0
   29.4741  -19.4029   -6.6506 C   0  0  0  0  0  0  0  0  0  0  0  0
   30.0041  -19.9750   -7.7744 C   0  0  0  0  0  0  0  0  0  0  0  0
   29.1448  -20.4949   -8.7260 C   0  0  0  0  0  0  0  0  0  0  0  0
   27.7745  -20.4664   -8.6012 C   0  0  0  0  0  0  0  0  0  0  0  0
   26.2097  -21.4863  -13.1114 C   0  0  0  0  0  0  0  0  0  0  0  0
   27.2870  -21.3259  -13.7470 O   0  0  0  0  0  0  0  0  0  0  0  0
   25.1640  -22.2714  -13.7231 N   0  0  0  0  0  0  0  0  0  0  0  0
   25.2995  -22.6416  -15.0797 C   0  0  0  0  0  0  0  0  0  0  0  0
   24.0930  -22.2348  -15.8693 C   0  0  0  0  0  0  0  0  0  0  0  0
   23.0966  -23.0377  -15.9065 O   0  0  0  0  0  0  0  0  0  0  0  0
   24.0465  -21.0144  -16.5562 N   0  0  0  0  0  0  0  0  0  0  0  0
   22.9081  -20.4936  -17.2669 C   0  0  1  0  0  0  0  0  0  0  0  0
   22.3091  -19.2215  -16.7373 C   0  0  0  0  0  0  0  0  0  0  0  0
   21.9371  -19.4151  -15.3151 C   0  0  0  0  0  0  0  0  0  0  0  0
   21.0506  -20.2333  -14.9236 O   0  0  0  0  0  0  0  0  0  0  0  0
   22.9676  -20.6175  -18.7116 C   0  0  0  0  0  0  0  0  0  0  0  0
   24.1969  -20.6687  -19.3487 O   0  0  0  0  0  0  0  0  0  0  0  0
   22.5622  -18.6836  -14.2991 O   0  0  0  0  0  0  0  0  0  0  0  0
   21.9435  -20.6802  -19.4039 O   0  0  0  0  0  0  0  0  0  0  0  0
  2  1  1  1
  3  2  1  0
  3  4  1  0
  4  5  2  0
  6  5  1  0
  7  6  1  0
  8  7  2  0
  9  8  1  0
 10 11  1  0
 10  9  2  0
 11 12  2  0
 12  7  1  0
 12  4  1  0
 13 15  1  0
 13  2  1  0
 14 13  2  0
 16 15  1  0
 17 19  1  0
 17 16  1  0
 18 17  2  0
 20 19  1  0
 20 21  1  6
 22 21  1  0
 22 26  1  0
 23 22  2  0
 24 25  1  0
 24 20  1  0
 27 24  2  0
M  END
$$$$
