WGD.pdb
     RDKit          3D

 27 28  0  0  1  0  0  0  0  0999 V2000
   27.9016  -21.8946  -10.5883 N   0  0  0  0  0  0  0  0  0  0  0  0
   26.7891  -21.2113  -10.0154 C   0  0  1  0  0  0  0  0  0  0  0  0
   27.2454  -20.0971   -9.1309 C   0  0  0  0  0  0  0  0  0  0  0  0
   28.2771  -20.5156   -8.1543 C   0  0  0  0  0  0  0  0  0  0  0  0
   29.4127  -21.2884   -8.4345 C   0  0  0  0  0  0  0  0  0  0  0  0
   30.0951  -21.4858   -7.3016 N   0  0  0  0  0  0  0  0  0  0  0  0
   29.4727  -20.8806   -6.2668 C   0  0  0  0  0  0  0  0  0  0  0  0
   29.7528  -20.7720   -4.9143 C   0  0  0  0  0  0  0  0  0  0  0  0
   28.9312  -20.0736   -4.0784 C   0  0  0  0  0  0  0  0  0  0  0  0
   27.8117  -19.4693   -4.5813 C   0  0  0  0  0  0  0  0  0  0  0  0
   27.5425  -19.5851   -5.9334 C   0  0  0  0  0  0  0  0  0  0  0  0
   28.3472  -20.2818   -6.8060 C   0  0  0  0  0  0  0  0  0  0  0  0
   25.9398  -20.7069  -11.1330 C   0  0  0  0  0  0  0  0  0  0  0  0
   26.4357  -20.1754  -12.1634 O   0  0  0  0  0  0  0  0  0  0  0  0
   24.5035  -20.8239  -11.0464 N   0  0  0  0  0  0  0  0  0  0  0  0
   23.7197  -20.3695  -12.1303 C   0  0  0  0  0  0  0  0  0  0  0  0
   22.2622  -20.6002  -11.8714 C   0  0  0  0  0  0  0  0  0  0  0  0
   21.9344  -21.3307  -10.8726 O   0  0  0  0  0  0  0  0  0  0  0  0
   21.2761  -20.0416  -12.6954 N   0  0  0  0  0  0  0  0  0  0  0  0
   19.8772  -20.3804  -12.6790 C   0  0  1  0  0  0  0  0  0  0  0  0
   18.9656  -19.5136  -13.5007 C   0  0  0  0  0  0  0  0  0  0  0  0
   19.0441  -18.1187  -13.0043 C   0  0  0  0  0  0  0  0  0  0  0  0
   19.7718  -17.7570  -12.0306 O   0  0  0  0  0  0  0  0  0  0  0  0
   19.5819  -21.8013  -12.6840 C   0  0  0  0  0  0  0  0  0  0  0  0
   20.3299  -22.6577  -13.4758 O   0  0  0  0  0  0  0  0  0  0  0  0
   18.2971  -17.0967  -13.6008 O   0  0  0  0  0  0  0  0  0  0  0  0
   18.6722  -22.2811  -11.9954 O   0  0  0  0  0  0  0  0  0  0  0  0
  2  1  1  6
  3  2  1  0
  3  4  1  0
  4  5  2  0
  6  5  1  0
  7  6  1  0
  8  7  2  0
  9  8  1  0
 10 11  1  0
 10  9  2  0
 11 12  2  0
 12  7  1  0
 12  4  1  0
 13 15  1  0
 13  2  1  0
 14 13  2  0
 16 15  1  0
 17 19  1  0
 17 16  1  0
 18 17  2  0
 20 19  1  0
 20 21  1  6
 22 21  1  0
 22 26  1  0
 23 22  2  0
 24 25  1  0
 24 20  1  0
 27 24  2  0
M  END
$$$$
