WGD.pdb
     RDKit          3D

 27 28  0  0  1  0  0  0  0  0999 V2000
   25.6005  -22.1519  -10.8798 N   0  0  0  0  0  0  0  0  0  0  0  0
   26.2315  -20.8756  -10.9548 C   0  0  1  0  0  0  0  0  0  0  0  0
   27.3908  -20.7977  -10.0157 C   0  0  0  0  0  0  0  0  0  0  0  0
   27.0100  -20.3425   -8.6589 C   0  0  0  0  0  0  0  0  0  0  0  0
   25.7048  -20.2525   -8.1552 C   0  0  0  0  0  0  0  0  0  0  0  0
   25.7522  -19.7775   -6.9061 N   0  0  0  0  0  0  0  0  0  0  0  0
   27.0313  -19.5423   -6.5412 C   0  0  0  0  0  0  0  0  0  0  0  0
   27.6224  -19.0662   -5.3821 C   0  0  0  0  0  0  0  0  0  0  0  0
   28.9768  -18.9340   -5.2849 C   0  0  0  0  0  0  0  0  0  0  0  0
   29.7669  -19.2766   -6.3478 C   0  0  0  0  0  0  0  0  0  0  0  0
   29.1650  -19.7505   -7.4999 C   0  0  0  0  0  0  0  0  0  0  0  0
   27.8030  -19.8962   -7.6345 C   0  0  0  0  0  0  0  0  0  0  0  0
   26.6593  -20.6616  -12.3676 C   0  0  0  0  0  0  0  0  0  0  0  0
   26.8440  -19.5086  -12.8437 O   0  0  0  0  0  0  0  0  0  0  0  0
   26.8723  -21.8004  -13.2288 N   0  0  0  0  0  0  0  0  0  0  0  0
   25.8204  -22.7278  -13.3993 C   0  0  0  0  0  0  0  0  0  0  0  0
   25.0775  -22.4671  -14.6741 C   0  0  0  0  0  0  0  0  0  0  0  0
   25.0396  -23.3979  -15.5521 O   0  0  0  0  0  0  0  0  0  0  0  0
   24.4425  -21.2410  -14.9123 N   0  0  0  0  0  0  0  0  0  0  0  0
   23.4855  -20.9797  -15.9554 C   0  0  1  0  0  0  0  0  0  0  0  0
   22.5552  -19.8198  -15.7394 C   0  0  0  0  0  0  0  0  0  0  0  0
   23.3200  -18.5551  -15.8575 C   0  0  0  0  0  0  0  0  0  0  0  0
   24.5654  -18.5039  -16.0919 O   0  0  0  0  0  0  0  0  0  0  0  0
   23.9771  -21.1596  -17.3089 C   0  0  0  0  0  0  0  0  0  0  0  0
   23.1858  -21.7979  -18.2503 O   0  0  0  0  0  0  0  0  0  0  0  0
   22.6903  -17.3140  -15.7119 O   0  0  0  0  0  0  0  0  0  0  0  0
   25.0946  -20.7564  -17.6562 O   0  0  0  0  0  0  0  0  0  0  0  0
  2  1  1  6
  3  2  1  0
  3  4  1  0
  4  5  2  0
  6  5  1  0
  7  6  1  0
  8  7  2  0
  9  8  1  0
 10 11  1  0
 10  9  2  0
 11 12  2  0
 12  7  1  0
 12  4  1  0
 13 15  1  0
 13  2  1  0
 14 13  2  0
 16 15  1  0
 17 19  1  0
 17 16  1  0
 18 17  2  0
 20 19  1  0
 20 21  1  6
 22 21  1  0
 22 26  1  0
 23 22  2  0
 24 25  1  0
 24 20  1  0
 27 24  2  0
M  END
$$$$
