WGD.pdb
     RDKit          3D

 27 28  0  0  1  0  0  0  0  0999 V2000
   16.4951  -18.6506    2.3358 N   0  0  0  0  0  0  0  0  0  0  0  0
   17.6587  -18.7523    3.1534 C   0  0  1  0  0  0  0  0  0  0  0  0
   18.7759  -17.9322    2.5956 C   0  0  0  0  0  0  0  0  0  0  0  0
   19.3436  -18.4947    1.3489 C   0  0  0  0  0  0  0  0  0  0  0  0
   18.7323  -19.4460    0.5201 C   0  0  0  0  0  0  0  0  0  0  0  0
   19.5545  -19.7311   -0.4952 N   0  0  0  0  0  0  0  0  0  0  0  0
   20.6950  -19.0149   -0.3913 C   0  0  0  0  0  0  0  0  0  0  0  0
   21.8432  -18.9291   -1.1620 C   0  0  0  0  0  0  0  0  0  0  0  0
   22.8635  -18.0923   -0.8154 C   0  0  0  0  0  0  0  0  0  0  0  0
   22.7538  -17.3238    0.3109 C   0  0  0  0  0  0  0  0  0  0  0  0
   21.6025  -17.4184    1.0725 C   0  0  0  0  0  0  0  0  0  0  0  0
   20.5540  -18.2515    0.7547 C   0  0  0  0  0  0  0  0  0  0  0  0
   17.2896  -18.3071    4.5282 C   0  0  0  0  0  0  0  0  0  0  0  0
   16.4125  -17.4245    4.7332 O   0  0  0  0  0  0  0  0  0  0  0  0
   17.9485  -18.8959    5.6698 N   0  0  0  0  0  0  0  0  0  0  0  0
   17.5466  -18.4980    6.9644 C   0  0  0  0  0  0  0  0  0  0  0  0
   18.2065  -19.3405    8.0129 C   0  0  0  0  0  0  0  0  0  0  0  0
   19.0218  -20.2507    7.6314 O   0  0  0  0  0  0  0  0  0  0  0  0
   17.9428  -19.1506    9.3759 N   0  0  0  0  0  0  0  0  0  0  0  0
   18.6686  -19.7525   10.4635 C   0  0  1  0  0  0  0  0  0  0  0  0
   18.8987  -18.8941   11.6751 C   0  0  0  0  0  0  0  0  0  0  0  0
   19.7464  -19.6340   12.6407 C   0  0  0  0  0  0  0  0  0  0  0  0
   19.3338  -20.0520   13.7648 O   0  0  0  0  0  0  0  0  0  0  0  0
   18.3609  -21.1475   10.7192 C   0  0  0  0  0  0  0  0  0  0  0  0
   19.3895  -22.0579   10.9008 O   0  0  0  0  0  0  0  0  0  0  0  0
   21.0864  -19.9187   12.3551 O   0  0  0  0  0  0  0  0  0  0  0  0
   17.1947  -21.5576   10.7818 O   0  0  0  0  0  0  0  0  0  0  0  0
  2  1  1  6
  3  2  1  0
  3  4  1  0
  4  5  2  0
  6  5  1  0
  7  6  1  0
  8  7  2  0
  9  8  1  0
 10 11  1  0
 10  9  2  0
 11 12  2  0
 12  7  1  0
 12  4  1  0
 13 15  1  0
 13  2  1  0
 14 13  2  0
 16 15  1  0
 17 19  1  0
 17 16  1  0
 18 17  2  0
 20 19  1  0
 20 21  1  1
 22 21  1  0
 22 26  1  0
 23 22  2  0
 24 25  1  0
 24 20  1  0
 27 24  2  0
M  END
$$$$
