WGD.pdb
     RDKit          3D

 27 28  0  0  1  0  0  0  0  0999 V2000
   26.8811  -22.0514  -10.6377 N   0  0  0  0  0  0  0  0  0  0  0  0
   26.3863  -20.7702  -10.2551 C   0  0  1  0  0  0  0  0  0  0  0  0
   27.5073  -19.8025  -10.0582 C   0  0  0  0  0  0  0  0  0  0  0  0
   28.4281  -20.1940   -8.9664 C   0  0  0  0  0  0  0  0  0  0  0  0
   29.6448  -20.8737   -9.1176 C   0  0  0  0  0  0  0  0  0  0  0  0
   30.1833  -21.0759   -7.9103 N   0  0  0  0  0  0  0  0  0  0  0  0
   29.3857  -20.5630   -6.9484 C   0  0  0  0  0  0  0  0  0  0  0  0
   29.4748  -20.4979   -5.5673 C   0  0  0  0  0  0  0  0  0  0  0  0
   28.5000  -19.8965   -4.8260 C   0  0  0  0  0  0  0  0  0  0  0  0
   27.4157  -19.3476   -5.4540 C   0  0  0  0  0  0  0  0  0  0  0  0
   27.3380  -19.4191   -6.8336 C   0  0  0  0  0  0  0  0  0  0  0  0
   28.3008  -20.0183   -7.6135 C   0  0  0  0  0  0  0  0  0  0  0  0
   25.4481  -20.3082  -11.3186 C   0  0  0  0  0  0  0  0  0  0  0  0
   24.7333  -19.2786  -11.1797 O   0  0  0  0  0  0  0  0  0  0  0  0
   25.3441  -21.0529  -12.5509 N   0  0  0  0  0  0  0  0  0  0  0  0
   24.6215  -20.4882  -13.6254 C   0  0  0  0  0  0  0  0  0  0  0  0
   23.1669  -20.8353  -13.5342 C   0  0  0  0  0  0  0  0  0  0  0  0
   22.4713  -20.8096  -14.6086 O   0  0  0  0  0  0  0  0  0  0  0  0
   22.5719  -21.1752  -12.3120 N   0  0  0  0  0  0  0  0  0  0  0  0
   21.1922  -21.5397  -12.1223 C   0  0  1  0  0  0  0  0  0  0  0  0
   20.9173  -22.6444  -11.1416 C   0  0  0  0  0  0  0  0  0  0  0  0
   19.4648  -22.9421  -11.1401 C   0  0  0  0  0  0  0  0  0  0  0  0
   18.6574  -22.5176  -12.0213 O   0  0  0  0  0  0  0  0  0  0  0  0
   20.2524  -20.4339  -12.1175 C   0  0  0  0  0  0  0  0  0  0  0  0
   19.0446  -20.5533  -12.7858 O   0  0  0  0  0  0  0  0  0  0  0  0
   18.8902  -23.7302  -10.1366 O   0  0  0  0  0  0  0  0  0  0  0  0
   20.4961  -19.3730  -11.5284 O   0  0  0  0  0  0  0  0  0  0  0  0
  2  1  1  6
  3  2  1  0
  3  4  1  0
  4  5  2  0
  6  5  1  0
  7  6  1  0
  8  7  2  0
  9  8  1  0
 10 11  1  0
 10  9  2  0
 11 12  2  0
 12  7  1  0
 12  4  1  0
 13 15  1  0
 13  2  1  0
 14 13  2  0
 16 15  1  0
 17 19  1  0
 17 16  1  0
 18 17  2  0
 20 19  1  0
 20 21  1  1
 22 21  1  0
 22 26  1  0
 23 22  2  0
 24 25  1  0
 24 20  1  0
 27 24  2  0
M  END
$$$$
