WGD.pdb
     RDKit          3D

 27 28  0  0  1  0  0  0  0  0999 V2000
   25.3891  -21.8567  -13.5210 N   0  0  0  0  0  0  0  0  0  0  0  0
   24.9617  -21.2632  -12.2972 C   0  0  1  0  0  0  0  0  0  0  0  0
   25.7858  -20.0606  -11.9712 C   0  0  0  0  0  0  0  0  0  0  0  0
   27.1077  -20.4003  -11.3964 C   0  0  0  0  0  0  0  0  0  0  0  0
   28.2670  -20.7108  -12.1210 C   0  0  0  0  0  0  0  0  0  0  0  0
   29.2548  -20.9885  -11.2636 N   0  0  0  0  0  0  0  0  0  0  0  0
   28.8164  -20.8795   -9.9906 C   0  0  0  0  0  0  0  0  0  0  0  0
   29.4189  -21.0487   -8.7545 C   0  0  0  0  0  0  0  0  0  0  0  0
   28.7198  -20.8599   -7.5982 C   0  0  0  0  0  0  0  0  0  0  0  0
   27.4021  -20.4971   -7.6572 C   0  0  0  0  0  0  0  0  0  0  0  0
   26.8116  -20.3314   -8.8974 C   0  0  0  0  0  0  0  0  0  0  0  0
   27.4846  -20.5140  -10.0840 C   0  0  0  0  0  0  0  0  0  0  0  0
   23.5190  -20.9126  -12.4407 C   0  0  0  0  0  0  0  0  0  0  0  0
   23.1425  -19.7762  -12.8371 O   0  0  0  0  0  0  0  0  0  0  0  0
   22.5108  -21.8945  -12.1192 N   0  0  0  0  0  0  0  0  0  0  0  0
   21.2347  -21.4472  -11.7103 C   0  0  0  0  0  0  0  0  0  0  0  0
   20.3405  -22.6041  -11.3838 C   0  0  0  0  0  0  0  0  0  0  0  0
   20.4299  -23.6586  -12.1042 O   0  0  0  0  0  0  0  0  0  0  0  0
   19.4245  -22.5439  -10.3252 N   0  0  0  0  0  0  0  0  0  0  0  0
   18.5007  -23.5835   -9.9540 C   0  0  1  0  0  0  0  0  0  0  0  0
   17.9530  -23.5288   -8.5559 C   0  0  0  0  0  0  0  0  0  0  0  0
   19.0641  -23.7124   -7.5915 C   0  0  0  0  0  0  0  0  0  0  0  0
   20.2790  -23.8414   -7.9321 O   0  0  0  0  0  0  0  0  0  0  0  0
   17.5663  -23.9835  -10.9898 C   0  0  0  0  0  0  0  0  0  0  0  0
   17.4457  -25.3212  -11.3300 O   0  0  0  0  0  0  0  0  0  0  0  0
   18.8248  -23.7547   -6.2134 O   0  0  0  0  0  0  0  0  0  0  0  0
   16.8632  -23.1589  -11.5881 O   0  0  0  0  0  0  0  0  0  0  0  0
  2  1  1  6
  3  2  1  0
  3  4  1  0
  4  5  2  0
  6  5  1  0
  7  6  1  0
  8  7  2  0
  9  8  1  0
 10 11  1  0
 10  9  2  0
 11 12  2  0
 12  7  1  0
 12  4  1  0
 13 15  1  0
 13  2  1  0
 14 13  2  0
 16 15  1  0
 17 19  1  0
 17 16  1  0
 18 17  2  0
 20 19  1  0
 20 21  1  1
 22 21  1  0
 22 26  1  0
 23 22  2  0
 24 25  1  0
 24 20  1  0
 27 24  2  0
M  END
$$$$
