TNA.pdb
     RDKit          3D

 21 20  0  0  1  0  0  0  0  0999 V2000
   -0.2413  -22.0602   25.8223 C   0  0  0  0  0  0  0  0  0  0  0  0
   -0.7620  -22.2738   24.4183 C   0  0  1  0  0  0  0  0  0  0  0  0
   -0.0541  -23.3051   23.8029 O   0  0  0  0  0  0  0  0  0  0  0  0
   -2.2366  -22.6126   24.5371 C   0  0  2  0  0  0  0  0  0  0  0  0
   -2.8324  -21.5350   25.2997 N   0  0  0  0  0  0  0  0  0  0  0  0
   -2.4293  -23.8814   25.3243 C   0  0  0  0  0  0  0  0  0  0  0  0
   -2.2289  -24.9566   24.7431 O   0  0  0  0  0  0  0  0  0  0  0  0
   -1.0302  -26.7682   27.2221 N   0  0  0  0  0  0  0  0  0  0  0  0
   -1.0614  -26.0876   28.4684 C   0  0  0  0  0  0  0  0  0  0  0  0
   -0.1244  -26.3932   29.2771 O   0  0  0  0  0  0  0  0  0  0  0  0
   -2.1201  -25.1353   28.7088 C   0  0  0  0  0  0  0  0  0  0  0  0
   -3.0971  -24.8640   27.6060 C   0  0  2  0  0  0  0  0  0  0  0  0
   -2.8205  -23.8511   26.6709 N   0  0  0  0  0  0  0  0  0  0  0  0
   -4.4523  -24.9047   28.1732 C   0  0  0  0  0  0  0  0  0  0  0  0
   -4.9135  -23.9673   28.8945 O   0  0  0  0  0  0  0  0  0  0  0  0
   -7.5569  -27.0452   27.8836 C   0  0  0  0  0  0  0  0  0  0  0  0
   -6.6925  -25.9926   28.5720 C   0  0  2  0  0  0  0  0  0  0  0  0
   -5.3681  -25.9941   27.9644 N   0  0  0  0  0  0  0  0  0  0  0  0
   -6.6079  -26.2126   30.0337 C   0  0  0  0  0  0  0  0  0  0  0  0
   -7.6193  -26.0166   30.7500 O   0  0  0  0  0  0  0  0  0  0  0  0
   -5.4570  -26.6310   30.6864 O   0  0  0  0  0  0  0  0  0  0  0  0
  2  1  1  1
  2  3  1  0
  2  4  1  0
  4  5  1  1
  6  4  1  0
  6 13  1  0
  7  6  2  0
  8  9  1  0
  9 10  2  0
 12 11  1  1
 11  9  1  0
 12 13  1  0
 12 14  1  0
 14 18  1  0
 15 14  2  0
 17 19  1  0
 17 16  1  6
 18 17  1  0
 19 21  1  0
 20 19  2  0
M  END
$$$$
