TNA.pdb
     RDKit          3D

 21 20  0  0  1  0  0  0  0  0999 V2000
   -7.3999  -29.8123   27.2279 C   0  0  0  0  0  0  0  0  0  0  0  0
   -6.0147  -29.2048   27.2249 C   0  0  1  0  0  0  0  0  0  0  0  0
   -5.3792  -29.4816   26.0154 O   0  0  0  0  0  0  0  0  0  0  0  0
   -6.1835  -27.7103   27.4287 C   0  0  2  0  0  0  0  0  0  0  0  0
   -4.8820  -27.1253   27.1804 N   0  0  0  0  0  0  0  0  0  0  0  0
   -6.5486  -27.4061   28.8573 C   0  0  0  0  0  0  0  0  0  0  0  0
   -7.6238  -27.8484   29.2843 O   0  0  0  0  0  0  0  0  0  0  0  0
   -4.8783  -28.7697   31.5799 N   0  0  0  0  0  0  0  0  0  0  0  0
   -4.2256  -27.6813   32.2178 C   0  0  0  0  0  0  0  0  0  0  0  0
   -3.2526  -28.0015   32.9768 O   0  0  0  0  0  0  0  0  0  0  0  0
   -4.7043  -26.3431   31.9619 C   0  0  0  0  0  0  0  0  0  0  0  0
   -5.8333  -26.1643   30.9936 C   0  0  2  0  0  0  0  0  0  0  0  0
   -5.7016  -26.6498   29.6807 N   0  0  0  0  0  0  0  0  0  0  0  0
   -6.3682  -24.8053   31.1583 C   0  0  0  0  0  0  0  0  0  0  0  0
   -6.6937  -24.3380   32.2929 O   0  0  0  0  0  0  0  0  0  0  0  0
   -6.7279  -21.6623   29.1142 C   0  0  0  0  0  0  0  0  0  0  0  0
   -7.1171  -22.5609   30.2846 C   0  0  2  0  0  0  0  0  0  0  0  0
   -6.5673  -23.8922   30.0647 N   0  0  0  0  0  0  0  0  0  0  0  0
   -8.5838  -22.6162   30.4788 C   0  0  0  0  0  0  0  0  0  0  0  0
   -9.2170  -23.6429   30.1331 O   0  0  0  0  0  0  0  0  0  0  0  0
   -9.3293  -21.5840   31.0307 O   0  0  0  0  0  0  0  0  0  0  0  0
  2  1  1  6
  2  3  1  0
  2  4  1  0
  4  5  1  1
  6  4  1  0
  6 13  1  0
  7  6  2  0
  8  9  1  0
  9 10  2  0
 12 11  1  6
 11  9  1  0
 12 13  1  0
 12 14  1  0
 14 18  1  0
 15 14  2  0
 17 19  1  0
 17 16  1  6
 18 17  1  0
 19 21  1  0
 20 19  2  0
M  END
$$$$
