TNA.pdb
     RDKit          3D

 21 20  0  0  1  0  0  0  0  0999 V2000
    9.3040  -12.7733   19.9181 C   0  0  0  0  0  0  0  0  0  0  0  0
    8.1463  -13.1263   19.0109 C   0  0  1  0  0  0  0  0  0  0  0  0
    7.7400  -11.9973   18.3012 O   0  0  0  0  0  0  0  0  0  0  0  0
    8.6304  -14.2196   18.0761 C   0  0  2  0  0  0  0  0  0  0  0  0
    7.5247  -14.4982   17.1831 N   0  0  0  0  0  0  0  0  0  0  0  0
    8.9209  -15.4835   18.8409 C   0  0  0  0  0  0  0  0  0  0  0  0
    7.9567  -16.1362   19.2634 O   0  0  0  0  0  0  0  0  0  0  0  0
   11.5685  -20.0003   19.8035 N   0  0  0  0  0  0  0  0  0  0  0  0
   12.4615  -18.8964   19.8403 C   0  0  0  0  0  0  0  0  0  0  0  0
   13.5811  -19.1228   20.4063 O   0  0  0  0  0  0  0  0  0  0  0  0
   12.0395  -17.6469   19.2519 C   0  0  0  0  0  0  0  0  0  0  0  0
   10.7754  -17.0164   19.7509 C   0  0  2  0  0  0  0  0  0  0  0  0
   10.2371  -15.9119   19.0675 N   0  0  0  0  0  0  0  0  0  0  0  0
   10.8537  -16.9287   21.2160 C   0  0  0  0  0  0  0  0  0  0  0  0
   11.0780  -17.9438   21.9446 O   0  0  0  0  0  0  0  0  0  0  0  0
    9.3415  -16.2475   23.8952 C   0  0  0  0  0  0  0  0  0  0  0  0
   10.6744  -15.6890   23.4050 C   0  0  2  0  0  0  0  0  0  0  0  0
   10.6878  -15.7017   21.9481 N   0  0  0  0  0  0  0  0  0  0  0  0
   11.8267  -16.4388   23.9546 C   0  0  0  0  0  0  0  0  0  0  0  0
   12.0450  -16.4225   25.1901 O   0  0  0  0  0  0  0  0  0  0  0  0
   12.7079  -17.1784   23.1786 O   0  0  0  0  0  0  0  0  0  0  0  0
  2  1  1  1
  2  3  1  0
  2  4  1  0
  4  5  1  6
  6  4  1  0
  6 13  1  0
  7  6  2  0
  8  9  1  0
  9 10  2  0
 12 11  1  6
 11  9  1  0
 12 13  1  0
 12 14  1  0
 14 18  1  0
 15 14  2  0
 17 19  1  0
 17 16  1  1
 18 17  1  0
 19 21  1  0
 20 19  2  0
M  END
$$$$
