TNA.pdb
     RDKit          3D

 21 20  0  0  1  0  0  0  0  0999 V2000
   10.8775  -15.3667   17.9784 C   0  0  0  0  0  0  0  0  0  0  0  0
   10.0323  -14.1135   18.0313 C   0  0  1  0  0  0  0  0  0  0  0  0
    9.6026  -13.7780   16.7483 O   0  0  0  0  0  0  0  0  0  0  0  0
    8.8574  -14.4071   18.9462 C   0  0  2  0  0  0  0  0  0  0  0  0
    8.0532  -13.2027   18.9603 N   0  0  0  0  0  0  0  0  0  0  0  0
    9.3283  -14.6504   20.3554 C   0  0  0  0  0  0  0  0  0  0  0  0
    9.6911  -13.6699   21.0195 O   0  0  0  0  0  0  0  0  0  0  0  0
   10.8679  -17.4043   24.5812 N   0  0  0  0  0  0  0  0  0  0  0  0
    9.8406  -18.1593   23.9551 C   0  0  0  0  0  0  0  0  0  0  0  0
    9.4457  -19.1822   24.6055 O   0  0  0  0  0  0  0  0  0  0  0  0
    9.3441  -17.7192   22.6724 C   0  0  0  0  0  0  0  0  0  0  0  0
    9.9142  -16.4665   22.0805 C   0  0  2  0  0  0  0  0  0  0  0  0
    9.3547  -15.9418   20.9021 N   0  0  0  0  0  0  0  0  0  0  0  0
   11.3798  -16.5519   22.1499 C   0  0  0  0  0  0  0  0  0  0  0  0
   11.9917  -16.8392   23.2244 O   0  0  0  0  0  0  0  0  0  0  0  0
   14.0693  -17.5674   20.0133 C   0  0  0  0  0  0  0  0  0  0  0  0
   13.6753  -16.5768   21.1052 C   0  0  2  0  0  0  0  0  0  0  0  0
   12.2429  -16.3231   21.0221 N   0  0  0  0  0  0  0  0  0  0  0  0
   14.4454  -15.3156   21.0153 C   0  0  0  0  0  0  0  0  0  0  0  0
   13.9409  -14.3203   20.4413 O   0  0  0  0  0  0  0  0  0  0  0  0
   15.7218  -15.1512   21.5345 O   0  0  0  0  0  0  0  0  0  0  0  0
  2  1  1  6
  2  3  1  0
  2  4  1  0
  4  5  1  1
  6  4  1  0
  6 13  1  0
  7  6  2  0
  8  9  1  0
  9 10  2  0
 12 11  1  6
 11  9  1  0
 12 13  1  0
 12 14  1  0
 14 18  1  0
 15 14  2  0
 17 19  1  0
 17 16  1  6
 18 17  1  0
 19 21  1  0
 20 19  2  0
M  END
$$$$
