TNA.pdb
     RDKit          3D

 21 20  0  0  1  0  0  0  0  0999 V2000
    8.8282  -12.7263   19.4148 C   0  0  0  0  0  0  0  0  0  0  0  0
    7.9322  -13.2896   18.3342 C   0  0  1  0  0  0  0  0  0  0  0  0
    7.5774  -12.2807   17.4401 O   0  0  0  0  0  0  0  0  0  0  0  0
    8.7108  -14.3920   17.6399 C   0  0  2  0  0  0  0  0  0  0  0  0
    7.8652  -14.8570   16.5599 N   0  0  0  0  0  0  0  0  0  0  0  0
    8.9322  -15.5544   18.5708 C   0  0  0  0  0  0  0  0  0  0  0  0
    7.9679  -16.2943   18.8089 O   0  0  0  0  0  0  0  0  0  0  0  0
   10.0611  -18.4676   17.8343 N   0  0  0  0  0  0  0  0  0  0  0  0
   11.3518  -18.5875   18.4149 C   0  0  0  0  0  0  0  0  0  0  0  0
   12.1272  -19.4242   17.8457 O   0  0  0  0  0  0  0  0  0  0  0  0
   11.6688  -17.7766   19.5670 C   0  0  0  0  0  0  0  0  0  0  0  0
   10.6531  -16.7810   20.0376 C   0  0  2  0  0  0  0  0  0  0  0  0
   10.1870  -15.7961   19.1490 N   0  0  0  0  0  0  0  0  0  0  0  0
   11.0308  -16.3440   21.3891 C   0  0  0  0  0  0  0  0  0  0  0  0
   11.9284  -15.4696   21.5925 O   0  0  0  0  0  0  0  0  0  0  0  0
    9.6630  -16.4626   24.8607 C   0  0  0  0  0  0  0  0  0  0  0  0
   10.8503  -16.3992   23.9042 C   0  0  2  0  0  0  0  0  0  0  0  0
   10.4252  -16.8582   22.5882 N   0  0  0  0  0  0  0  0  0  0  0  0
   12.0029  -17.1875   24.3962 C   0  0  0  0  0  0  0  0  0  0  0  0
   12.5517  -16.8736   25.4801 O   0  0  0  0  0  0  0  0  0  0  0  0
   12.5351  -18.2792   23.7248 O   0  0  0  0  0  0  0  0  0  0  0  0
  2  1  1  1
  2  3  1  0
  2  4  1  0
  4  5  1  6
  6  4  1  0
  6 13  1  0
  7  6  2  0
  8  9  1  0
  9 10  2  0
 12 11  1  6
 11  9  1  0
 12 13  1  0
 12 14  1  0
 14 18  1  0
 15 14  2  0
 17 19  1  0
 17 16  1  1
 18 17  1  0
 19 21  1  0
 20 19  2  0
M  END
$$$$
