TNA.pdb
     RDKit          3D

 21 20  0  0  1  0  0  0  0  0999 V2000
    8.3607  -12.3042   19.4656 C   0  0  0  0  0  0  0  0  0  0  0  0
    8.1485  -13.7224   18.9844 C   0  0  1  0  0  0  0  0  0  0  0  0
    7.0055  -13.7861   18.1889 O   0  0  0  0  0  0  0  0  0  0  0  0
    9.3871  -14.1168   18.2011 C   0  0  2  0  0  0  0  0  0  0  0  0
    9.1737  -15.4868   17.7823 N   0  0  0  0  0  0  0  0  0  0  0  0
   10.6043  -14.1013   19.0870 C   0  0  0  0  0  0  0  0  0  0  0  0
   11.0008  -13.0041   19.5028 O   0  0  0  0  0  0  0  0  0  0  0  0
   14.4759  -13.6686   17.8787 N   0  0  0  0  0  0  0  0  0  0  0  0
   14.2273  -14.8797   18.5779 C   0  0  0  0  0  0  0  0  0  0  0  0
   14.5167  -15.9443   17.9391 O   0  0  0  0  0  0  0  0  0  0  0  0
   13.6832  -14.8068   19.9136 C   0  0  0  0  0  0  0  0  0  0  0  0
   12.4139  -15.5468   20.2064 C   0  0  2  0  0  0  0  0  0  0  0  0
   11.2683  -15.2871   19.4339 N   0  0  0  0  0  0  0  0  0  0  0  0
   12.2432  -15.6060   21.6650 C   0  0  0  0  0  0  0  0  0  0  0  0
   13.2269  -15.7291   22.4580 O   0  0  0  0  0  0  0  0  0  0  0  0
    9.5746  -14.9586   24.2280 C   0  0  0  0  0  0  0  0  0  0  0  0
   10.8474  -15.6618   23.7649 C   0  0  2  0  0  0  0  0  0  0  0  0
   10.9642  -15.5287   22.3186 N   0  0  0  0  0  0  0  0  0  0  0  0
   10.8756  -17.0848   24.1726 C   0  0  0  0  0  0  0  0  0  0  0  0
   10.9230  -17.3800   25.3913 O   0  0  0  0  0  0  0  0  0  0  0  0
   10.8538  -18.1452   23.2777 O   0  0  0  0  0  0  0  0  0  0  0  0
  2  1  1  6
  2  3  1  0
  2  4  1  0
  4  5  1  1
  6  4  1  0
  6 13  1  0
  7  6  2  0
  8  9  1  0
  9 10  2  0
 12 11  1  1
 11  9  1  0
 12 13  1  0
 12 14  1  0
 14 18  1  0
 15 14  2  0
 17 19  1  0
 17 16  1  6
 18 17  1  0
 19 21  1  0
 20 19  2  0
M  END
$$$$
