TNA.pdb
     RDKit          3D

 21 20  0  0  1  0  0  0  0  0999 V2000
    8.6238  -12.6449   19.5903 C   0  0  0  0  0  0  0  0  0  0  0  0
    7.9946  -13.3486   18.4084 C   0  0  1  0  0  0  0  0  0  0  0  0
    7.7727  -12.4365   17.3778 O   0  0  0  0  0  0  0  0  0  0  0  0
    8.9549  -14.4424   17.9785 C   0  0  2  0  0  0  0  0  0  0  0  0
    8.3428  -15.0814   16.8319 N   0  0  0  0  0  0  0  0  0  0  0  0
    9.0904  -15.4852   19.0560 C   0  0  0  0  0  0  0  0  0  0  0  0
    8.0837  -16.1438   19.3508 O   0  0  0  0  0  0  0  0  0  0  0  0
   11.5528  -19.4299   19.7218 N   0  0  0  0  0  0  0  0  0  0  0  0
   12.1946  -18.1629   19.7043 C   0  0  0  0  0  0  0  0  0  0  0  0
   12.9395  -17.9459   18.6928 O   0  0  0  0  0  0  0  0  0  0  0  0
   11.9577  -17.2536   20.8009 C   0  0  0  0  0  0  0  0  0  0  0  0
   10.6730  -16.4830   20.8214 C   0  0  2  0  0  0  0  0  0  0  0  0
   10.3138  -15.7079   19.7048 N   0  0  0  0  0  0  0  0  0  0  0  0
   10.5319  -15.8616   22.1458 C   0  0  0  0  0  0  0  0  0  0  0  0
   11.3912  -15.0497   22.6085 O   0  0  0  0  0  0  0  0  0  0  0  0
    7.8819  -14.9417   24.4966 C   0  0  0  0  0  0  0  0  0  0  0  0
    9.3136  -15.4369   24.3130 C   0  0  2  0  0  0  0  0  0  0  0  0
    9.4218  -16.1112   23.0259 N   0  0  0  0  0  0  0  0  0  0  0  0
    9.7397  -16.3263   25.4173 C   0  0  0  0  0  0  0  0  0  0  0  0
    9.9254  -17.5470   25.1941 O   0  0  0  0  0  0  0  0  0  0  0  0
    9.9536  -15.8940   26.7185 O   0  0  0  0  0  0  0  0  0  0  0  0
  2  1  1  1
  2  3  1  0
  2  4  1  0
  4  5  1  6
  6  4  1  0
  6 13  1  0
  7  6  2  0
  8  9  1  0
  9 10  2  0
 12 11  1  6
 11  9  1  0
 12 13  1  0
 12 14  1  0
 14 18  1  0
 15 14  2  0
 17 19  1  0
 17 16  1  1
 18 17  1  0
 19 21  1  0
 20 19  2  0
M  END
$$$$
