QQL.pdb
     RDKit          3D

 27 26  0  0  1  0  0  0  0  0999 V2000
   18.2830  -21.6606  -10.5809 N   0  0  0  0  0  0  0  0  0  0  0  0
   17.9733  -20.7614  -11.6451 C   0  0  0  0  0  0  0  0  0  0  0  0
   16.8555  -20.2572  -11.6770 O   0  0  0  0  0  0  0  0  0  0  0  0
   18.9997  -20.4860  -12.6509 C   0  0  0  0  0  0  0  0  0  0  0  0
   20.2908  -21.1530  -12.3434 C   0  0  0  0  0  0  0  0  0  0  0  0
   21.2066  -20.3319  -11.4999 C   0  0  2  0  0  0  0  0  0  0  0  0
   21.4861  -19.0171  -11.9299 N   0  0  0  0  0  0  0  0  0  0  0  0
   22.4359  -21.1796  -11.2694 C   0  0  0  0  0  0  0  0  0  0  0  0
   22.3417  -22.3557  -11.6570 O   0  0  0  0  0  0  0  0  0  0  0  0
   25.8603  -22.2758  -14.8436 N   0  0  0  0  0  0  0  0  0  0  0  0
   26.9553  -22.0041  -13.9946 C   0  0  0  0  0  0  0  0  0  0  0  0
   28.1233  -22.2432  -14.3677 O   0  0  0  0  0  0  0  0  0  0  0  0
   26.7233  -21.4348  -12.6588 C   0  0  0  0  0  0  0  0  0  0  0  0
   25.2566  -21.1993  -12.3872 C   0  0  0  0  0  0  0  0  0  0  0  0
   24.9615  -20.9927  -10.9499 C   0  0  2  0  0  0  0  0  0  0  0  0
   23.5860  -20.6886  -10.6695 N   0  0  0  0  0  0  0  0  0  0  0  0
   25.9017  -20.2546  -10.1355 C   0  0  0  0  0  0  0  0  0  0  0  0
   25.9992  -19.0109  -10.3731 O   0  0  0  0  0  0  0  0  0  0  0  0
   27.9683  -20.5528   -4.8625 C   0  0  0  0  0  0  0  0  0  0  0  0
   27.6303  -20.0190   -6.2213 C   0  0  1  0  0  0  0  0  0  0  0  0
   27.8006  -18.5154   -6.1343 C   0  0  0  0  0  0  0  0  0  0  0  0
   28.2650  -20.6513   -7.3608 C   0  0  0  0  0  0  0  0  0  0  0  0
   28.0572  -20.3040   -8.7604 C   0  0  2  0  0  0  0  0  0  0  0  0
   26.7087  -20.7777   -9.1174 N   0  0  0  0  0  0  0  0  0  0  0  0
   29.0513  -20.7328   -9.7068 C   0  0  0  0  0  0  0  0  0  0  0  0
   30.2436  -20.1238  -10.0229 O   0  0  0  0  0  0  0  0  0  0  0  0
   28.8246  -21.8150  -10.3630 O   0  0  0  0  0  0  0  0  0  0  0  0
  2  3  2  0
  2  1  1  0
  4  2  1  0
  5  4  1  0
  5  6  1  0
  6  8  1  0
  6  7  1  6
  8  9  2  0
 10 11  1  0
 11 13  1  0
 12 11  2  0
 13 14  1  0
 15 14  1  6
 16 15  1  0
 16  8  1  0
 17 24  1  0
 17 15  1  0
 18 17  2  0
 20 19  1  1
 20 21  1  0
 22 20  1  0
 23 22  1  1
 23 24  1  0
 25 26  1  0
 25 23  1  0
 27 25  2  0
M  END
$$$$
