QQL.pdb
     RDKit          3D

 27 26  0  0  1  0  0  0  0  0999 V2000
   24.1376  -32.4093  -13.2794 N   0  0  0  0  0  0  0  0  0  0  0  0
   23.6774  -33.2704  -14.3204 C   0  0  0  0  0  0  0  0  0  0  0  0
   24.3059  -33.3013  -15.3734 O   0  0  0  0  0  0  0  0  0  0  0  0
   22.4760  -34.0724  -14.0866 C   0  0  0  0  0  0  0  0  0  0  0  0
   21.9135  -33.8710  -12.7267 C   0  0  0  0  0  0  0  0  0  0  0  0
   22.2657  -34.9537  -11.7633 C   0  0  2  0  0  0  0  0  0  0  0  0
   21.6930  -36.2261  -11.9741 N   0  0  0  0  0  0  0  0  0  0  0  0
   22.0157  -34.3855  -10.3857 C   0  0  0  0  0  0  0  0  0  0  0  0
   21.0742  -34.9075   -9.7665 O   0  0  0  0  0  0  0  0  0  0  0  0
   26.5462  -32.3888   -8.9333 N   0  0  0  0  0  0  0  0  0  0  0  0
   26.1544  -33.4324   -8.0667 C   0  0  0  0  0  0  0  0  0  0  0  0
   26.9476  -34.3551   -7.7840 O   0  0  0  0  0  0  0  0  0  0  0  0
   24.8018  -33.4370   -7.4898 C   0  0  0  0  0  0  0  0  0  0  0  0
   23.9644  -32.2854   -7.9928 C   0  0  0  0  0  0  0  0  0  0  0  0
   22.6684  -32.7204   -8.5644 C   0  0  2  0  0  0  0  0  0  0  0  0
   22.7755  -33.3577   -9.8472 N   0  0  0  0  0  0  0  0  0  0  0  0
   21.5147  -31.8580   -8.4339 C   0  0  0  0  0  0  0  0  0  0  0  0
   21.2978  -31.3765   -7.2790 O   0  0  0  0  0  0  0  0  0  0  0  0
   20.3944  -28.5502  -12.6863 C   0  0  0  0  0  0  0  0  0  0  0  0
   20.6488  -29.1204  -11.3241 C   0  0  1  0  0  0  0  0  0  0  0  0
   21.2857  -28.0067  -10.5168 C   0  0  0  0  0  0  0  0  0  0  0  0
   19.5501  -29.8081  -10.6753 C   0  0  0  0  0  0  0  0  0  0  0  0
   19.5933  -30.4538   -9.3700 C   0  0  2  0  0  0  0  0  0  0  0  0
   20.6209  -31.5062   -9.4531 N   0  0  0  0  0  0  0  0  0  0  0  0
   18.3549  -30.9459   -8.8300 C   0  0  0  0  0  0  0  0  0  0  0  0
   17.2906  -30.2215   -8.3452 O   0  0  0  0  0  0  0  0  0  0  0  0
   18.1924  -32.2201   -8.7718 O   0  0  0  0  0  0  0  0  0  0  0  0
  2  3  2  0
  2  1  1  0
  4  2  1  0
  5  4  1  0
  5  6  1  0
  6  8  1  0
  6  7  1  6
  8  9  2  0
 10 11  1  0
 11 13  1  0
 12 11  2  0
 13 14  1  0
 15 14  1  6
 16 15  1  0
 16  8  1  0
 17 24  1  0
 17 15  1  0
 18 17  2  0
 20 19  1  6
 20 21  1  0
 22 20  1  0
 23 22  1  6
 23 24  1  0
 25 26  1  0
 25 23  1  0
 27 25  2  0
M  END
$$$$
