QQL.pdb
     RDKit          3D

 27 26  0  0  1  0  0  0  0  0999 V2000
   28.3066  -26.8243  -16.3537 N   0  0  0  0  0  0  0  0  0  0  0  0
   26.9951  -26.2738  -16.2362 C   0  0  0  0  0  0  0  0  0  0  0  0
   26.5367  -26.0915  -15.1131 O   0  0  0  0  0  0  0  0  0  0  0  0
   26.2560  -25.9570  -17.4587 C   0  0  0  0  0  0  0  0  0  0  0  0
   25.2570  -24.8768  -17.2556 C   0  0  0  0  0  0  0  0  0  0  0  0
   25.8494  -23.5877  -16.7956 C   0  0  2  0  0  0  0  0  0  0  0  0
   27.1686  -23.6180  -16.2950 N   0  0  0  0  0  0  0  0  0  0  0  0
   24.8434  -22.9800  -15.8460 C   0  0  0  0  0  0  0  0  0  0  0  0
   23.6944  -22.8651  -16.3029 O   0  0  0  0  0  0  0  0  0  0  0  0
   25.9922  -21.3153   -9.8192 N   0  0  0  0  0  0  0  0  0  0  0  0
   24.6601  -20.8829   -9.9983 C   0  0  0  0  0  0  0  0  0  0  0  0
   24.0725  -20.2458   -9.0987 O   0  0  0  0  0  0  0  0  0  0  0  0
   23.9546  -21.1830  -11.2531 C   0  0  0  0  0  0  0  0  0  0  0  0
   24.8117  -21.9731  -12.2131 C   0  0  0  0  0  0  0  0  0  0  0  0
   24.4100  -21.7932  -13.6280 C   0  0  2  0  0  0  0  0  0  0  0  0
   25.1715  -22.5773  -14.5600 N   0  0  0  0  0  0  0  0  0  0  0  0
   24.0862  -20.4672  -14.1064 C   0  0  0  0  0  0  0  0  0  0  0  0
   23.0934  -19.8962  -13.5576 O   0  0  0  0  0  0  0  0  0  0  0  0
   26.9474  -15.4755  -15.5158 C   0  0  0  0  0  0  0  0  0  0  0  0
   25.7087  -16.2132  -15.9239 C   0  0  1  0  0  0  0  0  0  0  0  0
   25.5545  -15.9800  -17.4137 C   0  0  0  0  0  0  0  0  0  0  0  0
   25.5843  -17.5922  -15.4947 C   0  0  0  0  0  0  0  0  0  0  0  0
   24.3929  -18.4227  -15.6115 C   0  0  2  0  0  0  0  0  0  0  0  0
   24.7587  -19.7588  -15.1100 N   0  0  0  0  0  0  0  0  0  0  0  0
   23.7471  -18.4828  -16.8948 C   0  0  0  0  0  0  0  0  0  0  0  0
   24.0464  -19.2997  -17.9605 O   0  0  0  0  0  0  0  0  0  0  0  0
   22.7663  -17.6794  -17.1088 O   0  0  0  0  0  0  0  0  0  0  0  0
  2  3  2  0
  2  1  1  0
  4  2  1  0
  5  4  1  0
  5  6  1  0
  6  8  1  0
  6  7  1  1
  8  9  2  0
 10 11  1  0
 11 13  1  0
 12 11  2  0
 13 14  1  0
 15 14  1  1
 16 15  1  0
 16  8  1  0
 17 24  1  0
 17 15  1  0
 18 17  2  0
 20 19  1  6
 20 21  1  0
 22 20  1  0
 23 22  1  6
 23 24  1  0
 25 26  1  0
 25 23  1  0
 27 25  2  0
M  END
$$$$
