QQL.pdb
     RDKit          3D

 27 26  0  0  1  0  0  0  0  0999 V2000
   19.2689  -10.4447  -19.9497 N   0  0  0  0  0  0  0  0  0  0  0  0
   17.8758  -10.2168  -20.1604 C   0  0  0  0  0  0  0  0  0  0  0  0
   17.5222   -9.6924  -21.2113 O   0  0  0  0  0  0  0  0  0  0  0  0
   16.9346  -10.6139  -19.1127 C   0  0  0  0  0  0  0  0  0  0  0  0
   17.1487   -9.8711  -17.8444 C   0  0  0  0  0  0  0  0  0  0  0  0
   15.9484   -9.1192  -17.3773 C   0  0  2  0  0  0  0  0  0  0  0  0
   15.1871   -8.4366  -18.3499 N   0  0  0  0  0  0  0  0  0  0  0  0
   16.4192   -8.2454  -16.2379 C   0  0  0  0  0  0  0  0  0  0  0  0
   16.7027   -7.0786  -16.5549 O   0  0  0  0  0  0  0  0  0  0  0  0
   14.8188   -9.3259  -10.3222 N   0  0  0  0  0  0  0  0  0  0  0  0
   15.8035  -10.1872  -10.8535 C   0  0  0  0  0  0  0  0  0  0  0  0
   16.0526  -11.2819  -10.3058 O   0  0  0  0  0  0  0  0  0  0  0  0
   16.5445   -9.7961  -12.0619 C   0  0  0  0  0  0  0  0  0  0  0  0
   16.1811   -8.4063  -12.5277 C   0  0  0  0  0  0  0  0  0  0  0  0
   16.9163   -7.9953  -13.7467 C   0  0  2  0  0  0  0  0  0  0  0  0
   16.5301   -8.7052  -14.9341 N   0  0  0  0  0  0  0  0  0  0  0  0
   18.3354   -7.7301  -13.6591 C   0  0  0  0  0  0  0  0  0  0  0  0
   18.7129   -6.9904  -12.6983 O   0  0  0  0  0  0  0  0  0  0  0  0
   23.3517  -10.8445  -14.1407 C   0  0  0  0  0  0  0  0  0  0  0  0
   22.8680   -9.4456  -14.3741 C   0  0  1  0  0  0  0  0  0  0  0  0
   23.5594   -8.9689  -15.6360 C   0  0  0  0  0  0  0  0  0  0  0  0
   21.4368   -9.2204  -14.3269 C   0  0  0  0  0  0  0  0  0  0  0  0
   20.7680   -7.9296  -14.4222 C   0  0  2  0  0  0  0  0  0  0  0  0
   19.3251   -8.2082  -14.5270 N   0  0  0  0  0  0  0  0  0  0  0  0
   21.2202   -7.0196  -15.4396 C   0  0  0  0  0  0  0  0  0  0  0  0
   22.1450   -6.0075  -15.3257 O   0  0  0  0  0  0  0  0  0  0  0  0
   20.7103   -7.1348  -16.6144 O   0  0  0  0  0  0  0  0  0  0  0  0
  2  3  2  0
  2  1  1  0
  4  2  1  0
  5  4  1  0
  5  6  1  0
  6  8  1  0
  6  7  1  6
  8  9  2  0
 10 11  1  0
 11 13  1  0
 12 11  2  0
 13 14  1  0
 15 14  1  1
 16 15  1  0
 16  8  1  0
 17 24  1  0
 17 15  1  0
 18 17  2  0
 20 19  1  6
 20 21  1  0
 22 20  1  0
 23 22  1  6
 23 24  1  0
 25 26  1  0
 25 23  1  0
 27 25  2  0
M  END
$$$$
