QQL.pdb
     RDKit          3D

 27 26  0  0  1  0  0  0  0  0999 V2000
   20.5890  -17.2305  -14.4590 N   0  0  0  0  0  0  0  0  0  0  0  0
   21.1453  -18.1429  -15.4051 C   0  0  0  0  0  0  0  0  0  0  0  0
   21.0581  -19.3451  -15.1780 O   0  0  0  0  0  0  0  0  0  0  0  0
   21.7977  -17.6034  -16.5986 C   0  0  0  0  0  0  0  0  0  0  0  0
   21.8030  -16.1183  -16.6219 C   0  0  0  0  0  0  0  0  0  0  0  0
   21.0044  -15.5310  -17.7362 C   0  0  2  0  0  0  0  0  0  0  0  0
   21.2782  -15.9842  -19.0443 N   0  0  0  0  0  0  0  0  0  0  0  0
   21.0955  -14.0317  -17.5714 C   0  0  0  0  0  0  0  0  0  0  0  0
   22.0847  -13.5049  -18.1065 O   0  0  0  0  0  0  0  0  0  0  0  0
   16.3554  -10.2185  -15.6784 N   0  0  0  0  0  0  0  0  0  0  0  0
   17.4670   -9.3479  -15.6663 C   0  0  0  0  0  0  0  0  0  0  0  0
   17.3165   -8.1284  -15.4414 O   0  0  0  0  0  0  0  0  0  0  0  0
   18.8152   -9.8772  -15.9203 C   0  0  0  0  0  0  0  0  0  0  0  0
   18.7975  -11.3550  -16.2304 C   0  0  0  0  0  0  0  0  0  0  0  0
   20.1383  -11.8914  -16.5622 C   0  0  2  0  0  0  0  0  0  0  0  0
   20.1502  -13.2932  -16.8753 N   0  0  0  0  0  0  0  0  0  0  0  0
   21.2832  -11.4537  -15.7944 C   0  0  0  0  0  0  0  0  0  0  0  0
   21.7825  -12.3022  -14.9923 O   0  0  0  0  0  0  0  0  0  0  0  0
   26.3453  -11.9119  -15.1444 C   0  0  0  0  0  0  0  0  0  0  0  0
   25.4980  -10.6945  -14.9316 C   0  0  1  0  0  0  0  0  0  0  0  0
   26.3015   -9.5266  -15.4682 C   0  0  0  0  0  0  0  0  0  0  0  0
   24.1199  -10.7574  -15.3768 C   0  0  0  0  0  0  0  0  0  0  0  0
   23.0812   -9.7759  -15.0931 C   0  0  2  0  0  0  0  0  0  0  0  0
   21.8886  -10.1921  -15.8513 N   0  0  0  0  0  0  0  0  0  0  0  0
   23.4010   -8.3897  -15.3024 C   0  0  0  0  0  0  0  0  0  0  0  0
   23.0074   -7.5726  -16.3368 O   0  0  0  0  0  0  0  0  0  0  0  0
   24.1543   -7.8123  -14.4350 O   0  0  0  0  0  0  0  0  0  0  0  0
  2  3  2  0
  2  1  1  0
  4  2  1  0
  5  4  1  0
  5  6  1  0
  6  8  1  0
  6  7  1  6
  8  9  2  0
 10 11  1  0
 11 13  1  0
 12 11  2  0
 13 14  1  0
 15 14  1  1
 16 15  1  0
 16  8  1  0
 17 24  1  0
 17 15  1  0
 18 17  2  0
 20 19  1  6
 20 21  1  0
 22 20  1  0
 23 22  1  6
 23 24  1  0
 25 26  1  0
 25 23  1  0
 27 25  2  0
M  END
$$$$
