QQL.pdb
     RDKit          3D

 27 26  0  0  1  0  0  0  0  0999 V2000
   20.5976  -16.2610  -17.7197 N   0  0  0  0  0  0  0  0  0  0  0  0
   20.9191  -16.4555  -19.0966 C   0  0  0  0  0  0  0  0  0  0  0  0
   20.7211  -15.5317  -19.8787 O   0  0  0  0  0  0  0  0  0  0  0  0
   21.4648  -17.7479  -19.5128 C   0  0  0  0  0  0  0  0  0  0  0  0
   21.5097  -18.7312  -18.4005 C   0  0  0  0  0  0  0  0  0  0  0  0
   22.5606  -18.4413  -17.3827 C   0  0  2  0  0  0  0  0  0  0  0  0
   23.5556  -17.5000  -17.7226 N   0  0  0  0  0  0  0  0  0  0  0  0
   23.1036  -19.7827  -16.9480 C   0  0  0  0  0  0  0  0  0  0  0  0
   22.2457  -20.5994  -16.5749 O   0  0  0  0  0  0  0  0  0  0  0  0
   29.3387  -21.3005  -16.9108 N   0  0  0  0  0  0  0  0  0  0  0  0
   28.7309  -22.4575  -16.3764 C   0  0  0  0  0  0  0  0  0  0  0  0
   29.4219  -23.4470  -16.0541 O   0  0  0  0  0  0  0  0  0  0  0  0
   27.2722  -22.5023  -16.1960 C   0  0  0  0  0  0  0  0  0  0  0  0
   26.6003  -21.2374  -16.6748 C   0  0  0  0  0  0  0  0  0  0  0  0
   25.1411  -21.2260  -16.4178 C   0  0  2  0  0  0  0  0  0  0  0  0
   24.4570  -20.0857  -16.9608 N   0  0  0  0  0  0  0  0  0  0  0  0
   24.6495  -21.6410  -15.1224 C   0  0  0  0  0  0  0  0  0  0  0  0
   24.2788  -22.8514  -15.0208 O   0  0  0  0  0  0  0  0  0  0  0  0
   26.3920  -21.0362   -9.5232 C   0  0  0  0  0  0  0  0  0  0  0  0
   25.1470  -21.3392  -10.3002 C   0  0  1  0  0  0  0  0  0  0  0  0
   24.0094  -20.6897   -9.5375 C   0  0  0  0  0  0  0  0  0  0  0  0
   25.1714  -21.0735  -11.7250 C   0  0  0  0  0  0  0  0  0  0  0  0
   24.0717  -21.2877  -12.6564 C   0  0  2  0  0  0  0  0  0  0  0  0
   24.5445  -20.8404  -13.9781 N   0  0  0  0  0  0  0  0  0  0  0  0
   22.7935  -20.7230  -12.3176 C   0  0  0  0  0  0  0  0  0  0  0  0
   21.7164  -21.3465  -11.7313 O   0  0  0  0  0  0  0  0  0  0  0  0
   22.5968  -19.4820  -12.5904 O   0  0  0  0  0  0  0  0  0  0  0  0
  2  3  2  0
  2  1  1  0
  4  2  1  0
  5  4  1  0
  5  6  1  0
  6  8  1  0
  6  7  1  6
  8  9  2  0
 10 11  1  0
 11 13  1  0
 12 11  2  0
 13 14  1  0
 15 14  1  1
 16 15  1  0
 16  8  1  0
 17 24  1  0
 17 15  1  0
 18 17  2  0
 20 19  1  1
 20 21  1  0
 22 20  1  0
 23 22  1  1
 23 24  1  0
 25 26  1  0
 25 23  1  0
 27 25  2  0
M  END
$$$$
