QQL.pdb
     RDKit          3D

 27 26  0  0  1  0  0  0  0  0999 V2000
   28.4125  -21.4725  -17.3422 N   0  0  0  0  0  0  0  0  0  0  0  0
   27.8939  -22.7329  -16.9182 C   0  0  0  0  0  0  0  0  0  0  0  0
   28.6742  -23.6696  -16.7827 O   0  0  0  0  0  0  0  0  0  0  0  0
   26.4569  -22.8515  -16.6698 C   0  0  0  0  0  0  0  0  0  0  0  0
   25.7380  -21.5663  -16.8642 C   0  0  0  0  0  0  0  0  0  0  0  0
   24.9860  -21.1091  -15.6601 C   0  0  2  0  0  0  0  0  0  0  0  0
   24.2938  -22.0864  -14.9134 N   0  0  0  0  0  0  0  0  0  0  0  0
   24.1223  -19.9572  -16.1185 C   0  0  0  0  0  0  0  0  0  0  0  0
   24.6469  -19.2123  -16.9624 O   0  0  0  0  0  0  0  0  0  0  0  0
   17.9532  -19.7763  -14.9673 N   0  0  0  0  0  0  0  0  0  0  0  0
   18.6543  -20.6112  -15.8645 C   0  0  0  0  0  0  0  0  0  0  0  0
   18.1278  -21.6552  -16.3043 O   0  0  0  0  0  0  0  0  0  0  0  0
   20.0163  -20.2527  -16.2873 C   0  0  0  0  0  0  0  0  0  0  0  0
   20.5073  -18.9921  -15.6164 C   0  0  0  0  0  0  0  0  0  0  0  0
   21.9198  -18.6798  -15.9374 C   0  0  2  0  0  0  0  0  0  0  0  0
   22.8399  -19.7409  -15.6365 N   0  0  0  0  0  0  0  0  0  0  0  0
   22.4340  -17.3595  -15.6471 C   0  0  0  0  0  0  0  0  0  0  0  0
   23.1754  -17.2557  -14.6213 O   0  0  0  0  0  0  0  0  0  0  0  0
   25.5049  -13.4283  -14.8361 C   0  0  0  0  0  0  0  0  0  0  0  0
   25.3347  -14.1423  -16.1425 C   0  0  1  0  0  0  0  0  0  0  0  0
   26.7182  -14.6123  -16.5456 C   0  0  0  0  0  0  0  0  0  0  0  0
   24.2904  -15.1445  -16.2213 C   0  0  0  0  0  0  0  0  0  0  0  0
   22.8559  -14.8938  -16.1782 C   0  0  2  0  0  0  0  0  0  0  0  0
   22.1936  -16.1935  -16.3846 N   0  0  0  0  0  0  0  0  0  0  0  0
   22.3325  -13.8740  -17.0463 C   0  0  0  0  0  0  0  0  0  0  0  0
   21.6091  -14.0326  -18.2056 O   0  0  0  0  0  0  0  0  0  0  0  0
   22.5575  -12.6477  -16.7318 O   0  0  0  0  0  0  0  0  0  0  0  0
  2  3  2  0
  2  1  1  0
  4  2  1  0
  5  4  1  0
  5  6  1  0
  6  8  1  0
  6  7  1  6
  8  9  2  0
 10 11  1  0
 11 13  1  0
 12 11  2  0
 13 14  1  0
 15 14  1  1
 16 15  1  0
 16  8  1  0
 17 24  1  0
 17 15  1  0
 18 17  2  0
 20 19  1  1
 20 21  1  0
 22 20  1  0
 23 22  1  6
 23 24  1  0
 25 26  1  0
 25 23  1  0
 27 25  2  0
M  END
$$$$
