IDI.pdb
     RDKit          3D

 25 24  0  0  1  0  0  0  0  0999 V2000
    7.0236  -12.0856   19.2110 C   0  0  0  0  0  0  0  0  0  0  0  0
    7.4102  -13.5527   19.2489 C   0  0  0  0  0  0  0  0  0  0  0  0
    7.8217  -14.0125   20.5918 C   0  0  2  0  0  0  0  0  0  0  0  0
    9.0441  -13.3025   21.1273 C   0  0  0  0  0  0  0  0  0  0  0  0
    8.1304  -15.4934   20.5772 C   0  0  2  0  0  0  0  0  0  0  0  0
    6.9347  -16.2181   20.0989 N   0  0  0  0  0  0  0  0  0  0  0  0
    8.4972  -16.0490   21.8934 C   0  0  0  0  0  0  0  0  0  0  0  0
    7.5557  -16.3349   22.7022 O   0  0  0  0  0  0  0  0  0  0  0  0
    9.8276  -16.2794   22.2878 N   0  0  0  0  0  0  0  0  0  0  0  0
   10.1215  -16.8723   23.5995 C   0  0  1  0  0  0  0  0  0  0  0  0
   11.3295  -17.7389   23.5131 C   0  0  0  0  0  0  0  0  0  0  0  0
   11.6834  -18.4619   24.7378 C   0  0  0  0  0  0  0  0  0  0  0  0
   10.9841  -18.4177   25.7668 O   0  0  0  0  0  0  0  0  0  0  0  0
   10.2322  -15.8126   24.6187 C   0  0  0  0  0  0  0  0  0  0  0  0
   11.1449  -14.9195   24.5429 O   0  0  0  0  0  0  0  0  0  0  0  0
   12.8421  -19.2280   24.7575 O   0  0  0  0  0  0  0  0  0  0  0  0
    6.5999  -12.1993   26.0440 C   0  0  0  0  0  0  0  0  0  0  0  0
    8.0428  -12.7065   25.9228 C   0  0  0  0  0  0  0  0  0  0  0  0
    8.1421  -13.9381   26.7517 C   0  0  2  0  0  0  0  0  0  0  0  0
    7.8215  -13.7336   28.1937 C   0  0  0  0  0  0  0  0  0  0  0  0
    9.5396  -14.5214   26.6425 C   0  0  2  0  0  0  0  0  0  0  0  0
    9.3724  -15.6736   25.7365 N   0  0  0  0  0  0  0  0  0  0  0  0
   10.0535  -15.0266   27.9202 C   0  0  0  0  0  0  0  0  0  0  0  0
   10.6785  -14.2537   28.8951 O   0  0  0  0  0  0  0  0  0  0  0  0
    9.9444  -16.2676   28.2092 O   0  0  0  0  0  0  0  0  0  0  0  0
  2  1  1  0
  3  2  1  0
  3  5  1  0
  3  4  1  6
  5  6  1  1
  7  5  1  0
  7  8  2  0
  9  7  1  0
 10  9  1  0
 10 11  1  6
 12 16  1  0
 12 11  1  0
 13 12  2  0
 14 10  1  0
 15 14  2  0
 18 17  1  0
 19 18  1  0
 19 20  1  1
 21 19  1  0
 21 22  1  6
 22 14  1  0
 23 24  1  0
 23 21  1  0
 25 23  2  0
M  END
$$$$
