IDI.pdb
     RDKit          3D

 25 24  0  0  1  0  0  0  0  0999 V2000
    7.1773  -11.6379   19.2251 C   0  0  0  0  0  0  0  0  0  0  0  0
    7.5615  -13.1025   19.1227 C   0  0  0  0  0  0  0  0  0  0  0  0
    7.6575  -13.7732   20.4361 C   0  0  2  0  0  0  0  0  0  0  0  0
    8.6931  -13.1638   21.3535 C   0  0  0  0  0  0  0  0  0  0  0  0
    8.0106  -15.2341   20.2646 C   0  0  2  0  0  0  0  0  0  0  0  0
    6.9556  -15.8809   19.4569 N   0  0  0  0  0  0  0  0  0  0  0  0
    8.1301  -15.9814   21.5307 C   0  0  0  0  0  0  0  0  0  0  0  0
    7.0607  -16.2416   22.1717 O   0  0  0  0  0  0  0  0  0  0  0  0
    9.3608  -16.4192   22.0525 N   0  0  0  0  0  0  0  0  0  0  0  0
    9.4341  -16.9871   23.4056 C   0  0  1  0  0  0  0  0  0  0  0  0
   10.4200  -18.1026   23.4424 C   0  0  0  0  0  0  0  0  0  0  0  0
   10.6227  -18.7304   24.7510 C   0  0  0  0  0  0  0  0  0  0  0  0
   11.6764  -18.5982   25.4007 O   0  0  0  0  0  0  0  0  0  0  0  0
    9.7175  -15.9222   24.3850 C   0  0  0  0  0  0  0  0  0  0  0  0
   10.8456  -15.3193   24.3936 O   0  0  0  0  0  0  0  0  0  0  0  0
    9.6038  -19.5038   25.2930 O   0  0  0  0  0  0  0  0  0  0  0  0
    6.1729  -12.3224   26.3447 C   0  0  0  0  0  0  0  0  0  0  0  0
    6.9638  -13.6369   26.3646 C   0  0  0  0  0  0  0  0  0  0  0  0
    8.3955  -13.2863   26.1612 C   0  0  2  0  0  0  0  0  0  0  0  0
    8.7049  -12.7325   24.8116 C   0  0  0  0  0  0  0  0  0  0  0  0
    9.2638  -14.5096   26.3954 C   0  0  2  0  0  0  0  0  0  0  0  0
    8.8072  -15.4689   25.3719 N   0  0  0  0  0  0  0  0  0  0  0  0
    9.0513  -15.1225   27.7110 C   0  0  0  0  0  0  0  0  0  0  0  0
    8.4599  -16.3635   27.9315 O   0  0  0  0  0  0  0  0  0  0  0  0
    9.4195  -14.5088   28.7709 O   0  0  0  0  0  0  0  0  0  0  0  0
  2  1  1  0
  3  2  1  0
  3  5  1  0
  3  4  1  1
  5  6  1  6
  7  5  1  0
  7  8  2  0
  9  7  1  0
 10  9  1  0
 10 11  1  6
 12 16  1  0
 12 11  1  0
 13 12  2  0
 14 10  1  0
 15 14  2  0
 18 17  1  0
 19 18  1  0
 19 20  1  6
 21 19  1  0
 21 22  1  6
 22 14  1  0
 23 24  1  0
 23 21  1  0
 25 23  2  0
M  END
$$$$
