IDI.pdb
     RDKit          3D

 25 24  0  0  1  0  0  0  0  0999 V2000
    7.9940  -11.7642   20.9890 C   0  0  0  0  0  0  0  0  0  0  0  0
    7.6548  -13.2301   21.1870 C   0  0  0  0  0  0  0  0  0  0  0  0
    8.3977  -14.1283   20.2785 C   0  0  2  0  0  0  0  0  0  0  0  0
    8.1890  -13.8168   18.8140 C   0  0  0  0  0  0  0  0  0  0  0  0
    7.9860  -15.5674   20.4967 C   0  0  2  0  0  0  0  0  0  0  0  0
    6.5478  -15.6976   20.1832 N   0  0  0  0  0  0  0  0  0  0  0  0
    8.1926  -16.0549   21.8735 C   0  0  0  0  0  0  0  0  0  0  0  0
    7.1936  -16.0483   22.6635 O   0  0  0  0  0  0  0  0  0  0  0  0
    9.4310  -16.5267   22.3449 N   0  0  0  0  0  0  0  0  0  0  0  0
    9.5414  -17.1075   23.6900 C   0  0  1  0  0  0  0  0  0  0  0  0
   10.5275  -18.2234   23.6888 C   0  0  0  0  0  0  0  0  0  0  0  0
   10.6602  -18.9572   24.9505 C   0  0  0  0  0  0  0  0  0  0  0  0
   10.8967  -18.3897   26.0330 O   0  0  0  0  0  0  0  0  0  0  0  0
    9.8521  -16.0520   24.6713 C   0  0  0  0  0  0  0  0  0  0  0  0
   10.8745  -15.2973   24.5245 O   0  0  0  0  0  0  0  0  0  0  0  0
   10.5174  -20.3391   24.9451 O   0  0  0  0  0  0  0  0  0  0  0  0
    6.2564  -12.8273   26.3734 C   0  0  0  0  0  0  0  0  0  0  0  0
    7.5522  -13.5092   25.9156 C   0  0  0  0  0  0  0  0  0  0  0  0
    8.2404  -14.0020   27.1393 C   0  0  2  0  0  0  0  0  0  0  0  0
    8.5630  -12.9366   28.1317 C   0  0  0  0  0  0  0  0  0  0  0  0
    9.5251  -14.7147   26.7563 C   0  0  2  0  0  0  0  0  0  0  0  0
    9.0808  -15.7698   25.8261 N   0  0  0  0  0  0  0  0  0  0  0  0
   10.1819  -15.3674   27.8940 C   0  0  0  0  0  0  0  0  0  0  0  0
   11.1703  -14.7916   28.6878 O   0  0  0  0  0  0  0  0  0  0  0  0
    9.8576  -16.5599   28.2234 O   0  0  0  0  0  0  0  0  0  0  0  0
  2  1  1  0
  3  2  1  0
  3  5  1  0
  3  4  1  6
  5  6  1  1
  7  5  1  0
  7  8  2  0
  9  7  1  0
 10  9  1  0
 10 11  1  6
 12 16  1  0
 12 11  1  0
 13 12  2  0
 14 10  1  0
 15 14  2  0
 18 17  1  0
 19 18  1  0
 19 20  1  1
 21 19  1  0
 21 22  1  6
 22 14  1  0
 23 24  1  0
 23 21  1  0
 25 23  2  0
M  END
$$$$
