GVG.pdb
     RDKit          3D

 16 15  0  0  1  0  0  0  0  0999 V2000
    9.0431  -17.9216   16.8164 N   0  0  0  0  0  0  0  0  0  0  0  0
    8.0727  -17.4822   17.8034 C   0  0  0  0  0  0  0  0  0  0  0  0
    8.6571  -16.4739   18.7279 C   0  0  0  0  0  0  0  0  0  0  0  0
    9.9077  -16.4157   18.7932 O   0  0  0  0  0  0  0  0  0  0  0  0
    8.2278  -12.5205   21.6350 C   0  0  0  0  0  0  0  0  0  0  0  0
    7.5298  -13.5078   20.7280 C   0  0  1  0  0  0  0  0  0  0  0  0
    7.2899  -12.7963   19.4188 C   0  0  0  0  0  0  0  0  0  0  0  0
    8.3783  -14.7595   20.5275 C   0  0  2  0  0  0  0  0  0  0  0  0
    7.8404  -15.6089   19.5079 N   0  0  0  0  0  0  0  0  0  0  0  0
    8.6300  -15.4522   21.7972 C   0  0  0  0  0  0  0  0  0  0  0  0
    7.6753  -15.9422   22.4505 O   0  0  0  0  0  0  0  0  0  0  0  0
    9.9398  -15.5983   22.3369 N   0  0  0  0  0  0  0  0  0  0  0  0
   10.2111  -16.2765   23.5712 C   0  0  0  0  0  0  0  0  0  0  0  0
   11.6313  -16.1610   23.9558 C   0  0  0  0  0  0  0  0  0  0  0  0
   12.0228  -16.6765   25.1822 O   0  0  0  0  0  0  0  0  0  0  0  0
   12.4798  -15.6142   23.2075 O   0  0  0  0  0  0  0  0  0  0  0  0
  2  3  1  0
  2  1  1  0
  3  9  1  0
  4  3  2  0
  6  5  1  1
  7  6  1  0
  8  6  1  0
  8  9  1  6
 10 11  2  0
 10  8  1  0
 12 10  1  0
 13 14  1  0
 13 12  1  0
 14 15  1  0
 16 14  2  0
M  END
$$$$
