GVG.pdb
     RDKit          3D

 16 15  0  0  1  0  0  0  0  0999 V2000
    4.3401  -18.2050   21.3711 N   0  0  0  0  0  0  0  0  0  0  0  0
    4.8070  -16.9402   21.9108 C   0  0  0  0  0  0  0  0  0  0  0  0
    6.1778  -16.6182   21.4309 C   0  0  0  0  0  0  0  0  0  0  0  0
    6.7849  -17.5116   20.7945 O   0  0  0  0  0  0  0  0  0  0  0  0
    7.1924  -13.7176   19.3802 C   0  0  0  0  0  0  0  0  0  0  0  0
    8.2046  -13.7443   20.5023 C   0  0  1  0  0  0  0  0  0  0  0  0
    7.8960  -12.5637   21.3904 C   0  0  0  0  0  0  0  0  0  0  0  0
    8.1239  -15.0545   21.2795 C   0  0  2  0  0  0  0  0  0  0  0  0
    6.7817  -15.3543   21.6784 N   0  0  0  0  0  0  0  0  0  0  0  0
    9.0875  -15.0877   22.3866 C   0  0  0  0  0  0  0  0  0  0  0  0
    8.8221  -14.5161   23.4734 O   0  0  0  0  0  0  0  0  0  0  0  0
   10.3414  -15.7548   22.2833 N   0  0  0  0  0  0  0  0  0  0  0  0
   11.2566  -15.8842   23.3801 C   0  0  0  0  0  0  0  0  0  0  0  0
   12.5036  -16.5604   22.9725 C   0  0  0  0  0  0  0  0  0  0  0  0
   13.7112  -15.9872   23.3411 O   0  0  0  0  0  0  0  0  0  0  0  0
   12.4943  -17.6276   22.3091 O   0  0  0  0  0  0  0  0  0  0  0  0
  2  3  1  0
  2  1  1  0
  3  9  1  0
  4  3  2  0
  6  5  1  6
  7  6  1  0
  8  6  1  0
  8  9  1  1
 10 11  2  0
 10  8  1  0
 12 10  1  0
 13 14  1  0
 13 12  1  0
 14 15  1  0
 16 14  2  0
M  END
$$$$
