GVG.pdb
     RDKit          3D

 16 15  0  0  1  0  0  0  0  0999 V2000
    7.2626  -18.0067   17.3463 N   0  0  0  0  0  0  0  0  0  0  0  0
    6.7970  -17.4425   18.6009 C   0  0  0  0  0  0  0  0  0  0  0  0
    7.8436  -16.5991   19.2384 C   0  0  0  0  0  0  0  0  0  0  0  0
    9.0366  -16.8525   18.9482 O   0  0  0  0  0  0  0  0  0  0  0  0
    7.5454  -12.7242   19.8301 C   0  0  0  0  0  0  0  0  0  0  0  0
    8.0672  -13.3628   21.0968 C   0  0  1  0  0  0  0  0  0  0  0  0
    6.9419  -13.3120   22.1012 C   0  0  0  0  0  0  0  0  0  0  0  0
    8.5128  -14.7991   20.8407 C   0  0  2  0  0  0  0  0  0  0  0  0
    7.5145  -15.5486   20.1392 N   0  0  0  0  0  0  0  0  0  0  0  0
    8.9790  -15.4491   22.0717 C   0  0  0  0  0  0  0  0  0  0  0  0
    8.1506  -15.8821   22.9111 O   0  0  0  0  0  0  0  0  0  0  0  0
   10.3622  -15.6162   22.3663 N   0  0  0  0  0  0  0  0  0  0  0  0
   10.8421  -16.2083   23.5813 C   0  0  0  0  0  0  0  0  0  0  0  0
   12.3168  -16.2086   23.6422 C   0  0  0  0  0  0  0  0  0  0  0  0
   12.9258  -16.6991   24.7873 O   0  0  0  0  0  0  0  0  0  0  0  0
   13.0208  -15.7806   22.6934 O   0  0  0  0  0  0  0  0  0  0  0  0
  2  3  1  0
  2  1  1  0
  3  9  1  0
  4  3  2  0
  6  5  1  6
  7  6  1  0
  8  6  1  0
  8  9  1  1
 10 11  2  0
 10  8  1  0
 12 10  1  0
 13 14  1  0
 13 12  1  0
 14 15  1  0
 16 14  2  0
M  END
$$$$
