GVG.pdb
     RDKit          3D

 16 15  0  0  1  0  0  0  0  0999 V2000
    7.2877  -15.6292   20.7730 N   0  0  0  0  0  0  0  0  0  0  0  0
    6.4107  -15.4105   21.9097 C   0  0  0  0  0  0  0  0  0  0  0  0
    7.1737  -14.9633   23.1059 C   0  0  0  0  0  0  0  0  0  0  0  0
    8.4173  -15.1194   23.0815 O   0  0  0  0  0  0  0  0  0  0  0  0
    7.4766  -12.7286   27.4793 C   0  0  0  0  0  0  0  0  0  0  0  0
    6.5907  -13.0788   26.3057 C   0  0  1  0  0  0  0  0  0  0  0  0
    6.4675  -11.8284   25.4696 C   0  0  0  0  0  0  0  0  0  0  0  0
    7.1854  -14.2268   25.4960 C   0  0  2  0  0  0  0  0  0  0  0  0
    6.5288  -14.3827   24.2330 N   0  0  0  0  0  0  0  0  0  0  0  0
    7.2517  -15.4656   26.2809 C   0  0  0  0  0  0  0  0  0  0  0  0
    6.1959  -16.0459   26.6372 O   0  0  0  0  0  0  0  0  0  0  0  0
    8.4890  -16.0554   26.6673 N   0  0  0  0  0  0  0  0  0  0  0  0
    8.5789  -17.2579   27.4440 C   0  0  0  0  0  0  0  0  0  0  0  0
    9.9795  -17.5985   27.7611 C   0  0  0  0  0  0  0  0  0  0  0  0
   10.2175  -18.6468   28.6370 O   0  0  0  0  0  0  0  0  0  0  0  0
   10.9456  -16.9687   27.2619 O   0  0  0  0  0  0  0  0  0  0  0  0
  2  3  1  0
  2  1  1  0
  3  9  1  0
  4  3  2  0
  6  5  1  1
  7  6  1  0
  8  6  1  0
  8  9  1  6
 10 11  2  0
 10  8  1  0
 12 10  1  0
 13 14  1  0
 13 12  1  0
 14 15  1  0
 16 14  2  0
M  END
$$$$
