GVG.pdb
     RDKit          3D

 16 15  0  0  1  0  0  0  0  0999 V2000
    9.5523  -18.2544   17.2620 N   0  0  0  0  0  0  0  0  0  0  0  0
    8.6893  -17.8187   18.3456 C   0  0  0  0  0  0  0  0  0  0  0  0
    9.0936  -16.4818   18.8576 C   0  0  0  0  0  0  0  0  0  0  0  0
   10.2047  -16.0385   18.4826 O   0  0  0  0  0  0  0  0  0  0  0  0
    7.9837  -12.3276   21.3442 C   0  0  0  0  0  0  0  0  0  0  0  0
    7.5217  -13.5703   20.6182 C   0  0  1  0  0  0  0  0  0  0  0  0
    6.8769  -13.1062   19.3351 C   0  0  0  0  0  0  0  0  0  0  0  0
    8.6930  -14.5068   20.3390 C   0  0  2  0  0  0  0  0  0  0  0  0
    8.2623  -15.7316   19.7348 N   0  0  0  0  0  0  0  0  0  0  0  0
    9.5272  -14.7012   21.5313 C   0  0  0  0  0  0  0  0  0  0  0  0
   10.1875  -13.7427   22.0043 O   0  0  0  0  0  0  0  0  0  0  0  0
    9.6252  -15.9579   22.1939 N   0  0  0  0  0  0  0  0  0  0  0  0
   10.2772  -16.1313   23.4597 C   0  0  0  0  0  0  0  0  0  0  0  0
   11.7170  -16.4123   23.2971 C   0  0  0  0  0  0  0  0  0  0  0  0
   12.4959  -16.5266   24.4386 O   0  0  0  0  0  0  0  0  0  0  0  0
   12.2435  -16.5479   22.1643 O   0  0  0  0  0  0  0  0  0  0  0  0
  2  3  1  0
  2  1  1  0
  3  9  1  0
  4  3  2  0
  6  5  1  6
  7  6  1  0
  8  6  1  0
  8  9  1  1
 10 11  2  0
 10  8  1  0
 12 10  1  0
 13 14  1  0
 13 12  1  0
 14 15  1  0
 16 14  2  0
M  END
$$$$
