GVG.pdb
     RDKit          3D

 16 15  0  0  1  0  0  0  0  0999 V2000
    6.4846  -18.2363   18.0055 N   0  0  0  0  0  0  0  0  0  0  0  0
    6.2100  -17.4352   19.1852 C   0  0  0  0  0  0  0  0  0  0  0  0
    7.4166  -16.6838   19.6240 C   0  0  0  0  0  0  0  0  0  0  0  0
    8.4973  -16.9515   19.0478 O   0  0  0  0  0  0  0  0  0  0  0  0
    7.4748  -12.9895   19.7951 C   0  0  0  0  0  0  0  0  0  0  0  0
    8.1607  -13.4266   21.0691 C   0  0  1  0  0  0  0  0  0  0  0  0
    7.2130  -13.1100   22.2002 C   0  0  0  0  0  0  0  0  0  0  0  0
    8.4919  -14.9151   21.0280 C   0  0  2  0  0  0  0  0  0  0  0  0
    7.3563  -15.7024   20.6520 N   0  0  0  0  0  0  0  0  0  0  0  0
    9.1313  -15.3623   22.2716 C   0  0  0  0  0  0  0  0  0  0  0  0
    8.4359  -15.5983   23.2909 O   0  0  0  0  0  0  0  0  0  0  0  0
   10.5394  -15.5457   22.3790 N   0  0  0  0  0  0  0  0  0  0  0  0
   11.1749  -16.0959   23.5413 C   0  0  0  0  0  0  0  0  0  0  0  0
   12.6459  -16.0620   23.4257 C   0  0  0  0  0  0  0  0  0  0  0  0
   13.3982  -16.5519   24.4824 O   0  0  0  0  0  0  0  0  0  0  0  0
   13.2217  -15.6058   22.4062 O   0  0  0  0  0  0  0  0  0  0  0  0
  2  3  1  0
  2  1  1  0
  3  9  1  0
  4  3  2  0
  6  5  1  6
  7  6  1  0
  8  6  1  0
  8  9  1  1
 10 11  2  0
 10  8  1  0
 12 10  1  0
 13 14  1  0
 13 12  1  0
 14 15  1  0
 16 14  2  0
M  END
$$$$
