GVG.pdb
     RDKit          3D

 16 15  0  0  1  0  0  0  0  0999 V2000
    5.5432  -19.1396   20.3659 N   0  0  0  0  0  0  0  0  0  0  0  0
    5.5253  -17.9527   21.2025 C   0  0  0  0  0  0  0  0  0  0  0  0
    6.7011  -17.0817   20.9343 C   0  0  0  0  0  0  0  0  0  0  0  0
    7.6156  -17.5598   20.2225 O   0  0  0  0  0  0  0  0  0  0  0  0
    8.8491  -12.6927   20.7020 C   0  0  0  0  0  0  0  0  0  0  0  0
    7.6162  -13.4902   21.0607 C   0  0  1  0  0  0  0  0  0  0  0  0
    6.6554  -13.3424   19.9063 C   0  0  0  0  0  0  0  0  0  0  0  0
    7.9651  -14.9553   21.3032 C   0  0  2  0  0  0  0  0  0  0  0  0
    6.7925  -15.7625   21.4584 N   0  0  0  0  0  0  0  0  0  0  0  0
    8.9326  -15.1077   22.3968 C   0  0  0  0  0  0  0  0  0  0  0  0
    8.5953  -14.8528   23.5799 O   0  0  0  0  0  0  0  0  0  0  0  0
   10.2702  -15.5424   22.1733 N   0  0  0  0  0  0  0  0  0  0  0  0
   11.2044  -15.7905   23.2331 C   0  0  0  0  0  0  0  0  0  0  0  0
   12.5359  -16.1558   22.7115 C   0  0  0  0  0  0  0  0  0  0  0  0
   13.5762  -16.3053   23.6160 O   0  0  0  0  0  0  0  0  0  0  0  0
   12.7434  -16.3314   21.4847 O   0  0  0  0  0  0  0  0  0  0  0  0
  2  3  1  0
  2  1  1  0
  3  9  1  0
  4  3  2  0
  6  5  1  6
  7  6  1  0
  8  6  1  0
  8  9  1  1
 10 11  2  0
 10  8  1  0
 12 10  1  0
 13 14  1  0
 13 12  1  0
 14 15  1  0
 16 14  2  0
M  END
$$$$
