YER.pdb
     RDKit          3D

 33 33  0  0  1  0  0  0  0  0999 V2000
   31.7600  -22.4852  -10.1802 O   0  0  0  0  0  0  0  0  0  0  0  0
   30.6041  -21.7020  -10.2024 C   0  0  0  0  0  0  0  0  0  0  0  0
   30.0219  -21.3843  -11.3899 C   0  0  0  0  0  0  0  0  0  0  0  0
   28.8841  -20.6152  -11.4408 C   0  0  0  0  0  0  0  0  0  0  0  0
   28.3173  -20.1537  -10.2635 C   0  0  0  0  0  0  0  0  0  0  0  0
   27.0890  -19.3219  -10.2574 C   0  0  0  0  0  0  0  0  0  0  0  0
   25.8588  -20.2032  -10.1140 C   0  0  2  0  0  0  0  0  0  0  0  0
   26.2388  -21.4555   -9.4909 N   0  0  0  0  0  0  0  0  0  0  0  0
   25.2514  -20.4586  -11.4668 C   0  0  0  0  0  0  0  0  0  0  0  0
   24.9640  -19.4942  -12.2003 O   0  0  0  0  0  0  0  0  0  0  0  0
   28.9205  -20.4863   -9.0852 C   0  0  0  0  0  0  0  0  0  0  0  0
   30.0631  -21.2575   -9.0155 C   0  0  0  0  0  0  0  0  0  0  0  0
   25.0037  -21.7649  -11.9133 N   0  0  0  0  0  0  0  0  0  0  0  0
   24.3962  -22.0844  -13.2180 C   0  0  1  0  0  0  0  0  0  0  0  0
   24.7632  -23.4837  -13.5628 C   0  0  0  0  0  0  0  0  0  0  0  0
   24.1234  -23.9074  -14.8396 C   0  0  0  0  0  0  0  0  0  0  0  0
   24.5380  -25.3023  -15.1561 C   0  0  0  0  0  0  0  0  0  0  0  0
   23.6608  -26.1531  -15.4369 O   0  0  0  0  0  0  0  0  0  0  0  0
   22.9497  -21.8251  -13.0695 C   0  0  0  0  0  0  0  0  0  0  0  0
   22.2916  -22.1697  -12.0311 O   0  0  0  0  0  0  0  0  0  0  0  0
   25.8909  -25.6517  -15.1384 O   0  0  0  0  0  0  0  0  0  0  0  0
   22.1860  -16.8616  -17.6918 N   0  0  0  0  0  0  0  0  0  0  0  0
   23.3206  -17.3864  -17.0192 C   0  0  0  0  0  0  0  0  0  0  0  0
   24.3511  -16.6414  -16.8157 N   0  0  0  0  0  0  0  0  0  0  0  0
   23.2859  -18.7449  -16.5825 N   0  0  0  0  0  0  0  0  0  0  0  0
   22.0408  -19.4927  -16.8882 C   0  0  0  0  0  0  0  0  0  0  0  0
   21.0234  -19.2553  -15.8411 C   0  0  0  0  0  0  0  0  0  0  0  0
   20.3142  -20.3394  -15.1909 C   0  0  0  0  0  0  0  0  0  0  0  0
   20.7229  -20.9438  -13.9060 C   0  0  2  0  0  0  0  0  0  0  0  0
   22.2157  -21.1725  -14.0892 N   0  0  0  0  0  0  0  0  0  0  0  0
   20.2096  -22.3422  -13.7914 C   0  0  0  0  0  0  0  0  0  0  0  0
   19.1862  -22.7882  -13.0062 O   0  0  0  0  0  0  0  0  0  0  0  0
   20.7876  -23.2368  -14.5016 O   0  0  0  0  0  0  0  0  0  0  0  0
  2  1  1  0
  3  2  2  0
  4  3  1  0
  5 11  1  0
  5  4  2  0
  6  5  1  0
  7  6  1  0
  7  8  1  6
  9  7  1  0
  9 13  1  0
 10  9  2  0
 11 12  2  0
 12  2  1  0
 14 15  1  1
 14 13  1  0
 16 17  1  0
 16 15  1  0
 17 21  1  0
 18 17  2  0
 19 14  1  0
 20 19  2  0
 23 24  2  0
 23 22  1  0
 25 23  1  0
 26 25  1  0
 26 27  1  0
 27 28  1  0
 29 28  1  6
 29 30  1  0
 30 19  1  0
 31 32  1  0
 31 29  1  0
 33 31  2  0
M  END
$$$$
