YER.pdb
     RDKit          3D

 33 33  0  0  1  0  0  0  0  0999 V2000
   17.0495  -18.0010  -15.8595 O   0  0  0  0  0  0  0  0  0  0  0  0
   18.3877  -17.6057  -15.9135 C   0  0  0  0  0  0  0  0  0  0  0  0
   18.7566  -16.5640  -16.7064 C   0  0  0  0  0  0  0  0  0  0  0  0
   20.0663  -16.1541  -16.7785 C   0  0  0  0  0  0  0  0  0  0  0  0
   21.0308  -16.8116  -16.0313 C   0  0  0  0  0  0  0  0  0  0  0  0
   22.4589  -16.4118  -16.0679 C   0  0  0  0  0  0  0  0  0  0  0  0
   23.1854  -17.1601  -17.1738 C   0  0  2  0  0  0  0  0  0  0  0  0
   22.2917  -17.3299  -18.3021 N   0  0  0  0  0  0  0  0  0  0  0  0
   23.6454  -18.5006  -16.6682 C   0  0  0  0  0  0  0  0  0  0  0  0
   22.8724  -19.4751  -16.7279 O   0  0  0  0  0  0  0  0  0  0  0  0
   20.6350  -17.8536  -15.2436 C   0  0  0  0  0  0  0  0  0  0  0  0
   19.3244  -18.2783  -15.1592 C   0  0  0  0  0  0  0  0  0  0  0  0
   24.9299  -18.6688  -16.1308 N   0  0  0  0  0  0  0  0  0  0  0  0
   25.3990  -19.9170  -15.5021 C   0  0  1  0  0  0  0  0  0  0  0  0
   26.8052  -20.1438  -15.9296 C   0  0  0  0  0  0  0  0  0  0  0  0
   27.1463  -21.5937  -15.9060 C   0  0  0  0  0  0  0  0  0  0  0  0
   28.5166  -21.7837  -16.4574 C   0  0  0  0  0  0  0  0  0  0  0  0
   29.0631  -22.9085  -16.3656 O   0  0  0  0  0  0  0  0  0  0  0  0
   25.1968  -19.7437  -14.0493 C   0  0  0  0  0  0  0  0  0  0  0  0
   25.2694  -18.6058  -13.4750 O   0  0  0  0  0  0  0  0  0  0  0  0
   29.1796  -20.7163  -17.0688 O   0  0  0  0  0  0  0  0  0  0  0  0
   17.9464  -20.5958  -10.5714 N   0  0  0  0  0  0  0  0  0  0  0  0
   18.6664  -20.6456   -9.3490 C   0  0  0  0  0  0  0  0  0  0  0  0
   18.0363  -20.5930   -8.2271 N   0  0  0  0  0  0  0  0  0  0  0  0
   20.0889  -20.7533   -9.3999 N   0  0  0  0  0  0  0  0  0  0  0  0
   20.6984  -20.6574  -10.7497 C   0  0  0  0  0  0  0  0  0  0  0  0
   22.1737  -20.6165  -10.6503 C   0  0  0  0  0  0  0  0  0  0  0  0
   23.0292  -20.6349  -11.8202 C   0  0  0  0  0  0  0  0  0  0  0  0
   24.5057  -20.6099  -11.7674 C   0  0  2  0  0  0  0  0  0  0  0  0
   24.9090  -20.8503  -13.2144 N   0  0  0  0  0  0  0  0  0  0  0  0
   25.0324  -21.8352  -11.0939 C   0  0  0  0  0  0  0  0  0  0  0  0
   25.4390  -21.9588   -9.7969 O   0  0  0  0  0  0  0  0  0  0  0  0
   25.1224  -22.8980  -11.8018 O   0  0  0  0  0  0  0  0  0  0  0  0
  2  1  1  0
  3  2  2  0
  4  3  1  0
  5 11  1  0
  5  4  2  0
  6  5  1  0
  7  6  1  0
  7  8  1  6
  9  7  1  0
  9 13  1  0
 10  9  2  0
 11 12  2  0
 12  2  1  0
 14 15  1  1
 14 13  1  0
 16 17  1  0
 16 15  1  0
 17 21  1  0
 18 17  2  0
 19 14  1  0
 20 19  2  0
 23 24  2  0
 23 22  1  0
 25 23  1  0
 26 25  1  0
 26 27  1  0
 27 28  1  0
 29 28  1  6
 29 30  1  0
 30 19  1  0
 31 32  1  0
 31 29  1  0
 33 31  2  0
M  END
$$$$
