YER.pdb
     RDKit          3D

 33 33  0  0  1  0  0  0  0  0999 V2000
   12.3814  -22.0405   -8.5475 O   0  0  0  0  0  0  0  0  0  0  0  0
   12.6528  -22.3945   -7.2242 C   0  0  0  0  0  0  0  0  0  0  0  0
   12.8073  -23.7037   -6.8896 C   0  0  0  0  0  0  0  0  0  0  0  0
   13.0748  -24.0800   -5.5952 C   0  0  0  0  0  0  0  0  0  0  0  0
   13.1898  -23.1110   -4.6111 C   0  0  0  0  0  0  0  0  0  0  0  0
   13.4794  -23.4583   -3.1982 C   0  0  0  0  0  0  0  0  0  0  0  0
   14.9505  -23.2283   -2.8920 C   0  0  2  0  0  0  0  0  0  0  0  0
   15.7483  -24.1785   -3.6412 N   0  0  0  0  0  0  0  0  0  0  0  0
   15.1977  -23.3905   -1.4167 C   0  0  0  0  0  0  0  0  0  0  0  0
   15.4622  -24.5189   -0.9610 O   0  0  0  0  0  0  0  0  0  0  0  0
   13.0306  -21.8046   -4.9726 C   0  0  0  0  0  0  0  0  0  0  0  0
   12.7617  -21.4089   -6.2673 C   0  0  0  0  0  0  0  0  0  0  0  0
   15.1343  -22.2914   -0.5477 N   0  0  0  0  0  0  0  0  0  0  0  0
   15.4998  -22.3518    0.8792 C   0  0  1  0  0  0  0  0  0  0  0  0
   15.8442  -20.9743    1.3216 C   0  0  0  0  0  0  0  0  0  0  0  0
   16.2967  -20.9636    2.7408 C   0  0  0  0  0  0  0  0  0  0  0  0
   16.7951  -19.6034    3.0860 C   0  0  0  0  0  0  0  0  0  0  0  0
   16.7421  -18.6947    2.2235 O   0  0  0  0  0  0  0  0  0  0  0  0
   14.3507  -22.9720    1.5695 C   0  0  0  0  0  0  0  0  0  0  0  0
   13.1431  -22.6231    1.3457 O   0  0  0  0  0  0  0  0  0  0  0  0
   17.3145  -19.3500    4.3582 O   0  0  0  0  0  0  0  0  0  0  0  0
   15.4064  -30.8105    2.8248 N   0  0  0  0  0  0  0  0  0  0  0  0
   16.2074  -29.7063    3.2173 C   0  0  0  0  0  0  0  0  0  0  0  0
   17.3929  -29.9022    3.6805 N   0  0  0  0  0  0  0  0  0  0  0  0
   15.6670  -28.3916    3.0860 N   0  0  0  0  0  0  0  0  0  0  0  0
   14.2534  -28.3133    2.6405 C   0  0  0  0  0  0  0  0  0  0  0  0
   13.8622  -26.9067    2.4031 C   0  0  0  0  0  0  0  0  0  0  0  0
   13.6757  -25.9616    3.4863 C   0  0  0  0  0  0  0  0  0  0  0  0
   13.3409  -24.5355    3.2930 C   0  0  2  0  0  0  0  0  0  0  0  0
   14.5399  -23.9981    2.5264 N   0  0  0  0  0  0  0  0  0  0  0  0
   13.4409  -23.7884    4.5830 C   0  0  0  0  0  0  0  0  0  0  0  0
   14.5413  -23.6513    5.3787 O   0  0  0  0  0  0  0  0  0  0  0  0
   12.3811  -23.2081    5.0059 O   0  0  0  0  0  0  0  0  0  0  0  0
  2  1  1  0
  3  2  2  0
  4  3  1  0
  5 11  1  0
  5  4  2  0
  6  5  1  0
  7  6  1  0
  7  8  1  6
  9  7  1  0
  9 13  1  0
 10  9  2  0
 11 12  2  0
 12  2  1  0
 14 15  1  1
 14 13  1  0
 16 17  1  0
 16 15  1  0
 17 21  1  0
 18 17  2  0
 19 14  1  0
 20 19  2  0
 23 24  2  0
 23 22  1  0
 25 23  1  0
 26 25  1  0
 26 27  1  0
 27 28  1  0
 29 28  1  1
 29 30  1  0
 30 19  1  0
 31 32  1  0
 31 29  1  0
 33 31  2  0
M  END
$$$$
