YER.pdb
     RDKit          3D

 33 33  0  0  1  0  0  0  0  0999 V2000
   17.8214  -18.4292  -14.2851 O   0  0  0  0  0  0  0  0  0  0  0  0
   19.0621  -18.2080  -14.8865 C   0  0  0  0  0  0  0  0  0  0  0  0
   19.1247  -17.7429  -16.1631 C   0  0  0  0  0  0  0  0  0  0  0  0
   20.3322  -17.5166  -16.7791 C   0  0  0  0  0  0  0  0  0  0  0  0
   21.5086  -17.7656  -16.0903 C   0  0  0  0  0  0  0  0  0  0  0  0
   22.8400  -17.5379  -16.7037 C   0  0  0  0  0  0  0  0  0  0  0  0
   23.2315  -18.7274  -17.5653 C   0  0  2  0  0  0  0  0  0  0  0  0
   22.0610  -19.2131  -18.2687 N   0  0  0  0  0  0  0  0  0  0  0  0
   23.8091  -19.8165  -16.7025 C   0  0  0  0  0  0  0  0  0  0  0  0
   23.1050  -20.7997  -16.4053 O   0  0  0  0  0  0  0  0  0  0  0  0
   21.4189  -18.2318  -14.8107 C   0  0  0  0  0  0  0  0  0  0  0  0
   20.2151  -18.4645  -14.1767 C   0  0  0  0  0  0  0  0  0  0  0  0
   25.1267  -19.7408  -16.2279 N   0  0  0  0  0  0  0  0  0  0  0  0
   25.7729  -20.7982  -15.4294 C   0  0  1  0  0  0  0  0  0  0  0  0
   27.0938  -21.0937  -16.0456 C   0  0  0  0  0  0  0  0  0  0  0  0
   27.8063  -19.8389  -16.4155 C   0  0  0  0  0  0  0  0  0  0  0  0
   28.8326  -20.1451  -17.4502 C   0  0  0  0  0  0  0  0  0  0  0  0
   28.9688  -21.3268  -17.8468 O   0  0  0  0  0  0  0  0  0  0  0  0
   25.8178  -20.2929  -14.0422 C   0  0  0  0  0  0  0  0  0  0  0  0
   25.8161  -19.0471  -13.7631 O   0  0  0  0  0  0  0  0  0  0  0  0
   29.6311  -19.1222  -17.9686 O   0  0  0  0  0  0  0  0  0  0  0  0
   20.0160  -19.9347   -9.0353 N   0  0  0  0  0  0  0  0  0  0  0  0
   20.4153  -19.6947  -10.3761 C   0  0  0  0  0  0  0  0  0  0  0  0
   19.5269  -19.5372  -11.2950 N   0  0  0  0  0  0  0  0  0  0  0  0
   21.8106  -19.6349  -10.6712 N   0  0  0  0  0  0  0  0  0  0  0  0
   22.7260  -19.8666   -9.5262 C   0  0  0  0  0  0  0  0  0  0  0  0
   24.1350  -19.7171   -9.9507 C   0  0  0  0  0  0  0  0  0  0  0  0
   24.5998  -20.1438  -11.2556 C   0  0  0  0  0  0  0  0  0  0  0  0
   25.9707  -20.6211  -11.5315 C   0  0  2  0  0  0  0  0  0  0  0  0
   25.8658  -21.1822  -12.9416 N   0  0  0  0  0  0  0  0  0  0  0  0
   26.2749  -21.8478  -10.7346 C   0  0  0  0  0  0  0  0  0  0  0  0
   26.9217  -21.9181   -9.5348 O   0  0  0  0  0  0  0  0  0  0  0  0
   25.8953  -22.9695  -11.2209 O   0  0  0  0  0  0  0  0  0  0  0  0
  2  1  1  0
  3  2  2  0
  4  3  1  0
  5 11  1  0
  5  4  2  0
  6  5  1  0
  7  6  1  0
  7  8  1  1
  9  7  1  0
  9 13  1  0
 10  9  2  0
 11 12  2  0
 12  2  1  0
 14 15  1  6
 14 13  1  0
 16 17  1  0
 16 15  1  0
 17 21  1  0
 18 17  2  0
 19 14  1  0
 20 19  2  0
 23 24  2  0
 23 22  1  0
 25 23  1  0
 26 25  1  0
 26 27  1  0
 27 28  1  0
 29 28  1  1
 29 30  1  0
 30 19  1  0
 31 32  1  0
 31 29  1  0
 33 31  2  0
M  END
$$$$
