YER.pdb
     RDKit          3D

 33 33  0  0  1  0  0  0  0  0999 V2000
   24.5451  -18.4046  -20.2996 O   0  0  0  0  0  0  0  0  0  0  0  0
   25.3355  -18.5446  -19.1570 C   0  0  0  0  0  0  0  0  0  0  0  0
   26.6913  -18.5204  -19.2620 C   0  0  0  0  0  0  0  0  0  0  0  0
   27.4930  -18.6559  -18.1540 C   0  0  0  0  0  0  0  0  0  0  0  0
   26.9129  -18.8202  -16.9062 C   0  0  0  0  0  0  0  0  0  0  0  0
   27.7280  -18.9693  -15.6757 C   0  0  0  0  0  0  0  0  0  0  0  0
   27.9377  -20.4413  -15.3600 C   0  0  2  0  0  0  0  0  0  0  0  0
   28.0975  -21.1771  -16.5985 N   0  0  0  0  0  0  0  0  0  0  0  0
   26.7604  -20.9721  -14.5878 C   0  0  0  0  0  0  0  0  0  0  0  0
   25.9479  -21.7275  -15.1535 O   0  0  0  0  0  0  0  0  0  0  0  0
   25.5505  -18.8410  -16.8275 C   0  0  0  0  0  0  0  0  0  0  0  0
   24.7304  -18.7063  -17.9295 C   0  0  0  0  0  0  0  0  0  0  0  0
   26.5641  -20.6288  -13.2421 N   0  0  0  0  0  0  0  0  0  0  0  0
   25.3740  -21.0147  -12.4624 C   0  0  1  0  0  0  0  0  0  0  0  0
   25.6083  -20.6236  -11.0468 C   0  0  0  0  0  0  0  0  0  0  0  0
   24.9170  -21.5542  -10.1113 C   0  0  0  0  0  0  0  0  0  0  0  0
   25.2149  -21.1503   -8.7092 C   0  0  0  0  0  0  0  0  0  0  0  0
   25.9267  -20.1391   -8.5013 O   0  0  0  0  0  0  0  0  0  0  0  0
   24.2247  -20.3605  -13.1203 C   0  0  0  0  0  0  0  0  0  0  0  0
   24.2778  -19.1676  -13.5722 O   0  0  0  0  0  0  0  0  0  0  0  0
   24.7036  -21.8943   -7.6426 O   0  0  0  0  0  0  0  0  0  0  0  0
   22.1577  -19.5083  -19.7316 N   0  0  0  0  0  0  0  0  0  0  0  0
   20.7544  -19.3963  -19.5499 C   0  0  0  0  0  0  0  0  0  0  0  0
   19.9889  -19.1748  -20.5616 N   0  0  0  0  0  0  0  0  0  0  0  0
   20.2249  -19.5337  -18.2314 N   0  0  0  0  0  0  0  0  0  0  0  0
   21.2144  -19.8144  -17.1614 C   0  0  0  0  0  0  0  0  0  0  0  0
   20.6408  -20.7321  -16.1530 C   0  0  0  0  0  0  0  0  0  0  0  0
   21.3928  -21.1806  -14.9979 C   0  0  0  0  0  0  0  0  0  0  0  0
   21.8071  -20.2999  -13.8861 C   0  0  2  0  0  0  0  0  0  0  0  0
   22.9921  -21.0379  -13.2816 N   0  0  0  0  0  0  0  0  0  0  0  0
   20.8130  -20.3502  -12.7719 C   0  0  0  0  0  0  0  0  0  0  0  0
   19.7502  -19.5179  -12.5705 O   0  0  0  0  0  0  0  0  0  0  0  0
   20.9636  -21.2711  -11.8956 O   0  0  0  0  0  0  0  0  0  0  0  0
  2  1  1  0
  3  2  2  0
  4  3  1  0
  5 11  1  0
  5  4  2  0
  6  5  1  0
  7  6  1  0
  7  8  1  6
  9  7  1  0
  9 13  1  0
 10  9  2  0
 11 12  2  0
 12  2  1  0
 14 15  1  1
 14 13  1  0
 16 17  1  0
 16 15  1  0
 17 21  1  0
 18 17  2  0
 19 14  1  0
 20 19  2  0
 23 24  2  0
 23 22  1  0
 25 23  1  0
 26 25  1  0
 26 27  1  0
 27 28  1  0
 29 28  1  6
 29 30  1  0
 30 19  1  0
 31 32  1  0
 31 29  1  0
 33 31  2  0
M  END
$$$$
