GWT.pdb
     RDKit          3D

 26 27  0  0  1  0  0  0  0  0999 V2000
    5.1807  -19.0919   22.0262 N   0  0  0  0  0  0  0  0  0  0  0  0
    6.1297  -19.1363   23.1346 C   0  0  0  0  0  0  0  0  0  0  0  0
    7.0936  -18.0099   22.9813 C   0  0  0  0  0  0  0  0  0  0  0  0
    7.2900  -17.4574   21.8848 O   0  0  0  0  0  0  0  0  0  0  0  0
    7.8113  -17.5556   24.1348 N   0  0  0  0  0  0  0  0  0  0  0  0
    8.8708  -16.5991   24.0778 C   0  0  1  0  0  0  0  0  0  0  0  0
    9.0183  -15.8322   25.3750 C   0  0  0  0  0  0  0  0  0  0  0  0
    7.7951  -15.1528   25.8088 C   0  0  0  0  0  0  0  0  0  0  0  0
    6.5669  -15.6925   26.1736 C   0  0  0  0  0  0  0  0  0  0  0  0
    5.7251  -14.6945   26.5020 N   0  0  0  0  0  0  0  0  0  0  0  0
    6.3606  -13.5274   26.3641 C   0  0  0  0  0  0  0  0  0  0  0  0
    5.9353  -12.2456   26.5755 C   0  0  0  0  0  0  0  0  0  0  0  0
    6.7839  -11.1680   26.3647 C   0  0  0  0  0  0  0  0  0  0  0  0
    8.0723  -11.4097   25.9358 C   0  0  0  0  0  0  0  0  0  0  0  0
    8.4677  -12.6965   25.7337 C   0  0  0  0  0  0  0  0  0  0  0  0
    7.6498  -13.7923   25.9336 C   0  0  0  0  0  0  0  0  0  0  0  0
   10.1766  -17.1496   23.7111 C   0  0  0  0  0  0  0  0  0  0  0  0
   10.5518  -18.2031   24.2963 O   0  0  0  0  0  0  0  0  0  0  0  0
   11.6325  -17.6002   20.0364 C   0  0  0  0  0  0  0  0  0  0  0  0
   12.6816  -17.0017   20.9472 C   0  0  1  0  0  0  0  0  0  0  0  0
   12.8044  -15.6235   20.7045 O   0  0  0  0  0  0  0  0  0  0  0  0
   12.3090  -17.2696   22.3956 C   0  0  2  0  0  0  0  0  0  0  0  0
   11.0711  -16.6044   22.7487 N   0  0  0  0  0  0  0  0  0  0  0  0
   13.3898  -16.7128   23.2301 C   0  0  0  0  0  0  0  0  0  0  0  0
   13.1982  -15.7836   24.0456 O   0  0  0  0  0  0  0  0  0  0  0  0
   14.6600  -17.2315   23.1110 O   0  0  0  0  0  0  0  0  0  0  0  0
  2  1  1  0
  3  2  1  0
  4  3  2  0
  5  3  1  0
  6  5  1  0
  7  8  1  0
  6  7  1  1
  8  9  2  0
  9 10  1  0
 11 10  1  0
 12 11  2  0
 13 12  1  0
 14 15  1  0
 14 13  2  0
 15 16  2  0
 16  8  1  0
 16 11  1  0
 17  6  1  0
 17 23  1  0
 18 17  2  0
 20 19  1  6
 20 21  1  0
 22 20  1  0
 22 23  1  1
 22 24  1  0
 24 25  2  0
 24 26  1  0
M  END
$$$$
