GWT.pdb
     RDKit          3D

 26 27  0  0  1  0  0  0  0  0999 V2000
    5.6826  -16.8526   20.0619 N   0  0  0  0  0  0  0  0  0  0  0  0
    6.0542  -17.3939   21.3657 C   0  0  0  0  0  0  0  0  0  0  0  0
    7.2290  -16.6338   21.8793 C   0  0  0  0  0  0  0  0  0  0  0  0
    7.8337  -15.8049   21.1769 O   0  0  0  0  0  0  0  0  0  0  0  0
    7.6688  -16.8700   23.2220 N   0  0  0  0  0  0  0  0  0  0  0  0
    8.8137  -16.2398   23.7987 C   0  0  1  0  0  0  0  0  0  0  0  0
    8.6589  -16.0286   25.2901 C   0  0  0  0  0  0  0  0  0  0  0  0
    7.5077  -15.2011   25.6591 C   0  0  0  0  0  0  0  0  0  0  0  0
    6.1836  -15.5712   25.8653 C   0  0  0  0  0  0  0  0  0  0  0  0
    5.4646  -14.4803   26.1897 N   0  0  0  0  0  0  0  0  0  0  0  0
    6.2721  -13.4159   26.2018 C   0  0  0  0  0  0  0  0  0  0  0  0
    6.0160  -12.1003   26.4706 C   0  0  0  0  0  0  0  0  0  0  0  0
    7.0279  -11.1519   26.4233 C   0  0  0  0  0  0  0  0  0  0  0  0
    8.3056  -11.5577   26.0990 C   0  0  0  0  0  0  0  0  0  0  0  0
    8.5307  -12.8743   25.8362 C   0  0  0  0  0  0  0  0  0  0  0  0
    7.5474  -13.8446   25.8741 C   0  0  0  0  0  0  0  0  0  0  0  0
   10.0822  -16.9283   23.5551 C   0  0  0  0  0  0  0  0  0  0  0  0
   10.1613  -18.1430   23.8890 O   0  0  0  0  0  0  0  0  0  0  0  0
   14.6803  -17.1816   21.6679 C   0  0  0  0  0  0  0  0  0  0  0  0
   13.4019  -16.3860   21.8128 C   0  0  1  0  0  0  0  0  0  0  0  0
   12.8328  -16.1498   20.5503 O   0  0  0  0  0  0  0  0  0  0  0  0
   12.4364  -17.1362   22.7147 C   0  0  2  0  0  0  0  0  0  0  0  0
   11.2452  -16.3527   22.9723 N   0  0  0  0  0  0  0  0  0  0  0  0
   13.1296  -17.3628   23.9964 C   0  0  0  0  0  0  0  0  0  0  0  0
   13.6837  -18.4486   24.2779 O   0  0  0  0  0  0  0  0  0  0  0  0
   13.1713  -16.3441   24.9223 O   0  0  0  0  0  0  0  0  0  0  0  0
  2  1  1  0
  3  2  1  0
  4  3  2  0
  5  3  1  0
  6  5  1  0
  7  8  1  0
  6  7  1  1
  8  9  2  0
  9 10  1  0
 11 10  1  0
 12 11  2  0
 13 12  1  0
 14 15  1  0
 14 13  2  0
 15 16  2  0
 16  8  1  0
 16 11  1  0
 17  6  1  0
 17 23  1  0
 18 17  2  0
 20 19  1  6
 20 21  1  0
 22 20  1  0
 22 23  1  1
 22 24  1  0
 24 25  2  0
 24 26  1  0
M  END
$$$$
