GWT.pdb
     RDKit          3D

 26 27  0  0  1  0  0  0  0  0999 V2000
    6.2737  -16.3534   19.8780 N   0  0  0  0  0  0  0  0  0  0  0  0
    6.4020  -16.9126   21.2204 C   0  0  0  0  0  0  0  0  0  0  0  0
    7.6188  -16.3378   21.8611 C   0  0  0  0  0  0  0  0  0  0  0  0
    8.3893  -15.5795   21.2467 O   0  0  0  0  0  0  0  0  0  0  0  0
    7.9028  -16.6726   23.2246 N   0  0  0  0  0  0  0  0  0  0  0  0
    9.0600  -16.2127   23.9246 C   0  0  1  0  0  0  0  0  0  0  0  0
    8.8020  -16.0461   25.4073 C   0  0  0  0  0  0  0  0  0  0  0  0
    7.6443  -15.2047   25.7205 C   0  0  0  0  0  0  0  0  0  0  0  0
    6.3162  -15.5667   25.9156 C   0  0  0  0  0  0  0  0  0  0  0  0
    5.5916  -14.4638   26.1820 N   0  0  0  0  0  0  0  0  0  0  0  0
    6.3993  -13.3996   26.1672 C   0  0  0  0  0  0  0  0  0  0  0  0
    6.1386  -12.0744   26.3781 C   0  0  0  0  0  0  0  0  0  0  0  0
    7.1517  -11.1284   26.3125 C   0  0  0  0  0  0  0  0  0  0  0  0
    8.4352  -11.5465   26.0295 C   0  0  0  0  0  0  0  0  0  0  0  0
    8.6647  -12.8725   25.8240 C   0  0  0  0  0  0  0  0  0  0  0  0
    7.6804  -13.8407   25.8817 C   0  0  0  0  0  0  0  0  0  0  0  0
   10.2538  -17.0416   23.7500 C   0  0  0  0  0  0  0  0  0  0  0  0
   10.1573  -18.2700   24.0235 O   0  0  0  0  0  0  0  0  0  0  0  0
   12.5201  -17.2035   20.6213 C   0  0  0  0  0  0  0  0  0  0  0  0
   13.4164  -17.1237   21.8372 C   0  0  1  0  0  0  0  0  0  0  0  0
   13.9532  -15.8312   21.9592 O   0  0  0  0  0  0  0  0  0  0  0  0
   12.6253  -17.5052   23.0770 C   0  0  2  0  0  0  0  0  0  0  0  0
   11.5241  -16.5894   23.2969 N   0  0  0  0  0  0  0  0  0  0  0  0
   13.5465  -17.4080   24.2244 C   0  0  0  0  0  0  0  0  0  0  0  0
   13.3505  -16.6230   25.1787 O   0  0  0  0  0  0  0  0  0  0  0  0
   14.6663  -18.2091   24.2515 O   0  0  0  0  0  0  0  0  0  0  0  0
  2  1  1  0
  3  2  1  0
  4  3  2  0
  5  3  1  0
  6  5  1  0
  7  8  1  0
  6  7  1  1
  8  9  2  0
  9 10  1  0
 11 10  1  0
 12 11  2  0
 13 12  1  0
 14 15  1  0
 14 13  2  0
 15 16  2  0
 16  8  1  0
 16 11  1  0
 17  6  1  0
 17 23  1  0
 18 17  2  0
 20 19  1  6
 20 21  1  0
 22 20  1  0
 22 23  1  1
 22 24  1  0
 24 25  2  0
 24 26  1  0
M  END
$$$$
