GWT.pdb
     RDKit          3D

 26 27  0  0  1  0  0  0  0  0999 V2000
    5.1715  -16.9173   20.4055 N   0  0  0  0  0  0  0  0  0  0  0  0
    5.7196  -17.4888   21.6319 C   0  0  0  0  0  0  0  0  0  0  0  0
    6.8967  -16.6763   22.0510 C   0  0  0  0  0  0  0  0  0  0  0  0
    7.3789  -15.7927   21.3211 O   0  0  0  0  0  0  0  0  0  0  0  0
    7.4845  -16.9257   23.3333 N   0  0  0  0  0  0  0  0  0  0  0  0
    8.6708  -16.2781   23.7960 C   0  0  1  0  0  0  0  0  0  0  0  0
    8.6025  -15.9479   25.2721 C   0  0  0  0  0  0  0  0  0  0  0  0
    7.5095  -15.0408   25.6306 C   0  0  0  0  0  0  0  0  0  0  0  0
    6.1733  -15.3259   25.8877 C   0  0  0  0  0  0  0  0  0  0  0  0
    5.5249  -14.1824   26.1781 N   0  0  0  0  0  0  0  0  0  0  0  0
    6.3898  -13.1658   26.1193 C   0  0  0  0  0  0  0  0  0  0  0  0
    6.2142  -11.8269   26.3319 C   0  0  0  0  0  0  0  0  0  0  0  0
    7.2751  -10.9402   26.2140 C   0  0  0  0  0  0  0  0  0  0  0  0
    8.5189  -11.4318   25.8769 C   0  0  0  0  0  0  0  0  0  0  0  0
    8.6636  -12.7697   25.6711 C   0  0  0  0  0  0  0  0  0  0  0  0
    7.6298  -13.6803   25.7800 C   0  0  0  0  0  0  0  0  0  0  0  0
    9.9113  -17.0116   23.5397 C   0  0  0  0  0  0  0  0  0  0  0  0
    9.9914  -18.1940   23.9743 O   0  0  0  0  0  0  0  0  0  0  0  0
   11.7319  -17.3005   20.1175 C   0  0  0  0  0  0  0  0  0  0  0  0
   12.7717  -17.0330   21.1832 C   0  0  1  0  0  0  0  0  0  0  0  0
   13.2009  -15.6970   21.1166 O   0  0  0  0  0  0  0  0  0  0  0  0
   12.1911  -17.3520   22.5505 C   0  0  2  0  0  0  0  0  0  0  0  0
   11.0456  -16.5134   22.8408 N   0  0  0  0  0  0  0  0  0  0  0  0
   13.2417  -17.0635   23.5443 C   0  0  0  0  0  0  0  0  0  0  0  0
   14.3436  -17.6561   23.5483 O   0  0  0  0  0  0  0  0  0  0  0  0
   13.0062  -16.1070   24.5066 O   0  0  0  0  0  0  0  0  0  0  0  0
  2  1  1  0
  3  2  1  0
  4  3  2  0
  5  3  1  0
  6  5  1  0
  7  8  1  0
  6  7  1  1
  8  9  2  0
  9 10  1  0
 11 10  1  0
 12 11  2  0
 13 12  1  0
 14 15  1  0
 14 13  2  0
 15 16  2  0
 16  8  1  0
 16 11  1  0
 17  6  1  0
 17 23  1  0
 18 17  2  0
 20 19  1  6
 20 21  1  0
 22 20  1  0
 22 23  1  1
 22 24  1  0
 24 25  2  0
 24 26  1  0
M  END
$$$$
