GWT.pdb
     RDKit          3D

 26 27  0  0  1  0  0  0  0  0999 V2000
    5.5987  -21.2330   21.9984 N   0  0  0  0  0  0  0  0  0  0  0  0
    5.4119  -20.5664   23.2836 C   0  0  0  0  0  0  0  0  0  0  0  0
    6.3854  -19.4422   23.3826 C   0  0  0  0  0  0  0  0  0  0  0  0
    7.2874  -19.2779   22.5426 O   0  0  0  0  0  0  0  0  0  0  0  0
    6.2729  -18.5280   24.4797 N   0  0  0  0  0  0  0  0  0  0  0  0
    7.1511  -17.4182   24.6742 C   0  0  1  0  0  0  0  0  0  0  0  0
    6.4607  -16.2563   25.3569 C   0  0  0  0  0  0  0  0  0  0  0  0
    7.0293  -14.9471   25.0270 C   0  0  0  0  0  0  0  0  0  0  0  0
    7.8711  -14.5880   23.9805 C   0  0  0  0  0  0  0  0  0  0  0  0
    8.1453  -13.2727   24.0646 N   0  0  0  0  0  0  0  0  0  0  0  0
    7.5132  -12.7645   25.1263 C   0  0  0  0  0  0  0  0  0  0  0  0
    7.4790  -11.4917   25.6239 C   0  0  0  0  0  0  0  0  0  0  0  0
    6.7409  -11.1887   26.7592 C   0  0  0  0  0  0  0  0  0  0  0  0
    6.0366  -12.1968   27.3837 C   0  0  0  0  0  0  0  0  0  0  0  0
    6.0894  -13.4545   26.8655 C   0  0  0  0  0  0  0  0  0  0  0  0
    6.8136  -13.7912   25.7377 C   0  0  0  0  0  0  0  0  0  0  0  0
    8.3787  -17.7273   25.4091 C   0  0  0  0  0  0  0  0  0  0  0  0
    8.2598  -18.2477   26.5529 O   0  0  0  0  0  0  0  0  0  0  0  0
   11.5680  -19.5431   23.8248 C   0  0  0  0  0  0  0  0  0  0  0  0
   11.9781  -18.3661   24.6820 C   0  0  1  0  0  0  0  0  0  0  0  0
   12.2936  -17.2631   23.8712 O   0  0  0  0  0  0  0  0  0  0  0  0
   10.8572  -18.0283   25.6505 C   0  0  2  0  0  0  0  0  0  0  0  0
    9.7055  -17.4946   24.9519 N   0  0  0  0  0  0  0  0  0  0  0  0
   11.3713  -16.9884   26.5609 C   0  0  0  0  0  0  0  0  0  0  0  0
   10.9015  -15.8292   26.5903 O   0  0  0  0  0  0  0  0  0  0  0  0
   12.4076  -17.2995   27.4128 O   0  0  0  0  0  0  0  0  0  0  0  0
  2  1  1  0
  3  2  1  0
  4  3  2  0
  5  3  1  0
  6  5  1  0
  7  8  1  0
  6  7  1  1
  8  9  2  0
  9 10  1  0
 11 10  1  0
 12 11  2  0
 13 12  1  0
 14 15  1  0
 14 13  2  0
 15 16  2  0
 16  8  1  0
 16 11  1  0
 17  6  1  0
 17 23  1  0
 18 17  2  0
 20 19  1  6
 20 21  1  0
 22 20  1  0
 22 23  1  6
 22 24  1  0
 24 25  2  0
 24 26  1  0
M  END
$$$$
