GWT.pdb
     RDKit          3D

 26 27  0  0  1  0  0  0  0  0999 V2000
    5.3140  -17.7338   20.6560 N   0  0  0  0  0  0  0  0  0  0  0  0
    5.8349  -17.9743   21.9983 C   0  0  0  0  0  0  0  0  0  0  0  0
    7.0131  -17.0882   22.2175 C   0  0  0  0  0  0  0  0  0  0  0  0
    7.4791  -16.3777   21.3097 O   0  0  0  0  0  0  0  0  0  0  0  0
    7.6212  -17.0588   23.5142 N   0  0  0  0  0  0  0  0  0  0  0  0
    8.7934  -16.3011   23.8181 C   0  0  1  0  0  0  0  0  0  0  0  0
    8.8456  -15.8890   25.2742 C   0  0  0  0  0  0  0  0  0  0  0  0
    7.6802  -15.1206   25.7188 C   0  0  0  0  0  0  0  0  0  0  0  0
    6.4108  -15.5653   26.0705 C   0  0  0  0  0  0  0  0  0  0  0  0
    5.6520  -14.5086   26.4167 N   0  0  0  0  0  0  0  0  0  0  0  0
    6.3810  -13.3947   26.3030 C   0  0  0  0  0  0  0  0  0  0  0  0
    6.0609  -12.0868   26.5386 C   0  0  0  0  0  0  0  0  0  0  0  0
    6.9952  -11.0782   26.3507 C   0  0  0  0  0  0  0  0  0  0  0  0
    8.2612  -11.4158   25.9197 C   0  0  0  0  0  0  0  0  0  0  0  0
    8.5511  -12.7264   25.6932 C   0  0  0  0  0  0  0  0  0  0  0  0
    7.6458  -13.7554   25.8700 C   0  0  0  0  0  0  0  0  0  0  0  0
   10.0558  -16.9575   23.4744 C   0  0  0  0  0  0  0  0  0  0  0  0
   10.3370  -18.0328   24.0726 O   0  0  0  0  0  0  0  0  0  0  0  0
   11.8500  -17.0770   19.8224 C   0  0  0  0  0  0  0  0  0  0  0  0
   12.8414  -16.7999   20.9309 C   0  0  1  0  0  0  0  0  0  0  0  0
   13.1982  -15.4412   20.9331 O   0  0  0  0  0  0  0  0  0  0  0  0
   12.2388  -17.2079   22.2647 C   0  0  2  0  0  0  0  0  0  0  0  0
   11.0044  -16.4939   22.5211 N   0  0  0  0  0  0  0  0  0  0  0  0
   13.2130  -16.8415   23.3093 C   0  0  0  0  0  0  0  0  0  0  0  0
   12.9734  -15.9717   24.1760 O   0  0  0  0  0  0  0  0  0  0  0  0
   14.4342  -17.4775   23.3362 O   0  0  0  0  0  0  0  0  0  0  0  0
  2  1  1  0
  3  2  1  0
  4  3  2  0
  5  3  1  0
  6  5  1  0
  7  8  1  0
  6  7  1  1
  8  9  2  0
  9 10  1  0
 11 10  1  0
 12 11  2  0
 13 12  1  0
 14 15  1  0
 14 13  2  0
 15 16  2  0
 16  8  1  0
 16 11  1  0
 17  6  1  0
 17 23  1  0
 18 17  2  0
 20 19  1  6
 20 21  1  0
 22 20  1  0
 22 23  1  1
 22 24  1  0
 24 25  2  0
 24 26  1  0
M  END
$$$$
