GWT.pdb
     RDKit          3D

 26 27  0  0  1  0  0  0  0  0999 V2000
    5.2993  -18.9099   21.3087 N   0  0  0  0  0  0  0  0  0  0  0  0
    5.9097  -18.8750   22.6343 C   0  0  0  0  0  0  0  0  0  0  0  0
    6.9712  -17.8287   22.6421 C   0  0  0  0  0  0  0  0  0  0  0  0
    7.3105  -17.2289   21.6071 O   0  0  0  0  0  0  0  0  0  0  0  0
    7.6149  -17.5097   23.8815 N   0  0  0  0  0  0  0  0  0  0  0  0
    8.7281  -16.6206   23.9855 C   0  0  1  0  0  0  0  0  0  0  0  0
    8.8026  -15.9551   25.3435 C   0  0  0  0  0  0  0  0  0  0  0  0
    7.6219  -15.1567   25.6822 C   0  0  0  0  0  0  0  0  0  0  0  0
    6.3308  -15.5737   25.9853 C   0  0  0  0  0  0  0  0  0  0  0  0
    5.5643  -14.4952   26.2335 N   0  0  0  0  0  0  0  0  0  0  0  0
    6.3092  -13.3938   26.1028 C   0  0  0  0  0  0  0  0  0  0  0  0
    5.9892  -12.0732   26.2520 C   0  0  0  0  0  0  0  0  0  0  0  0
    6.9422  -11.0821   26.0642 C   0  0  0  0  0  0  0  0  0  0  0  0
    8.2267  -11.4504   25.7224 C   0  0  0  0  0  0  0  0  0  0  0  0
    8.5160  -12.7730   25.5807 C   0  0  0  0  0  0  0  0  0  0  0  0
    7.5924  -13.7852   25.7601 C   0  0  0  0  0  0  0  0  0  0  0  0
   10.0279  -17.2262   23.6917 C   0  0  0  0  0  0  0  0  0  0  0  0
   10.3267  -18.2917   24.2989 O   0  0  0  0  0  0  0  0  0  0  0  0
   11.6425  -17.6732   20.0569 C   0  0  0  0  0  0  0  0  0  0  0  0
   12.6684  -17.1650   21.0456 C   0  0  1  0  0  0  0  0  0  0  0  0
   12.8776  -15.7880   20.8617 O   0  0  0  0  0  0  0  0  0  0  0  0
   12.2005  -17.4616   22.4604 C   0  0  2  0  0  0  0  0  0  0  0  0
   10.9952  -16.7229   22.7782 N   0  0  0  0  0  0  0  0  0  0  0  0
   13.2714  -17.0176   23.3718 C   0  0  0  0  0  0  0  0  0  0  0  0
   13.1402  -16.0340   24.1338 O   0  0  0  0  0  0  0  0  0  0  0  0
   14.4628  -17.7080   23.3888 O   0  0  0  0  0  0  0  0  0  0  0  0
  2  1  1  0
  3  2  1  0
  4  3  2  0
  5  3  1  0
  6  5  1  0
  7  8  1  0
  6  7  1  1
  8  9  2  0
  9 10  1  0
 11 10  1  0
 12 11  2  0
 13 12  1  0
 14 15  1  0
 14 13  2  0
 15 16  2  0
 16  8  1  0
 16 11  1  0
 17  6  1  0
 17 23  1  0
 18 17  2  0
 20 19  1  6
 20 21  1  0
 22 20  1  0
 22 23  1  1
 22 24  1  0
 24 25  2  0
 24 26  1  0
M  END
$$$$
