YYI.pdb
     RDKit          3D

 33 34  0  0  1  0  0  0  0  0999 V2000
    9.2680  -13.0691   15.4393 O   0  0  0  0  0  0  0  0  0  0  0  0
    8.6868  -13.4496   16.6551 C   0  0  0  0  0  0  0  0  0  0  0  0
    7.3029  -13.3943   16.8130 C   0  0  0  0  0  0  0  0  0  0  0  0
    6.7090  -13.7705   18.0195 C   0  0  0  0  0  0  0  0  0  0  0  0
    7.5036  -14.1978   19.0549 C   0  0  0  0  0  0  0  0  0  0  0  0
    6.9204  -14.6076   20.3545 C   0  0  0  0  0  0  0  0  0  0  0  0
    6.9423  -16.1171   20.4008 C   0  0  2  0  0  0  0  0  0  0  0  0
    5.8314  -16.6152   19.6371 N   0  0  0  0  0  0  0  0  0  0  0  0
    6.8399  -16.6351   21.7973 C   0  0  0  0  0  0  0  0  0  0  0  0
    5.7369  -16.6655   22.3603 O   0  0  0  0  0  0  0  0  0  0  0  0
    8.8752  -14.2445   18.8752 C   0  0  0  0  0  0  0  0  0  0  0  0
    9.4694  -13.8761   17.6910 C   0  0  0  0  0  0  0  0  0  0  0  0
    8.7409  -19.5568   29.7942 O   0  0  0  0  0  0  0  0  0  0  0  0
    8.7367  -19.3317   28.4266 C   0  0  0  0  0  0  0  0  0  0  0  0
    9.9159  -19.0273   27.7681 C   0  0  0  0  0  0  0  0  0  0  0  0
    9.9220  -18.8027   26.4139 C   0  0  0  0  0  0  0  0  0  0  0  0
    8.7189  -18.8905   25.7372 C   0  0  0  0  0  0  0  0  0  0  0  0
    8.7640  -18.6396   24.2627 C   0  0  0  0  0  0  0  0  0  0  0  0
    8.0372  -17.3909   23.8851 C   0  0  2  0  0  0  0  0  0  0  0  0
    7.9962  -17.0976   22.4970 N   0  0  0  0  0  0  0  0  0  0  0  0
    8.6134  -16.2740   24.7147 C   0  0  0  0  0  0  0  0  0  0  0  0
    9.8261  -15.9970   24.5630 O   0  0  0  0  0  0  0  0  0  0  0  0
    7.5482  -19.1943   26.4010 C   0  0  0  0  0  0  0  0  0  0  0  0
    7.5421  -19.4204   27.7641 C   0  0  0  0  0  0  0  0  0  0  0  0
    6.7742  -10.9449   27.1618 C   0  0  0  0  0  0  0  0  0  0  0  0
    7.7322  -12.0755   27.1205 C   0  0  0  0  0  0  0  0  0  0  0  0
    7.3418  -13.2957   26.3946 C   0  0  2  0  0  0  0  0  0  0  0  0
    5.9267  -13.7661   26.6157 C   0  0  0  0  0  0  0  0  0  0  0  0
    8.3816  -14.3459   26.3485 C   0  0  2  0  0  0  0  0  0  0  0  0
    7.8664  -15.5411   25.6348 N   0  0  0  0  0  0  0  0  0  0  0  0
    8.9533  -14.8192   27.5979 C   0  0  0  0  0  0  0  0  0  0  0  0
    9.9141  -14.0320   28.2670 O   0  0  0  0  0  0  0  0  0  0  0  0
    8.6827  -15.8961   28.1823 O   0  0  0  0  0  0  0  0  0  0  0  0
  2  3  2  0
  2  1  1  0
  4  3  1  0
  5  4  2  0
  6  5  1  0
  7  6  1  0
  7  8  1  6
  9 10  2  0
  9  7  1  0
 11  5  1  0
 11 12  2  0
 12  2  1  0
 14 13  1  0
 15 14  2  0
 16 15  1  0
 17 23  1  0
 17 16  2  0
 18 17  1  0
 19 18  1  6
 19 20  1  0
 20  9  1  0
 21 30  1  0
 21 19  1  0
 22 21  2  0
 23 24  2  0
 24 14  1  0
 26 27  1  0
 26 25  1  0
 27 28  1  1
 27 29  1  0
 29 30  1  1
 29 31  1  0
 31 32  1  0
 33 31  2  0
M  END
$$$$
