YYI.pdb
     RDKit          3D

 33 34  0  0  1  0  0  0  0  0999 V2000
    8.2624  -13.5438   15.1206 O   0  0  0  0  0  0  0  0  0  0  0  0
    7.8935  -13.9117   16.4203 C   0  0  0  0  0  0  0  0  0  0  0  0
    7.2963  -15.1500   16.6507 C   0  0  0  0  0  0  0  0  0  0  0  0
    6.9231  -15.5306   17.9413 C   0  0  0  0  0  0  0  0  0  0  0  0
    7.1504  -14.6705   18.9876 C   0  0  0  0  0  0  0  0  0  0  0  0
    6.7721  -15.0292   20.3751 C   0  0  0  0  0  0  0  0  0  0  0  0
    8.0511  -15.1906   21.1621 C   0  0  2  0  0  0  0  0  0  0  0  0
    8.9082  -16.1066   20.4608 N   0  0  0  0  0  0  0  0  0  0  0  0
    7.7995  -15.7191   22.5355 C   0  0  0  0  0  0  0  0  0  0  0  0
    7.0093  -15.1282   23.2844 O   0  0  0  0  0  0  0  0  0  0  0  0
    7.7447  -13.4463   18.7349 C   0  0  0  0  0  0  0  0  0  0  0  0
    8.1157  -13.0625   17.4676 C   0  0  0  0  0  0  0  0  0  0  0  0
    4.4141  -21.4320   21.2967 O   0  0  0  0  0  0  0  0  0  0  0  0
    5.4013  -20.8181   22.0513 C   0  0  0  0  0  0  0  0  0  0  0  0
    5.1185  -20.3607   23.3270 C   0  0  0  0  0  0  0  0  0  0  0  0
    6.0896  -19.7513   24.0820 C   0  0  0  0  0  0  0  0  0  0  0  0
    7.3490  -19.6121   23.5276 C   0  0  0  0  0  0  0  0  0  0  0  0
    8.3817  -18.9433   24.3795 C   0  0  0  0  0  0  0  0  0  0  0  0
    8.2960  -17.4547   24.2977 C   0  0  2  0  0  0  0  0  0  0  0  0
    8.4568  -16.8986   23.0017 N   0  0  0  0  0  0  0  0  0  0  0  0
    9.2617  -16.8983   25.3103 C   0  0  0  0  0  0  0  0  0  0  0  0
   10.4858  -16.9634   25.0501 O   0  0  0  0  0  0  0  0  0  0  0  0
    7.6227  -20.0707   22.2555 C   0  0  0  0  0  0  0  0  0  0  0  0
    6.6451  -20.6840   21.4955 C   0  0  0  0  0  0  0  0  0  0  0  0
    7.7010  -12.8111   29.0922 C   0  0  0  0  0  0  0  0  0  0  0  0
    8.1521  -14.1476   28.6361 C   0  0  0  0  0  0  0  0  0  0  0  0
    9.2546  -14.2181   27.6626 C   0  0  2  0  0  0  0  0  0  0  0  0
    9.1209  -13.3264   26.4545 C   0  0  0  0  0  0  0  0  0  0  0  0
    9.7753  -15.5801   27.4173 C   0  0  2  0  0  0  0  0  0  0  0  0
    8.8599  -16.3194   26.5125 N   0  0  0  0  0  0  0  0  0  0  0  0
   10.0290  -16.4473   28.5554 C   0  0  0  0  0  0  0  0  0  0  0  0
   11.0209  -16.0929   29.4941 O   0  0  0  0  0  0  0  0  0  0  0  0
    9.4440  -17.5260   28.8171 O   0  0  0  0  0  0  0  0  0  0  0  0
  2  3  2  0
  2  1  1  0
  4  3  1  0
  5  4  2  0
  6  5  1  0
  7  6  1  0
  7  8  1  6
  9 10  2  0
  9  7  1  0
 11  5  1  0
 11 12  2  0
 12  2  1  0
 14 13  1  0
 15 14  2  0
 16 15  1  0
 17 23  1  0
 17 16  2  0
 18 17  1  0
 19 18  1  6
 19 20  1  0
 20  9  1  0
 21 30  1  0
 21 19  1  0
 22 21  2  0
 23 24  2  0
 24 14  1  0
 26 27  1  0
 26 25  1  0
 27 28  1  6
 27 29  1  0
 29 30  1  6
 29 31  1  0
 31 32  1  0
 33 31  2  0
M  END
$$$$
