YYI.pdb
     RDKit          3D

 33 34  0  0  1  0  0  0  0  0999 V2000
    0.8715  -19.9816   20.4774 O   0  0  0  0  0  0  0  0  0  0  0  0
    2.1314  -19.5994   20.9542 C   0  0  0  0  0  0  0  0  0  0  0  0
    3.2090  -20.4784   20.8569 C   0  0  0  0  0  0  0  0  0  0  0  0
    4.4712  -20.1112   21.3280 C   0  0  0  0  0  0  0  0  0  0  0  0
    4.6435  -18.8704   21.8908 C   0  0  0  0  0  0  0  0  0  0  0  0
    5.9636  -18.4349   22.4050 C   0  0  0  0  0  0  0  0  0  0  0  0
    6.6931  -17.7682   21.2628 C   0  0  2  0  0  0  0  0  0  0  0  0
    6.5537  -18.5870   20.0899 N   0  0  0  0  0  0  0  0  0  0  0  0
    8.1458  -17.5879   21.5565 C   0  0  0  0  0  0  0  0  0  0  0  0
    8.9905  -18.0464   20.7752 O   0  0  0  0  0  0  0  0  0  0  0  0
    3.5593  -18.0144   21.9767 C   0  0  0  0  0  0  0  0  0  0  0  0
    2.3125  -18.3668   21.5158 C   0  0  0  0  0  0  0  0  0  0  0  0
    8.9444  -13.4963   16.7382 O   0  0  0  0  0  0  0  0  0  0  0  0
    8.7310  -13.7623   18.0816 C   0  0  0  0  0  0  0  0  0  0  0  0
    7.6445  -13.2078   18.7364 C   0  0  0  0  0  0  0  0  0  0  0  0
    7.4247  -13.4653   20.0667 C   0  0  0  0  0  0  0  0  0  0  0  0
    8.3193  -14.2909   20.7233 C   0  0  0  0  0  0  0  0  0  0  0  0
    8.0479  -14.5491   22.1721 C   0  0  0  0  0  0  0  0  0  0  0  0
    9.0034  -15.5390   22.7526 C   0  0  2  0  0  0  0  0  0  0  0  0
    8.5789  -16.8932   22.7272 N   0  0  0  0  0  0  0  0  0  0  0  0
    9.3638  -15.0520   24.1312 C   0  0  0  0  0  0  0  0  0  0  0  0
   10.0228  -13.9903   24.2239 O   0  0  0  0  0  0  0  0  0  0  0  0
    9.3996  -14.8395   20.0633 C   0  0  0  0  0  0  0  0  0  0  0  0
    9.6208  -14.5802   18.7242 C   0  0  0  0  0  0  0  0  0  0  0  0
    5.7614  -13.1326   27.2113 C   0  0  0  0  0  0  0  0  0  0  0  0
    6.6592  -14.1351   26.5896 C   0  0  0  0  0  0  0  0  0  0  0  0
    8.1078  -13.8708   26.5898 C   0  0  2  0  0  0  0  0  0  0  0  0
    8.5727  -12.7636   25.6785 C   0  0  0  0  0  0  0  0  0  0  0  0
    8.9561  -15.0810   26.6360 C   0  0  2  0  0  0  0  0  0  0  0  0
    9.0010  -15.7221   25.2980 N   0  0  0  0  0  0  0  0  0  0  0  0
    8.6303  -16.1274   27.5903 C   0  0  0  0  0  0  0  0  0  0  0  0
    8.2475  -17.4023   27.1229 O   0  0  0  0  0  0  0  0  0  0  0  0
    8.6490  -16.0293   28.8411 O   0  0  0  0  0  0  0  0  0  0  0  0
  2  3  2  0
  2  1  1  0
  4  3  1  0
  5  4  2  0
  6  5  1  0
  7  6  1  0
  7  8  1  6
  9 10  2  0
  9  7  1  0
 11  5  1  0
 11 12  2  0
 12  2  1  0
 14 13  1  0
 15 14  2  0
 16 15  1  0
 17 23  1  0
 17 16  2  0
 18 17  1  0
 19 18  1  1
 19 20  1  0
 20  9  1  0
 21 30  1  0
 21 19  1  0
 22 21  2  0
 23 24  2  0
 24 14  1  0
 26 27  1  0
 26 25  1  0
 27 28  1  6
 27 29  1  0
 29 30  1  6
 29 31  1  0
 31 32  1  0
 33 31  2  0
M  END
$$$$
