YYI.pdb
     RDKit          3D

 33 34  0  0  1  0  0  0  0  0999 V2000
    9.6909  -12.8773   17.1964 O   0  0  0  0  0  0  0  0  0  0  0  0
    8.8390  -13.4055   18.1742 C   0  0  0  0  0  0  0  0  0  0  0  0
    7.4570  -13.3066   18.0211 C   0  0  0  0  0  0  0  0  0  0  0  0
    6.5950  -13.8286   18.9878 C   0  0  0  0  0  0  0  0  0  0  0  0
    7.1227  -14.4436   20.0966 C   0  0  0  0  0  0  0  0  0  0  0  0
    6.2491  -15.0131   21.1499 C   0  0  0  0  0  0  0  0  0  0  0  0
    6.6290  -16.4659   21.3119 C   0  0  2  0  0  0  0  0  0  0  0  0
    5.6424  -17.2742   20.6494 N   0  0  0  0  0  0  0  0  0  0  0  0
    6.6991  -16.8687   22.7478 C   0  0  0  0  0  0  0  0  0  0  0  0
    5.6556  -16.9695   23.4076 O   0  0  0  0  0  0  0  0  0  0  0  0
    8.4978  -14.5302   20.2272 C   0  0  0  0  0  0  0  0  0  0  0  0
    9.3548  -14.0193   19.2809 C   0  0  0  0  0  0  0  0  0  0  0  0
    5.3678  -22.9863   24.2270 O   0  0  0  0  0  0  0  0  0  0  0  0
    6.2092  -21.9081   24.4520 C   0  0  0  0  0  0  0  0  0  0  0  0
    6.2437  -21.3002   25.6953 C   0  0  0  0  0  0  0  0  0  0  0  0
    7.0737  -20.2318   25.9279 C   0  0  0  0  0  0  0  0  0  0  0  0
    7.8669  -19.7886   24.8850 C   0  0  0  0  0  0  0  0  0  0  0  0
    8.7586  -18.6224   25.1752 C   0  0  0  0  0  0  0  0  0  0  0  0
    8.1353  -17.3272   24.7703 C   0  0  2  0  0  0  0  0  0  0  0  0
    7.9533  -17.1405   23.3751 N   0  0  0  0  0  0  0  0  0  0  0  0
    8.9335  -16.2283   25.4207 C   0  0  0  0  0  0  0  0  0  0  0  0
   10.0885  -16.0079   24.9876 O   0  0  0  0  0  0  0  0  0  0  0  0
    7.8265  -20.4001   23.6489 C   0  0  0  0  0  0  0  0  0  0  0  0
    6.9910  -21.4755   23.4149 C   0  0  0  0  0  0  0  0  0  0  0  0
    6.4563  -11.7371   27.9758 C   0  0  0  0  0  0  0  0  0  0  0  0
    7.1955  -13.0152   27.8424 C   0  0  0  0  0  0  0  0  0  0  0  0
    8.3383  -13.0678   26.9154 C   0  0  2  0  0  0  0  0  0  0  0  0
    8.0715  -12.5731   25.5166 C   0  0  0  0  0  0  0  0  0  0  0  0
    9.1729  -14.2827   27.0326 C   0  0  2  0  0  0  0  0  0  0  0  0
    8.4505  -15.4522   26.4725 N   0  0  0  0  0  0  0  0  0  0  0  0
    9.6526  -14.6774   28.3463 C   0  0  0  0  0  0  0  0  0  0  0  0
    9.2739  -15.9274   28.8799 O   0  0  0  0  0  0  0  0  0  0  0  0
   10.3994  -14.0082   29.1006 O   0  0  0  0  0  0  0  0  0  0  0  0
  2  3  2  0
  2  1  1  0
  4  3  1  0
  5  4  2  0
  6  5  1  0
  7  6  1  0
  7  8  1  6
  9 10  2  0
  9  7  1  0
 11  5  1  0
 11 12  2  0
 12  2  1  0
 14 13  1  0
 15 14  2  0
 16 15  1  0
 17 23  1  0
 17 16  2  0
 18 17  1  0
 19 18  1  6
 19 20  1  0
 20  9  1  0
 21 30  1  0
 21 19  1  0
 22 21  2  0
 23 24  2  0
 24 14  1  0
 26 27  1  0
 26 25  1  0
 27 28  1  6
 27 29  1  0
 29 30  1  1
 29 31  1  0
 31 32  1  0
 33 31  2  0
M  END
$$$$
