YYI.pdb
     RDKit          3D

 33 34  0  0  1  0  0  0  0  0999 V2000
    8.3365  -15.1244   13.9461 O   0  0  0  0  0  0  0  0  0  0  0  0
    8.8020  -14.7565   15.2144 C   0  0  0  0  0  0  0  0  0  0  0  0
    7.9903  -14.0058   16.0635 C   0  0  0  0  0  0  0  0  0  0  0  0
    8.4409  -13.6314   17.3311 C   0  0  0  0  0  0  0  0  0  0  0  0
    9.6969  -14.0108   17.7368 C   0  0  0  0  0  0  0  0  0  0  0  0
   10.2198  -13.6380   19.0726 C   0  0  0  0  0  0  0  0  0  0  0  0
   10.4881  -14.9203   19.8241 C   0  0  2  0  0  0  0  0  0  0  0  0
    9.5696  -15.9239   19.3607 N   0  0  0  0  0  0  0  0  0  0  0  0
   10.3165  -14.7512   21.2975 C   0  0  0  0  0  0  0  0  0  0  0  0
   11.1214  -14.0560   21.9325 O   0  0  0  0  0  0  0  0  0  0  0  0
   10.4850  -14.7559   16.8769 C   0  0  0  0  0  0  0  0  0  0  0  0
   10.0503  -15.1294   15.6268 C   0  0  0  0  0  0  0  0  0  0  0  0
    5.8700  -12.0394   28.0034 O   0  0  0  0  0  0  0  0  0  0  0  0
    6.2308  -12.8045   26.9055 C   0  0  0  0  0  0  0  0  0  0  0  0
    6.6995  -12.1929   25.7553 C   0  0  0  0  0  0  0  0  0  0  0  0
    7.0594  -12.9420   24.6627 C   0  0  0  0  0  0  0  0  0  0  0  0
    6.9380  -14.3170   24.7515 C   0  0  0  0  0  0  0  0  0  0  0  0
    7.3395  -15.1007   23.5416 C   0  0  0  0  0  0  0  0  0  0  0  0
    8.8124  -15.0438   23.3015 C   0  0  2  0  0  0  0  0  0  0  0  0
    9.2362  -15.3798   21.9892 N   0  0  0  0  0  0  0  0  0  0  0  0
    9.4689  -15.8747   24.3721 C   0  0  0  0  0  0  0  0  0  0  0  0
    9.8423  -17.0319   24.0691 O   0  0  0  0  0  0  0  0  0  0  0  0
    6.4700  -14.9186   25.9015 C   0  0  0  0  0  0  0  0  0  0  0  0
    6.1078  -14.1645   27.0012 C   0  0  0  0  0  0  0  0  0  0  0  0
   10.8636  -12.9328   28.7306 C   0  0  0  0  0  0  0  0  0  0  0  0
   11.0447  -13.9216   27.6411 C   0  0  0  0  0  0  0  0  0  0  0  0
   10.6535  -15.3186   27.8934 C   0  0  2  0  0  0  0  0  0  0  0  0
   11.3196  -15.9838   29.0709 C   0  0  0  0  0  0  0  0  0  0  0  0
   10.4954  -16.1446   26.6773 C   0  0  2  0  0  0  0  0  0  0  0  0
    9.6784  -15.4195   25.6724 N   0  0  0  0  0  0  0  0  0  0  0  0
    9.9201  -17.4730   26.8043 C   0  0  0  0  0  0  0  0  0  0  0  0
    8.5210  -17.6191   26.9122 O   0  0  0  0  0  0  0  0  0  0  0  0
   10.5479  -18.5592   26.8309 O   0  0  0  0  0  0  0  0  0  0  0  0
  2  3  2  0
  2  1  1  0
  4  3  1  0
  5  4  2  0
  6  5  1  0
  7  6  1  0
  7  8  1  6
  9 10  2  0
  9  7  1  0
 11  5  1  0
 11 12  2  0
 12  2  1  0
 14 13  1  0
 15 14  2  0
 16 15  1  0
 17 23  1  0
 17 16  2  0
 18 17  1  0
 19 18  1  6
 19 20  1  0
 20  9  1  0
 21 30  1  0
 21 19  1  0
 22 21  2  0
 23 24  2  0
 24 14  1  0
 26 27  1  0
 26 25  1  0
 27 28  1  1
 27 29  1  0
 29 30  1  6
 29 31  1  0
 31 32  1  0
 33 31  2  0
M  END
$$$$
