YYI.pdb
     RDKit          3D

 33 34  0  0  1  0  0  0  0  0999 V2000
    9.5216  -12.6589   17.1220 O   0  0  0  0  0  0  0  0  0  0  0  0
    8.7330  -13.2228   18.1324 C   0  0  0  0  0  0  0  0  0  0  0  0
    7.3675  -13.4121   17.9263 C   0  0  0  0  0  0  0  0  0  0  0  0
    6.5684  -13.9732   18.9247 C   0  0  0  0  0  0  0  0  0  0  0  0
    7.1419  -14.3390   20.1177 C   0  0  0  0  0  0  0  0  0  0  0  0
    6.3358  -14.9384   21.2076 C   0  0  0  0  0  0  0  0  0  0  0  0
    6.7160  -16.3973   21.2977 C   0  0  2  0  0  0  0  0  0  0  0  0
    5.8324  -17.1542   20.4539 N   0  0  0  0  0  0  0  0  0  0  0  0
    6.6139  -16.9166   22.6937 C   0  0  0  0  0  0  0  0  0  0  0  0
    5.5056  -16.9846   23.2427 O   0  0  0  0  0  0  0  0  0  0  0  0
    8.4997  -14.1416   20.2998 C   0  0  0  0  0  0  0  0  0  0  0  0
    9.2948  -13.5899   19.3229 C   0  0  0  0  0  0  0  0  0  0  0  0
    4.9307  -22.8501   22.6583 O   0  0  0  0  0  0  0  0  0  0  0  0
    5.7472  -21.9083   23.2643 C   0  0  0  0  0  0  0  0  0  0  0  0
    5.4172  -21.3993   24.5088 C   0  0  0  0  0  0  0  0  0  0  0  0
    6.2195  -20.4662   25.1172 C   0  0  0  0  0  0  0  0  0  0  0  0
    7.3588  -20.0567   24.4484 C   0  0  0  0  0  0  0  0  0  0  0  0
    8.2088  -19.0389   25.1419 C   0  0  0  0  0  0  0  0  0  0  0  0
    7.8062  -17.6434   24.7946 C   0  0  2  0  0  0  0  0  0  0  0  0
    7.7766  -17.3375   23.4089 N   0  0  0  0  0  0  0  0  0  0  0  0
    8.6852  -16.7166   25.5921 C   0  0  0  0  0  0  0  0  0  0  0  0
    9.8832  -16.6006   25.2433 O   0  0  0  0  0  0  0  0  0  0  0  0
    7.6805  -20.5689   23.2084 C   0  0  0  0  0  0  0  0  0  0  0  0
    6.8729  -21.5081   22.5961 C   0  0  0  0  0  0  0  0  0  0  0  0
    6.3050  -12.3602   27.5043 C   0  0  0  0  0  0  0  0  0  0  0  0
    7.3050  -13.3377   27.0121 C   0  0  0  0  0  0  0  0  0  0  0  0
    8.2357  -13.9347   27.9846 C   0  0  2  0  0  0  0  0  0  0  0  0
    8.9186  -12.9676   28.9179 C   0  0  0  0  0  0  0  0  0  0  0  0
    9.0731  -15.0282   27.4467 C   0  0  2  0  0  0  0  0  0  0  0  0
    8.2313  -15.9885   26.6901 N   0  0  0  0  0  0  0  0  0  0  0  0
    9.8761  -15.8127   28.3694 C   0  0  0  0  0  0  0  0  0  0  0  0
   11.1732  -15.3747   28.7105 O   0  0  0  0  0  0  0  0  0  0  0  0
    9.5390  -16.8851   28.9268 O   0  0  0  0  0  0  0  0  0  0  0  0
  2  3  2  0
  2  1  1  0
  4  3  1  0
  5  4  2  0
  6  5  1  0
  7  6  1  0
  7  8  1  6
  9 10  2  0
  9  7  1  0
 11  5  1  0
 11 12  2  0
 12  2  1  0
 14 13  1  0
 15 14  2  0
 16 15  1  0
 17 23  1  0
 17 16  2  0
 18 17  1  0
 19 18  1  6
 19 20  1  0
 20  9  1  0
 21 30  1  0
 21 19  1  0
 22 21  2  0
 23 24  2  0
 24 14  1  0
 26 27  1  0
 26 25  1  0
 27 28  1  6
 27 29  1  0
 29 30  1  1
 29 31  1  0
 31 32  1  0
 33 31  2  0
M  END
$$$$
