YYI.pdb
     RDKit          3D

 33 34  0  0  1  0  0  0  0  0999 V2000
    8.0508  -12.1226   16.1389 O   0  0  0  0  0  0  0  0  0  0  0  0
    7.8798  -12.7948   17.3552 C   0  0  0  0  0  0  0  0  0  0  0  0
    6.8431  -13.7150   17.5027 C   0  0  0  0  0  0  0  0  0  0  0  0
    6.6600  -14.3929   18.7097 C   0  0  0  0  0  0  0  0  0  0  0  0
    7.5142  -14.1445   19.7560 C   0  0  0  0  0  0  0  0  0  0  0  0
    7.3608  -14.8388   21.0565 C   0  0  0  0  0  0  0  0  0  0  0  0
    8.1812  -16.1051   20.9894 C   0  0  2  0  0  0  0  0  0  0  0  0
    7.5102  -17.0409   20.1293 N   0  0  0  0  0  0  0  0  0  0  0  0
    8.3601  -16.7275   22.3346 C   0  0  0  0  0  0  0  0  0  0  0  0
    7.3957  -17.2689   22.8925 O   0  0  0  0  0  0  0  0  0  0  0  0
    8.5363  -13.2268   19.5865 C   0  0  0  0  0  0  0  0  0  0  0  0
    8.7247  -12.5542   18.4020 C   0  0  0  0  0  0  0  0  0  0  0  0
    9.5856  -22.8370   21.4024 O   0  0  0  0  0  0  0  0  0  0  0  0
    9.9188  -21.7066   22.1319 C   0  0  0  0  0  0  0  0  0  0  0  0
    9.6454  -21.6480   23.4878 C   0  0  0  0  0  0  0  0  0  0  0  0
    9.9716  -20.5328   24.2188 C   0  0  0  0  0  0  0  0  0  0  0  0
   10.5777  -19.4796   23.5581 C   0  0  0  0  0  0  0  0  0  0  0  0
   10.9188  -18.2812   24.3868 C   0  0  0  0  0  0  0  0  0  0  0  0
    9.8727  -17.2197   24.2926 C   0  0  2  0  0  0  0  0  0  0  0  0
    9.6286  -16.7088   22.9910 N   0  0  0  0  0  0  0  0  0  0  0  0
   10.2301  -16.1542   25.2949 C   0  0  0  0  0  0  0  0  0  0  0  0
   11.2702  -15.4850   25.0929 O   0  0  0  0  0  0  0  0  0  0  0  0
   10.8467  -19.5460   22.2065 C   0  0  0  0  0  0  0  0  0  0  0  0
   10.5183  -20.6686   21.4708 C   0  0  0  0  0  0  0  0  0  0  0  0
    6.5520  -12.9410   26.5818 C   0  0  0  0  0  0  0  0  0  0  0  0
    7.9053  -13.5286   26.4374 C   0  0  0  0  0  0  0  0  0  0  0  0
    8.6094  -13.9684   27.6536 C   0  0  2  0  0  0  0  0  0  0  0  0
    8.7417  -12.9363   28.7443 C   0  0  0  0  0  0  0  0  0  0  0  0
    9.7947  -14.8175   27.4078 C   0  0  2  0  0  0  0  0  0  0  0  0
    9.4640  -15.8809   26.4263 N   0  0  0  0  0  0  0  0  0  0  0  0
   10.4308  -15.4741   28.5373 C   0  0  0  0  0  0  0  0  0  0  0  0
   10.1718  -16.8384   28.7866 O   0  0  0  0  0  0  0  0  0  0  0  0
   11.2213  -14.9487   29.3581 O   0  0  0  0  0  0  0  0  0  0  0  0
  2  3  2  0
  2  1  1  0
  4  3  1  0
  5  4  2  0
  6  5  1  0
  7  6  1  0
  7  8  1  6
  9 10  2  0
  9  7  1  0
 11  5  1  0
 11 12  2  0
 12  2  1  0
 14 13  1  0
 15 14  2  0
 16 15  1  0
 17 23  1  0
 17 16  2  0
 18 17  1  0
 19 18  1  6
 19 20  1  0
 20  9  1  0
 21 30  1  0
 21 19  1  0
 22 21  2  0
 23 24  2  0
 24 14  1  0
 26 27  1  0
 26 25  1  0
 27 28  1  6
 27 29  1  0
 29 30  1  6
 29 31  1  0
 31 32  1  0
 33 31  2  0
M  END
$$$$
