YYI.pdb
     RDKit          3D

 33 34  0  0  1  0  0  0  0  0999 V2000
    9.3091  -13.1736   15.8081 O   0  0  0  0  0  0  0  0  0  0  0  0
    8.6970  -13.5442   17.0117 C   0  0  0  0  0  0  0  0  0  0  0  0
    9.3328  -14.4405   17.8694 C   0  0  0  0  0  0  0  0  0  0  0  0
    8.7347  -14.8194   19.0730 C   0  0  0  0  0  0  0  0  0  0  0  0
    7.5083  -14.2991   19.4068 C   0  0  0  0  0  0  0  0  0  0  0  0
    6.8332  -14.6705   20.6729 C   0  0  0  0  0  0  0  0  0  0  0  0
    6.5930  -16.1611   20.6336 C   0  0  2  0  0  0  0  0  0  0  0  0
    5.3807  -16.4109   19.9032 N   0  0  0  0  0  0  0  0  0  0  0  0
    6.4613  -16.7425   22.0024 C   0  0  0  0  0  0  0  0  0  0  0  0
    5.3896  -16.6335   22.6140 O   0  0  0  0  0  0  0  0  0  0  0  0
    6.8959  -13.4109   18.5397 C   0  0  0  0  0  0  0  0  0  0  0  0
    7.4768  -13.0317   17.3523 C   0  0  0  0  0  0  0  0  0  0  0  0
    8.6689  -19.4929   29.9903 O   0  0  0  0  0  0  0  0  0  0  0  0
    8.5879  -19.3454   28.6146 C   0  0  0  0  0  0  0  0  0  0  0  0
    9.7330  -19.1171   27.8708 C   0  0  0  0  0  0  0  0  0  0  0  0
    9.6630  -18.9696   26.5078 C   0  0  0  0  0  0  0  0  0  0  0  0
    8.4188  -19.0565   25.9098 C   0  0  0  0  0  0  0  0  0  0  0  0
    8.3812  -18.8909   24.4231 C   0  0  0  0  0  0  0  0  0  0  0  0
    7.6919  -17.6296   24.0179 C   0  0  2  0  0  0  0  0  0  0  0  0
    7.5538  -17.4245   22.6202 N   0  0  0  0  0  0  0  0  0  0  0  0
    8.3908  -16.4964   24.7215 C   0  0  0  0  0  0  0  0  0  0  0  0
    9.5828  -16.2621   24.4144 O   0  0  0  0  0  0  0  0  0  0  0  0
    7.2824  -19.2843   26.6584 C   0  0  0  0  0  0  0  0  0  0  0  0
    7.3530  -19.4327   28.0303 C   0  0  0  0  0  0  0  0  0  0  0  0
    7.1539  -10.8147   26.2854 C   0  0  0  0  0  0  0  0  0  0  0  0
    7.9759  -12.0268   26.5146 C   0  0  0  0  0  0  0  0  0  0  0  0
    7.4698  -13.3180   26.0197 C   0  0  2  0  0  0  0  0  0  0  0  0
    6.0022  -13.5775   26.2461 C   0  0  0  0  0  0  0  0  0  0  0  0
    8.3791  -14.4629   26.2400 C   0  0  2  0  0  0  0  0  0  0  0  0
    7.7778  -15.7035   25.6898 N   0  0  0  0  0  0  0  0  0  0  0  0
    8.8021  -14.7691   27.5962 C   0  0  0  0  0  0  0  0  0  0  0  0
    8.3451  -15.9498   28.2188 O   0  0  0  0  0  0  0  0  0  0  0  0
    9.5617  -14.0765   28.3157 O   0  0  0  0  0  0  0  0  0  0  0  0
  2  3  2  0
  2  1  1  0
  4  3  1  0
  5  4  2  0
  6  5  1  0
  7  6  1  0
  7  8  1  6
  9 10  2  0
  9  7  1  0
 11  5  1  0
 11 12  2  0
 12  2  1  0
 14 13  1  0
 15 14  2  0
 16 15  1  0
 17 23  1  0
 17 16  2  0
 18 17  1  0
 19 18  1  6
 19 20  1  0
 20  9  1  0
 21 30  1  0
 21 19  1  0
 22 21  2  0
 23 24  2  0
 24 14  1  0
 26 27  1  0
 26 25  1  0
 27 28  1  1
 27 29  1  0
 29 30  1  1
 29 31  1  0
 31 32  1  0
 33 31  2  0
M  END
$$$$
