QMD.pdb
     RDKit          3D

 26 25  0  0  1  0  0  0  0  0999 V2000
    8.0540  -12.2008   17.8957 N   0  0  0  0  0  0  0  0  0  0  0  0
    7.6700  -13.5718   17.6444 C   0  0  0  0  0  0  0  0  0  0  0  0
    7.4766  -13.9305   16.4763 O   0  0  0  0  0  0  0  0  0  0  0  0
    7.5087  -14.5257   18.7537 C   0  0  0  0  0  0  0  0  0  0  0  0
    8.6514  -15.4610   18.8477 C   0  0  0  0  0  0  0  0  0  0  0  0
    8.5533  -16.4450   19.9952 C   0  0  2  0  0  0  0  0  0  0  0  0
    7.1429  -16.8274   20.1861 N   0  0  0  0  0  0  0  0  0  0  0  0
    8.9744  -15.7381   21.2331 C   0  0  0  0  0  0  0  0  0  0  0  0
   10.1062  -15.1638   21.3240 O   0  0  0  0  0  0  0  0  0  0  0  0
    6.8944  -11.6633   27.5578 C   0  0  0  0  0  0  0  0  0  0  0  0
    6.3227  -12.7573   26.2310 S   0  0  0  0  0  0  0  0  0  0  0  0
    7.7385  -13.6442   25.4991 C   0  0  0  0  0  0  0  0  0  0  0  0
    7.2823  -14.4022   24.2742 C   0  0  0  0  0  0  0  0  0  0  0  0
    8.4480  -15.0529   23.5597 C   0  0  2  0  0  0  0  0  0  0  0  0
    8.0718  -15.7130   22.3423 N   0  0  0  0  0  0  0  0  0  0  0  0
    9.0136  -16.0610   24.4905 C   0  0  0  0  0  0  0  0  0  0  0  0
    8.3265  -17.0715   24.7609 O   0  0  0  0  0  0  0  0  0  0  0  0
   10.3062  -15.8978   25.0716 N   0  0  0  0  0  0  0  0  0  0  0  0
   10.8648  -16.9529   25.8466 C   0  0  1  0  0  0  0  0  0  0  0  0
   12.3826  -17.0273   25.7127 C   0  0  0  0  0  0  0  0  0  0  0  0
   12.7390  -17.0114   24.2729 C   0  0  0  0  0  0  0  0  0  0  0  0
   12.2459  -17.8478   23.4803 O   0  0  0  0  0  0  0  0  0  0  0  0
   10.4839  -16.8370   27.2936 C   0  0  0  0  0  0  0  0  0  0  0  0
    9.8362  -15.8319   27.6615 O   0  0  0  0  0  0  0  0  0  0  0  0
   13.6373  -16.0404   23.8356 O   0  0  0  0  0  0  0  0  0  0  0  0
   10.8196  -17.7926   28.2269 O   0  0  0  0  0  0  0  0  0  0  0  0
  2  1  1  0
  3  2  2  0
  4  2  1  0
  5  4  1  0
  6  5  1  0
  6  7  1  1
  8  6  1  0
  9  8  2  0
 11 10  1  0
 11 12  1  0
 14 13  1  1
 13 12  1  0
 14 15  1  0
 15  8  1  0
 16 18  1  0
 16 14  1  0
 17 16  2  0
 19 18  1  0
 19 20  1  1
 20 21  1  0
 21 22  2  0
 23 26  1  0
 23 19  1  0
 24 23  2  0
 25 21  1  0
M  END
$$$$
