QMD.pdb
     RDKit          3D

 26 25  0  0  1  0  0  0  0  0999 V2000
    9.7028  -16.5605   16.4581 N   0  0  0  0  0  0  0  0  0  0  0  0
    8.4201  -15.9983   16.8170 C   0  0  0  0  0  0  0  0  0  0  0  0
    7.5572  -15.8776   15.9387 O   0  0  0  0  0  0  0  0  0  0  0  0
    8.1422  -15.5740   18.1987 C   0  0  0  0  0  0  0  0  0  0  0  0
    9.2921  -15.8261   19.0951 C   0  0  0  0  0  0  0  0  0  0  0  0
    8.9835  -16.7539   20.2521 C   0  0  2  0  0  0  0  0  0  0  0  0
    7.5349  -17.0231   20.2839 N   0  0  0  0  0  0  0  0  0  0  0  0
    9.3103  -16.0316   21.5095 C   0  0  0  0  0  0  0  0  0  0  0  0
   10.4699  -15.5545   21.7253 O   0  0  0  0  0  0  0  0  0  0  0  0
    6.9476  -11.3716   27.2501 C   0  0  0  0  0  0  0  0  0  0  0  0
    6.3857  -12.5842   26.0263 S   0  0  0  0  0  0  0  0  0  0  0  0
    7.7793  -13.6412   25.5090 C   0  0  0  0  0  0  0  0  0  0  0  0
    7.4069  -14.3892   24.2501 C   0  0  0  0  0  0  0  0  0  0  0  0
    8.5672  -15.2121   23.7311 C   0  0  2  0  0  0  0  0  0  0  0  0
    8.2827  -15.8784   22.4924 N   0  0  0  0  0  0  0  0  0  0  0  0
    8.8629  -16.2365   24.7635 C   0  0  0  0  0  0  0  0  0  0  0  0
    7.9743  -17.0725   25.0426 O   0  0  0  0  0  0  0  0  0  0  0  0
   10.1228  -16.2813   25.4311 N   0  0  0  0  0  0  0  0  0  0  0  0
   10.4201  -17.3726   26.2952 C   0  0  1  0  0  0  0  0  0  0  0  0
   11.8686  -17.8333   26.1670 C   0  0  0  0  0  0  0  0  0  0  0  0
   11.9591  -18.8355   25.0771 C   0  0  0  0  0  0  0  0  0  0  0  0
   10.9381  -19.1834   24.4388 O   0  0  0  0  0  0  0  0  0  0  0  0
   10.1127  -17.0432   27.7268 C   0  0  0  0  0  0  0  0  0  0  0  0
    9.8437  -15.8576   28.0219 O   0  0  0  0  0  0  0  0  0  0  0  0
   13.2116  -19.3744   24.7909 O   0  0  0  0  0  0  0  0  0  0  0  0
   10.1156  -17.9944   28.7229 O   0  0  0  0  0  0  0  0  0  0  0  0
  2  1  1  0
  3  2  2  0
  4  2  1  0
  5  4  1  0
  6  5  1  0
  6  7  1  1
  8  6  1  0
  9  8  2  0
 11 10  1  0
 11 12  1  0
 14 13  1  1
 13 12  1  0
 14 15  1  0
 15  8  1  0
 16 18  1  0
 16 14  1  0
 17 16  2  0
 19 18  1  0
 19 20  1  1
 20 21  1  0
 21 22  2  0
 23 26  1  0
 23 19  1  0
 24 23  2  0
 25 21  1  0
M  END
$$$$
