QMD.pdb
     RDKit          3D

 26 25  0  0  1  0  0  0  0  0999 V2000
    5.2551  -19.1144   19.7526 N   0  0  0  0  0  0  0  0  0  0  0  0
    6.2326  -18.2663   19.1080 C   0  0  0  0  0  0  0  0  0  0  0  0
    5.8352  -17.3369   18.3947 O   0  0  0  0  0  0  0  0  0  0  0  0
    7.6739  -18.5014   19.2918 C   0  0  0  0  0  0  0  0  0  0  0  0
    8.2079  -17.7678   20.4606 C   0  0  0  0  0  0  0  0  0  0  0  0
    8.2839  -16.2672   20.2679 C   0  0  2  0  0  0  0  0  0  0  0  0
    9.2820  -15.9625   19.2274 N   0  0  0  0  0  0  0  0  0  0  0  0
    8.7927  -15.6749   21.5328 C   0  0  0  0  0  0  0  0  0  0  0  0
   10.0378  -15.6016   21.7843 O   0  0  0  0  0  0  0  0  0  0  0  0
    6.4001  -10.8498   26.0331 C   0  0  0  0  0  0  0  0  0  0  0  0
    6.4216  -12.5288   26.7147 S   0  0  0  0  0  0  0  0  0  0  0  0
    7.7076  -13.5225   25.8868 C   0  0  0  0  0  0  0  0  0  0  0  0
    7.2131  -13.9586   24.5272 C   0  0  0  0  0  0  0  0  0  0  0  0
    8.2896  -14.6926   23.7557 C   0  0  2  0  0  0  0  0  0  0  0  0
    7.8440  -15.1798   22.4816 N   0  0  0  0  0  0  0  0  0  0  0  0
    8.7014  -15.8500   24.5884 C   0  0  0  0  0  0  0  0  0  0  0  0
    7.9605  -16.8584   24.6119 O   0  0  0  0  0  0  0  0  0  0  0  0
    9.9079  -15.8303   25.3493 N   0  0  0  0  0  0  0  0  0  0  0  0
   10.4055  -17.0420   25.9062 C   0  0  1  0  0  0  0  0  0  0  0  0
   11.8022  -17.3820   25.3956 C   0  0  0  0  0  0  0  0  0  0  0  0
   12.2299  -18.6720   25.9901 C   0  0  0  0  0  0  0  0  0  0  0  0
   11.3941  -19.5718   26.2405 O   0  0  0  0  0  0  0  0  0  0  0  0
   10.4050  -17.0015   27.4064 C   0  0  0  0  0  0  0  0  0  0  0  0
   10.2132  -15.9031   27.9738 O   0  0  0  0  0  0  0  0  0  0  0  0
   13.5855  -18.8464   26.2600 O   0  0  0  0  0  0  0  0  0  0  0  0
   10.6065  -18.1246   28.1779 O   0  0  0  0  0  0  0  0  0  0  0  0
  2  1  1  0
  3  2  2  0
  4  2  1  0
  5  4  1  0
  6  5  1  0
  6  7  1  6
  8  6  1  0
  9  8  2  0
 11 10  1  0
 11 12  1  0
 14 13  1  1
 13 12  1  0
 14 15  1  0
 15  8  1  0
 16 18  1  0
 16 14  1  0
 17 16  2  0
 19 18  1  0
 19 20  1  6
 20 21  1  0
 21 22  2  0
 23 26  1  0
 23 19  1  0
 24 23  2  0
 25 21  1  0
M  END
$$$$
